
  -OEChem-04042216033D

 32 32  0     1  0  0  0  0  0999 V2000
   -3.6449   -3.9799    1.4887 H   0  0  0  0  0  0  0  0  0  0  0  0
   -3.6017   -3.0823    0.8655 C   0  0  0  0  0  0  0  0  0  0  0  0
   -4.3765   -2.3861    1.1956 H   0  0  0  0  0  0  0  0  0  0  0  0
   -3.7929   -3.3644   -0.1726 H   0  0  0  0  0  0  0  0  0  0  0  0
   -2.2367   -2.4307    0.9810 C   0  0  0  0  0  0  0  0  0  0  0  0
   -1.3833   -2.9220    1.7027 O   0  0  0  0  0  0  0  0  0  0  0  0
   -1.9673   -1.2774    0.2750 N   0  0  0  0  0  0  0  0  0  0  0  0
   -2.7393   -0.8415   -0.2286 H   0  0  0  0  0  0  0  0  0  0  0  0
   -0.7292   -0.4927    0.3975 C   0  0  1  0  0  0  0  0  0  0  0  0
   -0.1594   -0.7675    1.2909 H   0  0  0  0  0  0  0  0  0  0  0  0
    0.0875   -0.7941   -0.8778 C   0  0  0  0  0  0  0  0  0  0  0  0
    0.2483   -1.8767   -0.9167 H   0  0  0  0  0  0  0  0  0  0  0  0
   -0.5273   -0.5254   -1.7438 H   0  0  0  0  0  0  0  0  0  0  0  0
    1.4432   -0.1308   -1.0553 C   0  0  0  0  0  0  0  0  0  0  0  0
    2.1519   -0.4273   -2.2310 C   0  0  0  0  0  0  0  0  0  0  0  0
    1.6974   -1.0583   -2.9892 H   0  0  0  0  0  0  0  0  0  0  0  0
    3.4320    0.0882   -2.4574 C   0  0  0  0  0  0  0  0  0  0  0  0
    3.9526   -0.1390   -3.3831 H   0  0  0  0  0  0  0  0  0  0  0  0
    4.0415    0.8896   -1.4907 C   0  0  0  0  0  0  0  0  0  0  0  0
    5.0360    1.2905   -1.6633 H   0  0  0  0  0  0  0  0  0  0  0  0
    3.3743    1.1560   -0.2934 C   0  0  0  0  0  0  0  0  0  0  0  0
    3.8572    1.7564    0.4719 H   0  0  0  0  0  0  0  0  0  0  0  0
    2.0938    0.6370   -0.0715 C   0  0  0  0  0  0  0  0  0  0  0  0
    1.6408    0.8257    0.8904 H   0  0  0  0  0  0  0  0  0  0  0  0
   -1.1481    0.9943    0.4866 C   0  0  0  0  0  0  0  0  0  0  0  0
   -2.0331    1.4175   -0.2507 O   0  0  0  0  0  0  0  0  0  0  0  0
   -0.5902    1.8548    1.4156 N   0  0  0  0  0  0  0  0  0  0  0  0
    0.0724    1.4658    2.0793 H   0  0  0  0  0  0  0  0  0  0  0  0
   -0.9757    3.2549    1.5446 C   0  0  0  0  0  0  0  0  0  0  0  0
   -2.0473    3.3418    1.7532 H   0  0  0  0  0  0  0  0  0  0  0  0
   -0.4252    3.7245    2.3654 H   0  0  0  0  0  0  0  0  0  0  0  0
   -0.7508    3.7991    0.6213 H   0  0  0  0  0  0  0  0  0  0  0  0
  1  2  1  0  0  0  0
  2  3  1  0  0  0  0
  2  4  1  0  0  0  0
  2  5  1  0  0  0  0
  5  6  2  0  0  0  0
  5  7  1  0  0  0  0
  7  8  1  0  0  0  0
  7  9  1  0  0  0  0
  9 10  1  0  0  0  0
  9 11  1  0  0  0  0
  9 25  1  0  0  0  0
 11 12  1  0  0  0  0
 11 13  1  0  0  0  0
 11 14  1  0  0  0  0
 14 15  1  0  0  0  0
 14 23  2  0  0  0  0
 15 16  1  0  0  0  0
 15 17  2  0  0  0  0
 17 18  1  0  0  0  0
 17 19  1  0  0  0  0
 19 20  1  0  0  0  0
 19 21  2  0  0  0  0
 21 22  1  0  0  0  0
 21 23  1  0  0  0  0
 23 24  1  0  0  0  0
 25 26  2  0  0  0  0
 25 27  1  0  0  0  0
 27 28  1  0  0  0  0
 27 29  1  0  0  0  0
 29 30  1  0  0  0  0
 29 31  1  0  0  0  0
 29 32  1  0  0  0  0
M  END
$$$$

  -OEChem-04042216033D

 32 32  0     1  0  0  0  0  0999 V2000
   -3.6820   -3.9745    1.5511 H   0  0  0  0  0  0  0  0  0  0  0  0
   -3.6430   -3.0841    0.9173 C   0  0  0  0  0  0  0  0  0  0  0  0
   -4.4003   -2.3745    1.2593 H   0  0  0  0  0  0  0  0  0  0  0  0
   -3.8651   -3.3755   -0.1121 H   0  0  0  0  0  0  0  0  0  0  0  0
   -2.2668   -2.4495    0.9909 C   0  0  0  0  0  0  0  0  0  0  0  0
   -1.4000   -2.9498    1.6903 O   0  0  0  0  0  0  0  0  0  0  0  0
   -2.0010   -1.3044    0.2700 N   0  0  0  0  0  0  0  0  0  0  0  0
   -2.7825   -0.8602   -0.2111 H   0  0  0  0  0  0  0  0  0  0  0  0
   -0.7547   -0.5292    0.3601 C   0  0  1  0  0  0  0  0  0  0  0  0
   -0.1887   -0.8102    1.2533 H   0  0  0  0  0  0  0  0  0  0  0  0
    0.0661   -0.8323   -0.9084 C   0  0  0  0  0  0  0  0  0  0  0  0
    0.2434   -1.9121   -0.9481 H   0  0  0  0  0  0  0  0  0  0  0  0
   -0.5431   -0.5688   -1.7799 H   0  0  0  0  0  0  0  0  0  0  0  0
    1.4115   -0.1399   -1.0393 C   0  0  0  0  0  0  0  0  0  0  0  0
    2.0262   -0.1329   -2.3015 C   0  0  0  0  0  0  0  0  0  0  0  0
    1.5114   -0.5627   -3.1558 H   0  0  0  0  0  0  0  0  0  0  0  0
    3.2915    0.4332   -2.4863 C   0  0  0  0  0  0  0  0  0  0  0  0
    3.7414    0.4450   -3.4745 H   0  0  0  0  0  0  0  0  0  0  0  0
    3.9778    0.9784   -1.3995 C   0  0  0  0  0  0  0  0  0  0  0  0
    4.9613    1.4171   -1.5411 H   0  0  0  0  0  0  0  0  0  0  0  0
    3.4026    0.9398   -0.1275 C   0  0  0  0  0  0  0  0  0  0  0  0
    3.9464    1.3406    0.7228 H   0  0  0  0  0  0  0  0  0  0  0  0
    2.1368    0.3712    0.0542 C   0  0  0  0  0  0  0  0  0  0  0  0
    1.7471    0.3188    1.0629 H   0  0  0  0  0  0  0  0  0  0  0  0
   -1.1182    0.9701    0.4462 C   0  0  0  0  0  0  0  0  0  0  0  0
   -2.0251    1.4112   -0.2527 O   0  0  0  0  0  0  0  0  0  0  0  0
   -0.5043    1.8117    1.3565 N   0  0  0  0  0  0  0  0  0  0  0  0
    0.2264    1.4215    1.9431 H   0  0  0  0  0  0  0  0  0  0  0  0
   -0.8196    3.2300    1.4744 C   0  0  0  0  0  0  0  0  0  0  0  0
   -1.8836    3.3705    1.6921 H   0  0  0  0  0  0  0  0  0  0  0  0
   -0.2401    3.6802    2.2861 H   0  0  0  0  0  0  0  0  0  0  0  0
   -0.5775    3.7533    0.5434 H   0  0  0  0  0  0  0  0  0  0  0  0
  1  2  1  0  0  0  0
  2  3  1  0  0  0  0
  2  4  1  0  0  0  0
  2  5  1  0  0  0  0
  5  6  2  0  0  0  0
  5  7  1  0  0  0  0
  7  8  1  0  0  0  0
  7  9  1  0  0  0  0
  9 10  1  0  0  0  0
  9 11  1  0  0  0  0
  9 25  1  0  0  0  0
 11 12  1  0  0  0  0
 11 13  1  0  0  0  0
 11 14  1  0  0  0  0
 14 15  1  0  0  0  0
 14 23  2  0  0  0  0
 15 16  1  0  0  0  0
 15 17  2  0  0  0  0
 17 18  1  0  0  0  0
 17 19  1  0  0  0  0
 19 20  1  0  0  0  0
 19 21  2  0  0  0  0
 21 22  1  0  0  0  0
 21 23  1  0  0  0  0
 23 24  1  0  0  0  0
 25 26  2  0  0  0  0
 25 27  1  0  0  0  0
 27 28  1  0  0  0  0
 27 29  1  0  0  0  0
 29 30  1  0  0  0  0
 29 31  1  0  0  0  0
 29 32  1  0  0  0  0
M  END
$$$$

  -OEChem-04042216033D

 32 32  0     1  0  0  0  0  0999 V2000
   -3.6972   -3.9705    1.6118 H   0  0  0  0  0  0  0  0  0  0  0  0
   -3.6670   -3.0866    0.9685 C   0  0  0  0  0  0  0  0  0  0  0  0
   -4.4078   -2.3664    1.3243 H   0  0  0  0  0  0  0  0  0  0  0  0
   -3.9195   -3.3852   -0.0518 H   0  0  0  0  0  0  0  0  0  0  0  0
   -2.2832   -2.4652    0.9992 C   0  0  0  0  0  0  0  0  0  0  0  0
   -1.4014   -2.9733    1.6739 O   0  0  0  0  0  0  0  0  0  0  0  0
   -2.0271   -1.3255    0.2657 N   0  0  0  0  0  0  0  0  0  0  0  0
   -2.8189   -0.8733   -0.1899 H   0  0  0  0  0  0  0  0  0  0  0  0
   -0.7737   -0.5589    0.3240 C   0  0  1  0  0  0  0  0  0  0  0  0
   -0.2091   -0.8407    1.2167 H   0  0  0  0  0  0  0  0  0  0  0  0
    0.0468   -0.8671   -0.9407 C   0  0  0  0  0  0  0  0  0  0  0  0
    0.2372   -1.9445   -0.9786 H   0  0  0  0  0  0  0  0  0  0  0  0
   -0.5589   -0.6100   -1.8164 H   0  0  0  0  0  0  0  0  0  0  0  0
    1.3811   -0.1489   -1.0309 C   0  0  0  0  0  0  0  0  0  0  0  0
    1.8913    0.1729   -2.2985 C   0  0  0  0  0  0  0  0  0  0  0  0
    1.3082   -0.0421   -3.1892 H   0  0  0  0  0  0  0  0  0  0  0  0
    3.1418    0.7842   -2.4370 C   0  0  0  0  0  0  0  0  0  0  0  0
    3.5132    1.0414   -3.4247 H   0  0  0  0  0  0  0  0  0  0  0  0
    3.9154    1.0573   -1.3067 C   0  0  0  0  0  0  0  0  0  0  0  0
    4.8881    1.5285   -1.4135 H   0  0  0  0  0  0  0  0  0  0  0  0
    3.4422    0.7045   -0.0408 C   0  0  0  0  0  0  0  0  0  0  0  0
    4.0544    0.8927    0.8363 H   0  0  0  0  0  0  0  0  0  0  0  0
    2.1908    0.0936    0.0955 C   0  0  0  0  0  0  0  0  0  0  0  0
    1.8753   -0.2060    1.0884 H   0  0  0  0  0  0  0  0  0  0  0  0
   -1.0955    0.9479    0.4109 C   0  0  0  0  0  0  0  0  0  0  0  0
   -2.0219    1.4065   -0.2502 O   0  0  0  0  0  0  0  0  0  0  0  0
   -0.4318    1.7685    1.3047 N   0  0  0  0  0  0  0  0  0  0  0  0
    0.3679    1.3770    1.7925 H   0  0  0  0  0  0  0  0  0  0  0  0
   -0.6852    3.1996    1.4106 C   0  0  0  0  0  0  0  0  0  0  0  0
   -1.7387    3.3875    1.6428 H   0  0  0  0  0  0  0  0  0  0  0  0
   -0.0750    3.6329    2.2087 H   0  0  0  0  0  0  0  0  0  0  0  0
   -0.4359    3.7017    0.4700 H   0  0  0  0  0  0  0  0  0  0  0  0
  1  2  1  0  0  0  0
  2  3  1  0  0  0  0
  2  4  1  0  0  0  0
  2  5  1  0  0  0  0
  5  6  2  0  0  0  0
  5  7  1  0  0  0  0
  7  8  1  0  0  0  0
  7  9  1  0  0  0  0
  9 10  1  0  0  0  0
  9 11  1  0  0  0  0
  9 25  1  0  0  0  0
 11 12  1  0  0  0  0
 11 13  1  0  0  0  0
 11 14  1  0  0  0  0
 14 15  1  0  0  0  0
 14 23  2  0  0  0  0
 15 16  1  0  0  0  0
 15 17  2  0  0  0  0
 17 18  1  0  0  0  0
 17 19  1  0  0  0  0
 19 20  1  0  0  0  0
 19 21  2  0  0  0  0
 21 22  1  0  0  0  0
 21 23  1  0  0  0  0
 23 24  1  0  0  0  0
 25 26  2  0  0  0  0
 25 27  1  0  0  0  0
 27 28  1  0  0  0  0
 27 29  1  0  0  0  0
 29 30  1  0  0  0  0
 29 31  1  0  0  0  0
 29 32  1  0  0  0  0
M  END
$$$$

  -OEChem-04042216033D

 32 32  0     1  0  0  0  0  0999 V2000
   -3.7019   -3.9631    1.6601 H   0  0  0  0  0  0  0  0  0  0  0  0
   -3.6736   -3.0886    1.0041 C   0  0  0  0  0  0  0  0  0  0  0  0
   -4.4052   -2.3586    1.3589 H   0  0  0  0  0  0  0  0  0  0  0  0
   -3.9406   -3.3993   -0.0089 H   0  0  0  0  0  0  0  0  0  0  0  0
   -2.2854   -2.4761    1.0083 C   0  0  0  0  0  0  0  0  0  0  0  0
   -1.3931   -2.9907    1.6642 O   0  0  0  0  0  0  0  0  0  0  0  0
   -2.0359   -1.3399    0.2673 N   0  0  0  0  0  0  0  0  0  0  0  0
   -2.8326   -0.8848   -0.1766 H   0  0  0  0  0  0  0  0  0  0  0  0
   -0.7760   -0.5834    0.2992 C   0  0  1  0  0  0  0  0  0  0  0  0
   -0.2002   -0.8651    1.1851 H   0  0  0  0  0  0  0  0  0  0  0  0
    0.0286   -0.8993   -0.9722 C   0  0  0  0  0  0  0  0  0  0  0  0
    0.2241   -1.9758   -1.0117 H   0  0  0  0  0  0  0  0  0  0  0  0
   -0.5780   -0.6435   -1.8474 H   0  0  0  0  0  0  0  0  0  0  0  0
    1.3527   -0.1655   -1.0334 C   0  0  0  0  0  0  0  0  0  0  0  0
    1.7482    0.4626   -2.2245 C   0  0  0  0  0  0  0  0  0  0  0  0
    1.0881    0.4608   -3.0871 H   0  0  0  0  0  0  0  0  0  0  0  0
    2.9838    1.1130   -2.3136 C   0  0  0  0  0  0  0  0  0  0  0  0
    3.2698    1.6094   -3.2365 H   0  0  0  0  0  0  0  0  0  0  0  0
    3.8514    1.1199   -1.2182 C   0  0  0  0  0  0  0  0  0  0  0  0
    4.8123    1.6214   -1.2885 H   0  0  0  0  0  0  0  0  0  0  0  0
    3.4871    0.4651   -0.0390 C   0  0  0  0  0  0  0  0  0  0  0  0
    4.1708    0.4484    0.8047 H   0  0  0  0  0  0  0  0  0  0  0  0
    2.2504   -0.1824    0.0492 C   0  0  0  0  0  0  0  0  0  0  0  0
    2.0060   -0.7150    0.9628 H   0  0  0  0  0  0  0  0  0  0  0  0
   -1.0691    0.9285    0.3893 C   0  0  0  0  0  0  0  0  0  0  0  0
   -1.9981    1.4037   -0.2560 O   0  0  0  0  0  0  0  0  0  0  0  0
   -0.3697    1.7346    1.2688 N   0  0  0  0  0  0  0  0  0  0  0  0
    0.4489    1.3305    1.7143 H   0  0  0  0  0  0  0  0  0  0  0  0
   -0.5692    3.1757    1.3532 C   0  0  0  0  0  0  0  0  0  0  0  0
   -1.6138    3.4064    1.5875 H   0  0  0  0  0  0  0  0  0  0  0  0
    0.0612    3.5980    2.1415 H   0  0  0  0  0  0  0  0  0  0  0  0
   -0.3066    3.6541    0.4039 H   0  0  0  0  0  0  0  0  0  0  0  0
  1  2  1  0  0  0  0
  2  3  1  0  0  0  0
  2  4  1  0  0  0  0
  2  5  1  0  0  0  0
  5  6  2  0  0  0  0
  5  7  1  0  0  0  0
  7  8  1  0  0  0  0
  7  9  1  0  0  0  0
  9 10  1  0  0  0  0
  9 11  1  0  0  0  0
  9 25  1  0  0  0  0
 11 12  1  0  0  0  0
 11 13  1  0  0  0  0
 11 14  1  0  0  0  0
 14 15  1  0  0  0  0
 14 23  2  0  0  0  0
 15 16  1  0  0  0  0
 15 17  2  0  0  0  0
 17 18  1  0  0  0  0
 17 19  1  0  0  0  0
 19 20  1  0  0  0  0
 19 21  2  0  0  0  0
 21 22  1  0  0  0  0
 21 23  1  0  0  0  0
 23 24  1  0  0  0  0
 25 26  2  0  0  0  0
 25 27  1  0  0  0  0
 27 28  1  0  0  0  0
 27 29  1  0  0  0  0
 29 30  1  0  0  0  0
 29 31  1  0  0  0  0
 29 32  1  0  0  0  0
M  END
$$$$

  -OEChem-04042216033D

 32 32  0     1  0  0  0  0  0999 V2000
   -3.6966   -3.9566    1.6808 H   0  0  0  0  0  0  0  0  0  0  0  0
   -3.6703   -3.0888    1.0159 C   0  0  0  0  0  0  0  0  0  0  0  0
   -4.4011   -2.3556    1.3655 H   0  0  0  0  0  0  0  0  0  0  0  0
   -3.9397   -3.4101    0.0068 H   0  0  0  0  0  0  0  0  0  0  0  0
   -2.2823   -2.4763    1.0109 C   0  0  0  0  0  0  0  0  0  0  0  0
   -1.3851   -2.9919    1.6595 O   0  0  0  0  0  0  0  0  0  0  0  0
   -2.0365   -1.3421    0.2657 N   0  0  0  0  0  0  0  0  0  0  0  0
   -2.8343   -0.8869   -0.1756 H   0  0  0  0  0  0  0  0  0  0  0  0
   -0.7708   -0.5954    0.2788 C   0  0  1  0  0  0  0  0  0  0  0  0
   -0.1807   -0.8790    1.1555 H   0  0  0  0  0  0  0  0  0  0  0  0
    0.0179   -0.9248   -0.9969 C   0  0  0  0  0  0  0  0  0  0  0  0
    0.2104   -2.0019   -1.0350 H   0  0  0  0  0  0  0  0  0  0  0  0
   -0.5881   -0.6684   -1.8725 H   0  0  0  0  0  0  0  0  0  0  0  0
    1.3366   -0.1867   -1.0433 C   0  0  0  0  0  0  0  0  0  0  0  0
    1.6155    0.7041   -2.0903 C   0  0  0  0  0  0  0  0  0  0  0  0
    0.8741    0.8880   -2.8626 H   0  0  0  0  0  0  0  0  0  0  0  0
    2.8413    1.3759   -2.1442 C   0  0  0  0  0  0  0  0  0  0  0  0
    3.0427    2.0707   -2.9542 H   0  0  0  0  0  0  0  0  0  0  0  0
    3.8070    1.1509   -1.1588 C   0  0  0  0  0  0  0  0  0  0  0  0
    4.7601    1.6700   -1.2032 H   0  0  0  0  0  0  0  0  0  0  0  0
    3.5479    0.2484   -0.1232 C   0  0  0  0  0  0  0  0  0  0  0  0
    4.3030    0.0611    0.6348 H   0  0  0  0  0  0  0  0  0  0  0  0
    2.3212   -0.4217   -0.0697 C   0  0  0  0  0  0  0  0  0  0  0  0
    2.1417   -1.1368    0.7281 H   0  0  0  0  0  0  0  0  0  0  0  0
   -1.0445    0.9194    0.3731 C   0  0  0  0  0  0  0  0  0  0  0  0
   -1.9732    1.4085   -0.2621 O   0  0  0  0  0  0  0  0  0  0  0  0
   -0.3198    1.7129    1.2431 N   0  0  0  0  0  0  0  0  0  0  0  0
    0.5005    1.2941    1.6723 H   0  0  0  0  0  0  0  0  0  0  0  0
   -0.4962    3.1564    1.3368 C   0  0  0  0  0  0  0  0  0  0  0  0
   -1.5363    3.4021    1.5755 H   0  0  0  0  0  0  0  0  0  0  0  0
    0.1426    3.5640    2.1263 H   0  0  0  0  0  0  0  0  0  0  0  0
   -0.2285    3.6366    0.3898 H   0  0  0  0  0  0  0  0  0  0  0  0
  1  2  1  0  0  0  0
  2  3  1  0  0  0  0
  2  4  1  0  0  0  0
  2  5  1  0  0  0  0
  5  6  2  0  0  0  0
  5  7  1  0  0  0  0
  7  8  1  0  0  0  0
  7  9  1  0  0  0  0
  9 10  1  0  0  0  0
  9 11  1  0  0  0  0
  9 25  1  0  0  0  0
 11 12  1  0  0  0  0
 11 13  1  0  0  0  0
 11 14  1  0  0  0  0
 14 15  1  0  0  0  0
 14 23  2  0  0  0  0
 15 16  1  0  0  0  0
 15 17  2  0  0  0  0
 17 18  1  0  0  0  0
 17 19  1  0  0  0  0
 19 20  1  0  0  0  0
 19 21  2  0  0  0  0
 21 22  1  0  0  0  0
 21 23  1  0  0  0  0
 23 24  1  0  0  0  0
 25 26  2  0  0  0  0
 25 27  1  0  0  0  0
 27 28  1  0  0  0  0
 27 29  1  0  0  0  0
 29 30  1  0  0  0  0
 29 31  1  0  0  0  0
 29 32  1  0  0  0  0
M  END
$$$$

  -OEChem-04042216033D

 32 32  0     1  0  0  0  0  0999 V2000
   -3.7031   -3.9436    1.6926 H   0  0  0  0  0  0  0  0  0  0  0  0
   -3.6750   -3.0741    1.0298 C   0  0  0  0  0  0  0  0  0  0  0  0
   -4.3843   -2.3283    1.3967 H   0  0  0  0  0  0  0  0  0  0  0  0
   -3.9724   -3.3863    0.0258 H   0  0  0  0  0  0  0  0  0  0  0  0
   -2.2764   -2.4870    0.9955 C   0  0  0  0  0  0  0  0  0  0  0  0
   -1.3730   -3.0232    1.6182 O   0  0  0  0  0  0  0  0  0  0  0  0
   -2.0308   -1.3499    0.2549 N   0  0  0  0  0  0  0  0  0  0  0  0
   -2.8334   -0.8801   -0.1620 H   0  0  0  0  0  0  0  0  0  0  0  0
   -0.7610   -0.6097    0.2602 C   0  0  1  0  0  0  0  0  0  0  0  0
   -0.1615   -0.8991    1.1292 H   0  0  0  0  0  0  0  0  0  0  0  0
    0.0179   -0.9422   -1.0199 C   0  0  0  0  0  0  0  0  0  0  0  0
    0.2044   -2.0202   -1.0624 H   0  0  0  0  0  0  0  0  0  0  0  0
   -0.5854   -0.6796   -1.8954 H   0  0  0  0  0  0  0  0  0  0  0  0
    1.3347   -0.2041   -1.0582 C   0  0  0  0  0  0  0  0  0  0  0  0
    1.5084    0.9072   -1.8965 C   0  0  0  0  0  0  0  0  0  0  0  0
    0.6903    1.2490   -2.5246 H   0  0  0  0  0  0  0  0  0  0  0  0
    2.7278    1.5926   -1.9214 C   0  0  0  0  0  0  0  0  0  0  0  0
    2.8510    2.4548   -2.5704 H   0  0  0  0  0  0  0  0  0  0  0  0
    3.7864    1.1671   -1.1133 C   0  0  0  0  0  0  0  0  0  0  0  0
    4.7344    1.6967   -1.1361 H   0  0  0  0  0  0  0  0  0  0  0  0
    3.6244    0.0559   -0.2802 C   0  0  0  0  0  0  0  0  0  0  0  0
    4.4478   -0.2802    0.3434 H   0  0  0  0  0  0  0  0  0  0  0  0
    2.4036   -0.6269   -0.2541 C   0  0  0  0  0  0  0  0  0  0  0  0
    2.2882   -1.4934    0.3915 H   0  0  0  0  0  0  0  0  0  0  0  0
   -1.0283    0.9056    0.3658 C   0  0  0  0  0  0  0  0  0  0  0  0
   -1.9535    1.4034   -0.2680 O   0  0  0  0  0  0  0  0  0  0  0  0
   -0.2941    1.6937    1.2327 N   0  0  0  0  0  0  0  0  0  0  0  0
    0.5252    1.2695    1.6592 H   0  0  0  0  0  0  0  0  0  0  0  0
   -0.4627    3.1380    1.3271 C   0  0  0  0  0  0  0  0  0  0  0  0
   -1.4975    3.3880    1.5838 H   0  0  0  0  0  0  0  0  0  0  0  0
    0.1918    3.5446    2.1040 H   0  0  0  0  0  0  0  0  0  0  0  0
   -0.2101    3.6150    0.3744 H   0  0  0  0  0  0  0  0  0  0  0  0
  1  2  1  0  0  0  0
  2  3  1  0  0  0  0
  2  4  1  0  0  0  0
  2  5  1  0  0  0  0
  5  6  2  0  0  0  0
  5  7  1  0  0  0  0
  7  8  1  0  0  0  0
  7  9  1  0  0  0  0
  9 10  1  0  0  0  0
  9 11  1  0  0  0  0
  9 25  1  0  0  0  0
 11 12  1  0  0  0  0
 11 13  1  0  0  0  0
 11 14  1  0  0  0  0
 14 15  1  0  0  0  0
 14 23  2  0  0  0  0
 15 16  1  0  0  0  0
 15 17  2  0  0  0  0
 17 18  1  0  0  0  0
 17 19  1  0  0  0  0
 19 20  1  0  0  0  0
 19 21  2  0  0  0  0
 21 22  1  0  0  0  0
 21 23  1  0  0  0  0
 23 24  1  0  0  0  0
 25 26  2  0  0  0  0
 25 27  1  0  0  0  0
 27 28  1  0  0  0  0
 27 29  1  0  0  0  0
 29 30  1  0  0  0  0
 29 31  1  0  0  0  0
 29 32  1  0  0  0  0
M  END
$$$$

  -OEChem-04042216033D

 32 32  0     1  0  0  0  0  0999 V2000
   -3.7031   -3.9461    1.6708 H   0  0  0  0  0  0  0  0  0  0  0  0
   -3.6748   -3.0723    1.0137 C   0  0  0  0  0  0  0  0  0  0  0  0
   -4.3859   -2.3298    1.3840 H   0  0  0  0  0  0  0  0  0  0  0  0
   -3.9693   -3.3784    0.0069 H   0  0  0  0  0  0  0  0  0  0  0  0
   -2.2768   -2.4833    0.9868 C   0  0  0  0  0  0  0  0  0  0  0  0
   -1.3743   -3.0223    1.6081 O   0  0  0  0  0  0  0  0  0  0  0  0
   -2.0304   -1.3413    0.2542 N   0  0  0  0  0  0  0  0  0  0  0  0
   -2.8313   -0.8727   -0.1669 H   0  0  0  0  0  0  0  0  0  0  0  0
   -0.7604   -0.6015    0.2624 C   0  0  1  0  0  0  0  0  0  0  0  0
   -0.1595   -0.8936    1.1298 H   0  0  0  0  0  0  0  0  0  0  0  0
    0.0193   -0.9468   -1.0154 C   0  0  0  0  0  0  0  0  0  0  0  0
    0.1938   -2.0272   -1.0523 H   0  0  0  0  0  0  0  0  0  0  0  0
   -0.5808   -0.6832   -1.8926 H   0  0  0  0  0  0  0  0  0  0  0  0
    1.3415   -0.2187   -1.0714 C   0  0  0  0  0  0  0  0  0  0  0  0
    1.4391    1.0465   -1.6713 C   0  0  0  0  0  0  0  0  0  0  0  0
    0.5608    1.5065   -2.1166 H   0  0  0  0  0  0  0  0  0  0  0  0
    2.6601    1.7281   -1.6959 C   0  0  0  0  0  0  0  0  0  0  0  0
    2.7246    2.7063   -2.1633 H   0  0  0  0  0  0  0  0  0  0  0  0
    3.7953    1.1504   -1.1193 C   0  0  0  0  0  0  0  0  0  0  0  0
    4.7442    1.6786   -1.1402 H   0  0  0  0  0  0  0  0  0  0  0  0
    3.7071   -0.1086   -0.5173 C   0  0  0  0  0  0  0  0  0  0  0  0
    4.5879   -0.5594   -0.0695 H   0  0  0  0  0  0  0  0  0  0  0  0
    2.4846   -0.7889   -0.4927 C   0  0  0  0  0  0  0  0  0  0  0  0
    2.4251   -1.7656   -0.0204 H   0  0  0  0  0  0  0  0  0  0  0  0
   -1.0313    0.9118    0.3786 C   0  0  0  0  0  0  0  0  0  0  0  0
   -1.9478    1.4164   -0.2622 O   0  0  0  0  0  0  0  0  0  0  0  0
   -0.2971    1.6942    1.2509 N   0  0  0  0  0  0  0  0  0  0  0  0
    0.5132    1.2623    1.6870 H   0  0  0  0  0  0  0  0  0  0  0  0
   -0.4628    3.1380    1.3576 C   0  0  0  0  0  0  0  0  0  0  0  0
   -1.4981    3.3885    1.6120 H   0  0  0  0  0  0  0  0  0  0  0  0
    0.1889    3.5357    2.1413 H   0  0  0  0  0  0  0  0  0  0  0  0
   -0.2044    3.6231    0.4106 H   0  0  0  0  0  0  0  0  0  0  0  0
  1  2  1  0  0  0  0
  2  3  1  0  0  0  0
  2  4  1  0  0  0  0
  2  5  1  0  0  0  0
  5  6  2  0  0  0  0
  5  7  1  0  0  0  0
  7  8  1  0  0  0  0
  7  9  1  0  0  0  0
  9 10  1  0  0  0  0
  9 11  1  0  0  0  0
  9 25  1  0  0  0  0
 11 12  1  0  0  0  0
 11 13  1  0  0  0  0
 11 14  1  0  0  0  0
 14 15  1  0  0  0  0
 14 23  2  0  0  0  0
 15 16  1  0  0  0  0
 15 17  2  0  0  0  0
 17 18  1  0  0  0  0
 17 19  1  0  0  0  0
 19 20  1  0  0  0  0
 19 21  2  0  0  0  0
 21 22  1  0  0  0  0
 21 23  1  0  0  0  0
 23 24  1  0  0  0  0
 25 26  2  0  0  0  0
 25 27  1  0  0  0  0
 27 28  1  0  0  0  0
 27 29  1  0  0  0  0
 29 30  1  0  0  0  0
 29 31  1  0  0  0  0
 29 32  1  0  0  0  0
M  END
$$$$

  -OEChem-04042216033D

 32 32  0     1  0  0  0  0  0999 V2000
   -3.6841   -3.9587    1.6413 H   0  0  0  0  0  0  0  0  0  0  0  0
   -3.6610   -3.0770    0.9946 C   0  0  0  0  0  0  0  0  0  0  0  0
   -4.3783   -2.3444    1.3725 H   0  0  0  0  0  0  0  0  0  0  0  0
   -3.9516   -3.3733   -0.0162 H   0  0  0  0  0  0  0  0  0  0  0  0
   -2.2676   -2.4770    0.9767 C   0  0  0  0  0  0  0  0  0  0  0  0
   -1.3622   -3.0160    1.5935 O   0  0  0  0  0  0  0  0  0  0  0  0
   -2.0285   -1.3245    0.2579 N   0  0  0  0  0  0  0  0  0  0  0  0
   -2.8319   -0.8581   -0.1610 H   0  0  0  0  0  0  0  0  0  0  0  0
   -0.7639   -0.5748    0.2770 C   0  0  1  0  0  0  0  0  0  0  0  0
   -0.1651   -0.8656    1.1463 H   0  0  0  0  0  0  0  0  0  0  0  0
    0.0254   -0.9316   -0.9960 C   0  0  0  0  0  0  0  0  0  0  0  0
    0.1843   -2.0147   -1.0231 H   0  0  0  0  0  0  0  0  0  0  0  0
   -0.5760   -0.6716   -1.8734 H   0  0  0  0  0  0  0  0  0  0  0  0
    1.3578   -0.2198   -1.0941 C   0  0  0  0  0  0  0  0  0  0  0  0
    1.4410    1.1405   -1.4358 C   0  0  0  0  0  0  0  0  0  0  0  0
    0.5424    1.6984   -1.6857 H   0  0  0  0  0  0  0  0  0  0  0  0
    2.6780    1.7921   -1.4744 C   0  0  0  0  0  0  0  0  0  0  0  0
    2.7290    2.8421   -1.7471 H   0  0  0  0  0  0  0  0  0  0  0  0
    3.8473    1.0917   -1.1658 C   0  0  0  0  0  0  0  0  0  0  0  0
    4.8086    1.5963   -1.1968 H   0  0  0  0  0  0  0  0  0  0  0  0
    3.7769   -0.2603   -0.8189 C   0  0  0  0  0  0  0  0  0  0  0  0
    4.6836   -0.8072   -0.5770 H   0  0  0  0  0  0  0  0  0  0  0  0
    2.5385   -0.9102   -0.7811 C   0  0  0  0  0  0  0  0  0  0  0  0
    2.4978   -1.9591   -0.5009 H   0  0  0  0  0  0  0  0  0  0  0  0
   -1.0597    0.9315    0.4106 C   0  0  0  0  0  0  0  0  0  0  0  0
   -1.9759    1.4322   -0.2332 O   0  0  0  0  0  0  0  0  0  0  0  0
   -0.3404    1.7148    1.2943 N   0  0  0  0  0  0  0  0  0  0  0  0
    0.4664    1.2866    1.7406 H   0  0  0  0  0  0  0  0  0  0  0  0
   -0.5304    3.1540    1.4217 C   0  0  0  0  0  0  0  0  0  0  0  0
   -1.5707    3.3838    1.6752 H   0  0  0  0  0  0  0  0  0  0  0  0
    0.1116    3.5509    2.2138 H   0  0  0  0  0  0  0  0  0  0  0  0
   -0.2761    3.6573    0.4830 H   0  0  0  0  0  0  0  0  0  0  0  0
  1  2  1  0  0  0  0
  2  3  1  0  0  0  0
  2  4  1  0  0  0  0
  2  5  1  0  0  0  0
  5  6  2  0  0  0  0
  5  7  1  0  0  0  0
  7  8  1  0  0  0  0
  7  9  1  0  0  0  0
  9 10  1  0  0  0  0
  9 11  1  0  0  0  0
  9 25  1  0  0  0  0
 11 12  1  0  0  0  0
 11 13  1  0  0  0  0
 11 14  1  0  0  0  0
 14 15  1  0  0  0  0
 14 23  2  0  0  0  0
 15 16  1  0  0  0  0
 15 17  2  0  0  0  0
 17 18  1  0  0  0  0
 17 19  1  0  0  0  0
 19 20  1  0  0  0  0
 19 21  2  0  0  0  0
 21 22  1  0  0  0  0
 21 23  1  0  0  0  0
 23 24  1  0  0  0  0
 25 26  2  0  0  0  0
 25 27  1  0  0  0  0
 27 28  1  0  0  0  0
 27 29  1  0  0  0  0
 29 30  1  0  0  0  0
 29 31  1  0  0  0  0
 29 32  1  0  0  0  0
M  END
$$$$

  -OEChem-04042216033D

 32 32  0     1  0  0  0  0  0999 V2000
   -3.6438   -3.9821    1.5927 H   0  0  0  0  0  0  0  0  0  0  0  0
   -3.6308   -3.0880    0.9630 C   0  0  0  0  0  0  0  0  0  0  0  0
   -4.3651   -2.3760    1.3475 H   0  0  0  0  0  0  0  0  0  0  0  0
   -3.9063   -3.3706   -0.0560 H   0  0  0  0  0  0  0  0  0  0  0  0
   -2.2486   -2.4620    0.9711 C   0  0  0  0  0  0  0  0  0  0  0  0
   -1.3433   -2.9890    1.5986 O   0  0  0  0  0  0  0  0  0  0  0  0
   -2.0189   -1.2994    0.2654 N   0  0  0  0  0  0  0  0  0  0  0  0
   -2.8227   -0.8455   -0.1669 H   0  0  0  0  0  0  0  0  0  0  0  0
   -0.7657   -0.5305    0.3055 C   0  0  1  0  0  0  0  0  0  0  0  0
   -0.1746   -0.8131    1.1829 H   0  0  0  0  0  0  0  0  0  0  0  0
    0.0410   -0.8988   -0.9582 C   0  0  0  0  0  0  0  0  0  0  0  0
    0.1870   -1.9841   -0.9648 H   0  0  0  0  0  0  0  0  0  0  0  0
   -0.5627   -0.6519   -1.8377 H   0  0  0  0  0  0  0  0  0  0  0  0
    1.3856   -0.2084   -1.1119 C   0  0  0  0  0  0  0  0  0  0  0  0
    1.5218    1.1893   -1.1971 C   0  0  0  0  0  0  0  0  0  0  0  0
    0.6492    1.8327   -1.2445 H   0  0  0  0  0  0  0  0  0  0  0  0
    2.7851    1.7851   -1.2718 C   0  0  0  0  0  0  0  0  0  0  0  0
    2.8708    2.8651   -1.3490 H   0  0  0  0  0  0  0  0  0  0  0  0
    3.9350    0.9925   -1.2574 C   0  0  0  0  0  0  0  0  0  0  0  0
    4.9166    1.4537   -1.3169 H   0  0  0  0  0  0  0  0  0  0  0  0
    3.8181   -0.3967   -1.1718 C   0  0  0  0  0  0  0  0  0  0  0  0
    4.7093   -1.0174   -1.1604 H   0  0  0  0  0  0  0  0  0  0  0  0
    2.5533   -0.9896   -1.0964 C   0  0  0  0  0  0  0  0  0  0  0  0
    2.4852   -2.0710   -1.0172 H   0  0  0  0  0  0  0  0  0  0  0  0
   -1.1036    0.9652    0.4493 C   0  0  0  0  0  0  0  0  0  0  0  0
   -2.0216    1.4507   -0.2034 O   0  0  0  0  0  0  0  0  0  0  0  0
   -0.4162    1.7581    1.3502 N   0  0  0  0  0  0  0  0  0  0  0  0
    0.3728    1.3372    1.8341 H   0  0  0  0  0  0  0  0  0  0  0  0
   -0.6701    3.1828    1.5227 C   0  0  0  0  0  0  0  0  0  0  0  0
   -1.7205    3.3571    1.7790 H   0  0  0  0  0  0  0  0  0  0  0  0
   -0.0485    3.5818    2.3300 H   0  0  0  0  0  0  0  0  0  0  0  0
   -0.4361    3.7278    0.6022 H   0  0  0  0  0  0  0  0  0  0  0  0
  1  2  1  0  0  0  0
  2  3  1  0  0  0  0
  2  4  1  0  0  0  0
  2  5  1  0  0  0  0
  5  6  2  0  0  0  0
  5  7  1  0  0  0  0
  7  8  1  0  0  0  0
  7  9  1  0  0  0  0
  9 10  1  0  0  0  0
  9 11  1  0  0  0  0
  9 25  1  0  0  0  0
 11 12  1  0  0  0  0
 11 13  1  0  0  0  0
 11 14  1  0  0  0  0
 14 15  1  0  0  0  0
 14 23  2  0  0  0  0
 15 16  1  0  0  0  0
 15 17  2  0  0  0  0
 17 18  1  0  0  0  0
 17 19  1  0  0  0  0
 19 20  1  0  0  0  0
 19 21  2  0  0  0  0
 21 22  1  0  0  0  0
 21 23  1  0  0  0  0
 23 24  1  0  0  0  0
 25 26  2  0  0  0  0
 25 27  1  0  0  0  0
 27 28  1  0  0  0  0
 27 29  1  0  0  0  0
 29 30  1  0  0  0  0
 29 31  1  0  0  0  0
 29 32  1  0  0  0  0
M  END
$$$$

  -OEChem-04042216033D

 32 32  0     1  0  0  0  0  0999 V2000
   -3.6059   -4.0044    1.5233 H   0  0  0  0  0  0  0  0  0  0  0  0
   -3.5944   -3.0996    0.9092 C   0  0  0  0  0  0  0  0  0  0  0  0
   -4.3533   -2.4089    1.2849 H   0  0  0  0  0  0  0  0  0  0  0  0
   -3.8365   -3.3704   -0.1214 H   0  0  0  0  0  0  0  0  0  0  0  0
   -2.2260   -2.4464    0.9655 C   0  0  0  0  0  0  0  0  0  0  0  0
   -1.3318   -2.9568    1.6214 O   0  0  0  0  0  0  0  0  0  0  0  0
   -1.9971   -1.2754    0.2738 N   0  0  0  0  0  0  0  0  0  0  0  0
   -2.7961   -0.8342   -0.1801 H   0  0  0  0  0  0  0  0  0  0  0  0
   -0.7592   -0.4841    0.3519 C   0  0  1  0  0  0  0  0  0  0  0  0
   -0.1810   -0.7576    1.2405 H   0  0  0  0  0  0  0  0  0  0  0  0
    0.0694   -0.8551   -0.9011 C   0  0  0  0  0  0  0  0  0  0  0  0
    0.2104   -1.9410   -0.8867 H   0  0  0  0  0  0  0  0  0  0  0  0
   -0.5337   -0.6238   -1.7852 H   0  0  0  0  0  0  0  0  0  0  0  0
    1.4249   -0.1891   -1.1018 C   0  0  0  0  0  0  0  0  0  0  0  0
    1.6678    1.1876   -0.9331 C   0  0  0  0  0  0  0  0  0  0  0  0
    0.8644    1.8887   -0.7496 H   0  0  0  0  0  0  0  0  0  0  0  0
    2.9557    1.7160   -1.0719 C   0  0  0  0  0  0  0  0  0  0  0  0
    3.1193    2.7831   -0.9534 H   0  0  0  0  0  0  0  0  0  0  0  0
    4.0290    0.8780   -1.3781 C   0  0  0  0  0  0  0  0  0  0  0  0
    5.0282    1.2890   -1.4885 H   0  0  0  0  0  0  0  0  0  0  0  0
    3.8098   -0.4893   -1.5510 C   0  0  0  0  0  0  0  0  0  0  0  0
    4.6401   -1.1468   -1.7912 H   0  0  0  0  0  0  0  0  0  0  0  0
    2.5210   -1.0141   -1.4120 C   0  0  0  0  0  0  0  0  0  0  0  0
    2.3801   -2.0832   -1.5411 H   0  0  0  0  0  0  0  0  0  0  0  0
   -1.1498    0.9992    0.4951 C   0  0  0  0  0  0  0  0  0  0  0  0
   -2.0593    1.4634   -0.1841 O   0  0  0  0  0  0  0  0  0  0  0  0
   -0.5144    1.8076    1.4212 N   0  0  0  0  0  0  0  0  0  0  0  0
    0.2395    1.3950    1.9648 H   0  0  0  0  0  0  0  0  0  0  0  0
   -0.8435    3.2136    1.6215 C   0  0  0  0  0  0  0  0  0  0  0  0
   -1.9018    3.3271    1.8789 H   0  0  0  0  0  0  0  0  0  0  0  0
   -0.2444    3.6291    2.4375 H   0  0  0  0  0  0  0  0  0  0  0  0
   -0.6382    3.7888    0.7126 H   0  0  0  0  0  0  0  0  0  0  0  0
  1  2  1  0  0  0  0
  2  3  1  0  0  0  0
  2  4  1  0  0  0  0
  2  5  1  0  0  0  0
  5  6  2  0  0  0  0
  5  7  1  0  0  0  0
  7  8  1  0  0  0  0
  7  9  1  0  0  0  0
  9 10  1  0  0  0  0
  9 11  1  0  0  0  0
  9 25  1  0  0  0  0
 11 12  1  0  0  0  0
 11 13  1  0  0  0  0
 11 14  1  0  0  0  0
 14 15  1  0  0  0  0
 14 23  2  0  0  0  0
 15 16  1  0  0  0  0
 15 17  2  0  0  0  0
 17 18  1  0  0  0  0
 17 19  1  0  0  0  0
 19 20  1  0  0  0  0
 19 21  2  0  0  0  0
 21 22  1  0  0  0  0
 21 23  1  0  0  0  0
 23 24  1  0  0  0  0
 25 26  2  0  0  0  0
 25 27  1  0  0  0  0
 27 28  1  0  0  0  0
 27 29  1  0  0  0  0
 29 30  1  0  0  0  0
 29 31  1  0  0  0  0
 29 32  1  0  0  0  0
M  END
$$$$

  -OEChem-04042216033D

 32 32  0     1  0  0  0  0  0999 V2000
   -3.5905   -4.0160    1.4359 H   0  0  0  0  0  0  0  0  0  0  0  0
   -3.5656   -3.1018    0.8361 C   0  0  0  0  0  0  0  0  0  0  0  0
   -4.3518   -2.4288    1.1869 H   0  0  0  0  0  0  0  0  0  0  0  0
   -3.7563   -3.3604   -0.2082 H   0  0  0  0  0  0  0  0  0  0  0  0
   -2.2118   -2.4285    0.9636 C   0  0  0  0  0  0  0  0  0  0  0  0
   -1.3466   -2.9229    1.6687 O   0  0  0  0  0  0  0  0  0  0  0  0
   -1.9634   -1.2557    0.2822 N   0  0  0  0  0  0  0  0  0  0  0  0
   -2.7430   -0.8257   -0.2145 H   0  0  0  0  0  0  0  0  0  0  0  0
   -0.7380   -0.4516    0.4156 C   0  0  1  0  0  0  0  0  0  0  0  0
   -0.1797   -0.7179    1.3188 H   0  0  0  0  0  0  0  0  0  0  0  0
    0.1097   -0.8164   -0.8289 C   0  0  0  0  0  0  0  0  0  0  0  0
    0.2471   -1.9029   -0.8052 H   0  0  0  0  0  0  0  0  0  0  0  0
   -0.4897   -0.5881   -1.7166 H   0  0  0  0  0  0  0  0  0  0  0  0
    1.4774   -0.1811   -1.0544 C   0  0  0  0  0  0  0  0  0  0  0  0
    1.8644    1.1053   -0.6328 C   0  0  0  0  0  0  0  0  0  0  0  0
    1.1755    1.7903   -0.1663 H   0  0  0  0  0  0  0  0  0  0  0  0
    3.1616    1.5802   -0.8559 C   0  0  0  0  0  0  0  0  0  0  0  0
    3.4341    2.5806   -0.5328 H   0  0  0  0  0  0  0  0  0  0  0  0
    4.1023    0.7786   -1.5035 C   0  0  0  0  0  0  0  0  0  0  0  0
    5.1088    1.1480   -1.6766 H   0  0  0  0  0  0  0  0  0  0  0  0
    3.7396   -0.4976   -1.9344 C   0  0  0  0  0  0  0  0  0  0  0  0
    4.4647   -1.1269   -2.4420 H   0  0  0  0  0  0  0  0  0  0  0  0
    2.4416   -0.9674   -1.7111 C   0  0  0  0  0  0  0  0  0  0  0  0
    2.1858   -1.9662   -2.0524 H   0  0  0  0  0  0  0  0  0  0  0  0
   -1.1779    1.0219    0.5379 C   0  0  0  0  0  0  0  0  0  0  0  0
   -2.0619    1.4604   -0.1901 O   0  0  0  0  0  0  0  0  0  0  0  0
   -0.6156    1.8534    1.4910 N   0  0  0  0  0  0  0  0  0  0  0  0
    0.0795    1.4505    2.1141 H   0  0  0  0  0  0  0  0  0  0  0  0
   -1.0123    3.2435    1.6796 C   0  0  0  0  0  0  0  0  0  0  0  0
   -2.0795    3.3094    1.9162 H   0  0  0  0  0  0  0  0  0  0  0  0
   -0.4478    3.6892    2.5042 H   0  0  0  0  0  0  0  0  0  0  0  0
   -0.8153    3.8242    0.7724 H   0  0  0  0  0  0  0  0  0  0  0  0
  1  2  1  0  0  0  0
  2  3  1  0  0  0  0
  2  4  1  0  0  0  0
  2  5  1  0  0  0  0
  5  6  2  0  0  0  0
  5  7  1  0  0  0  0
  7  8  1  0  0  0  0
  7  9  1  0  0  0  0
  9 10  1  0  0  0  0
  9 11  1  0  0  0  0
  9 25  1  0  0  0  0
 11 12  1  0  0  0  0
 11 13  1  0  0  0  0
 11 14  1  0  0  0  0
 14 15  1  0  0  0  0
 14 23  2  0  0  0  0
 15 16  1  0  0  0  0
 15 17  2  0  0  0  0
 17 18  1  0  0  0  0
 17 19  1  0  0  0  0
 19 20  1  0  0  0  0
 19 21  2  0  0  0  0
 21 22  1  0  0  0  0
 21 23  1  0  0  0  0
 23 24  1  0  0  0  0
 25 26  2  0  0  0  0
 25 27  1  0  0  0  0
 27 28  1  0  0  0  0
 27 29  1  0  0  0  0
 29 30  1  0  0  0  0
 29 31  1  0  0  0  0
 29 32  1  0  0  0  0
M  END
$$$$

  -OEChem-04042216033D

 32 32  0     1  0  0  0  0  0999 V2000
   -3.6576   -3.9758    1.3928 H   0  0  0  0  0  0  0  0  0  0  0  0
   -3.5956   -3.0690    0.7847 C   0  0  0  0  0  0  0  0  0  0  0  0
   -4.3834   -2.3798    1.0982 H   0  0  0  0  0  0  0  0  0  0  0  0
   -3.7505   -3.3363   -0.2633 H   0  0  0  0  0  0  0  0  0  0  0  0
   -2.2372   -2.4158    0.9567 C   0  0  0  0  0  0  0  0  0  0  0  0
   -1.4083   -2.9148    1.7012 O   0  0  0  0  0  0  0  0  0  0  0  0
   -1.9444   -1.2535    0.2753 N   0  0  0  0  0  0  0  0  0  0  0  0
   -2.6977   -0.8125   -0.2518 H   0  0  0  0  0  0  0  0  0  0  0  0
   -0.7110   -0.4702    0.4516 C   0  0  1  0  0  0  0  0  0  0  0  0
   -0.1734   -0.7431    1.3653 H   0  0  0  0  0  0  0  0  0  0  0  0
    0.1441   -0.8179   -0.7918 C   0  0  0  0  0  0  0  0  0  0  0  0
    0.2719   -1.9060   -0.7920 H   0  0  0  0  0  0  0  0  0  0  0  0
   -0.4445   -0.5618   -1.6795 H   0  0  0  0  0  0  0  0  0  0  0  0
    1.5251   -0.2087   -0.9933 C   0  0  0  0  0  0  0  0  0  0  0  0
    2.0475    0.9011   -0.3045 C   0  0  0  0  0  0  0  0  0  0  0  0
    1.4919    1.4158    0.4602 H   0  0  0  0  0  0  0  0  0  0  0  0
    3.3315    1.3843   -0.5819 C   0  0  0  0  0  0  0  0  0  0  0  0
    3.7167    2.2421   -0.0388 H   0  0  0  0  0  0  0  0  0  0  0  0
    4.1200    0.7683   -1.5548 C   0  0  0  0  0  0  0  0  0  0  0  0
    5.1162    1.1438   -1.7696 H   0  0  0  0  0  0  0  0  0  0  0  0
    3.6202   -0.3324   -2.2511 C   0  0  0  0  0  0  0  0  0  0  0  0
    4.2266   -0.8173   -3.0104 H   0  0  0  0  0  0  0  0  0  0  0  0
    2.3361   -0.8101   -1.9718 C   0  0  0  0  0  0  0  0  0  0  0  0
    1.9647   -1.6653   -2.5290 H   0  0  0  0  0  0  0  0  0  0  0  0
   -1.1553    1.0081    0.5429 C   0  0  0  0  0  0  0  0  0  0  0  0
   -2.0081    1.4359   -0.2286 O   0  0  0  0  0  0  0  0  0  0  0  0
   -0.6417    1.8591    1.5058 N   0  0  0  0  0  0  0  0  0  0  0  0
   -0.0125    1.4589    2.1963 H   0  0  0  0  0  0  0  0  0  0  0  0
   -1.0694    3.2442    1.6622 C   0  0  0  0  0  0  0  0  0  0  0  0
   -2.1437    3.2933    1.8687 H   0  0  0  0  0  0  0  0  0  0  0  0
   -0.5356    3.7134    2.4942 H   0  0  0  0  0  0  0  0  0  0  0  0
   -0.8588    3.8143    0.7513 H   0  0  0  0  0  0  0  0  0  0  0  0
  1  2  1  0  0  0  0
  2  3  1  0  0  0  0
  2  4  1  0  0  0  0
  2  5  1  0  0  0  0
  5  6  2  0  0  0  0
  5  7  1  0  0  0  0
  7  8  1  0  0  0  0
  7  9  1  0  0  0  0
  9 10  1  0  0  0  0
  9 11  1  0  0  0  0
  9 25  1  0  0  0  0
 11 12  1  0  0  0  0
 11 13  1  0  0  0  0
 11 14  1  0  0  0  0
 14 15  1  0  0  0  0
 14 23  2  0  0  0  0
 15 16  1  0  0  0  0
 15 17  2  0  0  0  0
 17 18  1  0  0  0  0
 17 19  1  0  0  0  0
 19 20  1  0  0  0  0
 19 21  2  0  0  0  0
 21 22  1  0  0  0  0
 21 23  1  0  0  0  0
 23 24  1  0  0  0  0
 25 26  2  0  0  0  0
 25 27  1  0  0  0  0
 27 28  1  0  0  0  0
 27 29  1  0  0  0  0
 29 30  1  0  0  0  0
 29 31  1  0  0  0  0
 29 32  1  0  0  0  0
M  END
$$$$

  -OEChem-04042216033D

 32 32  0     1  0  0  0  0  0999 V2000
   -3.7402   -3.9373    1.4382 H   0  0  0  0  0  0  0  0  0  0  0  0
   -3.6588   -3.0403    0.8177 C   0  0  0  0  0  0  0  0  0  0  0  0
   -4.4266   -2.3267    1.1265 H   0  0  0  0  0  0  0  0  0  0  0  0
   -3.8270   -3.3177   -0.2256 H   0  0  0  0  0  0  0  0  0  0  0  0
   -2.2828   -2.4205    0.9726 C   0  0  0  0  0  0  0  0  0  0  0  0
   -1.4642   -2.9296    1.7216 O   0  0  0  0  0  0  0  0  0  0  0  0
   -1.9627   -1.2765    0.2724 N   0  0  0  0  0  0  0  0  0  0  0  0
   -2.7073   -0.8213   -0.2551 H   0  0  0  0  0  0  0  0  0  0  0  0
   -0.7075   -0.5257    0.4306 C   0  0  1  0  0  0  0  0  0  0  0  0
   -0.1687   -0.8099    1.3402 H   0  0  0  0  0  0  0  0  0  0  0  0
    0.1321   -0.8627   -0.8224 C   0  0  0  0  0  0  0  0  0  0  0  0
    0.2564   -1.9505   -0.8503 H   0  0  0  0  0  0  0  0  0  0  0  0
   -0.4545   -0.5803   -1.7035 H   0  0  0  0  0  0  0  0  0  0  0  0
    1.5148   -0.2517   -0.9841 C   0  0  0  0  0  0  0  0  0  0  0  0
    2.1260    0.6203   -0.0649 C   0  0  0  0  0  0  0  0  0  0  0  0
    1.6609    0.8655    0.8776 H   0  0  0  0  0  0  0  0  0  0  0  0
    3.3886    1.1668   -0.3211 C   0  0  0  0  0  0  0  0  0  0  0  0
    3.8488    1.8331    0.4027 H   0  0  0  0  0  0  0  0  0  0  0  0
    4.0631    0.8523   -1.5025 C   0  0  0  0  0  0  0  0  0  0  0  0
    5.0433    1.2759   -1.7014 H   0  0  0  0  0  0  0  0  0  0  0  0
    3.4731   -0.0129   -2.4254 C   0  0  0  0  0  0  0  0  0  0  0  0
    3.9922   -0.2621   -3.3461 H   0  0  0  0  0  0  0  0  0  0  0  0
    2.2109   -0.5561   -2.1657 C   0  0  0  0  0  0  0  0  0  0  0  0
    1.7638   -1.2215   -2.8984 H   0  0  0  0  0  0  0  0  0  0  0  0
   -1.1004    0.9699    0.5043 C   0  0  0  0  0  0  0  0  0  0  0  0
   -1.9511    1.4098   -0.2633 O   0  0  0  0  0  0  0  0  0  0  0  0
   -0.5552    1.8222    1.4483 N   0  0  0  0  0  0  0  0  0  0  0  0
    0.0662    1.4179    2.1424 H   0  0  0  0  0  0  0  0  0  0  0  0
   -0.9337    3.2245    1.5753 C   0  0  0  0  0  0  0  0  0  0  0  0
   -2.0040    3.3156    1.7886 H   0  0  0  0  0  0  0  0  0  0  0  0
   -0.3776    3.6941    2.3923 H   0  0  0  0  0  0  0  0  0  0  0  0
   -0.7108    3.7660    0.6499 H   0  0  0  0  0  0  0  0  0  0  0  0
  1  2  1  0  0  0  0
  2  3  1  0  0  0  0
  2  4  1  0  0  0  0
  2  5  1  0  0  0  0
  5  6  2  0  0  0  0
  5  7  1  0  0  0  0
  7  8  1  0  0  0  0
  7  9  1  0  0  0  0
  9 10  1  0  0  0  0
  9 11  1  0  0  0  0
  9 25  1  0  0  0  0
 11 12  1  0  0  0  0
 11 13  1  0  0  0  0
 11 14  1  0  0  0  0
 14 15  1  0  0  0  0
 14 23  2  0  0  0  0
 15 16  1  0  0  0  0
 15 17  2  0  0  0  0
 17 18  1  0  0  0  0
 17 19  1  0  0  0  0
 19 20  1  0  0  0  0
 19 21  2  0  0  0  0
 21 22  1  0  0  0  0
 21 23  1  0  0  0  0
 23 24  1  0  0  0  0
 25 26  2  0  0  0  0
 25 27  1  0  0  0  0
 27 28  1  0  0  0  0
 27 29  1  0  0  0  0
 29 30  1  0  0  0  0
 29 31  1  0  0  0  0
 29 32  1  0  0  0  0
M  END
$$$$

  -OEChem-04042216033D

 32 32  0     1  0  0  0  0  0999 V2000
   -3.7772   -3.9276    1.5219 H   0  0  0  0  0  0  0  0  0  0  0  0
   -3.6996   -3.0397    0.8882 C   0  0  0  0  0  0  0  0  0  0  0  0
   -4.4431   -2.3083    1.2138 H   0  0  0  0  0  0  0  0  0  0  0  0
   -3.9082   -3.3256   -0.1456 H   0  0  0  0  0  0  0  0  0  0  0  0
   -2.3079   -2.4441    0.9898 C   0  0  0  0  0  0  0  0  0  0  0  0
   -1.4717   -2.9629    1.7126 O   0  0  0  0  0  0  0  0  0  0  0  0
   -1.9945   -1.3104    0.2702 N   0  0  0  0  0  0  0  0  0  0  0  0
   -2.7513   -0.8483   -0.2329 H   0  0  0  0  0  0  0  0  0  0  0  0
   -0.7273   -0.5724    0.3820 C   0  0  1  0  0  0  0  0  0  0  0  0
   -0.1800   -0.8642    1.2835 H   0  0  0  0  0  0  0  0  0  0  0  0
    0.0979   -0.9064   -0.8772 C   0  0  0  0  0  0  0  0  0  0  0  0
    0.2370   -1.9918   -0.9123 H   0  0  0  0  0  0  0  0  0  0  0  0
   -0.4945   -0.6252   -1.7548 H   0  0  0  0  0  0  0  0  0  0  0  0
    1.4697   -0.2661   -1.0066 C   0  0  0  0  0  0  0  0  0  0  0  0
    2.1561    0.3488    0.0574 C   0  0  0  0  0  0  0  0  0  0  0  0
    1.7553    0.3434    1.0627 H   0  0  0  0  0  0  0  0  0  0  0  0
    3.4018    0.9531   -0.1461 C   0  0  0  0  0  0  0  0  0  0  0  0
    3.9227    1.4183    0.6854 H   0  0  0  0  0  0  0  0  0  0  0  0
    3.9821    0.9526   -1.4164 C   0  0  0  0  0  0  0  0  0  0  0  0
    4.9489    1.4211   -1.5751 H   0  0  0  0  0  0  0  0  0  0  0  0
    3.3164    0.3430   -2.4817 C   0  0  0  0  0  0  0  0  0  0  0  0
    3.7634    0.3385   -3.4714 H   0  0  0  0  0  0  0  0  0  0  0  0
    2.0713   -0.2596   -2.2753 C   0  0  0  0  0  0  0  0  0  0  0  0
    1.5642   -0.7231   -3.1166 H   0  0  0  0  0  0  0  0  0  0  0  0
   -1.0615    0.9354    0.4554 C   0  0  0  0  0  0  0  0  0  0  0  0
   -1.9381    1.3947   -0.2700 O   0  0  0  0  0  0  0  0  0  0  0  0
   -0.4504    1.7701    1.3741 N   0  0  0  0  0  0  0  0  0  0  0  0
    0.2377    1.3626    1.9992 H   0  0  0  0  0  0  0  0  0  0  0  0
   -0.7451    3.1936    1.4827 C   0  0  0  0  0  0  0  0  0  0  0  0
   -1.8099    3.3512    1.6844 H   0  0  0  0  0  0  0  0  0  0  0  0
   -0.1697    3.6375    2.3007 H   0  0  0  0  0  0  0  0  0  0  0  0
   -0.4817    3.7098    0.5535 H   0  0  0  0  0  0  0  0  0  0  0  0
  1  2  1  0  0  0  0
  2  3  1  0  0  0  0
  2  4  1  0  0  0  0
  2  5  1  0  0  0  0
  5  6  2  0  0  0  0
  5  7  1  0  0  0  0
  7  8  1  0  0  0  0
  7  9  1  0  0  0  0
  9 10  1  0  0  0  0
  9 11  1  0  0  0  0
  9 25  1  0  0  0  0
 11 12  1  0  0  0  0
 11 13  1  0  0  0  0
 11 14  1  0  0  0  0
 14 15  1  0  0  0  0
 14 23  2  0  0  0  0
 15 16  1  0  0  0  0
 15 17  2  0  0  0  0
 17 18  1  0  0  0  0
 17 19  1  0  0  0  0
 19 20  1  0  0  0  0
 19 21  2  0  0  0  0
 21 22  1  0  0  0  0
 21 23  1  0  0  0  0
 23 24  1  0  0  0  0
 25 26  2  0  0  0  0
 25 27  1  0  0  0  0
 27 28  1  0  0  0  0
 27 29  1  0  0  0  0
 29 30  1  0  0  0  0
 29 31  1  0  0  0  0
 29 32  1  0  0  0  0
M  END
$$$$

  -OEChem-04042216033D

 32 32  0     1  0  0  0  0  0999 V2000
   -3.7789   -3.9353    1.5956 H   0  0  0  0  0  0  0  0  0  0  0  0
   -3.7154   -3.0574    0.9465 C   0  0  0  0  0  0  0  0  0  0  0  0
   -4.4503   -2.3198    1.2783 H   0  0  0  0  0  0  0  0  0  0  0  0
   -3.9483   -3.3588   -0.0777 H   0  0  0  0  0  0  0  0  0  0  0  0
   -2.3207   -2.4636    1.0061 C   0  0  0  0  0  0  0  0  0  0  0  0
   -1.4641   -2.9857    1.7024 O   0  0  0  0  0  0  0  0  0  0  0  0
   -2.0253   -1.3345    0.2714 N   0  0  0  0  0  0  0  0  0  0  0  0
   -2.7963   -0.8710   -0.2080 H   0  0  0  0  0  0  0  0  0  0  0  0
   -0.7514   -0.6032    0.3386 C   0  0  1  0  0  0  0  0  0  0  0  0
   -0.1966   -0.8984    1.2333 H   0  0  0  0  0  0  0  0  0  0  0  0
    0.0606   -0.9405   -0.9255 C   0  0  0  0  0  0  0  0  0  0  0  0
    0.2153   -2.0238   -0.9581 H   0  0  0  0  0  0  0  0  0  0  0  0
   -0.5384   -0.6695   -1.8017 H   0  0  0  0  0  0  0  0  0  0  0  0
    1.4202   -0.2720   -1.0300 C   0  0  0  0  0  0  0  0  0  0  0  0
    2.1958    0.0684    0.0947 C   0  0  0  0  0  0  0  0  0  0  0  0
    1.8738   -0.1908    1.0966 H   0  0  0  0  0  0  0  0  0  0  0  0
    3.4253    0.7193   -0.0539 C   0  0  0  0  0  0  0  0  0  0  0  0
    4.0182    0.9685    0.8212 H   0  0  0  0  0  0  0  0  0  0  0  0
    3.8970    1.0431   -1.3281 C   0  0  0  0  0  0  0  0  0  0  0  0
    4.8513    1.5485   -1.4447 H   0  0  0  0  0  0  0  0  0  0  0  0
    3.1391    0.7116   -2.4533 C   0  0  0  0  0  0  0  0  0  0  0  0
    3.5020    0.9625   -3.4455 H   0  0  0  0  0  0  0  0  0  0  0  0
    1.9109    0.0595   -2.3029 C   0  0  0  0  0  0  0  0  0  0  0  0
    1.3311   -0.1834   -3.1886 H   0  0  0  0  0  0  0  0  0  0  0  0
   -1.0374    0.9123    0.4171 C   0  0  0  0  0  0  0  0  0  0  0  0
   -1.9355    1.3937   -0.2665 O   0  0  0  0  0  0  0  0  0  0  0  0
   -0.3643    1.7225    1.3136 N   0  0  0  0  0  0  0  0  0  0  0  0
    0.4037    1.3085    1.8324 H   0  0  0  0  0  0  0  0  0  0  0  0
   -0.5666    3.1639    1.3914 C   0  0  0  0  0  0  0  0  0  0  0  0
   -1.6168    3.3942    1.6001 H   0  0  0  0  0  0  0  0  0  0  0  0
    0.0445    3.5891    2.1933 H   0  0  0  0  0  0  0  0  0  0  0  0
   -0.2814    3.6401    0.4474 H   0  0  0  0  0  0  0  0  0  0  0  0
  1  2  1  0  0  0  0
  2  3  1  0  0  0  0
  2  4  1  0  0  0  0
  2  5  1  0  0  0  0
  5  6  2  0  0  0  0
  5  7  1  0  0  0  0
  7  8  1  0  0  0  0
  7  9  1  0  0  0  0
  9 10  1  0  0  0  0
  9 11  1  0  0  0  0
  9 25  1  0  0  0  0
 11 12  1  0  0  0  0
 11 13  1  0  0  0  0
 11 14  1  0  0  0  0
 14 15  1  0  0  0  0
 14 23  2  0  0  0  0
 15 16  1  0  0  0  0
 15 17  2  0  0  0  0
 17 18  1  0  0  0  0
 17 19  1  0  0  0  0
 19 20  1  0  0  0  0
 19 21  2  0  0  0  0
 21 22  1  0  0  0  0
 21 23  1  0  0  0  0
 23 24  1  0  0  0  0
 25 26  2  0  0  0  0
 25 27  1  0  0  0  0
 27 28  1  0  0  0  0
 27 29  1  0  0  0  0
 29 30  1  0  0  0  0
 29 31  1  0  0  0  0
 29 32  1  0  0  0  0
M  END
$$$$

  -OEChem-04042216033D

 32 32  0     1  0  0  0  0  0999 V2000
   -3.7657   -3.9118    1.6795 H   0  0  0  0  0  0  0  0  0  0  0  0
   -3.7147   -3.0418    1.0187 C   0  0  0  0  0  0  0  0  0  0  0  0
   -4.4183   -2.2861    1.3763 H   0  0  0  0  0  0  0  0  0  0  0  0
   -4.0016   -3.3478    0.0097 H   0  0  0  0  0  0  0  0  0  0  0  0
   -2.3074   -2.4753    1.0069 C   0  0  0  0  0  0  0  0  0  0  0  0
   -1.4271   -3.0124    1.6611 O   0  0  0  0  0  0  0  0  0  0  0  0
   -2.0294   -1.3505    0.2590 N   0  0  0  0  0  0  0  0  0  0  0  0
   -2.8158   -0.8738   -0.1805 H   0  0  0  0  0  0  0  0  0  0  0  0
   -0.7506   -0.6263    0.2851 C   0  0  1  0  0  0  0  0  0  0  0  0
   -0.1798   -0.9176    1.1711 H   0  0  0  0  0  0  0  0  0  0  0  0
    0.0411   -0.9693   -0.9880 C   0  0  0  0  0  0  0  0  0  0  0  0
    0.2056   -2.0511   -1.0218 H   0  0  0  0  0  0  0  0  0  0  0  0
   -0.5643   -0.7027   -1.8609 H   0  0  0  0  0  0  0  0  0  0  0  0
    1.3874   -0.2768   -1.0698 C   0  0  0  0  0  0  0  0  0  0  0  0
    2.2595   -0.2203    0.0327 C   0  0  0  0  0  0  0  0  0  0  0  0
    2.0147   -0.7287    0.9599 H   0  0  0  0  0  0  0  0  0  0  0  0
    3.4767    0.4638   -0.0547 C   0  0  0  0  0  0  0  0  0  0  0  0
    4.1472    0.4914    0.7992 H   0  0  0  0  0  0  0  0  0  0  0  0
    3.8362    1.1038   -1.2436 C   0  0  0  0  0  0  0  0  0  0  0  0
    4.7813    1.6347   -1.3128 H   0  0  0  0  0  0  0  0  0  0  0  0
    2.9786    1.0555   -2.3455 C   0  0  0  0  0  0  0  0  0  0  0  0
    3.2547    1.5521   -3.2711 H   0  0  0  0  0  0  0  0  0  0  0  0
    1.7625    0.3700   -2.2574 C   0  0  0  0  0  0  0  0  0  0  0  0
    1.1037    0.3501   -3.1205 H   0  0  0  0  0  0  0  0  0  0  0  0
   -1.0117    0.8923    0.3665 C   0  0  0  0  0  0  0  0  0  0  0  0
   -1.9370    1.3814   -0.2740 O   0  0  0  0  0  0  0  0  0  0  0  0
   -0.2957    1.6900    1.2401 N   0  0  0  0  0  0  0  0  0  0  0  0
    0.5160    1.2738    1.6869 H   0  0  0  0  0  0  0  0  0  0  0  0
   -0.4826    3.1325    1.3327 C   0  0  0  0  0  0  0  0  0  0  0  0
   -1.5204    3.3688    1.5905 H   0  0  0  0  0  0  0  0  0  0  0  0
    0.1674    3.5496    2.1077 H   0  0  0  0  0  0  0  0  0  0  0  0
   -0.2379    3.6119    0.3791 H   0  0  0  0  0  0  0  0  0  0  0  0
  1  2  1  0  0  0  0
  2  3  1  0  0  0  0
  2  4  1  0  0  0  0
  2  5  1  0  0  0  0
  5  6  2  0  0  0  0
  5  7  1  0  0  0  0
  7  8  1  0  0  0  0
  7  9  1  0  0  0  0
  9 10  1  0  0  0  0
  9 11  1  0  0  0  0
  9 25  1  0  0  0  0
 11 12  1  0  0  0  0
 11 13  1  0  0  0  0
 11 14  1  0  0  0  0
 14 15  1  0  0  0  0
 14 23  2  0  0  0  0
 15 16  1  0  0  0  0
 15 17  2  0  0  0  0
 17 18  1  0  0  0  0
 17 19  1  0  0  0  0
 19 20  1  0  0  0  0
 19 21  2  0  0  0  0
 21 22  1  0  0  0  0
 21 23  1  0  0  0  0
 23 24  1  0  0  0  0
 25 26  2  0  0  0  0
 25 27  1  0  0  0  0
 27 28  1  0  0  0  0
 27 29  1  0  0  0  0
 29 30  1  0  0  0  0
 29 31  1  0  0  0  0
 29 32  1  0  0  0  0
M  END
$$$$

  -OEChem-04042216033D

 32 32  0     1  0  0  0  0  0999 V2000
   -3.7303   -3.9125    1.7275 H   0  0  0  0  0  0  0  0  0  0  0  0
   -3.6956   -3.0453    1.0620 C   0  0  0  0  0  0  0  0  0  0  0  0
   -4.3857   -2.2858    1.4374 H   0  0  0  0  0  0  0  0  0  0  0  0
   -4.0132   -3.3545    0.0632 H   0  0  0  0  0  0  0  0  0  0  0  0
   -2.2873   -2.4833    1.0067 C   0  0  0  0  0  0  0  0  0  0  0  0
   -1.3883   -3.0234    1.6325 O   0  0  0  0  0  0  0  0  0  0  0  0
   -2.0298   -1.3581    0.2521 N   0  0  0  0  0  0  0  0  0  0  0  0
   -2.8282   -0.8797   -0.1632 H   0  0  0  0  0  0  0  0  0  0  0  0
   -0.7505   -0.6347    0.2446 C   0  0  1  0  0  0  0  0  0  0  0  0
   -0.1565   -0.9233    1.1170 H   0  0  0  0  0  0  0  0  0  0  0  0
    0.0204   -0.9825   -1.0378 C   0  0  0  0  0  0  0  0  0  0  0  0
    0.1955   -2.0626   -1.0705 H   0  0  0  0  0  0  0  0  0  0  0  0
   -0.5902   -0.7230   -1.9090 H   0  0  0  0  0  0  0  0  0  0  0  0
    1.3519   -0.2676   -1.1037 C   0  0  0  0  0  0  0  0  0  0  0  0
    2.3245   -0.4737   -0.1117 C   0  0  0  0  0  0  0  0  0  0  0  0
    2.1477   -1.1895    0.6862 H   0  0  0  0  0  0  0  0  0  0  0  0
    3.5373    0.2224   -0.1488 C   0  0  0  0  0  0  0  0  0  0  0  0
    4.2872    0.0489    0.6175 H   0  0  0  0  0  0  0  0  0  0  0  0
    3.7873    1.1369   -1.1759 C   0  0  0  0  0  0  0  0  0  0  0  0
    4.7292    1.6769   -1.2070 H   0  0  0  0  0  0  0  0  0  0  0  0
    2.8236    1.3536   -2.1651 C   0  0  0  0  0  0  0  0  0  0  0  0
    3.0145    2.0655   -2.9629 H   0  0  0  0  0  0  0  0  0  0  0  0
    1.6114    0.6561   -2.1274 C   0  0  0  0  0  0  0  0  0  0  0  0
    0.8667    0.8435   -2.8956 H   0  0  0  0  0  0  0  0  0  0  0  0
   -0.9997    0.8846    0.3338 C   0  0  0  0  0  0  0  0  0  0  0  0
   -1.9367    1.3822   -0.2826 O   0  0  0  0  0  0  0  0  0  0  0  0
   -0.2521    1.6721    1.1899 N   0  0  0  0  0  0  0  0  0  0  0  0
    0.5753    1.2482    1.6003 H   0  0  0  0  0  0  0  0  0  0  0  0
   -0.4184    3.1165    1.2877 C   0  0  0  0  0  0  0  0  0  0  0  0
   -1.4460    3.3660    1.5725 H   0  0  0  0  0  0  0  0  0  0  0  0
    0.2569    3.5241    2.0460 H   0  0  0  0  0  0  0  0  0  0  0  0
   -0.1922    3.5929    0.3280 H   0  0  0  0  0  0  0  0  0  0  0  0
  1  2  1  0  0  0  0
  2  3  1  0  0  0  0
  2  4  1  0  0  0  0
  2  5  1  0  0  0  0
  5  6  2  0  0  0  0
  5  7  1  0  0  0  0
  7  8  1  0  0  0  0
  7  9  1  0  0  0  0
  9 10  1  0  0  0  0
  9 11  1  0  0  0  0
  9 25  1  0  0  0  0
 11 12  1  0  0  0  0
 11 13  1  0  0  0  0
 11 14  1  0  0  0  0
 14 15  1  0  0  0  0
 14 23  2  0  0  0  0
 15 16  1  0  0  0  0
 15 17  2  0  0  0  0
 17 18  1  0  0  0  0
 17 19  1  0  0  0  0
 19 20  1  0  0  0  0
 19 21  2  0  0  0  0
 21 22  1  0  0  0  0
 21 23  1  0  0  0  0
 23 24  1  0  0  0  0
 25 26  2  0  0  0  0
 25 27  1  0  0  0  0
 27 28  1  0  0  0  0
 27 29  1  0  0  0  0
 29 30  1  0  0  0  0
 29 31  1  0  0  0  0
 29 32  1  0  0  0  0
M  END
$$$$

  -OEChem-04042216033D

 32 32  0     1  0  0  0  0  0999 V2000
   -3.7027   -3.9218    1.7288 H   0  0  0  0  0  0  0  0  0  0  0  0
   -3.6768   -3.0552    1.0623 C   0  0  0  0  0  0  0  0  0  0  0  0
   -4.3705   -2.2997    1.4394 H   0  0  0  0  0  0  0  0  0  0  0  0
   -3.9964   -3.3676    0.0651 H   0  0  0  0  0  0  0  0  0  0  0  0
   -2.2725   -2.4845    1.0010 C   0  0  0  0  0  0  0  0  0  0  0  0
   -1.3656   -3.0252    1.6148 O   0  0  0  0  0  0  0  0  0  0  0  0
   -2.0269   -1.3539    0.2507 N   0  0  0  0  0  0  0  0  0  0  0  0
   -2.8304   -0.8794   -0.1591 H   0  0  0  0  0  0  0  0  0  0  0  0
   -0.7507   -0.6255    0.2347 C   0  0  1  0  0  0  0  0  0  0  0  0
   -0.1425   -0.9154    1.0976 H   0  0  0  0  0  0  0  0  0  0  0  0
    0.0097   -0.9747   -1.0522 C   0  0  0  0  0  0  0  0  0  0  0  0
    0.1861   -2.0547   -1.0886 H   0  0  0  0  0  0  0  0  0  0  0  0
   -0.6020   -0.7137   -1.9221 H   0  0  0  0  0  0  0  0  0  0  0  0
    1.3329   -0.2498   -1.1145 C   0  0  0  0  0  0  0  0  0  0  0  0
    2.4077   -0.6735   -0.3188 C   0  0  0  0  0  0  0  0  0  0  0  0
    2.2988   -1.5440    0.3224 H   0  0  0  0  0  0  0  0  0  0  0  0
    3.6263    0.0130   -0.3488 C   0  0  0  0  0  0  0  0  0  0  0  0
    4.4554   -0.3260    0.2655 H   0  0  0  0  0  0  0  0  0  0  0  0
    3.7779    1.1327   -1.1726 C   0  0  0  0  0  0  0  0  0  0  0  0
    4.7243    1.6652   -1.1983 H   0  0  0  0  0  0  0  0  0  0  0  0
    2.7103    1.5644   -1.9655 C   0  0  0  0  0  0  0  0  0  0  0  0
    2.8247    2.4345   -2.6052 H   0  0  0  0  0  0  0  0  0  0  0  0
    1.4928    0.8764   -1.9356 C   0  0  0  0  0  0  0  0  0  0  0  0
    0.6661    1.2264   -2.5480 H   0  0  0  0  0  0  0  0  0  0  0  0
   -1.0044    0.8921    0.3355 C   0  0  0  0  0  0  0  0  0  0  0  0
   -1.9385    1.3936   -0.2821 O   0  0  0  0  0  0  0  0  0  0  0  0
   -0.2513    1.6770    1.1888 N   0  0  0  0  0  0  0  0  0  0  0  0
    0.5725    1.2487    1.6023 H   0  0  0  0  0  0  0  0  0  0  0  0
   -0.4144    3.1212    1.2911 C   0  0  0  0  0  0  0  0  0  0  0  0
   -1.4419    3.3727    1.5745 H   0  0  0  0  0  0  0  0  0  0  0  0
    0.2601    3.5240    2.0525 H   0  0  0  0  0  0  0  0  0  0  0  0
   -0.1845    3.6001    0.3336 H   0  0  0  0  0  0  0  0  0  0  0  0
  1  2  1  0  0  0  0
  2  3  1  0  0  0  0
  2  4  1  0  0  0  0
  2  5  1  0  0  0  0
  5  6  2  0  0  0  0
  5  7  1  0  0  0  0
  7  8  1  0  0  0  0
  7  9  1  0  0  0  0
  9 10  1  0  0  0  0
  9 11  1  0  0  0  0
  9 25  1  0  0  0  0
 11 12  1  0  0  0  0
 11 13  1  0  0  0  0
 11 14  1  0  0  0  0
 14 15  1  0  0  0  0
 14 23  2  0  0  0  0
 15 16  1  0  0  0  0
 15 17  2  0  0  0  0
 17 18  1  0  0  0  0
 17 19  1  0  0  0  0
 19 20  1  0  0  0  0
 19 21  2  0  0  0  0
 21 22  1  0  0  0  0
 21 23  1  0  0  0  0
 23 24  1  0  0  0  0
 25 26  2  0  0  0  0
 25 27  1  0  0  0  0
 27 28  1  0  0  0  0
 27 29  1  0  0  0  0
 29 30  1  0  0  0  0
 29 31  1  0  0  0  0
 29 32  1  0  0  0  0
M  END
$$$$

  -OEChem-04042216033D

 32 32  0     1  0  0  0  0  0999 V2000
   -3.6903   -3.9413    1.6970 H   0  0  0  0  0  0  0  0  0  0  0  0
   -3.6679   -3.0685    1.0385 C   0  0  0  0  0  0  0  0  0  0  0  0
   -4.3719   -2.3236    1.4175 H   0  0  0  0  0  0  0  0  0  0  0  0
   -3.9764   -3.3749    0.0361 H   0  0  0  0  0  0  0  0  0  0  0  0
   -2.2689   -2.4832    0.9925 C   0  0  0  0  0  0  0  0  0  0  0  0
   -1.3607   -3.0212    1.6064 O   0  0  0  0  0  0  0  0  0  0  0  0
   -2.0291   -1.3435    0.2540 N   0  0  0  0  0  0  0  0  0  0  0  0
   -2.8337   -0.8750   -0.1603 H   0  0  0  0  0  0  0  0  0  0  0  0
   -0.7578   -0.6060    0.2475 C   0  0  1  0  0  0  0  0  0  0  0  0
   -0.1491   -0.8970    1.1100 H   0  0  0  0  0  0  0  0  0  0  0  0
    0.0098   -0.9547   -1.0366 C   0  0  0  0  0  0  0  0  0  0  0  0
    0.1822   -2.0354   -1.0731 H   0  0  0  0  0  0  0  0  0  0  0  0
   -0.5980   -0.6922   -1.9090 H   0  0  0  0  0  0  0  0  0  0  0  0
    1.3322   -0.2280   -1.1050 C   0  0  0  0  0  0  0  0  0  0  0  0
    2.4855   -0.8138   -0.5634 C   0  0  0  0  0  0  0  0  0  0  0  0
    2.4295   -1.7925   -0.0948 H   0  0  0  0  0  0  0  0  0  0  0  0
    3.7137   -0.1463   -0.6194 C   0  0  0  0  0  0  0  0  0  0  0  0
    4.6016   -0.6083   -0.1975 H   0  0  0  0  0  0  0  0  0  0  0  0
    3.7990    1.1126   -1.2219 C   0  0  0  0  0  0  0  0  0  0  0  0
    4.7528    1.6302   -1.2677 H   0  0  0  0  0  0  0  0  0  0  0  0
    2.6558    1.7013   -1.7709 C   0  0  0  0  0  0  0  0  0  0  0  0
    2.7193    2.6772   -2.2432 H   0  0  0  0  0  0  0  0  0  0  0  0
    1.4290    1.0321   -1.7154 C   0  0  0  0  0  0  0  0  0  0  0  0
    0.5459    1.4984   -2.1446 H   0  0  0  0  0  0  0  0  0  0  0  0
   -1.0259    0.9076    0.3628 C   0  0  0  0  0  0  0  0  0  0  0  0
   -1.9511    1.4111   -0.2662 O   0  0  0  0  0  0  0  0  0  0  0  0
   -0.2817    1.6906    1.2257 N   0  0  0  0  0  0  0  0  0  0  0  0
    0.5342    1.2595    1.6522 H   0  0  0  0  0  0  0  0  0  0  0  0
   -0.4481    3.1339    1.3350 C   0  0  0  0  0  0  0  0  0  0  0  0
   -1.4797    3.3823    1.6059 H   0  0  0  0  0  0  0  0  0  0  0  0
    0.2155    3.5329    2.1080 H   0  0  0  0  0  0  0  0  0  0  0  0
   -0.2059    3.6194    0.3839 H   0  0  0  0  0  0  0  0  0  0  0  0
  1  2  1  0  0  0  0
  2  3  1  0  0  0  0
  2  4  1  0  0  0  0
  2  5  1  0  0  0  0
  5  6  2  0  0  0  0
  5  7  1  0  0  0  0
  7  8  1  0  0  0  0
  7  9  1  0  0  0  0
  9 10  1  0  0  0  0
  9 11  1  0  0  0  0
  9 25  1  0  0  0  0
 11 12  1  0  0  0  0
 11 13  1  0  0  0  0
 11 14  1  0  0  0  0
 14 15  1  0  0  0  0
 14 23  2  0  0  0  0
 15 16  1  0  0  0  0
 15 17  2  0  0  0  0
 17 18  1  0  0  0  0
 17 19  1  0  0  0  0
 19 20  1  0  0  0  0
 19 21  2  0  0  0  0
 21 22  1  0  0  0  0
 21 23  1  0  0  0  0
 23 24  1  0  0  0  0
 25 26  2  0  0  0  0
 25 27  1  0  0  0  0
 27 28  1  0  0  0  0
 27 29  1  0  0  0  0
 29 30  1  0  0  0  0
 29 31  1  0  0  0  0
 29 32  1  0  0  0  0
M  END
$$$$

  -OEChem-04042216033D

 32 32  0     1  0  0  0  0  0999 V2000
   -3.6780   -3.9627    1.6495 H   0  0  0  0  0  0  0  0  0  0  0  0
   -3.6570   -3.0843    0.9983 C   0  0  0  0  0  0  0  0  0  0  0  0
   -4.3797   -2.3539    1.3698 H   0  0  0  0  0  0  0  0  0  0  0  0
   -3.9416   -3.3875   -0.0122 H   0  0  0  0  0  0  0  0  0  0  0  0
   -2.2664   -2.4776    0.9827 C   0  0  0  0  0  0  0  0  0  0  0  0
   -1.3600   -3.0130    1.6014 O   0  0  0  0  0  0  0  0  0  0  0  0
   -2.0302   -1.3255    0.2621 N   0  0  0  0  0  0  0  0  0  0  0  0
   -2.8342   -0.8617   -0.1589 H   0  0  0  0  0  0  0  0  0  0  0  0
   -0.7655   -0.5760    0.2789 C   0  0  1  0  0  0  0  0  0  0  0  0
   -0.1638   -0.8676    1.1460 H   0  0  0  0  0  0  0  0  0  0  0  0
    0.0194   -0.9264   -0.9975 C   0  0  0  0  0  0  0  0  0  0  0  0
    0.1817   -2.0088   -1.0291 H   0  0  0  0  0  0  0  0  0  0  0  0
   -0.5825   -0.6640   -1.8739 H   0  0  0  0  0  0  0  0  0  0  0  0
    1.3480   -0.2076   -1.0839 C   0  0  0  0  0  0  0  0  0  0  0  0
    2.5375   -0.9078   -0.8324 C   0  0  0  0  0  0  0  0  0  0  0  0
    2.5025   -1.9545   -0.5436 H   0  0  0  0  0  0  0  0  0  0  0  0
    3.7774   -0.2684   -0.9383 C   0  0  0  0  0  0  0  0  0  0  0  0
    4.6906   -0.8190   -0.7314 H   0  0  0  0  0  0  0  0  0  0  0  0
    3.8414    1.0762   -1.3147 C   0  0  0  0  0  0  0  0  0  0  0  0
    4.8038    1.5725   -1.3983 H   0  0  0  0  0  0  0  0  0  0  0  0
    2.6650    1.7765   -1.5961 C   0  0  0  0  0  0  0  0  0  0  0  0
    2.7118    2.8170   -1.9038 H   0  0  0  0  0  0  0  0  0  0  0  0
    1.4266    1.1346   -1.4921 C   0  0  0  0  0  0  0  0  0  0  0  0
    0.5225    1.6871   -1.7350 H   0  0  0  0  0  0  0  0  0  0  0  0
   -1.0583    0.9311    0.4122 C   0  0  0  0  0  0  0  0  0  0  0  0
   -1.9726    1.4340   -0.2329 O   0  0  0  0  0  0  0  0  0  0  0  0
   -0.3362    1.7136    1.2943 N   0  0  0  0  0  0  0  0  0  0  0  0
    0.4640    1.2816    1.7489 H   0  0  0  0  0  0  0  0  0  0  0  0
   -0.5210    3.1536    1.4195 C   0  0  0  0  0  0  0  0  0  0  0  0
   -1.5621    3.3874    1.6659 H   0  0  0  0  0  0  0  0  0  0  0  0
    0.1176    3.5483    2.2156 H   0  0  0  0  0  0  0  0  0  0  0  0
   -0.2587    3.6553    0.4823 H   0  0  0  0  0  0  0  0  0  0  0  0
  1  2  1  0  0  0  0
  2  3  1  0  0  0  0
  2  4  1  0  0  0  0
  2  5  1  0  0  0  0
  5  6  2  0  0  0  0
  5  7  1  0  0  0  0
  7  8  1  0  0  0  0
  7  9  1  0  0  0  0
  9 10  1  0  0  0  0
  9 11  1  0  0  0  0
  9 25  1  0  0  0  0
 11 12  1  0  0  0  0
 11 13  1  0  0  0  0
 11 14  1  0  0  0  0
 14 15  1  0  0  0  0
 14 23  2  0  0  0  0
 15 16  1  0  0  0  0
 15 17  2  0  0  0  0
 17 18  1  0  0  0  0
 17 19  1  0  0  0  0
 19 20  1  0  0  0  0
 19 21  2  0  0  0  0
 21 22  1  0  0  0  0
 21 23  1  0  0  0  0
 23 24  1  0  0  0  0
 25 26  2  0  0  0  0
 25 27  1  0  0  0  0
 27 28  1  0  0  0  0
 27 29  1  0  0  0  0
 29 30  1  0  0  0  0
 29 31  1  0  0  0  0
 29 32  1  0  0  0  0
M  END
$$$$

  -OEChem-04042216033D

 32 32  0     1  0  0  0  0  0999 V2000
   -3.6686   -3.9836    1.5749 H   0  0  0  0  0  0  0  0  0  0  0  0
   -3.6458   -3.0904    0.9443 C   0  0  0  0  0  0  0  0  0  0  0  0
   -4.3832   -2.3762    1.3188 H   0  0  0  0  0  0  0  0  0  0  0  0
   -3.9089   -3.3738   -0.0776 H   0  0  0  0  0  0  0  0  0  0  0  0
   -2.2624   -2.4679    0.9683 C   0  0  0  0  0  0  0  0  0  0  0  0
   -1.3644   -2.9977    1.6037 O   0  0  0  0  0  0  0  0  0  0  0  0
   -2.0244   -1.3039    0.2681 N   0  0  0  0  0  0  0  0  0  0  0  0
   -2.8238   -0.8465   -0.1683 H   0  0  0  0  0  0  0  0  0  0  0  0
   -0.7692   -0.5398    0.3188 C   0  0  1  0  0  0  0  0  0  0  0  0
   -0.1849   -0.8299    1.1981 H   0  0  0  0  0  0  0  0  0  0  0  0
    0.0469   -0.8978   -0.9401 C   0  0  0  0  0  0  0  0  0  0  0  0
    0.2011   -1.9818   -0.9528 H   0  0  0  0  0  0  0  0  0  0  0  0
   -0.5448   -0.6470   -1.8267 H   0  0  0  0  0  0  0  0  0  0  0  0
    1.3866   -0.1945   -1.0527 C   0  0  0  0  0  0  0  0  0  0  0  0
    2.5625   -0.9610   -1.1016 C   0  0  0  0  0  0  0  0  0  0  0  0
    2.5147   -2.0402   -0.9888 H   0  0  0  0  0  0  0  0  0  0  0  0
    3.8106   -0.3538   -1.2762 C   0  0  0  0  0  0  0  0  0  0  0  0
    4.7112   -0.9608   -1.2909 H   0  0  0  0  0  0  0  0  0  0  0  0
    3.8976    1.0307   -1.4398 C   0  0  0  0  0  0  0  0  0  0  0  0
    4.8657    1.5031   -1.5789 H   0  0  0  0  0  0  0  0  0  0  0  0
    2.7333    1.8021   -1.4474 C   0  0  0  0  0  0  0  0  0  0  0  0
    2.7939    2.8749   -1.6049 H   0  0  0  0  0  0  0  0  0  0  0  0
    1.4869    1.1914   -1.2735 C   0  0  0  0  0  0  0  0  0  0  0  0
    0.5969    1.8100   -1.3367 H   0  0  0  0  0  0  0  0  0  0  0  0
   -1.0937    0.9582    0.4657 C   0  0  0  0  0  0  0  0  0  0  0  0
   -2.0037    1.4543   -0.1900 O   0  0  0  0  0  0  0  0  0  0  0  0
   -0.4034    1.7406    1.3733 N   0  0  0  0  0  0  0  0  0  0  0  0
    0.3786    1.3099    1.8597 H   0  0  0  0  0  0  0  0  0  0  0  0
   -0.6378    3.1688    1.5428 C   0  0  0  0  0  0  0  0  0  0  0  0
   -1.6899    3.3607    1.7784 H   0  0  0  0  0  0  0  0  0  0  0  0
   -0.0259    3.5570    2.3628 H   0  0  0  0  0  0  0  0  0  0  0  0
   -0.3764    3.7101    0.6277 H   0  0  0  0  0  0  0  0  0  0  0  0
  1  2  1  0  0  0  0
  2  3  1  0  0  0  0
  2  4  1  0  0  0  0
  2  5  1  0  0  0  0
  5  6  2  0  0  0  0
  5  7  1  0  0  0  0
  7  8  1  0  0  0  0
  7  9  1  0  0  0  0
  9 10  1  0  0  0  0
  9 11  1  0  0  0  0
  9 25  1  0  0  0  0
 11 12  1  0  0  0  0
 11 13  1  0  0  0  0
 11 14  1  0  0  0  0
 14 15  1  0  0  0  0
 14 23  2  0  0  0  0
 15 16  1  0  0  0  0
 15 17  2  0  0  0  0
 17 18  1  0  0  0  0
 17 19  1  0  0  0  0
 19 20  1  0  0  0  0
 19 21  2  0  0  0  0
 21 22  1  0  0  0  0
 21 23  1  0  0  0  0
 23 24  1  0  0  0  0
 25 26  2  0  0  0  0
 25 27  1  0  0  0  0
 27 28  1  0  0  0  0
 27 29  1  0  0  0  0
 29 30  1  0  0  0  0
 29 31  1  0  0  0  0
 29 32  1  0  0  0  0
M  END
$$$$

  -OEChem-04042216033D

 32 32  0     1  0  0  0  0  0999 V2000
   -3.6408   -4.0066    1.4989 H   0  0  0  0  0  0  0  0  0  0  0  0
   -3.6193   -3.0990    0.8891 C   0  0  0  0  0  0  0  0  0  0  0  0
   -4.3759   -2.4053    1.2635 H   0  0  0  0  0  0  0  0  0  0  0  0
   -3.8559   -3.3628   -0.1445 H   0  0  0  0  0  0  0  0  0  0  0  0
   -2.2471   -2.4555    0.9571 C   0  0  0  0  0  0  0  0  0  0  0  0
   -1.3603   -2.9762    1.6151 O   0  0  0  0  0  0  0  0  0  0  0  0
   -2.0067   -1.2819    0.2740 N   0  0  0  0  0  0  0  0  0  0  0  0
   -2.7996   -0.8324   -0.1825 H   0  0  0  0  0  0  0  0  0  0  0  0
   -0.7625   -0.5022    0.3627 C   0  0  1  0  0  0  0  0  0  0  0  0
   -0.1937   -0.7882    1.2535 H   0  0  0  0  0  0  0  0  0  0  0  0
    0.0785   -0.8621   -0.8833 C   0  0  0  0  0  0  0  0  0  0  0  0
    0.2228   -1.9477   -0.8803 H   0  0  0  0  0  0  0  0  0  0  0  0
   -0.5092   -0.6198   -1.7748 H   0  0  0  0  0  0  0  0  0  0  0  0
    1.4327   -0.1843   -1.0340 C   0  0  0  0  0  0  0  0  0  0  0  0
    2.5336   -0.9789   -1.4001 C   0  0  0  0  0  0  0  0  0  0  0  0
    2.4220   -2.0557   -1.4879 H   0  0  0  0  0  0  0  0  0  0  0  0
    3.7920   -0.4147   -1.6336 C   0  0  0  0  0  0  0  0  0  0  0  0
    4.6335   -1.0523   -1.8886 H   0  0  0  0  0  0  0  0  0  0  0  0
    3.9637    0.9676   -1.5483 C   0  0  0  0  0  0  0  0  0  0  0  0
    4.9388    1.4086   -1.7335 H   0  0  0  0  0  0  0  0  0  0  0  0
    2.8689    1.7819   -1.2537 C   0  0  0  0  0  0  0  0  0  0  0  0
    2.9880    2.8611   -1.2265 H   0  0  0  0  0  0  0  0  0  0  0  0
    1.6122    1.2130   -1.0206 C   0  0  0  0  0  0  0  0  0  0  0  0
    0.7823    1.8922   -0.8707 H   0  0  0  0  0  0  0  0  0  0  0  0
   -1.1314    0.9850    0.5150 C   0  0  0  0  0  0  0  0  0  0  0  0
   -2.0337    1.4658   -0.1621 O   0  0  0  0  0  0  0  0  0  0  0  0
   -0.4873    1.7776    1.4482 N   0  0  0  0  0  0  0  0  0  0  0  0
    0.2692    1.3553    1.9802 H   0  0  0  0  0  0  0  0  0  0  0  0
   -0.7917    3.1885    1.6504 C   0  0  0  0  0  0  0  0  0  0  0  0
   -1.8483    3.3201    1.9063 H   0  0  0  0  0  0  0  0  0  0  0  0
   -0.1866    3.5923    2.4678 H   0  0  0  0  0  0  0  0  0  0  0  0
   -0.5743    3.7609    0.7426 H   0  0  0  0  0  0  0  0  0  0  0  0
  1  2  1  0  0  0  0
  2  3  1  0  0  0  0
  2  4  1  0  0  0  0
  2  5  1  0  0  0  0
  5  6  2  0  0  0  0
  5  7  1  0  0  0  0
  7  8  1  0  0  0  0
  7  9  1  0  0  0  0
  9 10  1  0  0  0  0
  9 11  1  0  0  0  0
  9 25  1  0  0  0  0
 11 12  1  0  0  0  0
 11 13  1  0  0  0  0
 11 14  1  0  0  0  0
 14 15  1  0  0  0  0
 14 23  2  0  0  0  0
 15 16  1  0  0  0  0
 15 17  2  0  0  0  0
 17 18  1  0  0  0  0
 17 19  1  0  0  0  0
 19 20  1  0  0  0  0
 19 21  2  0  0  0  0
 21 22  1  0  0  0  0
 21 23  1  0  0  0  0
 23 24  1  0  0  0  0
 25 26  2  0  0  0  0
 25 27  1  0  0  0  0
 27 28  1  0  0  0  0
 27 29  1  0  0  0  0
 29 30  1  0  0  0  0
 29 31  1  0  0  0  0
 29 32  1  0  0  0  0
M  END
$$$$

  -OEChem-04042216033D

 32 32  0     1  0  0  0  0  0999 V2000
   -3.6018   -4.0210    1.4239 H   0  0  0  0  0  0  0  0  0  0  0  0
   -3.5760   -3.1062    0.8252 C   0  0  0  0  0  0  0  0  0  0  0  0
   -4.3602   -2.4320    1.1778 H   0  0  0  0  0  0  0  0  0  0  0  0
   -3.7682   -3.3634   -0.2193 H   0  0  0  0  0  0  0  0  0  0  0  0
   -2.2208   -2.4362    0.9521 C   0  0  0  0  0  0  0  0  0  0  0  0
   -1.3530   -2.9397    1.6477 O   0  0  0  0  0  0  0  0  0  0  0  0
   -1.9730   -1.2579    0.2798 N   0  0  0  0  0  0  0  0  0  0  0  0
   -2.7538   -0.8208   -0.2089 H   0  0  0  0  0  0  0  0  0  0  0  0
   -0.7433   -0.4608    0.4132 C   0  0  1  0  0  0  0  0  0  0  0  0
   -0.1874   -0.7381    1.3147 H   0  0  0  0  0  0  0  0  0  0  0  0
    0.1099   -0.8194   -0.8288 C   0  0  0  0  0  0  0  0  0  0  0  0
    0.2490   -1.9058   -0.8122 H   0  0  0  0  0  0  0  0  0  0  0  0
   -0.4829   -0.5848   -1.7193 H   0  0  0  0  0  0  0  0  0  0  0  0
    1.4771   -0.1763   -1.0306 C   0  0  0  0  0  0  0  0  0  0  0  0
    2.4431   -0.9364   -1.7150 C   0  0  0  0  0  0  0  0  0  0  0  0
    2.2160   -1.9536   -2.0204 H   0  0  0  0  0  0  0  0  0  0  0  0
    3.7111   -0.4213   -2.0015 C   0  0  0  0  0  0  0  0  0  0  0  0
    4.4452   -1.0377   -2.5119 H   0  0  0  0  0  0  0  0  0  0  0  0
    4.0301    0.8868   -1.6375 C   0  0  0  0  0  0  0  0  0  0  0  0
    5.0130    1.2918   -1.8597 H   0  0  0  0  0  0  0  0  0  0  0  0
    3.0696    1.6797   -1.0085 C   0  0  0  0  0  0  0  0  0  0  0  0
    3.3015    2.7098   -0.7546 H   0  0  0  0  0  0  0  0  0  0  0  0
    1.8015    1.1602   -0.7257 C   0  0  0  0  0  0  0  0  0  0  0  0
    1.0857    1.8469   -0.3019 H   0  0  0  0  0  0  0  0  0  0  0  0
   -1.1674    1.0147    0.5533 C   0  0  0  0  0  0  0  0  0  0  0  0
   -2.0565    1.4689   -0.1588 O   0  0  0  0  0  0  0  0  0  0  0  0
   -0.5872    1.8277    1.5116 N   0  0  0  0  0  0  0  0  0  0  0  0
    0.1232    1.4143    2.1101 H   0  0  0  0  0  0  0  0  0  0  0  0
   -0.9715    3.2174    1.7262 C   0  0  0  0  0  0  0  0  0  0  0  0
   -2.0347    3.2866    1.9794 H   0  0  0  0  0  0  0  0  0  0  0  0
   -0.3921    3.6472    2.5490 H   0  0  0  0  0  0  0  0  0  0  0  0
   -0.7844    3.8102    0.8246 H   0  0  0  0  0  0  0  0  0  0  0  0
  1  2  1  0  0  0  0
  2  3  1  0  0  0  0
  2  4  1  0  0  0  0
  2  5  1  0  0  0  0
  5  6  2  0  0  0  0
  5  7  1  0  0  0  0
  7  8  1  0  0  0  0
  7  9  1  0  0  0  0
  9 10  1  0  0  0  0
  9 11  1  0  0  0  0
  9 25  1  0  0  0  0
 11 12  1  0  0  0  0
 11 13  1  0  0  0  0
 11 14  1  0  0  0  0
 14 15  1  0  0  0  0
 14 23  2  0  0  0  0
 15 16  1  0  0  0  0
 15 17  2  0  0  0  0
 17 18  1  0  0  0  0
 17 19  1  0  0  0  0
 19 20  1  0  0  0  0
 19 21  2  0  0  0  0
 21 22  1  0  0  0  0
 21 23  1  0  0  0  0
 23 24  1  0  0  0  0
 25 26  2  0  0  0  0
 25 27  1  0  0  0  0
 27 28  1  0  0  0  0
 27 29  1  0  0  0  0
 29 30  1  0  0  0  0
 29 31  1  0  0  0  0
 29 32  1  0  0  0  0
M  END
$$$$

  -OEChem-04042216033D

 32 32  0     1  0  0  0  0  0999 V2000
   -3.6001   -4.0003    1.4152 H   0  0  0  0  0  0  0  0  0  0  0  0
   -3.5600   -3.0912    0.8085 C   0  0  0  0  0  0  0  0  0  0  0  0
   -4.3509   -2.4128    1.1372 H   0  0  0  0  0  0  0  0  0  0  0  0
   -3.7298   -3.3577   -0.2375 H   0  0  0  0  0  0  0  0  0  0  0  0
   -2.2073   -2.4210    0.9589 C   0  0  0  0  0  0  0  0  0  0  0  0
   -1.3585   -2.9119    1.6861 O   0  0  0  0  0  0  0  0  0  0  0  0
   -1.9427   -1.2514    0.2781 N   0  0  0  0  0  0  0  0  0  0  0  0
   -2.7108   -0.8193   -0.2349 H   0  0  0  0  0  0  0  0  0  0  0  0
   -0.7161   -0.4529    0.4335 C   0  0  1  0  0  0  0  0  0  0  0  0
   -0.1560   -0.7240    1.3341 H   0  0  0  0  0  0  0  0  0  0  0  0
    0.1170   -0.7783   -0.8304 C   0  0  0  0  0  0  0  0  0  0  0  0
    0.2597   -1.8644   -0.8427 H   0  0  0  0  0  0  0  0  0  0  0  0
   -0.4933   -0.5230   -1.7036 H   0  0  0  0  0  0  0  0  0  0  0  0
    1.4849   -0.1476   -1.0545 C   0  0  0  0  0  0  0  0  0  0  0  0
    2.2912   -0.7392   -2.0426 C   0  0  0  0  0  0  0  0  0  0  0  0
    1.9163   -1.5874   -2.6078 H   0  0  0  0  0  0  0  0  0  0  0  0
    3.5734   -0.2582   -2.3244 C   0  0  0  0  0  0  0  0  0  0  0  0
    4.1734   -0.7311   -3.0963 H   0  0  0  0  0  0  0  0  0  0  0  0
    4.0806    0.8293   -1.6130 C   0  0  0  0  0  0  0  0  0  0  0  0
    5.0758    1.2067   -1.8289 H   0  0  0  0  0  0  0  0  0  0  0  0
    3.3027    1.4267   -0.6202 C   0  0  0  0  0  0  0  0  0  0  0  0
    3.6968    2.2708   -0.0618 H   0  0  0  0  0  0  0  0  0  0  0  0
    2.0201    0.9405   -0.3409 C   0  0  0  0  0  0  0  0  0  0  0  0
    1.4756    1.4355    0.4446 H   0  0  0  0  0  0  0  0  0  0  0  0
   -1.1776    1.0191    0.5417 C   0  0  0  0  0  0  0  0  0  0  0  0
   -2.0544    1.4383   -0.2074 O   0  0  0  0  0  0  0  0  0  0  0  0
   -0.6558    1.8725    1.4982 N   0  0  0  0  0  0  0  0  0  0  0  0
   -0.0009    1.4798    2.1688 H   0  0  0  0  0  0  0  0  0  0  0  0
   -1.0973    3.2516    1.6696 C   0  0  0  0  0  0  0  0  0  0  0  0
   -2.1715    3.2878    1.8797 H   0  0  0  0  0  0  0  0  0  0  0  0
   -0.5662    3.7177    2.5051 H   0  0  0  0  0  0  0  0  0  0  0  0
   -0.8955    3.8335    0.7641 H   0  0  0  0  0  0  0  0  0  0  0  0
  1  2  1  0  0  0  0
  2  3  1  0  0  0  0
  2  4  1  0  0  0  0
  2  5  1  0  0  0  0
  5  6  2  0  0  0  0
  5  7  1  0  0  0  0
  7  8  1  0  0  0  0
  7  9  1  0  0  0  0
  9 10  1  0  0  0  0
  9 11  1  0  0  0  0
  9 25  1  0  0  0  0
 11 12  1  0  0  0  0
 11 13  1  0  0  0  0
 11 14  1  0  0  0  0
 14 15  1  0  0  0  0
 14 23  2  0  0  0  0
 15 16  1  0  0  0  0
 15 17  2  0  0  0  0
 17 18  1  0  0  0  0
 17 19  1  0  0  0  0
 19 20  1  0  0  0  0
 19 21  2  0  0  0  0
 21 22  1  0  0  0  0
 21 23  1  0  0  0  0
 23 24  1  0  0  0  0
 25 26  2  0  0  0  0
 25 27  1  0  0  0  0
 27 28  1  0  0  0  0
 27 29  1  0  0  0  0
 29 30  1  0  0  0  0
 29 31  1  0  0  0  0
 29 32  1  0  0  0  0
M  END
$$$$

  -OEChem-04042216033D

 32 32  0     1  0  0  0  0  0999 V2000
   -3.7065   -3.9650    1.5259 H   0  0  0  0  0  0  0  0  0  0  0  0
   -3.6536   -3.0756    0.8916 C   0  0  0  0  0  0  0  0  0  0  0  0
   -4.4225   -2.3682    1.2118 H   0  0  0  0  0  0  0  0  0  0  0  0
   -3.8462   -3.3692   -0.1431 H   0  0  0  0  0  0  0  0  0  0  0  0
   -2.2824   -2.4352    1.0010 C   0  0  0  0  0  0  0  0  0  0  0  0
   -1.4396   -2.9197    1.7395 O   0  0  0  0  0  0  0  0  0  0  0  0
   -1.9978   -1.3001    0.2709 N   0  0  0  0  0  0  0  0  0  0  0  0
   -2.7614   -0.8753   -0.2537 H   0  0  0  0  0  0  0  0  0  0  0  0
   -0.7510   -0.5257    0.3705 C   0  0  1  0  0  0  0  0  0  0  0  0
   -0.2100   -0.8063    1.2789 H   0  0  0  0  0  0  0  0  0  0  0  0
    0.0972   -0.8513   -0.8759 C   0  0  0  0  0  0  0  0  0  0  0  0
    0.0624   -1.9353   -1.0287 H   0  0  0  0  0  0  0  0  0  0  0  0
   -0.3726   -0.3864   -1.7495 H   0  0  0  0  0  0  0  0  0  0  0  0
    1.5653   -0.4593   -0.8493 C   0  0  0  0  0  0  0  0  0  0  0  0
    2.3312   -0.7562   -1.9881 C   0  0  0  0  0  0  0  0  0  0  0  0
    1.8590   -1.2219   -2.8482 H   0  0  0  0  0  0  0  0  0  0  0  0
    3.6960   -0.4556   -2.0421 C   0  0  0  0  0  0  0  0  0  0  0  0
    4.2676   -0.6856   -2.9363 H   0  0  0  0  0  0  0  0  0  0  0  0
    4.3240    0.1365   -0.9450 C   0  0  0  0  0  0  0  0  0  0  0  0
    5.3842    0.3691   -0.9841 H   0  0  0  0  0  0  0  0  0  0  0  0
    3.5852    0.4184    0.2060 C   0  0  0  0  0  0  0  0  0  0  0  0
    4.0753    0.8660    1.0658 H   0  0  0  0  0  0  0  0  0  0  0  0
    2.2196    0.1166    0.2572 C   0  0  0  0  0  0  0  0  0  0  0  0
    1.6977    0.3278    1.1804 H   0  0  0  0  0  0  0  0  0  0  0  0
   -1.0927    0.9790    0.4315 C   0  0  0  0  0  0  0  0  0  0  0  0
   -1.9718    1.4271   -0.2973 O   0  0  0  0  0  0  0  0  0  0  0  0
   -0.4806    1.8233    1.3402 N   0  0  0  0  0  0  0  0  0  0  0  0
    0.1882    1.4165    1.9863 H   0  0  0  0  0  0  0  0  0  0  0  0
   -0.8054    3.2391    1.4622 C   0  0  0  0  0  0  0  0  0  0  0  0
   -1.8646    3.3696    1.7077 H   0  0  0  0  0  0  0  0  0  0  0  0
   -0.2076    3.6973    2.2559 H   0  0  0  0  0  0  0  0  0  0  0  0
   -0.5936    3.7628    0.5240 H   0  0  0  0  0  0  0  0  0  0  0  0
  1  2  1  0  0  0  0
  2  3  1  0  0  0  0
  2  4  1  0  0  0  0
  2  5  1  0  0  0  0
  5  6  2  0  0  0  0
  5  7  1  0  0  0  0
  7  8  1  0  0  0  0
  7  9  1  0  0  0  0
  9 10  1  0  0  0  0
  9 11  1  0  0  0  0
  9 25  1  0  0  0  0
 11 12  1  0  0  0  0
 11 13  1  0  0  0  0
 11 14  1  0  0  0  0
 14 15  1  0  0  0  0
 14 23  2  0  0  0  0
 15 16  1  0  0  0  0
 15 17  2  0  0  0  0
 17 18  1  0  0  0  0
 17 19  1  0  0  0  0
 19 20  1  0  0  0  0
 19 21  2  0  0  0  0
 21 22  1  0  0  0  0
 21 23  1  0  0  0  0
 23 24  1  0  0  0  0
 25 26  2  0  0  0  0
 25 27  1  0  0  0  0
 27 28  1  0  0  0  0
 27 29  1  0  0  0  0
 29 30  1  0  0  0  0
 29 31  1  0  0  0  0
 29 32  1  0  0  0  0
M  END
$$$$

  -OEChem-04042216033D

 32 32  0     1  0  0  0  0  0999 V2000
   -3.7280   -3.9795    1.5590 H   0  0  0  0  0  0  0  0  0  0  0  0
   -3.6839   -3.0931    0.9199 C   0  0  0  0  0  0  0  0  0  0  0  0
   -4.4420   -2.3803    1.2533 H   0  0  0  0  0  0  0  0  0  0  0  0
   -3.9000   -3.3900   -0.1092 H   0  0  0  0  0  0  0  0  0  0  0  0
   -2.3073   -2.4599    0.9977 C   0  0  0  0  0  0  0  0  0  0  0  0
   -1.4486   -2.9548    1.7108 O   0  0  0  0  0  0  0  0  0  0  0  0
   -2.0344   -1.3235    0.2644 N   0  0  0  0  0  0  0  0  0  0  0  0
   -2.8114   -0.8883   -0.2311 H   0  0  0  0  0  0  0  0  0  0  0  0
   -0.7860   -0.5501    0.3451 C   0  0  1  0  0  0  0  0  0  0  0  0
   -0.2580   -0.8370    1.2570 H   0  0  0  0  0  0  0  0  0  0  0  0
    0.0736   -0.8704   -0.8920 C   0  0  0  0  0  0  0  0  0  0  0  0
    0.0572   -1.9545   -1.0460 H   0  0  0  0  0  0  0  0  0  0  0  0
   -0.3943   -0.4111   -1.7696 H   0  0  0  0  0  0  0  0  0  0  0  0
    1.5344   -0.4534   -0.8315 C   0  0  0  0  0  0  0  0  0  0  0  0
    2.2527   -0.4315   -2.0379 C   0  0  0  0  0  0  0  0  0  0  0  0
    1.7506   -0.6750   -2.9696 H   0  0  0  0  0  0  0  0  0  0  0  0
    3.6087   -0.0910   -2.0672 C   0  0  0  0  0  0  0  0  0  0  0  0
    4.1430   -0.0698   -3.0124 H   0  0  0  0  0  0  0  0  0  0  0  0
    4.2764    0.2174   -0.8809 C   0  0  0  0  0  0  0  0  0  0  0  0
    5.3301    0.4802   -0.9010 H   0  0  0  0  0  0  0  0  0  0  0  0
    3.5876    0.1737    0.3329 C   0  0  0  0  0  0  0  0  0  0  0  0
    4.1110    0.3955    1.2584 H   0  0  0  0  0  0  0  0  0  0  0  0
    2.2307   -0.1677    0.3607 C   0  0  0  0  0  0  0  0  0  0  0  0
    1.7523   -0.2187    1.3307 H   0  0  0  0  0  0  0  0  0  0  0  0
   -1.0867    0.9602    0.4152 C   0  0  0  0  0  0  0  0  0  0  0  0
   -1.9815    1.4306   -0.2791 O   0  0  0  0  0  0  0  0  0  0  0  0
   -0.4301    1.7768    1.3174 N   0  0  0  0  0  0  0  0  0  0  0  0
    0.3250    1.3677    1.8587 H   0  0  0  0  0  0  0  0  0  0  0  0
   -0.6688    3.2109    1.4167 C   0  0  0  0  0  0  0  0  0  0  0  0
   -1.7223    3.4105    1.6397 H   0  0  0  0  0  0  0  0  0  0  0  0
   -0.0599    3.6403    2.2180 H   0  0  0  0  0  0  0  0  0  0  0  0
   -0.4065    3.7078    0.4767 H   0  0  0  0  0  0  0  0  0  0  0  0
  1  2  1  0  0  0  0
  2  3  1  0  0  0  0
  2  4  1  0  0  0  0
  2  5  1  0  0  0  0
  5  6  2  0  0  0  0
  5  7  1  0  0  0  0
  7  8  1  0  0  0  0
  7  9  1  0  0  0  0
  9 10  1  0  0  0  0
  9 11  1  0  0  0  0
  9 25  1  0  0  0  0
 11 12  1  0  0  0  0
 11 13  1  0  0  0  0
 11 14  1  0  0  0  0
 14 15  1  0  0  0  0
 14 23  2  0  0  0  0
 15 16  1  0  0  0  0
 15 17  2  0  0  0  0
 17 18  1  0  0  0  0
 17 19  1  0  0  0  0
 19 20  1  0  0  0  0
 19 21  2  0  0  0  0
 21 22  1  0  0  0  0
 21 23  1  0  0  0  0
 23 24  1  0  0  0  0
 25 26  2  0  0  0  0
 25 27  1  0  0  0  0
 27 28  1  0  0  0  0
 27 29  1  0  0  0  0
 29 30  1  0  0  0  0
 29 31  1  0  0  0  0
 29 32  1  0  0  0  0
M  END
$$$$

  -OEChem-04042216033D

 32 32  0     1  0  0  0  0  0999 V2000
   -3.7295   -3.9773    1.6089 H   0  0  0  0  0  0  0  0  0  0  0  0
   -3.6938   -3.0984    0.9591 C   0  0  0  0  0  0  0  0  0  0  0  0
   -4.4418   -2.3782    1.2994 H   0  0  0  0  0  0  0  0  0  0  0  0
   -3.9320   -3.4056   -0.0619 H   0  0  0  0  0  0  0  0  0  0  0  0
   -2.3127   -2.4715    1.0029 C   0  0  0  0  0  0  0  0  0  0  0  0
   -1.4387   -2.9707    1.6944 O   0  0  0  0  0  0  0  0  0  0  0  0
   -2.0521   -1.3364    0.2630 N   0  0  0  0  0  0  0  0  0  0  0  0
   -2.8380   -0.8991   -0.2160 H   0  0  0  0  0  0  0  0  0  0  0  0
   -0.8006   -0.5661    0.3205 C   0  0  1  0  0  0  0  0  0  0  0  0
   -0.2699   -0.8474    1.2314 H   0  0  0  0  0  0  0  0  0  0  0  0
    0.0522   -0.8859   -0.9206 C   0  0  0  0  0  0  0  0  0  0  0  0
    0.0472   -1.9699   -1.0740 H   0  0  0  0  0  0  0  0  0  0  0  0
   -0.4196   -0.4312   -1.7986 H   0  0  0  0  0  0  0  0  0  0  0  0
    1.5047   -0.4493   -0.8316 C   0  0  0  0  0  0  0  0  0  0  0  0
    2.1680   -0.0949   -2.0174 C   0  0  0  0  0  0  0  0  0  0  0  0
    1.6301   -0.0935   -2.9609 H   0  0  0  0  0  0  0  0  0  0  0  0
    3.5164    0.2768   -2.0063 C   0  0  0  0  0  0  0  0  0  0  0  0
    4.0071    0.5640   -2.9316 H   0  0  0  0  0  0  0  0  0  0  0  0
    4.2327    0.2721   -0.8074 C   0  0  0  0  0  0  0  0  0  0  0  0
    5.2809    0.5569   -0.7975 H   0  0  0  0  0  0  0  0  0  0  0  0
    3.6015   -0.1197    0.3751 C   0  0  0  0  0  0  0  0  0  0  0  0
    4.1636   -0.1511    1.3039 H   0  0  0  0  0  0  0  0  0  0  0  0
    2.2525   -0.4897    0.3623 C   0  0  0  0  0  0  0  0  0  0  0  0
    1.8177   -0.8297    1.2952 H   0  0  0  0  0  0  0  0  0  0  0  0
   -1.0749    0.9478    0.3951 C   0  0  0  0  0  0  0  0  0  0  0  0
   -1.9800    1.4327   -0.2755 O   0  0  0  0  0  0  0  0  0  0  0  0
   -0.3831    1.7471    1.2864 N   0  0  0  0  0  0  0  0  0  0  0  0
    0.4074    1.3284    1.7680 H   0  0  0  0  0  0  0  0  0  0  0  0
   -0.5719    3.1896    1.3750 C   0  0  0  0  0  0  0  0  0  0  0  0
   -1.6164    3.4273    1.6021 H   0  0  0  0  0  0  0  0  0  0  0  0
    0.0555    3.6043    2.1698 H   0  0  0  0  0  0  0  0  0  0  0  0
   -0.2980    3.6703    0.4300 H   0  0  0  0  0  0  0  0  0  0  0  0
  1  2  1  0  0  0  0
  2  3  1  0  0  0  0
  2  4  1  0  0  0  0
  2  5  1  0  0  0  0
  5  6  2  0  0  0  0
  5  7  1  0  0  0  0
  7  8  1  0  0  0  0
  7  9  1  0  0  0  0
  9 10  1  0  0  0  0
  9 11  1  0  0  0  0
  9 25  1  0  0  0  0
 11 12  1  0  0  0  0
 11 13  1  0  0  0  0
 11 14  1  0  0  0  0
 14 15  1  0  0  0  0
 14 23  2  0  0  0  0
 15 16  1  0  0  0  0
 15 17  2  0  0  0  0
 17 18  1  0  0  0  0
 17 19  1  0  0  0  0
 19 20  1  0  0  0  0
 19 21  2  0  0  0  0
 21 22  1  0  0  0  0
 21 23  1  0  0  0  0
 23 24  1  0  0  0  0
 25 26  2  0  0  0  0
 25 27  1  0  0  0  0
 27 28  1  0  0  0  0
 27 29  1  0  0  0  0
 29 30  1  0  0  0  0
 29 31  1  0  0  0  0
 29 32  1  0  0  0  0
M  END
$$$$

  -OEChem-04042216033D

 32 32  0     1  0  0  0  0  0999 V2000
   -3.7152   -3.9656    1.6544 H   0  0  0  0  0  0  0  0  0  0  0  0
   -3.6869   -3.0924    0.9967 C   0  0  0  0  0  0  0  0  0  0  0  0
   -4.4218   -2.3637    1.3473 H   0  0  0  0  0  0  0  0  0  0  0  0
   -3.9490   -3.4059   -0.0167 H   0  0  0  0  0  0  0  0  0  0  0  0
   -2.3003   -2.4764    1.0055 C   0  0  0  0  0  0  0  0  0  0  0  0
   -1.4104   -2.9857    1.6689 O   0  0  0  0  0  0  0  0  0  0  0  0
   -2.0508   -1.3420    0.2611 N   0  0  0  0  0  0  0  0  0  0  0  0
   -2.8460   -0.8965   -0.1942 H   0  0  0  0  0  0  0  0  0  0  0  0
   -0.7939   -0.5800    0.2931 C   0  0  1  0  0  0  0  0  0  0  0  0
   -0.2420   -0.8594    1.1934 H   0  0  0  0  0  0  0  0  0  0  0  0
    0.0358   -0.9055   -0.9602 C   0  0  0  0  0  0  0  0  0  0  0  0
    0.0328   -1.9892   -1.1155 H   0  0  0  0  0  0  0  0  0  0  0  0
   -0.4395   -0.4498   -1.8354 H   0  0  0  0  0  0  0  0  0  0  0  0
    1.4793   -0.4587   -0.8471 C   0  0  0  0  0  0  0  0  0  0  0  0
    2.0824    0.2083   -1.9250 C   0  0  0  0  0  0  0  0  0  0  0  0
    1.5041    0.4402   -2.8148 H   0  0  0  0  0  0  0  0  0  0  0  0
    3.4247    0.5982   -1.8654 C   0  0  0  0  0  0  0  0  0  0  0  0
    3.8729    1.1280   -2.7010 H   0  0  0  0  0  0  0  0  0  0  0  0
    4.1899    0.3008   -0.7347 C   0  0  0  0  0  0  0  0  0  0  0  0
    5.2332    0.5992   -0.6897 H   0  0  0  0  0  0  0  0  0  0  0  0
    3.6144   -0.3985    0.3291 C   0  0  0  0  0  0  0  0  0  0  0  0
    4.2143   -0.6540    1.1978 H   0  0  0  0  0  0  0  0  0  0  0  0
    2.2716   -0.7858    0.2685 C   0  0  0  0  0  0  0  0  0  0  0  0
    1.8622   -1.3636    1.0916 H   0  0  0  0  0  0  0  0  0  0  0  0
   -1.0541    0.9357    0.3756 C   0  0  0  0  0  0  0  0  0  0  0  0
   -1.9690    1.4298   -0.2747 O   0  0  0  0  0  0  0  0  0  0  0  0
   -0.3354    1.7253    1.2539 N   0  0  0  0  0  0  0  0  0  0  0  0
    0.4670    1.2984    1.7087 H   0  0  0  0  0  0  0  0  0  0  0  0
   -0.5106    3.1685    1.3538 C   0  0  0  0  0  0  0  0  0  0  0  0
   -1.5486    3.4135    1.6024 H   0  0  0  0  0  0  0  0  0  0  0  0
    0.1356    3.5732    2.1386 H   0  0  0  0  0  0  0  0  0  0  0  0
   -0.2511    3.6517    0.4061 H   0  0  0  0  0  0  0  0  0  0  0  0
  1  2  1  0  0  0  0
  2  3  1  0  0  0  0
  2  4  1  0  0  0  0
  2  5  1  0  0  0  0
  5  6  2  0  0  0  0
  5  7  1  0  0  0  0
  7  8  1  0  0  0  0
  7  9  1  0  0  0  0
  9 10  1  0  0  0  0
  9 11  1  0  0  0  0
  9 25  1  0  0  0  0
 11 12  1  0  0  0  0
 11 13  1  0  0  0  0
 11 14  1  0  0  0  0
 14 15  1  0  0  0  0
 14 23  2  0  0  0  0
 15 16  1  0  0  0  0
 15 17  2  0  0  0  0
 17 18  1  0  0  0  0
 17 19  1  0  0  0  0
 19 20  1  0  0  0  0
 19 21  2  0  0  0  0
 21 22  1  0  0  0  0
 21 23  1  0  0  0  0
 23 24  1  0  0  0  0
 25 26  2  0  0  0  0
 25 27  1  0  0  0  0
 27 28  1  0  0  0  0
 27 29  1  0  0  0  0
 29 30  1  0  0  0  0
 29 31  1  0  0  0  0
 29 32  1  0  0  0  0
M  END
$$$$

  -OEChem-04042216033D

 32 32  0     1  0  0  0  0  0999 V2000
   -3.7047   -3.9563    1.6842 H   0  0  0  0  0  0  0  0  0  0  0  0
   -3.6791   -3.0869    1.0213 C   0  0  0  0  0  0  0  0  0  0  0  0
   -4.3992   -2.3481    1.3814 H   0  0  0  0  0  0  0  0  0  0  0  0
   -3.9637   -3.4025    0.0148 H   0  0  0  0  0  0  0  0  0  0  0  0
   -2.2866   -2.4852    0.9995 C   0  0  0  0  0  0  0  0  0  0  0  0
   -1.3849   -3.0082    1.6361 O   0  0  0  0  0  0  0  0  0  0  0  0
   -2.0454   -1.3488    0.2555 N   0  0  0  0  0  0  0  0  0  0  0  0
   -2.8476   -0.8934   -0.1776 H   0  0  0  0  0  0  0  0  0  0  0  0
   -0.7825   -0.5965    0.2664 C   0  0  1  0  0  0  0  0  0  0  0  0
   -0.2071   -0.8842    1.1510 H   0  0  0  0  0  0  0  0  0  0  0  0
    0.0221   -0.9251   -0.9999 C   0  0  0  0  0  0  0  0  0  0  0  0
    0.0146   -2.0082   -1.1608 H   0  0  0  0  0  0  0  0  0  0  0  0
   -0.4544   -0.4629   -1.8711 H   0  0  0  0  0  0  0  0  0  0  0  0
    1.4594   -0.4748   -0.8698 C   0  0  0  0  0  0  0  0  0  0  0  0
    1.9923    0.4619   -1.7679 C   0  0  0  0  0  0  0  0  0  0  0  0
    1.3668    0.8887   -2.5467 H   0  0  0  0  0  0  0  0  0  0  0  0
    3.3276    0.8666   -1.6644 C   0  0  0  0  0  0  0  0  0  0  0  0
    3.7277    1.5994   -2.3591 H   0  0  0  0  0  0  0  0  0  0  0  0
    4.1483    0.3245   -0.6710 C   0  0  0  0  0  0  0  0  0  0  0  0
    5.1865    0.6344   -0.5935 H   0  0  0  0  0  0  0  0  0  0  0  0
    3.6337   -0.6264    0.2149 C   0  0  0  0  0  0  0  0  0  0  0  0
    4.2730   -1.0605    0.9781 H   0  0  0  0  0  0  0  0  0  0  0  0
    2.2980   -1.0286    0.1113 C   0  0  0  0  0  0  0  0  0  0  0  0
    1.9166   -1.7850    0.7925 H   0  0  0  0  0  0  0  0  0  0  0  0
   -1.0306    0.9203    0.3623 C   0  0  0  0  0  0  0  0  0  0  0  0
   -1.9495    1.4257   -0.2735 O   0  0  0  0  0  0  0  0  0  0  0  0
   -0.2896    1.7005    1.2302 N   0  0  0  0  0  0  0  0  0  0  0  0
    0.5142    1.2636    1.6733 H   0  0  0  0  0  0  0  0  0  0  0  0
   -0.4539    3.1441    1.3425 C   0  0  0  0  0  0  0  0  0  0  0  0
   -1.4861    3.3938    1.6100 H   0  0  0  0  0  0  0  0  0  0  0  0
    0.2077    3.5402    2.1189 H   0  0  0  0  0  0  0  0  0  0  0  0
   -0.2073    3.6320    0.3937 H   0  0  0  0  0  0  0  0  0  0  0  0
  1  2  1  0  0  0  0
  2  3  1  0  0  0  0
  2  4  1  0  0  0  0
  2  5  1  0  0  0  0
  5  6  2  0  0  0  0
  5  7  1  0  0  0  0
  7  8  1  0  0  0  0
  7  9  1  0  0  0  0
  9 10  1  0  0  0  0
  9 11  1  0  0  0  0
  9 25  1  0  0  0  0
 11 12  1  0  0  0  0
 11 13  1  0  0  0  0
 11 14  1  0  0  0  0
 14 15  1  0  0  0  0
 14 23  2  0  0  0  0
 15 16  1  0  0  0  0
 15 17  2  0  0  0  0
 17 18  1  0  0  0  0
 17 19  1  0  0  0  0
 19 20  1  0  0  0  0
 19 21  2  0  0  0  0
 21 22  1  0  0  0  0
 21 23  1  0  0  0  0
 23 24  1  0  0  0  0
 25 26  2  0  0  0  0
 25 27  1  0  0  0  0
 27 28  1  0  0  0  0
 27 29  1  0  0  0  0
 29 30  1  0  0  0  0
 29 31  1  0  0  0  0
 29 32  1  0  0  0  0
M  END
$$$$

  -OEChem-04042216033D

 32 32  0     1  0  0  0  0  0999 V2000
   -3.7048   -3.9497    1.6892 H   0  0  0  0  0  0  0  0  0  0  0  0
   -3.6807   -3.0787    1.0283 C   0  0  0  0  0  0  0  0  0  0  0  0
   -4.3865   -2.3333    1.4031 H   0  0  0  0  0  0  0  0  0  0  0  0
   -3.9866   -3.3882    0.0259 H   0  0  0  0  0  0  0  0  0  0  0  0
   -2.2818   -2.4925    0.9841 C   0  0  0  0  0  0  0  0  0  0  0  0
   -1.3737   -3.0325    1.5968 O   0  0  0  0  0  0  0  0  0  0  0  0
   -2.0418   -1.3525    0.2458 N   0  0  0  0  0  0  0  0  0  0  0  0
   -2.8472   -0.8855   -0.1683 H   0  0  0  0  0  0  0  0  0  0  0  0
   -0.7739   -0.6088    0.2448 C   0  0  1  0  0  0  0  0  0  0  0  0
   -0.1840   -0.9063    1.1180 H   0  0  0  0  0  0  0  0  0  0  0  0
    0.0153   -0.9423   -1.0279 C   0  0  0  0  0  0  0  0  0  0  0  0
   -0.0006   -2.0244   -1.1941 H   0  0  0  0  0  0  0  0  0  0  0  0
   -0.4574   -0.4716   -1.8965 H   0  0  0  0  0  0  0  0  0  0  0  0
    1.4500   -0.4944   -0.8908 C   0  0  0  0  0  0  0  0  0  0  0  0
    1.9048    0.6510   -1.5606 C   0  0  0  0  0  0  0  0  0  0  0  0
    1.2242    1.2247   -2.1837 H   0  0  0  0  0  0  0  0  0  0  0  0
    3.2332    1.0694   -1.4276 C   0  0  0  0  0  0  0  0  0  0  0  0
    3.5763    1.9580   -1.9495 H   0  0  0  0  0  0  0  0  0  0  0  0
    4.1186    0.3431   -0.6253 C   0  0  0  0  0  0  0  0  0  0  0  0
    5.1506    0.6663   -0.5241 H   0  0  0  0  0  0  0  0  0  0  0  0
    3.6746   -0.8023    0.0425 C   0  0  0  0  0  0  0  0  0  0  0  0
    4.3615   -1.3707    0.6627 H   0  0  0  0  0  0  0  0  0  0  0  0
    2.3461   -1.2197   -0.0913 C   0  0  0  0  0  0  0  0  0  0  0  0
    2.0094   -2.1135    0.4277 H   0  0  0  0  0  0  0  0  0  0  0  0
   -1.0123    0.9084    0.3550 C   0  0  0  0  0  0  0  0  0  0  0  0
   -1.9326    1.4255   -0.2693 O   0  0  0  0  0  0  0  0  0  0  0  0
   -0.2549    1.6775    1.2187 N   0  0  0  0  0  0  0  0  0  0  0  0
    0.5505    1.2310    1.6499 H   0  0  0  0  0  0  0  0  0  0  0  0
   -0.4087    3.1211    1.3443 C   0  0  0  0  0  0  0  0  0  0  0  0
   -1.4345    3.3745    1.6321 H   0  0  0  0  0  0  0  0  0  0  0  0
    0.2688    3.5078    2.1116 H   0  0  0  0  0  0  0  0  0  0  0  0
   -0.1764    3.6144    0.3947 H   0  0  0  0  0  0  0  0  0  0  0  0
  1  2  1  0  0  0  0
  2  3  1  0  0  0  0
  2  4  1  0  0  0  0
  2  5  1  0  0  0  0
  5  6  2  0  0  0  0
  5  7  1  0  0  0  0
  7  8  1  0  0  0  0
  7  9  1  0  0  0  0
  9 10  1  0  0  0  0
  9 11  1  0  0  0  0
  9 25  1  0  0  0  0
 11 12  1  0  0  0  0
 11 13  1  0  0  0  0
 11 14  1  0  0  0  0
 14 15  1  0  0  0  0
 14 23  2  0  0  0  0
 15 16  1  0  0  0  0
 15 17  2  0  0  0  0
 17 18  1  0  0  0  0
 17 19  1  0  0  0  0
 19 20  1  0  0  0  0
 19 21  2  0  0  0  0
 21 22  1  0  0  0  0
 21 23  1  0  0  0  0
 23 24  1  0  0  0  0
 25 26  2  0  0  0  0
 25 27  1  0  0  0  0
 27 28  1  0  0  0  0
 27 29  1  0  0  0  0
 29 30  1  0  0  0  0
 29 31  1  0  0  0  0
 29 32  1  0  0  0  0
M  END
$$$$

  -OEChem-04042216033D

 32 32  0     1  0  0  0  0  0999 V2000
   -3.7006   -3.9450    1.6834 H   0  0  0  0  0  0  0  0  0  0  0  0
   -3.6779   -3.0732    1.0234 C   0  0  0  0  0  0  0  0  0  0  0  0
   -4.3796   -2.3264    1.4027 H   0  0  0  0  0  0  0  0  0  0  0  0
   -3.9894   -3.3805    0.0222 H   0  0  0  0  0  0  0  0  0  0  0  0
   -2.2776   -2.4910    0.9736 C   0  0  0  0  0  0  0  0  0  0  0  0
   -1.3677   -3.0376    1.5773 O   0  0  0  0  0  0  0  0  0  0  0  0
   -2.0385   -1.3468    0.2413 N   0  0  0  0  0  0  0  0  0  0  0  0
   -2.8444   -0.8759   -0.1673 H   0  0  0  0  0  0  0  0  0  0  0  0
   -0.7686   -0.6061    0.2394 C   0  0  1  0  0  0  0  0  0  0  0  0
   -0.1720   -0.9083    1.1067 H   0  0  0  0  0  0  0  0  0  0  0  0
    0.0134   -0.9474   -1.0367 C   0  0  0  0  0  0  0  0  0  0  0  0
   -0.0162   -2.0292   -1.2042 H   0  0  0  0  0  0  0  0  0  0  0  0
   -0.4566   -0.4708   -1.9037 H   0  0  0  0  0  0  0  0  0  0  0  0
    1.4515   -0.5075   -0.9102 C   0  0  0  0  0  0  0  0  0  0  0  0
    1.8442    0.7771   -1.3158 C   0  0  0  0  0  0  0  0  0  0  0  0
    1.1154    1.4590   -1.7459 H   0  0  0  0  0  0  0  0  0  0  0  0
    3.1719    1.1925   -1.1689 C   0  0  0  0  0  0  0  0  0  0  0  0
    3.4670    2.1878   -1.4881 H   0  0  0  0  0  0  0  0  0  0  0  0
    4.1182    0.3264   -0.6127 C   0  0  0  0  0  0  0  0  0  0  0  0
    5.1497    0.6473   -0.5000 H   0  0  0  0  0  0  0  0  0  0  0  0
    3.7348   -0.9543   -0.2027 C   0  0  0  0  0  0  0  0  0  0  0  0
    4.4678   -1.6290    0.2304 H   0  0  0  0  0  0  0  0  0  0  0  0
    2.4064   -1.3681   -0.3496 C   0  0  0  0  0  0  0  0  0  0  0  0
    2.1158   -2.3630   -0.0227 H   0  0  0  0  0  0  0  0  0  0  0  0
   -1.0105    0.9101    0.3606 C   0  0  0  0  0  0  0  0  0  0  0  0
   -1.9249    1.4325   -0.2677 O   0  0  0  0  0  0  0  0  0  0  0  0
   -0.2523    1.6762    1.2263 N   0  0  0  0  0  0  0  0  0  0  0  0
    0.5446    1.2244    1.6677 H   0  0  0  0  0  0  0  0  0  0  0  0
   -0.4068    3.1188    1.3617 C   0  0  0  0  0  0  0  0  0  0  0  0
   -1.4316    3.3695    1.6553 H   0  0  0  0  0  0  0  0  0  0  0  0
    0.2736    3.5006    2.1288 H   0  0  0  0  0  0  0  0  0  0  0  0
   -0.1786    3.6185    0.4146 H   0  0  0  0  0  0  0  0  0  0  0  0
  1  2  1  0  0  0  0
  2  3  1  0  0  0  0
  2  4  1  0  0  0  0
  2  5  1  0  0  0  0
  5  6  2  0  0  0  0
  5  7  1  0  0  0  0
  7  8  1  0  0  0  0
  7  9  1  0  0  0  0
  9 10  1  0  0  0  0
  9 11  1  0  0  0  0
  9 25  1  0  0  0  0
 11 12  1  0  0  0  0
 11 13  1  0  0  0  0
 11 14  1  0  0  0  0
 14 15  1  0  0  0  0
 14 23  2  0  0  0  0
 15 16  1  0  0  0  0
 15 17  2  0  0  0  0
 17 18  1  0  0  0  0
 17 19  1  0  0  0  0
 19 20  1  0  0  0  0
 19 21  2  0  0  0  0
 21 22  1  0  0  0  0
 21 23  1  0  0  0  0
 23 24  1  0  0  0  0
 25 26  2  0  0  0  0
 25 27  1  0  0  0  0
 27 28  1  0  0  0  0
 27 29  1  0  0  0  0
 29 30  1  0  0  0  0
 29 31  1  0  0  0  0
 29 32  1  0  0  0  0
M  END
$$$$

  -OEChem-04042216033D

 32 32  0     1  0  0  0  0  0999 V2000
   -3.6929   -3.9508    1.6486 H   0  0  0  0  0  0  0  0  0  0  0  0
   -3.6679   -3.0719    0.9982 C   0  0  0  0  0  0  0  0  0  0  0  0
   -4.3815   -2.3351    1.3751 H   0  0  0  0  0  0  0  0  0  0  0  0
   -3.9622   -3.3713   -0.0106 H   0  0  0  0  0  0  0  0  0  0  0  0
   -2.2720   -2.4777    0.9747 C   0  0  0  0  0  0  0  0  0  0  0  0
   -1.3680   -3.0183    1.5922 O   0  0  0  0  0  0  0  0  0  0  0  0
   -2.0306   -1.3291    0.2500 N   0  0  0  0  0  0  0  0  0  0  0  0
   -2.8333   -0.8654   -0.1731 H   0  0  0  0  0  0  0  0  0  0  0  0
   -0.7637   -0.5824    0.2590 C   0  0  1  0  0  0  0  0  0  0  0  0
   -0.1684   -0.8819    1.1281 H   0  0  0  0  0  0  0  0  0  0  0  0
    0.0220   -0.9398   -1.0145 C   0  0  0  0  0  0  0  0  0  0  0  0
   -0.0254   -2.0223   -1.1733 H   0  0  0  0  0  0  0  0  0  0  0  0
   -0.4487   -0.4657   -1.8822 H   0  0  0  0  0  0  0  0  0  0  0  0
    1.4710   -0.5151   -0.9277 C   0  0  0  0  0  0  0  0  0  0  0  0
    1.8426    0.8327   -1.0631 C   0  0  0  0  0  0  0  0  0  0  0  0
    1.0935    1.5874   -1.2865 H   0  0  0  0  0  0  0  0  0  0  0  0
    3.1803    1.2200   -0.9327 C   0  0  0  0  0  0  0  0  0  0  0  0
    3.4565    2.2638   -1.0493 H   0  0  0  0  0  0  0  0  0  0  0  0
    4.1614    0.2635   -0.6572 C   0  0  0  0  0  0  0  0  0  0  0  0
    5.2008    0.5626   -0.5573 H   0  0  0  0  0  0  0  0  0  0  0  0
    3.8021   -1.0794   -0.5119 C   0  0  0  0  0  0  0  0  0  0  0  0
    4.5615   -1.8246   -0.2935 H   0  0  0  0  0  0  0  0  0  0  0  0
    2.4638   -1.4650   -0.6440 C   0  0  0  0  0  0  0  0  0  0  0  0
    2.1967   -2.5104   -0.5170 H   0  0  0  0  0  0  0  0  0  0  0  0
   -1.0303    0.9292    0.3859 C   0  0  0  0  0  0  0  0  0  0  0  0
   -1.9390    1.4439   -0.2564 O   0  0  0  0  0  0  0  0  0  0  0  0
   -0.2912    1.7036    1.2610 N   0  0  0  0  0  0  0  0  0  0  0  0
    0.4904    1.2554    1.7327 H   0  0  0  0  0  0  0  0  0  0  0  0
   -0.4768    3.1408    1.4134 C   0  0  0  0  0  0  0  0  0  0  0  0
   -1.5097    3.3665    1.6986 H   0  0  0  0  0  0  0  0  0  0  0  0
    0.1873    3.5263    2.1928 H   0  0  0  0  0  0  0  0  0  0  0  0
   -0.2487    3.6573    0.4754 H   0  0  0  0  0  0  0  0  0  0  0  0
  1  2  1  0  0  0  0
  2  3  1  0  0  0  0
  2  4  1  0  0  0  0
  2  5  1  0  0  0  0
  5  6  2  0  0  0  0
  5  7  1  0  0  0  0
  7  8  1  0  0  0  0
  7  9  1  0  0  0  0
  9 10  1  0  0  0  0
  9 11  1  0  0  0  0
  9 25  1  0  0  0  0
 11 12  1  0  0  0  0
 11 13  1  0  0  0  0
 11 14  1  0  0  0  0
 14 15  1  0  0  0  0
 14 23  2  0  0  0  0
 15 16  1  0  0  0  0
 15 17  2  0  0  0  0
 17 18  1  0  0  0  0
 17 19  1  0  0  0  0
 19 20  1  0  0  0  0
 19 21  2  0  0  0  0
 21 22  1  0  0  0  0
 21 23  1  0  0  0  0
 23 24  1  0  0  0  0
 25 26  2  0  0  0  0
 25 27  1  0  0  0  0
 27 28  1  0  0  0  0
 27 29  1  0  0  0  0
 29 30  1  0  0  0  0
 29 31  1  0  0  0  0
 29 32  1  0  0  0  0
M  END
$$$$

  -OEChem-04042216033D

 32 32  0     1  0  0  0  0  0999 V2000
   -3.6656   -3.9615    1.5973 H   0  0  0  0  0  0  0  0  0  0  0  0
   -3.6412   -3.0708    0.9632 C   0  0  0  0  0  0  0  0  0  0  0  0
   -4.3740   -2.3518    1.3375 H   0  0  0  0  0  0  0  0  0  0  0  0
   -3.9098   -3.3570   -0.0566 H   0  0  0  0  0  0  0  0  0  0  0  0
   -2.2549   -2.4544    0.9789 C   0  0  0  0  0  0  0  0  0  0  0  0
   -1.3603   -2.9797    1.6223 O   0  0  0  0  0  0  0  0  0  0  0  0
   -2.0112   -1.3026    0.2603 N   0  0  0  0  0  0  0  0  0  0  0  0
   -2.8080   -0.8518   -0.1874 H   0  0  0  0  0  0  0  0  0  0  0  0
   -0.7533   -0.5410    0.2955 C   0  0  1  0  0  0  0  0  0  0  0  0
   -0.1665   -0.8282    1.1743 H   0  0  0  0  0  0  0  0  0  0  0  0
    0.0461   -0.9166   -0.9695 C   0  0  0  0  0  0  0  0  0  0  0  0
   -0.0170   -2.0007   -1.1106 H   0  0  0  0  0  0  0  0  0  0  0  0
   -0.4272   -0.4527   -1.8412 H   0  0  0  0  0  0  0  0  0  0  0  0
    1.5081   -0.5126   -0.9354 C   0  0  0  0  0  0  0  0  0  0  0  0
    1.9154    0.8266   -0.8041 C   0  0  0  0  0  0  0  0  0  0  0  0
    1.1884    1.6315   -0.8124 H   0  0  0  0  0  0  0  0  0  0  0  0
    3.2712    1.1582   -0.7128 C   0  0  0  0  0  0  0  0  0  0  0  0
    3.5703    2.1987   -0.6269 H   0  0  0  0  0  0  0  0  0  0  0  0
    4.2414    0.1536   -0.7422 C   0  0  0  0  0  0  0  0  0  0  0  0
    5.2946    0.4098   -0.6712 H   0  0  0  0  0  0  0  0  0  0  0  0
    3.8526   -1.1822   -0.8673 C   0  0  0  0  0  0  0  0  0  0  0  0
    4.6031   -1.9670   -0.8889 H   0  0  0  0  0  0  0  0  0  0  0  0
    2.4960   -1.5110   -0.9605 C   0  0  0  0  0  0  0  0  0  0  0  0
    2.2133   -2.5565   -1.0432 H   0  0  0  0  0  0  0  0  0  0  0  0
   -1.0679    0.9619    0.4178 C   0  0  0  0  0  0  0  0  0  0  0  0
   -1.9735    1.4524   -0.2474 O   0  0  0  0  0  0  0  0  0  0  0  0
   -0.3727    1.7573    1.3105 N   0  0  0  0  0  0  0  0  0  0  0  0
    0.3800    1.3216    1.8376 H   0  0  0  0  0  0  0  0  0  0  0  0
   -0.6301    3.1808    1.4881 C   0  0  0  0  0  0  0  0  0  0  0  0
   -1.6752    3.3501    1.7678 H   0  0  0  0  0  0  0  0  0  0  0  0
    0.0076    3.5842    2.2804 H   0  0  0  0  0  0  0  0  0  0  0  0
   -0.4201    3.7259    0.5620 H   0  0  0  0  0  0  0  0  0  0  0  0
  1  2  1  0  0  0  0
  2  3  1  0  0  0  0
  2  4  1  0  0  0  0
  2  5  1  0  0  0  0
  5  6  2  0  0  0  0
  5  7  1  0  0  0  0
  7  8  1  0  0  0  0
  7  9  1  0  0  0  0
  9 10  1  0  0  0  0
  9 11  1  0  0  0  0
  9 25  1  0  0  0  0
 11 12  1  0  0  0  0
 11 13  1  0  0  0  0
 11 14  1  0  0  0  0
 14 15  1  0  0  0  0
 14 23  2  0  0  0  0
 15 16  1  0  0  0  0
 15 17  2  0  0  0  0
 17 18  1  0  0  0  0
 17 19  1  0  0  0  0
 19 20  1  0  0  0  0
 19 21  2  0  0  0  0
 21 22  1  0  0  0  0
 21 23  1  0  0  0  0
 23 24  1  0  0  0  0
 25 26  2  0  0  0  0
 25 27  1  0  0  0  0
 27 28  1  0  0  0  0
 27 29  1  0  0  0  0
 29 30  1  0  0  0  0
 29 31  1  0  0  0  0
 29 32  1  0  0  0  0
M  END
$$$$

  -OEChem-04042216033D

 32 32  0     1  0  0  0  0  0999 V2000
   -3.6412   -3.9777    1.5280 H   0  0  0  0  0  0  0  0  0  0  0  0
   -3.6120   -3.0783    0.9068 C   0  0  0  0  0  0  0  0  0  0  0  0
   -4.3762   -2.3815    1.2594 H   0  0  0  0  0  0  0  0  0  0  0  0
   -3.8320   -3.3571   -0.1265 H   0  0  0  0  0  0  0  0  0  0  0  0
   -2.2419   -2.4312    0.9880 C   0  0  0  0  0  0  0  0  0  0  0  0
   -1.3707   -2.9317    1.6813 O   0  0  0  0  0  0  0  0  0  0  0  0
   -1.9858   -1.2790    0.2745 N   0  0  0  0  0  0  0  0  0  0  0  0
   -2.7680   -0.8453   -0.2142 H   0  0  0  0  0  0  0  0  0  0  0  0
   -0.7396   -0.5003    0.3549 C   0  0  1  0  0  0  0  0  0  0  0  0
   -0.1707   -0.7742    1.2495 H   0  0  0  0  0  0  0  0  0  0  0  0
    0.0820   -0.8839   -0.8982 C   0  0  0  0  0  0  0  0  0  0  0  0
    0.0102   -1.9697   -1.0219 H   0  0  0  0  0  0  0  0  0  0  0  0
   -0.3905   -0.4319   -1.7762 H   0  0  0  0  0  0  0  0  0  0  0  0
    1.5552   -0.5052   -0.9061 C   0  0  0  0  0  0  0  0  0  0  0  0
    2.0411    0.7542   -0.5109 C   0  0  0  0  0  0  0  0  0  0  0  0
    1.3707    1.5654   -0.2647 H   0  0  0  0  0  0  0  0  0  0  0  0
    3.4140    1.0226   -0.4883 C   0  0  0  0  0  0  0  0  0  0  0  0
    3.7698    2.0055   -0.1939 H   0  0  0  0  0  0  0  0  0  0  0  0
    4.3284    0.0341   -0.8562 C   0  0  0  0  0  0  0  0  0  0  0  0
    5.3941    0.2425   -0.8404 H   0  0  0  0  0  0  0  0  0  0  0  0
    3.8658   -1.2218   -1.2519 C   0  0  0  0  0  0  0  0  0  0  0  0
    4.5717   -1.9950   -1.5400 H   0  0  0  0  0  0  0  0  0  0  0  0
    2.4926   -1.4864   -1.2742 C   0  0  0  0  0  0  0  0  0  0  0  0
    2.1579   -2.4746   -1.5757 H   0  0  0  0  0  0  0  0  0  0  0  0
   -1.1075    0.9936    0.4580 C   0  0  0  0  0  0  0  0  0  0  0  0
   -1.9909    1.4554   -0.2560 O   0  0  0  0  0  0  0  0  0  0  0  0
   -0.4788    1.8185    1.3738 N   0  0  0  0  0  0  0  0  0  0  0  0
    0.2211    1.3981    1.9800 H   0  0  0  0  0  0  0  0  0  0  0  0
   -0.8050    3.2295    1.5413 C   0  0  0  0  0  0  0  0  0  0  0  0
   -1.8652    3.3523    1.7864 H   0  0  0  0  0  0  0  0  0  0  0  0
   -0.2112    3.6606    2.3529 H   0  0  0  0  0  0  0  0  0  0  0  0
   -0.5895    3.7837    0.6219 H   0  0  0  0  0  0  0  0  0  0  0  0
  1  2  1  0  0  0  0
  2  3  1  0  0  0  0
  2  4  1  0  0  0  0
  2  5  1  0  0  0  0
  5  6  2  0  0  0  0
  5  7  1  0  0  0  0
  7  8  1  0  0  0  0
  7  9  1  0  0  0  0
  9 10  1  0  0  0  0
  9 11  1  0  0  0  0
  9 25  1  0  0  0  0
 11 12  1  0  0  0  0
 11 13  1  0  0  0  0
 11 14  1  0  0  0  0
 14 15  1  0  0  0  0
 14 23  2  0  0  0  0
 15 16  1  0  0  0  0
 15 17  2  0  0  0  0
 17 18  1  0  0  0  0
 17 19  1  0  0  0  0
 19 20  1  0  0  0  0
 19 21  2  0  0  0  0
 21 22  1  0  0  0  0
 21 23  1  0  0  0  0
 23 24  1  0  0  0  0
 25 26  2  0  0  0  0
 25 27  1  0  0  0  0
 27 28  1  0  0  0  0
 27 29  1  0  0  0  0
 29 30  1  0  0  0  0
 29 31  1  0  0  0  0
 29 32  1  0  0  0  0
M  END
$$$$

  -OEChem-04042216033D

 32 32  0     1  0  0  0  0  0999 V2000
   -3.6752   -3.9551    1.4861 H   0  0  0  0  0  0  0  0  0  0  0  0
   -3.6184   -3.0598    0.8606 C   0  0  0  0  0  0  0  0  0  0  0  0
   -4.3950   -2.3593    1.1769 H   0  0  0  0  0  0  0  0  0  0  0  0
   -3.7961   -3.3448   -0.1792 H   0  0  0  0  0  0  0  0  0  0  0  0
   -2.2519   -2.4143    0.9941 C   0  0  0  0  0  0  0  0  0  0  0  0
   -1.4154   -2.9034    1.7365 O   0  0  0  0  0  0  0  0  0  0  0  0
   -1.9618   -1.2711    0.2793 N   0  0  0  0  0  0  0  0  0  0  0  0
   -2.7205   -0.8394   -0.2473 H   0  0  0  0  0  0  0  0  0  0  0  0
   -0.7179   -0.4949    0.4079 C   0  0  1  0  0  0  0  0  0  0  0  0
   -0.1735   -0.7627    1.3193 H   0  0  0  0  0  0  0  0  0  0  0  0
    0.1272   -0.8671   -0.8340 C   0  0  0  0  0  0  0  0  0  0  0  0
    0.0521   -1.9523   -0.9626 H   0  0  0  0  0  0  0  0  0  0  0  0
   -0.3338   -0.4081   -1.7152 H   0  0  0  0  0  0  0  0  0  0  0  0
    1.6083   -0.5156   -0.8448 C   0  0  0  0  0  0  0  0  0  0  0  0
    2.1790    0.5835   -0.1780 C   0  0  0  0  0  0  0  0  0  0  0  0
    1.5790    1.2894    0.3725 H   0  0  0  0  0  0  0  0  0  0  0  0
    3.5572    0.8219   -0.2273 C   0  0  0  0  0  0  0  0  0  0  0  0
    3.9785    1.6785    0.2906 H   0  0  0  0  0  0  0  0  0  0  0  0
    4.3926   -0.0343   -0.9463 C   0  0  0  0  0  0  0  0  0  0  0  0
    5.4623    0.1499   -0.9841 H   0  0  0  0  0  0  0  0  0  0  0  0
    3.8453   -1.1263   -1.6210 C   0  0  0  0  0  0  0  0  0  0  0  0
    4.4887   -1.7950   -2.1854 H   0  0  0  0  0  0  0  0  0  0  0  0
    2.4675   -1.3601   -1.5699 C   0  0  0  0  0  0  0  0  0  0  0  0
    2.0643   -2.2163   -2.1025 H   0  0  0  0  0  0  0  0  0  0  0  0
   -1.1168    0.9961    0.4756 C   0  0  0  0  0  0  0  0  0  0  0  0
   -1.9769    1.4291   -0.2843 O   0  0  0  0  0  0  0  0  0  0  0  0
   -0.5547    1.8530    1.4051 N   0  0  0  0  0  0  0  0  0  0  0  0
    0.0895    1.4526    2.0818 H   0  0  0  0  0  0  0  0  0  0  0  0
   -0.9389    3.2530    1.5400 C   0  0  0  0  0  0  0  0  0  0  0  0
   -2.0056    3.3375    1.7735 H   0  0  0  0  0  0  0  0  0  0  0  0
   -0.3697    3.7256    2.3461 H   0  0  0  0  0  0  0  0  0  0  0  0
   -0.7374    3.7964    0.6108 H   0  0  0  0  0  0  0  0  0  0  0  0
  1  2  1  0  0  0  0
  2  3  1  0  0  0  0
  2  4  1  0  0  0  0
  2  5  1  0  0  0  0
  5  6  2  0  0  0  0
  5  7  1  0  0  0  0
  7  8  1  0  0  0  0
  7  9  1  0  0  0  0
  9 10  1  0  0  0  0
  9 11  1  0  0  0  0
  9 25  1  0  0  0  0
 11 12  1  0  0  0  0
 11 13  1  0  0  0  0
 11 14  1  0  0  0  0
 14 15  1  0  0  0  0
 14 23  2  0  0  0  0
 15 16  1  0  0  0  0
 15 17  2  0  0  0  0
 17 18  1  0  0  0  0
 17 19  1  0  0  0  0
 19 20  1  0  0  0  0
 19 21  2  0  0  0  0
 21 22  1  0  0  0  0
 21 23  1  0  0  0  0
 23 24  1  0  0  0  0
 25 26  2  0  0  0  0
 25 27  1  0  0  0  0
 27 28  1  0  0  0  0
 27 29  1  0  0  0  0
 29 30  1  0  0  0  0
 29 31  1  0  0  0  0
 29 32  1  0  0  0  0
M  END
$$$$

  -OEChem-04042216033D

 32 32  0     1  0  0  0  0  0999 V2000
   -3.7465   -3.9338    1.4771 H   0  0  0  0  0  0  0  0  0  0  0  0
   -3.6656   -3.0442    0.8463 C   0  0  0  0  0  0  0  0  0  0  0  0
   -4.4366   -2.3293    1.1440 H   0  0  0  0  0  0  0  0  0  0  0  0
   -3.8294   -3.3344   -0.1942 H   0  0  0  0  0  0  0  0  0  0  0  0
   -2.2924   -2.4180    0.9989 C   0  0  0  0  0  0  0  0  0  0  0  0
   -1.4779   -2.9105    1.7631 O   0  0  0  0  0  0  0  0  0  0  0  0
   -1.9730   -1.2865    0.2783 N   0  0  0  0  0  0  0  0  0  0  0  0
   -2.7156   -0.8503   -0.2671 H   0  0  0  0  0  0  0  0  0  0  0  0
   -0.7196   -0.5285    0.4179 C   0  0  1  0  0  0  0  0  0  0  0  0
   -0.1892   -0.8037    1.3353 H   0  0  0  0  0  0  0  0  0  0  0  0
    0.1354   -0.8864   -0.8187 C   0  0  0  0  0  0  0  0  0  0  0  0
    0.0652   -1.9702   -0.9613 H   0  0  0  0  0  0  0  0  0  0  0  0
   -0.3142   -0.4164   -1.6999 H   0  0  0  0  0  0  0  0  0  0  0  0
    1.6169   -0.5447   -0.8033 C   0  0  0  0  0  0  0  0  0  0  0  0
    2.2334    0.3321    0.1079 C   0  0  0  0  0  0  0  0  0  0  0  0
    1.6797    0.8073    0.9025 H   0  0  0  0  0  0  0  0  0  0  0  0
    3.6036    0.6064    0.0276 C   0  0  0  0  0  0  0  0  0  0  0  0
    4.0646    1.2830    0.7411 H   0  0  0  0  0  0  0  0  0  0  0  0
    4.3822    0.0113   -0.9669 C   0  0  0  0  0  0  0  0  0  0  0  0
    5.4454    0.2241   -1.0290 H   0  0  0  0  0  0  0  0  0  0  0  0
    3.7873   -0.8591   -1.8816 C   0  0  0  0  0  0  0  0  0  0  0  0
    4.3866   -1.3245   -2.6586 H   0  0  0  0  0  0  0  0  0  0  0  0
    2.4179   -1.1302   -1.7981 C   0  0  0  0  0  0  0  0  0  0  0  0
    1.9718   -1.8061   -2.5219 H   0  0  0  0  0  0  0  0  0  0  0  0
   -1.0890    0.9725    0.4661 C   0  0  0  0  0  0  0  0  0  0  0  0
   -1.9337    1.4111   -0.3082 O   0  0  0  0  0  0  0  0  0  0  0  0
   -0.5259    1.8323    1.3924 N   0  0  0  0  0  0  0  0  0  0  0  0
    0.0846    1.4281    2.0965 H   0  0  0  0  0  0  0  0  0  0  0  0
   -0.8830    3.2420    1.4974 C   0  0  0  0  0  0  0  0  0  0  0  0
   -1.9525    3.3531    1.7050 H   0  0  0  0  0  0  0  0  0  0  0  0
   -0.3221    3.7146    2.3094 H   0  0  0  0  0  0  0  0  0  0  0  0
   -0.6482    3.7661    0.5650 H   0  0  0  0  0  0  0  0  0  0  0  0
  1  2  1  0  0  0  0
  2  3  1  0  0  0  0
  2  4  1  0  0  0  0
  2  5  1  0  0  0  0
  5  6  2  0  0  0  0
  5  7  1  0  0  0  0
  7  8  1  0  0  0  0
  7  9  1  0  0  0  0
  9 10  1  0  0  0  0
  9 11  1  0  0  0  0
  9 25  1  0  0  0  0
 11 12  1  0  0  0  0
 11 13  1  0  0  0  0
 11 14  1  0  0  0  0
 14 15  1  0  0  0  0
 14 23  2  0  0  0  0
 15 16  1  0  0  0  0
 15 17  2  0  0  0  0
 17 18  1  0  0  0  0
 17 19  1  0  0  0  0
 19 20  1  0  0  0  0
 19 21  2  0  0  0  0
 21 22  1  0  0  0  0
 21 23  1  0  0  0  0
 23 24  1  0  0  0  0
 25 26  2  0  0  0  0
 25 27  1  0  0  0  0
 27 28  1  0  0  0  0
 27 29  1  0  0  0  0
 29 30  1  0  0  0  0
 29 31  1  0  0  0  0
 29 32  1  0  0  0  0
M  END
$$$$

  -OEChem-04042216033D

 32 32  0     1  0  0  0  0  0999 V2000
   -3.7852   -3.9329    1.5133 H   0  0  0  0  0  0  0  0  0  0  0  0
   -3.7061   -3.0471    0.8766 C   0  0  0  0  0  0  0  0  0  0  0  0
   -4.4638   -2.3225    1.1847 H   0  0  0  0  0  0  0  0  0  0  0  0
   -3.8919   -3.3401   -0.1596 H   0  0  0  0  0  0  0  0  0  0  0  0
   -2.3233   -2.4354    1.0013 C   0  0  0  0  0  0  0  0  0  0  0  0
   -1.5009   -2.9342    1.7530 O   0  0  0  0  0  0  0  0  0  0  0  0
   -2.0051   -1.3094    0.2712 N   0  0  0  0  0  0  0  0  0  0  0  0
   -2.7535   -0.8676   -0.2613 H   0  0  0  0  0  0  0  0  0  0  0  0
   -0.7434   -0.5622    0.3857 C   0  0  1  0  0  0  0  0  0  0  0  0
   -0.2177   -0.8499    1.3010 H   0  0  0  0  0  0  0  0  0  0  0  0
    0.1113   -0.9123   -0.8500 C   0  0  0  0  0  0  0  0  0  0  0  0
    0.0536   -1.9958   -0.9988 H   0  0  0  0  0  0  0  0  0  0  0  0
   -0.3386   -0.4405   -1.7303 H   0  0  0  0  0  0  0  0  0  0  0  0
    1.5879   -0.5555   -0.8102 C   0  0  0  0  0  0  0  0  0  0  0  0
    2.2316    0.0696    0.2750 C   0  0  0  0  0  0  0  0  0  0  0  0
    1.7057    0.3014    1.1907 H   0  0  0  0  0  0  0  0  0  0  0  0
    3.5926    0.3893    0.2141 C   0  0  0  0  0  0  0  0  0  0  0  0
    4.0765    0.8668    1.0610 H   0  0  0  0  0  0  0  0  0  0  0  0
    4.3334    0.0909   -0.9313 C   0  0  0  0  0  0  0  0  0  0  0  0
    5.3898    0.3388   -0.9781 H   0  0  0  0  0  0  0  0  0  0  0  0
    3.7111   -0.5296   -2.0161 C   0  0  0  0  0  0  0  0  0  0  0  0
    4.2825   -0.7640   -2.9096 H   0  0  0  0  0  0  0  0  0  0  0  0
    2.3505   -0.8473   -1.9525 C   0  0  0  0  0  0  0  0  0  0  0  0
    1.8801   -1.3249   -2.8070 H   0  0  0  0  0  0  0  0  0  0  0  0
   -1.0595    0.9489    0.4369 C   0  0  0  0  0  0  0  0  0  0  0  0
   -1.9169    1.4110   -0.3088 O   0  0  0  0  0  0  0  0  0  0  0  0
   -0.4457    1.7859    1.3514 N   0  0  0  0  0  0  0  0  0  0  0  0
    0.2041    1.3690    2.0106 H   0  0  0  0  0  0  0  0  0  0  0  0
   -0.7389    3.2098    1.4579 C   0  0  0  0  0  0  0  0  0  0  0  0
   -1.8003    3.3680    1.6758 H   0  0  0  0  0  0  0  0  0  0  0  0
   -0.1503    3.6579    2.2641 H   0  0  0  0  0  0  0  0  0  0  0  0
   -0.4903    3.7222    0.5226 H   0  0  0  0  0  0  0  0  0  0  0  0
  1  2  1  0  0  0  0
  2  3  1  0  0  0  0
  2  4  1  0  0  0  0
  2  5  1  0  0  0  0
  5  6  2  0  0  0  0
  5  7  1  0  0  0  0
  7  8  1  0  0  0  0
  7  9  1  0  0  0  0
  9 10  1  0  0  0  0
  9 11  1  0  0  0  0
  9 25  1  0  0  0  0
 11 12  1  0  0  0  0
 11 13  1  0  0  0  0
 11 14  1  0  0  0  0
 14 15  1  0  0  0  0
 14 23  2  0  0  0  0
 15 16  1  0  0  0  0
 15 17  2  0  0  0  0
 17 18  1  0  0  0  0
 17 19  1  0  0  0  0
 19 20  1  0  0  0  0
 19 21  2  0  0  0  0
 21 22  1  0  0  0  0
 21 23  1  0  0  0  0
 23 24  1  0  0  0  0
 25 26  2  0  0  0  0
 25 27  1  0  0  0  0
 27 28  1  0  0  0  0
 27 29  1  0  0  0  0
 29 30  1  0  0  0  0
 29 31  1  0  0  0  0
 29 32  1  0  0  0  0
M  END
$$$$

  -OEChem-04042216033D

 32 32  0     1  0  0  0  0  0999 V2000
   -3.8065   -3.9389    1.5550 H   0  0  0  0  0  0  0  0  0  0  0  0
   -3.7359   -3.0555    0.9142 C   0  0  0  0  0  0  0  0  0  0  0  0
   -4.4775   -2.3227    1.2414 H   0  0  0  0  0  0  0  0  0  0  0  0
   -3.9533   -3.3494   -0.1155 H   0  0  0  0  0  0  0  0  0  0  0  0
   -2.3439   -2.4579    0.9985 C   0  0  0  0  0  0  0  0  0  0  0  0
   -1.5027   -2.9715    1.7191 O   0  0  0  0  0  0  0  0  0  0  0  0
   -2.0380   -1.3314    0.2635 N   0  0  0  0  0  0  0  0  0  0  0  0
   -2.8006   -0.8791   -0.2390 H   0  0  0  0  0  0  0  0  0  0  0  0
   -0.7710   -0.5890    0.3499 C   0  0  1  0  0  0  0  0  0  0  0  0
   -0.2527   -0.8851    1.2648 H   0  0  0  0  0  0  0  0  0  0  0  0
    0.0850   -0.9342   -0.8837 C   0  0  0  0  0  0  0  0  0  0  0  0
    0.0395   -2.0176   -1.0355 H   0  0  0  0  0  0  0  0  0  0  0  0
   -0.3687   -0.4648   -1.7635 H   0  0  0  0  0  0  0  0  0  0  0  0
    1.5571   -0.5572   -0.8232 C   0  0  0  0  0  0  0  0  0  0  0  0
    2.2417   -0.2085    0.3587 C   0  0  0  0  0  0  0  0  0  0  0  0
    1.7576   -0.2293    1.3268 H   0  0  0  0  0  0  0  0  0  0  0  0
    3.5934    0.1520    0.3237 C   0  0  0  0  0  0  0  0  0  0  0  0
    4.1107    0.4115    1.2426 H   0  0  0  0  0  0  0  0  0  0  0  0
    4.2838    0.1723   -0.8899 C   0  0  0  0  0  0  0  0  0  0  0  0
    5.3333    0.4512   -0.9166 H   0  0  0  0  0  0  0  0  0  0  0  0
    3.6212   -0.1731   -2.0692 C   0  0  0  0  0  0  0  0  0  0  0  0
    4.1539   -0.1619   -3.0155 H   0  0  0  0  0  0  0  0  0  0  0  0
    2.2706   -0.5342   -2.0323 C   0  0  0  0  0  0  0  0  0  0  0  0
    1.7706   -0.7971   -2.9599 H   0  0  0  0  0  0  0  0  0  0  0  0
   -1.0422    0.9279    0.4129 C   0  0  0  0  0  0  0  0  0  0  0  0
   -1.9262    1.4116   -0.2863 O   0  0  0  0  0  0  0  0  0  0  0  0
   -0.3773    1.7375    1.3156 N   0  0  0  0  0  0  0  0  0  0  0  0
    0.3614    1.3167    1.8701 H   0  0  0  0  0  0  0  0  0  0  0  0
   -0.6051    3.1734    1.4200 C   0  0  0  0  0  0  0  0  0  0  0  0
   -1.6556    3.3795    1.6506 H   0  0  0  0  0  0  0  0  0  0  0  0
    0.0122    3.5972    2.2178 H   0  0  0  0  0  0  0  0  0  0  0  0
   -0.3458    3.6708    0.4795 H   0  0  0  0  0  0  0  0  0  0  0  0
  1  2  1  0  0  0  0
  2  3  1  0  0  0  0
  2  4  1  0  0  0  0
  2  5  1  0  0  0  0
  5  6  2  0  0  0  0
  5  7  1  0  0  0  0
  7  8  1  0  0  0  0
  7  9  1  0  0  0  0
  9 10  1  0  0  0  0
  9 11  1  0  0  0  0
  9 25  1  0  0  0  0
 11 12  1  0  0  0  0
 11 13  1  0  0  0  0
 11 14  1  0  0  0  0
 14 15  1  0  0  0  0
 14 23  2  0  0  0  0
 15 16  1  0  0  0  0
 15 17  2  0  0  0  0
 17 18  1  0  0  0  0
 17 19  1  0  0  0  0
 19 20  1  0  0  0  0
 19 21  2  0  0  0  0
 21 22  1  0  0  0  0
 21 23  1  0  0  0  0
 23 24  1  0  0  0  0
 25 26  2  0  0  0  0
 25 27  1  0  0  0  0
 27 28  1  0  0  0  0
 27 29  1  0  0  0  0
 29 30  1  0  0  0  0
 29 31  1  0  0  0  0
 29 32  1  0  0  0  0
M  END
$$$$

  -OEChem-04042216033D

 32 32  0     1  0  0  0  0  0999 V2000
   -3.8078   -3.9426    1.5944 H   0  0  0  0  0  0  0  0  0  0  0  0
   -3.7430   -3.0662    0.9435 C   0  0  0  0  0  0  0  0  0  0  0  0
   -4.4803   -2.3292    1.2708 H   0  0  0  0  0  0  0  0  0  0  0  0
   -3.9715   -3.3710   -0.0807 H   0  0  0  0  0  0  0  0  0  0  0  0
   -2.3499   -2.4685    1.0067 C   0  0  0  0  0  0  0  0  0  0  0  0
   -1.4969   -2.9838    1.7123 O   0  0  0  0  0  0  0  0  0  0  0  0
   -2.0552   -1.3426    0.2657 N   0  0  0  0  0  0  0  0  0  0  0  0
   -2.8251   -0.8906   -0.2255 H   0  0  0  0  0  0  0  0  0  0  0  0
   -0.7842   -0.6051    0.3248 C   0  0  1  0  0  0  0  0  0  0  0  0
   -0.2601   -0.8997    1.2356 H   0  0  0  0  0  0  0  0  0  0  0  0
    0.0565   -0.9546   -0.9167 C   0  0  0  0  0  0  0  0  0  0  0  0
    0.0172   -2.0386   -1.0652 H   0  0  0  0  0  0  0  0  0  0  0  0
   -0.4074   -0.4907   -1.7941 H   0  0  0  0  0  0  0  0  0  0  0  0
    1.5241   -0.5655   -0.8470 C   0  0  0  0  0  0  0  0  0  0  0  0
    2.2624   -0.5109    0.3523 C   0  0  0  0  0  0  0  0  0  0  0  0
    1.8292   -0.8036    1.3017 H   0  0  0  0  0  0  0  0  0  0  0  0
    3.6033   -0.1109    0.3489 C   0  0  0  0  0  0  0  0  0  0  0  0
    4.1640   -0.0839    1.2787 H   0  0  0  0  0  0  0  0  0  0  0  0
    4.2277    0.2436   -0.8491 C   0  0  0  0  0  0  0  0  0  0  0  0
    5.2691    0.5527   -0.8516 H   0  0  0  0  0  0  0  0  0  0  0  0
    3.5101    0.1920   -2.0459 C   0  0  0  0  0  0  0  0  0  0  0  0
    3.9914    0.4639   -2.9809 H   0  0  0  0  0  0  0  0  0  0  0  0
    2.1705   -0.2095   -2.0417 C   0  0  0  0  0  0  0  0  0  0  0  0
    1.6280   -0.2393   -2.9823 H   0  0  0  0  0  0  0  0  0  0  0  0
   -1.0241    0.9151    0.3945 C   0  0  0  0  0  0  0  0  0  0  0  0
   -1.9162    1.4185   -0.2799 O   0  0  0  0  0  0  0  0  0  0  0  0
   -0.3178    1.7017    1.2856 N   0  0  0  0  0  0  0  0  0  0  0  0
    0.4552    1.2660    1.7798 H   0  0  0  0  0  0  0  0  0  0  0  0
   -0.4881    3.1457    1.3842 C   0  0  0  0  0  0  0  0  0  0  0  0
   -1.5306    3.3956    1.6076 H   0  0  0  0  0  0  0  0  0  0  0  0
    0.1403    3.5464    2.1855 H   0  0  0  0  0  0  0  0  0  0  0  0
   -0.2029    3.6293    0.4441 H   0  0  0  0  0  0  0  0  0  0  0  0
  1  2  1  0  0  0  0
  2  3  1  0  0  0  0
  2  4  1  0  0  0  0
  2  5  1  0  0  0  0
  5  6  2  0  0  0  0
  5  7  1  0  0  0  0
  7  8  1  0  0  0  0
  7  9  1  0  0  0  0
  9 10  1  0  0  0  0
  9 11  1  0  0  0  0
  9 25  1  0  0  0  0
 11 12  1  0  0  0  0
 11 13  1  0  0  0  0
 11 14  1  0  0  0  0
 14 15  1  0  0  0  0
 14 23  2  0  0  0  0
 15 16  1  0  0  0  0
 15 17  2  0  0  0  0
 17 18  1  0  0  0  0
 17 19  1  0  0  0  0
 19 20  1  0  0  0  0
 19 21  2  0  0  0  0
 21 22  1  0  0  0  0
 21 23  1  0  0  0  0
 23 24  1  0  0  0  0
 25 26  2  0  0  0  0
 25 27  1  0  0  0  0
 27 28  1  0  0  0  0
 27 29  1  0  0  0  0
 29 30  1  0  0  0  0
 29 31  1  0  0  0  0
 29 32  1  0  0  0  0
M  END
$$$$

  -OEChem-04042216033D

 32 32  0     1  0  0  0  0  0999 V2000
   -3.7780   -3.9223    1.6747 H   0  0  0  0  0  0  0  0  0  0  0  0
   -3.7293   -3.0531    1.0128 C   0  0  0  0  0  0  0  0  0  0  0  0
   -4.4372   -2.3003    1.3679 H   0  0  0  0  0  0  0  0  0  0  0  0
   -4.0120   -3.3624    0.0037 H   0  0  0  0  0  0  0  0  0  0  0  0
   -2.3246   -2.4800    1.0035 C   0  0  0  0  0  0  0  0  0  0  0  0
   -1.4420   -3.0155    1.6561 O   0  0  0  0  0  0  0  0  0  0  0  0
   -2.0519   -1.3535    0.2556 N   0  0  0  0  0  0  0  0  0  0  0  0
   -2.8402   -0.8849   -0.1888 H   0  0  0  0  0  0  0  0  0  0  0  0
   -0.7753   -0.6248    0.2766 C   0  0  1  0  0  0  0  0  0  0  0  0
   -0.2240   -0.9183    1.1725 H   0  0  0  0  0  0  0  0  0  0  0  0
    0.0326   -0.9717   -0.9859 C   0  0  0  0  0  0  0  0  0  0  0  0
   -0.0037   -2.0548   -1.1400 H   0  0  0  0  0  0  0  0  0  0  0  0
   -0.4424   -0.5045   -1.8552 H   0  0  0  0  0  0  0  0  0  0  0  0
    1.4924   -0.5694   -0.9015 C   0  0  0  0  0  0  0  0  0  0  0  0
    2.2748   -0.8222    0.2405 C   0  0  0  0  0  0  0  0  0  0  0  0
    1.8715   -1.3804    1.0796 H   0  0  0  0  0  0  0  0  0  0  0  0
    3.6053   -0.3950    0.3036 C   0  0  0  0  0  0  0  0  0  0  0  0
    4.2021   -0.6074    1.1859 H   0  0  0  0  0  0  0  0  0  0  0  0
    4.1712    0.2945   -0.7716 C   0  0  0  0  0  0  0  0  0  0  0  0
    5.2048    0.6244   -0.7237 H   0  0  0  0  0  0  0  0  0  0  0  0
    3.4058    0.5530   -1.9111 C   0  0  0  0  0  0  0  0  0  0  0  0
    3.8427    1.0888   -2.7487 H   0  0  0  0  0  0  0  0  0  0  0  0
    2.0758    0.1242   -1.9735 C   0  0  0  0  0  0  0  0  0  0  0  0
    1.4932    0.3410   -2.8642 H   0  0  0  0  0  0  0  0  0  0  0  0
   -1.0012    0.8966    0.3596 C   0  0  0  0  0  0  0  0  0  0  0  0
   -1.9142    1.4089   -0.2795 O   0  0  0  0  0  0  0  0  0  0  0  0
   -0.2597    1.6728    1.2307 N   0  0  0  0  0  0  0  0  0  0  0  0
    0.5366    1.2314    1.6823 H   0  0  0  0  0  0  0  0  0  0  0  0
   -0.4188    3.1171    1.3426 C   0  0  0  0  0  0  0  0  0  0  0  0
   -1.4481    3.3692    1.6189 H   0  0  0  0  0  0  0  0  0  0  0  0
    0.2502    3.5129    2.1126 H   0  0  0  0  0  0  0  0  0  0  0  0
   -0.1796    3.6033    0.3911 H   0  0  0  0  0  0  0  0  0  0  0  0
  1  2  1  0  0  0  0
  2  3  1  0  0  0  0
  2  4  1  0  0  0  0
  2  5  1  0  0  0  0
  5  6  2  0  0  0  0
  5  7  1  0  0  0  0
  7  8  1  0  0  0  0
  7  9  1  0  0  0  0
  9 10  1  0  0  0  0
  9 11  1  0  0  0  0
  9 25  1  0  0  0  0
 11 12  1  0  0  0  0
 11 13  1  0  0  0  0
 11 14  1  0  0  0  0
 14 15  1  0  0  0  0
 14 23  2  0  0  0  0
 15 16  1  0  0  0  0
 15 17  2  0  0  0  0
 17 18  1  0  0  0  0
 17 19  1  0  0  0  0
 19 20  1  0  0  0  0
 19 21  2  0  0  0  0
 21 22  1  0  0  0  0
 21 23  1  0  0  0  0
 23 24  1  0  0  0  0
 25 26  2  0  0  0  0
 25 27  1  0  0  0  0
 27 28  1  0  0  0  0
 27 29  1  0  0  0  0
 29 30  1  0  0  0  0
 29 31  1  0  0  0  0
 29 32  1  0  0  0  0
M  END
$$$$

  -OEChem-04042216033D

 32 32  0     1  0  0  0  0  0999 V2000
   -3.7255   -3.9295    1.7179 H   0  0  0  0  0  0  0  0  0  0  0  0
   -3.6981   -3.0607    1.0543 C   0  0  0  0  0  0  0  0  0  0  0  0
   -4.3929   -2.3068    1.4325 H   0  0  0  0  0  0  0  0  0  0  0  0
   -4.0152   -3.3697    0.0553 H   0  0  0  0  0  0  0  0  0  0  0  0
   -2.2936   -2.4898    0.9982 C   0  0  0  0  0  0  0  0  0  0  0  0
   -1.3892   -3.0308    1.6154 O   0  0  0  0  0  0  0  0  0  0  0  0
   -2.0454   -1.3584    0.2491 N   0  0  0  0  0  0  0  0  0  0  0  0
   -2.8479   -0.8860   -0.1644 H   0  0  0  0  0  0  0  0  0  0  0  0
   -0.7692   -0.6291    0.2361 C   0  0  1  0  0  0  0  0  0  0  0  0
   -0.1856   -0.9257    1.1122 H   0  0  0  0  0  0  0  0  0  0  0  0
    0.0090   -0.9729   -1.0430 C   0  0  0  0  0  0  0  0  0  0  0  0
   -0.0195   -2.0560   -1.2008 H   0  0  0  0  0  0  0  0  0  0  0  0
   -0.4751   -0.5047   -1.9065 H   0  0  0  0  0  0  0  0  0  0  0  0
    1.4572   -0.5494   -0.9431 C   0  0  0  0  0  0  0  0  0  0  0  0
    2.2924   -1.0713    0.0585 C   0  0  0  0  0  0  0  0  0  0  0  0
    1.9165   -1.8256    0.7451 H   0  0  0  0  0  0  0  0  0  0  0  0
    3.6193   -0.6435    0.1730 C   0  0  0  0  0  0  0  0  0  0  0  0
    4.2591   -1.0603    0.9454 H   0  0  0  0  0  0  0  0  0  0  0  0
    4.1234    0.3155   -0.7101 C   0  0  0  0  0  0  0  0  0  0  0  0
    5.1543    0.6468   -0.6233 H   0  0  0  0  0  0  0  0  0  0  0  0
    3.2992    0.8450   -1.7074 C   0  0  0  0  0  0  0  0  0  0  0  0
    3.6886    1.5914   -2.3937 H   0  0  0  0  0  0  0  0  0  0  0  0
    1.9724    0.4158   -1.8213 C   0  0  0  0  0  0  0  0  0  0  0  0
    1.3401    0.8426   -2.5946 H   0  0  0  0  0  0  0  0  0  0  0  0
   -0.9897    0.8917    0.3353 C   0  0  0  0  0  0  0  0  0  0  0  0
   -1.9189    1.4112   -0.2738 O   0  0  0  0  0  0  0  0  0  0  0  0
   -0.2190    1.6584    1.1890 N   0  0  0  0  0  0  0  0  0  0  0  0
    0.5924    1.2108    1.6073 H   0  0  0  0  0  0  0  0  0  0  0  0
   -0.3677    3.1023    1.3168 C   0  0  0  0  0  0  0  0  0  0  0  0
   -1.3871    3.3572    1.6252 H   0  0  0  0  0  0  0  0  0  0  0  0
    0.3261    3.4882    2.0699 H   0  0  0  0  0  0  0  0  0  0  0  0
   -0.1542    3.5947    0.3624 H   0  0  0  0  0  0  0  0  0  0  0  0
  1  2  1  0  0  0  0
  2  3  1  0  0  0  0
  2  4  1  0  0  0  0
  2  5  1  0  0  0  0
  5  6  2  0  0  0  0
  5  7  1  0  0  0  0
  7  8  1  0  0  0  0
  7  9  1  0  0  0  0
  9 10  1  0  0  0  0
  9 11  1  0  0  0  0
  9 25  1  0  0  0  0
 11 12  1  0  0  0  0
 11 13  1  0  0  0  0
 11 14  1  0  0  0  0
 14 15  1  0  0  0  0
 14 23  2  0  0  0  0
 15 16  1  0  0  0  0
 15 17  2  0  0  0  0
 17 18  1  0  0  0  0
 17 19  1  0  0  0  0
 19 20  1  0  0  0  0
 19 21  2  0  0  0  0
 21 22  1  0  0  0  0
 21 23  1  0  0  0  0
 23 24  1  0  0  0  0
 25 26  2  0  0  0  0
 25 27  1  0  0  0  0
 27 28  1  0  0  0  0
 27 29  1  0  0  0  0
 29 30  1  0  0  0  0
 29 31  1  0  0  0  0
 29 32  1  0  0  0  0
M  END
$$$$

  -OEChem-04042216033D

 32 32  0     1  0  0  0  0  0999 V2000
   -3.6963   -3.9335    1.7299 H   0  0  0  0  0  0  0  0  0  0  0  0
   -3.6775   -3.0653    1.0654 C   0  0  0  0  0  0  0  0  0  0  0  0
   -4.3650   -2.3100    1.4539 H   0  0  0  0  0  0  0  0  0  0  0  0
   -4.0105   -3.3745    0.0717 H   0  0  0  0  0  0  0  0  0  0  0  0
   -2.2734   -2.4961    0.9866 C   0  0  0  0  0  0  0  0  0  0  0  0
   -1.3575   -3.0442    1.5801 O   0  0  0  0  0  0  0  0  0  0  0  0
   -2.0390   -1.3585    0.2429 N   0  0  0  0  0  0  0  0  0  0  0  0
   -2.8486   -0.8845   -0.1548 H   0  0  0  0  0  0  0  0  0  0  0  0
   -0.7652   -0.6255    0.2171 C   0  0  1  0  0  0  0  0  0  0  0  0
   -0.1620   -0.9274    1.0794 H   0  0  0  0  0  0  0  0  0  0  0  0
   -0.0010   -0.9661   -1.0694 C   0  0  0  0  0  0  0  0  0  0  0  0
   -0.0283   -2.0481   -1.2351 H   0  0  0  0  0  0  0  0  0  0  0  0
   -0.4847   -0.4919   -1.9301 H   0  0  0  0  0  0  0  0  0  0  0  0
    1.4390   -0.5286   -0.9565 C   0  0  0  0  0  0  0  0  0  0  0  0
    2.3420   -1.2602   -0.1708 C   0  0  0  0  0  0  0  0  0  0  0  0
    2.0117   -2.1618    0.3388 H   0  0  0  0  0  0  0  0  0  0  0  0
    3.6695   -0.8392   -0.0383 C   0  0  0  0  0  0  0  0  0  0  0  0
    4.3625   -1.4142    0.5691 H   0  0  0  0  0  0  0  0  0  0  0  0
    4.1037    0.3196   -0.6894 C   0  0  0  0  0  0  0  0  0  0  0  0
    5.1349    0.6459   -0.5888 H   0  0  0  0  0  0  0  0  0  0  0  0
    3.2095    1.0561   -1.4724 C   0  0  0  0  0  0  0  0  0  0  0  0
    3.5446    1.9561   -1.9797 H   0  0  0  0  0  0  0  0  0  0  0  0
    1.8825    0.6339   -1.6038 C   0  0  0  0  0  0  0  0  0  0  0  0
    1.1939    1.2174   -2.2087 H   0  0  0  0  0  0  0  0  0  0  0  0
   -0.9899    0.8935    0.3313 C   0  0  0  0  0  0  0  0  0  0  0  0
   -1.9213    1.4162   -0.2714 O   0  0  0  0  0  0  0  0  0  0  0  0
   -0.2105    1.6573    1.1797 N   0  0  0  0  0  0  0  0  0  0  0  0
    0.6012    1.2065    1.5943 H   0  0  0  0  0  0  0  0  0  0  0  0
   -0.3567    3.1009    1.3127 C   0  0  0  0  0  0  0  0  0  0  0  0
   -1.3725    3.3556    1.6330 H   0  0  0  0  0  0  0  0  0  0  0  0
    0.3455    3.4846    2.0589 H   0  0  0  0  0  0  0  0  0  0  0  0
   -0.1532    3.5954    0.3571 H   0  0  0  0  0  0  0  0  0  0  0  0
  1  2  1  0  0  0  0
  2  3  1  0  0  0  0
  2  4  1  0  0  0  0
  2  5  1  0  0  0  0
  5  6  2  0  0  0  0
  5  7  1  0  0  0  0
  7  8  1  0  0  0  0
  7  9  1  0  0  0  0
  9 10  1  0  0  0  0
  9 11  1  0  0  0  0
  9 25  1  0  0  0  0
 11 12  1  0  0  0  0
 11 13  1  0  0  0  0
 11 14  1  0  0  0  0
 14 15  1  0  0  0  0
 14 23  2  0  0  0  0
 15 16  1  0  0  0  0
 15 17  2  0  0  0  0
 17 18  1  0  0  0  0
 17 19  1  0  0  0  0
 19 20  1  0  0  0  0
 19 21  2  0  0  0  0
 21 22  1  0  0  0  0
 21 23  1  0  0  0  0
 23 24  1  0  0  0  0
 25 26  2  0  0  0  0
 25 27  1  0  0  0  0
 27 28  1  0  0  0  0
 27 29  1  0  0  0  0
 29 30  1  0  0  0  0
 29 31  1  0  0  0  0
 29 32  1  0  0  0  0
M  END
$$$$

  -OEChem-04042216033D

 32 32  0     1  0  0  0  0  0999 V2000
   -3.6879   -3.9428    1.7022 H   0  0  0  0  0  0  0  0  0  0  0  0
   -3.6676   -3.0734    1.0391 C   0  0  0  0  0  0  0  0  0  0  0  0
   -4.3704   -2.3267    1.4166 H   0  0  0  0  0  0  0  0  0  0  0  0
   -3.9798   -3.3852    0.0393 H   0  0  0  0  0  0  0  0  0  0  0  0
   -2.2686   -2.4884    0.9852 C   0  0  0  0  0  0  0  0  0  0  0  0
   -1.3559   -3.0314    1.5880 O   0  0  0  0  0  0  0  0  0  0  0  0
   -2.0344   -1.3464    0.2481 N   0  0  0  0  0  0  0  0  0  0  0  0
   -2.8425   -0.8797   -0.1610 H   0  0  0  0  0  0  0  0  0  0  0  0
   -0.7643   -0.6064    0.2317 C   0  0  1  0  0  0  0  0  0  0  0  0
   -0.1584   -0.9079    1.0929 H   0  0  0  0  0  0  0  0  0  0  0  0
    0.0020   -0.9522   -1.0527 C   0  0  0  0  0  0  0  0  0  0  0  0
   -0.0320   -2.0343   -1.2178 H   0  0  0  0  0  0  0  0  0  0  0  0
   -0.4780   -0.4770   -1.9150 H   0  0  0  0  0  0  0  0  0  0  0  0
    1.4424   -0.5142   -0.9450 C   0  0  0  0  0  0  0  0  0  0  0  0
    2.4098   -1.3879   -0.4281 C   0  0  0  0  0  0  0  0  0  0  0  0
    2.1234   -2.3843   -0.1021 H   0  0  0  0  0  0  0  0  0  0  0  0
    3.7449   -0.9842   -0.3210 C   0  0  0  0  0  0  0  0  0  0  0  0
    4.4869   -1.6671    0.0824 H   0  0  0  0  0  0  0  0  0  0  0  0
    4.1238    0.2971   -0.7336 C   0  0  0  0  0  0  0  0  0  0  0  0
    5.1607    0.6102   -0.6520 H   0  0  0  0  0  0  0  0  0  0  0  0
    3.1668    1.1727   -1.2554 C   0  0  0  0  0  0  0  0  0  0  0  0
    3.4594    2.1667   -1.5807 H   0  0  0  0  0  0  0  0  0  0  0  0
    1.8325    0.7673   -1.3629 C   0  0  0  0  0  0  0  0  0  0  0  0
    1.0963    1.4543   -1.7715 H   0  0  0  0  0  0  0  0  0  0  0  0
   -1.0038    0.9101    0.3511 C   0  0  0  0  0  0  0  0  0  0  0  0
   -1.9222    1.4316   -0.2721 O   0  0  0  0  0  0  0  0  0  0  0  0
   -0.2371    1.6785    1.2072 N   0  0  0  0  0  0  0  0  0  0  0  0
    0.5587    1.2267    1.6506 H   0  0  0  0  0  0  0  0  0  0  0  0
   -0.3978    3.1196    1.3495 C   0  0  0  0  0  0  0  0  0  0  0  0
   -1.4225    3.3637    1.6492 H   0  0  0  0  0  0  0  0  0  0  0  0
    0.2846    3.5013    2.1149 H   0  0  0  0  0  0  0  0  0  0  0  0
   -0.1769    3.6244    0.4032 H   0  0  0  0  0  0  0  0  0  0  0  0
  1  2  1  0  0  0  0
  2  3  1  0  0  0  0
  2  4  1  0  0  0  0
  2  5  1  0  0  0  0
  5  6  2  0  0  0  0
  5  7  1  0  0  0  0
  7  8  1  0  0  0  0
  7  9  1  0  0  0  0
  9 10  1  0  0  0  0
  9 11  1  0  0  0  0
  9 25  1  0  0  0  0
 11 12  1  0  0  0  0
 11 13  1  0  0  0  0
 11 14  1  0  0  0  0
 14 15  1  0  0  0  0
 14 23  2  0  0  0  0
 15 16  1  0  0  0  0
 15 17  2  0  0  0  0
 17 18  1  0  0  0  0
 17 19  1  0  0  0  0
 19 20  1  0  0  0  0
 19 21  2  0  0  0  0
 21 22  1  0  0  0  0
 21 23  1  0  0  0  0
 23 24  1  0  0  0  0
 25 26  2  0  0  0  0
 25 27  1  0  0  0  0
 27 28  1  0  0  0  0
 27 29  1  0  0  0  0
 29 30  1  0  0  0  0
 29 31  1  0  0  0  0
 29 32  1  0  0  0  0
M  END
$$$$

  -OEChem-04042216033D

 32 32  0     1  0  0  0  0  0999 V2000
   -3.6872   -3.9559    1.6533 H   0  0  0  0  0  0  0  0  0  0  0  0
   -3.6634   -3.0794    0.9997 C   0  0  0  0  0  0  0  0  0  0  0  0
   -4.3821   -2.3443    1.3702 H   0  0  0  0  0  0  0  0  0  0  0  0
   -3.9510   -3.3842   -0.0096 H   0  0  0  0  0  0  0  0  0  0  0  0
   -2.2706   -2.4784    0.9809 C   0  0  0  0  0  0  0  0  0  0  0  0
   -1.3658   -3.0147    1.6010 O   0  0  0  0  0  0  0  0  0  0  0  0
   -2.0327   -1.3299    0.2553 N   0  0  0  0  0  0  0  0  0  0  0  0
   -2.8363   -0.8695   -0.1697 H   0  0  0  0  0  0  0  0  0  0  0  0
   -0.7672   -0.5816    0.2618 C   0  0  1  0  0  0  0  0  0  0  0  0
   -0.1702   -0.8810    1.1298 H   0  0  0  0  0  0  0  0  0  0  0  0
    0.0170   -0.9359   -1.0125 C   0  0  0  0  0  0  0  0  0  0  0  0
   -0.0251   -2.0187   -1.1703 H   0  0  0  0  0  0  0  0  0  0  0  0
   -0.4549   -0.4639   -1.8807 H   0  0  0  0  0  0  0  0  0  0  0  0
    1.4627   -0.5048   -0.9183 C   0  0  0  0  0  0  0  0  0  0  0  0
    2.4682   -1.4580   -0.6978 C   0  0  0  0  0  0  0  0  0  0  0  0
    2.2073   -2.5042   -0.5640 H   0  0  0  0  0  0  0  0  0  0  0  0
    3.8118   -1.0737   -0.6337 C   0  0  0  0  0  0  0  0  0  0  0  0
    4.5802   -1.8195   -0.4519 H   0  0  0  0  0  0  0  0  0  0  0  0
    4.1650    0.2677   -0.8072 C   0  0  0  0  0  0  0  0  0  0  0  0
    5.2083    0.5659   -0.7597 H   0  0  0  0  0  0  0  0  0  0  0  0
    3.1740    1.2218   -1.0544 C   0  0  0  0  0  0  0  0  0  0  0  0
    3.4462    2.2623   -1.2053 H   0  0  0  0  0  0  0  0  0  0  0  0
    1.8314    0.8354   -1.1184 C   0  0  0  0  0  0  0  0  0  0  0  0
    1.0753    1.5854   -1.3332 H   0  0  0  0  0  0  0  0  0  0  0  0
   -1.0313    0.9301    0.3884 C   0  0  0  0  0  0  0  0  0  0  0  0
   -1.9391    1.4463   -0.2539 O   0  0  0  0  0  0  0  0  0  0  0  0
   -0.2888    1.7032    1.2617 N   0  0  0  0  0  0  0  0  0  0  0  0
    0.4909    1.2531    1.7344 H   0  0  0  0  0  0  0  0  0  0  0  0
   -0.4702    3.1414    1.4110 C   0  0  0  0  0  0  0  0  0  0  0  0
   -1.5048    3.3705    1.6876 H   0  0  0  0  0  0  0  0  0  0  0  0
    0.1887    3.5267    2.1950 H   0  0  0  0  0  0  0  0  0  0  0  0
   -0.2333    3.6560    0.4740 H   0  0  0  0  0  0  0  0  0  0  0  0
  1  2  1  0  0  0  0
  2  3  1  0  0  0  0
  2  4  1  0  0  0  0
  2  5  1  0  0  0  0
  5  6  2  0  0  0  0
  5  7  1  0  0  0  0
  7  8  1  0  0  0  0
  7  9  1  0  0  0  0
  9 10  1  0  0  0  0
  9 11  1  0  0  0  0
  9 25  1  0  0  0  0
 11 12  1  0  0  0  0
 11 13  1  0  0  0  0
 11 14  1  0  0  0  0
 14 15  1  0  0  0  0
 14 23  2  0  0  0  0
 15 16  1  0  0  0  0
 15 17  2  0  0  0  0
 17 18  1  0  0  0  0
 17 19  1  0  0  0  0
 19 20  1  0  0  0  0
 19 21  2  0  0  0  0
 21 22  1  0  0  0  0
 21 23  1  0  0  0  0
 23 24  1  0  0  0  0
 25 26  2  0  0  0  0
 25 27  1  0  0  0  0
 27 28  1  0  0  0  0
 27 29  1  0  0  0  0
 29 30  1  0  0  0  0
 29 31  1  0  0  0  0
 29 32  1  0  0  0  0
M  END
$$$$

  -OEChem-04042216033D

 32 32  0     1  0  0  0  0  0999 V2000
   -3.6872   -3.9684    1.5835 H   0  0  0  0  0  0  0  0  0  0  0  0
   -3.6568   -3.0790    0.9480 C   0  0  0  0  0  0  0  0  0  0  0  0
   -4.3940   -2.3599    1.3134 H   0  0  0  0  0  0  0  0  0  0  0  0
   -3.9144   -3.3674   -0.0741 H   0  0  0  0  0  0  0  0  0  0  0  0
   -2.2714   -2.4612    0.9779 C   0  0  0  0  0  0  0  0  0  0  0  0
   -1.3830   -2.9857    1.6307 O   0  0  0  0  0  0  0  0  0  0  0  0
   -2.0217   -1.3086    0.2628 N   0  0  0  0  0  0  0  0  0  0  0  0
   -2.8145   -0.8577   -0.1918 H   0  0  0  0  0  0  0  0  0  0  0  0
   -0.7625   -0.5500    0.3061 C   0  0  1  0  0  0  0  0  0  0  0  0
   -0.1831   -0.8424    1.1881 H   0  0  0  0  0  0  0  0  0  0  0  0
    0.0487   -0.9182   -0.9519 C   0  0  0  0  0  0  0  0  0  0  0  0
   -0.0055   -2.0024   -1.0963 H   0  0  0  0  0  0  0  0  0  0  0  0
   -0.4137   -0.4538   -1.8294 H   0  0  0  0  0  0  0  0  0  0  0  0
    1.5050   -0.5044   -0.8809 C   0  0  0  0  0  0  0  0  0  0  0  0
    2.5081   -1.4832   -0.9689 C   0  0  0  0  0  0  0  0  0  0  0  0
    2.2408   -2.5345   -1.0219 H   0  0  0  0  0  0  0  0  0  0  0  0
    3.8608   -1.1271   -0.9688 C   0  0  0  0  0  0  0  0  0  0  0  0
    4.6237   -1.8986   -1.0167 H   0  0  0  0  0  0  0  0  0  0  0  0
    4.2296    0.2193   -0.9141 C   0  0  0  0  0  0  0  0  0  0  0  0
    5.2796    0.4972   -0.9188 H   0  0  0  0  0  0  0  0  0  0  0  0
    3.2427    1.2071   -0.8756 C   0  0  0  0  0  0  0  0  0  0  0  0
    3.5247    2.2558   -0.8623 H   0  0  0  0  0  0  0  0  0  0  0  0
    1.8909    0.8475   -0.8752 C   0  0  0  0  0  0  0  0  0  0  0  0
    1.1471    1.6372   -0.8980 H   0  0  0  0  0  0  0  0  0  0  0  0
   -1.0635    0.9550    0.4299 C   0  0  0  0  0  0  0  0  0  0  0  0
   -1.9595    1.4565   -0.2400 O   0  0  0  0  0  0  0  0  0  0  0  0
   -0.3635    1.7403    1.3276 N   0  0  0  0  0  0  0  0  0  0  0  0
    0.3848    1.2957    1.8536 H   0  0  0  0  0  0  0  0  0  0  0  0
   -0.5995    3.1678    1.5010 C   0  0  0  0  0  0  0  0  0  0  0  0
   -1.6474    3.3550    1.7582 H   0  0  0  0  0  0  0  0  0  0  0  0
    0.0280    3.5594    2.3073 H   0  0  0  0  0  0  0  0  0  0  0  0
   -0.3601    3.7095    0.5802 H   0  0  0  0  0  0  0  0  0  0  0  0
  1  2  1  0  0  0  0
  2  3  1  0  0  0  0
  2  4  1  0  0  0  0
  2  5  1  0  0  0  0
  5  6  2  0  0  0  0
  5  7  1  0  0  0  0
  7  8  1  0  0  0  0
  7  9  1  0  0  0  0
  9 10  1  0  0  0  0
  9 11  1  0  0  0  0
  9 25  1  0  0  0  0
 11 12  1  0  0  0  0
 11 13  1  0  0  0  0
 11 14  1  0  0  0  0
 14 15  1  0  0  0  0
 14 23  2  0  0  0  0
 15 16  1  0  0  0  0
 15 17  2  0  0  0  0
 17 18  1  0  0  0  0
 17 19  1  0  0  0  0
 19 20  1  0  0  0  0
 19 21  2  0  0  0  0
 21 22  1  0  0  0  0
 21 23  1  0  0  0  0
 23 24  1  0  0  0  0
 25 26  2  0  0  0  0
 25 27  1  0  0  0  0
 27 28  1  0  0  0  0
 27 29  1  0  0  0  0
 29 30  1  0  0  0  0
 29 31  1  0  0  0  0
 29 32  1  0  0  0  0
M  END
$$$$

  -OEChem-04042216033D

 32 32  0     1  0  0  0  0  0999 V2000
   -3.6743   -3.9746    1.5167 H   0  0  0  0  0  0  0  0  0  0  0  0
   -3.6369   -3.0749    0.8962 C   0  0  0  0  0  0  0  0  0  0  0  0
   -4.3922   -2.3701    1.2523 H   0  0  0  0  0  0  0  0  0  0  0  0
   -3.8629   -3.3497   -0.1369 H   0  0  0  0  0  0  0  0  0  0  0  0
   -2.2601   -2.4426    0.9736 C   0  0  0  0  0  0  0  0  0  0  0  0
   -1.3903   -2.9555    1.6596 O   0  0  0  0  0  0  0  0  0  0  0  0
   -1.9974   -1.2873    0.2673 N   0  0  0  0  0  0  0  0  0  0  0  0
   -2.7776   -0.8443   -0.2163 H   0  0  0  0  0  0  0  0  0  0  0  0
   -0.7471   -0.5166    0.3549 C   0  0  1  0  0  0  0  0  0  0  0  0
   -0.1867   -0.7994    1.2523 H   0  0  0  0  0  0  0  0  0  0  0  0
    0.0877   -0.8949   -0.8897 C   0  0  0  0  0  0  0  0  0  0  0  0
    0.0214   -1.9804   -1.0201 H   0  0  0  0  0  0  0  0  0  0  0  0
   -0.3697   -0.4377   -1.7732 H   0  0  0  0  0  0  0  0  0  0  0  0
    1.5570   -0.5086   -0.8561 C   0  0  0  0  0  0  0  0  0  0  0  0
    2.5105   -1.4574   -1.2649 C   0  0  0  0  0  0  0  0  0  0  0  0
    2.1994   -2.4643   -1.5274 H   0  0  0  0  0  0  0  0  0  0  0  0
    3.8715   -1.1392   -1.3208 C   0  0  0  0  0  0  0  0  0  0  0  0
    4.5939   -1.8945   -1.6161 H   0  0  0  0  0  0  0  0  0  0  0  0
    4.3003    0.1509   -1.0038 C   0  0  0  0  0  0  0  0  0  0  0  0
    5.3563    0.4010   -1.0488 H   0  0  0  0  0  0  0  0  0  0  0  0
    3.3623    1.1244   -0.6554 C   0  0  0  0  0  0  0  0  0  0  0  0
    3.6875    2.1389   -0.4446 H   0  0  0  0  0  0  0  0  0  0  0  0
    2.0020    0.8019   -0.6023 C   0  0  0  0  0  0  0  0  0  0  0  0
    1.3062    1.6046   -0.3986 H   0  0  0  0  0  0  0  0  0  0  0  0
   -1.0976    0.9800    0.4673 C   0  0  0  0  0  0  0  0  0  0  0  0
   -1.9796    1.4571   -0.2383 O   0  0  0  0  0  0  0  0  0  0  0  0
   -0.4576    1.7879    1.3901 N   0  0  0  0  0  0  0  0  0  0  0  0
    0.2465    1.3557    1.9829 H   0  0  0  0  0  0  0  0  0  0  0  0
   -0.7654    3.2009    1.5722 C   0  0  0  0  0  0  0  0  0  0  0  0
   -1.8176    3.3323    1.8462 H   0  0  0  0  0  0  0  0  0  0  0  0
   -0.1455    3.6224    2.3695 H   0  0  0  0  0  0  0  0  0  0  0  0
   -0.5692    3.7579    0.6500 H   0  0  0  0  0  0  0  0  0  0  0  0
  1  2  1  0  0  0  0
  2  3  1  0  0  0  0
  2  4  1  0  0  0  0
  2  5  1  0  0  0  0
  5  6  2  0  0  0  0
  5  7  1  0  0  0  0
  7  8  1  0  0  0  0
  7  9  1  0  0  0  0
  9 10  1  0  0  0  0
  9 11  1  0  0  0  0
  9 25  1  0  0  0  0
 11 12  1  0  0  0  0
 11 13  1  0  0  0  0
 11 14  1  0  0  0  0
 14 15  1  0  0  0  0
 14 23  2  0  0  0  0
 15 16  1  0  0  0  0
 15 17  2  0  0  0  0
 17 18  1  0  0  0  0
 17 19  1  0  0  0  0
 19 20  1  0  0  0  0
 19 21  2  0  0  0  0
 21 22  1  0  0  0  0
 21 23  1  0  0  0  0
 23 24  1  0  0  0  0
 25 26  2  0  0  0  0
 25 27  1  0  0  0  0
 27 28  1  0  0  0  0
 27 29  1  0  0  0  0
 29 30  1  0  0  0  0
 29 31  1  0  0  0  0
 29 32  1  0  0  0  0
M  END
$$$$

  -OEChem-04042216033D

 32 32  0     1  0  0  0  0  0999 V2000
   -3.6606   -3.9658    1.4767 H   0  0  0  0  0  0  0  0  0  0  0  0
   -3.6089   -3.0673    0.8553 C   0  0  0  0  0  0  0  0  0  0  0  0
   -4.3842   -2.3691    1.1803 H   0  0  0  0  0  0  0  0  0  0  0  0
   -3.7933   -3.3473   -0.1848 H   0  0  0  0  0  0  0  0  0  0  0  0
   -2.2423   -2.4205    0.9829 C   0  0  0  0  0  0  0  0  0  0  0  0
   -1.3983   -2.9144    1.7134 O   0  0  0  0  0  0  0  0  0  0  0  0
   -1.9610   -1.2702    0.2762 N   0  0  0  0  0  0  0  0  0  0  0  0
   -2.7249   -0.8376   -0.2420 H   0  0  0  0  0  0  0  0  0  0  0  0
   -0.7192   -0.4903    0.4019 C   0  0  1  0  0  0  0  0  0  0  0  0
   -0.1698   -0.7613    1.3095 H   0  0  0  0  0  0  0  0  0  0  0  0
    0.1228   -0.8575   -0.8438 C   0  0  0  0  0  0  0  0  0  0  0  0
    0.0525   -1.9430   -0.9738 H   0  0  0  0  0  0  0  0  0  0  0  0
   -0.3421   -0.3997   -1.7231 H   0  0  0  0  0  0  0  0  0  0  0  0
    1.6018   -0.4990   -0.8549 C   0  0  0  0  0  0  0  0  0  0  0  0
    2.4648   -1.3320   -1.5888 C   0  0  0  0  0  0  0  0  0  0  0  0
    2.0733   -2.2124   -2.0899 H   0  0  0  0  0  0  0  0  0  0  0  0
    3.8330   -1.0595   -1.6841 C   0  0  0  0  0  0  0  0  0  0  0  0
    4.4807   -1.7249   -2.2472 H   0  0  0  0  0  0  0  0  0  0  0  0
    4.3643    0.0690   -1.0586 C   0  0  0  0  0  0  0  0  0  0  0  0
    5.4263    0.2840   -1.1316 H   0  0  0  0  0  0  0  0  0  0  0  0
    3.5209    0.9267   -0.3507 C   0  0  0  0  0  0  0  0  0  0  0  0
    3.9275    1.8164    0.1210 H   0  0  0  0  0  0  0  0  0  0  0  0
    2.1520    0.6504   -0.2593 C   0  0  0  0  0  0  0  0  0  0  0  0
    1.5424    1.3670    0.2664 H   0  0  0  0  0  0  0  0  0  0  0  0
   -1.1199    0.9990    0.4854 C   0  0  0  0  0  0  0  0  0  0  0  0
   -1.9855    1.4385   -0.2643 O   0  0  0  0  0  0  0  0  0  0  0  0
   -0.5499    1.8463    1.4193 N   0  0  0  0  0  0  0  0  0  0  0  0
    0.1000    1.4386    2.0861 H   0  0  0  0  0  0  0  0  0  0  0  0
   -0.9403    3.2420    1.5790 C   0  0  0  0  0  0  0  0  0  0  0  0
   -2.0035    3.3163    1.8307 H   0  0  0  0  0  0  0  0  0  0  0  0
   -0.3614    3.7072    2.3825 H   0  0  0  0  0  0  0  0  0  0  0  0
   -0.7570    3.7994    0.6544 H   0  0  0  0  0  0  0  0  0  0  0  0
  1  2  1  0  0  0  0
  2  3  1  0  0  0  0
  2  4  1  0  0  0  0
  2  5  1  0  0  0  0
  5  6  2  0  0  0  0
  5  7  1  0  0  0  0
  7  8  1  0  0  0  0
  7  9  1  0  0  0  0
  9 10  1  0  0  0  0
  9 11  1  0  0  0  0
  9 25  1  0  0  0  0
 11 12  1  0  0  0  0
 11 13  1  0  0  0  0
 11 14  1  0  0  0  0
 14 15  1  0  0  0  0
 14 23  2  0  0  0  0
 15 16  1  0  0  0  0
 15 17  2  0  0  0  0
 17 18  1  0  0  0  0
 17 19  1  0  0  0  0
 19 20  1  0  0  0  0
 19 21  2  0  0  0  0
 21 22  1  0  0  0  0
 21 23  1  0  0  0  0
 23 24  1  0  0  0  0
 25 26  2  0  0  0  0
 25 27  1  0  0  0  0
 27 28  1  0  0  0  0
 27 29  1  0  0  0  0
 29 30  1  0  0  0  0
 29 31  1  0  0  0  0
 29 32  1  0  0  0  0
M  END
$$$$

  -OEChem-04042216033D

 32 32  0     1  0  0  0  0  0999 V2000
   -3.6723   -3.9573    1.4956 H   0  0  0  0  0  0  0  0  0  0  0  0
   -3.6160   -3.0658    0.8647 C   0  0  0  0  0  0  0  0  0  0  0  0
   -4.3929   -2.3637    1.1765 H   0  0  0  0  0  0  0  0  0  0  0  0
   -3.7931   -3.3570   -0.1735 H   0  0  0  0  0  0  0  0  0  0  0  0
   -2.2505   -2.4179    0.9946 C   0  0  0  0  0  0  0  0  0  0  0  0
   -1.4131   -2.9017    1.7395 O   0  0  0  0  0  0  0  0  0  0  0  0
   -1.9634   -1.2774    0.2747 N   0  0  0  0  0  0  0  0  0  0  0  0
   -2.7233   -0.8502   -0.2537 H   0  0  0  0  0  0  0  0  0  0  0  0
   -0.7212   -0.4987    0.3968 C   0  0  1  0  0  0  0  0  0  0  0  0
   -0.1713   -0.7700    1.3036 H   0  0  0  0  0  0  0  0  0  0  0  0
    0.1185   -0.8355   -0.8559 C   0  0  0  0  0  0  0  0  0  0  0  0
    0.0638   -1.9197   -1.0032 H   0  0  0  0  0  0  0  0  0  0  0  0
   -0.3535   -0.3679   -1.7267 H   0  0  0  0  0  0  0  0  0  0  0  0
    1.5939   -0.4679   -0.8631 C   0  0  0  0  0  0  0  0  0  0  0  0
    2.3963   -1.0597   -1.8532 C   0  0  0  0  0  0  0  0  0  0  0  0
    1.9494   -1.7336   -2.5782 H   0  0  0  0  0  0  0  0  0  0  0  0
    3.7674   -0.7958   -1.9313 C   0  0  0  0  0  0  0  0  0  0  0  0
    4.3662   -1.2606   -2.7089 H   0  0  0  0  0  0  0  0  0  0  0  0
    4.3649    0.0642   -1.0086 C   0  0  0  0  0  0  0  0  0  0  0  0
    5.4294    0.2714   -1.0667 H   0  0  0  0  0  0  0  0  0  0  0  0
    3.5886    0.6513   -0.0075 C   0  0  0  0  0  0  0  0  0  0  0  0
    4.0534    1.3135    0.7172 H   0  0  0  0  0  0  0  0  0  0  0  0
    2.2168    0.3841    0.0674 C   0  0  0  0  0  0  0  0  0  0  0  0
    1.6661    0.8476    0.8707 H   0  0  0  0  0  0  0  0  0  0  0  0
   -1.1133    0.9959    0.4598 C   0  0  0  0  0  0  0  0  0  0  0  0
   -1.9811    1.4244   -0.2942 O   0  0  0  0  0  0  0  0  0  0  0  0
   -0.5475    1.8591    1.3812 N   0  0  0  0  0  0  0  0  0  0  0  0
    0.0828    1.4600    2.0704 H   0  0  0  0  0  0  0  0  0  0  0  0
   -0.9338    3.2592    1.5105 C   0  0  0  0  0  0  0  0  0  0  0  0
   -2.0000    3.3436    1.7456 H   0  0  0  0  0  0  0  0  0  0  0  0
   -0.3639    3.7359    2.3138 H   0  0  0  0  0  0  0  0  0  0  0  0
   -0.7347    3.7985    0.5785 H   0  0  0  0  0  0  0  0  0  0  0  0
  1  2  1  0  0  0  0
  2  3  1  0  0  0  0
  2  4  1  0  0  0  0
  2  5  1  0  0  0  0
  5  6  2  0  0  0  0
  5  7  1  0  0  0  0
  7  8  1  0  0  0  0
  7  9  1  0  0  0  0
  9 10  1  0  0  0  0
  9 11  1  0  0  0  0
  9 25  1  0  0  0  0
 11 12  1  0  0  0  0
 11 13  1  0  0  0  0
 11 14  1  0  0  0  0
 14 15  1  0  0  0  0
 14 23  2  0  0  0  0
 15 16  1  0  0  0  0
 15 17  2  0  0  0  0
 17 18  1  0  0  0  0
 17 19  1  0  0  0  0
 19 20  1  0  0  0  0
 19 21  2  0  0  0  0
 21 22  1  0  0  0  0
 21 23  1  0  0  0  0
 23 24  1  0  0  0  0
 25 26  2  0  0  0  0
 25 27  1  0  0  0  0
 27 28  1  0  0  0  0
 27 29  1  0  0  0  0
 29 30  1  0  0  0  0
 29 31  1  0  0  0  0
 29 32  1  0  0  0  0
M  END
$$$$

  -OEChem-04042216033D

 32 32  0     1  0  0  0  0  0999 V2000
   -3.7600   -3.9754    1.5422 H   0  0  0  0  0  0  0  0  0  0  0  0
   -3.7055   -3.0897    0.9029 C   0  0  0  0  0  0  0  0  0  0  0  0
   -4.4701   -2.3773    1.2221 H   0  0  0  0  0  0  0  0  0  0  0  0
   -3.9030   -3.3879   -0.1295 H   0  0  0  0  0  0  0  0  0  0  0  0
   -2.3313   -2.4548    1.0044 C   0  0  0  0  0  0  0  0  0  0  0  0
   -1.4888   -2.9434    1.7406 O   0  0  0  0  0  0  0  0  0  0  0  0
   -2.0451   -1.3238    0.2672 N   0  0  0  0  0  0  0  0  0  0  0  0
   -2.8106   -0.8991   -0.2541 H   0  0  0  0  0  0  0  0  0  0  0  0
   -0.7928   -0.5555    0.3506 C   0  0  1  0  0  0  0  0  0  0  0  0
   -0.2880   -0.8436    1.2746 H   0  0  0  0  0  0  0  0  0  0  0  0
    0.0909   -0.8970   -0.8683 C   0  0  0  0  0  0  0  0  0  0  0  0
   -0.1284   -1.9284   -1.1633 H   0  0  0  0  0  0  0  0  0  0  0  0
   -0.1997   -0.2573   -1.7088 H   0  0  0  0  0  0  0  0  0  0  0  0
    1.5987   -0.8151   -0.6834 C   0  0  0  0  0  0  0  0  0  0  0  0
    2.3963   -1.1268   -1.7964 C   0  0  0  0  0  0  0  0  0  0  0  0
    1.9267   -1.4123   -2.7332 H   0  0  0  0  0  0  0  0  0  0  0  0
    3.7922   -1.0763   -1.7260 C   0  0  0  0  0  0  0  0  0  0  0  0
    4.3895   -1.3196   -2.5999 H   0  0  0  0  0  0  0  0  0  0  0  0
    4.4178   -0.7143   -0.5319 C   0  0  0  0  0  0  0  0  0  0  0  0
    5.5018   -0.6772   -0.4739 H   0  0  0  0  0  0  0  0  0  0  0  0
    3.6438   -0.4037    0.5879 C   0  0  0  0  0  0  0  0  0  0  0  0
    4.1300   -0.1277    1.5190 H   0  0  0  0  0  0  0  0  0  0  0  0
    2.2469   -0.4523    0.5154 C   0  0  0  0  0  0  0  0  0  0  0  0
    1.6993   -0.2082    1.4162 H   0  0  0  0  0  0  0  0  0  0  0  0
   -1.0715    0.9590    0.4103 C   0  0  0  0  0  0  0  0  0  0  0  0
   -1.9449    1.4411   -0.3026 O   0  0  0  0  0  0  0  0  0  0  0  0
   -0.4078    1.7713    1.3115 N   0  0  0  0  0  0  0  0  0  0  0  0
    0.3073    1.3457    1.8929 H   0  0  0  0  0  0  0  0  0  0  0  0
   -0.6326    3.2080    1.4098 C   0  0  0  0  0  0  0  0  0  0  0  0
   -1.6840    3.4179    1.6331 H   0  0  0  0  0  0  0  0  0  0  0  0
   -0.0189    3.6330    2.2099 H   0  0  0  0  0  0  0  0  0  0  0  0
   -0.3663    3.7013    0.4691 H   0  0  0  0  0  0  0  0  0  0  0  0
  1  2  1  0  0  0  0
  2  3  1  0  0  0  0
  2  4  1  0  0  0  0
  2  5  1  0  0  0  0
  5  6  2  0  0  0  0
  5  7  1  0  0  0  0
  7  8  1  0  0  0  0
  7  9  1  0  0  0  0
  9 10  1  0  0  0  0
  9 11  1  0  0  0  0
  9 25  1  0  0  0  0
 11 12  1  0  0  0  0
 11 13  1  0  0  0  0
 11 14  1  0  0  0  0
 14 15  1  0  0  0  0
 14 23  2  0  0  0  0
 15 16  1  0  0  0  0
 15 17  2  0  0  0  0
 17 18  1  0  0  0  0
 17 19  1  0  0  0  0
 19 20  1  0  0  0  0
 19 21  2  0  0  0  0
 21 22  1  0  0  0  0
 21 23  1  0  0  0  0
 23 24  1  0  0  0  0
 25 26  2  0  0  0  0
 25 27  1  0  0  0  0
 27 28  1  0  0  0  0
 27 29  1  0  0  0  0
 29 30  1  0  0  0  0
 29 31  1  0  0  0  0
 29 32  1  0  0  0  0
M  END
$$$$

  -OEChem-04042216033D

 32 32  0     1  0  0  0  0  0999 V2000
   -3.7636   -3.9765    1.5612 H   0  0  0  0  0  0  0  0  0  0  0  0
   -3.7157   -3.0928    0.9187 C   0  0  0  0  0  0  0  0  0  0  0  0
   -4.4764   -2.3788    1.2434 H   0  0  0  0  0  0  0  0  0  0  0  0
   -3.9240   -3.3946   -0.1106 H   0  0  0  0  0  0  0  0  0  0  0  0
   -2.3402   -2.4582    1.0039 C   0  0  0  0  0  0  0  0  0  0  0  0
   -1.4889   -2.9452    1.7312 O   0  0  0  0  0  0  0  0  0  0  0  0
   -2.0619   -1.3284    0.2620 N   0  0  0  0  0  0  0  0  0  0  0  0
   -2.8332   -0.9044   -0.2513 H   0  0  0  0  0  0  0  0  0  0  0  0
   -0.8120   -0.5557    0.3400 C   0  0  1  0  0  0  0  0  0  0  0  0
   -0.3214   -0.8309    1.2728 H   0  0  0  0  0  0  0  0  0  0  0  0
    0.0836   -0.8948   -0.8705 C   0  0  0  0  0  0  0  0  0  0  0  0
   -0.1208   -1.9304   -1.1620 H   0  0  0  0  0  0  0  0  0  0  0  0
   -0.2119   -0.2627   -1.7151 H   0  0  0  0  0  0  0  0  0  0  0  0
    1.5894   -0.7987   -0.6705 C   0  0  0  0  0  0  0  0  0  0  0  0
    2.3880   -0.7831   -1.8260 C   0  0  0  0  0  0  0  0  0  0  0  0
    1.9211   -0.8115   -2.8063 H   0  0  0  0  0  0  0  0  0  0  0  0
    3.7827   -0.7212   -1.7444 C   0  0  0  0  0  0  0  0  0  0  0  0
    4.3790   -0.6993   -2.6518 H   0  0  0  0  0  0  0  0  0  0  0  0
    4.4079   -0.6929   -0.4970 C   0  0  0  0  0  0  0  0  0  0  0  0
    5.4911   -0.6488   -0.4301 H   0  0  0  0  0  0  0  0  0  0  0  0
    3.6351   -0.7363    0.6647 C   0  0  0  0  0  0  0  0  0  0  0  0
    4.1207   -0.7347    1.6363 H   0  0  0  0  0  0  0  0  0  0  0  0
    2.2395   -0.7962    0.5820 C   0  0  0  0  0  0  0  0  0  0  0  0
    1.6993   -0.8607    1.5179 H   0  0  0  0  0  0  0  0  0  0  0  0
   -1.0762    0.9601    0.3970 C   0  0  0  0  0  0  0  0  0  0  0  0
   -1.9589    1.4479   -0.3002 O   0  0  0  0  0  0  0  0  0  0  0  0
   -0.3973    1.7611    1.2965 N   0  0  0  0  0  0  0  0  0  0  0  0
    0.3582    1.3347    1.8250 H   0  0  0  0  0  0  0  0  0  0  0  0
   -0.5925    3.2026    1.3879 C   0  0  0  0  0  0  0  0  0  0  0  0
   -1.6388    3.4349    1.6130 H   0  0  0  0  0  0  0  0  0  0  0  0
    0.0313    3.6183    2.1849 H   0  0  0  0  0  0  0  0  0  0  0  0
   -0.3182    3.6867    0.4448 H   0  0  0  0  0  0  0  0  0  0  0  0
  1  2  1  0  0  0  0
  2  3  1  0  0  0  0
  2  4  1  0  0  0  0
  2  5  1  0  0  0  0
  5  6  2  0  0  0  0
  5  7  1  0  0  0  0
  7  8  1  0  0  0  0
  7  9  1  0  0  0  0
  9 10  1  0  0  0  0
  9 11  1  0  0  0  0
  9 25  1  0  0  0  0
 11 12  1  0  0  0  0
 11 13  1  0  0  0  0
 11 14  1  0  0  0  0
 14 15  1  0  0  0  0
 14 23  2  0  0  0  0
 15 16  1  0  0  0  0
 15 17  2  0  0  0  0
 17 18  1  0  0  0  0
 17 19  1  0  0  0  0
 19 20  1  0  0  0  0
 19 21  2  0  0  0  0
 21 22  1  0  0  0  0
 21 23  1  0  0  0  0
 23 24  1  0  0  0  0
 25 26  2  0  0  0  0
 25 27  1  0  0  0  0
 27 28  1  0  0  0  0
 27 29  1  0  0  0  0
 29 30  1  0  0  0  0
 29 31  1  0  0  0  0
 29 32  1  0  0  0  0
M  END
$$$$

  -OEChem-04042216033D

 32 32  0     1  0  0  0  0  0999 V2000
   -3.7351   -3.9675    1.6175 H   0  0  0  0  0  0  0  0  0  0  0  0
   -3.7002   -3.0908    0.9646 C   0  0  0  0  0  0  0  0  0  0  0  0
   -4.4525   -2.3725    1.2993 H   0  0  0  0  0  0  0  0  0  0  0  0
   -3.9323   -3.4029   -0.0566 H   0  0  0  0  0  0  0  0  0  0  0  0
   -2.3220   -2.4578    1.0118 C   0  0  0  0  0  0  0  0  0  0  0  0
   -1.4512   -2.9465    1.7150 O   0  0  0  0  0  0  0  0  0  0  0  0
   -2.0607   -1.3288    0.2627 N   0  0  0  0  0  0  0  0  0  0  0  0
   -2.8433   -0.9010   -0.2299 H   0  0  0  0  0  0  0  0  0  0  0  0
   -0.8095   -0.5579    0.3194 C   0  0  1  0  0  0  0  0  0  0  0  0
   -0.2997   -0.8195    1.2464 H   0  0  0  0  0  0  0  0  0  0  0  0
    0.0680   -0.8917   -0.9052 C   0  0  0  0  0  0  0  0  0  0  0  0
   -0.1291   -1.9276   -1.2001 H   0  0  0  0  0  0  0  0  0  0  0  0
   -0.2345   -0.2580   -1.7460 H   0  0  0  0  0  0  0  0  0  0  0  0
    1.5666   -0.7827   -0.6815 C   0  0  0  0  0  0  0  0  0  0  0  0
    2.3770   -0.4297   -1.7729 C   0  0  0  0  0  0  0  0  0  0  0  0
    1.9234   -0.1880   -2.7297 H   0  0  0  0  0  0  0  0  0  0  0  0
    3.7687   -0.3653   -1.6491 C   0  0  0  0  0  0  0  0  0  0  0  0
    4.3761   -0.0708   -2.4998 H   0  0  0  0  0  0  0  0  0  0  0  0
    4.3773   -0.6874   -0.4345 C   0  0  0  0  0  0  0  0  0  0  0  0
    5.4581   -0.6428   -0.3372 H   0  0  0  0  0  0  0  0  0  0  0  0
    3.5922   -1.0906    0.6476 C   0  0  0  0  0  0  0  0  0  0  0  0
    4.0644   -1.3734    1.5839 H   0  0  0  0  0  0  0  0  0  0  0  0
    2.2002   -1.1528    0.5220 C   0  0  0  0  0  0  0  0  0  0  0  0
    1.6378   -1.5252    1.3716 H   0  0  0  0  0  0  0  0  0  0  0  0
   -1.0712    0.9577    0.3807 C   0  0  0  0  0  0  0  0  0  0  0  0
   -1.9656    1.4479   -0.2997 O   0  0  0  0  0  0  0  0  0  0  0  0
   -0.3737    1.7539    1.2700 N   0  0  0  0  0  0  0  0  0  0  0  0
    0.3973    1.3241    1.7739 H   0  0  0  0  0  0  0  0  0  0  0  0
   -0.5568    3.1966    1.3641 C   0  0  0  0  0  0  0  0  0  0  0  0
   -1.5983    3.4370    1.6022 H   0  0  0  0  0  0  0  0  0  0  0  0
    0.0803    3.6070    2.1534 H   0  0  0  0  0  0  0  0  0  0  0  0
   -0.2909    3.6789    0.4176 H   0  0  0  0  0  0  0  0  0  0  0  0
  1  2  1  0  0  0  0
  2  3  1  0  0  0  0
  2  4  1  0  0  0  0
  2  5  1  0  0  0  0
  5  6  2  0  0  0  0
  5  7  1  0  0  0  0
  7  8  1  0  0  0  0
  7  9  1  0  0  0  0
  9 10  1  0  0  0  0
  9 11  1  0  0  0  0
  9 25  1  0  0  0  0
 11 12  1  0  0  0  0
 11 13  1  0  0  0  0
 11 14  1  0  0  0  0
 14 15  1  0  0  0  0
 14 23  2  0  0  0  0
 15 16  1  0  0  0  0
 15 17  2  0  0  0  0
 17 18  1  0  0  0  0
 17 19  1  0  0  0  0
 19 20  1  0  0  0  0
 19 21  2  0  0  0  0
 21 22  1  0  0  0  0
 21 23  1  0  0  0  0
 23 24  1  0  0  0  0
 25 26  2  0  0  0  0
 25 27  1  0  0  0  0
 27 28  1  0  0  0  0
 27 29  1  0  0  0  0
 29 30  1  0  0  0  0
 29 31  1  0  0  0  0
 29 32  1  0  0  0  0
M  END
$$$$

  -OEChem-04042216033D

 32 32  0     1  0  0  0  0  0999 V2000
   -3.7139   -3.9641    1.6579 H   0  0  0  0  0  0  0  0  0  0  0  0
   -3.6869   -3.0947    0.9951 C   0  0  0  0  0  0  0  0  0  0  0  0
   -4.4297   -2.3693    1.3356 H   0  0  0  0  0  0  0  0  0  0  0  0
   -3.9395   -3.4167   -0.0182 H   0  0  0  0  0  0  0  0  0  0  0  0
   -2.3049   -2.4686    1.0102 C   0  0  0  0  0  0  0  0  0  0  0  0
   -1.4149   -2.9711    1.6791 O   0  0  0  0  0  0  0  0  0  0  0  0
   -2.0585   -1.3353    0.2629 N   0  0  0  0  0  0  0  0  0  0  0  0
   -2.8523   -0.8974   -0.2019 H   0  0  0  0  0  0  0  0  0  0  0  0
   -0.8017   -0.5728    0.2920 C   0  0  1  0  0  0  0  0  0  0  0  0
   -0.2607   -0.8431    1.2012 H   0  0  0  0  0  0  0  0  0  0  0  0
    0.0423   -0.9086   -0.9529 C   0  0  0  0  0  0  0  0  0  0  0  0
   -0.1589   -1.9429   -1.2508 H   0  0  0  0  0  0  0  0  0  0  0  0
   -0.2641   -0.2694   -1.7879 H   0  0  0  0  0  0  0  0  0  0  0  0
    1.5327   -0.7945   -0.7083 C   0  0  0  0  0  0  0  0  0  0  0  0
    2.3392   -0.1414   -1.6531 C   0  0  0  0  0  0  0  0  0  0  0  0
    1.8892    0.3180   -2.5282 H   0  0  0  0  0  0  0  0  0  0  0  0
    3.7243   -0.0574   -1.4770 C   0  0  0  0  0  0  0  0  0  0  0  0
    4.3328    0.4663   -2.2083 H   0  0  0  0  0  0  0  0  0  0  0  0
    4.3249   -0.6524   -0.3646 C   0  0  0  0  0  0  0  0  0  0  0  0
    5.4005   -0.5900   -0.2279 H   0  0  0  0  0  0  0  0  0  0  0  0
    3.5402   -1.3452    0.5610 C   0  0  0  0  0  0  0  0  0  0  0  0
    4.0064   -1.8319    1.4128 H   0  0  0  0  0  0  0  0  0  0  0  0
    2.1551   -1.4274    0.3831 C   0  0  0  0  0  0  0  0  0  0  0  0
    1.5724   -2.0072    1.0941 H   0  0  0  0  0  0  0  0  0  0  0  0
   -1.0480    0.9442    0.3724 C   0  0  0  0  0  0  0  0  0  0  0  0
   -1.9505    1.4494   -0.2861 O   0  0  0  0  0  0  0  0  0  0  0  0
   -0.3195    1.7264    1.2491 N   0  0  0  0  0  0  0  0  0  0  0  0
    0.4574    1.2832    1.7324 H   0  0  0  0  0  0  0  0  0  0  0  0
   -0.4846    3.1702    1.3587 C   0  0  0  0  0  0  0  0  0  0  0  0
   -1.5213    3.4206    1.6073 H   0  0  0  0  0  0  0  0  0  0  0  0
    0.1630    3.5655    2.1472 H   0  0  0  0  0  0  0  0  0  0  0  0
   -0.2199    3.6579    0.4147 H   0  0  0  0  0  0  0  0  0  0  0  0
  1  2  1  0  0  0  0
  2  3  1  0  0  0  0
  2  4  1  0  0  0  0
  2  5  1  0  0  0  0
  5  6  2  0  0  0  0
  5  7  1  0  0  0  0
  7  8  1  0  0  0  0
  7  9  1  0  0  0  0
  9 10  1  0  0  0  0
  9 11  1  0  0  0  0
  9 25  1  0  0  0  0
 11 12  1  0  0  0  0
 11 13  1  0  0  0  0
 11 14  1  0  0  0  0
 14 15  1  0  0  0  0
 14 23  2  0  0  0  0
 15 16  1  0  0  0  0
 15 17  2  0  0  0  0
 17 18  1  0  0  0  0
 17 19  1  0  0  0  0
 19 20  1  0  0  0  0
 19 21  2  0  0  0  0
 21 22  1  0  0  0  0
 21 23  1  0  0  0  0
 23 24  1  0  0  0  0
 25 26  2  0  0  0  0
 25 27  1  0  0  0  0
 27 28  1  0  0  0  0
 27 29  1  0  0  0  0
 29 30  1  0  0  0  0
 29 31  1  0  0  0  0
 29 32  1  0  0  0  0
M  END
$$$$

  -OEChem-04042216033D

 32 32  0     1  0  0  0  0  0999 V2000
   -3.7001   -3.9579    1.6835 H   0  0  0  0  0  0  0  0  0  0  0  0
   -3.6796   -3.0882    1.0208 C   0  0  0  0  0  0  0  0  0  0  0  0
   -4.3986   -2.3508    1.3859 H   0  0  0  0  0  0  0  0  0  0  0  0
   -3.9704   -3.4038    0.0160 H   0  0  0  0  0  0  0  0  0  0  0  0
   -2.2878   -2.4848    0.9913 C   0  0  0  0  0  0  0  0  0  0  0  0
   -1.3811   -3.0105    1.6186 O   0  0  0  0  0  0  0  0  0  0  0  0
   -2.0521   -1.3458    0.2493 N   0  0  0  0  0  0  0  0  0  0  0  0
   -2.8569   -0.8914   -0.1793 H   0  0  0  0  0  0  0  0  0  0  0  0
   -0.7907   -0.5904    0.2583 C   0  0  1  0  0  0  0  0  0  0  0  0
   -0.2259   -0.8760    1.1505 H   0  0  0  0  0  0  0  0  0  0  0  0
    0.0281   -0.9241   -1.0006 C   0  0  0  0  0  0  0  0  0  0  0  0
   -0.1757   -1.9564   -1.3032 H   0  0  0  0  0  0  0  0  0  0  0  0
   -0.2790   -0.2791   -1.8310 H   0  0  0  0  0  0  0  0  0  0  0  0
    1.5115   -0.8068   -0.7389 C   0  0  0  0  0  0  0  0  0  0  0  0
    2.2914    0.0988   -1.4735 C   0  0  0  0  0  0  0  0  0  0  0  0
    1.8280    0.7397   -2.2182 H   0  0  0  0  0  0  0  0  0  0  0  0
    3.6699    0.1924   -1.2521 C   0  0  0  0  0  0  0  0  0  0  0  0
    4.2638    0.9015   -1.8214 H   0  0  0  0  0  0  0  0  0  0  0  0
    4.2841   -0.6307   -0.3037 C   0  0  0  0  0  0  0  0  0  0  0  0
    5.3548   -0.5619   -0.1346 H   0  0  0  0  0  0  0  0  0  0  0  0
    3.5194   -1.5511    0.4188 C   0  0  0  0  0  0  0  0  0  0  0  0
    3.9949   -2.2012    1.1474 H   0  0  0  0  0  0  0  0  0  0  0  0
    2.1415   -1.6429    0.1973 C   0  0  0  0  0  0  0  0  0  0  0  0
    1.5595   -2.3747    0.7525 H   0  0  0  0  0  0  0  0  0  0  0  0
   -1.0260    0.9269    0.3584 C   0  0  0  0  0  0  0  0  0  0  0  0
   -1.9393    1.4432   -0.2761 O   0  0  0  0  0  0  0  0  0  0  0  0
   -0.2743    1.6968    1.2262 N   0  0  0  0  0  0  0  0  0  0  0  0
    0.5090    1.2445    1.6908 H   0  0  0  0  0  0  0  0  0  0  0  0
   -0.4377    3.1384    1.3631 C   0  0  0  0  0  0  0  0  0  0  0  0
   -1.4654    3.3830    1.6517 H   0  0  0  0  0  0  0  0  0  0  0  0
    0.2368    3.5229    2.1341 H   0  0  0  0  0  0  0  0  0  0  0  0
   -0.2074    3.6407    0.4179 H   0  0  0  0  0  0  0  0  0  0  0  0
  1  2  1  0  0  0  0
  2  3  1  0  0  0  0
  2  4  1  0  0  0  0
  2  5  1  0  0  0  0
  5  6  2  0  0  0  0
  5  7  1  0  0  0  0
  7  8  1  0  0  0  0
  7  9  1  0  0  0  0
  9 10  1  0  0  0  0
  9 11  1  0  0  0  0
  9 25  1  0  0  0  0
 11 12  1  0  0  0  0
 11 13  1  0  0  0  0
 11 14  1  0  0  0  0
 14 15  1  0  0  0  0
 14 23  2  0  0  0  0
 15 16  1  0  0  0  0
 15 17  2  0  0  0  0
 17 18  1  0  0  0  0
 17 19  1  0  0  0  0
 19 20  1  0  0  0  0
 19 21  2  0  0  0  0
 21 22  1  0  0  0  0
 21 23  1  0  0  0  0
 23 24  1  0  0  0  0
 25 26  2  0  0  0  0
 25 27  1  0  0  0  0
 27 28  1  0  0  0  0
 27 29  1  0  0  0  0
 29 30  1  0  0  0  0
 29 31  1  0  0  0  0
 29 32  1  0  0  0  0
M  END
$$$$

  -OEChem-04042216033D

 32 32  0     1  0  0  0  0  0999 V2000
   -3.6950   -3.9511    1.6962 H   0  0  0  0  0  0  0  0  0  0  0  0
   -3.6798   -3.0815    1.0333 C   0  0  0  0  0  0  0  0  0  0  0  0
   -4.3783   -2.3343    1.4177 H   0  0  0  0  0  0  0  0  0  0  0  0
   -4.0013   -3.3922    0.0363 H   0  0  0  0  0  0  0  0  0  0  0  0
   -2.2805   -2.4987    0.9674 C   0  0  0  0  0  0  0  0  0  0  0  0
   -1.3633   -3.0458    1.5600 O   0  0  0  0  0  0  0  0  0  0  0  0
   -2.0507   -1.3534    0.2332 N   0  0  0  0  0  0  0  0  0  0  0  0
   -2.8614   -0.8852   -0.1685 H   0  0  0  0  0  0  0  0  0  0  0  0
   -0.7844   -0.6061    0.2273 C   0  0  1  0  0  0  0  0  0  0  0  0
   -0.2030   -0.9077    1.1047 H   0  0  0  0  0  0  0  0  0  0  0  0
    0.0158   -0.9383   -1.0414 C   0  0  0  0  0  0  0  0  0  0  0  0
   -0.1964   -1.9668   -1.3514 H   0  0  0  0  0  0  0  0  0  0  0  0
   -0.2872   -0.2842   -1.8661 H   0  0  0  0  0  0  0  0  0  0  0  0
    1.4954   -0.8221   -0.7702 C   0  0  0  0  0  0  0  0  0  0  0  0
    2.2237    0.2758   -1.2509 C   0  0  0  0  0  0  0  0  0  0  0  0
    1.7258    1.0503   -1.8274 H   0  0  0  0  0  0  0  0  0  0  0  0
    3.5939    0.3858   -0.9905 C   0  0  0  0  0  0  0  0  0  0  0  0
    4.1511    1.2388   -1.3665 H   0  0  0  0  0  0  0  0  0  0  0  0
    4.2468   -0.6036   -0.2486 C   0  0  0  0  0  0  0  0  0  0  0  0
    5.3110   -0.5203   -0.0478 H   0  0  0  0  0  0  0  0  0  0  0  0
    3.5285   -1.7028    0.2321 C   0  0  0  0  0  0  0  0  0  0  0  0
    4.0329   -2.4739    0.8074 H   0  0  0  0  0  0  0  0  0  0  0  0
    2.1587   -1.8116   -0.0291 C   0  0  0  0  0  0  0  0  0  0  0  0
    1.6056   -2.6683    0.3487 H   0  0  0  0  0  0  0  0  0  0  0  0
   -1.0059    0.9116    0.3473 C   0  0  0  0  0  0  0  0  0  0  0  0
   -1.9231    1.4433   -0.2685 O   0  0  0  0  0  0  0  0  0  0  0  0
   -0.2324    1.6659    1.2093 N   0  0  0  0  0  0  0  0  0  0  0  0
    0.5489    1.1993    1.6634 H   0  0  0  0  0  0  0  0  0  0  0  0
   -0.3844    3.1062    1.3698 C   0  0  0  0  0  0  0  0  0  0  0  0
   -1.4018    3.3518    1.6919 H   0  0  0  0  0  0  0  0  0  0  0  0
    0.3146    3.4776    2.1252 H   0  0  0  0  0  0  0  0  0  0  0  0
   -0.1797    3.6198    0.4246 H   0  0  0  0  0  0  0  0  0  0  0  0
  1  2  1  0  0  0  0
  2  3  1  0  0  0  0
  2  4  1  0  0  0  0
  2  5  1  0  0  0  0
  5  6  2  0  0  0  0
  5  7  1  0  0  0  0
  7  8  1  0  0  0  0
  7  9  1  0  0  0  0
  9 10  1  0  0  0  0
  9 11  1  0  0  0  0
  9 25  1  0  0  0  0
 11 12  1  0  0  0  0
 11 13  1  0  0  0  0
 11 14  1  0  0  0  0
 14 15  1  0  0  0  0
 14 23  2  0  0  0  0
 15 16  1  0  0  0  0
 15 17  2  0  0  0  0
 17 18  1  0  0  0  0
 17 19  1  0  0  0  0
 19 20  1  0  0  0  0
 19 21  2  0  0  0  0
 21 22  1  0  0  0  0
 21 23  1  0  0  0  0
 23 24  1  0  0  0  0
 25 26  2  0  0  0  0
 25 27  1  0  0  0  0
 27 28  1  0  0  0  0
 27 29  1  0  0  0  0
 29 30  1  0  0  0  0
 29 31  1  0  0  0  0
 29 32  1  0  0  0  0
M  END
$$$$

  -OEChem-04042216033D

 32 32  0     1  0  0  0  0  0999 V2000
   -3.6986   -3.9505    1.6801 H   0  0  0  0  0  0  0  0  0  0  0  0
   -3.6803   -3.0779    1.0212 C   0  0  0  0  0  0  0  0  0  0  0  0
   -4.3795   -2.3317    1.4065 H   0  0  0  0  0  0  0  0  0  0  0  0
   -3.9991   -3.3839    0.0218 H   0  0  0  0  0  0  0  0  0  0  0  0
   -2.2802   -2.4959    0.9621 C   0  0  0  0  0  0  0  0  0  0  0  0
   -1.3651   -3.0480    1.5527 O   0  0  0  0  0  0  0  0  0  0  0  0
   -2.0481   -1.3479    0.2330 N   0  0  0  0  0  0  0  0  0  0  0  0
   -2.8581   -0.8779   -0.1680 H   0  0  0  0  0  0  0  0  0  0  0  0
   -0.7790   -0.6050    0.2205 C   0  0  1  0  0  0  0  0  0  0  0  0
   -0.1895   -0.9136    1.0908 H   0  0  0  0  0  0  0  0  0  0  0  0
    0.0112   -0.9458   -1.0522 C   0  0  0  0  0  0  0  0  0  0  0  0
   -0.2137   -1.9717   -1.3618 H   0  0  0  0  0  0  0  0  0  0  0  0
   -0.2879   -0.2884   -1.8756 H   0  0  0  0  0  0  0  0  0  0  0  0
    1.4929   -0.8356   -0.7904 C   0  0  0  0  0  0  0  0  0  0  0  0
    2.1632    0.3794   -0.9973 C   0  0  0  0  0  0  0  0  0  0  0  0
    1.6220    1.2429   -1.3743 H   0  0  0  0  0  0  0  0  0  0  0  0
    3.5310    0.4897   -0.7250 C   0  0  0  0  0  0  0  0  0  0  0  0
    4.0443    1.4318   -0.8945 H   0  0  0  0  0  0  0  0  0  0  0  0
    4.2378   -0.6134   -0.2365 C   0  0  0  0  0  0  0  0  0  0  0  0
    5.2999   -0.5295   -0.0254 H   0  0  0  0  0  0  0  0  0  0  0  0
    3.5750   -1.8253   -0.0183 C   0  0  0  0  0  0  0  0  0  0  0  0
    4.1201   -2.6824    0.3666 H   0  0  0  0  0  0  0  0  0  0  0  0
    2.2075   -1.9345   -0.2924 C   0  0  0  0  0  0  0  0  0  0  0  0
    1.6968   -2.8764   -0.1089 H   0  0  0  0  0  0  0  0  0  0  0  0
   -0.9979    0.9125    0.3495 C   0  0  0  0  0  0  0  0  0  0  0  0
   -1.9142    1.4504   -0.2619 O   0  0  0  0  0  0  0  0  0  0  0  0
   -0.2168    1.6613    1.2095 N   0  0  0  0  0  0  0  0  0  0  0  0
    0.5551    1.1863    1.6709 H   0  0  0  0  0  0  0  0  0  0  0  0
   -0.3711    3.0990    1.3886 C   0  0  0  0  0  0  0  0  0  0  0  0
   -1.3873    3.3378    1.7194 H   0  0  0  0  0  0  0  0  0  0  0  0
    0.3312    3.4626    2.1447 H   0  0  0  0  0  0  0  0  0  0  0  0
   -0.1728    3.6247    0.4489 H   0  0  0  0  0  0  0  0  0  0  0  0
  1  2  1  0  0  0  0
  2  3  1  0  0  0  0
  2  4  1  0  0  0  0
  2  5  1  0  0  0  0
  5  6  2  0  0  0  0
  5  7  1  0  0  0  0
  7  8  1  0  0  0  0
  7  9  1  0  0  0  0
  9 10  1  0  0  0  0
  9 11  1  0  0  0  0
  9 25  1  0  0  0  0
 11 12  1  0  0  0  0
 11 13  1  0  0  0  0
 11 14  1  0  0  0  0
 14 15  1  0  0  0  0
 14 23  2  0  0  0  0
 15 16  1  0  0  0  0
 15 17  2  0  0  0  0
 17 18  1  0  0  0  0
 17 19  1  0  0  0  0
 19 20  1  0  0  0  0
 19 21  2  0  0  0  0
 21 22  1  0  0  0  0
 21 23  1  0  0  0  0
 23 24  1  0  0  0  0
 25 26  2  0  0  0  0
 25 27  1  0  0  0  0
 27 28  1  0  0  0  0
 27 29  1  0  0  0  0
 29 30  1  0  0  0  0
 29 31  1  0  0  0  0
 29 32  1  0  0  0  0
M  END
$$$$

  -OEChem-04042216033D

 32 32  0     1  0  0  0  0  0999 V2000
   -3.6940   -3.9465    1.6583 H   0  0  0  0  0  0  0  0  0  0  0  0
   -3.6722   -3.0705    1.0041 C   0  0  0  0  0  0  0  0  0  0  0  0
   -4.3798   -2.3296    1.3841 H   0  0  0  0  0  0  0  0  0  0  0  0
   -3.9763   -3.3728   -0.0009 H   0  0  0  0  0  0  0  0  0  0  0  0
   -2.2746   -2.4815    0.9659 C   0  0  0  0  0  0  0  0  0  0  0  0
   -1.3662   -3.0282    1.5713 O   0  0  0  0  0  0  0  0  0  0  0  0
   -2.0375   -1.3330    0.2395 N   0  0  0  0  0  0  0  0  0  0  0  0
   -2.8442   -0.8662   -0.1722 H   0  0  0  0  0  0  0  0  0  0  0  0
   -0.7688   -0.5890    0.2355 C   0  0  1  0  0  0  0  0  0  0  0  0
   -0.1777   -0.8964    1.1050 H   0  0  0  0  0  0  0  0  0  0  0  0
    0.0188   -0.9422   -1.0388 C   0  0  0  0  0  0  0  0  0  0  0  0
   -0.2237   -1.9649   -1.3459 H   0  0  0  0  0  0  0  0  0  0  0  0
   -0.2781   -0.2826   -1.8611 H   0  0  0  0  0  0  0  0  0  0  0  0
    1.5082   -0.8449   -0.8047 C   0  0  0  0  0  0  0  0  0  0  0  0
    2.1416    0.4054   -0.7248 C   0  0  0  0  0  0  0  0  0  0  0  0
    1.5736    1.3172   -0.8856 H   0  0  0  0  0  0  0  0  0  0  0  0
    3.5124    0.4934   -0.4599 C   0  0  0  0  0  0  0  0  0  0  0  0
    3.9953    1.4651   -0.4111 H   0  0  0  0  0  0  0  0  0  0  0  0
    4.2619   -0.6700   -0.2626 C   0  0  0  0  0  0  0  0  0  0  0  0
    5.3267   -0.6041   -0.0585 H   0  0  0  0  0  0  0  0  0  0  0  0
    3.6387   -1.9197   -0.3289 C   0  0  0  0  0  0  0  0  0  0  0  0
    4.2171   -2.8253   -0.1701 H   0  0  0  0  0  0  0  0  0  0  0  0
    2.2678   -2.0055   -0.5947 C   0  0  0  0  0  0  0  0  0  0  0  0
    1.7916   -2.9815   -0.6270 H   0  0  0  0  0  0  0  0  0  0  0  0
   -1.0082    0.9256    0.3650 C   0  0  0  0  0  0  0  0  0  0  0  0
   -1.9182    1.4557   -0.2622 O   0  0  0  0  0  0  0  0  0  0  0  0
   -0.2442    1.6845    1.2319 N   0  0  0  0  0  0  0  0  0  0  0  0
    0.5066    1.2124    1.7298 H   0  0  0  0  0  0  0  0  0  0  0  0
   -0.4255    3.1183    1.4178 C   0  0  0  0  0  0  0  0  0  0  0  0
   -1.4469    3.3367    1.7469 H   0  0  0  0  0  0  0  0  0  0  0  0
    0.2684    3.4915    2.1773 H   0  0  0  0  0  0  0  0  0  0  0  0
   -0.2346    3.6521    0.4809 H   0  0  0  0  0  0  0  0  0  0  0  0
  1  2  1  0  0  0  0
  2  3  1  0  0  0  0
  2  4  1  0  0  0  0
  2  5  1  0  0  0  0
  5  6  2  0  0  0  0
  5  7  1  0  0  0  0
  7  8  1  0  0  0  0
  7  9  1  0  0  0  0
  9 10  1  0  0  0  0
  9 11  1  0  0  0  0
  9 25  1  0  0  0  0
 11 12  1  0  0  0  0
 11 13  1  0  0  0  0
 11 14  1  0  0  0  0
 14 15  1  0  0  0  0
 14 23  2  0  0  0  0
 15 16  1  0  0  0  0
 15 17  2  0  0  0  0
 17 18  1  0  0  0  0
 17 19  1  0  0  0  0
 19 20  1  0  0  0  0
 19 21  2  0  0  0  0
 21 22  1  0  0  0  0
 21 23  1  0  0  0  0
 23 24  1  0  0  0  0
 25 26  2  0  0  0  0
 25 27  1  0  0  0  0
 27 28  1  0  0  0  0
 27 29  1  0  0  0  0
 29 30  1  0  0  0  0
 29 31  1  0  0  0  0
 29 32  1  0  0  0  0
M  END
$$$$

  -OEChem-04042216033D

 32 32  0     1  0  0  0  0  0999 V2000
   -3.6803   -3.9459    1.6145 H   0  0  0  0  0  0  0  0  0  0  0  0
   -3.6513   -3.0597    0.9742 C   0  0  0  0  0  0  0  0  0  0  0  0
   -4.3776   -2.3326    1.3452 H   0  0  0  0  0  0  0  0  0  0  0  0
   -3.9246   -3.3505   -0.0429 H   0  0  0  0  0  0  0  0  0  0  0  0
   -2.2609   -2.4528    0.9827 C   0  0  0  0  0  0  0  0  0  0  0  0
   -1.3708   -2.9780    1.6323 O   0  0  0  0  0  0  0  0  0  0  0  0
   -2.0112   -1.3085    0.2540 N   0  0  0  0  0  0  0  0  0  0  0  0
   -2.8062   -0.8576   -0.1967 H   0  0  0  0  0  0  0  0  0  0  0  0
   -0.7472   -0.5557    0.2776 C   0  0  1  0  0  0  0  0  0  0  0  0
   -0.1636   -0.8489    1.1569 H   0  0  0  0  0  0  0  0  0  0  0  0
    0.0483   -0.9263   -0.9919 C   0  0  0  0  0  0  0  0  0  0  0  0
   -0.2133   -1.9466   -1.2911 H   0  0  0  0  0  0  0  0  0  0  0  0
   -0.2477   -0.2690   -1.8162 H   0  0  0  0  0  0  0  0  0  0  0  0
    1.5494   -0.8494   -0.8025 C   0  0  0  0  0  0  0  0  0  0  0  0
    2.1903    0.3489   -0.4452 C   0  0  0  0  0  0  0  0  0  0  0  0
    1.6307    1.2746   -0.3740 H   0  0  0  0  0  0  0  0  0  0  0  0
    3.5710    0.3825   -0.2207 C   0  0  0  0  0  0  0  0  0  0  0  0
    4.0567    1.3181    0.0410 H   0  0  0  0  0  0  0  0  0  0  0  0
    4.3282   -0.7855   -0.3408 C   0  0  0  0  0  0  0  0  0  0  0  0
    5.4000   -0.7613   -0.1669 H   0  0  0  0  0  0  0  0  0  0  0  0
    3.7029   -1.9856   -0.6875 C   0  0  0  0  0  0  0  0  0  0  0  0
    4.2865   -2.8970   -0.7767 H   0  0  0  0  0  0  0  0  0  0  0  0
    2.3229   -2.0162   -0.9140 C   0  0  0  0  0  0  0  0  0  0  0  0
    1.8515   -2.9615   -1.1671 H   0  0  0  0  0  0  0  0  0  0  0  0
   -1.0343    0.9538    0.3891 C   0  0  0  0  0  0  0  0  0  0  0  0
   -1.9339    1.4540   -0.2768 O   0  0  0  0  0  0  0  0  0  0  0  0
   -0.3217    1.7458    1.2709 N   0  0  0  0  0  0  0  0  0  0  0  0
    0.3870    1.2909    1.8411 H   0  0  0  0  0  0  0  0  0  0  0  0
   -0.5785    3.1681    1.4610 C   0  0  0  0  0  0  0  0  0  0  0  0
   -1.6131    3.3321    1.7801 H   0  0  0  0  0  0  0  0  0  0  0  0
    0.0873    3.5731    2.2290 H   0  0  0  0  0  0  0  0  0  0  0  0
   -0.4057    3.7161    0.5289 H   0  0  0  0  0  0  0  0  0  0  0  0
  1  2  1  0  0  0  0
  2  3  1  0  0  0  0
  2  4  1  0  0  0  0
  2  5  1  0  0  0  0
  5  6  2  0  0  0  0
  5  7  1  0  0  0  0
  7  8  1  0  0  0  0
  7  9  1  0  0  0  0
  9 10  1  0  0  0  0
  9 11  1  0  0  0  0
  9 25  1  0  0  0  0
 11 12  1  0  0  0  0
 11 13  1  0  0  0  0
 11 14  1  0  0  0  0
 14 15  1  0  0  0  0
 14 23  2  0  0  0  0
 15 16  1  0  0  0  0
 15 17  2  0  0  0  0
 17 18  1  0  0  0  0
 17 19  1  0  0  0  0
 19 20  1  0  0  0  0
 19 21  2  0  0  0  0
 21 22  1  0  0  0  0
 21 23  1  0  0  0  0
 23 24  1  0  0  0  0
 25 26  2  0  0  0  0
 25 27  1  0  0  0  0
 27 28  1  0  0  0  0
 27 29  1  0  0  0  0
 29 30  1  0  0  0  0
 29 31  1  0  0  0  0
 29 32  1  0  0  0  0
M  END
$$$$

  -OEChem-04042216033D

 32 32  0     1  0  0  0  0  0999 V2000
   -3.6996   -3.9275    1.5768 H   0  0  0  0  0  0  0  0  0  0  0  0
   -3.6510   -3.0414    0.9378 C   0  0  0  0  0  0  0  0  0  0  0  0
   -4.3979   -2.3202    1.2786 H   0  0  0  0  0  0  0  0  0  0  0  0
   -3.8800   -3.3350   -0.0894 H   0  0  0  0  0  0  0  0  0  0  0  0
   -2.2664   -2.4244    1.0038 C   0  0  0  0  0  0  0  0  0  0  0  0
   -1.4084   -2.9258    1.7125 O   0  0  0  0  0  0  0  0  0  0  0  0
   -1.9887   -1.2906    0.2689 N   0  0  0  0  0  0  0  0  0  0  0  0
   -2.7621   -0.8541   -0.2310 H   0  0  0  0  0  0  0  0  0  0  0  0
   -0.7278   -0.5338    0.3313 C   0  0  1  0  0  0  0  0  0  0  0  0
   -0.1642   -0.8116    1.2282 H   0  0  0  0  0  0  0  0  0  0  0  0
    0.0923   -0.9123   -0.9246 C   0  0  0  0  0  0  0  0  0  0  0  0
   -0.1782   -1.9325   -1.2166 H   0  0  0  0  0  0  0  0  0  0  0  0
   -0.1965   -0.2596   -1.7550 H   0  0  0  0  0  0  0  0  0  0  0  0
    1.6015   -0.8582   -0.7614 C   0  0  0  0  0  0  0  0  0  0  0  0
    2.2662    0.2087   -0.1320 C   0  0  0  0  0  0  0  0  0  0  0  0
    1.7255    1.0792    0.2114 H   0  0  0  0  0  0  0  0  0  0  0  0
    3.6562    0.1964    0.0270 C   0  0  0  0  0  0  0  0  0  0  0  0
    4.1557    1.0331    0.5063 H   0  0  0  0  0  0  0  0  0  0  0  0
    4.4053   -0.8871   -0.4369 C   0  0  0  0  0  0  0  0  0  0  0  0
    5.4843   -0.8977   -0.3136 H   0  0  0  0  0  0  0  0  0  0  0  0
    3.7616   -1.9554   -1.0645 C   0  0  0  0  0  0  0  0  0  0  0  0
    4.3387   -2.8013   -1.4263 H   0  0  0  0  0  0  0  0  0  0  0  0
    2.3720   -1.9389   -1.2239 C   0  0  0  0  0  0  0  0  0  0  0  0
    1.8917   -2.7846   -1.7072 H   0  0  0  0  0  0  0  0  0  0  0  0
   -1.0568    0.9714    0.4078 C   0  0  0  0  0  0  0  0  0  0  0  0
   -1.9390    1.4377   -0.3050 O   0  0  0  0  0  0  0  0  0  0  0  0
   -0.4060    1.8000    1.3039 N   0  0  0  0  0  0  0  0  0  0  0  0
    0.2468    1.3660    1.9511 H   0  0  0  0  0  0  0  0  0  0  0  0
   -0.7342    3.2100    1.4750 C   0  0  0  0  0  0  0  0  0  0  0  0
   -1.7741    3.3250    1.7983 H   0  0  0  0  0  0  0  0  0  0  0  0
   -0.0846    3.6601    2.2319 H   0  0  0  0  0  0  0  0  0  0  0  0
   -0.5951    3.7532    0.5343 H   0  0  0  0  0  0  0  0  0  0  0  0
  1  2  1  0  0  0  0
  2  3  1  0  0  0  0
  2  4  1  0  0  0  0
  2  5  1  0  0  0  0
  5  6  2  0  0  0  0
  5  7  1  0  0  0  0
  7  8  1  0  0  0  0
  7  9  1  0  0  0  0
  9 10  1  0  0  0  0
  9 11  1  0  0  0  0
  9 25  1  0  0  0  0
 11 12  1  0  0  0  0
 11 13  1  0  0  0  0
 11 14  1  0  0  0  0
 14 15  1  0  0  0  0
 14 23  2  0  0  0  0
 15 16  1  0  0  0  0
 15 17  2  0  0  0  0
 17 18  1  0  0  0  0
 17 19  1  0  0  0  0
 19 20  1  0  0  0  0
 19 21  2  0  0  0  0
 21 22  1  0  0  0  0
 21 23  1  0  0  0  0
 23 24  1  0  0  0  0
 25 26  2  0  0  0  0
 25 27  1  0  0  0  0
 27 28  1  0  0  0  0
 27 29  1  0  0  0  0
 29 30  1  0  0  0  0
 29 31  1  0  0  0  0
 29 32  1  0  0  0  0
M  END
$$$$

  -OEChem-04042216033D

 32 32  0     1  0  0  0  0  0999 V2000
   -3.7439   -3.9180    1.5553 H   0  0  0  0  0  0  0  0  0  0  0  0
   -3.6742   -3.0377    0.9104 C   0  0  0  0  0  0  0  0  0  0  0  0
   -4.4332   -2.3144    1.2181 H   0  0  0  0  0  0  0  0  0  0  0  0
   -3.8668   -3.3408   -0.1215 H   0  0  0  0  0  0  0  0  0  0  0  0
   -2.2937   -2.4179    1.0187 C   0  0  0  0  0  0  0  0  0  0  0  0
   -1.4618   -2.9078    1.7656 O   0  0  0  0  0  0  0  0  0  0  0  0
   -1.9903   -1.2940    0.2790 N   0  0  0  0  0  0  0  0  0  0  0  0
   -2.7457   -0.8632   -0.2525 H   0  0  0  0  0  0  0  0  0  0  0  0
   -0.7287   -0.5413    0.3694 C   0  0  1  0  0  0  0  0  0  0  0  0
   -0.1875   -0.8166    1.2804 H   0  0  0  0  0  0  0  0  0  0  0  0
    0.1151   -0.9125   -0.8730 C   0  0  0  0  0  0  0  0  0  0  0  0
   -0.1504   -1.9336   -1.1675 H   0  0  0  0  0  0  0  0  0  0  0  0
   -0.1646   -0.2600   -1.7067 H   0  0  0  0  0  0  0  0  0  0  0  0
    1.6257   -0.8724   -0.7090 C   0  0  0  0  0  0  0  0  0  0  0  0
    2.2968   -0.0063    0.1731 C   0  0  0  0  0  0  0  0  0  0  0  0
    1.7583    0.7014    0.7857 H   0  0  0  0  0  0  0  0  0  0  0  0
    3.6923   -0.0252    0.2766 C   0  0  0  0  0  0  0  0  0  0  0  0
    4.1958    0.6506    0.9615 H   0  0  0  0  0  0  0  0  0  0  0  0
    4.4415   -0.9101   -0.5015 C   0  0  0  0  0  0  0  0  0  0  0  0
    5.5245   -0.9260   -0.4208 H   0  0  0  0  0  0  0  0  0  0  0  0
    3.7926   -1.7732   -1.3861 C   0  0  0  0  0  0  0  0  0  0  0  0
    4.3695   -2.4629   -1.9949 H   0  0  0  0  0  0  0  0  0  0  0  0
    2.3980   -1.7509   -1.4878 C   0  0  0  0  0  0  0  0  0  0  0  0
    1.9130   -2.4302   -2.1825 H   0  0  0  0  0  0  0  0  0  0  0  0
   -1.0587    0.9666    0.4185 C   0  0  0  0  0  0  0  0  0  0  0  0
   -1.9188    1.4213   -0.3282 O   0  0  0  0  0  0  0  0  0  0  0  0
   -0.4387    1.8133    1.3196 N   0  0  0  0  0  0  0  0  0  0  0  0
    0.1798    1.3926    2.0069 H   0  0  0  0  0  0  0  0  0  0  0  0
   -0.7713    3.2272    1.4470 C   0  0  0  0  0  0  0  0  0  0  0  0
   -1.8235    3.3503    1.7250 H   0  0  0  0  0  0  0  0  0  0  0  0
   -0.1520    3.6933    2.2195 H   0  0  0  0  0  0  0  0  0  0  0  0
   -0.5933    3.7494    0.5008 H   0  0  0  0  0  0  0  0  0  0  0  0
  1  2  1  0  0  0  0
  2  3  1  0  0  0  0
  2  4  1  0  0  0  0
  2  5  1  0  0  0  0
  5  6  2  0  0  0  0
  5  7  1  0  0  0  0
  7  8  1  0  0  0  0
  7  9  1  0  0  0  0
  9 10  1  0  0  0  0
  9 11  1  0  0  0  0
  9 25  1  0  0  0  0
 11 12  1  0  0  0  0
 11 13  1  0  0  0  0
 11 14  1  0  0  0  0
 14 15  1  0  0  0  0
 14 23  2  0  0  0  0
 15 16  1  0  0  0  0
 15 17  2  0  0  0  0
 17 18  1  0  0  0  0
 17 19  1  0  0  0  0
 19 20  1  0  0  0  0
 19 21  2  0  0  0  0
 21 22  1  0  0  0  0
 21 23  1  0  0  0  0
 23 24  1  0  0  0  0
 25 26  2  0  0  0  0
 25 27  1  0  0  0  0
 27 28  1  0  0  0  0
 27 29  1  0  0  0  0
 29 30  1  0  0  0  0
 29 31  1  0  0  0  0
 29 32  1  0  0  0  0
M  END
$$$$

  -OEChem-04042216033D

 32 32  0     1  0  0  0  0  0999 V2000
   -3.7879   -3.9279    1.5475 H   0  0  0  0  0  0  0  0  0  0  0  0
   -3.7126   -3.0473    0.9032 C   0  0  0  0  0  0  0  0  0  0  0  0
   -4.4708   -2.3217    1.2078 H   0  0  0  0  0  0  0  0  0  0  0  0
   -3.9015   -3.3494   -0.1297 H   0  0  0  0  0  0  0  0  0  0  0  0
   -2.3306   -2.4317    1.0181 C   0  0  0  0  0  0  0  0  0  0  0  0
   -1.5063   -2.9206    1.7741 O   0  0  0  0  0  0  0  0  0  0  0  0
   -2.0188   -1.3115    0.2760 N   0  0  0  0  0  0  0  0  0  0  0  0
   -2.7696   -0.8818   -0.2624 H   0  0  0  0  0  0  0  0  0  0  0  0
   -0.7560   -0.5619    0.3680 C   0  0  1  0  0  0  0  0  0  0  0  0
   -0.2360   -0.8448    1.2877 H   0  0  0  0  0  0  0  0  0  0  0  0
    0.1089   -0.9263   -0.8597 C   0  0  0  0  0  0  0  0  0  0  0  0
   -0.1399   -1.9522   -1.1521 H   0  0  0  0  0  0  0  0  0  0  0  0
   -0.1680   -0.2804   -1.6996 H   0  0  0  0  0  0  0  0  0  0  0  0
    1.6178   -0.8797   -0.6833 C   0  0  0  0  0  0  0  0  0  0  0  0
    2.2748   -0.2518    0.3925 C   0  0  0  0  0  0  0  0  0  0  0  0
    1.7260    0.2381    1.1846 H   0  0  0  0  0  0  0  0  0  0  0  0
    3.6720   -0.2433    0.4732 C   0  0  0  0  0  0  0  0  0  0  0  0
    4.1653    0.2435    1.3093 H   0  0  0  0  0  0  0  0  0  0  0  0
    4.4362   -0.8605   -0.5193 C   0  0  0  0  0  0  0  0  0  0  0  0
    5.5203   -0.8549   -0.4558 H   0  0  0  0  0  0  0  0  0  0  0  0
    3.8010   -1.4851   -1.5942 C   0  0  0  0  0  0  0  0  0  0  0  0
    4.3903   -1.9663   -2.3691 H   0  0  0  0  0  0  0  0  0  0  0  0
    2.4048   -1.4908   -1.6732 C   0  0  0  0  0  0  0  0  0  0  0  0
    1.9273   -1.9783   -2.5183 H   0  0  0  0  0  0  0  0  0  0  0  0
   -1.0508    0.9517    0.4111 C   0  0  0  0  0  0  0  0  0  0  0  0
   -1.9049    1.4220   -0.3327 O   0  0  0  0  0  0  0  0  0  0  0  0
   -0.4110    1.7831    1.3122 N   0  0  0  0  0  0  0  0  0  0  0  0
    0.2194    1.3546    1.9830 H   0  0  0  0  0  0  0  0  0  0  0  0
   -0.6904    3.2094    1.4222 C   0  0  0  0  0  0  0  0  0  0  0  0
   -1.7425    3.3753    1.6762 H   0  0  0  0  0  0  0  0  0  0  0  0
   -0.0705    3.6568    2.2049 H   0  0  0  0  0  0  0  0  0  0  0  0
   -0.4711    3.7161    0.4764 H   0  0  0  0  0  0  0  0  0  0  0  0
  1  2  1  0  0  0  0
  2  3  1  0  0  0  0
  2  4  1  0  0  0  0
  2  5  1  0  0  0  0
  5  6  2  0  0  0  0
  5  7  1  0  0  0  0
  7  8  1  0  0  0  0
  7  9  1  0  0  0  0
  9 10  1  0  0  0  0
  9 11  1  0  0  0  0
  9 25  1  0  0  0  0
 11 12  1  0  0  0  0
 11 13  1  0  0  0  0
 11 14  1  0  0  0  0
 14 15  1  0  0  0  0
 14 23  2  0  0  0  0
 15 16  1  0  0  0  0
 15 17  2  0  0  0  0
 17 18  1  0  0  0  0
 17 19  1  0  0  0  0
 19 20  1  0  0  0  0
 19 21  2  0  0  0  0
 21 22  1  0  0  0  0
 21 23  1  0  0  0  0
 23 24  1  0  0  0  0
 25 26  2  0  0  0  0
 25 27  1  0  0  0  0
 27 28  1  0  0  0  0
 27 29  1  0  0  0  0
 29 30  1  0  0  0  0
 29 31  1  0  0  0  0
 29 32  1  0  0  0  0
M  END
$$$$

  -OEChem-04042216033D

 32 32  0     1  0  0  0  0  0999 V2000
   -3.8172   -3.9442    1.5465 H   0  0  0  0  0  0  0  0  0  0  0  0
   -3.7458   -3.0620    0.9042 C   0  0  0  0  0  0  0  0  0  0  0  0
   -4.5000   -2.3360    1.2173 H   0  0  0  0  0  0  0  0  0  0  0  0
   -3.9438   -3.3609   -0.1279 H   0  0  0  0  0  0  0  0  0  0  0  0
   -2.3615   -2.4499    1.0089 C   0  0  0  0  0  0  0  0  0  0  0  0
   -1.5303   -2.9477    1.7517 O   0  0  0  0  0  0  0  0  0  0  0  0
   -2.0531   -1.3277    0.2675 N   0  0  0  0  0  0  0  0  0  0  0  0
   -2.8100   -0.8925   -0.2580 H   0  0  0  0  0  0  0  0  0  0  0  0
   -0.7893   -0.5782    0.3529 C   0  0  1  0  0  0  0  0  0  0  0  0
   -0.2924   -0.8679    1.2807 H   0  0  0  0  0  0  0  0  0  0  0  0
    0.0942   -0.9398   -0.8604 C   0  0  0  0  0  0  0  0  0  0  0  0
   -0.1395   -1.9698   -1.1509 H   0  0  0  0  0  0  0  0  0  0  0  0
   -0.1830   -0.3002   -1.7054 H   0  0  0  0  0  0  0  0  0  0  0  0
    1.6027   -0.8809   -0.6714 C   0  0  0  0  0  0  0  0  0  0  0  0
    2.2540   -0.5217    0.5269 C   0  0  0  0  0  0  0  0  0  0  0  0
    1.7081   -0.2717    1.4271 H   0  0  0  0  0  0  0  0  0  0  0  0
    3.6513   -0.4836    0.5991 C   0  0  0  0  0  0  0  0  0  0  0  0
    4.1400   -0.2101    1.5297 H   0  0  0  0  0  0  0  0  0  0  0  0
    4.4223   -0.8009   -0.5211 C   0  0  0  0  0  0  0  0  0  0  0  0
    5.5066   -0.7726   -0.4636 H   0  0  0  0  0  0  0  0  0  0  0  0
    3.7938   -1.1575   -1.7153 C   0  0  0  0  0  0  0  0  0  0  0  0
    4.3883   -1.4061   -2.5896 H   0  0  0  0  0  0  0  0  0  0  0  0
    2.3977   -1.1955   -1.7856 C   0  0  0  0  0  0  0  0  0  0  0  0
    1.9253   -1.4738   -2.7232 H   0  0  0  0  0  0  0  0  0  0  0  0
   -1.0478    0.9400    0.4027 C   0  0  0  0  0  0  0  0  0  0  0  0
   -1.9155    1.4289   -0.3126 O   0  0  0  0  0  0  0  0  0  0  0  0
   -0.3774    1.7477    1.3028 N   0  0  0  0  0  0  0  0  0  0  0  0
    0.3275    1.3152    1.8916 H   0  0  0  0  0  0  0  0  0  0  0  0
   -0.5984    3.1846    1.4078 C   0  0  0  0  0  0  0  0  0  0  0  0
   -1.6460    3.3954    1.6470 H   0  0  0  0  0  0  0  0  0  0  0  0
    0.0277    3.6065    2.1997 H   0  0  0  0  0  0  0  0  0  0  0  0
   -0.3452    3.6804    0.4649 H   0  0  0  0  0  0  0  0  0  0  0  0
  1  2  1  0  0  0  0
  2  3  1  0  0  0  0
  2  4  1  0  0  0  0
  2  5  1  0  0  0  0
  5  6  2  0  0  0  0
  5  7  1  0  0  0  0
  7  8  1  0  0  0  0
  7  9  1  0  0  0  0
  9 10  1  0  0  0  0
  9 11  1  0  0  0  0
  9 25  1  0  0  0  0
 11 12  1  0  0  0  0
 11 13  1  0  0  0  0
 11 14  1  0  0  0  0
 14 15  1  0  0  0  0
 14 23  2  0  0  0  0
 15 16  1  0  0  0  0
 15 17  2  0  0  0  0
 17 18  1  0  0  0  0
 17 19  1  0  0  0  0
 19 20  1  0  0  0  0
 19 21  2  0  0  0  0
 21 22  1  0  0  0  0
 21 23  1  0  0  0  0
 23 24  1  0  0  0  0
 25 26  2  0  0  0  0
 25 27  1  0  0  0  0
 27 28  1  0  0  0  0
 27 29  1  0  0  0  0
 29 30  1  0  0  0  0
 29 31  1  0  0  0  0
 29 32  1  0  0  0  0
M  END
$$$$

  -OEChem-04042216033D

 32 32  0     1  0  0  0  0  0999 V2000
   -3.8422   -3.9473    1.5610 H   0  0  0  0  0  0  0  0  0  0  0  0
   -3.7720   -3.0673    0.9156 C   0  0  0  0  0  0  0  0  0  0  0  0
   -4.5187   -2.3361    1.2346 H   0  0  0  0  0  0  0  0  0  0  0  0
   -3.9826   -3.3680   -0.1135 H   0  0  0  0  0  0  0  0  0  0  0  0
   -2.3832   -2.4625    1.0049 C   0  0  0  0  0  0  0  0  0  0  0  0
   -1.5465   -2.9657    1.7382 O   0  0  0  0  0  0  0  0  0  0  0  0
   -2.0779   -1.3398    0.2625 N   0  0  0  0  0  0  0  0  0  0  0  0
   -2.8376   -0.9011   -0.2558 H   0  0  0  0  0  0  0  0  0  0  0  0
   -0.8111   -0.5950    0.3389 C   0  0  1  0  0  0  0  0  0  0  0  0
   -0.3257   -0.8826    1.2709 H   0  0  0  0  0  0  0  0  0  0  0  0
    0.0759   -0.9575   -0.8713 C   0  0  0  0  0  0  0  0  0  0  0  0
   -0.1518   -1.9888   -1.1602 H   0  0  0  0  0  0  0  0  0  0  0  0
   -0.2059   -0.3208   -1.7172 H   0  0  0  0  0  0  0  0  0  0  0  0
    1.5842   -0.8954   -0.6753 C   0  0  0  0  0  0  0  0  0  0  0  0
    2.2366   -0.8321    0.5743 C   0  0  0  0  0  0  0  0  0  0  0  0
    1.6989   -0.8669    1.5133 H   0  0  0  0  0  0  0  0  0  0  0  0
    3.6314   -0.7493    0.6505 C   0  0  0  0  0  0  0  0  0  0  0  0
    4.1195   -0.7097    1.6198 H   0  0  0  0  0  0  0  0  0  0  0  0
    4.4002   -0.7268   -0.5146 C   0  0  0  0  0  0  0  0  0  0  0  0
    5.4828   -0.6635   -0.4533 H   0  0  0  0  0  0  0  0  0  0  0  0
    3.7717   -0.7921   -1.7590 C   0  0  0  0  0  0  0  0  0  0  0  0
    4.3644   -0.7778   -2.6690 H   0  0  0  0  0  0  0  0  0  0  0  0
    2.3778   -0.8753   -1.8343 C   0  0  0  0  0  0  0  0  0  0  0  0
    1.9070   -0.9217   -2.8120 H   0  0  0  0  0  0  0  0  0  0  0  0
   -1.0405    0.9263    0.3945 C   0  0  0  0  0  0  0  0  0  0  0  0
   -1.9091    1.4350   -0.3055 O   0  0  0  0  0  0  0  0  0  0  0  0
   -0.3418    1.7104    1.2937 N   0  0  0  0  0  0  0  0  0  0  0  0
    0.3978    1.2642    1.8281 H   0  0  0  0  0  0  0  0  0  0  0  0
   -0.5046    3.1554    1.3905 C   0  0  0  0  0  0  0  0  0  0  0  0
   -1.5465    3.4110    1.6108 H   0  0  0  0  0  0  0  0  0  0  0  0
    0.1240    3.5533    2.1930 H   0  0  0  0  0  0  0  0  0  0  0  0
   -0.2140    3.6367    0.4508 H   0  0  0  0  0  0  0  0  0  0  0  0
  1  2  1  0  0  0  0
  2  3  1  0  0  0  0
  2  4  1  0  0  0  0
  2  5  1  0  0  0  0
  5  6  2  0  0  0  0
  5  7  1  0  0  0  0
  7  8  1  0  0  0  0
  7  9  1  0  0  0  0
  9 10  1  0  0  0  0
  9 11  1  0  0  0  0
  9 25  1  0  0  0  0
 11 12  1  0  0  0  0
 11 13  1  0  0  0  0
 11 14  1  0  0  0  0
 14 15  1  0  0  0  0
 14 23  2  0  0  0  0
 15 16  1  0  0  0  0
 15 17  2  0  0  0  0
 17 18  1  0  0  0  0
 17 19  1  0  0  0  0
 19 20  1  0  0  0  0
 19 21  2  0  0  0  0
 21 22  1  0  0  0  0
 21 23  1  0  0  0  0
 23 24  1  0  0  0  0
 25 26  2  0  0  0  0
 25 27  1  0  0  0  0
 27 28  1  0  0  0  0
 27 29  1  0  0  0  0
 29 30  1  0  0  0  0
 29 31  1  0  0  0  0
 29 32  1  0  0  0  0
M  END
$$$$

  -OEChem-04042216033D

 32 32  0     1  0  0  0  0  0999 V2000
   -3.8307   -3.9276    1.6084 H   0  0  0  0  0  0  0  0  0  0  0  0
   -3.7663   -3.0537    0.9541 C   0  0  0  0  0  0  0  0  0  0  0  0
   -4.4987   -2.3125    1.2828 H   0  0  0  0  0  0  0  0  0  0  0  0
   -4.0021   -3.3604   -0.0677 H   0  0  0  0  0  0  0  0  0  0  0  0
   -2.3700   -2.4624    1.0077 C   0  0  0  0  0  0  0  0  0  0  0  0
   -1.5156   -2.9780    1.7117 O   0  0  0  0  0  0  0  0  0  0  0  0
   -2.0741   -1.3403    0.2613 N   0  0  0  0  0  0  0  0  0  0  0  0
   -2.8438   -0.8869   -0.2285 H   0  0  0  0  0  0  0  0  0  0  0  0
   -0.7998   -0.6082    0.3169 C   0  0  1  0  0  0  0  0  0  0  0  0
   -0.2957   -0.8896    1.2408 H   0  0  0  0  0  0  0  0  0  0  0  0
    0.0581   -0.9683   -0.9150 C   0  0  0  0  0  0  0  0  0  0  0  0
   -0.1774   -1.9967   -1.2074 H   0  0  0  0  0  0  0  0  0  0  0  0
   -0.2353   -0.3254   -1.7520 H   0  0  0  0  0  0  0  0  0  0  0  0
    1.5653   -0.9146   -0.7207 C   0  0  0  0  0  0  0  0  0  0  0  0
    2.2099   -1.1719    0.5063 C   0  0  0  0  0  0  0  0  0  0  0  0
    1.6617   -1.5012    1.3820 H   0  0  0  0  0  0  0  0  0  0  0  0
    3.5998   -1.0607    0.6224 C   0  0  0  0  0  0  0  0  0  0  0  0
    4.0826   -1.2763    1.5713 H   0  0  0  0  0  0  0  0  0  0  0  0
    4.3693   -0.6869   -0.4813 C   0  0  0  0  0  0  0  0  0  0  0  0
    5.4483   -0.6032   -0.3904 H   0  0  0  0  0  0  0  0  0  0  0  0
    3.7470   -0.4302   -1.7044 C   0  0  0  0  0  0  0  0  0  0  0  0
    4.3412   -0.1424   -2.5667 H   0  0  0  0  0  0  0  0  0  0  0  0
    2.3577   -0.5433   -1.8198 C   0  0  0  0  0  0  0  0  0  0  0  0
    1.8923   -0.3333   -2.7787 H   0  0  0  0  0  0  0  0  0  0  0  0
   -1.0203    0.9140    0.3819 C   0  0  0  0  0  0  0  0  0  0  0  0
   -1.9052    1.4275   -0.2940 O   0  0  0  0  0  0  0  0  0  0  0  0
   -0.3019    1.6924    1.2703 N   0  0  0  0  0  0  0  0  0  0  0  0
    0.4572    1.2444    1.7761 H   0  0  0  0  0  0  0  0  0  0  0  0
   -0.4639    3.1370    1.3780 C   0  0  0  0  0  0  0  0  0  0  0  0
   -1.5003    3.3899    1.6257 H   0  0  0  0  0  0  0  0  0  0  0  0
    0.1842    3.5325    2.1660 H   0  0  0  0  0  0  0  0  0  0  0  0
   -0.1985    3.6235    0.4335 H   0  0  0  0  0  0  0  0  0  0  0  0
  1  2  1  0  0  0  0
  2  3  1  0  0  0  0
  2  4  1  0  0  0  0
  2  5  1  0  0  0  0
  5  6  2  0  0  0  0
  5  7  1  0  0  0  0
  7  8  1  0  0  0  0
  7  9  1  0  0  0  0
  9 10  1  0  0  0  0
  9 11  1  0  0  0  0
  9 25  1  0  0  0  0
 11 12  1  0  0  0  0
 11 13  1  0  0  0  0
 11 14  1  0  0  0  0
 14 15  1  0  0  0  0
 14 23  2  0  0  0  0
 15 16  1  0  0  0  0
 15 17  2  0  0  0  0
 17 18  1  0  0  0  0
 17 19  1  0  0  0  0
 19 20  1  0  0  0  0
 19 21  2  0  0  0  0
 21 22  1  0  0  0  0
 21 23  1  0  0  0  0
 23 24  1  0  0  0  0
 25 26  2  0  0  0  0
 25 27  1  0  0  0  0
 27 28  1  0  0  0  0
 27 29  1  0  0  0  0
 29 30  1  0  0  0  0
 29 31  1  0  0  0  0
 29 32  1  0  0  0  0
M  END
$$$$

  -OEChem-04042216033D

 32 32  0     1  0  0  0  0  0999 V2000
   -3.7776   -3.9251    1.6752 H   0  0  0  0  0  0  0  0  0  0  0  0
   -3.7338   -3.0567    1.0122 C   0  0  0  0  0  0  0  0  0  0  0  0
   -4.4436   -2.3062    1.3683 H   0  0  0  0  0  0  0  0  0  0  0  0
   -4.0176   -3.3682    0.0042 H   0  0  0  0  0  0  0  0  0  0  0  0
   -2.3313   -2.4784    0.9989 C   0  0  0  0  0  0  0  0  0  0  0  0
   -1.4438   -3.0133    1.6456 O   0  0  0  0  0  0  0  0  0  0  0  0
   -2.0653   -1.3487    0.2531 N   0  0  0  0  0  0  0  0  0  0  0  0
   -2.8561   -0.8819   -0.1883 H   0  0  0  0  0  0  0  0  0  0  0  0
   -0.7892   -0.6184    0.2711 C   0  0  1  0  0  0  0  0  0  0  0  0
   -0.2466   -0.9057    1.1737 H   0  0  0  0  0  0  0  0  0  0  0  0
    0.0291   -0.9677   -0.9884 C   0  0  0  0  0  0  0  0  0  0  0  0
   -0.2045   -1.9949   -1.2862 H   0  0  0  0  0  0  0  0  0  0  0  0
   -0.2787   -0.3187   -1.8154 H   0  0  0  0  0  0  0  0  0  0  0  0
    1.5301   -0.8997   -0.7835 C   0  0  0  0  0  0  0  0  0  0  0  0
    2.1584   -1.4553    0.3465 C   0  0  0  0  0  0  0  0  0  0  0  0
    1.5865   -2.0149    1.0814 H   0  0  0  0  0  0  0  0  0  0  0  0
    3.5400   -1.3346    0.5279 C   0  0  0  0  0  0  0  0  0  0  0  0
    4.0127   -1.7784    1.3993 H   0  0  0  0  0  0  0  0  0  0  0  0
    4.3131   -0.6532   -0.4151 C   0  0  0  0  0  0  0  0  0  0  0  0
    5.3862   -0.5607   -0.2749 H   0  0  0  0  0  0  0  0  0  0  0  0
    3.7029   -0.0965   -1.5418 C   0  0  0  0  0  0  0  0  0  0  0  0
    4.3019    0.4325   -2.2771 H   0  0  0  0  0  0  0  0  0  0  0  0
    2.3210   -0.2192   -1.7229 C   0  0  0  0  0  0  0  0  0  0  0  0
    1.8632    0.2255   -2.6018 H   0  0  0  0  0  0  0  0  0  0  0  0
   -1.0024    0.9036    0.3604 C   0  0  0  0  0  0  0  0  0  0  0  0
   -1.9074    1.4278   -0.2797 O   0  0  0  0  0  0  0  0  0  0  0  0
   -0.2498    1.6696    1.2310 N   0  0  0  0  0  0  0  0  0  0  0  0
    0.5240    1.2121    1.7057 H   0  0  0  0  0  0  0  0  0  0  0  0
   -0.4048    3.1126    1.3649 C   0  0  0  0  0  0  0  0  0  0  0  0
   -1.4299    3.3630    1.6578 H   0  0  0  0  0  0  0  0  0  0  0  0
    0.2753    3.4964    2.1313 H   0  0  0  0  0  0  0  0  0  0  0  0
   -0.1770    3.6113    0.4172 H   0  0  0  0  0  0  0  0  0  0  0  0
  1  2  1  0  0  0  0
  2  3  1  0  0  0  0
  2  4  1  0  0  0  0
  2  5  1  0  0  0  0
  5  6  2  0  0  0  0
  5  7  1  0  0  0  0
  7  8  1  0  0  0  0
  7  9  1  0  0  0  0
  9 10  1  0  0  0  0
  9 11  1  0  0  0  0
  9 25  1  0  0  0  0
 11 12  1  0  0  0  0
 11 13  1  0  0  0  0
 11 14  1  0  0  0  0
 14 15  1  0  0  0  0
 14 23  2  0  0  0  0
 15 16  1  0  0  0  0
 15 17  2  0  0  0  0
 17 18  1  0  0  0  0
 17 19  1  0  0  0  0
 19 20  1  0  0  0  0
 19 21  2  0  0  0  0
 21 22  1  0  0  0  0
 21 23  1  0  0  0  0
 23 24  1  0  0  0  0
 25 26  2  0  0  0  0
 25 27  1  0  0  0  0
 27 28  1  0  0  0  0
 27 29  1  0  0  0  0
 29 30  1  0  0  0  0
 29 31  1  0  0  0  0
 29 32  1  0  0  0  0
M  END
$$$$

  -OEChem-04042216033D

 32 32  0     1  0  0  0  0  0999 V2000
   -3.7157   -3.9397    1.7101 H   0  0  0  0  0  0  0  0  0  0  0  0
   -3.6949   -3.0695    1.0481 C   0  0  0  0  0  0  0  0  0  0  0  0
   -4.3899   -2.3186    1.4319 H   0  0  0  0  0  0  0  0  0  0  0  0
   -4.0166   -3.3776    0.0503 H   0  0  0  0  0  0  0  0  0  0  0  0
   -2.2926   -2.4935    0.9851 C   0  0  0  0  0  0  0  0  0  0  0  0
   -1.3807   -3.0387    1.5878 O   0  0  0  0  0  0  0  0  0  0  0  0
   -2.0545   -1.3545    0.2440 N   0  0  0  0  0  0  0  0  0  0  0  0
   -2.8612   -0.8831   -0.1626 H   0  0  0  0  0  0  0  0  0  0  0  0
   -0.7810   -0.6198    0.2292 C   0  0  1  0  0  0  0  0  0  0  0  0
   -0.2034   -0.9183    1.1087 H   0  0  0  0  0  0  0  0  0  0  0  0
    0.0065   -0.9605   -1.0486 C   0  0  0  0  0  0  0  0  0  0  0  0
   -0.2212   -1.9883   -1.3501 H   0  0  0  0  0  0  0  0  0  0  0  0
   -0.3091   -0.3077   -1.8696 H   0  0  0  0  0  0  0  0  0  0  0  0
    1.4986   -0.8696   -0.8239 C   0  0  0  0  0  0  0  0  0  0  0  0
    2.1330   -1.6763    0.1350 C   0  0  0  0  0  0  0  0  0  0  0  0
    1.5572   -2.4056    0.7003 H   0  0  0  0  0  0  0  0  0  0  0  0
    3.5079   -1.5612    0.3645 C   0  0  0  0  0  0  0  0  0  0  0  0
    3.9878   -2.1951    1.1046 H   0  0  0  0  0  0  0  0  0  0  0  0
    4.2626   -0.6346   -0.3605 C   0  0  0  0  0  0  0  0  0  0  0  0
    5.3307   -0.5461   -0.1840 H   0  0  0  0  0  0  0  0  0  0  0  0
    3.6405    0.1750   -1.3154 C   0  0  0  0  0  0  0  0  0  0  0  0
    4.2253    0.8945   -1.8809 H   0  0  0  0  0  0  0  0  0  0  0  0
    2.2650    0.0590   -1.5439 C   0  0  0  0  0  0  0  0  0  0  0  0
    1.7940    0.6993   -2.2842 H   0  0  0  0  0  0  0  0  0  0  0  0
   -0.9917    0.9002    0.3424 C   0  0  0  0  0  0  0  0  0  0  0  0
   -1.9174    1.4317   -0.2609 O   0  0  0  0  0  0  0  0  0  0  0  0
   -0.2102    1.6547    1.1973 N   0  0  0  0  0  0  0  0  0  0  0  0
    0.5791    1.1904    1.6395 H   0  0  0  0  0  0  0  0  0  0  0  0
   -0.3611    3.0954    1.3567 C   0  0  0  0  0  0  0  0  0  0  0  0
   -1.3757    3.3404    1.6884 H   0  0  0  0  0  0  0  0  0  0  0  0
    0.3449    3.4689    2.1046 H   0  0  0  0  0  0  0  0  0  0  0  0
   -0.1660    3.6073    0.4086 H   0  0  0  0  0  0  0  0  0  0  0  0
  1  2  1  0  0  0  0
  2  3  1  0  0  0  0
  2  4  1  0  0  0  0
  2  5  1  0  0  0  0
  5  6  2  0  0  0  0
  5  7  1  0  0  0  0
  7  8  1  0  0  0  0
  7  9  1  0  0  0  0
  9 10  1  0  0  0  0
  9 11  1  0  0  0  0
  9 25  1  0  0  0  0
 11 12  1  0  0  0  0
 11 13  1  0  0  0  0
 11 14  1  0  0  0  0
 14 15  1  0  0  0  0
 14 23  2  0  0  0  0
 15 16  1  0  0  0  0
 15 17  2  0  0  0  0
 17 18  1  0  0  0  0
 17 19  1  0  0  0  0
 19 20  1  0  0  0  0
 19 21  2  0  0  0  0
 21 22  1  0  0  0  0
 21 23  1  0  0  0  0
 23 24  1  0  0  0  0
 25 26  2  0  0  0  0
 25 27  1  0  0  0  0
 27 28  1  0  0  0  0
 27 29  1  0  0  0  0
 29 30  1  0  0  0  0
 29 31  1  0  0  0  0
 29 32  1  0  0  0  0
M  END
$$$$

  -OEChem-04042216033D

 32 32  0     1  0  0  0  0  0999 V2000
   -3.6808   -3.9417    1.7296 H   0  0  0  0  0  0  0  0  0  0  0  0
   -3.6705   -3.0748    1.0630 C   0  0  0  0  0  0  0  0  0  0  0  0
   -4.3571   -2.3212    1.4562 H   0  0  0  0  0  0  0  0  0  0  0  0
   -4.0112   -3.3870    0.0729 H   0  0  0  0  0  0  0  0  0  0  0  0
   -2.2687   -2.5018    0.9709 C   0  0  0  0  0  0  0  0  0  0  0  0
   -1.3436   -3.0569    1.5434 O   0  0  0  0  0  0  0  0  0  0  0  0
   -2.0460   -1.3567    0.2344 N   0  0  0  0  0  0  0  0  0  0  0  0
   -2.8617   -0.8825   -0.1499 H   0  0  0  0  0  0  0  0  0  0  0  0
   -0.7753   -0.6175    0.2034 C   0  0  1  0  0  0  0  0  0  0  0  0
   -0.1777   -0.9236    1.0682 H   0  0  0  0  0  0  0  0  0  0  0  0
   -0.0037   -0.9541   -1.0819 C   0  0  0  0  0  0  0  0  0  0  0  0
   -0.2290   -1.9806   -1.3893 H   0  0  0  0  0  0  0  0  0  0  0  0
   -0.3180   -0.2964   -1.8995 H   0  0  0  0  0  0  0  0  0  0  0  0
    1.4812   -0.8476   -0.8399 C   0  0  0  0  0  0  0  0  0  0  0  0
    2.1532   -1.8438   -0.1160 C   0  0  0  0  0  0  0  0  0  0  0  0
    1.6052   -2.7060    0.2567 H   0  0  0  0  0  0  0  0  0  0  0  0
    3.5248   -1.7338    0.1355 C   0  0  0  0  0  0  0  0  0  0  0  0
    4.0362   -2.5114    0.6954 H   0  0  0  0  0  0  0  0  0  0  0  0
    4.2348   -0.6241   -0.3330 C   0  0  0  0  0  0  0  0  0  0  0  0
    5.2999   -0.5390   -0.1388 H   0  0  0  0  0  0  0  0  0  0  0  0
    3.5717    0.3754   -1.0519 C   0  0  0  0  0  0  0  0  0  0  0  0
    4.1215    1.2385   -1.4156 H   0  0  0  0  0  0  0  0  0  0  0  0
    2.1997    0.2643   -1.3032 C   0  0  0  0  0  0  0  0  0  0  0  0
    1.6929    1.0487   -1.8585 H   0  0  0  0  0  0  0  0  0  0  0  0
   -0.9860    0.9013    0.3305 C   0  0  0  0  0  0  0  0  0  0  0  0
   -1.9149    1.4382   -0.2628 O   0  0  0  0  0  0  0  0  0  0  0  0
   -0.1912    1.6506    1.1776 N   0  0  0  0  0  0  0  0  0  0  0  0
    0.5957    1.1796    1.6172 H   0  0  0  0  0  0  0  0  0  0  0  0
   -0.3438    3.0888    1.3556 C   0  0  0  0  0  0  0  0  0  0  0  0
   -1.3539    3.3266    1.7052 H   0  0  0  0  0  0  0  0  0  0  0  0
    0.3723    3.4557    2.0970 H   0  0  0  0  0  0  0  0  0  0  0  0
   -0.1649    3.6127    0.4109 H   0  0  0  0  0  0  0  0  0  0  0  0
  1  2  1  0  0  0  0
  2  3  1  0  0  0  0
  2  4  1  0  0  0  0
  2  5  1  0  0  0  0
  5  6  2  0  0  0  0
  5  7  1  0  0  0  0
  7  8  1  0  0  0  0
  7  9  1  0  0  0  0
  9 10  1  0  0  0  0
  9 11  1  0  0  0  0
  9 25  1  0  0  0  0
 11 12  1  0  0  0  0
 11 13  1  0  0  0  0
 11 14  1  0  0  0  0
 14 15  1  0  0  0  0
 14 23  2  0  0  0  0
 15 16  1  0  0  0  0
 15 17  2  0  0  0  0
 17 18  1  0  0  0  0
 17 19  1  0  0  0  0
 19 20  1  0  0  0  0
 19 21  2  0  0  0  0
 21 22  1  0  0  0  0
 21 23  1  0  0  0  0
 23 24  1  0  0  0  0
 25 26  2  0  0  0  0
 25 27  1  0  0  0  0
 27 28  1  0  0  0  0
 27 29  1  0  0  0  0
 29 30  1  0  0  0  0
 29 31  1  0  0  0  0
 29 32  1  0  0  0  0
M  END
$$$$

  -OEChem-04042216033D

 32 32  0     1  0  0  0  0  0999 V2000
   -3.6784   -3.9505    1.7004 H   0  0  0  0  0  0  0  0  0  0  0  0
   -3.6651   -3.0800    1.0385 C   0  0  0  0  0  0  0  0  0  0  0  0
   -4.3652   -2.3345    1.4235 H   0  0  0  0  0  0  0  0  0  0  0  0
   -3.9858   -3.3901    0.0410 H   0  0  0  0  0  0  0  0  0  0  0  0
   -2.2671   -2.4941    0.9726 C   0  0  0  0  0  0  0  0  0  0  0  0
   -1.3471   -3.0445    1.5571 O   0  0  0  0  0  0  0  0  0  0  0  0
   -2.0424   -1.3469    0.2400 N   0  0  0  0  0  0  0  0  0  0  0  0
   -2.8558   -0.8801   -0.1581 H   0  0  0  0  0  0  0  0  0  0  0  0
   -0.7738   -0.6038    0.2137 C   0  0  1  0  0  0  0  0  0  0  0  0
   -0.1735   -0.9113    1.0770 H   0  0  0  0  0  0  0  0  0  0  0  0
   -0.0007   -0.9468   -1.0688 C   0  0  0  0  0  0  0  0  0  0  0  0
   -0.2317   -1.9722   -1.3761 H   0  0  0  0  0  0  0  0  0  0  0  0
   -0.3084   -0.2883   -1.8879 H   0  0  0  0  0  0  0  0  0  0  0  0
    1.4836   -0.8377   -0.8250 C   0  0  0  0  0  0  0  0  0  0  0  0
    2.2125   -1.9496   -0.3792 C   0  0  0  0  0  0  0  0  0  0  0  0
    1.7068   -2.8955   -0.2025 H   0  0  0  0  0  0  0  0  0  0  0  0
    3.5881   -1.8473   -0.1456 C   0  0  0  0  0  0  0  0  0  0  0  0
    4.1434   -2.7129    0.2036 H   0  0  0  0  0  0  0  0  0  0  0  0
    4.2461   -0.6321   -0.3598 C   0  0  0  0  0  0  0  0  0  0  0  0
    5.3142   -0.5533   -0.1792 H   0  0  0  0  0  0  0  0  0  0  0  0
    3.5271    0.4802   -0.8081 C   0  0  0  0  0  0  0  0  0  0  0  0
    4.0371    1.4238   -0.9787 H   0  0  0  0  0  0  0  0  0  0  0  0
    2.1513    0.3770   -1.0406 C   0  0  0  0  0  0  0  0  0  0  0  0
    1.6018    1.2460   -1.3921 H   0  0  0  0  0  0  0  0  0  0  0  0
   -0.9932    0.9135    0.3432 C   0  0  0  0  0  0  0  0  0  0  0  0
   -1.9151    1.4492   -0.2617 O   0  0  0  0  0  0  0  0  0  0  0  0
   -0.2053    1.6658    1.1941 N   0  0  0  0  0  0  0  0  0  0  0  0
    0.5699    1.1932    1.6525 H   0  0  0  0  0  0  0  0  0  0  0  0
   -0.3662    3.1026    1.3762 C   0  0  0  0  0  0  0  0  0  0  0  0
   -1.3821    3.3350    1.7129 H   0  0  0  0  0  0  0  0  0  0  0  0
    0.3383    3.4694    2.1288 H   0  0  0  0  0  0  0  0  0  0  0  0
   -0.1767    3.6312    0.4362 H   0  0  0  0  0  0  0  0  0  0  0  0
  1  2  1  0  0  0  0
  2  3  1  0  0  0  0
  2  4  1  0  0  0  0
  2  5  1  0  0  0  0
  5  6  2  0  0  0  0
  5  7  1  0  0  0  0
  7  8  1  0  0  0  0
  7  9  1  0  0  0  0
  9 10  1  0  0  0  0
  9 11  1  0  0  0  0
  9 25  1  0  0  0  0
 11 12  1  0  0  0  0
 11 13  1  0  0  0  0
 11 14  1  0  0  0  0
 14 15  1  0  0  0  0
 14 23  2  0  0  0  0
 15 16  1  0  0  0  0
 15 17  2  0  0  0  0
 17 18  1  0  0  0  0
 17 19  1  0  0  0  0
 19 20  1  0  0  0  0
 19 21  2  0  0  0  0
 21 22  1  0  0  0  0
 21 23  1  0  0  0  0
 23 24  1  0  0  0  0
 25 26  2  0  0  0  0
 25 27  1  0  0  0  0
 27 28  1  0  0  0  0
 27 29  1  0  0  0  0
 29 30  1  0  0  0  0
 29 31  1  0  0  0  0
 29 32  1  0  0  0  0
M  END
$$$$

  -OEChem-04042216033D

 32 32  0     1  0  0  0  0  0999 V2000
   -3.6919   -3.9511    1.6639 H   0  0  0  0  0  0  0  0  0  0  0  0
   -3.6707   -3.0743    1.0107 C   0  0  0  0  0  0  0  0  0  0  0  0
   -4.3787   -2.3345    1.3922 H   0  0  0  0  0  0  0  0  0  0  0  0
   -3.9751   -3.3757    0.0056 H   0  0  0  0  0  0  0  0  0  0  0  0
   -2.2734   -2.4842    0.9725 C   0  0  0  0  0  0  0  0  0  0  0  0
   -1.3648   -3.0286    1.5796 O   0  0  0  0  0  0  0  0  0  0  0  0
   -2.0378   -1.3361    0.2448 N   0  0  0  0  0  0  0  0  0  0  0  0
   -2.8442   -0.8741   -0.1725 H   0  0  0  0  0  0  0  0  0  0  0  0
   -0.7705   -0.5895    0.2380 C   0  0  1  0  0  0  0  0  0  0  0  0
   -0.1776   -0.8957    1.1068 H   0  0  0  0  0  0  0  0  0  0  0  0
    0.0157   -0.9396   -1.0375 C   0  0  0  0  0  0  0  0  0  0  0  0
   -0.2236   -1.9630   -1.3449 H   0  0  0  0  0  0  0  0  0  0  0  0
   -0.2833   -0.2800   -1.8592 H   0  0  0  0  0  0  0  0  0  0  0  0
    1.5036   -0.8365   -0.7992 C   0  0  0  0  0  0  0  0  0  0  0  0
    2.2815   -1.9950   -0.6571 C   0  0  0  0  0  0  0  0  0  0  0  0
    1.8111   -2.9739   -0.6872 H   0  0  0  0  0  0  0  0  0  0  0  0
    3.6629   -1.9032   -0.4552 C   0  0  0  0  0  0  0  0  0  0  0  0
    4.2536   -2.8065   -0.3343 H   0  0  0  0  0  0  0  0  0  0  0  0
    4.2818   -0.6505   -0.4087 C   0  0  0  0  0  0  0  0  0  0  0  0
    5.3542   -0.5796   -0.2528 H   0  0  0  0  0  0  0  0  0  0  0  0
    3.5189    0.5094   -0.5716 C   0  0  0  0  0  0  0  0  0  0  0  0
    4.0000    1.4828   -0.5494 H   0  0  0  0  0  0  0  0  0  0  0  0
    2.1378    0.4157   -0.7723 C   0  0  0  0  0  0  0  0  0  0  0  0
    1.5606    1.3243   -0.9182 H   0  0  0  0  0  0  0  0  0  0  0  0
   -1.0097    0.9254    0.3655 C   0  0  0  0  0  0  0  0  0  0  0  0
   -1.9185    1.4541   -0.2645 O   0  0  0  0  0  0  0  0  0  0  0  0
   -0.2452    1.6870    1.2297 N   0  0  0  0  0  0  0  0  0  0  0  0
    0.5069    1.2171    1.7277 H   0  0  0  0  0  0  0  0  0  0  0  0
   -0.4272    3.1213    1.4117 C   0  0  0  0  0  0  0  0  0  0  0  0
   -1.4476    3.3396    1.7438 H   0  0  0  0  0  0  0  0  0  0  0  0
    0.2690    3.4972    2.1676 H   0  0  0  0  0  0  0  0  0  0  0  0
   -0.2403    3.6528    0.4728 H   0  0  0  0  0  0  0  0  0  0  0  0
  1  2  1  0  0  0  0
  2  3  1  0  0  0  0
  2  4  1  0  0  0  0
  2  5  1  0  0  0  0
  5  6  2  0  0  0  0
  5  7  1  0  0  0  0
  7  8  1  0  0  0  0
  7  9  1  0  0  0  0
  9 10  1  0  0  0  0
  9 11  1  0  0  0  0
  9 25  1  0  0  0  0
 11 12  1  0  0  0  0
 11 13  1  0  0  0  0
 11 14  1  0  0  0  0
 14 15  1  0  0  0  0
 14 23  2  0  0  0  0
 15 16  1  0  0  0  0
 15 17  2  0  0  0  0
 17 18  1  0  0  0  0
 17 19  1  0  0  0  0
 19 20  1  0  0  0  0
 19 21  2  0  0  0  0
 21 22  1  0  0  0  0
 21 23  1  0  0  0  0
 23 24  1  0  0  0  0
 25 26  2  0  0  0  0
 25 27  1  0  0  0  0
 27 28  1  0  0  0  0
 27 29  1  0  0  0  0
 29 30  1  0  0  0  0
 29 31  1  0  0  0  0
 29 32  1  0  0  0  0
M  END
$$$$

  -OEChem-04042216033D

 32 32  0     1  0  0  0  0  0999 V2000
   -3.6988   -3.9511    1.6047 H   0  0  0  0  0  0  0  0  0  0  0  0
   -3.6664   -3.0647    0.9650 C   0  0  0  0  0  0  0  0  0  0  0  0
   -4.3956   -2.3385    1.3323 H   0  0  0  0  0  0  0  0  0  0  0  0
   -3.9331   -3.3554   -0.0540 H   0  0  0  0  0  0  0  0  0  0  0  0
   -2.2761   -2.4576    0.9826 C   0  0  0  0  0  0  0  0  0  0  0  0
   -1.3905   -2.9822    1.6388 O   0  0  0  0  0  0  0  0  0  0  0  0
   -2.0216   -1.3131    0.2558 N   0  0  0  0  0  0  0  0  0  0  0  0
   -2.8132   -0.8631   -0.2015 H   0  0  0  0  0  0  0  0  0  0  0  0
   -0.7567   -0.5619    0.2845 C   0  0  1  0  0  0  0  0  0  0  0  0
   -0.1796   -0.8571    1.1674 H   0  0  0  0  0  0  0  0  0  0  0  0
    0.0493   -0.9309   -0.9781 C   0  0  0  0  0  0  0  0  0  0  0  0
   -0.2045   -1.9535   -1.2767 H   0  0  0  0  0  0  0  0  0  0  0  0
   -0.2393   -0.2768   -1.8076 H   0  0  0  0  0  0  0  0  0  0  0  0
    1.5457   -0.8481   -0.7625 C   0  0  0  0  0  0  0  0  0  0  0  0
    2.3415   -1.9925   -0.9321 C   0  0  0  0  0  0  0  0  0  0  0  0
    1.8804   -2.9486   -1.1630 H   0  0  0  0  0  0  0  0  0  0  0  0
    3.7313   -1.9262   -0.7864 C   0  0  0  0  0  0  0  0  0  0  0  0
    4.3317   -2.8239   -0.9023 H   0  0  0  0  0  0  0  0  0  0  0  0
    4.3465   -0.7059   -0.4958 C   0  0  0  0  0  0  0  0  0  0  0  0
    5.4256   -0.6538   -0.3844 H   0  0  0  0  0  0  0  0  0  0  0  0
    3.5709    0.4490   -0.3659 C   0  0  0  0  0  0  0  0  0  0  0  0
    4.0496    1.4030   -0.1658 H   0  0  0  0  0  0  0  0  0  0  0  0
    2.1810    0.3796   -0.5106 C   0  0  0  0  0  0  0  0  0  0  0  0
    1.6062    1.2973   -0.4510 H   0  0  0  0  0  0  0  0  0  0  0  0
   -1.0331    0.9490    0.3959 C   0  0  0  0  0  0  0  0  0  0  0  0
   -1.9278    1.4557   -0.2715 O   0  0  0  0  0  0  0  0  0  0  0  0
   -0.3167    1.7343    1.2806 N   0  0  0  0  0  0  0  0  0  0  0  0
    0.3924    1.2753    1.8469 H   0  0  0  0  0  0  0  0  0  0  0  0
   -0.5619    3.1584    1.4711 C   0  0  0  0  0  0  0  0  0  0  0  0
   -1.5993    3.3316    1.7766 H   0  0  0  0  0  0  0  0  0  0  0  0
    0.0976    3.5543    2.2492 H   0  0  0  0  0  0  0  0  0  0  0  0
   -0.3711    3.7074    0.5430 H   0  0  0  0  0  0  0  0  0  0  0  0
  1  2  1  0  0  0  0
  2  3  1  0  0  0  0
  2  4  1  0  0  0  0
  2  5  1  0  0  0  0
  5  6  2  0  0  0  0
  5  7  1  0  0  0  0
  7  8  1  0  0  0  0
  7  9  1  0  0  0  0
  9 10  1  0  0  0  0
  9 11  1  0  0  0  0
  9 25  1  0  0  0  0
 11 12  1  0  0  0  0
 11 13  1  0  0  0  0
 11 14  1  0  0  0  0
 14 15  1  0  0  0  0
 14 23  2  0  0  0  0
 15 16  1  0  0  0  0
 15 17  2  0  0  0  0
 17 18  1  0  0  0  0
 17 19  1  0  0  0  0
 19 20  1  0  0  0  0
 19 21  2  0  0  0  0
 21 22  1  0  0  0  0
 21 23  1  0  0  0  0
 23 24  1  0  0  0  0
 25 26  2  0  0  0  0
 25 27  1  0  0  0  0
 27 28  1  0  0  0  0
 27 29  1  0  0  0  0
 29 30  1  0  0  0  0
 29 31  1  0  0  0  0
 29 32  1  0  0  0  0
M  END
$$$$

  -OEChem-04042216033D

 32 32  0     1  0  0  0  0  0999 V2000
   -3.7015   -3.9469    1.5595 H   0  0  0  0  0  0  0  0  0  0  0  0
   -3.6560   -3.0579    0.9241 C   0  0  0  0  0  0  0  0  0  0  0  0
   -4.4066   -2.3412    1.2661 H   0  0  0  0  0  0  0  0  0  0  0  0
   -3.8814   -3.3484   -0.1049 H   0  0  0  0  0  0  0  0  0  0  0  0
   -2.2744   -2.4352    0.9956 C   0  0  0  0  0  0  0  0  0  0  0  0
   -1.4144   -2.9397    1.6996 O   0  0  0  0  0  0  0  0  0  0  0  0
   -1.9998   -1.2959    0.2682 N   0  0  0  0  0  0  0  0  0  0  0  0
   -2.7740   -0.8580   -0.2292 H   0  0  0  0  0  0  0  0  0  0  0  0
   -0.7389   -0.5396    0.3336 C   0  0  1  0  0  0  0  0  0  0  0  0
   -0.1766   -0.8231    1.2295 H   0  0  0  0  0  0  0  0  0  0  0  0
    0.0850   -0.9147   -0.9202 C   0  0  0  0  0  0  0  0  0  0  0  0
   -0.1796   -1.9356   -1.2154 H   0  0  0  0  0  0  0  0  0  0  0  0
   -0.1998   -0.2609   -1.7512 H   0  0  0  0  0  0  0  0  0  0  0  0
    1.5907   -0.8552   -0.7372 C   0  0  0  0  0  0  0  0  0  0  0  0
    2.3784   -1.9113   -1.2260 C   0  0  0  0  0  0  0  0  0  0  0  0
    1.9071   -2.7802   -1.6757 H   0  0  0  0  0  0  0  0  0  0  0  0
    3.7732   -1.8773   -1.1259 C   0  0  0  0  0  0  0  0  0  0  0  0
    4.3632   -2.7130   -1.4903 H   0  0  0  0  0  0  0  0  0  0  0  0
    4.4064   -0.7683   -0.5614 C   0  0  0  0  0  0  0  0  0  0  0  0
    5.4894   -0.7400   -0.4839 H   0  0  0  0  0  0  0  0  0  0  0  0
    3.6421    0.3114   -0.1146 C   0  0  0  0  0  0  0  0  0  0  0  0
    4.1331    1.1873    0.2988 H   0  0  0  0  0  0  0  0  0  0  0  0
    2.2470    0.2733   -0.2151 C   0  0  0  0  0  0  0  0  0  0  0  0
    1.6933    1.1493    0.0934 H   0  0  0  0  0  0  0  0  0  0  0  0
   -1.0592    0.9661    0.4226 C   0  0  0  0  0  0  0  0  0  0  0  0
   -1.9368    1.4451   -0.2872 O   0  0  0  0  0  0  0  0  0  0  0  0
   -0.3994    1.7810    1.3246 N   0  0  0  0  0  0  0  0  0  0  0  0
    0.2637    1.3389    1.9559 H   0  0  0  0  0  0  0  0  0  0  0  0
   -0.6994    3.1970    1.4955 C   0  0  0  0  0  0  0  0  0  0  0  0
   -1.7450    3.3350    1.7899 H   0  0  0  0  0  0  0  0  0  0  0  0
   -0.0614    3.6265    2.2738 H   0  0  0  0  0  0  0  0  0  0  0  0
   -0.5206    3.7415    0.5624 H   0  0  0  0  0  0  0  0  0  0  0  0
  1  2  1  0  0  0  0
  2  3  1  0  0  0  0
  2  4  1  0  0  0  0
  2  5  1  0  0  0  0
  5  6  2  0  0  0  0
  5  7  1  0  0  0  0
  7  8  1  0  0  0  0
  7  9  1  0  0  0  0
  9 10  1  0  0  0  0
  9 11  1  0  0  0  0
  9 25  1  0  0  0  0
 11 12  1  0  0  0  0
 11 13  1  0  0  0  0
 11 14  1  0  0  0  0
 14 15  1  0  0  0  0
 14 23  2  0  0  0  0
 15 16  1  0  0  0  0
 15 17  2  0  0  0  0
 17 18  1  0  0  0  0
 17 19  1  0  0  0  0
 19 20  1  0  0  0  0
 19 21  2  0  0  0  0
 21 22  1  0  0  0  0
 21 23  1  0  0  0  0
 23 24  1  0  0  0  0
 25 26  2  0  0  0  0
 25 27  1  0  0  0  0
 27 28  1  0  0  0  0
 27 29  1  0  0  0  0
 29 30  1  0  0  0  0
 29 31  1  0  0  0  0
 29 32  1  0  0  0  0
M  END
$$$$

  -OEChem-04042216033D

 32 32  0     1  0  0  0  0  0999 V2000
   -3.6934   -3.9569    1.5389 H   0  0  0  0  0  0  0  0  0  0  0  0
   -3.6429   -3.0684    0.9033 C   0  0  0  0  0  0  0  0  0  0  0  0
   -4.4156   -2.3637    1.2201 H   0  0  0  0  0  0  0  0  0  0  0  0
   -3.8313   -3.3648   -0.1314 H   0  0  0  0  0  0  0  0  0  0  0  0
   -2.2745   -2.4230    1.0158 C   0  0  0  0  0  0  0  0  0  0  0  0
   -1.4334   -2.9053    1.7573 O   0  0  0  0  0  0  0  0  0  0  0  0
   -1.9880   -1.2910    0.2813 N   0  0  0  0  0  0  0  0  0  0  0  0
   -2.7482   -0.8696   -0.2508 H   0  0  0  0  0  0  0  0  0  0  0  0
   -0.7319   -0.5285    0.3683 C   0  0  1  0  0  0  0  0  0  0  0  0
   -0.1805   -0.8053    1.2726 H   0  0  0  0  0  0  0  0  0  0  0  0
    0.1039   -0.8886   -0.8831 C   0  0  0  0  0  0  0  0  0  0  0  0
   -0.1563   -1.9107   -1.1790 H   0  0  0  0  0  0  0  0  0  0  0  0
   -0.1868   -0.2348   -1.7123 H   0  0  0  0  0  0  0  0  0  0  0  0
    1.6148   -0.8386   -0.7290 C   0  0  0  0  0  0  0  0  0  0  0  0
    2.3886   -1.7104   -1.5137 C   0  0  0  0  0  0  0  0  0  0  0  0
    1.9027   -2.4083   -2.1891 H   0  0  0  0  0  0  0  0  0  0  0  0
    3.7852   -1.7045   -1.4395 C   0  0  0  0  0  0  0  0  0  0  0  0
    4.3642   -2.3927   -2.0483 H   0  0  0  0  0  0  0  0  0  0  0  0
    4.4346   -0.8131   -0.5835 C   0  0  0  0  0  0  0  0  0  0  0  0
    5.5190   -0.8078   -0.5229 H   0  0  0  0  0  0  0  0  0  0  0  0
    3.6838    0.0758    0.1883 C   0  0  0  0  0  0  0  0  0  0  0  0
    4.1872    0.7775    0.8465 H   0  0  0  0  0  0  0  0  0  0  0  0
    2.2868    0.0675    0.1108 C   0  0  0  0  0  0  0  0  0  0  0  0
    1.7478    0.7848    0.7112 H   0  0  0  0  0  0  0  0  0  0  0  0
   -1.0712    0.9769    0.4314 C   0  0  0  0  0  0  0  0  0  0  0  0
   -1.9296    1.4354   -0.3150 O   0  0  0  0  0  0  0  0  0  0  0  0
   -0.4496    1.8198    1.3353 N   0  0  0  0  0  0  0  0  0  0  0  0
    0.1732    1.3963    2.0172 H   0  0  0  0  0  0  0  0  0  0  0  0
   -0.7708    3.2365    1.4620 C   0  0  0  0  0  0  0  0  0  0  0  0
   -1.8325    3.3712    1.6944 H   0  0  0  0  0  0  0  0  0  0  0  0
   -0.1815    3.6872    2.2664 H   0  0  0  0  0  0  0  0  0  0  0  0
   -0.5440    3.7647    0.5300 H   0  0  0  0  0  0  0  0  0  0  0  0
  1  2  1  0  0  0  0
  2  3  1  0  0  0  0
  2  4  1  0  0  0  0
  2  5  1  0  0  0  0
  5  6  2  0  0  0  0
  5  7  1  0  0  0  0
  7  8  1  0  0  0  0
  7  9  1  0  0  0  0
  9 10  1  0  0  0  0
  9 11  1  0  0  0  0
  9 25  1  0  0  0  0
 11 12  1  0  0  0  0
 11 13  1  0  0  0  0
 11 14  1  0  0  0  0
 14 15  1  0  0  0  0
 14 23  2  0  0  0  0
 15 16  1  0  0  0  0
 15 17  2  0  0  0  0
 17 18  1  0  0  0  0
 17 19  1  0  0  0  0
 19 20  1  0  0  0  0
 19 21  2  0  0  0  0
 21 22  1  0  0  0  0
 21 23  1  0  0  0  0
 23 24  1  0  0  0  0
 25 26  2  0  0  0  0
 25 27  1  0  0  0  0
 27 28  1  0  0  0  0
 27 29  1  0  0  0  0
 29 30  1  0  0  0  0
 29 31  1  0  0  0  0
 29 32  1  0  0  0  0
M  END
$$$$

  -OEChem-04042216033D

 32 32  0     1  0  0  0  0  0999 V2000
   -3.7348   -3.9435    1.5434 H   0  0  0  0  0  0  0  0  0  0  0  0
   -3.6729   -3.0605    0.9013 C   0  0  0  0  0  0  0  0  0  0  0  0
   -4.4379   -2.3447    1.2115 H   0  0  0  0  0  0  0  0  0  0  0  0
   -3.8631   -3.3620   -0.1316 H   0  0  0  0  0  0  0  0  0  0  0  0
   -2.2980   -2.4286    1.0112 C   0  0  0  0  0  0  0  0  0  0  0  0
   -1.4632   -2.9109    1.7598 O   0  0  0  0  0  0  0  0  0  0  0  0
   -2.0043   -1.3019    0.2715 N   0  0  0  0  0  0  0  0  0  0  0  0
   -2.7631   -0.8793   -0.2615 H   0  0  0  0  0  0  0  0  0  0  0  0
   -0.7493   -0.5387    0.3598 C   0  0  1  0  0  0  0  0  0  0  0  0
   -0.2192   -0.8183    1.2749 H   0  0  0  0  0  0  0  0  0  0  0  0
    0.1096   -0.8907   -0.8759 C   0  0  0  0  0  0  0  0  0  0  0  0
   -0.1321   -1.9174   -1.1714 H   0  0  0  0  0  0  0  0  0  0  0  0
   -0.1791   -0.2432   -1.7108 H   0  0  0  0  0  0  0  0  0  0  0  0
    1.6192   -0.8302   -0.7099 C   0  0  0  0  0  0  0  0  0  0  0  0
    2.4053   -1.4466   -1.6972 C   0  0  0  0  0  0  0  0  0  0  0  0
    1.9273   -1.9508   -2.5320 H   0  0  0  0  0  0  0  0  0  0  0  0
    3.8018   -1.4262   -1.6282 C   0  0  0  0  0  0  0  0  0  0  0  0
    4.3901   -1.9116   -2.4012 H   0  0  0  0  0  0  0  0  0  0  0  0
    4.4383   -0.7819   -0.5659 C   0  0  0  0  0  0  0  0  0  0  0  0
    5.5228   -0.7652   -0.5096 H   0  0  0  0  0  0  0  0  0  0  0  0
    3.6748   -0.1587    0.4234 C   0  0  0  0  0  0  0  0  0  0  0  0
    4.1691    0.3434    1.2499 H   0  0  0  0  0  0  0  0  0  0  0  0
    2.2773   -0.1805    0.3520 C   0  0  0  0  0  0  0  0  0  0  0  0
    1.7289    0.3158    1.1405 H   0  0  0  0  0  0  0  0  0  0  0  0
   -1.0634    0.9713    0.4110 C   0  0  0  0  0  0  0  0  0  0  0  0
   -1.9299    1.4330   -0.3238 O   0  0  0  0  0  0  0  0  0  0  0  0
   -0.4298    1.8077    1.3121 N   0  0  0  0  0  0  0  0  0  0  0  0
    0.2036    1.3828    1.9823 H   0  0  0  0  0  0  0  0  0  0  0  0
   -0.7443    3.2250    1.4449 C   0  0  0  0  0  0  0  0  0  0  0  0
   -1.7936    3.3606    1.7275 H   0  0  0  0  0  0  0  0  0  0  0  0
   -0.1164    3.6807    2.2166 H   0  0  0  0  0  0  0  0  0  0  0  0
   -0.5632    3.7474    0.4996 H   0  0  0  0  0  0  0  0  0  0  0  0
  1  2  1  0  0  0  0
  2  3  1  0  0  0  0
  2  4  1  0  0  0  0
  2  5  1  0  0  0  0
  5  6  2  0  0  0  0
  5  7  1  0  0  0  0
  7  8  1  0  0  0  0
  7  9  1  0  0  0  0
  9 10  1  0  0  0  0
  9 11  1  0  0  0  0
  9 25  1  0  0  0  0
 11 12  1  0  0  0  0
 11 13  1  0  0  0  0
 11 14  1  0  0  0  0
 14 15  1  0  0  0  0
 14 23  2  0  0  0  0
 15 16  1  0  0  0  0
 15 17  2  0  0  0  0
 17 18  1  0  0  0  0
 17 19  1  0  0  0  0
 19 20  1  0  0  0  0
 19 21  2  0  0  0  0
 21 22  1  0  0  0  0
 21 23  1  0  0  0  0
 23 24  1  0  0  0  0
 25 26  2  0  0  0  0
 25 27  1  0  0  0  0
 27 28  1  0  0  0  0
 27 29  1  0  0  0  0
 29 30  1  0  0  0  0
 29 31  1  0  0  0  0
 29 32  1  0  0  0  0
M  END
$$$$

  -OEChem-04042216033D

 32 32  0     1  0  0  0  0  0999 V2000
   -3.8020   -3.9570    1.5473 H   0  0  0  0  0  0  0  0  0  0  0  0
   -3.7387   -3.0742    0.9047 C   0  0  0  0  0  0  0  0  0  0  0  0
   -4.5055   -2.3589    1.2119 H   0  0  0  0  0  0  0  0  0  0  0  0
   -3.9253   -3.3771   -0.1285 H   0  0  0  0  0  0  0  0  0  0  0  0
   -2.3644   -2.4414    1.0188 C   0  0  0  0  0  0  0  0  0  0  0  0
   -1.5362   -2.9190    1.7781 O   0  0  0  0  0  0  0  0  0  0  0  0
   -2.0645   -1.3218    0.2699 N   0  0  0  0  0  0  0  0  0  0  0  0
   -2.8198   -0.9049   -0.2720 H   0  0  0  0  0  0  0  0  0  0  0  0
   -0.8078   -0.5605    0.3550 C   0  0  1  0  0  0  0  0  0  0  0  0
   -0.3359   -0.8264    1.2992 H   0  0  0  0  0  0  0  0  0  0  0  0
    0.1046   -0.9228   -0.8424 C   0  0  0  0  0  0  0  0  0  0  0  0
   -0.2889   -1.8354   -1.3022 H   0  0  0  0  0  0  0  0  0  0  0  0
    0.0271   -0.1351   -1.5998 H   0  0  0  0  0  0  0  0  0  0  0  0
    1.5796   -1.1864   -0.5715 C   0  0  0  0  0  0  0  0  0  0  0  0
    2.3747   -1.5118   -1.6831 C   0  0  0  0  0  0  0  0  0  0  0  0
    1.9239   -1.5695   -2.6694 H   0  0  0  0  0  0  0  0  0  0  0  0
    3.7433   -1.7645   -1.5501 C   0  0  0  0  0  0  0  0  0  0  0  0
    4.3372   -2.0141   -2.4243 H   0  0  0  0  0  0  0  0  0  0  0  0
    4.3455   -1.6971   -0.2931 C   0  0  0  0  0  0  0  0  0  0  0  0
    5.4081   -1.8951   -0.1858 H   0  0  0  0  0  0  0  0  0  0  0  0
    3.5750   -1.3776    0.8263 C   0  0  0  0  0  0  0  0  0  0  0  0
    4.0406   -1.3311    1.8064 H   0  0  0  0  0  0  0  0  0  0  0  0
    2.2053   -1.1229    0.6920 C   0  0  0  0  0  0  0  0  0  0  0  0
    1.6667   -0.8869    1.6005 H   0  0  0  0  0  0  0  0  0  0  0  0
   -1.0661    0.9571    0.3936 C   0  0  0  0  0  0  0  0  0  0  0  0
   -1.9268    1.4444   -0.3307 O   0  0  0  0  0  0  0  0  0  0  0  0
   -0.3953    1.7651    1.2930 N   0  0  0  0  0  0  0  0  0  0  0  0
    0.3171    1.3333    1.8742 H   0  0  0  0  0  0  0  0  0  0  0  0
   -0.6004    3.2055    1.3829 C   0  0  0  0  0  0  0  0  0  0  0  0
   -1.6472    3.4308    1.6121 H   0  0  0  0  0  0  0  0  0  0  0  0
    0.0245    3.6273    2.1760 H   0  0  0  0  0  0  0  0  0  0  0  0
   -0.3340    3.6898    0.4375 H   0  0  0  0  0  0  0  0  0  0  0  0
  1  2  1  0  0  0  0
  2  3  1  0  0  0  0
  2  4  1  0  0  0  0
  2  5  1  0  0  0  0
  5  6  2  0  0  0  0
  5  7  1  0  0  0  0
  7  8  1  0  0  0  0
  7  9  1  0  0  0  0
  9 10  1  0  0  0  0
  9 11  1  0  0  0  0
  9 25  1  0  0  0  0
 11 12  1  0  0  0  0
 11 13  1  0  0  0  0
 11 14  1  0  0  0  0
 14 15  1  0  0  0  0
 14 23  2  0  0  0  0
 15 16  1  0  0  0  0
 15 17  2  0  0  0  0
 17 18  1  0  0  0  0
 17 19  1  0  0  0  0
 19 20  1  0  0  0  0
 19 21  2  0  0  0  0
 21 22  1  0  0  0  0
 21 23  1  0  0  0  0
 23 24  1  0  0  0  0
 25 26  2  0  0  0  0
 25 27  1  0  0  0  0
 27 28  1  0  0  0  0
 27 29  1  0  0  0  0
 29 30  1  0  0  0  0
 29 31  1  0  0  0  0
 29 32  1  0  0  0  0
M  END
$$$$

  -OEChem-04042216033D

 32 32  0     1  0  0  0  0  0999 V2000
   -3.7686   -3.9495    1.5936 H   0  0  0  0  0  0  0  0  0  0  0  0
   -3.7185   -3.0727    0.9418 C   0  0  0  0  0  0  0  0  0  0  0  0
   -4.4839   -2.3580    1.2537 H   0  0  0  0  0  0  0  0  0  0  0  0
   -3.9190   -3.3861   -0.0856 H   0  0  0  0  0  0  0  0  0  0  0  0
   -2.3455   -2.4328    1.0297 C   0  0  0  0  0  0  0  0  0  0  0  0
   -1.5016   -2.9006    1.7785 O   0  0  0  0  0  0  0  0  0  0  0  0
   -2.0609   -1.3159    0.2708 N   0  0  0  0  0  0  0  0  0  0  0  0
   -2.8243   -0.9019   -0.2619 H   0  0  0  0  0  0  0  0  0  0  0  0
   -0.8079   -0.5491    0.3485 C   0  0  1  0  0  0  0  0  0  0  0  0
   -0.3285   -0.7866    1.2958 H   0  0  0  0  0  0  0  0  0  0  0  0
    0.1044   -0.9006   -0.8526 C   0  0  0  0  0  0  0  0  0  0  0  0
   -0.2770   -1.8168   -1.3150 H   0  0  0  0  0  0  0  0  0  0  0  0
    0.0180   -0.1118   -1.6080 H   0  0  0  0  0  0  0  0  0  0  0  0
    1.5783   -1.1527   -0.5684 C   0  0  0  0  0  0  0  0  0  0  0  0
    2.4513   -1.1442   -1.6692 C   0  0  0  0  0  0  0  0  0  0  0  0
    2.0698   -0.9159   -2.6602 H   0  0  0  0  0  0  0  0  0  0  0  0
    3.8156   -1.4110   -1.5175 C   0  0  0  0  0  0  0  0  0  0  0  0
    4.4734   -1.3825   -2.3812 H   0  0  0  0  0  0  0  0  0  0  0  0
    4.3298   -1.7213   -0.2576 C   0  0  0  0  0  0  0  0  0  0  0  0
    5.3882   -1.9329   -0.1368 H   0  0  0  0  0  0  0  0  0  0  0  0
    3.4732   -1.7794    0.8429 C   0  0  0  0  0  0  0  0  0  0  0  0
    3.8646   -2.0491    1.8194 H   0  0  0  0  0  0  0  0  0  0  0  0
    2.1083   -1.5117    0.6894 C   0  0  0  0  0  0  0  0  0  0  0  0
    1.4889   -1.6253    1.5710 H   0  0  0  0  0  0  0  0  0  0  0  0
   -1.0759    0.9667    0.3809 C   0  0  0  0  0  0  0  0  0  0  0  0
   -1.9432    1.4476   -0.3399 O   0  0  0  0  0  0  0  0  0  0  0  0
   -0.4040    1.7777    1.2765 N   0  0  0  0  0  0  0  0  0  0  0  0
    0.3296    1.3507    1.8353 H   0  0  0  0  0  0  0  0  0  0  0  0
   -0.5999    3.2197    1.3551 C   0  0  0  0  0  0  0  0  0  0  0  0
   -1.6460    3.4536    1.5790 H   0  0  0  0  0  0  0  0  0  0  0  0
    0.0249    3.6428    2.1476 H   0  0  0  0  0  0  0  0  0  0  0  0
   -0.3270    3.6954    0.4074 H   0  0  0  0  0  0  0  0  0  0  0  0
  1  2  1  0  0  0  0
  2  3  1  0  0  0  0
  2  4  1  0  0  0  0
  2  5  1  0  0  0  0
  5  6  2  0  0  0  0
  5  7  1  0  0  0  0
  7  8  1  0  0  0  0
  7  9  1  0  0  0  0
  9 10  1  0  0  0  0
  9 11  1  0  0  0  0
  9 25  1  0  0  0  0
 11 12  1  0  0  0  0
 11 13  1  0  0  0  0
 11 14  1  0  0  0  0
 14 15  1  0  0  0  0
 14 23  2  0  0  0  0
 15 16  1  0  0  0  0
 15 17  2  0  0  0  0
 17 18  1  0  0  0  0
 17 19  1  0  0  0  0
 19 20  1  0  0  0  0
 19 21  2  0  0  0  0
 21 22  1  0  0  0  0
 21 23  1  0  0  0  0
 23 24  1  0  0  0  0
 25 26  2  0  0  0  0
 25 27  1  0  0  0  0
 27 28  1  0  0  0  0
 27 29  1  0  0  0  0
 29 30  1  0  0  0  0
 29 31  1  0  0  0  0
 29 32  1  0  0  0  0
M  END
$$$$

  -OEChem-04042216033D

 32 32  0     1  0  0  0  0  0999 V2000
   -3.7248   -3.9430    1.6433 H   0  0  0  0  0  0  0  0  0  0  0  0
   -3.6893   -3.0694    0.9862 C   0  0  0  0  0  0  0  0  0  0  0  0
   -4.4436   -2.3504    1.3150 H   0  0  0  0  0  0  0  0  0  0  0  0
   -3.9178   -3.3869   -0.0340 H   0  0  0  0  0  0  0  0  0  0  0  0
   -2.3124   -2.4341    1.0337 C   0  0  0  0  0  0  0  0  0  0  0  0
   -1.4435   -2.9141    1.7455 O   0  0  0  0  0  0  0  0  0  0  0  0
   -2.0484   -1.3138    0.2729 N   0  0  0  0  0  0  0  0  0  0  0  0
   -2.8273   -0.8905   -0.2292 H   0  0  0  0  0  0  0  0  0  0  0  0
   -0.7924   -0.5508    0.3232 C   0  0  1  0  0  0  0  0  0  0  0  0
   -0.2784   -0.7881    1.2553 H   0  0  0  0  0  0  0  0  0  0  0  0
    0.0874   -0.8973   -0.9015 C   0  0  0  0  0  0  0  0  0  0  0  0
   -0.2960   -1.8123   -1.3646 H   0  0  0  0  0  0  0  0  0  0  0  0
   -0.0053   -0.1042   -1.6515 H   0  0  0  0  0  0  0  0  0  0  0  0
    1.5533   -1.1445   -0.5944 C   0  0  0  0  0  0  0  0  0  0  0  0
    2.5076   -0.8322   -1.5764 C   0  0  0  0  0  0  0  0  0  0  0  0
    2.1970   -0.3622   -2.5049 H   0  0  0  0  0  0  0  0  0  0  0  0
    3.8652   -1.1019   -1.3744 C   0  0  0  0  0  0  0  0  0  0  0  0
    4.5909   -0.8341   -2.1366 H   0  0  0  0  0  0  0  0  0  0  0  0
    4.2865   -1.7241   -0.1973 C   0  0  0  0  0  0  0  0  0  0  0  0
    5.3397   -1.9374   -0.0397 H   0  0  0  0  0  0  0  0  0  0  0  0
    3.3451   -2.0943    0.7656 C   0  0  0  0  0  0  0  0  0  0  0  0
    3.6633   -2.6095    1.6674 H   0  0  0  0  0  0  0  0  0  0  0  0
    1.9881   -1.8235    0.5612 C   0  0  0  0  0  0  0  0  0  0  0  0
    1.2825   -2.1813    1.3053 H   0  0  0  0  0  0  0  0  0  0  0  0
   -1.0603    0.9644    0.3710 C   0  0  0  0  0  0  0  0  0  0  0  0
   -1.9489    1.4479   -0.3218 O   0  0  0  0  0  0  0  0  0  0  0  0
   -0.3670    1.7715    1.2536 N   0  0  0  0  0  0  0  0  0  0  0  0
    0.3808    1.3428    1.7926 H   0  0  0  0  0  0  0  0  0  0  0  0
   -0.5788    3.2097    1.3588 C   0  0  0  0  0  0  0  0  0  0  0  0
   -1.6224    3.4261    1.6105 H   0  0  0  0  0  0  0  0  0  0  0  0
    0.0588    3.6298    2.1427 H   0  0  0  0  0  0  0  0  0  0  0  0
   -0.3346    3.7026    0.4118 H   0  0  0  0  0  0  0  0  0  0  0  0
  1  2  1  0  0  0  0
  2  3  1  0  0  0  0
  2  4  1  0  0  0  0
  2  5  1  0  0  0  0
  5  6  2  0  0  0  0
  5  7  1  0  0  0  0
  7  8  1  0  0  0  0
  7  9  1  0  0  0  0
  9 10  1  0  0  0  0
  9 11  1  0  0  0  0
  9 25  1  0  0  0  0
 11 12  1  0  0  0  0
 11 13  1  0  0  0  0
 11 14  1  0  0  0  0
 14 15  1  0  0  0  0
 14 23  2  0  0  0  0
 15 16  1  0  0  0  0
 15 17  2  0  0  0  0
 17 18  1  0  0  0  0
 17 19  1  0  0  0  0
 19 20  1  0  0  0  0
 19 21  2  0  0  0  0
 21 22  1  0  0  0  0
 21 23  1  0  0  0  0
 23 24  1  0  0  0  0
 25 26  2  0  0  0  0
 25 27  1  0  0  0  0
 27 28  1  0  0  0  0
 27 29  1  0  0  0  0
 29 30  1  0  0  0  0
 29 31  1  0  0  0  0
 29 32  1  0  0  0  0
M  END
$$$$

  -OEChem-04042216033D

 32 32  0     1  0  0  0  0  0999 V2000
   -3.7227   -3.9540    1.6638 H   0  0  0  0  0  0  0  0  0  0  0  0
   -3.6903   -3.0847    1.0010 C   0  0  0  0  0  0  0  0  0  0  0  0
   -4.4326   -2.3572    1.3380 H   0  0  0  0  0  0  0  0  0  0  0  0
   -3.9389   -3.4059   -0.0135 H   0  0  0  0  0  0  0  0  0  0  0  0
   -2.3067   -2.4622    1.0224 C   0  0  0  0  0  0  0  0  0  0  0  0
   -1.4238   -2.9640    1.7009 O   0  0  0  0  0  0  0  0  0  0  0  0
   -2.0535   -1.3315    0.2733 N   0  0  0  0  0  0  0  0  0  0  0  0
   -2.8429   -0.8971   -0.2023 H   0  0  0  0  0  0  0  0  0  0  0  0
   -0.7933   -0.5734    0.2992 C   0  0  1  0  0  0  0  0  0  0  0  0
   -0.2490   -0.8349    1.2102 H   0  0  0  0  0  0  0  0  0  0  0  0
    0.0554   -0.9106   -0.9472 C   0  0  0  0  0  0  0  0  0  0  0  0
   -0.3307   -1.8241   -1.4113 H   0  0  0  0  0  0  0  0  0  0  0  0
   -0.0446   -0.1134   -1.6920 H   0  0  0  0  0  0  0  0  0  0  0  0
    1.5149   -1.1536   -0.6245 C   0  0  0  0  0  0  0  0  0  0  0  0
    2.5098   -0.5688   -1.4235 C   0  0  0  0  0  0  0  0  0  0  0  0
    2.2347    0.0909   -2.2411 H   0  0  0  0  0  0  0  0  0  0  0  0
    3.8644   -0.8140   -1.1737 C   0  0  0  0  0  0  0  0  0  0  0  0
    4.6240   -0.3426   -1.7902 H   0  0  0  0  0  0  0  0  0  0  0  0
    4.2402   -1.6710   -0.1358 C   0  0  0  0  0  0  0  0  0  0  0  0
    5.2912   -1.8647    0.0582 H   0  0  0  0  0  0  0  0  0  0  0  0
    3.2590   -2.2924    0.6412 C   0  0  0  0  0  0  0  0  0  0  0  0
    3.5446   -2.9773    1.4343 H   0  0  0  0  0  0  0  0  0  0  0  0
    1.9055   -2.0451    0.3903 C   0  0  0  0  0  0  0  0  0  0  0  0
    1.1590   -2.5655    0.9852 H   0  0  0  0  0  0  0  0  0  0  0  0
   -1.0442    0.9432    0.3764 C   0  0  0  0  0  0  0  0  0  0  0  0
   -1.9386    1.4472   -0.2937 O   0  0  0  0  0  0  0  0  0  0  0  0
   -0.3178    1.7301    1.2506 N   0  0  0  0  0  0  0  0  0  0  0  0
    0.4371    1.2839    1.7650 H   0  0  0  0  0  0  0  0  0  0  0  0
   -0.4898    3.1731    1.3609 C   0  0  0  0  0  0  0  0  0  0  0  0
   -1.5254    3.4179    1.6192 H   0  0  0  0  0  0  0  0  0  0  0  0
    0.1635    3.5730    2.1423 H   0  0  0  0  0  0  0  0  0  0  0  0
   -0.2371    3.6615    0.4140 H   0  0  0  0  0  0  0  0  0  0  0  0
  1  2  1  0  0  0  0
  2  3  1  0  0  0  0
  2  4  1  0  0  0  0
  2  5  1  0  0  0  0
  5  6  2  0  0  0  0
  5  7  1  0  0  0  0
  7  8  1  0  0  0  0
  7  9  1  0  0  0  0
  9 10  1  0  0  0  0
  9 11  1  0  0  0  0
  9 25  1  0  0  0  0
 11 12  1  0  0  0  0
 11 13  1  0  0  0  0
 11 14  1  0  0  0  0
 14 15  1  0  0  0  0
 14 23  2  0  0  0  0
 15 16  1  0  0  0  0
 15 17  2  0  0  0  0
 17 18  1  0  0  0  0
 17 19  1  0  0  0  0
 19 20  1  0  0  0  0
 19 21  2  0  0  0  0
 21 22  1  0  0  0  0
 21 23  1  0  0  0  0
 23 24  1  0  0  0  0
 25 26  2  0  0  0  0
 25 27  1  0  0  0  0
 27 28  1  0  0  0  0
 27 29  1  0  0  0  0
 29 30  1  0  0  0  0
 29 31  1  0  0  0  0
 29 32  1  0  0  0  0
M  END
$$$$

  -OEChem-04042216033D

 32 32  0     1  0  0  0  0  0999 V2000
   -3.7137   -3.9550    1.6699 H   0  0  0  0  0  0  0  0  0  0  0  0
   -3.6849   -3.0843    1.0087 C   0  0  0  0  0  0  0  0  0  0  0  0
   -4.4108   -2.3485    1.3634 H   0  0  0  0  0  0  0  0  0  0  0  0
   -3.9590   -3.3990   -0.0011 H   0  0  0  0  0  0  0  0  0  0  0  0
   -2.2943   -2.4781    1.0012 C   0  0  0  0  0  0  0  0  0  0  0  0
   -1.3984   -3.0005    1.6460 O   0  0  0  0  0  0  0  0  0  0  0  0
   -2.0505   -1.3404    0.2601 N   0  0  0  0  0  0  0  0  0  0  0  0
   -2.8500   -0.8928   -0.1856 H   0  0  0  0  0  0  0  0  0  0  0  0
   -0.7869   -0.5870    0.2669 C   0  0  1  0  0  0  0  0  0  0  0  0
   -0.2221   -0.8669    1.1616 H   0  0  0  0  0  0  0  0  0  0  0  0
    0.0373   -0.9261   -0.9922 C   0  0  0  0  0  0  0  0  0  0  0  0
   -0.3543   -1.8398   -1.4514 H   0  0  0  0  0  0  0  0  0  0  0  0
   -0.0642   -0.1302   -1.7379 H   0  0  0  0  0  0  0  0  0  0  0  0
    1.4912   -1.1680   -0.6588 C   0  0  0  0  0  0  0  0  0  0  0  0
    2.4909   -0.3652   -1.2285 C   0  0  0  0  0  0  0  0  0  0  0  0
    2.2240    0.4463   -1.8990 H   0  0  0  0  0  0  0  0  0  0  0  0
    3.8401   -0.5968   -0.9385 C   0  0  0  0  0  0  0  0  0  0  0  0
    4.6062    0.0334   -1.3805 H   0  0  0  0  0  0  0  0  0  0  0  0
    4.2030   -1.6425   -0.0844 C   0  0  0  0  0  0  0  0  0  0  0  0
    5.2500   -1.8249    0.1394 H   0  0  0  0  0  0  0  0  0  0  0  0
    3.2157   -2.4589    0.4750 C   0  0  0  0  0  0  0  0  0  0  0  0
    3.4925   -3.2780    1.1323 H   0  0  0  0  0  0  0  0  0  0  0  0
    1.8674   -2.2258    0.1846 C   0  0  0  0  0  0  0  0  0  0  0  0
    1.1090   -2.8737    0.6181 H   0  0  0  0  0  0  0  0  0  0  0  0
   -1.0233    0.9300    0.3653 C   0  0  0  0  0  0  0  0  0  0  0  0
   -1.9260    1.4491   -0.2816 O   0  0  0  0  0  0  0  0  0  0  0  0
   -0.2713    1.7006    1.2321 N   0  0  0  0  0  0  0  0  0  0  0  0
    0.4811    1.2385    1.7365 H   0  0  0  0  0  0  0  0  0  0  0  0
   -0.4450    3.1397    1.3833 C   0  0  0  0  0  0  0  0  0  0  0  0
   -1.4741    3.3741    1.6754 H   0  0  0  0  0  0  0  0  0  0  0  0
    0.2276    3.5222    2.1570 H   0  0  0  0  0  0  0  0  0  0  0  0
   -0.2196    3.6529    0.4427 H   0  0  0  0  0  0  0  0  0  0  0  0
  1  2  1  0  0  0  0
  2  3  1  0  0  0  0
  2  4  1  0  0  0  0
  2  5  1  0  0  0  0
  5  6  2  0  0  0  0
  5  7  1  0  0  0  0
  7  8  1  0  0  0  0
  7  9  1  0  0  0  0
  9 10  1  0  0  0  0
  9 11  1  0  0  0  0
  9 25  1  0  0  0  0
 11 12  1  0  0  0  0
 11 13  1  0  0  0  0
 11 14  1  0  0  0  0
 14 15  1  0  0  0  0
 14 23  2  0  0  0  0
 15 16  1  0  0  0  0
 15 17  2  0  0  0  0
 17 18  1  0  0  0  0
 17 19  1  0  0  0  0
 19 20  1  0  0  0  0
 19 21  2  0  0  0  0
 21 22  1  0  0  0  0
 21 23  1  0  0  0  0
 23 24  1  0  0  0  0
 25 26  2  0  0  0  0
 25 27  1  0  0  0  0
 27 28  1  0  0  0  0
 27 29  1  0  0  0  0
 29 30  1  0  0  0  0
 29 31  1  0  0  0  0
 29 32  1  0  0  0  0
M  END
$$$$

  -OEChem-04042216033D

 32 32  0     1  0  0  0  0  0999 V2000
   -3.6980   -3.9533    1.6810 H   0  0  0  0  0  0  0  0  0  0  0  0
   -3.6799   -3.0813    1.0212 C   0  0  0  0  0  0  0  0  0  0  0  0
   -4.3822   -2.3364    1.4034 H   0  0  0  0  0  0  0  0  0  0  0  0
   -3.9945   -3.3893    0.0211 H   0  0  0  0  0  0  0  0  0  0  0  0
   -2.2815   -2.4952    0.9661 C   0  0  0  0  0  0  0  0  0  0  0  0
   -1.3669   -3.0446    1.5602 O   0  0  0  0  0  0  0  0  0  0  0  0
   -2.0504   -1.3483    0.2351 N   0  0  0  0  0  0  0  0  0  0  0  0
   -2.8610   -0.8816   -0.1690 H   0  0  0  0  0  0  0  0  0  0  0  0
   -0.7843   -0.5995    0.2281 C   0  0  1  0  0  0  0  0  0  0  0  0
   -0.2072   -0.8970    1.1100 H   0  0  0  0  0  0  0  0  0  0  0  0
    0.0238   -0.9352   -1.0393 C   0  0  0  0  0  0  0  0  0  0  0  0
   -0.3717   -1.8453   -1.5022 H   0  0  0  0  0  0  0  0  0  0  0  0
   -0.0737   -0.1349   -1.7809 H   0  0  0  0  0  0  0  0  0  0  0  0
    1.4726   -1.1759   -0.6939 C   0  0  0  0  0  0  0  0  0  0  0  0
    2.4446   -0.2085   -0.9891 C   0  0  0  0  0  0  0  0  0  0  0  0
    2.1610    0.7189   -1.4784 H   0  0  0  0  0  0  0  0  0  0  0  0
    3.7862   -0.4285   -0.6580 C   0  0  0  0  0  0  0  0  0  0  0  0
    4.5339    0.3240   -0.8915 H   0  0  0  0  0  0  0  0  0  0  0  0
    4.1653   -1.6181   -0.0281 C   0  0  0  0  0  0  0  0  0  0  0  0
    5.2065   -1.7908    0.2280 H   0  0  0  0  0  0  0  0  0  0  0  0
    3.2021   -2.5865    0.2714 C   0  0  0  0  0  0  0  0  0  0  0  0
    3.4920   -3.5109    0.7624 H   0  0  0  0  0  0  0  0  0  0  0  0
    1.8615   -2.3655   -0.0602 C   0  0  0  0  0  0  0  0  0  0  0  0
    1.1165   -3.1192    0.1835 H   0  0  0  0  0  0  0  0  0  0  0  0
   -1.0068    0.9175    0.3512 C   0  0  0  0  0  0  0  0  0  0  0  0
   -1.9209    1.4516   -0.2667 O   0  0  0  0  0  0  0  0  0  0  0  0
   -0.2316    1.6698    1.2137 N   0  0  0  0  0  0  0  0  0  0  0  0
    0.5228    1.1935    1.7018 H   0  0  0  0  0  0  0  0  0  0  0  0
   -0.3991    3.1054    1.3994 C   0  0  0  0  0  0  0  0  0  0  0  0
   -1.4165    3.3329    1.7349 H   0  0  0  0  0  0  0  0  0  0  0  0
    0.3028    3.4725    2.1544 H   0  0  0  0  0  0  0  0  0  0  0  0
   -0.2092    3.6373    0.4612 H   0  0  0  0  0  0  0  0  0  0  0  0
  1  2  1  0  0  0  0
  2  3  1  0  0  0  0
  2  4  1  0  0  0  0
  2  5  1  0  0  0  0
  5  6  2  0  0  0  0
  5  7  1  0  0  0  0
  7  8  1  0  0  0  0
  7  9  1  0  0  0  0
  9 10  1  0  0  0  0
  9 11  1  0  0  0  0
  9 25  1  0  0  0  0
 11 12  1  0  0  0  0
 11 13  1  0  0  0  0
 11 14  1  0  0  0  0
 14 15  1  0  0  0  0
 14 23  2  0  0  0  0
 15 16  1  0  0  0  0
 15 17  2  0  0  0  0
 17 18  1  0  0  0  0
 17 19  1  0  0  0  0
 19 20  1  0  0  0  0
 19 21  2  0  0  0  0
 21 22  1  0  0  0  0
 21 23  1  0  0  0  0
 23 24  1  0  0  0  0
 25 26  2  0  0  0  0
 25 27  1  0  0  0  0
 27 28  1  0  0  0  0
 27 29  1  0  0  0  0
 29 30  1  0  0  0  0
 29 31  1  0  0  0  0
 29 32  1  0  0  0  0
M  END
$$$$

  -OEChem-04042216033D

 32 32  0     1  0  0  0  0  0999 V2000
   -3.6937   -3.9517    1.6748 H   0  0  0  0  0  0  0  0  0  0  0  0
   -3.6776   -3.0790    1.0160 C   0  0  0  0  0  0  0  0  0  0  0  0
   -4.3750   -2.3328    1.4043 H   0  0  0  0  0  0  0  0  0  0  0  0
   -4.0002   -3.3848    0.0178 H   0  0  0  0  0  0  0  0  0  0  0  0
   -2.2775   -2.4975    0.9526 C   0  0  0  0  0  0  0  0  0  0  0  0
   -1.3608   -3.0532    1.5371 O   0  0  0  0  0  0  0  0  0  0  0  0
   -2.0489   -1.3465    0.2270 N   0  0  0  0  0  0  0  0  0  0  0  0
   -2.8612   -0.8768   -0.1697 H   0  0  0  0  0  0  0  0  0  0  0  0
   -0.7802   -0.6016    0.2118 C   0  0  1  0  0  0  0  0  0  0  0  0
   -0.1947   -0.9090    1.0853 H   0  0  0  0  0  0  0  0  0  0  0  0
    0.0155   -0.9402   -1.0618 C   0  0  0  0  0  0  0  0  0  0  0  0
   -0.3908   -1.8441   -1.5274 H   0  0  0  0  0  0  0  0  0  0  0  0
   -0.0750   -0.1358   -1.7996 H   0  0  0  0  0  0  0  0  0  0  0  0
    1.4635   -1.1843   -0.7191 C   0  0  0  0  0  0  0  0  0  0  0  0
    2.3803   -0.1225   -0.7241 C   0  0  0  0  0  0  0  0  0  0  0  0
    2.0568    0.8749   -1.0076 H   0  0  0  0  0  0  0  0  0  0  0  0
    3.7170   -0.3391   -0.3725 C   0  0  0  0  0  0  0  0  0  0  0  0
    4.4232    0.4860   -0.3864 H   0  0  0  0  0  0  0  0  0  0  0  0
    4.1443   -1.6187   -0.0040 C   0  0  0  0  0  0  0  0  0  0  0  0
    5.1818   -1.7889    0.2687 H   0  0  0  0  0  0  0  0  0  0  0  0
    3.2333   -2.6796    0.0163 C   0  0  0  0  0  0  0  0  0  0  0  0
    3.5598   -3.6727    0.3105 H   0  0  0  0  0  0  0  0  0  0  0  0
    1.8973   -2.4617   -0.3365 C   0  0  0  0  0  0  0  0  0  0  0  0
    1.1910   -3.2870   -0.2999 H   0  0  0  0  0  0  0  0  0  0  0  0
   -0.9934    0.9158    0.3465 C   0  0  0  0  0  0  0  0  0  0  0  0
   -1.9061    1.4604   -0.2638 O   0  0  0  0  0  0  0  0  0  0  0  0
   -0.2052    1.6582    1.2060 N   0  0  0  0  0  0  0  0  0  0  0  0
    0.5331    1.1686    1.7056 H   0  0  0  0  0  0  0  0  0  0  0  0
   -0.3748    3.0902    1.4169 C   0  0  0  0  0  0  0  0  0  0  0  0
   -1.3879    3.3087    1.7709 H   0  0  0  0  0  0  0  0  0  0  0  0
    0.3369    3.4486    2.1668 H   0  0  0  0  0  0  0  0  0  0  0  0
   -0.2011    3.6374    0.4845 H   0  0  0  0  0  0  0  0  0  0  0  0
  1  2  1  0  0  0  0
  2  3  1  0  0  0  0
  2  4  1  0  0  0  0
  2  5  1  0  0  0  0
  5  6  2  0  0  0  0
  5  7  1  0  0  0  0
  7  8  1  0  0  0  0
  7  9  1  0  0  0  0
  9 10  1  0  0  0  0
  9 11  1  0  0  0  0
  9 25  1  0  0  0  0
 11 12  1  0  0  0  0
 11 13  1  0  0  0  0
 11 14  1  0  0  0  0
 14 15  1  0  0  0  0
 14 23  2  0  0  0  0
 15 16  1  0  0  0  0
 15 17  2  0  0  0  0
 17 18  1  0  0  0  0
 17 19  1  0  0  0  0
 19 20  1  0  0  0  0
 19 21  2  0  0  0  0
 21 22  1  0  0  0  0
 21 23  1  0  0  0  0
 23 24  1  0  0  0  0
 25 26  2  0  0  0  0
 25 27  1  0  0  0  0
 27 28  1  0  0  0  0
 27 29  1  0  0  0  0
 29 30  1  0  0  0  0
 29 31  1  0  0  0  0
 29 32  1  0  0  0  0
M  END
$$$$

  -OEChem-04042216033D

 32 32  0     1  0  0  0  0  0999 V2000
   -3.6984   -3.9499    1.6571 H   0  0  0  0  0  0  0  0  0  0  0  0
   -3.6761   -3.0739    1.0026 C   0  0  0  0  0  0  0  0  0  0  0  0
   -4.3844   -2.3334    1.3823 H   0  0  0  0  0  0  0  0  0  0  0  0
   -3.9798   -3.3769   -0.0023 H   0  0  0  0  0  0  0  0  0  0  0  0
   -2.2783   -2.4844    0.9647 C   0  0  0  0  0  0  0  0  0  0  0  0
   -1.3717   -3.0301    1.5732 O   0  0  0  0  0  0  0  0  0  0  0  0
   -2.0415   -1.3361    0.2375 N   0  0  0  0  0  0  0  0  0  0  0  0
   -2.8470   -0.8746   -0.1819 H   0  0  0  0  0  0  0  0  0  0  0  0
   -0.7718   -0.5928    0.2260 C   0  0  1  0  0  0  0  0  0  0  0  0
   -0.1845   -0.8993    1.0987 H   0  0  0  0  0  0  0  0  0  0  0  0
    0.0204   -0.9379   -1.0503 C   0  0  0  0  0  0  0  0  0  0  0  0
   -0.4002   -1.8341   -1.5181 H   0  0  0  0  0  0  0  0  0  0  0  0
   -0.0644   -0.1295   -1.7843 H   0  0  0  0  0  0  0  0  0  0  0  0
    1.4729   -1.1909   -0.7264 C   0  0  0  0  0  0  0  0  0  0  0  0
    2.3317   -0.1194   -0.4355 C   0  0  0  0  0  0  0  0  0  0  0  0
    1.9672    0.9021   -0.4892 H   0  0  0  0  0  0  0  0  0  0  0  0
    3.6678   -0.3527   -0.0924 C   0  0  0  0  0  0  0  0  0  0  0  0
    4.3289    0.4823    0.1204 H   0  0  0  0  0  0  0  0  0  0  0  0
    4.1535   -1.6618   -0.0249 C   0  0  0  0  0  0  0  0  0  0  0  0
    5.1899   -1.8453    0.2426 H   0  0  0  0  0  0  0  0  0  0  0  0
    3.3014   -2.7360   -0.2980 C   0  0  0  0  0  0  0  0  0  0  0  0
    3.6727   -3.7547   -0.2357 H   0  0  0  0  0  0  0  0  0  0  0  0
    1.9663   -2.5009   -0.6440 C   0  0  0  0  0  0  0  0  0  0  0  0
    1.3086   -3.3439   -0.8361 H   0  0  0  0  0  0  0  0  0  0  0  0
   -0.9960    0.9236    0.3553 C   0  0  0  0  0  0  0  0  0  0  0  0
   -1.9022    1.4628   -0.2693 O   0  0  0  0  0  0  0  0  0  0  0  0
   -0.2180    1.6735    1.2174 N   0  0  0  0  0  0  0  0  0  0  0  0
    0.4946    1.1829    1.7518 H   0  0  0  0  0  0  0  0  0  0  0  0
   -0.4031    3.1034    1.4286 C   0  0  0  0  0  0  0  0  0  0  0  0
   -1.4161    3.3099    1.7897 H   0  0  0  0  0  0  0  0  0  0  0  0
    0.3101    3.4705    2.1727 H   0  0  0  0  0  0  0  0  0  0  0  0
   -0.2425    3.6522    0.4948 H   0  0  0  0  0  0  0  0  0  0  0  0
  1  2  1  0  0  0  0
  2  3  1  0  0  0  0
  2  4  1  0  0  0  0
  2  5  1  0  0  0  0
  5  6  2  0  0  0  0
  5  7  1  0  0  0  0
  7  8  1  0  0  0  0
  7  9  1  0  0  0  0
  9 10  1  0  0  0  0
  9 11  1  0  0  0  0
  9 25  1  0  0  0  0
 11 12  1  0  0  0  0
 11 13  1  0  0  0  0
 11 14  1  0  0  0  0
 14 15  1  0  0  0  0
 14 23  2  0  0  0  0
 15 16  1  0  0  0  0
 15 17  2  0  0  0  0
 17 18  1  0  0  0  0
 17 19  1  0  0  0  0
 19 20  1  0  0  0  0
 19 21  2  0  0  0  0
 21 22  1  0  0  0  0
 21 23  1  0  0  0  0
 23 24  1  0  0  0  0
 25 26  2  0  0  0  0
 25 27  1  0  0  0  0
 27 28  1  0  0  0  0
 27 29  1  0  0  0  0
 29 30  1  0  0  0  0
 29 31  1  0  0  0  0
 29 32  1  0  0  0  0
M  END
$$$$

  -OEChem-04042216033D

 32 32  0     1  0  0  0  0  0999 V2000
   -3.7025   -3.9365    1.6315 H   0  0  0  0  0  0  0  0  0  0  0  0
   -3.6700   -3.0543    0.9860 C   0  0  0  0  0  0  0  0  0  0  0  0
   -4.3916   -2.3215    1.3552 H   0  0  0  0  0  0  0  0  0  0  0  0
   -3.9477   -3.3499   -0.0286 H   0  0  0  0  0  0  0  0  0  0  0  0
   -2.2758   -2.4555    0.9880 C   0  0  0  0  0  0  0  0  0  0  0  0
   -1.3907   -2.9792    1.6454 O   0  0  0  0  0  0  0  0  0  0  0  0
   -2.0206   -1.3170    0.2517 N   0  0  0  0  0  0  0  0  0  0  0  0
   -2.8127   -0.8668   -0.2043 H   0  0  0  0  0  0  0  0  0  0  0  0
   -0.7507   -0.5735    0.2626 C   0  0  1  0  0  0  0  0  0  0  0  0
   -0.1722   -0.8680    1.1448 H   0  0  0  0  0  0  0  0  0  0  0  0
    0.0498   -0.9328   -1.0087 C   0  0  0  0  0  0  0  0  0  0  0  0
   -0.3869   -1.8216   -1.4757 H   0  0  0  0  0  0  0  0  0  0  0  0
   -0.0261   -0.1237   -1.7428 H   0  0  0  0  0  0  0  0  0  0  0  0
    1.5087   -1.2030   -0.7124 C   0  0  0  0  0  0  0  0  0  0  0  0
    2.3274   -0.2163   -0.1385 C   0  0  0  0  0  0  0  0  0  0  0  0
    1.9381    0.7777    0.0520 H   0  0  0  0  0  0  0  0  0  0  0  0
    3.6650   -0.4890    0.1680 C   0  0  0  0  0  0  0  0  0  0  0  0
    4.2920    0.2838    0.6029 H   0  0  0  0  0  0  0  0  0  0  0  0
    4.1970   -1.7557   -0.0884 C   0  0  0  0  0  0  0  0  0  0  0  0
    5.2345   -1.9700    0.1509 H   0  0  0  0  0  0  0  0  0  0  0  0
    3.3901   -2.7477   -0.6522 C   0  0  0  0  0  0  0  0  0  0  0  0
    3.7981   -3.7351   -0.8468 H   0  0  0  0  0  0  0  0  0  0  0  0
    2.0536   -2.4725   -0.9599 C   0  0  0  0  0  0  0  0  0  0  0  0
    1.4362   -3.2586   -1.3844 H   0  0  0  0  0  0  0  0  0  0  0  0
   -1.0079    0.9411    0.3670 C   0  0  0  0  0  0  0  0  0  0  0  0
   -1.9021    1.4542   -0.2962 O   0  0  0  0  0  0  0  0  0  0  0  0
   -0.2720    1.7222    1.2390 N   0  0  0  0  0  0  0  0  0  0  0  0
    0.3950    1.2476    1.8419 H   0  0  0  0  0  0  0  0  0  0  0  0
   -0.5179    3.1449    1.4404 C   0  0  0  0  0  0  0  0  0  0  0  0
   -1.5336    3.3089    1.8155 H   0  0  0  0  0  0  0  0  0  0  0  0
    0.1901    3.5518    2.1688 H   0  0  0  0  0  0  0  0  0  0  0  0
   -0.3971    3.6920    0.4994 H   0  0  0  0  0  0  0  0  0  0  0  0
  1  2  1  0  0  0  0
  2  3  1  0  0  0  0
  2  4  1  0  0  0  0
  2  5  1  0  0  0  0
  5  6  2  0  0  0  0
  5  7  1  0  0  0  0
  7  8  1  0  0  0  0
  7  9  1  0  0  0  0
  9 10  1  0  0  0  0
  9 11  1  0  0  0  0
  9 25  1  0  0  0  0
 11 12  1  0  0  0  0
 11 13  1  0  0  0  0
 11 14  1  0  0  0  0
 14 15  1  0  0  0  0
 14 23  2  0  0  0  0
 15 16  1  0  0  0  0
 15 17  2  0  0  0  0
 17 18  1  0  0  0  0
 17 19  1  0  0  0  0
 19 20  1  0  0  0  0
 19 21  2  0  0  0  0
 21 22  1  0  0  0  0
 21 23  1  0  0  0  0
 23 24  1  0  0  0  0
 25 26  2  0  0  0  0
 25 27  1  0  0  0  0
 27 28  1  0  0  0  0
 27 29  1  0  0  0  0
 29 30  1  0  0  0  0
 29 31  1  0  0  0  0
 29 32  1  0  0  0  0
M  END
$$$$

  -OEChem-04042216033D

 32 32  0     1  0  0  0  0  0999 V2000
   -3.7385   -3.9291    1.6040 H   0  0  0  0  0  0  0  0  0  0  0  0
   -3.6841   -3.0487    0.9575 C   0  0  0  0  0  0  0  0  0  0  0  0
   -4.4296   -2.3216    1.2886 H   0  0  0  0  0  0  0  0  0  0  0  0
   -3.9099   -3.3504   -0.0682 H   0  0  0  0  0  0  0  0  0  0  0  0
   -2.2977   -2.4358    1.0235 C   0  0  0  0  0  0  0  0  0  0  0  0
   -1.4462   -2.9315    1.7437 O   0  0  0  0  0  0  0  0  0  0  0  0
   -2.0154   -1.3096    0.2788 N   0  0  0  0  0  0  0  0  0  0  0  0
   -2.7853   -0.8812   -0.2327 H   0  0  0  0  0  0  0  0  0  0  0  0
   -0.7463   -0.5651    0.3168 C   0  0  1  0  0  0  0  0  0  0  0  0
   -0.1876   -0.8490    1.2147 H   0  0  0  0  0  0  0  0  0  0  0  0
    0.0759   -0.9322   -0.9419 C   0  0  0  0  0  0  0  0  0  0  0  0
   -0.3653   -1.8202   -1.4064 H   0  0  0  0  0  0  0  0  0  0  0  0
    0.0042   -0.1264   -1.6798 H   0  0  0  0  0  0  0  0  0  0  0  0
    1.5407   -1.2157   -0.6696 C   0  0  0  0  0  0  0  0  0  0  0  0
    2.3204   -0.3924    0.1614 C   0  0  0  0  0  0  0  0  0  0  0  0
    1.8998    0.4994    0.6086 H   0  0  0  0  0  0  0  0  0  0  0  0
    3.6652   -0.6906    0.4068 C   0  0  0  0  0  0  0  0  0  0  0  0
    4.2580   -0.0429    1.0459 H   0  0  0  0  0  0  0  0  0  0  0  0
    4.2489   -1.8196   -0.1732 C   0  0  0  0  0  0  0  0  0  0  0  0
    5.2922   -2.0530    0.0175 H   0  0  0  0  0  0  0  0  0  0  0  0
    3.4867   -2.6475   -1.0008 C   0  0  0  0  0  0  0  0  0  0  0  0
    3.9359   -3.5270   -1.4526 H   0  0  0  0  0  0  0  0  0  0  0  0
    2.1428   -2.3462   -1.2456 C   0  0  0  0  0  0  0  0  0  0  0  0
    1.5647   -3.0052   -1.8864 H   0  0  0  0  0  0  0  0  0  0  0  0
   -1.0234    0.9493    0.3884 C   0  0  0  0  0  0  0  0  0  0  0  0
   -1.8938    1.4411   -0.3213 O   0  0  0  0  0  0  0  0  0  0  0  0
   -0.3283    1.7589    1.2680 N   0  0  0  0  0  0  0  0  0  0  0  0
    0.3010    1.3046    1.9237 H   0  0  0  0  0  0  0  0  0  0  0  0
   -0.5967    3.1834    1.4230 C   0  0  0  0  0  0  0  0  0  0  0  0
   -1.6319    3.3464    1.7408 H   0  0  0  0  0  0  0  0  0  0  0  0
    0.0690    3.6139    2.1772 H   0  0  0  0  0  0  0  0  0  0  0  0
   -0.4314    3.7088    0.4765 H   0  0  0  0  0  0  0  0  0  0  0  0
  1  2  1  0  0  0  0
  2  3  1  0  0  0  0
  2  4  1  0  0  0  0
  2  5  1  0  0  0  0
  5  6  2  0  0  0  0
  5  7  1  0  0  0  0
  7  8  1  0  0  0  0
  7  9  1  0  0  0  0
  9 10  1  0  0  0  0
  9 11  1  0  0  0  0
  9 25  1  0  0  0  0
 11 12  1  0  0  0  0
 11 13  1  0  0  0  0
 11 14  1  0  0  0  0
 14 15  1  0  0  0  0
 14 23  2  0  0  0  0
 15 16  1  0  0  0  0
 15 17  2  0  0  0  0
 17 18  1  0  0  0  0
 17 19  1  0  0  0  0
 19 20  1  0  0  0  0
 19 21  2  0  0  0  0
 21 22  1  0  0  0  0
 21 23  1  0  0  0  0
 23 24  1  0  0  0  0
 25 26  2  0  0  0  0
 25 27  1  0  0  0  0
 27 28  1  0  0  0  0
 27 29  1  0  0  0  0
 29 30  1  0  0  0  0
 29 31  1  0  0  0  0
 29 32  1  0  0  0  0
M  END
$$$$

  -OEChem-04042216033D

 32 32  0     1  0  0  0  0  0999 V2000
   -3.7775   -3.9270    1.5902 H   0  0  0  0  0  0  0  0  0  0  0  0
   -3.7126   -3.0493    0.9411 C   0  0  0  0  0  0  0  0  0  0  0  0
   -4.4663   -2.3227    1.2540 H   0  0  0  0  0  0  0  0  0  0  0  0
   -3.9167   -3.3562   -0.0875 H   0  0  0  0  0  0  0  0  0  0  0  0
   -2.3297   -2.4321    1.0324 C   0  0  0  0  0  0  0  0  0  0  0  0
   -1.4935   -2.9186    1.7767 O   0  0  0  0  0  0  0  0  0  0  0  0
   -2.0334   -1.3134    0.2818 N   0  0  0  0  0  0  0  0  0  0  0  0
   -2.7941   -0.8897   -0.2473 H   0  0  0  0  0  0  0  0  0  0  0  0
   -0.7652   -0.5685    0.3366 C   0  0  1  0  0  0  0  0  0  0  0  0
   -0.2357   -0.8485    1.2519 H   0  0  0  0  0  0  0  0  0  0  0  0
    0.0880   -0.9411   -0.9005 C   0  0  0  0  0  0  0  0  0  0  0  0
   -0.3428   -1.8379   -1.3583 H   0  0  0  0  0  0  0  0  0  0  0  0
    0.0188   -0.1446   -1.6489 H   0  0  0  0  0  0  0  0  0  0  0  0
    1.5557   -1.2248   -0.6301 C   0  0  0  0  0  0  0  0  0  0  0  0
    2.2810   -0.6188    0.4131 C   0  0  0  0  0  0  0  0  0  0  0  0
    1.8160    0.1006    1.0750 H   0  0  0  0  0  0  0  0  0  0  0  0
    3.6332   -0.9179    0.6141 C   0  0  0  0  0  0  0  0  0  0  0  0
    4.1810   -0.4417    1.4219 H   0  0  0  0  0  0  0  0  0  0  0  0
    4.2821   -1.8273   -0.2243 C   0  0  0  0  0  0  0  0  0  0  0  0
    5.3311   -2.0610   -0.0679 H   0  0  0  0  0  0  0  0  0  0  0  0
    3.5775   -2.4348   -1.2658 C   0  0  0  0  0  0  0  0  0  0  0  0
    4.0780   -3.1424   -1.9203 H   0  0  0  0  0  0  0  0  0  0  0  0
    2.2263   -2.1331   -1.4655 C   0  0  0  0  0  0  0  0  0  0  0  0
    1.6944   -2.6157   -2.2801 H   0  0  0  0  0  0  0  0  0  0  0  0
   -1.0324    0.9484    0.3878 C   0  0  0  0  0  0  0  0  0  0  0  0
   -1.8933    1.4370   -0.3355 O   0  0  0  0  0  0  0  0  0  0  0  0
   -0.3474    1.7617    1.2721 N   0  0  0  0  0  0  0  0  0  0  0  0
    0.2840    1.3140    1.9295 H   0  0  0  0  0  0  0  0  0  0  0  0
   -0.6032    3.1905    1.4052 C   0  0  0  0  0  0  0  0  0  0  0  0
   -1.6433    3.3679    1.6983 H   0  0  0  0  0  0  0  0  0  0  0  0
    0.0503    3.6223    2.1693 H   0  0  0  0  0  0  0  0  0  0  0  0
   -0.4112    3.7039    0.4571 H   0  0  0  0  0  0  0  0  0  0  0  0
  1  2  1  0  0  0  0
  2  3  1  0  0  0  0
  2  4  1  0  0  0  0
  2  5  1  0  0  0  0
  5  6  2  0  0  0  0
  5  7  1  0  0  0  0
  7  8  1  0  0  0  0
  7  9  1  0  0  0  0
  9 10  1  0  0  0  0
  9 11  1  0  0  0  0
  9 25  1  0  0  0  0
 11 12  1  0  0  0  0
 11 13  1  0  0  0  0
 11 14  1  0  0  0  0
 14 15  1  0  0  0  0
 14 23  2  0  0  0  0
 15 16  1  0  0  0  0
 15 17  2  0  0  0  0
 17 18  1  0  0  0  0
 17 19  1  0  0  0  0
 19 20  1  0  0  0  0
 19 21  2  0  0  0  0
 21 22  1  0  0  0  0
 21 23  1  0  0  0  0
 23 24  1  0  0  0  0
 25 26  2  0  0  0  0
 25 27  1  0  0  0  0
 27 28  1  0  0  0  0
 27 29  1  0  0  0  0
 29 30  1  0  0  0  0
 29 31  1  0  0  0  0
 29 32  1  0  0  0  0
M  END
$$$$

  -OEChem-04042216033D

 32 32  0     1  0  0  0  0  0999 V2000
   -3.8141   -3.9345    1.5715 H   0  0  0  0  0  0  0  0  0  0  0  0
   -3.7446   -3.0563    0.9236 C   0  0  0  0  0  0  0  0  0  0  0  0
   -4.5027   -2.3314    1.2299 H   0  0  0  0  0  0  0  0  0  0  0  0
   -3.9382   -3.3629   -0.1071 H   0  0  0  0  0  0  0  0  0  0  0  0
   -2.3633   -2.4377    1.0282 C   0  0  0  0  0  0  0  0  0  0  0  0
   -1.5351   -2.9223    1.7826 O   0  0  0  0  0  0  0  0  0  0  0  0
   -2.0583   -1.3213    0.2772 N   0  0  0  0  0  0  0  0  0  0  0  0
   -2.8141   -0.8981   -0.2590 H   0  0  0  0  0  0  0  0  0  0  0  0
   -0.7922   -0.5738    0.3464 C   0  0  1  0  0  0  0  0  0  0  0  0
   -0.2974   -0.8517    1.2787 H   0  0  0  0  0  0  0  0  0  0  0  0
    0.0935   -0.9478   -0.8672 C   0  0  0  0  0  0  0  0  0  0  0  0
   -0.3207   -1.8534   -1.3230 H   0  0  0  0  0  0  0  0  0  0  0  0
    0.0235   -0.1588   -1.6238 H   0  0  0  0  0  0  0  0  0  0  0  0
    1.5644   -1.2261   -0.5965 C   0  0  0  0  0  0  0  0  0  0  0  0
    2.2393   -0.8819    0.5928 C   0  0  0  0  0  0  0  0  0  0  0  0
    1.7409   -0.3756    1.4092 H   0  0  0  0  0  0  0  0  0  0  0  0
    3.5976   -1.1764    0.7570 C   0  0  0  0  0  0  0  0  0  0  0  0
    4.1040   -0.9074    1.6793 H   0  0  0  0  0  0  0  0  0  0  0  0
    4.3064   -1.8159   -0.2619 C   0  0  0  0  0  0  0  0  0  0  0  0
    5.3600   -2.0458   -0.1326 H   0  0  0  0  0  0  0  0  0  0  0  0
    3.6551   -2.1589   -1.4478 C   0  0  0  0  0  0  0  0  0  0  0  0
    4.2014   -2.6559   -2.2439 H   0  0  0  0  0  0  0  0  0  0  0  0
    2.2976   -1.8649   -1.6101 C   0  0  0  0  0  0  0  0  0  0  0  0
    1.8073   -2.1401   -2.5394 H   0  0  0  0  0  0  0  0  0  0  0  0
   -1.0444    0.9448    0.3884 C   0  0  0  0  0  0  0  0  0  0  0  0
   -1.9054    1.4366   -0.3325 O   0  0  0  0  0  0  0  0  0  0  0  0
   -0.3608    1.7520    1.2788 N   0  0  0  0  0  0  0  0  0  0  0  0
    0.3182    1.3107    1.8915 H   0  0  0  0  0  0  0  0  0  0  0  0
   -0.5838    3.1879    1.3911 C   0  0  0  0  0  0  0  0  0  0  0  0
   -1.6265    3.3946    1.6545 H   0  0  0  0  0  0  0  0  0  0  0  0
    0.0594    3.6105    2.1688 H   0  0  0  0  0  0  0  0  0  0  0  0
   -0.3539    3.6858    0.4434 H   0  0  0  0  0  0  0  0  0  0  0  0
  1  2  1  0  0  0  0
  2  3  1  0  0  0  0
  2  4  1  0  0  0  0
  2  5  1  0  0  0  0
  5  6  2  0  0  0  0
  5  7  1  0  0  0  0
  7  8  1  0  0  0  0
  7  9  1  0  0  0  0
  9 10  1  0  0  0  0
  9 11  1  0  0  0  0
  9 25  1  0  0  0  0
 11 12  1  0  0  0  0
 11 13  1  0  0  0  0
 11 14  1  0  0  0  0
 14 15  1  0  0  0  0
 14 23  2  0  0  0  0
 15 16  1  0  0  0  0
 15 17  2  0  0  0  0
 17 18  1  0  0  0  0
 17 19  1  0  0  0  0
 19 20  1  0  0  0  0
 19 21  2  0  0  0  0
 21 22  1  0  0  0  0
 21 23  1  0  0  0  0
 23 24  1  0  0  0  0
 25 26  2  0  0  0  0
 25 27  1  0  0  0  0
 27 28  1  0  0  0  0
 27 29  1  0  0  0  0
 29 30  1  0  0  0  0
 29 31  1  0  0  0  0
 29 32  1  0  0  0  0
M  END
$$$$

  -OEChem-04042216033D

 32 32  0     1  0  0  0  0  0999 V2000
   -3.8599   -3.9386    1.5513 H   0  0  0  0  0  0  0  0  0  0  0  0
   -3.7844   -3.0556    0.9106 C   0  0  0  0  0  0  0  0  0  0  0  0
   -4.5415   -2.3306    1.2191 H   0  0  0  0  0  0  0  0  0  0  0  0
   -3.9751   -3.3533   -0.1232 H   0  0  0  0  0  0  0  0  0  0  0  0
   -2.4012   -2.4426    1.0259 C   0  0  0  0  0  0  0  0  0  0  0  0
   -1.5818   -2.9288    1.7893 O   0  0  0  0  0  0  0  0  0  0  0  0
   -2.0834   -1.3296    0.2747 N   0  0  0  0  0  0  0  0  0  0  0  0
   -2.8304   -0.9059   -0.2735 H   0  0  0  0  0  0  0  0  0  0  0  0
   -0.8158   -0.5863    0.3573 C   0  0  1  0  0  0  0  0  0  0  0  0
   -0.3478   -0.8560    1.3026 H   0  0  0  0  0  0  0  0  0  0  0  0
    0.0924   -0.9639   -0.8386 C   0  0  0  0  0  0  0  0  0  0  0  0
   -0.3132   -1.8726   -1.2957 H   0  0  0  0  0  0  0  0  0  0  0  0
    0.0251   -0.1776   -1.5982 H   0  0  0  0  0  0  0  0  0  0  0  0
    1.5640   -1.2469   -0.5683 C   0  0  0  0  0  0  0  0  0  0  0  0
    2.1907   -1.1964    0.6955 C   0  0  0  0  0  0  0  0  0  0  0  0
    1.6536   -0.9645    1.6058 H   0  0  0  0  0  0  0  0  0  0  0  0
    3.5596   -1.4570    0.8269 C   0  0  0  0  0  0  0  0  0  0  0  0
    4.0266   -1.4196    1.8068 H   0  0  0  0  0  0  0  0  0  0  0  0
    4.3282   -1.7694   -0.2958 C   0  0  0  0  0  0  0  0  0  0  0  0
    5.3902   -1.9716   -0.1915 H   0  0  0  0  0  0  0  0  0  0  0  0
    3.7254   -1.8235   -1.5532 C   0  0  0  0  0  0  0  0  0  0  0  0
    4.3177   -2.0661   -2.4305 H   0  0  0  0  0  0  0  0  0  0  0  0
    2.3575   -1.5647   -1.6833 C   0  0  0  0  0  0  0  0  0  0  0  0
    1.9063   -1.6097   -2.6703 H   0  0  0  0  0  0  0  0  0  0  0  0
   -1.0501    0.9347    0.3917 C   0  0  0  0  0  0  0  0  0  0  0  0
   -1.9009    1.4344   -0.3358 O   0  0  0  0  0  0  0  0  0  0  0  0
   -0.3653    1.7326    1.2892 N   0  0  0  0  0  0  0  0  0  0  0  0
    0.3413    1.2896    1.8692 H   0  0  0  0  0  0  0  0  0  0  0  0
   -0.5403    3.1772    1.3707 C   0  0  0  0  0  0  0  0  0  0  0  0
   -1.5832    3.4253    1.5940 H   0  0  0  0  0  0  0  0  0  0  0  0
    0.0899    3.5898    2.1644 H   0  0  0  0  0  0  0  0  0  0  0  0
   -0.2600    3.6510    0.4241 H   0  0  0  0  0  0  0  0  0  0  0  0
  1  2  1  0  0  0  0
  2  3  1  0  0  0  0
  2  4  1  0  0  0  0
  2  5  1  0  0  0  0
  5  6  2  0  0  0  0
  5  7  1  0  0  0  0
  7  8  1  0  0  0  0
  7  9  1  0  0  0  0
  9 10  1  0  0  0  0
  9 11  1  0  0  0  0
  9 25  1  0  0  0  0
 11 12  1  0  0  0  0
 11 13  1  0  0  0  0
 11 14  1  0  0  0  0
 14 15  1  0  0  0  0
 14 23  2  0  0  0  0
 15 16  1  0  0  0  0
 15 17  2  0  0  0  0
 17 18  1  0  0  0  0
 17 19  1  0  0  0  0
 19 20  1  0  0  0  0
 19 21  2  0  0  0  0
 21 22  1  0  0  0  0
 21 23  1  0  0  0  0
 23 24  1  0  0  0  0
 25 26  2  0  0  0  0
 25 27  1  0  0  0  0
 27 28  1  0  0  0  0
 27 29  1  0  0  0  0
 29 30  1  0  0  0  0
 29 31  1  0  0  0  0
 29 32  1  0  0  0  0
M  END
$$$$

  -OEChem-04042216033D

 32 32  0     1  0  0  0  0  0999 V2000
   -3.8654   -3.9230    1.5744 H   0  0  0  0  0  0  0  0  0  0  0  0
   -3.7921   -3.0447    0.9269 C   0  0  0  0  0  0  0  0  0  0  0  0
   -4.5444   -2.3152    1.2364 H   0  0  0  0  0  0  0  0  0  0  0  0
   -3.9919   -3.3495   -0.1033 H   0  0  0  0  0  0  0  0  0  0  0  0
   -2.4061   -2.4356    1.0266 C   0  0  0  0  0  0  0  0  0  0  0  0
   -1.5776   -2.9265    1.7776 O   0  0  0  0  0  0  0  0  0  0  0  0
   -2.0904   -1.3252    0.2706 N   0  0  0  0  0  0  0  0  0  0  0  0
   -2.8404   -0.8920   -0.2660 H   0  0  0  0  0  0  0  0  0  0  0  0
   -0.8152   -0.5952    0.3460 C   0  0  1  0  0  0  0  0  0  0  0  0
   -0.3415   -0.8535    1.2905 H   0  0  0  0  0  0  0  0  0  0  0  0
    0.0803   -0.9749   -0.8593 C   0  0  0  0  0  0  0  0  0  0  0  0
   -0.3326   -1.8788   -1.3189 H   0  0  0  0  0  0  0  0  0  0  0  0
    0.0109   -0.1837   -1.6139 H   0  0  0  0  0  0  0  0  0  0  0  0
    1.5492   -1.2734   -0.5915 C   0  0  0  0  0  0  0  0  0  0  0  0
    2.1098   -1.5308    0.6779 C   0  0  0  0  0  0  0  0  0  0  0  0
    1.5099   -1.5991    1.5772 H   0  0  0  0  0  0  0  0  0  0  0  0
    3.4833   -1.7569    0.8226 C   0  0  0  0  0  0  0  0  0  0  0  0
    3.8966   -1.9632    1.8058 H   0  0  0  0  0  0  0  0  0  0  0  0
    4.3227   -1.7297   -0.2924 C   0  0  0  0  0  0  0  0  0  0  0  0
    5.3879   -1.9079   -0.1778 H   0  0  0  0  0  0  0  0  0  0  0  0
    3.7856   -1.4797   -1.5558 C   0  0  0  0  0  0  0  0  0  0  0  0
    4.4336   -1.4588   -2.4270 H   0  0  0  0  0  0  0  0  0  0  0  0
    2.4130   -1.2546   -1.6996 C   0  0  0  0  0  0  0  0  0  0  0  0
    2.0157   -1.0577   -2.6910 H   0  0  0  0  0  0  0  0  0  0  0  0
   -1.0369    0.9279    0.3836 C   0  0  0  0  0  0  0  0  0  0  0  0
   -1.8919    1.4361   -0.3333 O   0  0  0  0  0  0  0  0  0  0  0  0
   -0.3387    1.7170    1.2786 N   0  0  0  0  0  0  0  0  0  0  0  0
    0.3789    1.2675    1.8406 H   0  0  0  0  0  0  0  0  0  0  0  0
   -0.5059    3.1617    1.3723 C   0  0  0  0  0  0  0  0  0  0  0  0
   -1.5476    3.4134    1.5975 H   0  0  0  0  0  0  0  0  0  0  0  0
    0.1260    3.5640    2.1699 H   0  0  0  0  0  0  0  0  0  0  0  0
   -0.2228    3.6419    0.4297 H   0  0  0  0  0  0  0  0  0  0  0  0
  1  2  1  0  0  0  0
  2  3  1  0  0  0  0
  2  4  1  0  0  0  0
  2  5  1  0  0  0  0
  5  6  2  0  0  0  0
  5  7  1  0  0  0  0
  7  8  1  0  0  0  0
  7  9  1  0  0  0  0
  9 10  1  0  0  0  0
  9 11  1  0  0  0  0
  9 25  1  0  0  0  0
 11 12  1  0  0  0  0
 11 13  1  0  0  0  0
 11 14  1  0  0  0  0
 14 15  1  0  0  0  0
 14 23  2  0  0  0  0
 15 16  1  0  0  0  0
 15 17  2  0  0  0  0
 17 18  1  0  0  0  0
 17 19  1  0  0  0  0
 19 20  1  0  0  0  0
 19 21  2  0  0  0  0
 21 22  1  0  0  0  0
 21 23  1  0  0  0  0
 23 24  1  0  0  0  0
 25 26  2  0  0  0  0
 25 27  1  0  0  0  0
 27 28  1  0  0  0  0
 27 29  1  0  0  0  0
 29 30  1  0  0  0  0
 29 31  1  0  0  0  0
 29 32  1  0  0  0  0
M  END
$$$$

  -OEChem-04042216033D

 32 32  0     1  0  0  0  0  0999 V2000
   -3.8313   -3.9102    1.6322 H   0  0  0  0  0  0  0  0  0  0  0  0
   -3.7692   -3.0402    0.9725 C   0  0  0  0  0  0  0  0  0  0  0  0
   -4.5024   -2.2981    1.2976 H   0  0  0  0  0  0  0  0  0  0  0  0
   -4.0055   -3.3542   -0.0472 H   0  0  0  0  0  0  0  0  0  0  0  0
   -2.3741   -2.4462    1.0209 C   0  0  0  0  0  0  0  0  0  0  0  0
   -1.5184   -2.9560    1.7278 O   0  0  0  0  0  0  0  0  0  0  0  0
   -2.0784   -1.3290    0.2675 N   0  0  0  0  0  0  0  0  0  0  0  0
   -2.8460   -0.8776   -0.2275 H   0  0  0  0  0  0  0  0  0  0  0  0
   -0.7989   -0.6060    0.3176 C   0  0  1  0  0  0  0  0  0  0  0  0
   -0.2896   -0.8666    1.2449 H   0  0  0  0  0  0  0  0  0  0  0  0
    0.0591   -0.9688   -0.9195 C   0  0  0  0  0  0  0  0  0  0  0  0
   -0.3614   -1.8666   -1.3840 H   0  0  0  0  0  0  0  0  0  0  0  0
   -0.0237   -0.1675   -1.6621 H   0  0  0  0  0  0  0  0  0  0  0  0
    1.5250   -1.2716   -0.6549 C   0  0  0  0  0  0  0  0  0  0  0  0
    2.0019   -1.8332    0.5463 C   0  0  0  0  0  0  0  0  0  0  0  0
    1.3243   -2.1553    1.3308 H   0  0  0  0  0  0  0  0  0  0  0  0
    3.3701   -2.0482    0.7433 C   0  0  0  0  0  0  0  0  0  0  0  0
    3.7184   -2.4959    1.6695 H   0  0  0  0  0  0  0  0  0  0  0  0
    4.2859   -1.7017   -0.2524 C   0  0  0  0  0  0  0  0  0  0  0  0
    5.3477   -1.8716   -0.0991 H   0  0  0  0  0  0  0  0  0  0  0  0
    3.8301   -1.1445   -1.4489 C   0  0  0  0  0  0  0  0  0  0  0  0
    4.5386   -0.8762   -2.2271 H   0  0  0  0  0  0  0  0  0  0  0  0
    2.4615   -0.9328   -1.6459 C   0  0  0  0  0  0  0  0  0  0  0  0
    2.1277   -0.4949   -2.5821 H   0  0  0  0  0  0  0  0  0  0  0  0
   -1.0225    0.9162    0.3782 C   0  0  0  0  0  0  0  0  0  0  0  0
   -1.8964    1.4310   -0.3108 O   0  0  0  0  0  0  0  0  0  0  0  0
   -0.3031    1.6972    1.2634 N   0  0  0  0  0  0  0  0  0  0  0  0
    0.4300    1.2427    1.8013 H   0  0  0  0  0  0  0  0  0  0  0  0
   -0.4699    3.1408    1.3755 C   0  0  0  0  0  0  0  0  0  0  0  0
   -1.5056    3.3891    1.6303 H   0  0  0  0  0  0  0  0  0  0  0  0
    0.1822    3.5370    2.1599 H   0  0  0  0  0  0  0  0  0  0  0  0
   -0.2121    3.6297    0.4302 H   0  0  0  0  0  0  0  0  0  0  0  0
  1  2  1  0  0  0  0
  2  3  1  0  0  0  0
  2  4  1  0  0  0  0
  2  5  1  0  0  0  0
  5  6  2  0  0  0  0
  5  7  1  0  0  0  0
  7  8  1  0  0  0  0
  7  9  1  0  0  0  0
  9 10  1  0  0  0  0
  9 11  1  0  0  0  0
  9 25  1  0  0  0  0
 11 12  1  0  0  0  0
 11 13  1  0  0  0  0
 11 14  1  0  0  0  0
 14 15  1  0  0  0  0
 14 23  2  0  0  0  0
 15 16  1  0  0  0  0
 15 17  2  0  0  0  0
 17 18  1  0  0  0  0
 17 19  1  0  0  0  0
 19 20  1  0  0  0  0
 19 21  2  0  0  0  0
 21 22  1  0  0  0  0
 21 23  1  0  0  0  0
 23 24  1  0  0  0  0
 25 26  2  0  0  0  0
 25 27  1  0  0  0  0
 27 28  1  0  0  0  0
 27 29  1  0  0  0  0
 29 30  1  0  0  0  0
 29 31  1  0  0  0  0
 29 32  1  0  0  0  0
M  END
$$$$

  -OEChem-04042216033D

 32 32  0     1  0  0  0  0  0999 V2000
   -3.7774   -3.9212    1.6766 H   0  0  0  0  0  0  0  0  0  0  0  0
   -3.7334   -3.0524    1.0139 C   0  0  0  0  0  0  0  0  0  0  0  0
   -4.4444   -2.3025    1.3688 H   0  0  0  0  0  0  0  0  0  0  0  0
   -4.0157   -3.3637    0.0053 H   0  0  0  0  0  0  0  0  0  0  0  0
   -2.3314   -2.4729    1.0031 C   0  0  0  0  0  0  0  0  0  0  0  0
   -1.4467   -3.0045    1.6562 O   0  0  0  0  0  0  0  0  0  0  0  0
   -2.0652   -1.3422    0.2588 N   0  0  0  0  0  0  0  0  0  0  0  0
   -2.8542   -0.8801   -0.1907 H   0  0  0  0  0  0  0  0  0  0  0  0
   -0.7879   -0.6128    0.2733 C   0  0  1  0  0  0  0  0  0  0  0  0
   -0.2391   -0.8909    1.1758 H   0  0  0  0  0  0  0  0  0  0  0  0
    0.0344   -0.9571   -0.9898 C   0  0  0  0  0  0  0  0  0  0  0  0
   -0.3822   -1.8567   -1.4542 H   0  0  0  0  0  0  0  0  0  0  0  0
   -0.0642   -0.1512   -1.7251 H   0  0  0  0  0  0  0  0  0  0  0  0
    1.4972   -1.2404   -0.7118 C   0  0  0  0  0  0  0  0  0  0  0  0
    1.9081   -2.0648    0.3514 C   0  0  0  0  0  0  0  0  0  0  0  0
    1.1749   -2.5666    0.9776 H   0  0  0  0  0  0  0  0  0  0  0  0
    3.2666   -2.2796    0.6052 C   0  0  0  0  0  0  0  0  0  0  0  0
    3.5676   -2.9252    1.4252 H   0  0  0  0  0  0  0  0  0  0  0  0
    4.2338   -1.6718   -0.1991 C   0  0  0  0  0  0  0  0  0  0  0  0
    5.2885   -1.8405   -0.0028 H   0  0  0  0  0  0  0  0  0  0  0  0
    3.8400   -0.8520   -1.2597 C   0  0  0  0  0  0  0  0  0  0  0  0
    4.5900   -0.3804   -1.8878 H   0  0  0  0  0  0  0  0  0  0  0  0
    2.4805   -0.6384   -1.5128 C   0  0  0  0  0  0  0  0  0  0  0  0
    2.1926    0.0044   -2.3397 H   0  0  0  0  0  0  0  0  0  0  0  0
   -1.0094    0.9078    0.3659 C   0  0  0  0  0  0  0  0  0  0  0  0
   -1.9089    1.4323   -0.2816 O   0  0  0  0  0  0  0  0  0  0  0  0
   -0.2575    1.6748    1.2362 N   0  0  0  0  0  0  0  0  0  0  0  0
    0.4926    1.2107    1.7419 H   0  0  0  0  0  0  0  0  0  0  0  0
   -0.4240    3.1151    1.3844 C   0  0  0  0  0  0  0  0  0  0  0  0
   -1.4476    3.3531    1.6923 H   0  0  0  0  0  0  0  0  0  0  0  0
    0.2625    3.4984    2.1452 H   0  0  0  0  0  0  0  0  0  0  0  0
   -0.2122    3.6243    0.4384 H   0  0  0  0  0  0  0  0  0  0  0  0
  1  2  1  0  0  0  0
  2  3  1  0  0  0  0
  2  4  1  0  0  0  0
  2  5  1  0  0  0  0
  5  6  2  0  0  0  0
  5  7  1  0  0  0  0
  7  8  1  0  0  0  0
  7  9  1  0  0  0  0
  9 10  1  0  0  0  0
  9 11  1  0  0  0  0
  9 25  1  0  0  0  0
 11 12  1  0  0  0  0
 11 13  1  0  0  0  0
 11 14  1  0  0  0  0
 14 15  1  0  0  0  0
 14 23  2  0  0  0  0
 15 16  1  0  0  0  0
 15 17  2  0  0  0  0
 17 18  1  0  0  0  0
 17 19  1  0  0  0  0
 19 20  1  0  0  0  0
 19 21  2  0  0  0  0
 21 22  1  0  0  0  0
 21 23  1  0  0  0  0
 23 24  1  0  0  0  0
 25 26  2  0  0  0  0
 25 27  1  0  0  0  0
 27 28  1  0  0  0  0
 27 29  1  0  0  0  0
 29 30  1  0  0  0  0
 29 31  1  0  0  0  0
 29 32  1  0  0  0  0
M  END
$$$$

  -OEChem-04042216033D

 32 32  0     1  0  0  0  0  0999 V2000
   -3.7217   -3.9423    1.6939 H   0  0  0  0  0  0  0  0  0  0  0  0
   -3.6939   -3.0722    1.0320 C   0  0  0  0  0  0  0  0  0  0  0  0
   -4.3990   -2.3247    1.4038 H   0  0  0  0  0  0  0  0  0  0  0  0
   -3.9973   -3.3824    0.0291 H   0  0  0  0  0  0  0  0  0  0  0  0
   -2.2936   -2.4895    0.9918 C   0  0  0  0  0  0  0  0  0  0  0  0
   -1.3899   -3.0311    1.6093 O   0  0  0  0  0  0  0  0  0  0  0  0
   -2.0508   -1.3490    0.2547 N   0  0  0  0  0  0  0  0  0  0  0  0
   -2.8545   -0.8851   -0.1659 H   0  0  0  0  0  0  0  0  0  0  0  0
   -0.7784   -0.6111    0.2408 C   0  0  1  0  0  0  0  0  0  0  0  0
   -0.1985   -0.9045    1.1212 H   0  0  0  0  0  0  0  0  0  0  0  0
    0.0151   -0.9460   -1.0395 C   0  0  0  0  0  0  0  0  0  0  0  0
   -0.3971   -1.8496   -1.5001 H   0  0  0  0  0  0  0  0  0  0  0  0
   -0.0933   -0.1403   -1.7735 H   0  0  0  0  0  0  0  0  0  0  0  0
    1.4738   -1.2091   -0.7447 C   0  0  0  0  0  0  0  0  0  0  0  0
    1.8576   -2.2508    0.1153 C   0  0  0  0  0  0  0  0  0  0  0  0
    1.1039   -2.8959    0.5606 H   0  0  0  0  0  0  0  0  0  0  0  0
    3.2075   -2.4733    0.4048 C   0  0  0  0  0  0  0  0  0  0  0  0
    3.4907   -3.2843    1.0693 H   0  0  0  0  0  0  0  0  0  0  0  0
    4.1885   -1.6545   -0.1615 C   0  0  0  0  0  0  0  0  0  0  0  0
    5.2369   -1.8286    0.0620 H   0  0  0  0  0  0  0  0  0  0  0  0
    3.8172   -0.6131   -1.0171 C   0  0  0  0  0  0  0  0  0  0  0  0
    4.5781    0.0237   -1.4583 H   0  0  0  0  0  0  0  0  0  0  0  0
    2.4662   -0.3915   -1.3060 C   0  0  0  0  0  0  0  0  0  0  0  0
    2.1921    0.4227   -1.9705 H   0  0  0  0  0  0  0  0  0  0  0  0
   -0.9985    0.9074    0.3560 C   0  0  0  0  0  0  0  0  0  0  0  0
   -1.9149    1.4379   -0.2617 O   0  0  0  0  0  0  0  0  0  0  0  0
   -0.2224    1.6658    1.2123 N   0  0  0  0  0  0  0  0  0  0  0  0
    0.5369    1.1951    1.6979 H   0  0  0  0  0  0  0  0  0  0  0  0
   -0.3927    3.1024    1.3891 C   0  0  0  0  0  0  0  0  0  0  0  0
   -1.4107    3.3297    1.7224 H   0  0  0  0  0  0  0  0  0  0  0  0
    0.3076    3.4763    2.1421 H   0  0  0  0  0  0  0  0  0  0  0  0
   -0.2037    3.6290    0.4479 H   0  0  0  0  0  0  0  0  0  0  0  0
  1  2  1  0  0  0  0
  2  3  1  0  0  0  0
  2  4  1  0  0  0  0
  2  5  1  0  0  0  0
  5  6  2  0  0  0  0
  5  7  1  0  0  0  0
  7  8  1  0  0  0  0
  7  9  1  0  0  0  0
  9 10  1  0  0  0  0
  9 11  1  0  0  0  0
  9 25  1  0  0  0  0
 11 12  1  0  0  0  0
 11 13  1  0  0  0  0
 11 14  1  0  0  0  0
 14 15  1  0  0  0  0
 14 23  2  0  0  0  0
 15 16  1  0  0  0  0
 15 17  2  0  0  0  0
 17 18  1  0  0  0  0
 17 19  1  0  0  0  0
 19 20  1  0  0  0  0
 19 21  2  0  0  0  0
 21 22  1  0  0  0  0
 21 23  1  0  0  0  0
 23 24  1  0  0  0  0
 25 26  2  0  0  0  0
 25 27  1  0  0  0  0
 27 28  1  0  0  0  0
 27 29  1  0  0  0  0
 29 30  1  0  0  0  0
 29 31  1  0  0  0  0
 29 32  1  0  0  0  0
M  END
$$$$

  -OEChem-04042216033D

 32 32  0     1  0  0  0  0  0999 V2000
   -3.6782   -3.9561    1.6980 H   0  0  0  0  0  0  0  0  0  0  0  0
   -3.6666   -3.0827    1.0401 C   0  0  0  0  0  0  0  0  0  0  0  0
   -4.3620   -2.3370    1.4330 H   0  0  0  0  0  0  0  0  0  0  0  0
   -3.9944   -3.3874    0.0433 H   0  0  0  0  0  0  0  0  0  0  0  0
   -2.2679   -2.4996    0.9684 C   0  0  0  0  0  0  0  0  0  0  0  0
   -1.3464   -3.0532    1.5476 O   0  0  0  0  0  0  0  0  0  0  0  0
   -2.0447   -1.3504    0.2387 N   0  0  0  0  0  0  0  0  0  0  0  0
   -2.8595   -0.8818   -0.1543 H   0  0  0  0  0  0  0  0  0  0  0  0
   -0.7766   -0.6054    0.2121 C   0  0  1  0  0  0  0  0  0  0  0  0
   -0.1839   -0.9074    1.0821 H   0  0  0  0  0  0  0  0  0  0  0  0
    0.0055   -0.9400   -1.0717 C   0  0  0  0  0  0  0  0  0  0  0  0
   -0.4033   -1.8462   -1.5310 H   0  0  0  0  0  0  0  0  0  0  0  0
   -0.1008   -0.1359   -1.8079 H   0  0  0  0  0  0  0  0  0  0  0  0
    1.4592   -1.1872   -0.7546 C   0  0  0  0  0  0  0  0  0  0  0  0
    1.8574   -2.3859   -0.1447 C   0  0  0  0  0  0  0  0  0  0  0  0
    1.1159   -3.1428    0.0997 H   0  0  0  0  0  0  0  0  0  0  0  0
    3.2027   -2.6101    0.1654 C   0  0  0  0  0  0  0  0  0  0  0  0
    3.4993   -3.5406    0.6404 H   0  0  0  0  0  0  0  0  0  0  0  0
    4.1611   -1.6364   -0.1332 C   0  0  0  0  0  0  0  0  0  0  0  0
    5.2058   -1.8111    0.1068 H   0  0  0  0  0  0  0  0  0  0  0  0
    3.7722   -0.4381   -0.7402 C   0  0  0  0  0  0  0  0  0  0  0  0
    4.5154    0.3186   -0.9741 H   0  0  0  0  0  0  0  0  0  0  0  0
    2.4257   -0.2142   -1.0480 C   0  0  0  0  0  0  0  0  0  0  0  0
    2.1339    0.7204   -1.5184 H   0  0  0  0  0  0  0  0  0  0  0  0
   -0.9940    0.9113    0.3453 C   0  0  0  0  0  0  0  0  0  0  0  0
   -1.9213    1.4479   -0.2502 O   0  0  0  0  0  0  0  0  0  0  0  0
   -0.2028    1.6596    1.1966 N   0  0  0  0  0  0  0  0  0  0  0  0
    0.5590    1.1811    1.6707 H   0  0  0  0  0  0  0  0  0  0  0  0
   -0.3725    3.0932    1.3962 C   0  0  0  0  0  0  0  0  0  0  0  0
   -1.3839    3.3136    1.7536 H   0  0  0  0  0  0  0  0  0  0  0  0
    0.3428    3.4590    2.1391 H   0  0  0  0  0  0  0  0  0  0  0  0
   -0.2048    3.6324    0.4581 H   0  0  0  0  0  0  0  0  0  0  0  0
  1  2  1  0  0  0  0
  2  3  1  0  0  0  0
  2  4  1  0  0  0  0
  2  5  1  0  0  0  0
  5  6  2  0  0  0  0
  5  7  1  0  0  0  0
  7  8  1  0  0  0  0
  7  9  1  0  0  0  0
  9 10  1  0  0  0  0
  9 11  1  0  0  0  0
  9 25  1  0  0  0  0
 11 12  1  0  0  0  0
 11 13  1  0  0  0  0
 11 14  1  0  0  0  0
 14 15  1  0  0  0  0
 14 23  2  0  0  0  0
 15 16  1  0  0  0  0
 15 17  2  0  0  0  0
 17 18  1  0  0  0  0
 17 19  1  0  0  0  0
 19 20  1  0  0  0  0
 19 21  2  0  0  0  0
 21 22  1  0  0  0  0
 21 23  1  0  0  0  0
 23 24  1  0  0  0  0
 25 26  2  0  0  0  0
 25 27  1  0  0  0  0
 27 28  1  0  0  0  0
 27 29  1  0  0  0  0
 29 30  1  0  0  0  0
 29 31  1  0  0  0  0
 29 32  1  0  0  0  0
M  END
$$$$

  -OEChem-04042216033D

 32 32  0     1  0  0  0  0  0999 V2000
   -3.6723   -3.9567    1.6912 H   0  0  0  0  0  0  0  0  0  0  0  0
   -3.6631   -3.0814    1.0356 C   0  0  0  0  0  0  0  0  0  0  0  0
   -4.3563   -2.3366    1.4341 H   0  0  0  0  0  0  0  0  0  0  0  0
   -3.9956   -3.3833    0.0395 H   0  0  0  0  0  0  0  0  0  0  0  0
   -2.2640   -2.4992    0.9595 C   0  0  0  0  0  0  0  0  0  0  0  0
   -1.3413   -3.0546    1.5346 O   0  0  0  0  0  0  0  0  0  0  0  0
   -2.0436   -1.3478    0.2323 N   0  0  0  0  0  0  0  0  0  0  0  0
   -2.8597   -0.8802   -0.1590 H   0  0  0  0  0  0  0  0  0  0  0  0
   -0.7764   -0.6011    0.2038 C   0  0  1  0  0  0  0  0  0  0  0  0
   -0.1812   -0.9078    1.0710 H   0  0  0  0  0  0  0  0  0  0  0  0
    0.0056   -0.9378   -1.0786 C   0  0  0  0  0  0  0  0  0  0  0  0
   -0.4054   -1.8414   -1.5405 H   0  0  0  0  0  0  0  0  0  0  0  0
   -0.0933   -0.1327   -1.8148 H   0  0  0  0  0  0  0  0  0  0  0  0
    1.4572   -1.1795   -0.7501 C   0  0  0  0  0  0  0  0  0  0  0  0
    1.9084   -2.4671   -0.4279 C   0  0  0  0  0  0  0  0  0  0  0  0
    1.2078   -3.2977   -0.4033 H   0  0  0  0  0  0  0  0  0  0  0  0
    3.2540   -2.6883   -0.1162 C   0  0  0  0  0  0  0  0  0  0  0  0
    3.5921   -3.6885    0.1381 H   0  0  0  0  0  0  0  0  0  0  0  0
    4.1595   -1.6226   -0.1282 C   0  0  0  0  0  0  0  0  0  0  0  0
    5.2041   -1.7953    0.1131 H   0  0  0  0  0  0  0  0  0  0  0  0
    3.7179   -0.3356   -0.4513 C   0  0  0  0  0  0  0  0  0  0  0  0
    4.4207    0.4925   -0.4645 H   0  0  0  0  0  0  0  0  0  0  0  0
    2.3713   -0.1157   -0.7609 C   0  0  0  0  0  0  0  0  0  0  0  0
    2.0375    0.8865   -1.0145 H   0  0  0  0  0  0  0  0  0  0  0  0
   -0.9922    0.9153    0.3413 C   0  0  0  0  0  0  0  0  0  0  0  0
   -1.9157    1.4560   -0.2561 O   0  0  0  0  0  0  0  0  0  0  0  0
   -0.1973    1.6602    1.1924 N   0  0  0  0  0  0  0  0  0  0  0  0
    0.5483    1.1735    1.6839 H   0  0  0  0  0  0  0  0  0  0  0  0
   -0.3695    3.0918    1.4038 C   0  0  0  0  0  0  0  0  0  0  0  0
   -1.3759    3.3059    1.7785 H   0  0  0  0  0  0  0  0  0  0  0  0
    0.3563    3.4558    2.1373 H   0  0  0  0  0  0  0  0  0  0  0  0
   -0.2187    3.6376    0.4666 H   0  0  0  0  0  0  0  0  0  0  0  0
  1  2  1  0  0  0  0
  2  3  1  0  0  0  0
  2  4  1  0  0  0  0
  2  5  1  0  0  0  0
  5  6  2  0  0  0  0
  5  7  1  0  0  0  0
  7  8  1  0  0  0  0
  7  9  1  0  0  0  0
  9 10  1  0  0  0  0
  9 11  1  0  0  0  0
  9 25  1  0  0  0  0
 11 12  1  0  0  0  0
 11 13  1  0  0  0  0
 11 14  1  0  0  0  0
 14 15  1  0  0  0  0
 14 23  2  0  0  0  0
 15 16  1  0  0  0  0
 15 17  2  0  0  0  0
 17 18  1  0  0  0  0
 17 19  1  0  0  0  0
 19 20  1  0  0  0  0
 19 21  2  0  0  0  0
 21 22  1  0  0  0  0
 21 23  1  0  0  0  0
 23 24  1  0  0  0  0
 25 26  2  0  0  0  0
 25 27  1  0  0  0  0
 27 28  1  0  0  0  0
 27 29  1  0  0  0  0
 29 30  1  0  0  0  0
 29 31  1  0  0  0  0
 29 32  1  0  0  0  0
M  END
$$$$

  -OEChem-04042216033D

 32 32  0     1  0  0  0  0  0999 V2000
   -3.6904   -3.9558    1.6594 H   0  0  0  0  0  0  0  0  0  0  0  0
   -3.6712   -3.0757    1.0105 C   0  0  0  0  0  0  0  0  0  0  0  0
   -4.3767   -2.3371    1.3991 H   0  0  0  0  0  0  0  0  0  0  0  0
   -3.9807   -3.3721    0.0054 H   0  0  0  0  0  0  0  0  0  0  0  0
   -2.2738   -2.4857    0.9691 C   0  0  0  0  0  0  0  0  0  0  0  0
   -1.3659   -3.0284    1.5783 O   0  0  0  0  0  0  0  0  0  0  0  0
   -2.0401   -1.3377    0.2408 N   0  0  0  0  0  0  0  0  0  0  0  0
   -2.8470   -0.8796   -0.1797 H   0  0  0  0  0  0  0  0  0  0  0  0
   -0.7725   -0.5910    0.2273 C   0  0  1  0  0  0  0  0  0  0  0  0
   -0.1837   -0.8951    1.1000 H   0  0  0  0  0  0  0  0  0  0  0  0
    0.0188   -0.9354   -1.0494 C   0  0  0  0  0  0  0  0  0  0  0  0
   -0.4002   -1.8334   -1.5150 H   0  0  0  0  0  0  0  0  0  0  0  0
   -0.0690   -0.1286   -1.7850 H   0  0  0  0  0  0  0  0  0  0  0  0
    1.4720   -1.1840   -0.7253 C   0  0  0  0  0  0  0  0  0  0  0  0
    1.9879   -2.4879   -0.7085 C   0  0  0  0  0  0  0  0  0  0  0  0
    1.3354   -3.3345   -0.9020 H   0  0  0  0  0  0  0  0  0  0  0  0
    3.3389   -2.7128   -0.4233 C   0  0  0  0  0  0  0  0  0  0  0  0
    3.7257   -3.7274   -0.4027 H   0  0  0  0  0  0  0  0  0  0  0  0
    4.1886   -1.6332   -0.1634 C   0  0  0  0  0  0  0  0  0  0  0  0
    5.2375   -1.8086    0.0570 H   0  0  0  0  0  0  0  0  0  0  0  0
    3.6869   -0.3285   -0.1933 C   0  0  0  0  0  0  0  0  0  0  0  0
    4.3482    0.5116   -0.0023 H   0  0  0  0  0  0  0  0  0  0  0  0
    2.3352   -0.1055   -0.4769 C   0  0  0  0  0  0  0  0  0  0  0  0
    1.9603    0.9131   -0.5139 H   0  0  0  0  0  0  0  0  0  0  0  0
   -1.0004    0.9250    0.3553 C   0  0  0  0  0  0  0  0  0  0  0  0
   -1.9094    1.4606   -0.2685 O   0  0  0  0  0  0  0  0  0  0  0  0
   -0.2236    1.6785    1.2158 N   0  0  0  0  0  0  0  0  0  0  0  0
    0.4910    1.1915    1.7509 H   0  0  0  0  0  0  0  0  0  0  0  0
   -0.4106    3.1091    1.4213 C   0  0  0  0  0  0  0  0  0  0  0  0
   -1.4177    3.3142    1.7991 H   0  0  0  0  0  0  0  0  0  0  0  0
    0.3147    3.4843    2.1497 H   0  0  0  0  0  0  0  0  0  0  0  0
   -0.2691    3.6521    0.4810 H   0  0  0  0  0  0  0  0  0  0  0  0
  1  2  1  0  0  0  0
  2  3  1  0  0  0  0
  2  4  1  0  0  0  0
  2  5  1  0  0  0  0
  5  6  2  0  0  0  0
  5  7  1  0  0  0  0
  7  8  1  0  0  0  0
  7  9  1  0  0  0  0
  9 10  1  0  0  0  0
  9 11  1  0  0  0  0
  9 25  1  0  0  0  0
 11 12  1  0  0  0  0
 11 13  1  0  0  0  0
 11 14  1  0  0  0  0
 14 15  1  0  0  0  0
 14 23  2  0  0  0  0
 15 16  1  0  0  0  0
 15 17  2  0  0  0  0
 17 18  1  0  0  0  0
 17 19  1  0  0  0  0
 19 20  1  0  0  0  0
 19 21  2  0  0  0  0
 21 22  1  0  0  0  0
 21 23  1  0  0  0  0
 23 24  1  0  0  0  0
 25 26  2  0  0  0  0
 25 27  1  0  0  0  0
 27 28  1  0  0  0  0
 27 29  1  0  0  0  0
 29 30  1  0  0  0  0
 29 31  1  0  0  0  0
 29 32  1  0  0  0  0
M  END
$$$$

  -OEChem-04042216033D

 32 32  0     1  0  0  0  0  0999 V2000
   -3.7048   -3.9435    1.6272 H   0  0  0  0  0  0  0  0  0  0  0  0
   -3.6702   -3.0617    0.9815 C   0  0  0  0  0  0  0  0  0  0  0  0
   -4.3937   -2.3289    1.3470 H   0  0  0  0  0  0  0  0  0  0  0  0
   -3.9425   -3.3578   -0.0344 H   0  0  0  0  0  0  0  0  0  0  0  0
   -2.2772   -2.4613    0.9891 C   0  0  0  0  0  0  0  0  0  0  0  0
   -1.3926   -2.9834    1.6484 O   0  0  0  0  0  0  0  0  0  0  0  0
   -2.0243   -1.3212    0.2551 N   0  0  0  0  0  0  0  0  0  0  0  0
   -2.8168   -0.8739   -0.2031 H   0  0  0  0  0  0  0  0  0  0  0  0
   -0.7561   -0.5759    0.2668 C   0  0  1  0  0  0  0  0  0  0  0  0
   -0.1779   -0.8720    1.1489 H   0  0  0  0  0  0  0  0  0  0  0  0
    0.0456   -0.9311   -1.0041 C   0  0  0  0  0  0  0  0  0  0  0  0
   -0.3861   -1.8224   -1.4713 H   0  0  0  0  0  0  0  0  0  0  0  0
   -0.0316   -0.1229   -1.7391 H   0  0  0  0  0  0  0  0  0  0  0  0
    1.5024   -1.1966   -0.6971 C   0  0  0  0  0  0  0  0  0  0  0  0
    2.0704   -2.4460   -0.9901 C   0  0  0  0  0  0  0  0  0  0  0  0
    1.4558   -3.2427   -1.3988 H   0  0  0  0  0  0  0  0  0  0  0  0
    3.4257   -2.6888   -0.7431 C   0  0  0  0  0  0  0  0  0  0  0  0
    3.8490   -3.6653   -0.9597 H   0  0  0  0  0  0  0  0  0  0  0  0
    4.2334   -1.6762   -0.2185 C   0  0  0  0  0  0  0  0  0  0  0  0
    5.2856   -1.8648   -0.0273 H   0  0  0  0  0  0  0  0  0  0  0  0
    3.6863   -0.4184    0.0494 C   0  0  0  0  0  0  0  0  0  0  0  0
    4.3167    0.3744    0.4410 H   0  0  0  0  0  0  0  0  0  0  0  0
    2.3304   -0.1780   -0.1972 C   0  0  0  0  0  0  0  0  0  0  0  0
    1.9310    0.8133   -0.0130 H   0  0  0  0  0  0  0  0  0  0  0  0
   -1.0112    0.9383    0.3744 C   0  0  0  0  0  0  0  0  0  0  0  0
   -1.9032    1.4545   -0.2892 O   0  0  0  0  0  0  0  0  0  0  0  0
   -0.2734    1.7165    1.2475 N   0  0  0  0  0  0  0  0  0  0  0  0
    0.3990    1.2417    1.8444 H   0  0  0  0  0  0  0  0  0  0  0  0
   -0.5098    3.1414    1.4433 C   0  0  0  0  0  0  0  0  0  0  0  0
   -1.5299    3.3152    1.8020 H   0  0  0  0  0  0  0  0  0  0  0  0
    0.1903    3.5426    2.1824 H   0  0  0  0  0  0  0  0  0  0  0  0
   -0.3688    3.6848    0.5031 H   0  0  0  0  0  0  0  0  0  0  0  0
  1  2  1  0  0  0  0
  2  3  1  0  0  0  0
  2  4  1  0  0  0  0
  2  5  1  0  0  0  0
  5  6  2  0  0  0  0
  5  7  1  0  0  0  0
  7  8  1  0  0  0  0
  7  9  1  0  0  0  0
  9 10  1  0  0  0  0
  9 11  1  0  0  0  0
  9 25  1  0  0  0  0
 11 12  1  0  0  0  0
 11 13  1  0  0  0  0
 11 14  1  0  0  0  0
 14 15  1  0  0  0  0
 14 23  2  0  0  0  0
 15 16  1  0  0  0  0
 15 17  2  0  0  0  0
 17 18  1  0  0  0  0
 17 19  1  0  0  0  0
 19 20  1  0  0  0  0
 19 21  2  0  0  0  0
 21 22  1  0  0  0  0
 21 23  1  0  0  0  0
 23 24  1  0  0  0  0
 25 26  2  0  0  0  0
 25 27  1  0  0  0  0
 27 28  1  0  0  0  0
 27 29  1  0  0  0  0
 29 30  1  0  0  0  0
 29 31  1  0  0  0  0
 29 32  1  0  0  0  0
M  END
$$$$

  -OEChem-04042216033D

 32 32  0     1  0  0  0  0  0999 V2000
   -3.7197   -3.9408    1.5930 H   0  0  0  0  0  0  0  0  0  0  0  0
   -3.6721   -3.0576    0.9499 C   0  0  0  0  0  0  0  0  0  0  0  0
   -4.4203   -2.3360    1.2865 H   0  0  0  0  0  0  0  0  0  0  0  0
   -3.8996   -3.3569   -0.0761 H   0  0  0  0  0  0  0  0  0  0  0  0
   -2.2888   -2.4377    1.0139 C   0  0  0  0  0  0  0  0  0  0  0  0
   -1.4310   -2.9364    1.7245 O   0  0  0  0  0  0  0  0  0  0  0  0
   -2.0124   -1.3073    0.2730 N   0  0  0  0  0  0  0  0  0  0  0  0
   -2.7853   -0.8753   -0.2308 H   0  0  0  0  0  0  0  0  0  0  0  0
   -0.7441   -0.5617    0.3129 C   0  0  1  0  0  0  0  0  0  0  0  0
   -0.1822   -0.8475    1.2081 H   0  0  0  0  0  0  0  0  0  0  0  0
    0.0755   -0.9247   -0.9482 C   0  0  0  0  0  0  0  0  0  0  0  0
   -0.3638   -1.8121   -1.4157 H   0  0  0  0  0  0  0  0  0  0  0  0
    0.0054   -0.1165   -1.6841 H   0  0  0  0  0  0  0  0  0  0  0  0
    1.5379   -1.2070   -0.6668 C   0  0  0  0  0  0  0  0  0  0  0  0
    2.1517   -2.3242   -1.2564 C   0  0  0  0  0  0  0  0  0  0  0  0
    1.5701   -3.0050   -1.8709 H   0  0  0  0  0  0  0  0  0  0  0  0
    3.5102   -2.5878   -1.0525 C   0  0  0  0  0  0  0  0  0  0  0  0
    3.9660   -3.4649   -1.5023 H   0  0  0  0  0  0  0  0  0  0  0  0
    4.2806   -1.7223   -0.2727 C   0  0  0  0  0  0  0  0  0  0  0  0
    5.3354   -1.9268   -0.1141 H   0  0  0  0  0  0  0  0  0  0  0  0
    3.6925   -0.5883    0.2928 C   0  0  0  0  0  0  0  0  0  0  0  0
    4.2949    0.0943    0.8848 H   0  0  0  0  0  0  0  0  0  0  0  0
    2.3329   -0.3278    0.0888 C   0  0  0  0  0  0  0  0  0  0  0  0
    1.9106    0.5745    0.5133 H   0  0  0  0  0  0  0  0  0  0  0  0
   -1.0243    0.9520    0.3926 C   0  0  0  0  0  0  0  0  0  0  0  0
   -1.8984    1.4453   -0.3115 O   0  0  0  0  0  0  0  0  0  0  0  0
   -0.3297    1.7589    1.2754 N   0  0  0  0  0  0  0  0  0  0  0  0
    0.3050    1.3024    1.9245 H   0  0  0  0  0  0  0  0  0  0  0  0
   -0.6075    3.1802    1.4454 C   0  0  0  0  0  0  0  0  0  0  0  0
   -1.6435    3.3340    1.7655 H   0  0  0  0  0  0  0  0  0  0  0  0
    0.0555    3.6071    2.2039 H   0  0  0  0  0  0  0  0  0  0  0  0
   -0.4464    3.7168    0.5045 H   0  0  0  0  0  0  0  0  0  0  0  0
  1  2  1  0  0  0  0
  2  3  1  0  0  0  0
  2  4  1  0  0  0  0
  2  5  1  0  0  0  0
  5  6  2  0  0  0  0
  5  7  1  0  0  0  0
  7  8  1  0  0  0  0
  7  9  1  0  0  0  0
  9 10  1  0  0  0  0
  9 11  1  0  0  0  0
  9 25  1  0  0  0  0
 11 12  1  0  0  0  0
 11 13  1  0  0  0  0
 11 14  1  0  0  0  0
 14 15  1  0  0  0  0
 14 23  2  0  0  0  0
 15 16  1  0  0  0  0
 15 17  2  0  0  0  0
 17 18  1  0  0  0  0
 17 19  1  0  0  0  0
 19 20  1  0  0  0  0
 19 21  2  0  0  0  0
 21 22  1  0  0  0  0
 21 23  1  0  0  0  0
 23 24  1  0  0  0  0
 25 26  2  0  0  0  0
 25 27  1  0  0  0  0
 27 28  1  0  0  0  0
 27 29  1  0  0  0  0
 29 30  1  0  0  0  0
 29 31  1  0  0  0  0
 29 32  1  0  0  0  0
M  END
$$$$

  -OEChem-04042216033D

 32 32  0     1  0  0  0  0  0999 V2000
   -3.7459   -3.9468    1.5742 H   0  0  0  0  0  0  0  0  0  0  0  0
   -3.6895   -3.0646    0.9302 C   0  0  0  0  0  0  0  0  0  0  0  0
   -4.4498   -2.3469    1.2479 H   0  0  0  0  0  0  0  0  0  0  0  0
   -3.8916   -3.3676   -0.1000 H   0  0  0  0  0  0  0  0  0  0  0  0
   -2.3119   -2.4359    1.0234 C   0  0  0  0  0  0  0  0  0  0  0  0
   -1.4699   -2.9229    1.7607 O   0  0  0  0  0  0  0  0  0  0  0  0
   -2.0236   -1.3104    0.2793 N   0  0  0  0  0  0  0  0  0  0  0  0
   -2.7867   -0.8871   -0.2465 H   0  0  0  0  0  0  0  0  0  0  0  0
   -0.7578   -0.5615    0.3365 C   0  0  1  0  0  0  0  0  0  0  0  0
   -0.2196   -0.8450    1.2460 H   0  0  0  0  0  0  0  0  0  0  0  0
    0.0887   -0.9221   -0.9086 C   0  0  0  0  0  0  0  0  0  0  0  0
   -0.3413   -1.8149   -1.3748 H   0  0  0  0  0  0  0  0  0  0  0  0
    0.0176   -0.1178   -1.6486 H   0  0  0  0  0  0  0  0  0  0  0  0
    1.5559   -1.2039   -0.6387 C   0  0  0  0  0  0  0  0  0  0  0  0
    2.2312   -2.1088   -1.4743 C   0  0  0  0  0  0  0  0  0  0  0  0
    1.6937   -2.6203   -2.2673 H   0  0  0  0  0  0  0  0  0  0  0  0
    3.5930   -2.3751   -1.2980 C   0  0  0  0  0  0  0  0  0  0  0  0
    4.0952   -3.0878   -1.9455 H   0  0  0  0  0  0  0  0  0  0  0  0
    4.3071   -1.7231   -0.2908 C   0  0  0  0  0  0  0  0  0  0  0  0
    5.3641   -1.9300   -0.1516 H   0  0  0  0  0  0  0  0  0  0  0  0
    3.6589   -0.7983    0.5311 C   0  0  0  0  0  0  0  0  0  0  0  0
    4.2163   -0.2813    1.3066 H   0  0  0  0  0  0  0  0  0  0  0  0
    2.2964   -0.5337    0.3526 C   0  0  0  0  0  0  0  0  0  0  0  0
    1.8331    0.2058    0.9929 H   0  0  0  0  0  0  0  0  0  0  0  0
   -1.0361    0.9536    0.3995 C   0  0  0  0  0  0  0  0  0  0  0  0
   -1.8992    1.4411   -0.3222 O   0  0  0  0  0  0  0  0  0  0  0  0
   -0.3568    1.7683    1.2872 N   0  0  0  0  0  0  0  0  0  0  0  0
    0.2745    1.3218    1.9458 H   0  0  0  0  0  0  0  0  0  0  0  0
   -0.6233    3.1951    1.4254 C   0  0  0  0  0  0  0  0  0  0  0  0
   -1.6675    3.3649    1.7087 H   0  0  0  0  0  0  0  0  0  0  0  0
    0.0193    3.6270    2.1986 H   0  0  0  0  0  0  0  0  0  0  0  0
   -0.4249    3.7148    0.4820 H   0  0  0  0  0  0  0  0  0  0  0  0
  1  2  1  0  0  0  0
  2  3  1  0  0  0  0
  2  4  1  0  0  0  0
  2  5  1  0  0  0  0
  5  6  2  0  0  0  0
  5  7  1  0  0  0  0
  7  8  1  0  0  0  0
  7  9  1  0  0  0  0
  9 10  1  0  0  0  0
  9 11  1  0  0  0  0
  9 25  1  0  0  0  0
 11 12  1  0  0  0  0
 11 13  1  0  0  0  0
 11 14  1  0  0  0  0
 14 15  1  0  0  0  0
 14 23  2  0  0  0  0
 15 16  1  0  0  0  0
 15 17  2  0  0  0  0
 17 18  1  0  0  0  0
 17 19  1  0  0  0  0
 19 20  1  0  0  0  0
 19 21  2  0  0  0  0
 21 22  1  0  0  0  0
 21 23  1  0  0  0  0
 23 24  1  0  0  0  0
 25 26  2  0  0  0  0
 25 27  1  0  0  0  0
 27 28  1  0  0  0  0
 27 29  1  0  0  0  0
 29 30  1  0  0  0  0
 29 31  1  0  0  0  0
 29 32  1  0  0  0  0
M  END
$$$$

  -OEChem-04042216033D

 32 32  0     1  0  0  0  0  0999 V2000
   -3.7869   -3.9576    1.5530 H   0  0  0  0  0  0  0  0  0  0  0  0
   -3.7242   -3.0743    0.9112 C   0  0  0  0  0  0  0  0  0  0  0  0
   -4.4874   -2.3572    1.2229 H   0  0  0  0  0  0  0  0  0  0  0  0
   -3.9165   -3.3755   -0.1214 H   0  0  0  0  0  0  0  0  0  0  0  0
   -2.3473   -2.4458    1.0189 C   0  0  0  0  0  0  0  0  0  0  0  0
   -1.5142   -2.9320    1.7669 O   0  0  0  0  0  0  0  0  0  0  0  0
   -2.0502   -1.3219    0.2752 N   0  0  0  0  0  0  0  0  0  0  0  0
   -2.8089   -0.8997   -0.2579 H   0  0  0  0  0  0  0  0  0  0  0  0
   -0.7881   -0.5672    0.3471 C   0  0  1  0  0  0  0  0  0  0  0  0
   -0.2855   -0.8504    1.2743 H   0  0  0  0  0  0  0  0  0  0  0  0
    0.0943   -0.9287   -0.8724 C   0  0  0  0  0  0  0  0  0  0  0  0
   -0.3160   -1.8332   -1.3338 H   0  0  0  0  0  0  0  0  0  0  0  0
    0.0205   -0.1341   -1.6225 H   0  0  0  0  0  0  0  0  0  0  0  0
    1.5654   -1.2006   -0.6021 C   0  0  0  0  0  0  0  0  0  0  0  0
    2.3045   -1.8366   -1.6132 C   0  0  0  0  0  0  0  0  0  0  0  0
    1.8116   -2.1444   -2.5307 H   0  0  0  0  0  0  0  0  0  0  0  0
    3.6717   -2.0892   -1.4613 C   0  0  0  0  0  0  0  0  0  0  0  0
    4.2222   -2.5913   -2.2514 H   0  0  0  0  0  0  0  0  0  0  0  0
    4.3287   -1.6943   -0.2947 C   0  0  0  0  0  0  0  0  0  0  0  0
    5.3900   -1.8905   -0.1738 H   0  0  0  0  0  0  0  0  0  0  0  0
    3.6170   -1.0401    0.7128 C   0  0  0  0  0  0  0  0  0  0  0  0
    4.1283   -0.7246    1.6174 H   0  0  0  0  0  0  0  0  0  0  0  0
    2.2494   -0.7869    0.5587 C   0  0  0  0  0  0  0  0  0  0  0  0
    1.7476   -0.2601    1.3603 H   0  0  0  0  0  0  0  0  0  0  0  0
   -1.0497    0.9505    0.4005 C   0  0  0  0  0  0  0  0  0  0  0  0
   -1.9101    1.4417   -0.3215 O   0  0  0  0  0  0  0  0  0  0  0  0
   -0.3713    1.7591    1.2941 N   0  0  0  0  0  0  0  0  0  0  0  0
    0.3028    1.3186    1.9125 H   0  0  0  0  0  0  0  0  0  0  0  0
   -0.5976    3.1949    1.4066 C   0  0  0  0  0  0  0  0  0  0  0  0
   -1.6435    3.4009    1.6575 H   0  0  0  0  0  0  0  0  0  0  0  0
    0.0353    3.6164    2.1934 H   0  0  0  0  0  0  0  0  0  0  0  0
   -0.3559    3.6954    0.4630 H   0  0  0  0  0  0  0  0  0  0  0  0
  1  2  1  0  0  0  0
  2  3  1  0  0  0  0
  2  4  1  0  0  0  0
  2  5  1  0  0  0  0
  5  6  2  0  0  0  0
  5  7  1  0  0  0  0
  7  8  1  0  0  0  0
  7  9  1  0  0  0  0
  9 10  1  0  0  0  0
  9 11  1  0  0  0  0
  9 25  1  0  0  0  0
 11 12  1  0  0  0  0
 11 13  1  0  0  0  0
 11 14  1  0  0  0  0
 14 15  1  0  0  0  0
 14 23  2  0  0  0  0
 15 16  1  0  0  0  0
 15 17  2  0  0  0  0
 17 18  1  0  0  0  0
 17 19  1  0  0  0  0
 19 20  1  0  0  0  0
 19 21  2  0  0  0  0
 21 22  1  0  0  0  0
 21 23  1  0  0  0  0
 23 24  1  0  0  0  0
 25 26  2  0  0  0  0
 25 27  1  0  0  0  0
 27 28  1  0  0  0  0
 27 29  1  0  0  0  0
 29 30  1  0  0  0  0
 29 31  1  0  0  0  0
 29 32  1  0  0  0  0
M  END
$$$$

  -OEChem-04042216033D

 32 32  0     1  0  0  0  0  0999 V2000
   -3.8021   -3.9174    1.5954 H   0  0  0  0  0  0  0  0  0  0  0  0
   -3.7324   -3.0443    0.9403 C   0  0  0  0  0  0  0  0  0  0  0  0
   -4.5056   -2.3269    1.2256 H   0  0  0  0  0  0  0  0  0  0  0  0
   -3.9036   -3.3638   -0.0905 H   0  0  0  0  0  0  0  0  0  0  0  0
   -2.3618   -2.4049    1.0638 C   0  0  0  0  0  0  0  0  0  0  0  0
   -1.5495   -2.8525    1.8584 O   0  0  0  0  0  0  0  0  0  0  0  0
   -2.0475   -1.3056    0.2915 N   0  0  0  0  0  0  0  0  0  0  0  0
   -2.7888   -0.9012   -0.2784 H   0  0  0  0  0  0  0  0  0  0  0  0
   -0.7856   -0.5552    0.3819 C   0  0  1  0  0  0  0  0  0  0  0  0
   -0.3140   -0.7695    1.3380 H   0  0  0  0  0  0  0  0  0  0  0  0
    0.1332   -0.9220   -0.8139 C   0  0  0  0  0  0  0  0  0  0  0  0
   -0.4046   -1.6253   -1.4584 H   0  0  0  0  0  0  0  0  0  0  0  0
    0.3037   -0.0232   -1.4167 H   0  0  0  0  0  0  0  0  0  0  0  0
    1.4973   -1.5348   -0.5241 C   0  0  0  0  0  0  0  0  0  0  0  0
    2.2938   -1.8471   -1.6389 C   0  0  0  0  0  0  0  0  0  0  0  0
    1.9321   -1.6259   -2.6388 H   0  0  0  0  0  0  0  0  0  0  0  0
    3.5549   -2.4329   -1.4924 C   0  0  0  0  0  0  0  0  0  0  0  0
    4.1548   -2.6563   -2.3695 H   0  0  0  0  0  0  0  0  0  0  0  0
    4.0392   -2.7352   -0.2193 C   0  0  0  0  0  0  0  0  0  0  0  0
    5.0165   -3.1939   -0.1016 H   0  0  0  0  0  0  0  0  0  0  0  0
    3.2550   -2.4579    0.9015 C   0  0  0  0  0  0  0  0  0  0  0  0
    3.6202   -2.7103    1.8926 H   0  0  0  0  0  0  0  0  0  0  0  0
    1.9937   -1.8702    0.7541 C   0  0  0  0  0  0  0  0  0  0  0  0
    1.4273   -1.7148    1.6635 H   0  0  0  0  0  0  0  0  0  0  0  0
   -1.0644    0.9602    0.3814 C   0  0  0  0  0  0  0  0  0  0  0  0
   -1.9062    1.4251   -0.3792 O   0  0  0  0  0  0  0  0  0  0  0  0
   -0.4184    1.7943    1.2751 N   0  0  0  0  0  0  0  0  0  0  0  0
    0.2794    1.3798    1.8866 H   0  0  0  0  0  0  0  0  0  0  0  0
   -0.6375    3.2345    1.3285 C   0  0  0  0  0  0  0  0  0  0  0  0
   -1.6885    3.4552    1.5428 H   0  0  0  0  0  0  0  0  0  0  0  0
   -0.0235    3.6812    2.1166 H   0  0  0  0  0  0  0  0  0  0  0  0
   -0.3669    3.6983    0.3740 H   0  0  0  0  0  0  0  0  0  0  0  0
  1  2  1  0  0  0  0
  2  3  1  0  0  0  0
  2  4  1  0  0  0  0
  2  5  1  0  0  0  0
  5  6  2  0  0  0  0
  5  7  1  0  0  0  0
  7  8  1  0  0  0  0
  7  9  1  0  0  0  0
  9 10  1  0  0  0  0
  9 11  1  0  0  0  0
  9 25  1  0  0  0  0
 11 12  1  0  0  0  0
 11 13  1  0  0  0  0
 11 14  1  0  0  0  0
 14 15  1  0  0  0  0
 14 23  2  0  0  0  0
 15 16  1  0  0  0  0
 15 17  2  0  0  0  0
 17 18  1  0  0  0  0
 17 19  1  0  0  0  0
 19 20  1  0  0  0  0
 19 21  2  0  0  0  0
 21 22  1  0  0  0  0
 21 23  1  0  0  0  0
 23 24  1  0  0  0  0
 25 26  2  0  0  0  0
 25 27  1  0  0  0  0
 27 28  1  0  0  0  0
 27 29  1  0  0  0  0
 29 30  1  0  0  0  0
 29 31  1  0  0  0  0
 29 32  1  0  0  0  0
M  END
$$$$

  -OEChem-04042216033D

 32 32  0     1  0  0  0  0  0999 V2000
   -3.7736   -3.9115    1.6312 H   0  0  0  0  0  0  0  0  0  0  0  0
   -3.7106   -3.0412    0.9719 C   0  0  0  0  0  0  0  0  0  0  0  0
   -4.4786   -2.3209    1.2639 H   0  0  0  0  0  0  0  0  0  0  0  0
   -3.8945   -3.3641   -0.0557 H   0  0  0  0  0  0  0  0  0  0  0  0
   -2.3377   -2.4042    1.0760 C   0  0  0  0  0  0  0  0  0  0  0  0
   -1.5135   -2.8564    1.8556 O   0  0  0  0  0  0  0  0  0  0  0  0
   -2.0347   -1.3031    0.3022 N   0  0  0  0  0  0  0  0  0  0  0  0
   -2.7843   -0.8982   -0.2567 H   0  0  0  0  0  0  0  0  0  0  0  0
   -0.7723   -0.5519    0.3738 C   0  0  1  0  0  0  0  0  0  0  0  0
   -0.2714   -0.7592    1.3194 H   0  0  0  0  0  0  0  0  0  0  0  0
    0.1279   -0.9078   -0.8383 C   0  0  0  0  0  0  0  0  0  0  0  0
   -0.4078   -1.6154   -1.4796 H   0  0  0  0  0  0  0  0  0  0  0  0
    0.2884   -0.0068   -1.4405 H   0  0  0  0  0  0  0  0  0  0  0  0
    1.4877   -1.5162   -0.5338 C   0  0  0  0  0  0  0  0  0  0  0  0
    2.4345   -1.5403   -1.5716 C   0  0  0  0  0  0  0  0  0  0  0  0
    2.2002   -1.0812   -2.5275 H   0  0  0  0  0  0  0  0  0  0  0  0
    3.6895   -2.1324   -1.3956 C   0  0  0  0  0  0  0  0  0  0  0  0
    4.4140   -2.1215   -2.2047 H   0  0  0  0  0  0  0  0  0  0  0  0
    4.0076   -2.7451   -0.1822 C   0  0  0  0  0  0  0  0  0  0  0  0
    4.9798   -3.2089   -0.0427 H   0  0  0  0  0  0  0  0  0  0  0  0
    3.0607   -2.7805    0.8433 C   0  0  0  0  0  0  0  0  0  0  0  0
    3.2900   -3.2854    1.7771 H   0  0  0  0  0  0  0  0  0  0  0  0
    1.8068   -2.1862    0.6653 C   0  0  0  0  0  0  0  0  0  0  0  0
    1.0901   -2.2942    1.4721 H   0  0  0  0  0  0  0  0  0  0  0  0
   -1.0582    0.9622    0.3806 C   0  0  0  0  0  0  0  0  0  0  0  0
   -1.9123    1.4256   -0.3673 O   0  0  0  0  0  0  0  0  0  0  0  0
   -0.4017    1.7971    1.2656 N   0  0  0  0  0  0  0  0  0  0  0  0
    0.3048    1.3829    1.8676 H   0  0  0  0  0  0  0  0  0  0  0  0
   -0.6252    3.2362    1.3249 C   0  0  0  0  0  0  0  0  0  0  0  0
   -1.6750    3.4524    1.5492 H   0  0  0  0  0  0  0  0  0  0  0  0
   -0.0060    3.6834    2.1084 H   0  0  0  0  0  0  0  0  0  0  0  0
   -0.3653    3.7034    0.3694 H   0  0  0  0  0  0  0  0  0  0  0  0
  1  2  1  0  0  0  0
  2  3  1  0  0  0  0
  2  4  1  0  0  0  0
  2  5  1  0  0  0  0
  5  6  2  0  0  0  0
  5  7  1  0  0  0  0
  7  8  1  0  0  0  0
  7  9  1  0  0  0  0
  9 10  1  0  0  0  0
  9 11  1  0  0  0  0
  9 25  1  0  0  0  0
 11 12  1  0  0  0  0
 11 13  1  0  0  0  0
 11 14  1  0  0  0  0
 14 15  1  0  0  0  0
 14 23  2  0  0  0  0
 15 16  1  0  0  0  0
 15 17  2  0  0  0  0
 17 18  1  0  0  0  0
 17 19  1  0  0  0  0
 19 20  1  0  0  0  0
 19 21  2  0  0  0  0
 21 22  1  0  0  0  0
 21 23  1  0  0  0  0
 23 24  1  0  0  0  0
 25 26  2  0  0  0  0
 25 27  1  0  0  0  0
 27 28  1  0  0  0  0
 27 29  1  0  0  0  0
 29 30  1  0  0  0  0
 29 31  1  0  0  0  0
 29 32  1  0  0  0  0
M  END
$$$$

  -OEChem-04042216033D

 32 32  0     1  0  0  0  0  0999 V2000
   -3.7943   -3.9174    1.6231 H   0  0  0  0  0  0  0  0  0  0  0  0
   -3.7212   -3.0468    0.9652 C   0  0  0  0  0  0  0  0  0  0  0  0
   -4.4912   -2.3251    1.2489 H   0  0  0  0  0  0  0  0  0  0  0  0
   -3.8946   -3.3685   -0.0645 H   0  0  0  0  0  0  0  0  0  0  0  0
   -2.3475   -2.4137    1.0855 C   0  0  0  0  0  0  0  0  0  0  0  0
   -1.5373   -2.8674    1.8775 O   0  0  0  0  0  0  0  0  0  0  0  0
   -2.0364   -1.3099    0.3192 N   0  0  0  0  0  0  0  0  0  0  0  0
   -2.7838   -0.9072   -0.2441 H   0  0  0  0  0  0  0  0  0  0  0  0
   -0.7669   -0.5659    0.3653 C   0  0  1  0  0  0  0  0  0  0  0  0
   -0.2357   -0.7954    1.2926 H   0  0  0  0  0  0  0  0  0  0  0  0
    0.1045   -0.9187   -0.8679 C   0  0  0  0  0  0  0  0  0  0  0  0
   -0.4389   -1.6294   -1.4988 H   0  0  0  0  0  0  0  0  0  0  0  0
    0.2545   -0.0189   -1.4746 H   0  0  0  0  0  0  0  0  0  0  0  0
    1.4592   -1.5297   -0.5587 C   0  0  0  0  0  0  0  0  0  0  0  0
    2.5196   -1.2971   -1.4505 C   0  0  0  0  0  0  0  0  0  0  0  0
    2.3732   -0.6560   -2.3149 H   0  0  0  0  0  0  0  0  0  0  0  0
    3.7772   -1.8725   -1.2408 C   0  0  0  0  0  0  0  0  0  0  0  0
    4.5892   -1.6701   -1.9329 H   0  0  0  0  0  0  0  0  0  0  0  0
    3.9871   -2.7131   -0.1455 C   0  0  0  0  0  0  0  0  0  0  0  0
    4.9618   -3.1630    0.0186 H   0  0  0  0  0  0  0  0  0  0  0  0
    2.9330   -2.9878    0.7283 C   0  0  0  0  0  0  0  0  0  0  0  0
    3.0832   -3.6596    1.5683 H   0  0  0  0  0  0  0  0  0  0  0  0
    1.6766   -2.4110    0.5167 C   0  0  0  0  0  0  0  0  0  0  0  0
    0.8740   -2.6778    1.1958 H   0  0  0  0  0  0  0  0  0  0  0  0
   -1.0398    0.9501    0.3864 C   0  0  0  0  0  0  0  0  0  0  0  0
   -1.9036    1.4247   -0.3430 O   0  0  0  0  0  0  0  0  0  0  0  0
   -0.3558    1.7744    1.2604 N   0  0  0  0  0  0  0  0  0  0  0  0
    0.3523    1.3486    1.8524 H   0  0  0  0  0  0  0  0  0  0  0  0
   -0.5799    3.2119    1.3486 C   0  0  0  0  0  0  0  0  0  0  0  0
   -1.6241    3.4224    1.6026 H   0  0  0  0  0  0  0  0  0  0  0  0
    0.0582    3.6470    2.1239 H   0  0  0  0  0  0  0  0  0  0  0  0
   -0.3444    3.6949    0.3945 H   0  0  0  0  0  0  0  0  0  0  0  0
  1  2  1  0  0  0  0
  2  3  1  0  0  0  0
  2  4  1  0  0  0  0
  2  5  1  0  0  0  0
  5  6  2  0  0  0  0
  5  7  1  0  0  0  0
  7  8  1  0  0  0  0
  7  9  1  0  0  0  0
  9 10  1  0  0  0  0
  9 11  1  0  0  0  0
  9 25  1  0  0  0  0
 11 12  1  0  0  0  0
 11 13  1  0  0  0  0
 11 14  1  0  0  0  0
 14 15  1  0  0  0  0
 14 23  2  0  0  0  0
 15 16  1  0  0  0  0
 15 17  2  0  0  0  0
 17 18  1  0  0  0  0
 17 19  1  0  0  0  0
 19 20  1  0  0  0  0
 19 21  2  0  0  0  0
 21 22  1  0  0  0  0
 21 23  1  0  0  0  0
 23 24  1  0  0  0  0
 25 26  2  0  0  0  0
 25 27  1  0  0  0  0
 27 28  1  0  0  0  0
 27 29  1  0  0  0  0
 29 30  1  0  0  0  0
 29 31  1  0  0  0  0
 29 32  1  0  0  0  0
M  END
$$$$

  -OEChem-04042216033D

 32 32  0     1  0  0  0  0  0999 V2000
   -3.7897   -3.9367    1.6258 H   0  0  0  0  0  0  0  0  0  0  0  0
   -3.7196   -3.0640    0.9703 C   0  0  0  0  0  0  0  0  0  0  0  0
   -4.4880   -2.3430    1.2600 H   0  0  0  0  0  0  0  0  0  0  0  0
   -3.8978   -3.3823   -0.0596 H   0  0  0  0  0  0  0  0  0  0  0  0
   -2.3456   -2.4311    1.0860 C   0  0  0  0  0  0  0  0  0  0  0  0
   -1.5336   -2.8863    1.8750 O   0  0  0  0  0  0  0  0  0  0  0  0
   -2.0416   -1.3215    0.3250 N   0  0  0  0  0  0  0  0  0  0  0  0
   -2.7932   -0.9221   -0.2346 H   0  0  0  0  0  0  0  0  0  0  0  0
   -0.7688   -0.5809    0.3474 C   0  0  1  0  0  0  0  0  0  0  0  0
   -0.2134   -0.8325    1.2561 H   0  0  0  0  0  0  0  0  0  0  0  0
    0.0784   -0.9215   -0.9044 C   0  0  0  0  0  0  0  0  0  0  0  0
   -0.4692   -1.6323   -1.5312 H   0  0  0  0  0  0  0  0  0  0  0  0
    0.2199   -0.0204   -1.5111 H   0  0  0  0  0  0  0  0  0  0  0  0
    1.4291   -1.5301   -0.5864 C   0  0  0  0  0  0  0  0  0  0  0  0
    2.5705   -1.0690   -1.2627 C   0  0  0  0  0  0  0  0  0  0  0  0
    2.4890   -0.2617   -1.9845 H   0  0  0  0  0  0  0  0  0  0  0  0
    3.8271   -1.6328   -1.0157 C   0  0  0  0  0  0  0  0  0  0  0  0
    4.7029   -1.2593   -1.5382 H   0  0  0  0  0  0  0  0  0  0  0  0
    3.9554   -2.6811   -0.1012 C   0  0  0  0  0  0  0  0  0  0  0  0
    4.9292   -3.1220    0.0907 H   0  0  0  0  0  0  0  0  0  0  0  0
    2.8243   -3.1693    0.5572 C   0  0  0  0  0  0  0  0  0  0  0  0
    2.9152   -3.9936    1.2584 H   0  0  0  0  0  0  0  0  0  0  0  0
    1.5697   -2.6034    0.3087 C   0  0  0  0  0  0  0  0  0  0  0  0
    0.7043   -3.0158    0.8157 H   0  0  0  0  0  0  0  0  0  0  0  0
   -1.0295    0.9364    0.3881 C   0  0  0  0  0  0  0  0  0  0  0  0
   -1.9012    1.4262   -0.3216 O   0  0  0  0  0  0  0  0  0  0  0  0
   -0.3174    1.7454    1.2535 N   0  0  0  0  0  0  0  0  0  0  0  0
    0.3894    1.3035    1.8355 H   0  0  0  0  0  0  0  0  0  0  0  0
   -0.5226    3.1843    1.3597 C   0  0  0  0  0  0  0  0  0  0  0  0
   -1.5597    3.4047    1.6336 H   0  0  0  0  0  0  0  0  0  0  0  0
    0.1336    3.6034    2.1284 H   0  0  0  0  0  0  0  0  0  0  0  0
   -0.2972    3.6748    0.4071 H   0  0  0  0  0  0  0  0  0  0  0  0
  1  2  1  0  0  0  0
  2  3  1  0  0  0  0
  2  4  1  0  0  0  0
  2  5  1  0  0  0  0
  5  6  2  0  0  0  0
  5  7  1  0  0  0  0
  7  8  1  0  0  0  0
  7  9  1  0  0  0  0
  9 10  1  0  0  0  0
  9 11  1  0  0  0  0
  9 25  1  0  0  0  0
 11 12  1  0  0  0  0
 11 13  1  0  0  0  0
 11 14  1  0  0  0  0
 14 15  1  0  0  0  0
 14 23  2  0  0  0  0
 15 16  1  0  0  0  0
 15 17  2  0  0  0  0
 17 18  1  0  0  0  0
 17 19  1  0  0  0  0
 19 20  1  0  0  0  0
 19 21  2  0  0  0  0
 21 22  1  0  0  0  0
 21 23  1  0  0  0  0
 23 24  1  0  0  0  0
 25 26  2  0  0  0  0
 25 27  1  0  0  0  0
 27 28  1  0  0  0  0
 27 29  1  0  0  0  0
 29 30  1  0  0  0  0
 29 31  1  0  0  0  0
 29 32  1  0  0  0  0
M  END
$$$$

  -OEChem-04042216033D

 32 32  0     1  0  0  0  0  0999 V2000
   -3.7582   -3.9504    1.6420 H   0  0  0  0  0  0  0  0  0  0  0  0
   -3.7036   -3.0775    0.9855 C   0  0  0  0  0  0  0  0  0  0  0  0
   -4.4551   -2.3506    1.3030 H   0  0  0  0  0  0  0  0  0  0  0  0
   -3.9207   -3.3927   -0.0379 H   0  0  0  0  0  0  0  0  0  0  0  0
   -2.3209   -2.4569    1.0542 C   0  0  0  0  0  0  0  0  0  0  0  0
   -1.4747   -2.9428    1.7871 O   0  0  0  0  0  0  0  0  0  0  0  0
   -2.0410   -1.3333    0.3045 N   0  0  0  0  0  0  0  0  0  0  0  0
   -2.8135   -0.9117   -0.2087 H   0  0  0  0  0  0  0  0  0  0  0  0
   -0.7695   -0.5910    0.3130 C   0  0  1  0  0  0  0  0  0  0  0  0
   -0.1971   -0.8616    1.2068 H   0  0  0  0  0  0  0  0  0  0  0  0
    0.0559   -0.9225   -0.9524 C   0  0  0  0  0  0  0  0  0  0  0  0
   -0.4940   -1.6350   -1.5757 H   0  0  0  0  0  0  0  0  0  0  0  0
    0.1943   -0.0215   -1.5599 H   0  0  0  0  0  0  0  0  0  0  0  0
    1.4005   -1.5277   -0.6184 C   0  0  0  0  0  0  0  0  0  0  0  0
    2.5809   -0.8876   -1.0277 C   0  0  0  0  0  0  0  0  0  0  0  0
    2.5337    0.0512   -1.5714 H   0  0  0  0  0  0  0  0  0  0  0  0
    3.8311   -1.4453   -0.7384 C   0  0  0  0  0  0  0  0  0  0  0  0
    4.7382   -0.9390   -1.0551 H   0  0  0  0  0  0  0  0  0  0  0  0
    3.9133   -2.6559   -0.0447 C   0  0  0  0  0  0  0  0  0  0  0  0
    4.8825   -3.0903    0.1814 H   0  0  0  0  0  0  0  0  0  0  0  0
    2.7442   -3.3110    0.3520 C   0  0  0  0  0  0  0  0  0  0  0  0
    2.8010   -4.2560    0.8843 H   0  0  0  0  0  0  0  0  0  0  0  0
    1.4958   -2.7520    0.0608 C   0  0  0  0  0  0  0  0  0  0  0  0
    0.5974   -3.2787    0.3669 H   0  0  0  0  0  0  0  0  0  0  0  0
   -1.0218    0.9259    0.3859 C   0  0  0  0  0  0  0  0  0  0  0  0
   -1.9048    1.4316   -0.2981 O   0  0  0  0  0  0  0  0  0  0  0  0
   -0.2880    1.7174    1.2496 N   0  0  0  0  0  0  0  0  0  0  0  0
    0.4273    1.2628    1.8113 H   0  0  0  0  0  0  0  0  0  0  0  0
   -0.4758    3.1573    1.3733 C   0  0  0  0  0  0  0  0  0  0  0  0
   -1.5086    3.3872    1.6558 H   0  0  0  0  0  0  0  0  0  0  0  0
    0.1898    3.5610    2.1424 H   0  0  0  0  0  0  0  0  0  0  0  0
   -0.2505    3.6545    0.4241 H   0  0  0  0  0  0  0  0  0  0  0  0
  1  2  1  0  0  0  0
  2  3  1  0  0  0  0
  2  4  1  0  0  0  0
  2  5  1  0  0  0  0
  5  6  2  0  0  0  0
  5  7  1  0  0  0  0
  7  8  1  0  0  0  0
  7  9  1  0  0  0  0
  9 10  1  0  0  0  0
  9 11  1  0  0  0  0
  9 25  1  0  0  0  0
 11 12  1  0  0  0  0
 11 13  1  0  0  0  0
 11 14  1  0  0  0  0
 14 15  1  0  0  0  0
 14 23  2  0  0  0  0
 15 16  1  0  0  0  0
 15 17  2  0  0  0  0
 17 18  1  0  0  0  0
 17 19  1  0  0  0  0
 19 20  1  0  0  0  0
 19 21  2  0  0  0  0
 21 22  1  0  0  0  0
 21 23  1  0  0  0  0
 23 24  1  0  0  0  0
 25 26  2  0  0  0  0
 25 27  1  0  0  0  0
 27 28  1  0  0  0  0
 27 29  1  0  0  0  0
 29 30  1  0  0  0  0
 29 31  1  0  0  0  0
 29 32  1  0  0  0  0
M  END
$$$$

  -OEChem-04042216033D

 32 32  0     1  0  0  0  0  0999 V2000
   -3.7284   -3.9498    1.6536 H   0  0  0  0  0  0  0  0  0  0  0  0
   -3.6889   -3.0750    0.9985 C   0  0  0  0  0  0  0  0  0  0  0  0
   -4.4121   -2.3368    1.3534 H   0  0  0  0  0  0  0  0  0  0  0  0
   -3.9585   -3.3814   -0.0151 H   0  0  0  0  0  0  0  0  0  0  0  0
   -2.2941   -2.4780    1.0049 C   0  0  0  0  0  0  0  0  0  0  0  0
   -1.4121   -3.0024    1.6658 O   0  0  0  0  0  0  0  0  0  0  0  0
   -2.0374   -1.3412    0.2669 N   0  0  0  0  0  0  0  0  0  0  0  0
   -2.8303   -0.8942   -0.1911 H   0  0  0  0  0  0  0  0  0  0  0  0
   -0.7674   -0.5970    0.2657 C   0  0  1  0  0  0  0  0  0  0  0  0
   -0.1862   -0.8819    1.1497 H   0  0  0  0  0  0  0  0  0  0  0  0
    0.0424   -0.9281   -1.0065 C   0  0  0  0  0  0  0  0  0  0  0  0
   -0.5104   -1.6401   -1.6282 H   0  0  0  0  0  0  0  0  0  0  0  0
    0.1844   -0.0282   -1.6148 H   0  0  0  0  0  0  0  0  0  0  0  0
    1.3815   -1.5300   -0.6571 C   0  0  0  0  0  0  0  0  0  0  0  0
    2.5535   -0.7672   -0.7742 C   0  0  0  0  0  0  0  0  0  0  0  0
    2.5047    0.2589   -1.1267 H   0  0  0  0  0  0  0  0  0  0  0  0
    3.7959   -1.3194   -0.4429 C   0  0  0  0  0  0  0  0  0  0  0  0
    4.6985   -0.7233   -0.5394 H   0  0  0  0  0  0  0  0  0  0  0  0
    3.8760   -2.6396    0.0108 C   0  0  0  0  0  0  0  0  0  0  0  0
    4.8393   -3.0701    0.2680 H   0  0  0  0  0  0  0  0  0  0  0  0
    2.7127   -3.4053    0.1341 C   0  0  0  0  0  0  0  0  0  0  0  0
    2.7683   -4.4294    0.4914 H   0  0  0  0  0  0  0  0  0  0  0  0
    1.4718   -2.8523   -0.1992 C   0  0  0  0  0  0  0  0  0  0  0  0
    0.5730   -3.4533   -0.0915 H   0  0  0  0  0  0  0  0  0  0  0  0
   -1.0092    0.9193    0.3682 C   0  0  0  0  0  0  0  0  0  0  0  0
   -1.9060    1.4396   -0.2857 O   0  0  0  0  0  0  0  0  0  0  0  0
   -0.2549    1.6915    1.2319 N   0  0  0  0  0  0  0  0  0  0  0  0
    0.4617    1.2208    1.7785 H   0  0  0  0  0  0  0  0  0  0  0  0
   -0.4486    3.1258    1.4041 C   0  0  0  0  0  0  0  0  0  0  0  0
   -1.4730    3.3385    1.7277 H   0  0  0  0  0  0  0  0  0  0  0  0
    0.2401    3.5115    2.1621 H   0  0  0  0  0  0  0  0  0  0  0  0
   -0.2590    3.6533    0.4633 H   0  0  0  0  0  0  0  0  0  0  0  0
  1  2  1  0  0  0  0
  2  3  1  0  0  0  0
  2  4  1  0  0  0  0
  2  5  1  0  0  0  0
  5  6  2  0  0  0  0
  5  7  1  0  0  0  0
  7  8  1  0  0  0  0
  7  9  1  0  0  0  0
  9 10  1  0  0  0  0
  9 11  1  0  0  0  0
  9 25  1  0  0  0  0
 11 12  1  0  0  0  0
 11 13  1  0  0  0  0
 11 14  1  0  0  0  0
 14 15  1  0  0  0  0
 14 23  2  0  0  0  0
 15 16  1  0  0  0  0
 15 17  2  0  0  0  0
 17 18  1  0  0  0  0
 17 19  1  0  0  0  0
 19 20  1  0  0  0  0
 19 21  2  0  0  0  0
 21 22  1  0  0  0  0
 21 23  1  0  0  0  0
 23 24  1  0  0  0  0
 25 26  2  0  0  0  0
 25 27  1  0  0  0  0
 27 28  1  0  0  0  0
 27 29  1  0  0  0  0
 29 30  1  0  0  0  0
 29 31  1  0  0  0  0
 29 32  1  0  0  0  0
M  END
$$$$

  -OEChem-04042216033D

 32 32  0     1  0  0  0  0  0999 V2000
   -3.7018   -3.9513    1.6495 H   0  0  0  0  0  0  0  0  0  0  0  0
   -3.6759   -3.0715    1.0004 C   0  0  0  0  0  0  0  0  0  0  0  0
   -4.3827   -2.3311    1.3830 H   0  0  0  0  0  0  0  0  0  0  0  0
   -3.9786   -3.3674   -0.0069 H   0  0  0  0  0  0  0  0  0  0  0  0
   -2.2769   -2.4853    0.9694 C   0  0  0  0  0  0  0  0  0  0  0  0
   -1.3761   -3.0291    1.5880 O   0  0  0  0  0  0  0  0  0  0  0  0
   -2.0348   -1.3404    0.2393 N   0  0  0  0  0  0  0  0  0  0  0  0
   -2.8386   -0.8786   -0.1831 H   0  0  0  0  0  0  0  0  0  0  0  0
   -0.7653   -0.5964    0.2315 C   0  0  1  0  0  0  0  0  0  0  0  0
   -0.1793   -0.8904    1.1093 H   0  0  0  0  0  0  0  0  0  0  0  0
    0.0340   -0.9310   -1.0445 C   0  0  0  0  0  0  0  0  0  0  0  0
   -0.5244   -1.6379   -1.6668 H   0  0  0  0  0  0  0  0  0  0  0  0
    0.1838   -0.0314   -1.6513 H   0  0  0  0  0  0  0  0  0  0  0  0
    1.3705   -1.5324   -0.6884 C   0  0  0  0  0  0  0  0  0  0  0  0
    2.4900   -0.7069   -0.5044 C   0  0  0  0  0  0  0  0  0  0  0  0
    2.4058    0.3661   -0.6489 H   0  0  0  0  0  0  0  0  0  0  0  0
    3.7247   -1.2567   -0.1427 C   0  0  0  0  0  0  0  0  0  0  0  0
    4.5893   -0.6129   -0.0100 H   0  0  0  0  0  0  0  0  0  0  0  0
    3.8458   -2.6364    0.0495 C   0  0  0  0  0  0  0  0  0  0  0  0
    4.8025   -3.0649    0.3325 H   0  0  0  0  0  0  0  0  0  0  0  0
    2.7310   -3.4639   -0.1157 C   0  0  0  0  0  0  0  0  0  0  0  0
    2.8180   -4.5341    0.0459 H   0  0  0  0  0  0  0  0  0  0  0  0
    1.4978   -2.9129   -0.4801 C   0  0  0  0  0  0  0  0  0  0  0  0
    0.6315   -3.5604   -0.5845 H   0  0  0  0  0  0  0  0  0  0  0  0
   -0.9991    0.9190    0.3534 C   0  0  0  0  0  0  0  0  0  0  0  0
   -1.9063    1.4509   -0.2763 O   0  0  0  0  0  0  0  0  0  0  0  0
   -0.2291    1.6748    1.2173 N   0  0  0  0  0  0  0  0  0  0  0  0
    0.4810    1.1890    1.7590 H   0  0  0  0  0  0  0  0  0  0  0  0
   -0.4286    3.1024    1.4309 C   0  0  0  0  0  0  0  0  0  0  0  0
   -1.4412    3.2972    1.7995 H   0  0  0  0  0  0  0  0  0  0  0  0
    0.2861    3.4766    2.1701 H   0  0  0  0  0  0  0  0  0  0  0  0
   -0.2806    3.6536    0.4965 H   0  0  0  0  0  0  0  0  0  0  0  0
  1  2  1  0  0  0  0
  2  3  1  0  0  0  0
  2  4  1  0  0  0  0
  2  5  1  0  0  0  0
  5  6  2  0  0  0  0
  5  7  1  0  0  0  0
  7  8  1  0  0  0  0
  7  9  1  0  0  0  0
  9 10  1  0  0  0  0
  9 11  1  0  0  0  0
  9 25  1  0  0  0  0
 11 12  1  0  0  0  0
 11 13  1  0  0  0  0
 11 14  1  0  0  0  0
 14 15  1  0  0  0  0
 14 23  2  0  0  0  0
 15 16  1  0  0  0  0
 15 17  2  0  0  0  0
 17 18  1  0  0  0  0
 17 19  1  0  0  0  0
 19 20  1  0  0  0  0
 19 21  2  0  0  0  0
 21 22  1  0  0  0  0
 21 23  1  0  0  0  0
 23 24  1  0  0  0  0
 25 26  2  0  0  0  0
 25 27  1  0  0  0  0
 27 28  1  0  0  0  0
 27 29  1  0  0  0  0
 29 30  1  0  0  0  0
 29 31  1  0  0  0  0
 29 32  1  0  0  0  0
M  END
$$$$

  -OEChem-04042216033D

 32 32  0     1  0  0  0  0  0999 V2000
   -3.7044   -3.9482    1.6423 H   0  0  0  0  0  0  0  0  0  0  0  0
   -3.6736   -3.0694    0.9921 C   0  0  0  0  0  0  0  0  0  0  0  0
   -4.3890   -2.3316    1.3633 H   0  0  0  0  0  0  0  0  0  0  0  0
   -3.9602   -3.3686   -0.0189 H   0  0  0  0  0  0  0  0  0  0  0  0
   -2.2775   -2.4757    0.9802 C   0  0  0  0  0  0  0  0  0  0  0  0
   -1.3865   -3.0060    1.6239 O   0  0  0  0  0  0  0  0  0  0  0  0
   -2.0305   -1.3334    0.2473 N   0  0  0  0  0  0  0  0  0  0  0  0
   -2.8286   -0.8804   -0.1952 H   0  0  0  0  0  0  0  0  0  0  0  0
   -0.7594   -0.5922    0.2415 C   0  0  1  0  0  0  0  0  0  0  0  0
   -0.1739   -0.8867    1.1195 H   0  0  0  0  0  0  0  0  0  0  0  0
    0.0362   -0.9303   -1.0370 C   0  0  0  0  0  0  0  0  0  0  0  0
   -0.5321   -1.6262   -1.6630 H   0  0  0  0  0  0  0  0  0  0  0  0
    0.1960   -0.0287   -1.6381 H   0  0  0  0  0  0  0  0  0  0  0  0
    1.3732   -1.5382   -0.6914 C   0  0  0  0  0  0  0  0  0  0  0  0
    2.4122   -0.7271   -0.2094 C   0  0  0  0  0  0  0  0  0  0  0  0
    2.2687    0.3453   -0.1205 H   0  0  0  0  0  0  0  0  0  0  0  0
    3.6430   -1.2880    0.1477 C   0  0  0  0  0  0  0  0  0  0  0  0
    4.4447   -0.6531    0.5127 H   0  0  0  0  0  0  0  0  0  0  0  0
    3.8412   -2.6674    0.0355 C   0  0  0  0  0  0  0  0  0  0  0  0
    4.7948   -3.1055    0.3153 H   0  0  0  0  0  0  0  0  0  0  0  0
    2.8070   -3.4844   -0.4316 C   0  0  0  0  0  0  0  0  0  0  0  0
    2.9540   -4.5575   -0.5094 H   0  0  0  0  0  0  0  0  0  0  0  0
    1.5773   -2.9218   -0.7902 C   0  0  0  0  0  0  0  0  0  0  0  0
    0.7745   -3.5677   -1.1334 H   0  0  0  0  0  0  0  0  0  0  0  0
   -0.9950    0.9234    0.3584 C   0  0  0  0  0  0  0  0  0  0  0  0
   -1.8949    1.4532   -0.2832 O   0  0  0  0  0  0  0  0  0  0  0  0
   -0.2298    1.6843    1.2228 N   0  0  0  0  0  0  0  0  0  0  0  0
    0.4599    1.1985    1.7901 H   0  0  0  0  0  0  0  0  0  0  0  0
   -0.4405    3.1109    1.4346 C   0  0  0  0  0  0  0  0  0  0  0  0
   -1.4513    3.2971    1.8125 H   0  0  0  0  0  0  0  0  0  0  0  0
    0.2781    3.4946    2.1652 H   0  0  0  0  0  0  0  0  0  0  0  0
   -0.3073    3.6613    0.4972 H   0  0  0  0  0  0  0  0  0  0  0  0
  1  2  1  0  0  0  0
  2  3  1  0  0  0  0
  2  4  1  0  0  0  0
  2  5  1  0  0  0  0
  5  6  2  0  0  0  0
  5  7  1  0  0  0  0
  7  8  1  0  0  0  0
  7  9  1  0  0  0  0
  9 10  1  0  0  0  0
  9 11  1  0  0  0  0
  9 25  1  0  0  0  0
 11 12  1  0  0  0  0
 11 13  1  0  0  0  0
 11 14  1  0  0  0  0
 14 15  1  0  0  0  0
 14 23  2  0  0  0  0
 15 16  1  0  0  0  0
 15 17  2  0  0  0  0
 17 18  1  0  0  0  0
 17 19  1  0  0  0  0
 19 20  1  0  0  0  0
 19 21  2  0  0  0  0
 21 22  1  0  0  0  0
 21 23  1  0  0  0  0
 23 24  1  0  0  0  0
 25 26  2  0  0  0  0
 25 27  1  0  0  0  0
 27 28  1  0  0  0  0
 27 29  1  0  0  0  0
 29 30  1  0  0  0  0
 29 31  1  0  0  0  0
 29 32  1  0  0  0  0
M  END
$$$$

  -OEChem-04042216033D

 32 32  0     1  0  0  0  0  0999 V2000
   -3.7212   -3.9406    1.6279 H   0  0  0  0  0  0  0  0  0  0  0  0
   -3.6797   -3.0602    0.9803 C   0  0  0  0  0  0  0  0  0  0  0  0
   -4.4155   -2.3315    1.3292 H   0  0  0  0  0  0  0  0  0  0  0  0
   -3.9299   -3.3615   -0.0398 H   0  0  0  0  0  0  0  0  0  0  0  0
   -2.2905   -2.4509    1.0140 C   0  0  0  0  0  0  0  0  0  0  0  0
   -1.4230   -2.9544    1.7092 O   0  0  0  0  0  0  0  0  0  0  0  0
   -2.0249   -1.3206    0.2692 N   0  0  0  0  0  0  0  0  0  0  0  0
   -2.8076   -0.8825   -0.2134 H   0  0  0  0  0  0  0  0  0  0  0  0
   -0.7517   -0.5834    0.2795 C   0  0  1  0  0  0  0  0  0  0  0  0
   -0.1791   -0.8684    1.1682 H   0  0  0  0  0  0  0  0  0  0  0  0
    0.0548   -0.9320   -0.9930 C   0  0  0  0  0  0  0  0  0  0  0  0
   -0.5229   -1.6161   -1.6229 H   0  0  0  0  0  0  0  0  0  0  0  0
    0.2259   -0.0300   -1.5904 H   0  0  0  0  0  0  0  0  0  0  0  0
    1.3949   -1.5517   -0.6676 C   0  0  0  0  0  0  0  0  0  0  0  0
    2.3461   -0.8484    0.0898 C   0  0  0  0  0  0  0  0  0  0  0  0
    2.1378    0.1622    0.4252 H   0  0  0  0  0  0  0  0  0  0  0  0
    3.5770   -1.4325    0.4076 C   0  0  0  0  0  0  0  0  0  0  0  0
    4.3080   -0.8794    0.9899 H   0  0  0  0  0  0  0  0  0  0  0  0
    3.8675   -2.7294   -0.0250 C   0  0  0  0  0  0  0  0  0  0  0  0
    4.8218   -3.1850    0.2222 H   0  0  0  0  0  0  0  0  0  0  0  0
    2.9259   -3.4408   -0.7740 C   0  0  0  0  0  0  0  0  0  0  0  0
    3.1467   -4.4511   -1.1055 H   0  0  0  0  0  0  0  0  0  0  0  0
    1.6957   -2.8550   -1.0916 C   0  0  0  0  0  0  0  0  0  0  0  0
    0.9699   -3.4241   -1.6646 H   0  0  0  0  0  0  0  0  0  0  0  0
   -1.0015    0.9331    0.3690 C   0  0  0  0  0  0  0  0  0  0  0  0
   -1.8856    1.4465   -0.3073 O   0  0  0  0  0  0  0  0  0  0  0  0
   -0.2642    1.7166    1.2375 N   0  0  0  0  0  0  0  0  0  0  0  0
    0.3925    1.2438    1.8522 H   0  0  0  0  0  0  0  0  0  0  0  0
   -0.4994    3.1432    1.4210 C   0  0  0  0  0  0  0  0  0  0  0  0
   -1.5135    3.3197    1.7946 H   0  0  0  0  0  0  0  0  0  0  0  0
    0.2125    3.5536    2.1435 H   0  0  0  0  0  0  0  0  0  0  0  0
   -0.3750    3.6769    0.4729 H   0  0  0  0  0  0  0  0  0  0  0  0
  1  2  1  0  0  0  0
  2  3  1  0  0  0  0
  2  4  1  0  0  0  0
  2  5  1  0  0  0  0
  5  6  2  0  0  0  0
  5  7  1  0  0  0  0
  7  8  1  0  0  0  0
  7  9  1  0  0  0  0
  9 10  1  0  0  0  0
  9 11  1  0  0  0  0
  9 25  1  0  0  0  0
 11 12  1  0  0  0  0
 11 13  1  0  0  0  0
 11 14  1  0  0  0  0
 14 15  1  0  0  0  0
 14 23  2  0  0  0  0
 15 16  1  0  0  0  0
 15 17  2  0  0  0  0
 17 18  1  0  0  0  0
 17 19  1  0  0  0  0
 19 20  1  0  0  0  0
 19 21  2  0  0  0  0
 21 22  1  0  0  0  0
 21 23  1  0  0  0  0
 23 24  1  0  0  0  0
 25 26  2  0  0  0  0
 25 27  1  0  0  0  0
 27 28  1  0  0  0  0
 27 29  1  0  0  0  0
 29 30  1  0  0  0  0
 29 31  1  0  0  0  0
 29 32  1  0  0  0  0
M  END
$$$$

  -OEChem-04042216033D

 32 32  0     1  0  0  0  0  0999 V2000
   -3.7485   -3.9430    1.6136 H   0  0  0  0  0  0  0  0  0  0  0  0
   -3.6969   -3.0640    0.9647 C   0  0  0  0  0  0  0  0  0  0  0  0
   -4.4543   -2.3443    1.2845 H   0  0  0  0  0  0  0  0  0  0  0  0
   -3.9074   -3.3719   -0.0623 H   0  0  0  0  0  0  0  0  0  0  0  0
   -2.3181   -2.4357    1.0445 C   0  0  0  0  0  0  0  0  0  0  0  0
   -1.4750   -2.9143    1.7859 O   0  0  0  0  0  0  0  0  0  0  0  0
   -2.0339   -1.3155    0.2908 N   0  0  0  0  0  0  0  0  0  0  0  0
   -2.7993   -0.8954   -0.2339 H   0  0  0  0  0  0  0  0  0  0  0  0
   -0.7612   -0.5774    0.3216 C   0  0  1  0  0  0  0  0  0  0  0  0
   -0.2131   -0.8528    1.2273 H   0  0  0  0  0  0  0  0  0  0  0  0
    0.0687   -0.9373   -0.9357 C   0  0  0  0  0  0  0  0  0  0  0  0
   -0.5096   -1.6209   -1.5656 H   0  0  0  0  0  0  0  0  0  0  0  0
    0.2429   -0.0377   -1.5360 H   0  0  0  0  0  0  0  0  0  0  0  0
    1.4160   -1.5614   -0.6308 C   0  0  0  0  0  0  0  0  0  0  0  0
    2.2710   -1.0400    0.3564 C   0  0  0  0  0  0  0  0  0  0  0  0
    1.9913   -0.1554    0.9173 H   0  0  0  0  0  0  0  0  0  0  0  0
    3.5056   -1.6417    0.6235 C   0  0  0  0  0  0  0  0  0  0  0  0
    4.1570   -1.2295    1.3882 H   0  0  0  0  0  0  0  0  0  0  0  0
    3.9029   -2.7733   -0.0934 C   0  0  0  0  0  0  0  0  0  0  0  0
    4.8601   -3.2424    0.1147 H   0  0  0  0  0  0  0  0  0  0  0  0
    3.0639   -3.3009   -1.0781 C   0  0  0  0  0  0  0  0  0  0  0  0
    3.3681   -4.1813   -1.6362 H   0  0  0  0  0  0  0  0  0  0  0  0
    1.8295   -2.6983   -1.3433 C   0  0  0  0  0  0  0  0  0  0  0  0
    1.1883   -3.1254   -2.1084 H   0  0  0  0  0  0  0  0  0  0  0  0
   -1.0180    0.9398    0.3843 C   0  0  0  0  0  0  0  0  0  0  0  0
   -1.8824    1.4402   -0.3265 O   0  0  0  0  0  0  0  0  0  0  0  0
   -0.3064    1.7410    1.2584 N   0  0  0  0  0  0  0  0  0  0  0  0
    0.3444    1.2850    1.8914 H   0  0  0  0  0  0  0  0  0  0  0  0
   -0.5351    3.1744    1.3948 C   0  0  0  0  0  0  0  0  0  0  0  0
   -1.5698    3.3713    1.6948 H   0  0  0  0  0  0  0  0  0  0  0  0
    0.1309    3.5931    2.1554 H   0  0  0  0  0  0  0  0  0  0  0  0
   -0.3397    3.6853    0.4459 H   0  0  0  0  0  0  0  0  0  0  0  0
  1  2  1  0  0  0  0
  2  3  1  0  0  0  0
  2  4  1  0  0  0  0
  2  5  1  0  0  0  0
  5  6  2  0  0  0  0
  5  7  1  0  0  0  0
  7  8  1  0  0  0  0
  7  9  1  0  0  0  0
  9 10  1  0  0  0  0
  9 11  1  0  0  0  0
  9 25  1  0  0  0  0
 11 12  1  0  0  0  0
 11 13  1  0  0  0  0
 11 14  1  0  0  0  0
 14 15  1  0  0  0  0
 14 23  2  0  0  0  0
 15 16  1  0  0  0  0
 15 17  2  0  0  0  0
 17 18  1  0  0  0  0
 17 19  1  0  0  0  0
 19 20  1  0  0  0  0
 19 21  2  0  0  0  0
 21 22  1  0  0  0  0
 21 23  1  0  0  0  0
 23 24  1  0  0  0  0
 25 26  2  0  0  0  0
 25 27  1  0  0  0  0
 27 28  1  0  0  0  0
 27 29  1  0  0  0  0
 29 30  1  0  0  0  0
 29 31  1  0  0  0  0
 29 32  1  0  0  0  0
M  END
$$$$

  -OEChem-04042216033D

 32 32  0     1  0  0  0  0  0999 V2000
   -3.7909   -3.9347    1.5982 H   0  0  0  0  0  0  0  0  0  0  0  0
   -3.7282   -3.0566    0.9494 C   0  0  0  0  0  0  0  0  0  0  0  0
   -4.4939   -2.3388    1.2530 H   0  0  0  0  0  0  0  0  0  0  0  0
   -3.9170   -3.3667   -0.0812 H   0  0  0  0  0  0  0  0  0  0  0  0
   -2.3527   -2.4250    1.0564 C   0  0  0  0  0  0  0  0  0  0  0  0
   -1.5290   -2.8909    1.8274 O   0  0  0  0  0  0  0  0  0  0  0  0
   -2.0502   -1.3144    0.2954 N   0  0  0  0  0  0  0  0  0  0  0  0
   -2.8017   -0.9034   -0.2558 H   0  0  0  0  0  0  0  0  0  0  0  0
   -0.7790   -0.5747    0.3491 C   0  0  1  0  0  0  0  0  0  0  0  0
   -0.2685   -0.8381    1.2771 H   0  0  0  0  0  0  0  0  0  0  0  0
    0.0868   -0.9486   -0.8822 C   0  0  0  0  0  0  0  0  0  0  0  0
   -0.4811   -1.6421   -1.5111 H   0  0  0  0  0  0  0  0  0  0  0  0
    0.2606   -0.0544   -1.4903 H   0  0  0  0  0  0  0  0  0  0  0  0
    1.4413   -1.5718   -0.5883 C   0  0  0  0  0  0  0  0  0  0  0  0
    2.1949   -1.2879    0.5675 C   0  0  0  0  0  0  0  0  0  0  0  0
    1.8451   -0.5820    1.3110 H   0  0  0  0  0  0  0  0  0  0  0  0
    3.4343   -1.9004    0.7832 C   0  0  0  0  0  0  0  0  0  0  0  0
    4.0027   -1.6746    1.6804 H   0  0  0  0  0  0  0  0  0  0  0  0
    3.9444   -2.8013   -0.1539 C   0  0  0  0  0  0  0  0  0  0  0  0
    4.9061   -3.2772    0.0142 H   0  0  0  0  0  0  0  0  0  0  0  0
    3.2140   -3.0872   -1.3091 C   0  0  0  0  0  0  0  0  0  0  0  0
    3.6075   -3.7859   -2.0415 H   0  0  0  0  0  0  0  0  0  0  0  0
    1.9738   -2.4765   -1.5216 C   0  0  0  0  0  0  0  0  0  0  0  0
    1.4199   -2.7134   -2.4250 H   0  0  0  0  0  0  0  0  0  0  0  0
   -1.0338    0.9440    0.3855 C   0  0  0  0  0  0  0  0  0  0  0  0
   -1.8866    1.4351   -0.3455 O   0  0  0  0  0  0  0  0  0  0  0  0
   -0.3430    1.7557    1.2665 N   0  0  0  0  0  0  0  0  0  0  0  0
    0.3221    1.3133    1.8938 H   0  0  0  0  0  0  0  0  0  0  0  0
   -0.5654    3.1926    1.3736 C   0  0  0  0  0  0  0  0  0  0  0  0
   -1.6068    3.4012    1.6403 H   0  0  0  0  0  0  0  0  0  0  0  0
    0.0812    3.6182    2.1470 H   0  0  0  0  0  0  0  0  0  0  0  0
   -0.3391    3.6873    0.4232 H   0  0  0  0  0  0  0  0  0  0  0  0
  1  2  1  0  0  0  0
  2  3  1  0  0  0  0
  2  4  1  0  0  0  0
  2  5  1  0  0  0  0
  5  6  2  0  0  0  0
  5  7  1  0  0  0  0
  7  8  1  0  0  0  0
  7  9  1  0  0  0  0
  9 10  1  0  0  0  0
  9 11  1  0  0  0  0
  9 25  1  0  0  0  0
 11 12  1  0  0  0  0
 11 13  1  0  0  0  0
 11 14  1  0  0  0  0
 14 15  1  0  0  0  0
 14 23  2  0  0  0  0
 15 16  1  0  0  0  0
 15 17  2  0  0  0  0
 17 18  1  0  0  0  0
 17 19  1  0  0  0  0
 19 20  1  0  0  0  0
 19 21  2  0  0  0  0
 21 22  1  0  0  0  0
 21 23  1  0  0  0  0
 23 24  1  0  0  0  0
 25 26  2  0  0  0  0
 25 27  1  0  0  0  0
 27 28  1  0  0  0  0
 27 29  1  0  0  0  0
 29 30  1  0  0  0  0
 29 31  1  0  0  0  0
 29 32  1  0  0  0  0
M  END
$$$$

  -OEChem-04042216033D

 32 32  0     1  0  0  0  0  0999 V2000
   -3.8400   -3.9247    1.5779 H   0  0  0  0  0  0  0  0  0  0  0  0
   -3.7669   -3.0447    0.9325 C   0  0  0  0  0  0  0  0  0  0  0  0
   -4.5352   -2.3260    1.2279 H   0  0  0  0  0  0  0  0  0  0  0  0
   -3.9419   -3.3515   -0.1015 H   0  0  0  0  0  0  0  0  0  0  0  0
   -2.3922   -2.4156    1.0606 C   0  0  0  0  0  0  0  0  0  0  0  0
   -1.5849   -2.8759    1.8525 O   0  0  0  0  0  0  0  0  0  0  0  0
   -2.0701   -1.3142    0.2943 N   0  0  0  0  0  0  0  0  0  0  0  0
   -2.8083   -0.9055   -0.2766 H   0  0  0  0  0  0  0  0  0  0  0  0
   -0.7984   -0.5777    0.3731 C   0  0  1  0  0  0  0  0  0  0  0  0
   -0.3222   -0.8239    1.3207 H   0  0  0  0  0  0  0  0  0  0  0  0
    0.1006   -0.9632   -0.8318 C   0  0  0  0  0  0  0  0  0  0  0  0
   -0.4566   -1.6614   -1.4654 H   0  0  0  0  0  0  0  0  0  0  0  0
    0.2798   -0.0720   -1.4430 H   0  0  0  0  0  0  0  0  0  0  0  0
    1.4575   -1.5912   -0.5432 C   0  0  0  0  0  0  0  0  0  0  0  0
    2.1057   -1.5859    0.7099 C   0  0  0  0  0  0  0  0  0  0  0  0
    1.6740   -1.1194    1.5859 H   0  0  0  0  0  0  0  0  0  0  0  0
    3.3582   -2.1893    0.8715 C   0  0  0  0  0  0  0  0  0  0  0  0
    3.8408   -2.1825    1.8444 H   0  0  0  0  0  0  0  0  0  0  0  0
    3.9900   -2.8024   -0.2119 C   0  0  0  0  0  0  0  0  0  0  0  0
    4.9612   -3.2710   -0.0834 H   0  0  0  0  0  0  0  0  0  0  0  0
    3.3669   -2.8112   -1.4605 C   0  0  0  0  0  0  0  0  0  0  0  0
    3.8538   -3.2858   -2.3072 H   0  0  0  0  0  0  0  0  0  0  0  0
    2.1141   -2.2107   -1.6202 C   0  0  0  0  0  0  0  0  0  0  0  0
    1.6456   -2.2289   -2.5999 H   0  0  0  0  0  0  0  0  0  0  0  0
   -1.0486    0.9425    0.3868 C   0  0  0  0  0  0  0  0  0  0  0  0
   -1.8845    1.4288   -0.3668 O   0  0  0  0  0  0  0  0  0  0  0  0
   -0.3762    1.7592    1.2775 N   0  0  0  0  0  0  0  0  0  0  0  0
    0.3024    1.3248    1.8963 H   0  0  0  0  0  0  0  0  0  0  0  0
   -0.5738    3.2018    1.3478 C   0  0  0  0  0  0  0  0  0  0  0  0
   -1.6185    3.4355    1.5785 H   0  0  0  0  0  0  0  0  0  0  0  0
    0.0571    3.6321    2.1314 H   0  0  0  0  0  0  0  0  0  0  0  0
   -0.3095    3.6712    0.3945 H   0  0  0  0  0  0  0  0  0  0  0  0
  1  2  1  0  0  0  0
  2  3  1  0  0  0  0
  2  4  1  0  0  0  0
  2  5  1  0  0  0  0
  5  6  2  0  0  0  0
  5  7  1  0  0  0  0
  7  8  1  0  0  0  0
  7  9  1  0  0  0  0
  9 10  1  0  0  0  0
  9 11  1  0  0  0  0
  9 25  1  0  0  0  0
 11 12  1  0  0  0  0
 11 13  1  0  0  0  0
 11 14  1  0  0  0  0
 14 15  1  0  0  0  0
 14 23  2  0  0  0  0
 15 16  1  0  0  0  0
 15 17  2  0  0  0  0
 17 18  1  0  0  0  0
 17 19  1  0  0  0  0
 19 20  1  0  0  0  0
 19 21  2  0  0  0  0
 21 22  1  0  0  0  0
 21 23  1  0  0  0  0
 23 24  1  0  0  0  0
 25 26  2  0  0  0  0
 25 27  1  0  0  0  0
 27 28  1  0  0  0  0
 27 29  1  0  0  0  0
 29 30  1  0  0  0  0
 29 31  1  0  0  0  0
 29 32  1  0  0  0  0
M  END
$$$$

  -OEChem-04042216033D

 32 32  0     1  0  0  0  0  0999 V2000
   -3.8832   -3.8959    1.5833 H   0  0  0  0  0  0  0  0  0  0  0  0
   -3.7980   -3.0197    0.9343 C   0  0  0  0  0  0  0  0  0  0  0  0
   -4.5590   -2.2910    1.2237 H   0  0  0  0  0  0  0  0  0  0  0  0
   -3.9735   -3.3294   -0.0988 H   0  0  0  0  0  0  0  0  0  0  0  0
   -2.4169   -2.4049    1.0631 C   0  0  0  0  0  0  0  0  0  0  0  0
   -1.6139   -2.8709    1.8564 O   0  0  0  0  0  0  0  0  0  0  0  0
   -2.0803   -1.3112    0.2924 N   0  0  0  0  0  0  0  0  0  0  0  0
   -2.8123   -0.8914   -0.2785 H   0  0  0  0  0  0  0  0  0  0  0  0
   -0.8015   -0.5898    0.3804 C   0  0  1  0  0  0  0  0  0  0  0  0
   -0.3329   -0.8195    1.3345 H   0  0  0  0  0  0  0  0  0  0  0  0
    0.1027   -0.9802   -0.8189 C   0  0  0  0  0  0  0  0  0  0  0  0
   -0.4544   -1.6715   -1.4599 H   0  0  0  0  0  0  0  0  0  0  0  0
    0.2906   -0.0866   -1.4242 H   0  0  0  0  0  0  0  0  0  0  0  0
    1.4529   -1.6257   -0.5354 C   0  0  0  0  0  0  0  0  0  0  0  0
    1.9768   -1.9135    0.7435 C   0  0  0  0  0  0  0  0  0  0  0  0
    1.4252   -1.7357    1.6578 H   0  0  0  0  0  0  0  0  0  0  0  0
    3.2473   -2.4828    0.8858 C   0  0  0  0  0  0  0  0  0  0  0  0
    3.6305   -2.7070    1.8769 H   0  0  0  0  0  0  0  0  0  0  0  0
    4.0207   -2.7717   -0.2398 C   0  0  0  0  0  0  0  0  0  0  0  0
    5.0060   -3.2140   -0.1258 H   0  0  0  0  0  0  0  0  0  0  0  0
    3.5191   -2.4946   -1.5121 C   0  0  0  0  0  0  0  0  0  0  0  0
    4.1149   -2.7190   -2.3919 H   0  0  0  0  0  0  0  0  0  0  0  0
    2.2487   -1.9280   -1.6535 C   0  0  0  0  0  0  0  0  0  0  0  0
    1.8772   -1.7173   -2.6521 H   0  0  0  0  0  0  0  0  0  0  0  0
   -1.0432    0.9319    0.3845 C   0  0  0  0  0  0  0  0  0  0  0  0
   -1.8746    1.4183   -0.3741 O   0  0  0  0  0  0  0  0  0  0  0  0
   -0.3751    1.7495    1.2774 N   0  0  0  0  0  0  0  0  0  0  0  0
    0.3096    1.3171    1.8913 H   0  0  0  0  0  0  0  0  0  0  0  0
   -0.5634    3.1937    1.3358 C   0  0  0  0  0  0  0  0  0  0  0  0
   -1.6085    3.4356    1.5557 H   0  0  0  0  0  0  0  0  0  0  0  0
    0.0635    3.6254    2.1220 H   0  0  0  0  0  0  0  0  0  0  0  0
   -0.2879    3.6547    0.3814 H   0  0  0  0  0  0  0  0  0  0  0  0
  1  2  1  0  0  0  0
  2  3  1  0  0  0  0
  2  4  1  0  0  0  0
  2  5  1  0  0  0  0
  5  6  2  0  0  0  0
  5  7  1  0  0  0  0
  7  8  1  0  0  0  0
  7  9  1  0  0  0  0
  9 10  1  0  0  0  0
  9 11  1  0  0  0  0
  9 25  1  0  0  0  0
 11 12  1  0  0  0  0
 11 13  1  0  0  0  0
 11 14  1  0  0  0  0
 14 15  1  0  0  0  0
 14 23  2  0  0  0  0
 15 16  1  0  0  0  0
 15 17  2  0  0  0  0
 17 18  1  0  0  0  0
 17 19  1  0  0  0  0
 19 20  1  0  0  0  0
 19 21  2  0  0  0  0
 21 22  1  0  0  0  0
 21 23  1  0  0  0  0
 23 24  1  0  0  0  0
 25 26  2  0  0  0  0
 25 27  1  0  0  0  0
 27 28  1  0  0  0  0
 27 29  1  0  0  0  0
 29 30  1  0  0  0  0
 29 31  1  0  0  0  0
 29 32  1  0  0  0  0
M  END
$$$$

  -OEChem-04042216033D

 32 32  0     1  0  0  0  0  0999 V2000
   -3.8754   -3.8906    1.6061 H   0  0  0  0  0  0  0  0  0  0  0  0
   -3.7945   -3.0159    0.9548 C   0  0  0  0  0  0  0  0  0  0  0  0
   -4.5484   -2.2833    1.2528 H   0  0  0  0  0  0  0  0  0  0  0  0
   -3.9846   -3.3261   -0.0756 H   0  0  0  0  0  0  0  0  0  0  0  0
   -2.4086   -2.4085    1.0644 C   0  0  0  0  0  0  0  0  0  0  0  0
   -1.5930   -2.8861    1.8381 O   0  0  0  0  0  0  0  0  0  0  0  0
   -2.0788   -1.3115    0.2958 N   0  0  0  0  0  0  0  0  0  0  0  0
   -2.8173   -0.8831   -0.2601 H   0  0  0  0  0  0  0  0  0  0  0  0
   -0.7933   -0.6007    0.3664 C   0  0  1  0  0  0  0  0  0  0  0  0
   -0.2971   -0.8299    1.3084 H   0  0  0  0  0  0  0  0  0  0  0  0
    0.0848   -0.9784   -0.8557 C   0  0  0  0  0  0  0  0  0  0  0  0
   -0.4812   -1.6609   -1.4980 H   0  0  0  0  0  0  0  0  0  0  0  0
    0.2675   -0.0774   -1.4519 H   0  0  0  0  0  0  0  0  0  0  0  0
    1.4296   -1.6355   -0.5805 C   0  0  0  0  0  0  0  0  0  0  0  0
    1.8115   -2.2020    0.6535 C   0  0  0  0  0  0  0  0  0  0  0  0
    1.1266   -2.2768    1.4910 H   0  0  0  0  0  0  0  0  0  0  0  0
    3.0883   -2.7472    0.8272 C   0  0  0  0  0  0  0  0  0  0  0  0
    3.3603   -3.1908    1.7805 H   0  0  0  0  0  0  0  0  0  0  0  0
    4.0074   -2.7356   -0.2236 C   0  0  0  0  0  0  0  0  0  0  0  0
    4.9967   -3.1624   -0.0874 H   0  0  0  0  0  0  0  0  0  0  0  0
    3.6456   -2.1821   -1.4529 C   0  0  0  0  0  0  0  0  0  0  0  0
    4.3551   -2.1736   -2.2751 H   0  0  0  0  0  0  0  0  0  0  0  0
    2.3686   -1.6387   -1.6258 C   0  0  0  0  0  0  0  0  0  0  0  0
    2.1074   -1.2095   -2.5887 H   0  0  0  0  0  0  0  0  0  0  0  0
   -1.0310    0.9217    0.3861 C   0  0  0  0  0  0  0  0  0  0  0  0
   -1.8711    1.4174   -0.3568 O   0  0  0  0  0  0  0  0  0  0  0  0
   -0.3445    1.7295    1.2736 N   0  0  0  0  0  0  0  0  0  0  0  0
    0.3467    1.2881    1.8740 H   0  0  0  0  0  0  0  0  0  0  0  0
   -0.5235    3.1742    1.3454 C   0  0  0  0  0  0  0  0  0  0  0  0
   -1.5659    3.4208    1.5726 H   0  0  0  0  0  0  0  0  0  0  0  0
    0.1098    3.5954    2.1320 H   0  0  0  0  0  0  0  0  0  0  0  0
   -0.2498    3.6411    0.3935 H   0  0  0  0  0  0  0  0  0  0  0  0
  1  2  1  0  0  0  0
  2  3  1  0  0  0  0
  2  4  1  0  0  0  0
  2  5  1  0  0  0  0
  5  6  2  0  0  0  0
  5  7  1  0  0  0  0
  7  8  1  0  0  0  0
  7  9  1  0  0  0  0
  9 10  1  0  0  0  0
  9 11  1  0  0  0  0
  9 25  1  0  0  0  0
 11 12  1  0  0  0  0
 11 13  1  0  0  0  0
 11 14  1  0  0  0  0
 14 15  1  0  0  0  0
 14 23  2  0  0  0  0
 15 16  1  0  0  0  0
 15 17  2  0  0  0  0
 17 18  1  0  0  0  0
 17 19  1  0  0  0  0
 19 20  1  0  0  0  0
 19 21  2  0  0  0  0
 21 22  1  0  0  0  0
 21 23  1  0  0  0  0
 23 24  1  0  0  0  0
 25 26  2  0  0  0  0
 25 27  1  0  0  0  0
 27 28  1  0  0  0  0
 27 29  1  0  0  0  0
 29 30  1  0  0  0  0
 29 31  1  0  0  0  0
 29 32  1  0  0  0  0
M  END
$$$$

  -OEChem-04042216033D

 32 32  0     1  0  0  0  0  0999 V2000
   -3.8480   -3.9127    1.6090 H   0  0  0  0  0  0  0  0  0  0  0  0
   -3.7697   -3.0370    0.9584 C   0  0  0  0  0  0  0  0  0  0  0  0
   -4.5248   -2.3061    1.2578 H   0  0  0  0  0  0  0  0  0  0  0  0
   -3.9595   -3.3466   -0.0723 H   0  0  0  0  0  0  0  0  0  0  0  0
   -2.3855   -2.4260    1.0676 C   0  0  0  0  0  0  0  0  0  0  0  0
   -1.5678   -2.9079    1.8353 O   0  0  0  0  0  0  0  0  0  0  0  0
   -2.0665   -1.3189    0.3093 N   0  0  0  0  0  0  0  0  0  0  0  0
   -2.8137   -0.8940   -0.2376 H   0  0  0  0  0  0  0  0  0  0  0  0
   -0.7817   -0.6025    0.3502 C   0  0  1  0  0  0  0  0  0  0  0  0
   -0.2481   -0.8506    1.2700 H   0  0  0  0  0  0  0  0  0  0  0  0
    0.0645   -0.9622   -0.8987 C   0  0  0  0  0  0  0  0  0  0  0  0
   -0.5054   -1.6506   -1.5308 H   0  0  0  0  0  0  0  0  0  0  0  0
    0.2247   -0.0581   -1.4965 H   0  0  0  0  0  0  0  0  0  0  0  0
    1.4120   -1.6093   -0.6270 C   0  0  0  0  0  0  0  0  0  0  0  0
    1.6719   -2.4226    0.4928 C   0  0  0  0  0  0  0  0  0  0  0  0
    0.8910   -2.6674    1.2054 H   0  0  0  0  0  0  0  0  0  0  0  0
    2.9417   -2.9711    0.7018 C   0  0  0  0  0  0  0  0  0  0  0  0
    3.1213   -3.6023    1.5674 H   0  0  0  0  0  0  0  0  0  0  0  0
    3.9733   -2.7163   -0.2044 C   0  0  0  0  0  0  0  0  0  0  0  0
    4.9579   -3.1452   -0.0429 H   0  0  0  0  0  0  0  0  0  0  0  0
    3.7313   -1.9156   -1.3226 C   0  0  0  0  0  0  0  0  0  0  0  0
    4.5296   -1.7190   -2.0321 H   0  0  0  0  0  0  0  0  0  0  0  0
    2.4607   -1.3688   -1.5303 C   0  0  0  0  0  0  0  0  0  0  0  0
    2.2923   -0.7488   -2.4059 H   0  0  0  0  0  0  0  0  0  0  0  0
   -1.0207    0.9189    0.3941 C   0  0  0  0  0  0  0  0  0  0  0  0
   -1.8804    1.4221   -0.3209 O   0  0  0  0  0  0  0  0  0  0  0  0
   -0.3088    1.7168    1.2705 N   0  0  0  0  0  0  0  0  0  0  0  0
    0.3966    1.2679    1.8487 H   0  0  0  0  0  0  0  0  0  0  0  0
   -0.4883    3.1601    1.3673 C   0  0  0  0  0  0  0  0  0  0  0  0
   -1.5282    3.4023    1.6108 H   0  0  0  0  0  0  0  0  0  0  0  0
    0.1538    3.5689    2.1535 H   0  0  0  0  0  0  0  0  0  0  0  0
   -0.2261    3.6430    0.4200 H   0  0  0  0  0  0  0  0  0  0  0  0
  1  2  1  0  0  0  0
  2  3  1  0  0  0  0
  2  4  1  0  0  0  0
  2  5  1  0  0  0  0
  5  6  2  0  0  0  0
  5  7  1  0  0  0  0
  7  8  1  0  0  0  0
  7  9  1  0  0  0  0
  9 10  1  0  0  0  0
  9 11  1  0  0  0  0
  9 25  1  0  0  0  0
 11 12  1  0  0  0  0
 11 13  1  0  0  0  0
 11 14  1  0  0  0  0
 14 15  1  0  0  0  0
 14 23  2  0  0  0  0
 15 16  1  0  0  0  0
 15 17  2  0  0  0  0
 17 18  1  0  0  0  0
 17 19  1  0  0  0  0
 19 20  1  0  0  0  0
 19 21  2  0  0  0  0
 21 22  1  0  0  0  0
 21 23  1  0  0  0  0
 23 24  1  0  0  0  0
 25 26  2  0  0  0  0
 25 27  1  0  0  0  0
 27 28  1  0  0  0  0
 27 29  1  0  0  0  0
 29 30  1  0  0  0  0
 29 31  1  0  0  0  0
 29 32  1  0  0  0  0
M  END
$$$$

  -OEChem-04042216033D

 32 32  0     1  0  0  0  0  0999 V2000
   -3.8152   -3.9362    1.6181 H   0  0  0  0  0  0  0  0  0  0  0  0
   -3.7412   -3.0607    0.9669 C   0  0  0  0  0  0  0  0  0  0  0  0
   -4.4995   -2.3334    1.2672 H   0  0  0  0  0  0  0  0  0  0  0  0
   -3.9312   -3.3718   -0.0634 H   0  0  0  0  0  0  0  0  0  0  0  0
   -2.3596   -2.4434    1.0751 C   0  0  0  0  0  0  0  0  0  0  0  0
   -1.5425   -2.9194    1.8463 O   0  0  0  0  0  0  0  0  0  0  0  0
   -2.0519   -1.3288    0.3233 N   0  0  0  0  0  0  0  0  0  0  0  0
   -2.8058   -0.9120   -0.2205 H   0  0  0  0  0  0  0  0  0  0  0  0
   -0.7687   -0.6067    0.3362 C   0  0  1  0  0  0  0  0  0  0  0  0
   -0.2017   -0.8751    1.2329 H   0  0  0  0  0  0  0  0  0  0  0  0
    0.0481   -0.9439   -0.9375 C   0  0  0  0  0  0  0  0  0  0  0  0
   -0.5250   -1.6351   -1.5638 H   0  0  0  0  0  0  0  0  0  0  0  0
    0.1907   -0.0356   -1.5332 H   0  0  0  0  0  0  0  0  0  0  0  0
    1.3969   -1.5803   -0.6662 C   0  0  0  0  0  0  0  0  0  0  0  0
    1.5619   -2.6177    0.2669 C   0  0  0  0  0  0  0  0  0  0  0  0
    0.7104   -3.0152    0.8082 H   0  0  0  0  0  0  0  0  0  0  0  0
    2.8232   -3.1724    0.5061 C   0  0  0  0  0  0  0  0  0  0  0  0
    2.9300   -3.9759    1.2291 H   0  0  0  0  0  0  0  0  0  0  0  0
    3.9400   -2.6975   -0.1859 C   0  0  0  0  0  0  0  0  0  0  0  0
    4.9191   -3.1299   -0.0013 H   0  0  0  0  0  0  0  0  0  0  0  0
    3.7912   -1.6684   -1.1191 C   0  0  0  0  0  0  0  0  0  0  0  0
    4.6560   -1.2985   -1.6615 H   0  0  0  0  0  0  0  0  0  0  0  0
    2.5282   -1.1154   -1.3567 C   0  0  0  0  0  0  0  0  0  0  0  0
    2.4326   -0.3168   -2.0864 H   0  0  0  0  0  0  0  0  0  0  0  0
   -1.0120    0.9130    0.3994 C   0  0  0  0  0  0  0  0  0  0  0  0
   -1.8866    1.4202   -0.2944 O   0  0  0  0  0  0  0  0  0  0  0  0
   -0.2803    1.7062    1.2634 N   0  0  0  0  0  0  0  0  0  0  0  0
    0.4358    1.2534    1.8253 H   0  0  0  0  0  0  0  0  0  0  0  0
   -0.4619    3.1480    1.3764 C   0  0  0  0  0  0  0  0  0  0  0  0
   -1.4984    3.3853    1.6383 H   0  0  0  0  0  0  0  0  0  0  0  0
    0.1914    3.5515    2.1558 H   0  0  0  0  0  0  0  0  0  0  0  0
   -0.2165    3.6394    0.4292 H   0  0  0  0  0  0  0  0  0  0  0  0
  1  2  1  0  0  0  0
  2  3  1  0  0  0  0
  2  4  1  0  0  0  0
  2  5  1  0  0  0  0
  5  6  2  0  0  0  0
  5  7  1  0  0  0  0
  7  8  1  0  0  0  0
  7  9  1  0  0  0  0
  9 10  1  0  0  0  0
  9 11  1  0  0  0  0
  9 25  1  0  0  0  0
 11 12  1  0  0  0  0
 11 13  1  0  0  0  0
 11 14  1  0  0  0  0
 14 15  1  0  0  0  0
 14 23  2  0  0  0  0
 15 16  1  0  0  0  0
 15 17  2  0  0  0  0
 17 18  1  0  0  0  0
 17 19  1  0  0  0  0
 19 20  1  0  0  0  0
 19 21  2  0  0  0  0
 21 22  1  0  0  0  0
 21 23  1  0  0  0  0
 23 24  1  0  0  0  0
 25 26  2  0  0  0  0
 25 27  1  0  0  0  0
 27 28  1  0  0  0  0
 27 29  1  0  0  0  0
 29 30  1  0  0  0  0
 29 31  1  0  0  0  0
 29 32  1  0  0  0  0
M  END
$$$$

  -OEChem-04042216033D

 32 32  0     1  0  0  0  0  0999 V2000
   -3.7684   -3.9379    1.6613 H   0  0  0  0  0  0  0  0  0  0  0  0
   -3.7121   -3.0670    1.0022 C   0  0  0  0  0  0  0  0  0  0  0  0
   -4.4444   -2.3268    1.3338 H   0  0  0  0  0  0  0  0  0  0  0  0
   -3.9555   -3.3796   -0.0161 H   0  0  0  0  0  0  0  0  0  0  0  0
   -2.3179   -2.4699    1.0409 C   0  0  0  0  0  0  0  0  0  0  0  0
   -1.4615   -2.9747    1.7487 O   0  0  0  0  0  0  0  0  0  0  0  0
   -2.0412   -1.3423    0.2965 N   0  0  0  0  0  0  0  0  0  0  0  0
   -2.8213   -0.9046   -0.1912 H   0  0  0  0  0  0  0  0  0  0  0  0
   -0.7631   -0.6116    0.2860 C   0  0  1  0  0  0  0  0  0  0  0  0
   -0.1750   -0.8953    1.1652 H   0  0  0  0  0  0  0  0  0  0  0  0
    0.0345   -0.9341   -0.9998 C   0  0  0  0  0  0  0  0  0  0  0  0
   -0.5343   -1.6342   -1.6198 H   0  0  0  0  0  0  0  0  0  0  0  0
    0.1662   -0.0270   -1.5995 H   0  0  0  0  0  0  0  0  0  0  0  0
    1.3822   -1.5545   -0.7067 C   0  0  0  0  0  0  0  0  0  0  0  0
    1.4889   -2.7668   -0.0079 C   0  0  0  0  0  0  0  0  0  0  0  0
    0.5958   -3.2918    0.3155 H   0  0  0  0  0  0  0  0  0  0  0  0
    2.7422   -3.3183    0.2769 C   0  0  0  0  0  0  0  0  0  0  0  0
    2.8084   -4.2574    0.8183 H   0  0  0  0  0  0  0  0  0  0  0  0
    3.9052   -2.6618   -0.1340 C   0  0  0  0  0  0  0  0  0  0  0  0
    4.8782   -3.0908    0.0868 H   0  0  0  0  0  0  0  0  0  0  0  0
    3.8123   -1.4537   -0.8305 C   0  0  0  0  0  0  0  0  0  0  0  0
    4.7150   -0.9424   -1.1514 H   0  0  0  0  0  0  0  0  0  0  0  0
    2.5575   -0.9036   -1.1140 C   0  0  0  0  0  0  0  0  0  0  0  0
    2.5028    0.0366   -1.6545 H   0  0  0  0  0  0  0  0  0  0  0  0
   -1.0041    0.9060    0.3777 C   0  0  0  0  0  0  0  0  0  0  0  0
   -1.9003    1.4227   -0.2803 O   0  0  0  0  0  0  0  0  0  0  0  0
   -0.2480    1.6846    1.2337 N   0  0  0  0  0  0  0  0  0  0  0  0
    0.4728    1.2194    1.7793 H   0  0  0  0  0  0  0  0  0  0  0  0
   -0.4383    3.1210    1.3910 C   0  0  0  0  0  0  0  0  0  0  0  0
   -1.4561    3.3381    1.7316 H   0  0  0  0  0  0  0  0  0  0  0  0
    0.2649    3.5160    2.1304 H   0  0  0  0  0  0  0  0  0  0  0  0
   -0.2665    3.6365    0.4403 H   0  0  0  0  0  0  0  0  0  0  0  0
  1  2  1  0  0  0  0
  2  3  1  0  0  0  0
  2  4  1  0  0  0  0
  2  5  1  0  0  0  0
  5  6  2  0  0  0  0
  5  7  1  0  0  0  0
  7  8  1  0  0  0  0
  7  9  1  0  0  0  0
  9 10  1  0  0  0  0
  9 11  1  0  0  0  0
  9 25  1  0  0  0  0
 11 12  1  0  0  0  0
 11 13  1  0  0  0  0
 11 14  1  0  0  0  0
 14 15  1  0  0  0  0
 14 23  2  0  0  0  0
 15 16  1  0  0  0  0
 15 17  2  0  0  0  0
 17 18  1  0  0  0  0
 17 19  1  0  0  0  0
 19 20  1  0  0  0  0
 19 21  2  0  0  0  0
 21 22  1  0  0  0  0
 21 23  1  0  0  0  0
 23 24  1  0  0  0  0
 25 26  2  0  0  0  0
 25 27  1  0  0  0  0
 27 28  1  0  0  0  0
 27 29  1  0  0  0  0
 29 30  1  0  0  0  0
 29 31  1  0  0  0  0
 29 32  1  0  0  0  0
M  END
$$$$

  -OEChem-04042216033D

 32 32  0     1  0  0  0  0  0999 V2000
   -3.7002   -3.9560    1.6715 H   0  0  0  0  0  0  0  0  0  0  0  0
   -3.6707   -3.0804    1.0169 C   0  0  0  0  0  0  0  0  0  0  0  0
   -4.3863   -2.3413    1.3854 H   0  0  0  0  0  0  0  0  0  0  0  0
   -3.9594   -3.3846    0.0080 H   0  0  0  0  0  0  0  0  0  0  0  0
   -2.2743   -2.4869    0.9992 C   0  0  0  0  0  0  0  0  0  0  0  0
   -1.3798   -3.0199    1.6360 O   0  0  0  0  0  0  0  0  0  0  0  0
   -2.0300   -1.3452    0.2648 N   0  0  0  0  0  0  0  0  0  0  0  0
   -2.8311   -0.8928   -0.1726 H   0  0  0  0  0  0  0  0  0  0  0  0
   -0.7601   -0.6016    0.2455 C   0  0  1  0  0  0  0  0  0  0  0  0
   -0.1625   -0.8921    1.1165 H   0  0  0  0  0  0  0  0  0  0  0  0
    0.0257   -0.9251   -1.0431 C   0  0  0  0  0  0  0  0  0  0  0  0
   -0.5390   -1.6312   -1.6608 H   0  0  0  0  0  0  0  0  0  0  0  0
    0.1597   -0.0210   -1.6470 H   0  0  0  0  0  0  0  0  0  0  0  0
    1.3697   -1.5298   -0.7191 C   0  0  0  0  0  0  0  0  0  0  0  0
    1.4666   -2.8587   -0.2824 C   0  0  0  0  0  0  0  0  0  0  0  0
    0.5695   -3.4616   -0.1712 H   0  0  0  0  0  0  0  0  0  0  0  0
    2.7117   -3.4143    0.0292 C   0  0  0  0  0  0  0  0  0  0  0  0
    2.7729   -4.4429    0.3723 H   0  0  0  0  0  0  0  0  0  0  0  0
    3.8725   -2.6450   -0.0958 C   0  0  0  0  0  0  0  0  0  0  0  0
    4.8389   -3.0771    0.1469 H   0  0  0  0  0  0  0  0  0  0  0  0
    3.7858   -1.3192   -0.5311 C   0  0  0  0  0  0  0  0  0  0  0  0
    4.6867   -0.7208   -0.6292 H   0  0  0  0  0  0  0  0  0  0  0  0
    2.5392   -0.7639   -0.8400 C   0  0  0  0  0  0  0  0  0  0  0  0
    2.4848    0.2671   -1.1766 H   0  0  0  0  0  0  0  0  0  0  0  0
   -1.0011    0.9134    0.3629 C   0  0  0  0  0  0  0  0  0  0  0  0
   -1.9124    1.4372   -0.2677 O   0  0  0  0  0  0  0  0  0  0  0  0
   -0.2316    1.6795    1.2181 N   0  0  0  0  0  0  0  0  0  0  0  0
    0.4973    1.2057    1.7453 H   0  0  0  0  0  0  0  0  0  0  0  0
   -0.4285    3.1106    1.4102 C   0  0  0  0  0  0  0  0  0  0  0  0
   -1.4458    3.3138    1.7608 H   0  0  0  0  0  0  0  0  0  0  0  0
    0.2759    3.4925    2.1553 H   0  0  0  0  0  0  0  0  0  0  0  0
   -0.2645    3.6489    0.4708 H   0  0  0  0  0  0  0  0  0  0  0  0
  1  2  1  0  0  0  0
  2  3  1  0  0  0  0
  2  4  1  0  0  0  0
  2  5  1  0  0  0  0
  5  6  2  0  0  0  0
  5  7  1  0  0  0  0
  7  8  1  0  0  0  0
  7  9  1  0  0  0  0
  9 10  1  0  0  0  0
  9 11  1  0  0  0  0
  9 25  1  0  0  0  0
 11 12  1  0  0  0  0
 11 13  1  0  0  0  0
 11 14  1  0  0  0  0
 14 15  1  0  0  0  0
 14 23  2  0  0  0  0
 15 16  1  0  0  0  0
 15 17  2  0  0  0  0
 17 18  1  0  0  0  0
 17 19  1  0  0  0  0
 19 20  1  0  0  0  0
 19 21  2  0  0  0  0
 21 22  1  0  0  0  0
 21 23  1  0  0  0  0
 23 24  1  0  0  0  0
 25 26  2  0  0  0  0
 25 27  1  0  0  0  0
 27 28  1  0  0  0  0
 27 29  1  0  0  0  0
 29 30  1  0  0  0  0
 29 31  1  0  0  0  0
 29 32  1  0  0  0  0
M  END
$$$$

  -OEChem-04042216033D

 32 32  0     1  0  0  0  0  0999 V2000
   -3.6722   -3.9606    1.6670 H   0  0  0  0  0  0  0  0  0  0  0  0
   -3.6543   -3.0816    1.0166 C   0  0  0  0  0  0  0  0  0  0  0  0
   -4.3609   -2.3432    1.4030 H   0  0  0  0  0  0  0  0  0  0  0  0
   -3.9625   -3.3799    0.0118 H   0  0  0  0  0  0  0  0  0  0  0  0
   -2.2579   -2.4895    0.9751 C   0  0  0  0  0  0  0  0  0  0  0  0
   -1.3498   -3.0317    1.5842 O   0  0  0  0  0  0  0  0  0  0  0  0
   -2.0263   -1.3421    0.2453 N   0  0  0  0  0  0  0  0  0  0  0  0
   -2.8346   -0.8840   -0.1725 H   0  0  0  0  0  0  0  0  0  0  0  0
   -0.7595   -0.5938    0.2282 C   0  0  1  0  0  0  0  0  0  0  0  0
   -0.1636   -0.8874    1.0995 H   0  0  0  0  0  0  0  0  0  0  0  0
    0.0258   -0.9223   -1.0577 C   0  0  0  0  0  0  0  0  0  0  0  0
   -0.5380   -1.6278   -1.6767 H   0  0  0  0  0  0  0  0  0  0  0  0
    0.1686   -0.0203   -1.6628 H   0  0  0  0  0  0  0  0  0  0  0  0
    1.3664   -1.5216   -0.7152 C   0  0  0  0  0  0  0  0  0  0  0  0
    1.5090   -2.9083   -0.5687 C   0  0  0  0  0  0  0  0  0  0  0  0
    0.6458   -3.5578   -0.6832 H   0  0  0  0  0  0  0  0  0  0  0  0
    2.7528   -3.4626   -0.2490 C   0  0  0  0  0  0  0  0  0  0  0  0
    2.8498   -4.5374   -0.1276 H   0  0  0  0  0  0  0  0  0  0  0  0
    3.8658   -2.6331   -0.0790 C   0  0  0  0  0  0  0  0  0  0  0  0
    4.8309   -3.0642    0.1702 H   0  0  0  0  0  0  0  0  0  0  0  0
    3.7332   -1.2488   -0.2275 C   0  0  0  0  0  0  0  0  0  0  0  0
    4.5975   -0.6039   -0.0985 H   0  0  0  0  0  0  0  0  0  0  0  0
    2.4876   -0.6958   -0.5441 C   0  0  0  0  0  0  0  0  0  0  0  0
    2.3949    0.3799   -0.6613 H   0  0  0  0  0  0  0  0  0  0  0  0
   -0.9985    0.9204    0.3553 C   0  0  0  0  0  0  0  0  0  0  0  0
   -1.9124    1.4485   -0.2679 O   0  0  0  0  0  0  0  0  0  0  0  0
   -0.2258    1.6804    1.2135 N   0  0  0  0  0  0  0  0  0  0  0  0
    0.4916    1.1996    1.7502 H   0  0  0  0  0  0  0  0  0  0  0  0
   -0.4287    3.1084    1.4220 C   0  0  0  0  0  0  0  0  0  0  0  0
   -1.4401    3.3015    1.7947 H   0  0  0  0  0  0  0  0  0  0  0  0
    0.2884    3.4895    2.1553 H   0  0  0  0  0  0  0  0  0  0  0  0
   -0.2880    3.6555    0.4839 H   0  0  0  0  0  0  0  0  0  0  0  0
  1  2  1  0  0  0  0
  2  3  1  0  0  0  0
  2  4  1  0  0  0  0
  2  5  1  0  0  0  0
  5  6  2  0  0  0  0
  5  7  1  0  0  0  0
  7  8  1  0  0  0  0
  7  9  1  0  0  0  0
  9 10  1  0  0  0  0
  9 11  1  0  0  0  0
  9 25  1  0  0  0  0
 11 12  1  0  0  0  0
 11 13  1  0  0  0  0
 11 14  1  0  0  0  0
 14 15  1  0  0  0  0
 14 23  2  0  0  0  0
 15 16  1  0  0  0  0
 15 17  2  0  0  0  0
 17 18  1  0  0  0  0
 17 19  1  0  0  0  0
 19 20  1  0  0  0  0
 19 21  2  0  0  0  0
 21 22  1  0  0  0  0
 21 23  1  0  0  0  0
 23 24  1  0  0  0  0
 25 26  2  0  0  0  0
 25 27  1  0  0  0  0
 27 28  1  0  0  0  0
 27 29  1  0  0  0  0
 29 30  1  0  0  0  0
 29 31  1  0  0  0  0
 29 32  1  0  0  0  0
M  END
$$$$

  -OEChem-04042216033D

 32 32  0     1  0  0  0  0  0999 V2000
   -3.6849   -3.9583    1.6464 H   0  0  0  0  0  0  0  0  0  0  0  0
   -3.6606   -3.0756    1.0011 C   0  0  0  0  0  0  0  0  0  0  0  0
   -4.3781   -2.3432    1.3792 H   0  0  0  0  0  0  0  0  0  0  0  0
   -3.9496   -3.3705   -0.0105 H   0  0  0  0  0  0  0  0  0  0  0  0
   -2.2672   -2.4754    0.9873 C   0  0  0  0  0  0  0  0  0  0  0  0
   -1.3732   -2.9999    1.6315 O   0  0  0  0  0  0  0  0  0  0  0  0
   -2.0256   -1.3336    0.2521 N   0  0  0  0  0  0  0  0  0  0  0  0
   -2.8251   -0.8865   -0.1938 H   0  0  0  0  0  0  0  0  0  0  0  0
   -0.7569   -0.5884    0.2426 C   0  0  1  0  0  0  0  0  0  0  0  0
   -0.1666   -0.8798    1.1186 H   0  0  0  0  0  0  0  0  0  0  0  0
    0.0348   -0.9234   -1.0393 C   0  0  0  0  0  0  0  0  0  0  0  0
   -0.5345   -1.6207   -1.6624 H   0  0  0  0  0  0  0  0  0  0  0  0
    0.1892   -0.0216   -1.6415 H   0  0  0  0  0  0  0  0  0  0  0  0
    1.3746   -1.5279   -0.6989 C   0  0  0  0  0  0  0  0  0  0  0  0
    1.6012   -2.9027   -0.8550 C   0  0  0  0  0  0  0  0  0  0  0  0
    0.8009   -3.5508   -1.1995 H   0  0  0  0  0  0  0  0  0  0  0  0
    2.8501   -3.4545   -0.5501 C   0  0  0  0  0  0  0  0  0  0  0  0
    3.0122   -4.5221   -0.6652 H   0  0  0  0  0  0  0  0  0  0  0  0
    3.8859   -2.6333   -0.0940 C   0  0  0  0  0  0  0  0  0  0  0  0
    4.8546   -3.0630    0.1433 H   0  0  0  0  0  0  0  0  0  0  0  0
    3.6724   -1.2596    0.0542 C   0  0  0  0  0  0  0  0  0  0  0  0
    4.4781   -0.6204    0.4027 H   0  0  0  0  0  0  0  0  0  0  0  0
    2.4226   -0.7094   -0.2500 C   0  0  0  0  0  0  0  0  0  0  0  0
    2.2703    0.3601   -0.1422 H   0  0  0  0  0  0  0  0  0  0  0  0
   -0.9983    0.9267    0.3578 C   0  0  0  0  0  0  0  0  0  0  0  0
   -1.8998    1.4529   -0.2845 O   0  0  0  0  0  0  0  0  0  0  0  0
   -0.2344    1.6920    1.2195 N   0  0  0  0  0  0  0  0  0  0  0  0
    0.4520    1.2084    1.7925 H   0  0  0  0  0  0  0  0  0  0  0  0
   -0.4500    3.1181    1.4285 C   0  0  0  0  0  0  0  0  0  0  0  0
   -1.4558    3.3001    1.8214 H   0  0  0  0  0  0  0  0  0  0  0  0
    0.2779    3.5092    2.1457 H   0  0  0  0  0  0  0  0  0  0  0  0
   -0.3347    3.6649    0.4867 H   0  0  0  0  0  0  0  0  0  0  0  0
  1  2  1  0  0  0  0
  2  3  1  0  0  0  0
  2  4  1  0  0  0  0
  2  5  1  0  0  0  0
  5  6  2  0  0  0  0
  5  7  1  0  0  0  0
  7  8  1  0  0  0  0
  7  9  1  0  0  0  0
  9 10  1  0  0  0  0
  9 11  1  0  0  0  0
  9 25  1  0  0  0  0
 11 12  1  0  0  0  0
 11 13  1  0  0  0  0
 11 14  1  0  0  0  0
 14 15  1  0  0  0  0
 14 23  2  0  0  0  0
 15 16  1  0  0  0  0
 15 17  2  0  0  0  0
 17 18  1  0  0  0  0
 17 19  1  0  0  0  0
 19 20  1  0  0  0  0
 19 21  2  0  0  0  0
 21 22  1  0  0  0  0
 21 23  1  0  0  0  0
 23 24  1  0  0  0  0
 25 26  2  0  0  0  0
 25 27  1  0  0  0  0
 27 28  1  0  0  0  0
 27 29  1  0  0  0  0
 29 30  1  0  0  0  0
 29 31  1  0  0  0  0
 29 32  1  0  0  0  0
M  END
$$$$

  -OEChem-04042216033D

 32 32  0     1  0  0  0  0  0999 V2000
   -3.7085   -3.9503    1.6216 H   0  0  0  0  0  0  0  0  0  0  0  0
   -3.6711   -3.0669    0.9779 C   0  0  0  0  0  0  0  0  0  0  0  0
   -4.4068   -2.3412    1.3329 H   0  0  0  0  0  0  0  0  0  0  0  0
   -3.9247   -3.3638   -0.0426 H   0  0  0  0  0  0  0  0  0  0  0  0
   -2.2830   -2.4551    1.0088 C   0  0  0  0  0  0  0  0  0  0  0  0
   -1.4127   -2.9578    1.7011 O   0  0  0  0  0  0  0  0  0  0  0  0
   -2.0219   -1.3223    0.2663 N   0  0  0  0  0  0  0  0  0  0  0  0
   -2.8055   -0.8892   -0.2196 H   0  0  0  0  0  0  0  0  0  0  0  0
   -0.7511   -0.5807    0.2751 C   0  0  1  0  0  0  0  0  0  0  0  0
   -0.1748   -0.8654    1.1618 H   0  0  0  0  0  0  0  0  0  0  0  0
    0.0540   -0.9256   -0.9984 C   0  0  0  0  0  0  0  0  0  0  0  0
   -0.5213   -1.6137   -1.6262 H   0  0  0  0  0  0  0  0  0  0  0  0
    0.2205   -0.0239   -1.5976 H   0  0  0  0  0  0  0  0  0  0  0  0
    1.3949   -1.5402   -0.6686 C   0  0  0  0  0  0  0  0  0  0  0  0
    1.7155   -2.8304   -1.1170 C   0  0  0  0  0  0  0  0  0  0  0  0
    0.9854   -3.4123   -1.6711 H   0  0  0  0  0  0  0  0  0  0  0  0
    2.9692   -3.3880   -0.8440 C   0  0  0  0  0  0  0  0  0  0  0  0
    3.2013   -4.3922   -1.1862 H   0  0  0  0  0  0  0  0  0  0  0  0
    3.9213   -2.6538   -0.1309 C   0  0  0  0  0  0  0  0  0  0  0  0
    4.8937   -3.0878    0.0823 H   0  0  0  0  0  0  0  0  0  0  0  0
    3.6206   -1.3593    0.3025 C   0  0  0  0  0  0  0  0  0  0  0  0
    4.3633   -0.7843    0.8476 H   0  0  0  0  0  0  0  0  0  0  0  0
    2.3663   -0.8034    0.0285 C   0  0  0  0  0  0  0  0  0  0  0  0
    2.1532    0.2096    0.3538 H   0  0  0  0  0  0  0  0  0  0  0  0
   -1.0028    0.9350    0.3686 C   0  0  0  0  0  0  0  0  0  0  0  0
   -1.8894    1.4491   -0.3038 O   0  0  0  0  0  0  0  0  0  0  0  0
   -0.2635    1.7163    1.2376 N   0  0  0  0  0  0  0  0  0  0  0  0
    0.3920    1.2407    1.8515 H   0  0  0  0  0  0  0  0  0  0  0  0
   -0.5041    3.1409    1.4321 C   0  0  0  0  0  0  0  0  0  0  0  0
   -1.5139    3.3100    1.8203 H   0  0  0  0  0  0  0  0  0  0  0  0
    0.2152    3.5516    2.1471 H   0  0  0  0  0  0  0  0  0  0  0  0
   -0.3955    3.6808    0.4855 H   0  0  0  0  0  0  0  0  0  0  0  0
  1  2  1  0  0  0  0
  2  3  1  0  0  0  0
  2  4  1  0  0  0  0
  2  5  1  0  0  0  0
  5  6  2  0  0  0  0
  5  7  1  0  0  0  0
  7  8  1  0  0  0  0
  7  9  1  0  0  0  0
  9 10  1  0  0  0  0
  9 11  1  0  0  0  0
  9 25  1  0  0  0  0
 11 12  1  0  0  0  0
 11 13  1  0  0  0  0
 11 14  1  0  0  0  0
 14 15  1  0  0  0  0
 14 23  2  0  0  0  0
 15 16  1  0  0  0  0
 15 17  2  0  0  0  0
 17 18  1  0  0  0  0
 17 19  1  0  0  0  0
 19 20  1  0  0  0  0
 19 21  2  0  0  0  0
 21 22  1  0  0  0  0
 21 23  1  0  0  0  0
 23 24  1  0  0  0  0
 25 26  2  0  0  0  0
 25 27  1  0  0  0  0
 27 28  1  0  0  0  0
 27 29  1  0  0  0  0
 29 30  1  0  0  0  0
 29 31  1  0  0  0  0
 29 32  1  0  0  0  0
M  END
$$$$

  -OEChem-04042216033D

 32 32  0     1  0  0  0  0  0999 V2000
   -3.7368   -3.9459    1.6034 H   0  0  0  0  0  0  0  0  0  0  0  0
   -3.6870   -3.0664    0.9552 C   0  0  0  0  0  0  0  0  0  0  0  0
   -4.4412   -2.3456    1.2805 H   0  0  0  0  0  0  0  0  0  0  0  0
   -3.9038   -3.3727   -0.0710 H   0  0  0  0  0  0  0  0  0  0  0  0
   -2.3066   -2.4409    1.0277 C   0  0  0  0  0  0  0  0  0  0  0  0
   -1.4579   -2.9258    1.7585 O   0  0  0  0  0  0  0  0  0  0  0  0
   -2.0279   -1.3159    0.2793 N   0  0  0  0  0  0  0  0  0  0  0  0
   -2.7967   -0.8936   -0.2388 H   0  0  0  0  0  0  0  0  0  0  0  0
   -0.7563   -0.5758    0.3114 C   0  0  1  0  0  0  0  0  0  0  0  0
   -0.2034   -0.8543    1.2138 H   0  0  0  0  0  0  0  0  0  0  0  0
    0.0718   -0.9295   -0.9478 C   0  0  0  0  0  0  0  0  0  0  0  0
   -0.5033   -1.6136   -1.5802 H   0  0  0  0  0  0  0  0  0  0  0  0
    0.2463   -0.0280   -1.5447 H   0  0  0  0  0  0  0  0  0  0  0  0
    1.4165   -1.5517   -0.6328 C   0  0  0  0  0  0  0  0  0  0  0  0
    1.8434   -2.6835   -1.3451 C   0  0  0  0  0  0  0  0  0  0  0  0
    1.1924   -3.1407   -2.0841 H   0  0  0  0  0  0  0  0  0  0  0  0
    3.1020   -3.2464   -1.1081 C   0  0  0  0  0  0  0  0  0  0  0  0
    3.4125   -4.1307   -1.6567 H   0  0  0  0  0  0  0  0  0  0  0  0
    3.9597   -2.6709   -0.1673 C   0  0  0  0  0  0  0  0  0  0  0  0
    4.9362   -3.1088    0.0181 H   0  0  0  0  0  0  0  0  0  0  0  0
    3.5606   -1.5265    0.5278 C   0  0  0  0  0  0  0  0  0  0  0  0
    4.2316   -1.0713    1.2500 H   0  0  0  0  0  0  0  0  0  0  0  0
    2.3014   -0.9651    0.2891 C   0  0  0  0  0  0  0  0  0  0  0  0
    2.0224   -0.0634    0.8226 H   0  0  0  0  0  0  0  0  0  0  0  0
   -1.0154    0.9412    0.3835 C   0  0  0  0  0  0  0  0  0  0  0  0
   -1.8839    1.4449   -0.3200 O   0  0  0  0  0  0  0  0  0  0  0  0
   -0.3028    1.7381    1.2608 N   0  0  0  0  0  0  0  0  0  0  0  0
    0.3421    1.2768    1.8959 H   0  0  0  0  0  0  0  0  0  0  0  0
   -0.5485    3.1663    1.4214 C   0  0  0  0  0  0  0  0  0  0  0  0
   -1.5771    3.3440    1.7524 H   0  0  0  0  0  0  0  0  0  0  0  0
    0.1324    3.5855    2.1684 H   0  0  0  0  0  0  0  0  0  0  0  0
   -0.3872    3.6920    0.4743 H   0  0  0  0  0  0  0  0  0  0  0  0
  1  2  1  0  0  0  0
  2  3  1  0  0  0  0
  2  4  1  0  0  0  0
  2  5  1  0  0  0  0
  5  6  2  0  0  0  0
  5  7  1  0  0  0  0
  7  8  1  0  0  0  0
  7  9  1  0  0  0  0
  9 10  1  0  0  0  0
  9 11  1  0  0  0  0
  9 25  1  0  0  0  0
 11 12  1  0  0  0  0
 11 13  1  0  0  0  0
 11 14  1  0  0  0  0
 14 15  1  0  0  0  0
 14 23  2  0  0  0  0
 15 16  1  0  0  0  0
 15 17  2  0  0  0  0
 17 18  1  0  0  0  0
 17 19  1  0  0  0  0
 19 20  1  0  0  0  0
 19 21  2  0  0  0  0
 21 22  1  0  0  0  0
 21 23  1  0  0  0  0
 23 24  1  0  0  0  0
 25 26  2  0  0  0  0
 25 27  1  0  0  0  0
 27 28  1  0  0  0  0
 27 29  1  0  0  0  0
 29 30  1  0  0  0  0
 29 31  1  0  0  0  0
 29 32  1  0  0  0  0
M  END
$$$$

  -OEChem-04042216033D

 32 32  0     1  0  0  0  0  0999 V2000
   -3.7842   -3.9398    1.5802 H   0  0  0  0  0  0  0  0  0  0  0  0
   -3.7191   -3.0610    0.9326 C   0  0  0  0  0  0  0  0  0  0  0  0
   -4.4826   -2.3412    1.2374 H   0  0  0  0  0  0  0  0  0  0  0  0
   -3.9089   -3.3692   -0.0984 H   0  0  0  0  0  0  0  0  0  0  0  0
   -2.3420   -2.4329    1.0394 C   0  0  0  0  0  0  0  0  0  0  0  0
   -1.5153   -2.9067    1.8021 O   0  0  0  0  0  0  0  0  0  0  0  0
   -2.0420   -1.3160    0.2867 N   0  0  0  0  0  0  0  0  0  0  0  0
   -2.7960   -0.8995   -0.2572 H   0  0  0  0  0  0  0  0  0  0  0  0
   -0.7716   -0.5753    0.3439 C   0  0  1  0  0  0  0  0  0  0  0  0
   -0.2536   -0.8452    1.2672 H   0  0  0  0  0  0  0  0  0  0  0  0
    0.0905   -0.9384   -0.8926 C   0  0  0  0  0  0  0  0  0  0  0  0
   -0.4760   -1.6277   -1.5274 H   0  0  0  0  0  0  0  0  0  0  0  0
    0.2666   -0.0398   -1.4935 H   0  0  0  0  0  0  0  0  0  0  0  0
    1.4418   -1.5617   -0.5903 C   0  0  0  0  0  0  0  0  0  0  0  0
    1.9846   -2.4680   -1.5160 C   0  0  0  0  0  0  0  0  0  0  0  0
    1.4173   -2.7473   -2.3988 H   0  0  0  0  0  0  0  0  0  0  0  0
    3.2492   -3.0319   -1.3175 C   0  0  0  0  0  0  0  0  0  0  0  0
    3.6452   -3.7426   -2.0368 H   0  0  0  0  0  0  0  0  0  0  0  0
    4.0031   -2.6791   -0.1964 C   0  0  0  0  0  0  0  0  0  0  0  0
    4.9841   -3.1178   -0.0395 H   0  0  0  0  0  0  0  0  0  0  0  0
    3.4950   -1.7521    0.7164 C   0  0  0  0  0  0  0  0  0  0  0  0
    4.0863   -1.4653    1.5809 H   0  0  0  0  0  0  0  0  0  0  0  0
    2.2301   -1.1884    0.5151 C   0  0  0  0  0  0  0  0  0  0  0  0
    1.8820   -0.4519    1.2293 H   0  0  0  0  0  0  0  0  0  0  0  0
   -1.0324    0.9420    0.3924 C   0  0  0  0  0  0  0  0  0  0  0  0
   -1.8872    1.4352   -0.3348 O   0  0  0  0  0  0  0  0  0  0  0  0
   -0.3435    1.7499    1.2783 N   0  0  0  0  0  0  0  0  0  0  0  0
    0.3122    1.3034    1.9126 H   0  0  0  0  0  0  0  0  0  0  0  0
   -0.5787    3.1834    1.4008 C   0  0  0  0  0  0  0  0  0  0  0  0
   -1.6185    3.3787    1.6838 H   0  0  0  0  0  0  0  0  0  0  0  0
    0.0743    3.6101    2.1681 H   0  0  0  0  0  0  0  0  0  0  0  0
   -0.3709    3.6875    0.4511 H   0  0  0  0  0  0  0  0  0  0  0  0
  1  2  1  0  0  0  0
  2  3  1  0  0  0  0
  2  4  1  0  0  0  0
  2  5  1  0  0  0  0
  5  6  2  0  0  0  0
  5  7  1  0  0  0  0
  7  8  1  0  0  0  0
  7  9  1  0  0  0  0
  9 10  1  0  0  0  0
  9 11  1  0  0  0  0
  9 25  1  0  0  0  0
 11 12  1  0  0  0  0
 11 13  1  0  0  0  0
 11 14  1  0  0  0  0
 14 15  1  0  0  0  0
 14 23  2  0  0  0  0
 15 16  1  0  0  0  0
 15 17  2  0  0  0  0
 17 18  1  0  0  0  0
 17 19  1  0  0  0  0
 19 20  1  0  0  0  0
 19 21  2  0  0  0  0
 21 22  1  0  0  0  0
 21 23  1  0  0  0  0
 23 24  1  0  0  0  0
 25 26  2  0  0  0  0
 25 27  1  0  0  0  0
 27 28  1  0  0  0  0
 27 29  1  0  0  0  0
 29 30  1  0  0  0  0
 29 31  1  0  0  0  0
 29 32  1  0  0  0  0
M  END
$$$$

  -OEChem-04042216033D

 32 32  0     1  0  0  0  0  0999 V2000
   -3.8221   -3.9303    1.5655 H   0  0  0  0  0  0  0  0  0  0  0  0
   -3.7468   -3.0520    0.9183 C   0  0  0  0  0  0  0  0  0  0  0  0
   -4.5162   -2.3327    1.2093 H   0  0  0  0  0  0  0  0  0  0  0  0
   -3.9181   -3.3612   -0.1156 H   0  0  0  0  0  0  0  0  0  0  0  0
   -2.3729   -2.4218    1.0490 C   0  0  0  0  0  0  0  0  0  0  0  0
   -1.5651   -2.8822    1.8402 O   0  0  0  0  0  0  0  0  0  0  0  0
   -2.0550   -1.3154    0.2883 N   0  0  0  0  0  0  0  0  0  0  0  0
   -2.7952   -0.9071   -0.2802 H   0  0  0  0  0  0  0  0  0  0  0  0
   -0.7882   -0.5713    0.3719 C   0  0  1  0  0  0  0  0  0  0  0  0
   -0.3089   -0.8208    1.3177 H   0  0  0  0  0  0  0  0  0  0  0  0
    0.1128   -0.9433   -0.8353 C   0  0  0  0  0  0  0  0  0  0  0  0
   -0.4388   -1.6415   -1.4739 H   0  0  0  0  0  0  0  0  0  0  0  0
    0.2885   -0.0473   -1.4401 H   0  0  0  0  0  0  0  0  0  0  0  0
    1.4717   -1.5635   -0.5456 C   0  0  0  0  0  0  0  0  0  0  0  0
    2.1312   -2.1876   -1.6179 C   0  0  0  0  0  0  0  0  0  0  0  0
    1.6516   -2.2391   -2.5908 H   0  0  0  0  0  0  0  0  0  0  0  0
    3.4006   -2.7527   -1.4611 C   0  0  0  0  0  0  0  0  0  0  0  0
    3.8871   -3.2371   -2.3027 H   0  0  0  0  0  0  0  0  0  0  0  0
    4.0418   -2.6930   -0.2229 C   0  0  0  0  0  0  0  0  0  0  0  0
    5.0266   -3.1331   -0.0970 H   0  0  0  0  0  0  0  0  0  0  0  0
    3.4131   -2.0614    0.8517 C   0  0  0  0  0  0  0  0  0  0  0  0
    3.9118   -2.0100    1.8150 H   0  0  0  0  0  0  0  0  0  0  0  0
    2.1438   -1.4935    0.6924 C   0  0  0  0  0  0  0  0  0  0  0  0
    1.7151   -1.0023    1.5567 H   0  0  0  0  0  0  0  0  0  0  0  0
   -1.0509    0.9467    0.3908 C   0  0  0  0  0  0  0  0  0  0  0  0
   -1.8909    1.4281   -0.3614 O   0  0  0  0  0  0  0  0  0  0  0  0
   -0.3878    1.7670    1.2848 N   0  0  0  0  0  0  0  0  0  0  0  0
    0.2837    1.3356    1.9133 H   0  0  0  0  0  0  0  0  0  0  0  0
   -0.6072    3.2059    1.3658 C   0  0  0  0  0  0  0  0  0  0  0  0
   -1.6542    3.4218    1.6033 H   0  0  0  0  0  0  0  0  0  0  0  0
    0.0215    3.6404    2.1490 H   0  0  0  0  0  0  0  0  0  0  0  0
   -0.3552    3.6860    0.4142 H   0  0  0  0  0  0  0  0  0  0  0  0
  1  2  1  0  0  0  0
  2  3  1  0  0  0  0
  2  4  1  0  0  0  0
  2  5  1  0  0  0  0
  5  6  2  0  0  0  0
  5  7  1  0  0  0  0
  7  8  1  0  0  0  0
  7  9  1  0  0  0  0
  9 10  1  0  0  0  0
  9 11  1  0  0  0  0
  9 25  1  0  0  0  0
 11 12  1  0  0  0  0
 11 13  1  0  0  0  0
 11 14  1  0  0  0  0
 14 15  1  0  0  0  0
 14 23  2  0  0  0  0
 15 16  1  0  0  0  0
 15 17  2  0  0  0  0
 17 18  1  0  0  0  0
 17 19  1  0  0  0  0
 19 20  1  0  0  0  0
 19 21  2  0  0  0  0
 21 22  1  0  0  0  0
 21 23  1  0  0  0  0
 23 24  1  0  0  0  0
 25 26  2  0  0  0  0
 25 27  1  0  0  0  0
 27 28  1  0  0  0  0
 27 29  1  0  0  0  0
 29 30  1  0  0  0  0
 29 31  1  0  0  0  0
 29 32  1  0  0  0  0
M  END
$$$$

  -OEChem-04042216033D

 32 32  0     1  0  0  0  0  0999 V2000
   -3.8149   -3.8872    1.6300 H   0  0  0  0  0  0  0  0  0  0  0  0
   -3.7306   -3.0201    0.9691 C   0  0  0  0  0  0  0  0  0  0  0  0
   -4.5114   -2.3013    1.2288 H   0  0  0  0  0  0  0  0  0  0  0  0
   -3.8758   -3.3496   -0.0625 H   0  0  0  0  0  0  0  0  0  0  0  0
   -2.3644   -2.3780    1.1202 C   0  0  0  0  0  0  0  0  0  0  0  0
   -1.5831   -2.7990    1.9592 O   0  0  0  0  0  0  0  0  0  0  0  0
   -2.0252   -1.2987    0.3311 N   0  0  0  0  0  0  0  0  0  0  0  0
   -2.7452   -0.9131   -0.2780 H   0  0  0  0  0  0  0  0  0  0  0  0
   -0.7529   -0.5656    0.4152 C   0  0  1  0  0  0  0  0  0  0  0  0
   -0.2544   -0.7547    1.3660 H   0  0  0  0  0  0  0  0  0  0  0  0
    0.1468   -0.9360   -0.7918 C   0  0  0  0  0  0  0  0  0  0  0  0
   -0.4804   -1.3712   -1.5769 H   0  0  0  0  0  0  0  0  0  0  0  0
    0.5686   -0.0146   -1.2084 H   0  0  0  0  0  0  0  0  0  0  0  0
    1.3213   -1.8712   -0.5457 C   0  0  0  0  0  0  0  0  0  0  0  0
    2.1232   -2.1888   -1.6547 C   0  0  0  0  0  0  0  0  0  0  0  0
    1.9061   -1.7446   -2.6217 H   0  0  0  0  0  0  0  0  0  0  0  0
    3.2106   -3.0608   -1.5397 C   0  0  0  0  0  0  0  0  0  0  0  0
    3.8238   -3.2821   -2.4082 H   0  0  0  0  0  0  0  0  0  0  0  0
    3.5043   -3.6501   -0.3090 C   0  0  0  0  0  0  0  0  0  0  0  0
    4.3462   -4.3298   -0.2159 H   0  0  0  0  0  0  0  0  0  0  0  0
    2.7010   -3.3736    0.7988 C   0  0  0  0  0  0  0  0  0  0  0  0
    2.9116   -3.8470    1.7533 H   0  0  0  0  0  0  0  0  0  0  0  0
    1.6143   -2.5001    0.6823 C   0  0  0  0  0  0  0  0  0  0  0  0
    1.0067   -2.3568    1.5679 H   0  0  0  0  0  0  0  0  0  0  0  0
   -1.0388    0.9489    0.3823 C   0  0  0  0  0  0  0  0  0  0  0  0
   -1.8582    1.4000   -0.4108 O   0  0  0  0  0  0  0  0  0  0  0  0
   -0.4023    1.8035    1.2633 N   0  0  0  0  0  0  0  0  0  0  0  0
    0.2611    1.3982    1.9181 H   0  0  0  0  0  0  0  0  0  0  0  0
   -0.6316    3.2428    1.2896 C   0  0  0  0  0  0  0  0  0  0  0  0
   -1.6839    3.4595    1.5013 H   0  0  0  0  0  0  0  0  0  0  0  0
   -0.0195    3.7094    2.0673 H   0  0  0  0  0  0  0  0  0  0  0  0
   -0.3660    3.6901    0.3259 H   0  0  0  0  0  0  0  0  0  0  0  0
  1  2  1  0  0  0  0
  2  3  1  0  0  0  0
  2  4  1  0  0  0  0
  2  5  1  0  0  0  0
  5  6  2  0  0  0  0
  5  7  1  0  0  0  0
  7  8  1  0  0  0  0
  7  9  1  0  0  0  0
  9 10  1  0  0  0  0
  9 11  1  0  0  0  0
  9 25  1  0  0  0  0
 11 12  1  0  0  0  0
 11 13  1  0  0  0  0
 11 14  1  0  0  0  0
 14 15  1  0  0  0  0
 14 23  2  0  0  0  0
 15 16  1  0  0  0  0
 15 17  2  0  0  0  0
 17 18  1  0  0  0  0
 17 19  1  0  0  0  0
 19 20  1  0  0  0  0
 19 21  2  0  0  0  0
 21 22  1  0  0  0  0
 21 23  1  0  0  0  0
 23 24  1  0  0  0  0
 25 26  2  0  0  0  0
 25 27  1  0  0  0  0
 27 28  1  0  0  0  0
 27 29  1  0  0  0  0
 29 30  1  0  0  0  0
 29 31  1  0  0  0  0
 29 32  1  0  0  0  0
M  END
$$$$

  -OEChem-04042216033D

 32 32  0     1  0  0  0  0  0999 V2000
   -3.8656   -3.8926    1.5961 H   0  0  0  0  0  0  0  0  0  0  0  0
   -3.7601   -3.0215    0.9433 C   0  0  0  0  0  0  0  0  0  0  0  0
   -4.5501   -2.3047    1.1800 H   0  0  0  0  0  0  0  0  0  0  0  0
   -3.8699   -3.3451   -0.0946 H   0  0  0  0  0  0  0  0  0  0  0  0
   -2.4011   -2.3781    1.1449 C   0  0  0  0  0  0  0  0  0  0  0  0
   -1.6647   -2.7823    2.0299 O   0  0  0  0  0  0  0  0  0  0  0  0
   -2.0358   -1.3029    0.3625 N   0  0  0  0  0  0  0  0  0  0  0  0
   -2.7356   -0.9373   -0.2812 H   0  0  0  0  0  0  0  0  0  0  0  0
   -0.7549   -0.5795    0.4297 C   0  0  1  0  0  0  0  0  0  0  0  0
   -0.2344   -0.7872    1.3679 H   0  0  0  0  0  0  0  0  0  0  0  0
    0.1276   -0.9468   -0.7923 C   0  0  0  0  0  0  0  0  0  0  0  0
   -0.5074   -1.3796   -1.5723 H   0  0  0  0  0  0  0  0  0  0  0  0
    0.5448   -0.0237   -1.2099 H   0  0  0  0  0  0  0  0  0  0  0  0
    1.2978   -1.8871   -0.5552 C   0  0  0  0  0  0  0  0  0  0  0  0
    2.2782   -1.9677   -1.5585 C   0  0  0  0  0  0  0  0  0  0  0  0
    2.1892   -1.3561   -2.4516 H   0  0  0  0  0  0  0  0  0  0  0  0
    3.3795   -2.8203   -1.4287 C   0  0  0  0  0  0  0  0  0  0  0  0
    4.1311   -2.8612   -2.2114 H   0  0  0  0  0  0  0  0  0  0  0  0
    3.5105   -3.6222   -0.2933 C   0  0  0  0  0  0  0  0  0  0  0  0
    4.3631   -4.2869   -0.1892 H   0  0  0  0  0  0  0  0  0  0  0  0
    2.5350   -3.5730    0.7046 C   0  0  0  0  0  0  0  0  0  0  0  0
    2.6237   -4.2043    1.5841 H   0  0  0  0  0  0  0  0  0  0  0  0
    1.4360   -2.7175    0.5731 C   0  0  0  0  0  0  0  0  0  0  0  0
    0.6986   -2.7299    1.3657 H   0  0  0  0  0  0  0  0  0  0  0  0
   -1.0287    0.9370    0.3972 C   0  0  0  0  0  0  0  0  0  0  0  0
   -1.8474    1.3952   -0.3924 O   0  0  0  0  0  0  0  0  0  0  0  0
   -0.3735    1.7860    1.2696 N   0  0  0  0  0  0  0  0  0  0  0  0
    0.2859    1.3724    1.9232 H   0  0  0  0  0  0  0  0  0  0  0  0
   -0.5891    3.2273    1.2998 C   0  0  0  0  0  0  0  0  0  0  0  0
   -1.6373    3.4534    1.5221 H   0  0  0  0  0  0  0  0  0  0  0  0
    0.0351    3.6863    2.0726 H   0  0  0  0  0  0  0  0  0  0  0  0
   -0.3289    3.6743    0.3345 H   0  0  0  0  0  0  0  0  0  0  0  0
  1  2  1  0  0  0  0
  2  3  1  0  0  0  0
  2  4  1  0  0  0  0
  2  5  1  0  0  0  0
  5  6  2  0  0  0  0
  5  7  1  0  0  0  0
  7  8  1  0  0  0  0
  7  9  1  0  0  0  0
  9 10  1  0  0  0  0
  9 11  1  0  0  0  0
  9 25  1  0  0  0  0
 11 12  1  0  0  0  0
 11 13  1  0  0  0  0
 11 14  1  0  0  0  0
 14 15  1  0  0  0  0
 14 23  2  0  0  0  0
 15 16  1  0  0  0  0
 15 17  2  0  0  0  0
 17 18  1  0  0  0  0
 17 19  1  0  0  0  0
 19 20  1  0  0  0  0
 19 21  2  0  0  0  0
 21 22  1  0  0  0  0
 21 23  1  0  0  0  0
 23 24  1  0  0  0  0
 25 26  2  0  0  0  0
 25 27  1  0  0  0  0
 27 28  1  0  0  0  0
 27 29  1  0  0  0  0
 29 30  1  0  0  0  0
 29 31  1  0  0  0  0
 29 32  1  0  0  0  0
M  END
$$$$

  -OEChem-04042216033D

 32 32  0     1  0  0  0  0  0999 V2000
   -3.8725   -3.9069    1.5915 H   0  0  0  0  0  0  0  0  0  0  0  0
   -3.7595   -3.0391    0.9356 C   0  0  0  0  0  0  0  0  0  0  0  0
   -4.5654   -2.3313    1.1443 H   0  0  0  0  0  0  0  0  0  0  0  0
   -3.8351   -3.3713   -0.1026 H   0  0  0  0  0  0  0  0  0  0  0  0
   -2.4155   -2.3761    1.1711 C   0  0  0  0  0  0  0  0  0  0  0  0
   -1.7116   -2.7485    2.0955 O   0  0  0  0  0  0  0  0  0  0  0  0
   -2.0420   -1.3034    0.3893 N   0  0  0  0  0  0  0  0  0  0  0  0
   -2.7289   -0.9597   -0.2797 H   0  0  0  0  0  0  0  0  0  0  0  0
   -0.7543   -0.5881    0.4363 C   0  0  1  0  0  0  0  0  0  0  0  0
   -0.2119   -0.8176    1.3588 H   0  0  0  0  0  0  0  0  0  0  0  0
    0.1116   -0.9412   -0.8036 C   0  0  0  0  0  0  0  0  0  0  0  0
   -0.5307   -1.3723   -1.5782 H   0  0  0  0  0  0  0  0  0  0  0  0
    0.5198   -0.0145   -1.2222 H   0  0  0  0  0  0  0  0  0  0  0  0
    1.2789   -1.8846   -0.5736 C   0  0  0  0  0  0  0  0  0  0  0  0
    2.4144   -1.7530   -1.3919 C   0  0  0  0  0  0  0  0  0  0  0  0
    2.4487   -0.9799   -2.1540 H   0  0  0  0  0  0  0  0  0  0  0  0
    3.5154   -2.6034   -1.2421 C   0  0  0  0  0  0  0  0  0  0  0  0
    4.3869   -2.4818   -1.8786 H   0  0  0  0  0  0  0  0  0  0  0  0
    3.4926   -3.6111   -0.2756 C   0  0  0  0  0  0  0  0  0  0  0  0
    4.3450   -4.2732   -0.1558 H   0  0  0  0  0  0  0  0  0  0  0  0
    2.3645   -3.7691    0.5320 C   0  0  0  0  0  0  0  0  0  0  0  0
    2.3348   -4.5565    1.2794 H   0  0  0  0  0  0  0  0  0  0  0  0
    1.2659   -2.9171    0.3787 C   0  0  0  0  0  0  0  0  0  0  0  0
    0.4062   -3.0811    1.0133 H   0  0  0  0  0  0  0  0  0  0  0  0
   -1.0205    0.9298    0.4093 C   0  0  0  0  0  0  0  0  0  0  0  0
   -1.8401    1.3954   -0.3752 O   0  0  0  0  0  0  0  0  0  0  0  0
   -0.3462    1.7732    1.2722 N   0  0  0  0  0  0  0  0  0  0  0  0
    0.3062    1.3519    1.9280 H   0  0  0  0  0  0  0  0  0  0  0  0
   -0.5546    3.2153    1.3096 C   0  0  0  0  0  0  0  0  0  0  0  0
   -1.5979    3.4457    1.5494 H   0  0  0  0  0  0  0  0  0  0  0  0
    0.0844    3.6698    2.0728 H   0  0  0  0  0  0  0  0  0  0  0  0
   -0.3082    3.6632    0.3411 H   0  0  0  0  0  0  0  0  0  0  0  0
  1  2  1  0  0  0  0
  2  3  1  0  0  0  0
  2  4  1  0  0  0  0
  2  5  1  0  0  0  0
  5  6  2  0  0  0  0
  5  7  1  0  0  0  0
  7  8  1  0  0  0  0
  7  9  1  0  0  0  0
  9 10  1  0  0  0  0
  9 11  1  0  0  0  0
  9 25  1  0  0  0  0
 11 12  1  0  0  0  0
 11 13  1  0  0  0  0
 11 14  1  0  0  0  0
 14 15  1  0  0  0  0
 14 23  2  0  0  0  0
 15 16  1  0  0  0  0
 15 17  2  0  0  0  0
 17 18  1  0  0  0  0
 17 19  1  0  0  0  0
 19 20  1  0  0  0  0
 19 21  2  0  0  0  0
 21 22  1  0  0  0  0
 21 23  1  0  0  0  0
 23 24  1  0  0  0  0
 25 26  2  0  0  0  0
 25 27  1  0  0  0  0
 27 28  1  0  0  0  0
 27 29  1  0  0  0  0
 29 30  1  0  0  0  0
 29 31  1  0  0  0  0
 29 32  1  0  0  0  0
M  END
$$$$

  -OEChem-04042216033D

 32 32  0     1  0  0  0  0  0999 V2000
   -3.8399   -3.9158    1.6299 H   0  0  0  0  0  0  0  0  0  0  0  0
   -3.7425   -3.0501    0.9685 C   0  0  0  0  0  0  0  0  0  0  0  0
   -4.5394   -2.3388    1.1991 H   0  0  0  0  0  0  0  0  0  0  0  0
   -3.8498   -3.3850   -0.0661 H   0  0  0  0  0  0  0  0  0  0  0  0
   -2.3892   -2.3920    1.1625 C   0  0  0  0  0  0  0  0  0  0  0  0
   -1.6467   -2.7853    2.0475 O   0  0  0  0  0  0  0  0  0  0  0  0
   -2.0400   -1.3105    0.3811 N   0  0  0  0  0  0  0  0  0  0  0  0
   -2.7505   -0.9483   -0.2527 H   0  0  0  0  0  0  0  0  0  0  0  0
   -0.7530   -0.5931    0.4092 C   0  0  1  0  0  0  0  0  0  0  0  0
   -0.1945   -0.8355    1.3194 H   0  0  0  0  0  0  0  0  0  0  0  0
    0.1025   -0.9287   -0.8410 C   0  0  0  0  0  0  0  0  0  0  0  0
   -0.5395   -1.3708   -1.6097 H   0  0  0  0  0  0  0  0  0  0  0  0
    0.4985   -0.0003   -1.2667 H   0  0  0  0  0  0  0  0  0  0  0  0
    1.2666   -1.8668   -0.5893 C   0  0  0  0  0  0  0  0  0  0  0  0
    2.5229   -1.5671   -1.1442 C   0  0  0  0  0  0  0  0  0  0  0  0
    2.6632   -0.6568   -1.7197 H   0  0  0  0  0  0  0  0  0  0  0  0
    3.6129   -2.4259   -0.9630 C   0  0  0  0  0  0  0  0  0  0  0  0
    4.5799   -2.1748   -1.3890 H   0  0  0  0  0  0  0  0  0  0  0  0
    3.4565   -3.6094   -0.2378 C   0  0  0  0  0  0  0  0  0  0  0  0
    4.2998   -4.2788   -0.0954 H   0  0  0  0  0  0  0  0  0  0  0  0
    2.2069   -3.9349    0.2946 C   0  0  0  0  0  0  0  0  0  0  0  0
    2.0734   -4.8598    0.8482 H   0  0  0  0  0  0  0  0  0  0  0  0
    1.1202   -3.0740    0.1108 C   0  0  0  0  0  0  0  0  0  0  0  0
    0.1591   -3.3659    0.5124 H   0  0  0  0  0  0  0  0  0  0  0  0
   -1.0200    0.9250    0.4034 C   0  0  0  0  0  0  0  0  0  0  0  0
   -1.8572    1.3982   -0.3576 O   0  0  0  0  0  0  0  0  0  0  0  0
   -0.3284    1.7596    1.2613 N   0  0  0  0  0  0  0  0  0  0  0  0
    0.3336    1.3306    1.9025 H   0  0  0  0  0  0  0  0  0  0  0  0
   -0.5373    3.2009    1.3205 C   0  0  0  0  0  0  0  0  0  0  0  0
   -1.5764    3.4275    1.5815 H   0  0  0  0  0  0  0  0  0  0  0  0
    0.1145    3.6461    2.0781 H   0  0  0  0  0  0  0  0  0  0  0  0
   -0.3081    3.6610    0.3536 H   0  0  0  0  0  0  0  0  0  0  0  0
  1  2  1  0  0  0  0
  2  3  1  0  0  0  0
  2  4  1  0  0  0  0
  2  5  1  0  0  0  0
  5  6  2  0  0  0  0
  5  7  1  0  0  0  0
  7  8  1  0  0  0  0
  7  9  1  0  0  0  0
  9 10  1  0  0  0  0
  9 11  1  0  0  0  0
  9 25  1  0  0  0  0
 11 12  1  0  0  0  0
 11 13  1  0  0  0  0
 11 14  1  0  0  0  0
 14 15  1  0  0  0  0
 14 23  2  0  0  0  0
 15 16  1  0  0  0  0
 15 17  2  0  0  0  0
 17 18  1  0  0  0  0
 17 19  1  0  0  0  0
 19 20  1  0  0  0  0
 19 21  2  0  0  0  0
 21 22  1  0  0  0  0
 21 23  1  0  0  0  0
 23 24  1  0  0  0  0
 25 26  2  0  0  0  0
 25 27  1  0  0  0  0
 27 28  1  0  0  0  0
 27 29  1  0  0  0  0
 29 30  1  0  0  0  0
 29 31  1  0  0  0  0
 29 32  1  0  0  0  0
M  END
$$$$

  -OEChem-04042216033D

 32 32  0     1  0  0  0  0  0999 V2000
   -3.7952   -3.9327    1.6435 H   0  0  0  0  0  0  0  0  0  0  0  0
   -3.7191   -3.0606    0.9880 C   0  0  0  0  0  0  0  0  0  0  0  0
   -4.4888   -2.3386    1.2712 H   0  0  0  0  0  0  0  0  0  0  0  0
   -3.8894   -3.3795   -0.0431 H   0  0  0  0  0  0  0  0  0  0  0  0
   -2.3457   -2.4288    1.1140 C   0  0  0  0  0  0  0  0  0  0  0  0
   -1.5424   -2.8788    1.9149 O   0  0  0  0  0  0  0  0  0  0  0  0
   -2.0326   -1.3262    0.3470 N   0  0  0  0  0  0  0  0  0  0  0  0
   -2.7778   -0.9289   -0.2228 H   0  0  0  0  0  0  0  0  0  0  0  0
   -0.7521   -0.5988    0.3634 C   0  0  1  0  0  0  0  0  0  0  0  0
   -0.1781   -0.8567    1.2601 H   0  0  0  0  0  0  0  0  0  0  0  0
    0.0816   -0.9231   -0.8998 C   0  0  0  0  0  0  0  0  0  0  0  0
   -0.5635   -1.3723   -1.6616 H   0  0  0  0  0  0  0  0  0  0  0  0
    0.4724    0.0042   -1.3327 H   0  0  0  0  0  0  0  0  0  0  0  0
    1.2396   -1.8564   -0.6235 C   0  0  0  0  0  0  0  0  0  0  0  0
    2.5551   -1.4382   -0.8838 C   0  0  0  0  0  0  0  0  0  0  0  0
    2.7473   -0.4386   -1.2619 H   0  0  0  0  0  0  0  0  0  0  0  0
    3.6362   -2.2971   -0.6562 C   0  0  0  0  0  0  0  0  0  0  0  0
    4.6495   -1.9600   -0.8538 H   0  0  0  0  0  0  0  0  0  0  0  0
    3.4125   -3.5902   -0.1759 C   0  0  0  0  0  0  0  0  0  0  0  0
    4.2495   -4.2583    0.0038 H   0  0  0  0  0  0  0  0  0  0  0  0
    2.1070   -4.0244    0.0675 C   0  0  0  0  0  0  0  0  0  0  0  0
    1.9250   -5.0299    0.4354 H   0  0  0  0  0  0  0  0  0  0  0  0
    1.0287   -3.1646   -0.1636 C   0  0  0  0  0  0  0  0  0  0  0  0
    0.0227   -3.5260    0.0168 H   0  0  0  0  0  0  0  0  0  0  0  0
   -1.0192    0.9178    0.3986 C   0  0  0  0  0  0  0  0  0  0  0  0
   -1.8768    1.4052   -0.3298 O   0  0  0  0  0  0  0  0  0  0  0  0
   -0.3097    1.7346    1.2592 N   0  0  0  0  0  0  0  0  0  0  0  0
    0.3693    1.2939    1.8742 H   0  0  0  0  0  0  0  0  0  0  0  0
   -0.5108    3.1756    1.3443 C   0  0  0  0  0  0  0  0  0  0  0  0
   -1.5468    3.4034    1.6160 H   0  0  0  0  0  0  0  0  0  0  0  0
    0.1482    3.6055    2.1047 H   0  0  0  0  0  0  0  0  0  0  0  0
   -0.2856    3.6496    0.3832 H   0  0  0  0  0  0  0  0  0  0  0  0
  1  2  1  0  0  0  0
  2  3  1  0  0  0  0
  2  4  1  0  0  0  0
  2  5  1  0  0  0  0
  5  6  2  0  0  0  0
  5  7  1  0  0  0  0
  7  8  1  0  0  0  0
  7  9  1  0  0  0  0
  9 10  1  0  0  0  0
  9 11  1  0  0  0  0
  9 25  1  0  0  0  0
 11 12  1  0  0  0  0
 11 13  1  0  0  0  0
 11 14  1  0  0  0  0
 14 15  1  0  0  0  0
 14 23  2  0  0  0  0
 15 16  1  0  0  0  0
 15 17  2  0  0  0  0
 17 18  1  0  0  0  0
 17 19  1  0  0  0  0
 19 20  1  0  0  0  0
 19 21  2  0  0  0  0
 21 22  1  0  0  0  0
 21 23  1  0  0  0  0
 23 24  1  0  0  0  0
 25 26  2  0  0  0  0
 25 27  1  0  0  0  0
 27 28  1  0  0  0  0
 27 29  1  0  0  0  0
 29 30  1  0  0  0  0
 29 31  1  0  0  0  0
 29 32  1  0  0  0  0
M  END
$$$$

  -OEChem-04042216033D

 32 32  0     1  0  0  0  0  0999 V2000
   -3.7491   -3.9387    1.6471 H   0  0  0  0  0  0  0  0  0  0  0  0
   -3.6920   -3.0645    0.9925 C   0  0  0  0  0  0  0  0  0  0  0  0
   -4.4368   -2.3333    1.3157 H   0  0  0  0  0  0  0  0  0  0  0  0
   -3.9163   -3.3753   -0.0307 H   0  0  0  0  0  0  0  0  0  0  0  0
   -2.3049   -2.4532    1.0556 C   0  0  0  0  0  0  0  0  0  0  0  0
   -1.4583   -2.9447    1.7840 O   0  0  0  0  0  0  0  0  0  0  0  0
   -2.0204   -1.3334    0.3025 N   0  0  0  0  0  0  0  0  0  0  0  0
   -2.7908   -0.9075   -0.2104 H   0  0  0  0  0  0  0  0  0  0  0  0
   -0.7455   -0.5977    0.3149 C   0  0  1  0  0  0  0  0  0  0  0  0
   -0.1624   -0.8662    1.2027 H   0  0  0  0  0  0  0  0  0  0  0  0
    0.0691   -0.9219   -0.9567 C   0  0  0  0  0  0  0  0  0  0  0  0
   -0.5803   -1.3724   -1.7144 H   0  0  0  0  0  0  0  0  0  0  0  0
    0.4636    0.0011   -1.3948 H   0  0  0  0  0  0  0  0  0  0  0  0
    1.2204   -1.8533   -0.6608 C   0  0  0  0  0  0  0  0  0  0  0  0
    2.5352   -1.3633   -0.6158 C   0  0  0  0  0  0  0  0  0  0  0  0
    2.7326   -0.3099   -0.7900 H   0  0  0  0  0  0  0  0  0  0  0  0
    3.6060   -2.2235   -0.3484 C   0  0  0  0  0  0  0  0  0  0  0  0
    4.6201   -1.8364   -0.3166 H   0  0  0  0  0  0  0  0  0  0  0  0
    3.3711   -3.5827   -0.1215 C   0  0  0  0  0  0  0  0  0  0  0  0
    4.2001   -4.2519    0.0889 H   0  0  0  0  0  0  0  0  0  0  0  0
    2.0652   -4.0799   -0.1634 C   0  0  0  0  0  0  0  0  0  0  0  0
    1.8769   -5.1341    0.0179 H   0  0  0  0  0  0  0  0  0  0  0  0
    0.9966   -3.2187   -0.4340 C   0  0  0  0  0  0  0  0  0  0  0  0
   -0.0135   -3.6158   -0.4572 H   0  0  0  0  0  0  0  0  0  0  0  0
   -1.0120    0.9171    0.3832 C   0  0  0  0  0  0  0  0  0  0  0  0
   -1.8877    1.4163   -0.3147 O   0  0  0  0  0  0  0  0  0  0  0  0
   -0.2896    1.7164    1.2494 N   0  0  0  0  0  0  0  0  0  0  0  0
    0.3970    1.2625    1.8459 H   0  0  0  0  0  0  0  0  0  0  0  0
   -0.5024    3.1522    1.3819 C   0  0  0  0  0  0  0  0  0  0  0  0
   -1.5328    3.3616    1.6882 H   0  0  0  0  0  0  0  0  0  0  0  0
    0.1732    3.5661    2.1366 H   0  0  0  0  0  0  0  0  0  0  0  0
   -0.3080    3.6567    0.4296 H   0  0  0  0  0  0  0  0  0  0  0  0
  1  2  1  0  0  0  0
  2  3  1  0  0  0  0
  2  4  1  0  0  0  0
  2  5  1  0  0  0  0
  5  6  2  0  0  0  0
  5  7  1  0  0  0  0
  7  8  1  0  0  0  0
  7  9  1  0  0  0  0
  9 10  1  0  0  0  0
  9 11  1  0  0  0  0
  9 25  1  0  0  0  0
 11 12  1  0  0  0  0
 11 13  1  0  0  0  0
 11 14  1  0  0  0  0
 14 15  1  0  0  0  0
 14 23  2  0  0  0  0
 15 16  1  0  0  0  0
 15 17  2  0  0  0  0
 17 18  1  0  0  0  0
 17 19  1  0  0  0  0
 19 20  1  0  0  0  0
 19 21  2  0  0  0  0
 21 22  1  0  0  0  0
 21 23  1  0  0  0  0
 23 24  1  0  0  0  0
 25 26  2  0  0  0  0
 25 27  1  0  0  0  0
 27 28  1  0  0  0  0
 27 29  1  0  0  0  0
 29 30  1  0  0  0  0
 29 31  1  0  0  0  0
 29 32  1  0  0  0  0
M  END
$$$$

  -OEChem-04042216033D

 32 32  0     1  0  0  0  0  0999 V2000
   -3.7086   -3.9511    1.6327 H   0  0  0  0  0  0  0  0  0  0  0  0
   -3.6655   -3.0708    0.9852 C   0  0  0  0  0  0  0  0  0  0  0  0
   -4.4045   -2.3437    1.3303 H   0  0  0  0  0  0  0  0  0  0  0  0
   -3.9102   -3.3726   -0.0360 H   0  0  0  0  0  0  0  0  0  0  0  0
   -2.2779   -2.4588    1.0261 C   0  0  0  0  0  0  0  0  0  0  0  0
   -1.4147   -2.9595    1.7281 O   0  0  0  0  0  0  0  0  0  0  0  0
   -2.0094   -1.3311    0.2790 N   0  0  0  0  0  0  0  0  0  0  0  0
   -2.7894   -0.8984   -0.2129 H   0  0  0  0  0  0  0  0  0  0  0  0
   -0.7365   -0.5930    0.2871 C   0  0  1  0  0  0  0  0  0  0  0  0
   -0.1473   -0.8676    1.1692 H   0  0  0  0  0  0  0  0  0  0  0  0
    0.0625   -0.9198   -0.9916 C   0  0  0  0  0  0  0  0  0  0  0  0
   -0.5937   -1.3650   -1.7467 H   0  0  0  0  0  0  0  0  0  0  0  0
    0.4654   -0.0010   -1.4312 H   0  0  0  0  0  0  0  0  0  0  0  0
    1.2083   -1.8527   -0.6884 C   0  0  0  0  0  0  0  0  0  0  0  0
    2.4678   -1.3412   -0.3397 C   0  0  0  0  0  0  0  0  0  0  0  0
    2.6294   -0.2684   -0.3012 H   0  0  0  0  0  0  0  0  0  0  0  0
    3.5271   -2.2059   -0.0428 C   0  0  0  0  0  0  0  0  0  0  0  0
    4.4997   -1.8033    0.2240 H   0  0  0  0  0  0  0  0  0  0  0  0
    3.3331   -3.5899   -0.0864 C   0  0  0  0  0  0  0  0  0  0  0  0
    4.1527   -4.2626    0.1481 H   0  0  0  0  0  0  0  0  0  0  0  0
    2.0792   -4.1074   -0.4246 C   0  0  0  0  0  0  0  0  0  0  0  0
    1.9219   -5.1814   -0.4489 H   0  0  0  0  0  0  0  0  0  0  0  0
    1.0217   -3.2415   -0.7220 C   0  0  0  0  0  0  0  0  0  0  0  0
    0.0467   -3.6523   -0.9659 H   0  0  0  0  0  0  0  0  0  0  0  0
   -0.9986    0.9217    0.3719 C   0  0  0  0  0  0  0  0  0  0  0  0
   -1.8847    1.4275   -0.3077 O   0  0  0  0  0  0  0  0  0  0  0  0
   -0.2671    1.7124    1.2386 N   0  0  0  0  0  0  0  0  0  0  0  0
    0.4189    1.2510    1.8299 H   0  0  0  0  0  0  0  0  0  0  0  0
   -0.5011    3.1410    1.4096 C   0  0  0  0  0  0  0  0  0  0  0  0
   -1.5255    3.3233    1.7511 H   0  0  0  0  0  0  0  0  0  0  0  0
    0.1894    3.5512    2.1530 H   0  0  0  0  0  0  0  0  0  0  0  0
   -0.3451    3.6703    0.4637 H   0  0  0  0  0  0  0  0  0  0  0  0
  1  2  1  0  0  0  0
  2  3  1  0  0  0  0
  2  4  1  0  0  0  0
  2  5  1  0  0  0  0
  5  6  2  0  0  0  0
  5  7  1  0  0  0  0
  7  8  1  0  0  0  0
  7  9  1  0  0  0  0
  9 10  1  0  0  0  0
  9 11  1  0  0  0  0
  9 25  1  0  0  0  0
 11 12  1  0  0  0  0
 11 13  1  0  0  0  0
 11 14  1  0  0  0  0
 14 15  1  0  0  0  0
 14 23  2  0  0  0  0
 15 16  1  0  0  0  0
 15 17  2  0  0  0  0
 17 18  1  0  0  0  0
 17 19  1  0  0  0  0
 19 20  1  0  0  0  0
 19 21  2  0  0  0  0
 21 22  1  0  0  0  0
 21 23  1  0  0  0  0
 23 24  1  0  0  0  0
 25 26  2  0  0  0  0
 25 27  1  0  0  0  0
 27 28  1  0  0  0  0
 27 29  1  0  0  0  0
 29 30  1  0  0  0  0
 29 31  1  0  0  0  0
 29 32  1  0  0  0  0
M  END
$$$$

  -OEChem-04042216033D

 32 32  0     1  0  0  0  0  0999 V2000
   -3.6996   -3.9559    1.6195 H   0  0  0  0  0  0  0  0  0  0  0  0
   -3.6562   -3.0753    0.9725 C   0  0  0  0  0  0  0  0  0  0  0  0
   -4.4062   -2.3547    1.3072 H   0  0  0  0  0  0  0  0  0  0  0  0
   -3.8838   -3.3795   -0.0520 H   0  0  0  0  0  0  0  0  0  0  0  0
   -2.2750   -2.4507    1.0315 C   0  0  0  0  0  0  0  0  0  0  0  0
   -1.4187   -2.9381    1.7514 O   0  0  0  0  0  0  0  0  0  0  0  0
   -2.0059   -1.3242    0.2827 N   0  0  0  0  0  0  0  0  0  0  0  0
   -2.7824   -0.8968   -0.2192 H   0  0  0  0  0  0  0  0  0  0  0  0
   -0.7328   -0.5875    0.2951 C   0  0  1  0  0  0  0  0  0  0  0  0
   -0.1465   -0.8620    1.1786 H   0  0  0  0  0  0  0  0  0  0  0  0
    0.0617   -0.9207   -0.9855 C   0  0  0  0  0  0  0  0  0  0  0  0
   -0.6011   -1.3524   -1.7427 H   0  0  0  0  0  0  0  0  0  0  0  0
    0.4758   -0.0042   -1.4195 H   0  0  0  0  0  0  0  0  0  0  0  0
    1.2066   -1.8587   -0.6914 C   0  0  0  0  0  0  0  0  0  0  0  0
    2.3658   -1.3873   -0.0558 C   0  0  0  0  0  0  0  0  0  0  0  0
    2.4536   -0.3380    0.2076 H   0  0  0  0  0  0  0  0  0  0  0  0
    3.4202   -2.2593    0.2361 C   0  0  0  0  0  0  0  0  0  0  0  0
    4.3154   -1.8862    0.7243 H   0  0  0  0  0  0  0  0  0  0  0  0
    3.3205   -3.6131   -0.0983 C   0  0  0  0  0  0  0  0  0  0  0  0
    4.1370   -4.2919    0.1299 H   0  0  0  0  0  0  0  0  0  0  0  0
    2.1649   -4.0937   -0.7215 C   0  0  0  0  0  0  0  0  0  0  0  0
    2.0810   -5.1469   -0.9723 H   0  0  0  0  0  0  0  0  0  0  0  0
    1.1124   -3.2199   -1.0148 C   0  0  0  0  0  0  0  0  0  0  0  0
    0.2144   -3.6068   -1.4864 H   0  0  0  0  0  0  0  0  0  0  0  0
   -0.9962    0.9271    0.3770 C   0  0  0  0  0  0  0  0  0  0  0  0
   -1.8746    1.4326   -0.3128 O   0  0  0  0  0  0  0  0  0  0  0  0
   -0.2695    1.7202    1.2457 N   0  0  0  0  0  0  0  0  0  0  0  0
    0.3991    1.2580    1.8559 H   0  0  0  0  0  0  0  0  0  0  0  0
   -0.5062    3.1491    1.4111 C   0  0  0  0  0  0  0  0  0  0  0  0
   -1.5320    3.3316    1.7484 H   0  0  0  0  0  0  0  0  0  0  0  0
    0.1815    3.5623    2.1553 H   0  0  0  0  0  0  0  0  0  0  0  0
   -0.3475    3.6755    0.4640 H   0  0  0  0  0  0  0  0  0  0  0  0
  1  2  1  0  0  0  0
  2  3  1  0  0  0  0
  2  4  1  0  0  0  0
  2  5  1  0  0  0  0
  5  6  2  0  0  0  0
  5  7  1  0  0  0  0
  7  8  1  0  0  0  0
  7  9  1  0  0  0  0
  9 10  1  0  0  0  0
  9 11  1  0  0  0  0
  9 25  1  0  0  0  0
 11 12  1  0  0  0  0
 11 13  1  0  0  0  0
 11 14  1  0  0  0  0
 14 15  1  0  0  0  0
 14 23  2  0  0  0  0
 15 16  1  0  0  0  0
 15 17  2  0  0  0  0
 17 18  1  0  0  0  0
 17 19  1  0  0  0  0
 19 20  1  0  0  0  0
 19 21  2  0  0  0  0
 21 22  1  0  0  0  0
 21 23  1  0  0  0  0
 23 24  1  0  0  0  0
 25 26  2  0  0  0  0
 25 27  1  0  0  0  0
 27 28  1  0  0  0  0
 27 29  1  0  0  0  0
 29 30  1  0  0  0  0
 29 31  1  0  0  0  0
 29 32  1  0  0  0  0
M  END
$$$$

  -OEChem-04042216033D

 32 32  0     1  0  0  0  0  0999 V2000
   -3.7169   -3.9524    1.6164 H   0  0  0  0  0  0  0  0  0  0  0  0
   -3.6666   -3.0736    0.9674 C   0  0  0  0  0  0  0  0  0  0  0  0
   -4.4303   -2.3583    1.2820 H   0  0  0  0  0  0  0  0  0  0  0  0
   -3.8678   -3.3832   -0.0609 H   0  0  0  0  0  0  0  0  0  0  0  0
   -2.2926   -2.4364    1.0556 C   0  0  0  0  0  0  0  0  0  0  0  0
   -1.4535   -2.9031    1.8090 O   0  0  0  0  0  0  0  0  0  0  0  0
   -2.0121   -1.3178    0.2990 N   0  0  0  0  0  0  0  0  0  0  0  0
   -2.7763   -0.9044   -0.2325 H   0  0  0  0  0  0  0  0  0  0  0  0
   -0.7382   -0.5832    0.3230 C   0  0  1  0  0  0  0  0  0  0  0  0
   -0.1679   -0.8499    1.2182 H   0  0  0  0  0  0  0  0  0  0  0  0
    0.0680   -0.9270   -0.9503 C   0  0  0  0  0  0  0  0  0  0  0  0
   -0.5972   -1.3493   -1.7103 H   0  0  0  0  0  0  0  0  0  0  0  0
    0.4893   -0.0119   -1.3799 H   0  0  0  0  0  0  0  0  0  0  0  0
    1.2177   -1.8689   -0.6729 C   0  0  0  0  0  0  0  0  0  0  0  0
    2.2445   -1.5131    0.2171 C   0  0  0  0  0  0  0  0  0  0  0  0
    2.2329   -0.5438    0.7049 H   0  0  0  0  0  0  0  0  0  0  0  0
    3.2980   -2.3959    0.4787 C   0  0  0  0  0  0  0  0  0  0  0  0
    4.0875   -2.1111    1.1677 H   0  0  0  0  0  0  0  0  0  0  0  0
    3.3342   -3.6463   -0.1450 C   0  0  0  0  0  0  0  0  0  0  0  0
    4.1500   -4.3337    0.0588 H   0  0  0  0  0  0  0  0  0  0  0  0
    2.3148   -4.0127   -1.0284 C   0  0  0  0  0  0  0  0  0  0  0  0
    2.3366   -4.9861   -1.5094 H   0  0  0  0  0  0  0  0  0  0  0  0
    1.2621   -3.1287   -1.2890 C   0  0  0  0  0  0  0  0  0  0  0  0
    0.4731   -3.4306   -1.9707 H   0  0  0  0  0  0  0  0  0  0  0  0
   -1.0042    0.9321    0.3862 C   0  0  0  0  0  0  0  0  0  0  0  0
   -1.8682    1.4300   -0.3269 O   0  0  0  0  0  0  0  0  0  0  0  0
   -0.2921    1.7356    1.2575 N   0  0  0  0  0  0  0  0  0  0  0  0
    0.3656    1.2818    1.8851 H   0  0  0  0  0  0  0  0  0  0  0  0
   -0.5227    3.1687    1.3926 C   0  0  0  0  0  0  0  0  0  0  0  0
   -1.5572    3.3640    1.6942 H   0  0  0  0  0  0  0  0  0  0  0  0
    0.1440    3.5896    2.1515 H   0  0  0  0  0  0  0  0  0  0  0  0
   -0.3301    3.6785    0.4428 H   0  0  0  0  0  0  0  0  0  0  0  0
  1  2  1  0  0  0  0
  2  3  1  0  0  0  0
  2  4  1  0  0  0  0
  2  5  1  0  0  0  0
  5  6  2  0  0  0  0
  5  7  1  0  0  0  0
  7  8  1  0  0  0  0
  7  9  1  0  0  0  0
  9 10  1  0  0  0  0
  9 11  1  0  0  0  0
  9 25  1  0  0  0  0
 11 12  1  0  0  0  0
 11 13  1  0  0  0  0
 11 14  1  0  0  0  0
 14 15  1  0  0  0  0
 14 23  2  0  0  0  0
 15 16  1  0  0  0  0
 15 17  2  0  0  0  0
 17 18  1  0  0  0  0
 17 19  1  0  0  0  0
 19 20  1  0  0  0  0
 19 21  2  0  0  0  0
 21 22  1  0  0  0  0
 21 23  1  0  0  0  0
 23 24  1  0  0  0  0
 25 26  2  0  0  0  0
 25 27  1  0  0  0  0
 27 28  1  0  0  0  0
 27 29  1  0  0  0  0
 29 30  1  0  0  0  0
 29 31  1  0  0  0  0
 29 32  1  0  0  0  0
M  END
$$$$

  -OEChem-04042216033D

 32 32  0     1  0  0  0  0  0999 V2000
   -3.7482   -3.9448    1.6109 H   0  0  0  0  0  0  0  0  0  0  0  0
   -3.6903   -3.0658    0.9628 C   0  0  0  0  0  0  0  0  0  0  0  0
   -4.4649   -2.3553    1.2615 H   0  0  0  0  0  0  0  0  0  0  0  0
   -3.8690   -3.3774   -0.0690 H   0  0  0  0  0  0  0  0  0  0  0  0
   -2.3225   -2.4198    1.0788 C   0  0  0  0  0  0  0  0  0  0  0  0
   -1.5035   -2.8679    1.8652 O   0  0  0  0  0  0  0  0  0  0  0  0
   -2.0244   -1.3127    0.3117 N   0  0  0  0  0  0  0  0  0  0  0  0
   -2.7732   -0.9129   -0.2511 H   0  0  0  0  0  0  0  0  0  0  0  0
   -0.7509   -0.5780    0.3557 C   0  0  1  0  0  0  0  0  0  0  0  0
   -0.2104   -0.8294    1.2714 H   0  0  0  0  0  0  0  0  0  0  0  0
    0.0827   -0.9376   -0.8984 C   0  0  0  0  0  0  0  0  0  0  0  0
   -0.5775   -1.3589   -1.6635 H   0  0  0  0  0  0  0  0  0  0  0  0
    0.5071   -0.0230   -1.3258 H   0  0  0  0  0  0  0  0  0  0  0  0
    1.2422   -1.8794   -0.6379 C   0  0  0  0  0  0  0  0  0  0  0  0
    2.1188   -1.7121    0.4497 C   0  0  0  0  0  0  0  0  0  0  0  0
    2.0013   -0.8797    1.1347 H   0  0  0  0  0  0  0  0  0  0  0  0
    3.1715   -2.6088    0.6638 C   0  0  0  0  0  0  0  0  0  0  0  0
    3.8404   -2.4702    1.5080 H   0  0  0  0  0  0  0  0  0  0  0  0
    3.3631   -3.6845   -0.2067 C   0  0  0  0  0  0  0  0  0  0  0  0
    4.1784   -4.3822   -0.0394 H   0  0  0  0  0  0  0  0  0  0  0  0
    2.5014   -3.8622   -1.2917 C   0  0  0  0  0  0  0  0  0  0  0  0
    2.6460   -4.6989   -1.9687 H   0  0  0  0  0  0  0  0  0  0  0  0
    1.4490   -2.9655   -1.5036 C   0  0  0  0  0  0  0  0  0  0  0  0
    0.7859   -3.1225   -2.3489 H   0  0  0  0  0  0  0  0  0  0  0  0
   -1.0186    0.9386    0.3894 C   0  0  0  0  0  0  0  0  0  0  0  0
   -1.8659    1.4259   -0.3508 O   0  0  0  0  0  0  0  0  0  0  0  0
   -0.3279    1.7555    1.2655 N   0  0  0  0  0  0  0  0  0  0  0  0
    0.3298    1.3152    1.9024 H   0  0  0  0  0  0  0  0  0  0  0  0
   -0.5519    3.1923    1.3647 C   0  0  0  0  0  0  0  0  0  0  0  0
   -1.5938    3.4011    1.6298 H   0  0  0  0  0  0  0  0  0  0  0  0
    0.0937    3.6235    2.1358 H   0  0  0  0  0  0  0  0  0  0  0  0
   -0.3256    3.6811    0.4113 H   0  0  0  0  0  0  0  0  0  0  0  0
  1  2  1  0  0  0  0
  2  3  1  0  0  0  0
  2  4  1  0  0  0  0
  2  5  1  0  0  0  0
  5  6  2  0  0  0  0
  5  7  1  0  0  0  0
  7  8  1  0  0  0  0
  7  9  1  0  0  0  0
  9 10  1  0  0  0  0
  9 11  1  0  0  0  0
  9 25  1  0  0  0  0
 11 12  1  0  0  0  0
 11 13  1  0  0  0  0
 11 14  1  0  0  0  0
 14 15  1  0  0  0  0
 14 23  2  0  0  0  0
 15 16  1  0  0  0  0
 15 17  2  0  0  0  0
 17 18  1  0  0  0  0
 17 19  1  0  0  0  0
 19 20  1  0  0  0  0
 19 21  2  0  0  0  0
 21 22  1  0  0  0  0
 21 23  1  0  0  0  0
 23 24  1  0  0  0  0
 25 26  2  0  0  0  0
 25 27  1  0  0  0  0
 27 28  1  0  0  0  0
 27 29  1  0  0  0  0
 29 30  1  0  0  0  0
 29 31  1  0  0  0  0
 29 32  1  0  0  0  0
M  END
$$$$

  -OEChem-04042216033D

 32 32  0     1  0  0  0  0  0999 V2000
   -3.7898   -3.9358    1.5926 H   0  0  0  0  0  0  0  0  0  0  0  0
   -3.7247   -3.0505    0.9538 C   0  0  0  0  0  0  0  0  0  0  0  0
   -4.5093   -2.3473    1.2433 H   0  0  0  0  0  0  0  0  0  0  0  0
   -3.8813   -3.3544   -0.0841 H   0  0  0  0  0  0  0  0  0  0  0  0
   -2.3631   -2.3979    1.1028 C   0  0  0  0  0  0  0  0  0  0  0  0
   -1.5695   -2.8274    1.9252 O   0  0  0  0  0  0  0  0  0  0  0  0
   -2.0405   -1.3061    0.3237 N   0  0  0  0  0  0  0  0  0  0  0  0
   -2.7691   -0.9184   -0.2730 H   0  0  0  0  0  0  0  0  0  0  0  0
   -0.7656   -0.5762    0.3906 C   0  0  1  0  0  0  0  0  0  0  0  0
   -0.2595   -0.8063    1.3284 H   0  0  0  0  0  0  0  0  0  0  0  0
    0.0996   -0.9541   -0.8390 C   0  0  0  0  0  0  0  0  0  0  0  0
   -0.5519   -1.3760   -1.6117 H   0  0  0  0  0  0  0  0  0  0  0  0
    0.5295   -0.0410   -1.2643 H   0  0  0  0  0  0  0  0  0  0  0  0
    1.2651   -1.8984   -0.5920 C   0  0  0  0  0  0  0  0  0  0  0  0
    1.9785   -1.9708    0.6209 C   0  0  0  0  0  0  0  0  0  0  0  0
    1.7412   -1.3319    1.4626 H   0  0  0  0  0  0  0  0  0  0  0  0
    3.0376   -2.8717    0.7763 C   0  0  0  0  0  0  0  0  0  0  0  0
    3.5749   -2.9173    1.7189 H   0  0  0  0  0  0  0  0  0  0  0  0
    3.4043   -3.7138   -0.2753 C   0  0  0  0  0  0  0  0  0  0  0  0
    4.2242   -4.4151   -0.1513 H   0  0  0  0  0  0  0  0  0  0  0  0
    2.7119   -3.6509   -1.4858 C   0  0  0  0  0  0  0  0  0  0  0  0
    2.9926   -4.3039   -2.3067 H   0  0  0  0  0  0  0  0  0  0  0  0
    1.6539   -2.7494   -1.6402 C   0  0  0  0  0  0  0  0  0  0  0  0
    1.1279   -2.7164   -2.5896 H   0  0  0  0  0  0  0  0  0  0  0  0
   -1.0312    0.9415    0.3895 C   0  0  0  0  0  0  0  0  0  0  0  0
   -1.8571    1.4163   -0.3822 O   0  0  0  0  0  0  0  0  0  0  0  0
   -0.3638    1.7731    1.2699 N   0  0  0  0  0  0  0  0  0  0  0  0
    0.2900    1.3457    1.9196 H   0  0  0  0  0  0  0  0  0  0  0  0
   -0.5773    3.2139    1.3284 C   0  0  0  0  0  0  0  0  0  0  0  0
   -1.6241    3.4376    1.5595 H   0  0  0  0  0  0  0  0  0  0  0  0
    0.0508    3.6581    2.1066 H   0  0  0  0  0  0  0  0  0  0  0  0
   -0.3204    3.6775    0.3701 H   0  0  0  0  0  0  0  0  0  0  0  0
  1  2  1  0  0  0  0
  2  3  1  0  0  0  0
  2  4  1  0  0  0  0
  2  5  1  0  0  0  0
  5  6  2  0  0  0  0
  5  7  1  0  0  0  0
  7  8  1  0  0  0  0
  7  9  1  0  0  0  0
  9 10  1  0  0  0  0
  9 11  1  0  0  0  0
  9 25  1  0  0  0  0
 11 12  1  0  0  0  0
 11 13  1  0  0  0  0
 11 14  1  0  0  0  0
 14 15  1  0  0  0  0
 14 23  2  0  0  0  0
 15 16  1  0  0  0  0
 15 17  2  0  0  0  0
 17 18  1  0  0  0  0
 17 19  1  0  0  0  0
 19 20  1  0  0  0  0
 19 21  2  0  0  0  0
 21 22  1  0  0  0  0
 21 23  1  0  0  0  0
 23 24  1  0  0  0  0
 25 26  2  0  0  0  0
 25 27  1  0  0  0  0
 27 28  1  0  0  0  0
 27 29  1  0  0  0  0
 29 30  1  0  0  0  0
 29 31  1  0  0  0  0
 29 32  1  0  0  0  0
M  END
$$$$

  -OEChem-04042216033D

 32 32  0     1  0  0  0  0  0999 V2000
   -3.8556   -3.8854    1.6133 H   0  0  0  0  0  0  0  0  0  0  0  0
   -3.7707   -3.0119    0.9606 C   0  0  0  0  0  0  0  0  0  0  0  0
   -4.5458   -2.2911    1.2316 H   0  0  0  0  0  0  0  0  0  0  0  0
   -3.9235   -3.3302   -0.0735 H   0  0  0  0  0  0  0  0  0  0  0  0
   -2.4004   -2.3787    1.1112 C   0  0  0  0  0  0  0  0  0  0  0  0
   -1.6184   -2.8096    1.9445 O   0  0  0  0  0  0  0  0  0  0  0  0
   -2.0546   -1.3007    0.3232 N   0  0  0  0  0  0  0  0  0  0  0  0
   -2.7708   -0.9067   -0.2846 H   0  0  0  0  0  0  0  0  0  0  0  0
   -0.7729   -0.5855    0.4093 C   0  0  1  0  0  0  0  0  0  0  0  0
   -0.2865   -0.7935    1.3607 H   0  0  0  0  0  0  0  0  0  0  0  0
    0.1133   -0.9763   -0.8013 C   0  0  0  0  0  0  0  0  0  0  0  0
   -0.5292   -1.3942   -1.5835 H   0  0  0  0  0  0  0  0  0  0  0  0
    0.5544   -0.0651   -1.2198 H   0  0  0  0  0  0  0  0  0  0  0  0
    1.2727   -1.9328   -0.5611 C   0  0  0  0  0  0  0  0  0  0  0  0
    1.8038   -2.2692    0.7018 C   0  0  0  0  0  0  0  0  0  0  0  0
    1.4017   -1.8773    1.6273 H   0  0  0  0  0  0  0  0  0  0  0  0
    2.8822   -3.1538    0.8129 C   0  0  0  0  0  0  0  0  0  0  0  0
    3.2712   -3.4100    1.7940 H   0  0  0  0  0  0  0  0  0  0  0  0
    3.4556   -3.7131   -0.3304 C   0  0  0  0  0  0  0  0  0  0  0  0
    4.2912   -4.4011   -0.2404 H   0  0  0  0  0  0  0  0  0  0  0  0
    2.9477   -3.3864   -1.5885 C   0  0  0  0  0  0  0  0  0  0  0  0
    3.3893   -3.8182   -2.4817 H   0  0  0  0  0  0  0  0  0  0  0  0
    1.8684   -2.5043   -1.6983 C   0  0  0  0  0  0  0  0  0  0  0  0
    1.4885   -2.2614   -2.6863 H   0  0  0  0  0  0  0  0  0  0  0  0
   -1.0333    0.9335    0.3838 C   0  0  0  0  0  0  0  0  0  0  0  0
   -1.8445    1.4012   -0.4078 O   0  0  0  0  0  0  0  0  0  0  0  0
   -0.3825    1.7744    1.2678 N   0  0  0  0  0  0  0  0  0  0  0  0
    0.2683    1.3550    1.9259 H   0  0  0  0  0  0  0  0  0  0  0  0
   -0.5910    3.2168    1.3019 C   0  0  0  0  0  0  0  0  0  0  0  0
   -1.6385    3.4482    1.5219 H   0  0  0  0  0  0  0  0  0  0  0  0
    0.0333    3.6712    2.0771 H   0  0  0  0  0  0  0  0  0  0  0  0
   -0.3257    3.6647    0.3384 H   0  0  0  0  0  0  0  0  0  0  0  0
  1  2  1  0  0  0  0
  2  3  1  0  0  0  0
  2  4  1  0  0  0  0
  2  5  1  0  0  0  0
  5  6  2  0  0  0  0
  5  7  1  0  0  0  0
  7  8  1  0  0  0  0
  7  9  1  0  0  0  0
  9 10  1  0  0  0  0
  9 11  1  0  0  0  0
  9 25  1  0  0  0  0
 11 12  1  0  0  0  0
 11 13  1  0  0  0  0
 11 14  1  0  0  0  0
 14 15  1  0  0  0  0
 14 23  2  0  0  0  0
 15 16  1  0  0  0  0
 15 17  2  0  0  0  0
 17 18  1  0  0  0  0
 17 19  1  0  0  0  0
 19 20  1  0  0  0  0
 19 21  2  0  0  0  0
 21 22  1  0  0  0  0
 21 23  1  0  0  0  0
 23 24  1  0  0  0  0
 25 26  2  0  0  0  0
 25 27  1  0  0  0  0
 27 28  1  0  0  0  0
 27 29  1  0  0  0  0
 29 30  1  0  0  0  0
 29 31  1  0  0  0  0
 29 32  1  0  0  0  0
M  END
$$$$

  -OEChem-04042216033D

 32 32  0     1  0  0  0  0  0999 V2000
   -3.8932   -3.8652    1.6163 H   0  0  0  0  0  0  0  0  0  0  0  0
   -3.7965   -2.9939    0.9624 C   0  0  0  0  0  0  0  0  0  0  0  0
   -4.5652   -2.2648    1.2293 H   0  0  0  0  0  0  0  0  0  0  0  0
   -3.9486   -3.3122   -0.0718 H   0  0  0  0  0  0  0  0  0  0  0  0
   -2.4200   -2.3746    1.1158 C   0  0  0  0  0  0  0  0  0  0  0  0
   -1.6430   -2.8130    1.9500 O   0  0  0  0  0  0  0  0  0  0  0  0
   -2.0631   -1.2998    0.3288 N   0  0  0  0  0  0  0  0  0  0  0  0
   -2.7761   -0.8997   -0.2789 H   0  0  0  0  0  0  0  0  0  0  0  0
   -0.7741   -0.5969    0.4078 C   0  0  1  0  0  0  0  0  0  0  0  0
   -0.2750   -0.8008    1.3548 H   0  0  0  0  0  0  0  0  0  0  0  0
    0.1041   -0.9882   -0.8081 C   0  0  0  0  0  0  0  0  0  0  0  0
   -0.5402   -1.4040   -1.5900 H   0  0  0  0  0  0  0  0  0  0  0  0
    0.5464   -0.0762   -1.2241 H   0  0  0  0  0  0  0  0  0  0  0  0
    1.2567   -1.9539   -0.5764 C   0  0  0  0  0  0  0  0  0  0  0  0
    1.5972   -2.5326    0.6641 C   0  0  0  0  0  0  0  0  0  0  0  0
    1.0134   -2.3688    1.5622 H   0  0  0  0  0  0  0  0  0  0  0  0
    2.6981   -3.3891    0.7768 C   0  0  0  0  0  0  0  0  0  0  0  0
    2.9375   -3.8348    1.7379 H   0  0  0  0  0  0  0  0  0  0  0  0
    3.4812   -3.6806   -0.3416 C   0  0  0  0  0  0  0  0  0  0  0  0
    4.3338   -4.3471   -0.2514 H   0  0  0  0  0  0  0  0  0  0  0  0
    3.1591   -3.1164   -1.5768 C   0  0  0  0  0  0  0  0  0  0  0  0
    3.7630   -3.3410   -2.4509 H   0  0  0  0  0  0  0  0  0  0  0  0
    2.0579   -2.2618   -1.6885 C   0  0  0  0  0  0  0  0  0  0  0  0
    1.8246   -1.8297   -2.6572 H   0  0  0  0  0  0  0  0  0  0  0  0
   -1.0252    0.9239    0.3836 C   0  0  0  0  0  0  0  0  0  0  0  0
   -1.8407    1.3972   -0.4003 O   0  0  0  0  0  0  0  0  0  0  0  0
   -0.3635    1.7594    1.2644 N   0  0  0  0  0  0  0  0  0  0  0  0
    0.2939    1.3350    1.9127 H   0  0  0  0  0  0  0  0  0  0  0  0
   -0.5643    3.2026    1.3063 C   0  0  0  0  0  0  0  0  0  0  0  0
   -1.6106    3.4382    1.5278 H   0  0  0  0  0  0  0  0  0  0  0  0
    0.0624    3.6488    2.0845 H   0  0  0  0  0  0  0  0  0  0  0  0
   -0.2966    3.6544    0.3453 H   0  0  0  0  0  0  0  0  0  0  0  0
  1  2  1  0  0  0  0
  2  3  1  0  0  0  0
  2  4  1  0  0  0  0
  2  5  1  0  0  0  0
  5  6  2  0  0  0  0
  5  7  1  0  0  0  0
  7  8  1  0  0  0  0
  7  9  1  0  0  0  0
  9 10  1  0  0  0  0
  9 11  1  0  0  0  0
  9 25  1  0  0  0  0
 11 12  1  0  0  0  0
 11 13  1  0  0  0  0
 11 14  1  0  0  0  0
 14 15  1  0  0  0  0
 14 23  2  0  0  0  0
 15 16  1  0  0  0  0
 15 17  2  0  0  0  0
 17 18  1  0  0  0  0
 17 19  1  0  0  0  0
 19 20  1  0  0  0  0
 19 21  2  0  0  0  0
 21 22  1  0  0  0  0
 21 23  1  0  0  0  0
 23 24  1  0  0  0  0
 25 26  2  0  0  0  0
 25 27  1  0  0  0  0
 27 28  1  0  0  0  0
 27 29  1  0  0  0  0
 29 30  1  0  0  0  0
 29 31  1  0  0  0  0
 29 32  1  0  0  0  0
M  END
$$$$

  -OEChem-04042216033D

 32 32  0     1  0  0  0  0  0999 V2000
   -3.9003   -3.8904    1.5831 H   0  0  0  0  0  0  0  0  0  0  0  0
   -3.7946   -3.0122    0.9399 C   0  0  0  0  0  0  0  0  0  0  0  0
   -4.5769   -2.2927    1.1933 H   0  0  0  0  0  0  0  0  0  0  0  0
   -3.9170   -3.3226   -0.1006 H   0  0  0  0  0  0  0  0  0  0  0  0
   -2.4287   -2.3813    1.1355 C   0  0  0  0  0  0  0  0  0  0  0  0
   -1.6861   -2.8014    2.0081 O   0  0  0  0  0  0  0  0  0  0  0  0
   -2.0586   -1.3048    0.3570 N   0  0  0  0  0  0  0  0  0  0  0  0
   -2.7598   -0.9246   -0.2765 H   0  0  0  0  0  0  0  0  0  0  0  0
   -0.7666   -0.6011    0.4180 C   0  0  1  0  0  0  0  0  0  0  0  0
   -0.2408   -0.8218    1.3497 H   0  0  0  0  0  0  0  0  0  0  0  0
    0.0943   -0.9765   -0.8166 C   0  0  0  0  0  0  0  0  0  0  0  0
   -0.5570   -1.3944   -1.5910 H   0  0  0  0  0  0  0  0  0  0  0  0
    0.5215   -0.0580   -1.2345 H   0  0  0  0  0  0  0  0  0  0  0  0
    1.2512   -1.9385   -0.6010 C   0  0  0  0  0  0  0  0  0  0  0  0
    1.4184   -2.7405    0.5441 C   0  0  0  0  0  0  0  0  0  0  0  0
    0.7007   -2.7355    1.3550 H   0  0  0  0  0  0  0  0  0  0  0  0
    2.5177   -3.5969    0.6661 C   0  0  0  0  0  0  0  0  0  0  0  0
    2.6238   -4.2129    1.5542 H   0  0  0  0  0  0  0  0  0  0  0  0
    3.4710   -3.6664   -0.3517 C   0  0  0  0  0  0  0  0  0  0  0  0
    4.3226   -4.3334   -0.2554 H   0  0  0  0  0  0  0  0  0  0  0  0
    3.3210   -2.8790   -1.4946 C   0  0  0  0  0  0  0  0  0  0  0  0
    4.0585   -2.9310   -2.2898 H   0  0  0  0  0  0  0  0  0  0  0  0
    2.2195   -2.0254   -1.6154 C   0  0  0  0  0  0  0  0  0  0  0  0
    2.1178   -1.4225   -2.5130 H   0  0  0  0  0  0  0  0  0  0  0  0
   -1.0163    0.9199    0.4008 C   0  0  0  0  0  0  0  0  0  0  0  0
   -1.8334    1.3971   -0.3791 O   0  0  0  0  0  0  0  0  0  0  0  0
   -0.3401    1.7524    1.2735 N   0  0  0  0  0  0  0  0  0  0  0  0
    0.3156    1.3239    1.9212 H   0  0  0  0  0  0  0  0  0  0  0  0
   -0.5352    3.1963    1.3176 C   0  0  0  0  0  0  0  0  0  0  0  0
   -1.5796    3.4352    1.5441 H   0  0  0  0  0  0  0  0  0  0  0  0
    0.0968    3.6396    2.0932 H   0  0  0  0  0  0  0  0  0  0  0  0
   -0.2704    3.6480    0.3557 H   0  0  0  0  0  0  0  0  0  0  0  0
  1  2  1  0  0  0  0
  2  3  1  0  0  0  0
  2  4  1  0  0  0  0
  2  5  1  0  0  0  0
  5  6  2  0  0  0  0
  5  7  1  0  0  0  0
  7  8  1  0  0  0  0
  7  9  1  0  0  0  0
  9 10  1  0  0  0  0
  9 11  1  0  0  0  0
  9 25  1  0  0  0  0
 11 12  1  0  0  0  0
 11 13  1  0  0  0  0
 11 14  1  0  0  0  0
 14 15  1  0  0  0  0
 14 23  2  0  0  0  0
 15 16  1  0  0  0  0
 15 17  2  0  0  0  0
 17 18  1  0  0  0  0
 17 19  1  0  0  0  0
 19 20  1  0  0  0  0
 19 21  2  0  0  0  0
 21 22  1  0  0  0  0
 21 23  1  0  0  0  0
 23 24  1  0  0  0  0
 25 26  2  0  0  0  0
 25 27  1  0  0  0  0
 27 28  1  0  0  0  0
 27 29  1  0  0  0  0
 29 30  1  0  0  0  0
 29 31  1  0  0  0  0
 29 32  1  0  0  0  0
M  END
$$$$

  -OEChem-04042216033D

 32 32  0     1  0  0  0  0  0999 V2000
   -3.8923   -3.9160    1.5693 H   0  0  0  0  0  0  0  0  0  0  0  0
   -3.7849   -3.0355    0.9298 C   0  0  0  0  0  0  0  0  0  0  0  0
   -4.5841   -2.3284    1.1650 H   0  0  0  0  0  0  0  0  0  0  0  0
   -3.8776   -3.3463   -0.1137 H   0  0  0  0  0  0  0  0  0  0  0  0
   -2.4341   -2.3839    1.1589 C   0  0  0  0  0  0  0  0  0  0  0  0
   -1.7219   -2.7732    2.0697 O   0  0  0  0  0  0  0  0  0  0  0  0
   -2.0589   -1.3073    0.3830 N   0  0  0  0  0  0  0  0  0  0  0  0
   -2.7500   -0.9495   -0.2741 H   0  0  0  0  0  0  0  0  0  0  0  0
   -0.7626   -0.6070    0.4216 C   0  0  1  0  0  0  0  0  0  0  0  0
   -0.2127   -0.8506    1.3358 H   0  0  0  0  0  0  0  0  0  0  0  0
    0.0812   -0.9630   -0.8324 C   0  0  0  0  0  0  0  0  0  0  0  0
   -0.5781   -1.3813   -1.5995 H   0  0  0  0  0  0  0  0  0  0  0  0
    0.4935   -0.0383   -1.2515 H   0  0  0  0  0  0  0  0  0  0  0  0
    1.2406   -1.9231   -0.6307 C   0  0  0  0  0  0  0  0  0  0  0  0
    1.2556   -2.9323    0.3467 C   0  0  0  0  0  0  0  0  0  0  0  0
    0.4159   -3.0807    1.0114 H   0  0  0  0  0  0  0  0  0  0  0  0
    2.3562   -3.7845    0.4842 C   0  0  0  0  0  0  0  0  0  0  0  0
    2.3459   -4.5582    1.2463 H   0  0  0  0  0  0  0  0  0  0  0  0
    3.4622   -3.6436   -0.3565 C   0  0  0  0  0  0  0  0  0  0  0  0
    4.3159   -4.3061   -0.2491 H   0  0  0  0  0  0  0  0  0  0  0  0
    3.4629   -2.6497   -1.3372 C   0  0  0  0  0  0  0  0  0  0  0  0
    4.3189   -2.5377   -1.9960 H   0  0  0  0  0  0  0  0  0  0  0  0
    2.3600   -1.7995   -1.4716 C   0  0  0  0  0  0  0  0  0  0  0  0
    2.3790   -1.0346   -2.2421 H   0  0  0  0  0  0  0  0  0  0  0  0
   -1.0090    0.9149    0.4130 C   0  0  0  0  0  0  0  0  0  0  0  0
   -1.8309    1.3988   -0.3580 O   0  0  0  0  0  0  0  0  0  0  0  0
   -0.3140    1.7417    1.2759 N   0  0  0  0  0  0  0  0  0  0  0  0
    0.3414    1.3060    1.9193 H   0  0  0  0  0  0  0  0  0  0  0  0
   -0.5036    3.1859    1.3302 C   0  0  0  0  0  0  0  0  0  0  0  0
   -1.5448    3.4274    1.5687 H   0  0  0  0  0  0  0  0  0  0  0  0
    0.1376    3.6225    2.1019 H   0  0  0  0  0  0  0  0  0  0  0  0
   -0.2472    3.6424    0.3684 H   0  0  0  0  0  0  0  0  0  0  0  0
  1  2  1  0  0  0  0
  2  3  1  0  0  0  0
  2  4  1  0  0  0  0
  2  5  1  0  0  0  0
  5  6  2  0  0  0  0
  5  7  1  0  0  0  0
  7  8  1  0  0  0  0
  7  9  1  0  0  0  0
  9 10  1  0  0  0  0
  9 11  1  0  0  0  0
  9 25  1  0  0  0  0
 11 12  1  0  0  0  0
 11 13  1  0  0  0  0
 11 14  1  0  0  0  0
 14 15  1  0  0  0  0
 14 23  2  0  0  0  0
 15 16  1  0  0  0  0
 15 17  2  0  0  0  0
 17 18  1  0  0  0  0
 17 19  1  0  0  0  0
 19 20  1  0  0  0  0
 19 21  2  0  0  0  0
 21 22  1  0  0  0  0
 21 23  1  0  0  0  0
 23 24  1  0  0  0  0
 25 26  2  0  0  0  0
 25 27  1  0  0  0  0
 27 28  1  0  0  0  0
 27 29  1  0  0  0  0
 29 30  1  0  0  0  0
 29 31  1  0  0  0  0
 29 32  1  0  0  0  0
M  END
$$$$

  -OEChem-04042216033D

 32 32  0     1  0  0  0  0  0999 V2000
   -3.8778   -3.9034    1.6240 H   0  0  0  0  0  0  0  0  0  0  0  0
   -3.7694   -3.0406    0.9609 C   0  0  0  0  0  0  0  0  0  0  0  0
   -4.5520   -2.3150    1.1952 H   0  0  0  0  0  0  0  0  0  0  0  0
   -3.8886   -3.3742   -0.0727 H   0  0  0  0  0  0  0  0  0  0  0  0
   -2.4040   -2.4058    1.1457 C   0  0  0  0  0  0  0  0  0  0  0  0
   -1.6573   -2.8175    2.0187 O   0  0  0  0  0  0  0  0  0  0  0  0
   -2.0511   -1.3189    0.3739 N   0  0  0  0  0  0  0  0  0  0  0  0
   -2.7651   -0.9423   -0.2474 H   0  0  0  0  0  0  0  0  0  0  0  0
   -0.7550   -0.6177    0.3895 C   0  0  1  0  0  0  0  0  0  0  0  0
   -0.1833   -0.8788    1.2862 H   0  0  0  0  0  0  0  0  0  0  0  0
    0.0713   -0.9464   -0.8825 C   0  0  0  0  0  0  0  0  0  0  0  0
   -0.5926   -1.3663   -1.6449 H   0  0  0  0  0  0  0  0  0  0  0  0
    0.4697   -0.0155   -1.3009 H   0  0  0  0  0  0  0  0  0  0  0  0
    1.2308   -1.9029   -0.6787 C   0  0  0  0  0  0  0  0  0  0  0  0
    1.1171   -3.0830    0.0722 C   0  0  0  0  0  0  0  0  0  0  0  0
    0.1727   -3.3662    0.5168 H   0  0  0  0  0  0  0  0  0  0  0  0
    2.2155   -3.9305    0.2503 C   0  0  0  0  0  0  0  0  0  0  0  0
    2.1063   -4.8381    0.8368 H   0  0  0  0  0  0  0  0  0  0  0  0
    3.4471   -3.6117   -0.3266 C   0  0  0  0  0  0  0  0  0  0  0  0
    4.2992   -4.2707   -0.1898 H   0  0  0  0  0  0  0  0  0  0  0  0
    3.5763   -2.4442   -1.0821 C   0  0  0  0  0  0  0  0  0  0  0  0
    4.5311   -2.1936   -1.5349 H   0  0  0  0  0  0  0  0  0  0  0  0
    2.4759   -1.5979   -1.2553 C   0  0  0  0  0  0  0  0  0  0  0  0
    2.5981   -0.6952   -1.8465 H   0  0  0  0  0  0  0  0  0  0  0  0
   -1.0046    0.9032    0.4074 C   0  0  0  0  0  0  0  0  0  0  0  0
   -1.8477    1.3952   -0.3350 O   0  0  0  0  0  0  0  0  0  0  0  0
   -0.2898    1.7196    1.2638 N   0  0  0  0  0  0  0  0  0  0  0  0
    0.3736    1.2749    1.8925 H   0  0  0  0  0  0  0  0  0  0  0  0
   -0.4886    3.1610    1.3499 C   0  0  0  0  0  0  0  0  0  0  0  0
   -1.5211    3.3891    1.6346 H   0  0  0  0  0  0  0  0  0  0  0  0
    0.1806    3.5905    2.1018 H   0  0  0  0  0  0  0  0  0  0  0  0
   -0.2754    3.6353    0.3862 H   0  0  0  0  0  0  0  0  0  0  0  0
  1  2  1  0  0  0  0
  2  3  1  0  0  0  0
  2  4  1  0  0  0  0
  2  5  1  0  0  0  0
  5  6  2  0  0  0  0
  5  7  1  0  0  0  0
  7  8  1  0  0  0  0
  7  9  1  0  0  0  0
  9 10  1  0  0  0  0
  9 11  1  0  0  0  0
  9 25  1  0  0  0  0
 11 12  1  0  0  0  0
 11 13  1  0  0  0  0
 11 14  1  0  0  0  0
 14 15  1  0  0  0  0
 14 23  2  0  0  0  0
 15 16  1  0  0  0  0
 15 17  2  0  0  0  0
 17 18  1  0  0  0  0
 17 19  1  0  0  0  0
 19 20  1  0  0  0  0
 19 21  2  0  0  0  0
 21 22  1  0  0  0  0
 21 23  1  0  0  0  0
 23 24  1  0  0  0  0
 25 26  2  0  0  0  0
 25 27  1  0  0  0  0
 27 28  1  0  0  0  0
 27 29  1  0  0  0  0
 29 30  1  0  0  0  0
 29 31  1  0  0  0  0
 29 32  1  0  0  0  0
M  END
$$$$

  -OEChem-04042216033D

 32 32  0     1  0  0  0  0  0999 V2000
   -3.8024   -3.9251    1.6539 H   0  0  0  0  0  0  0  0  0  0  0  0
   -3.7251   -3.0575    0.9926 C   0  0  0  0  0  0  0  0  0  0  0  0
   -4.4824   -2.3250    1.2828 H   0  0  0  0  0  0  0  0  0  0  0  0
   -3.9148   -3.3796   -0.0341 H   0  0  0  0  0  0  0  0  0  0  0  0
   -2.3420   -2.4418    1.0958 C   0  0  0  0  0  0  0  0  0  0  0  0
   -1.5293   -2.9044    1.8798 O   0  0  0  0  0  0  0  0  0  0  0  0
   -2.0334   -1.3330    0.3362 N   0  0  0  0  0  0  0  0  0  0  0  0
   -2.7864   -0.9225   -0.2135 H   0  0  0  0  0  0  0  0  0  0  0  0
   -0.7471   -0.6150    0.3345 C   0  0  1  0  0  0  0  0  0  0  0  0
   -0.1560   -0.8868    1.2158 H   0  0  0  0  0  0  0  0  0  0  0  0
    0.0592   -0.9275   -0.9505 C   0  0  0  0  0  0  0  0  0  0  0  0
   -0.6059   -1.3630   -1.7032 H   0  0  0  0  0  0  0  0  0  0  0  0
    0.4441    0.0033   -1.3810 H   0  0  0  0  0  0  0  0  0  0  0  0
    1.2194   -1.8718   -0.7206 C   0  0  0  0  0  0  0  0  0  0  0  0
    1.0238   -3.1684   -0.2228 C   0  0  0  0  0  0  0  0  0  0  0  0
    0.0235   -3.5295   -0.0132 H   0  0  0  0  0  0  0  0  0  0  0  0
    2.1104   -4.0196    0.0035 C   0  0  0  0  0  0  0  0  0  0  0  0
    1.9406   -5.0192    0.3927 H   0  0  0  0  0  0  0  0  0  0  0  0
    3.4097   -3.5838   -0.2685 C   0  0  0  0  0  0  0  0  0  0  0  0
    4.2531   -4.2450   -0.0927 H   0  0  0  0  0  0  0  0  0  0  0  0
    3.6196   -2.2956   -0.7673 C   0  0  0  0  0  0  0  0  0  0  0  0
    4.6283   -1.9544   -0.9806 H   0  0  0  0  0  0  0  0  0  0  0  0
    2.5307   -1.4457   -0.9907 C   0  0  0  0  0  0  0  0  0  0  0  0
    2.7136   -0.4476   -1.3769 H   0  0  0  0  0  0  0  0  0  0  0  0
   -1.0050    0.9025    0.3925 C   0  0  0  0  0  0  0  0  0  0  0  0
   -1.8769    1.4028   -0.3097 O   0  0  0  0  0  0  0  0  0  0  0  0
   -0.2726    1.7040    1.2484 N   0  0  0  0  0  0  0  0  0  0  0  0
    0.4103    1.2495    1.8487 H   0  0  0  0  0  0  0  0  0  0  0  0
   -0.4803    3.1410    1.3765 C   0  0  0  0  0  0  0  0  0  0  0  0
   -1.5081    3.3541    1.6888 H   0  0  0  0  0  0  0  0  0  0  0  0
    0.2013    3.5558    2.1254 H   0  0  0  0  0  0  0  0  0  0  0  0
   -0.2904    3.6413    0.4211 H   0  0  0  0  0  0  0  0  0  0  0  0
  1  2  1  0  0  0  0
  2  3  1  0  0  0  0
  2  4  1  0  0  0  0
  2  5  1  0  0  0  0
  5  6  2  0  0  0  0
  5  7  1  0  0  0  0
  7  8  1  0  0  0  0
  7  9  1  0  0  0  0
  9 10  1  0  0  0  0
  9 11  1  0  0  0  0
  9 25  1  0  0  0  0
 11 12  1  0  0  0  0
 11 13  1  0  0  0  0
 11 14  1  0  0  0  0
 14 15  1  0  0  0  0
 14 23  2  0  0  0  0
 15 16  1  0  0  0  0
 15 17  2  0  0  0  0
 17 18  1  0  0  0  0
 17 19  1  0  0  0  0
 19 20  1  0  0  0  0
 19 21  2  0  0  0  0
 21 22  1  0  0  0  0
 21 23  1  0  0  0  0
 23 24  1  0  0  0  0
 25 26  2  0  0  0  0
 25 27  1  0  0  0  0
 27 28  1  0  0  0  0
 27 29  1  0  0  0  0
 29 30  1  0  0  0  0
 29 31  1  0  0  0  0
 29 32  1  0  0  0  0
M  END
$$$$

  -OEChem-04042216033D

 32 32  0     1  0  0  0  0  0999 V2000
   -3.7216   -3.9421    1.6605 H   0  0  0  0  0  0  0  0  0  0  0  0
   -3.6736   -3.0668    1.0066 C   0  0  0  0  0  0  0  0  0  0  0  0
   -4.4051   -2.3309    1.3494 H   0  0  0  0  0  0  0  0  0  0  0  0
   -3.9244   -3.3736   -0.0118 H   0  0  0  0  0  0  0  0  0  0  0  0
   -2.2808   -2.4658    1.0380 C   0  0  0  0  0  0  0  0  0  0  0  0
   -1.4188   -2.9695    1.7394 O   0  0  0  0  0  0  0  0  0  0  0  0
   -2.0099   -1.3389    0.2905 N   0  0  0  0  0  0  0  0  0  0  0  0
   -2.7926   -0.9011   -0.1929 H   0  0  0  0  0  0  0  0  0  0  0  0
   -0.7346   -0.6036    0.2851 C   0  0  1  0  0  0  0  0  0  0  0  0
   -0.1357   -0.8806    1.1597 H   0  0  0  0  0  0  0  0  0  0  0  0
    0.0584   -0.9143   -1.0036 C   0  0  0  0  0  0  0  0  0  0  0  0
   -0.6035   -1.3593   -1.7538 H   0  0  0  0  0  0  0  0  0  0  0  0
    0.4442    0.0132   -1.4405 H   0  0  0  0  0  0  0  0  0  0  0  0
    1.2151   -1.8475   -0.7358 C   0  0  0  0  0  0  0  0  0  0  0  0
    0.9961   -3.2139   -0.5117 C   0  0  0  0  0  0  0  0  0  0  0  0
   -0.0134   -3.6128   -0.5268 H   0  0  0  0  0  0  0  0  0  0  0  0
    2.0686   -4.0739   -0.2543 C   0  0  0  0  0  0  0  0  0  0  0  0
    1.8837   -5.1290   -0.0762 H   0  0  0  0  0  0  0  0  0  0  0  0
    3.3735   -3.5742   -0.2196 C   0  0  0  0  0  0  0  0  0  0  0  0
    4.2058   -4.2426   -0.0197 H   0  0  0  0  0  0  0  0  0  0  0  0
    3.6034   -2.2131   -0.4397 C   0  0  0  0  0  0  0  0  0  0  0  0
    4.6165   -1.8230   -0.4117 H   0  0  0  0  0  0  0  0  0  0  0  0
    2.5288   -1.3542   -0.6956 C   0  0  0  0  0  0  0  0  0  0  0  0
    2.7224   -0.2994   -0.8645 H   0  0  0  0  0  0  0  0  0  0  0  0
   -1.0003    0.9106    0.3729 C   0  0  0  0  0  0  0  0  0  0  0  0
   -1.8946    1.4142   -0.2978 O   0  0  0  0  0  0  0  0  0  0  0  0
   -0.2622    1.7031    1.2322 N   0  0  0  0  0  0  0  0  0  0  0  0
    0.4314    1.2432    1.8160 H   0  0  0  0  0  0  0  0  0  0  0  0
   -0.4959    3.1315    1.4049 C   0  0  0  0  0  0  0  0  0  0  0  0
   -1.5117    3.3122    1.7715 H   0  0  0  0  0  0  0  0  0  0  0  0
    0.2121    3.5453    2.1292 H   0  0  0  0  0  0  0  0  0  0  0  0
   -0.3650    3.6584    0.4540 H   0  0  0  0  0  0  0  0  0  0  0  0
  1  2  1  0  0  0  0
  2  3  1  0  0  0  0
  2  4  1  0  0  0  0
  2  5  1  0  0  0  0
  5  6  2  0  0  0  0
  5  7  1  0  0  0  0
  7  8  1  0  0  0  0
  7  9  1  0  0  0  0
  9 10  1  0  0  0  0
  9 11  1  0  0  0  0
  9 25  1  0  0  0  0
 11 12  1  0  0  0  0
 11 13  1  0  0  0  0
 11 14  1  0  0  0  0
 14 15  1  0  0  0  0
 14 23  2  0  0  0  0
 15 16  1  0  0  0  0
 15 17  2  0  0  0  0
 17 18  1  0  0  0  0
 17 19  1  0  0  0  0
 19 20  1  0  0  0  0
 19 21  2  0  0  0  0
 21 22  1  0  0  0  0
 21 23  1  0  0  0  0
 23 24  1  0  0  0  0
 25 26  2  0  0  0  0
 25 27  1  0  0  0  0
 27 28  1  0  0  0  0
 27 29  1  0  0  0  0
 29 30  1  0  0  0  0
 29 31  1  0  0  0  0
 29 32  1  0  0  0  0
M  END
$$$$

  -OEChem-04042216033D

 32 32  0     1  0  0  0  0  0999 V2000
   -3.6725   -3.9633    1.6394 H   0  0  0  0  0  0  0  0  0  0  0  0
   -3.6390   -3.0809    0.9941 C   0  0  0  0  0  0  0  0  0  0  0  0
   -4.3730   -2.3547    1.3515 H   0  0  0  0  0  0  0  0  0  0  0  0
   -3.8978   -3.3794   -0.0245 H   0  0  0  0  0  0  0  0  0  0  0  0
   -2.2517   -2.4675    1.0171 C   0  0  0  0  0  0  0  0  0  0  0  0
   -1.3767   -2.9717    1.7019 O   0  0  0  0  0  0  0  0  0  0  0  0
   -1.9976   -1.3341    0.2736 N   0  0  0  0  0  0  0  0  0  0  0  0
   -2.7871   -0.8981   -0.1999 H   0  0  0  0  0  0  0  0  0  0  0  0
   -0.7282   -0.5900    0.2711 C   0  0  1  0  0  0  0  0  0  0  0  0
   -0.1282   -0.8662    1.1451 H   0  0  0  0  0  0  0  0  0  0  0  0
    0.0563   -0.9092   -1.0181 C   0  0  0  0  0  0  0  0  0  0  0  0
   -0.6068   -1.3537   -1.7676 H   0  0  0  0  0  0  0  0  0  0  0  0
    0.4513    0.0128   -1.4583 H   0  0  0  0  0  0  0  0  0  0  0  0
    1.2083   -1.8384   -0.7290 C   0  0  0  0  0  0  0  0  0  0  0  0
    1.0340   -3.2278   -0.7923 C   0  0  0  0  0  0  0  0  0  0  0  0
    0.0595   -3.6419   -1.0330 H   0  0  0  0  0  0  0  0  0  0  0  0
    2.1027   -4.0900   -0.5254 C   0  0  0  0  0  0  0  0  0  0  0  0
    1.9536   -5.1649   -0.5671 H   0  0  0  0  0  0  0  0  0  0  0  0
    3.3574   -3.5676   -0.1969 C   0  0  0  0  0  0  0  0  0  0  0  0
    4.1859   -4.2373    0.0128 H   0  0  0  0  0  0  0  0  0  0  0  0
    3.5416   -2.1830   -0.1344 C   0  0  0  0  0  0  0  0  0  0  0  0
    4.5156   -1.7764    0.1206 H   0  0  0  0  0  0  0  0  0  0  0  0
    2.4707   -1.3222   -0.3993 C   0  0  0  0  0  0  0  0  0  0  0  0
    2.6252   -0.2486   -0.3502 H   0  0  0  0  0  0  0  0  0  0  0  0
   -0.9964    0.9225    0.3681 C   0  0  0  0  0  0  0  0  0  0  0  0
   -1.8931    1.4282   -0.2977 O   0  0  0  0  0  0  0  0  0  0  0  0
   -0.2580    1.7106    1.2312 N   0  0  0  0  0  0  0  0  0  0  0  0
    0.4317    1.2468    1.8165 H   0  0  0  0  0  0  0  0  0  0  0  0
   -0.5015    3.1352    1.4196 C   0  0  0  0  0  0  0  0  0  0  0  0
   -1.5175    3.3040    1.7914 H   0  0  0  0  0  0  0  0  0  0  0  0
    0.2058    3.5470    2.1457 H   0  0  0  0  0  0  0  0  0  0  0  0
   -0.3781    3.6735    0.4740 H   0  0  0  0  0  0  0  0  0  0  0  0
  1  2  1  0  0  0  0
  2  3  1  0  0  0  0
  2  4  1  0  0  0  0
  2  5  1  0  0  0  0
  5  6  2  0  0  0  0
  5  7  1  0  0  0  0
  7  8  1  0  0  0  0
  7  9  1  0  0  0  0
  9 10  1  0  0  0  0
  9 11  1  0  0  0  0
  9 25  1  0  0  0  0
 11 12  1  0  0  0  0
 11 13  1  0  0  0  0
 11 14  1  0  0  0  0
 14 15  1  0  0  0  0
 14 23  2  0  0  0  0
 15 16  1  0  0  0  0
 15 17  2  0  0  0  0
 17 18  1  0  0  0  0
 17 19  1  0  0  0  0
 19 20  1  0  0  0  0
 19 21  2  0  0  0  0
 21 22  1  0  0  0  0
 21 23  1  0  0  0  0
 23 24  1  0  0  0  0
 25 26  2  0  0  0  0
 25 27  1  0  0  0  0
 27 28  1  0  0  0  0
 27 29  1  0  0  0  0
 29 30  1  0  0  0  0
 29 31  1  0  0  0  0
 29 32  1  0  0  0  0
M  END
$$$$

  -OEChem-04042216033D

 32 32  0     1  0  0  0  0  0999 V2000
   -3.6659   -3.9658    1.6268 H   0  0  0  0  0  0  0  0  0  0  0  0
   -3.6312   -3.0839    0.9811 C   0  0  0  0  0  0  0  0  0  0  0  0
   -4.3809   -2.3667    1.3238 H   0  0  0  0  0  0  0  0  0  0  0  0
   -3.8669   -3.3870   -0.0418 H   0  0  0  0  0  0  0  0  0  0  0  0
   -2.2518   -2.4543    1.0284 C   0  0  0  0  0  0  0  0  0  0  0  0
   -1.3874   -2.9394    1.7402 O   0  0  0  0  0  0  0  0  0  0  0  0
   -1.9931   -1.3252    0.2797 N   0  0  0  0  0  0  0  0  0  0  0  0
   -2.7747   -0.9004   -0.2166 H   0  0  0  0  0  0  0  0  0  0  0  0
   -0.7234   -0.5827    0.2869 C   0  0  1  0  0  0  0  0  0  0  0  0
   -0.1300   -0.8553    1.1664 H   0  0  0  0  0  0  0  0  0  0  0  0
    0.0639   -0.9075   -1.0000 C   0  0  0  0  0  0  0  0  0  0  0  0
   -0.6017   -1.3394   -1.7546 H   0  0  0  0  0  0  0  0  0  0  0  0
    0.4719    0.0121   -1.4336 H   0  0  0  0  0  0  0  0  0  0  0  0
    1.2134   -1.8419   -0.7130 C   0  0  0  0  0  0  0  0  0  0  0  0
    1.1374   -3.1948   -1.0735 C   0  0  0  0  0  0  0  0  0  0  0  0
    0.2385   -3.5834   -1.5420 H   0  0  0  0  0  0  0  0  0  0  0  0
    2.2077   -4.0589   -0.8180 C   0  0  0  0  0  0  0  0  0  0  0  0
    2.1349   -5.1074   -1.0912 H   0  0  0  0  0  0  0  0  0  0  0  0
    3.3670   -3.5745   -0.2049 C   0  0  0  0  0  0  0  0  0  0  0  0
    4.1959   -4.2464   -0.0029 H   0  0  0  0  0  0  0  0  0  0  0  0
    3.4558   -2.2251    0.1500 C   0  0  0  0  0  0  0  0  0  0  0  0
    4.3566   -1.8481    0.6246 H   0  0  0  0  0  0  0  0  0  0  0  0
    2.3843   -1.3625   -0.1056 C   0  0  0  0  0  0  0  0  0  0  0  0
    2.4659   -0.3156    0.1689 H   0  0  0  0  0  0  0  0  0  0  0  0
   -0.9947    0.9301    0.3730 C   0  0  0  0  0  0  0  0  0  0  0  0
   -1.8781    1.4313   -0.3134 O   0  0  0  0  0  0  0  0  0  0  0  0
   -0.2683    1.7259    1.2395 N   0  0  0  0  0  0  0  0  0  0  0  0
    0.3987    1.2649    1.8523 H   0  0  0  0  0  0  0  0  0  0  0  0
   -0.5215    3.1507    1.4165 C   0  0  0  0  0  0  0  0  0  0  0  0
   -1.5402    3.3157    1.7829 H   0  0  0  0  0  0  0  0  0  0  0  0
    0.1802    3.5727    2.1423 H   0  0  0  0  0  0  0  0  0  0  0  0
   -0.3976    3.6829    0.4675 H   0  0  0  0  0  0  0  0  0  0  0  0
  1  2  1  0  0  0  0
  2  3  1  0  0  0  0
  2  4  1  0  0  0  0
  2  5  1  0  0  0  0
  5  6  2  0  0  0  0
  5  7  1  0  0  0  0
  7  8  1  0  0  0  0
  7  9  1  0  0  0  0
  9 10  1  0  0  0  0
  9 11  1  0  0  0  0
  9 25  1  0  0  0  0
 11 12  1  0  0  0  0
 11 13  1  0  0  0  0
 11 14  1  0  0  0  0
 14 15  1  0  0  0  0
 14 23  2  0  0  0  0
 15 16  1  0  0  0  0
 15 17  2  0  0  0  0
 17 18  1  0  0  0  0
 17 19  1  0  0  0  0
 19 20  1  0  0  0  0
 19 21  2  0  0  0  0
 21 22  1  0  0  0  0
 21 23  1  0  0  0  0
 23 24  1  0  0  0  0
 25 26  2  0  0  0  0
 25 27  1  0  0  0  0
 27 28  1  0  0  0  0
 27 29  1  0  0  0  0
 29 30  1  0  0  0  0
 29 31  1  0  0  0  0
 29 32  1  0  0  0  0
M  END
$$$$

  -OEChem-04042216033D

 32 32  0     1  0  0  0  0  0999 V2000
   -3.6974   -3.9692    1.6161 H   0  0  0  0  0  0  0  0  0  0  0  0
   -3.6538   -3.0901    0.9670 C   0  0  0  0  0  0  0  0  0  0  0  0
   -4.4183   -2.3778    1.2865 H   0  0  0  0  0  0  0  0  0  0  0  0
   -3.8606   -3.4006   -0.0600 H   0  0  0  0  0  0  0  0  0  0  0  0
   -2.2812   -2.4483    1.0464 C   0  0  0  0  0  0  0  0  0  0  0  0
   -1.4349   -2.9165    1.7906 O   0  0  0  0  0  0  0  0  0  0  0  0
   -2.0098   -1.3240    0.2944 N   0  0  0  0  0  0  0  0  0  0  0  0
   -2.7784   -0.9116   -0.2315 H   0  0  0  0  0  0  0  0  0  0  0  0
   -0.7393   -0.5828    0.3175 C   0  0  1  0  0  0  0  0  0  0  0  0
   -0.1640   -0.8518    1.2091 H   0  0  0  0  0  0  0  0  0  0  0  0
    0.0675   -0.9127   -0.9584 C   0  0  0  0  0  0  0  0  0  0  0  0
   -0.5951   -1.3370   -1.7197 H   0  0  0  0  0  0  0  0  0  0  0  0
    0.4823    0.0070   -1.3852 H   0  0  0  0  0  0  0  0  0  0  0  0
    1.2213   -1.8486   -0.6797 C   0  0  0  0  0  0  0  0  0  0  0  0
    1.2879   -3.0972   -1.3160 C   0  0  0  0  0  0  0  0  0  0  0  0
    0.4927   -3.4115   -1.9849 H   0  0  0  0  0  0  0  0  0  0  0  0
    2.3687   -3.9560   -1.0885 C   0  0  0  0  0  0  0  0  0  0  0  0
    2.4041   -4.9248   -1.5776 H   0  0  0  0  0  0  0  0  0  0  0  0
    3.4013   -3.5689   -0.2297 C   0  0  0  0  0  0  0  0  0  0  0  0
    4.2379   -4.2375   -0.0494 H   0  0  0  0  0  0  0  0  0  0  0  0
    3.3555   -2.3196    0.3953 C   0  0  0  0  0  0  0  0  0  0  0  0
    4.1604   -2.0158    1.0579 H   0  0  0  0  0  0  0  0  0  0  0  0
    2.2743   -1.4615    0.1659 C   0  0  0  0  0  0  0  0  0  0  0  0
    2.2585   -0.4897    0.6483 H   0  0  0  0  0  0  0  0  0  0  0  0
   -1.0100    0.9313    0.3898 C   0  0  0  0  0  0  0  0  0  0  0  0
   -1.8751    1.4314   -0.3203 O   0  0  0  0  0  0  0  0  0  0  0  0
   -0.2966    1.7317    1.2628 N   0  0  0  0  0  0  0  0  0  0  0  0
    0.3652    1.2763    1.8849 H   0  0  0  0  0  0  0  0  0  0  0  0
   -0.5196    3.1659    1.3969 C   0  0  0  0  0  0  0  0  0  0  0  0
   -1.5574    3.3683    1.6816 H   0  0  0  0  0  0  0  0  0  0  0  0
    0.1372    3.5798    2.1678 H   0  0  0  0  0  0  0  0  0  0  0  0
   -0.3072    3.6759    0.4515 H   0  0  0  0  0  0  0  0  0  0  0  0
  1  2  1  0  0  0  0
  2  3  1  0  0  0  0
  2  4  1  0  0  0  0
  2  5  1  0  0  0  0
  5  6  2  0  0  0  0
  5  7  1  0  0  0  0
  7  8  1  0  0  0  0
  7  9  1  0  0  0  0
  9 10  1  0  0  0  0
  9 11  1  0  0  0  0
  9 25  1  0  0  0  0
 11 12  1  0  0  0  0
 11 13  1  0  0  0  0
 11 14  1  0  0  0  0
 14 15  1  0  0  0  0
 14 23  2  0  0  0  0
 15 16  1  0  0  0  0
 15 17  2  0  0  0  0
 17 18  1  0  0  0  0
 17 19  1  0  0  0  0
 19 20  1  0  0  0  0
 19 21  2  0  0  0  0
 21 22  1  0  0  0  0
 21 23  1  0  0  0  0
 23 24  1  0  0  0  0
 25 26  2  0  0  0  0
 25 27  1  0  0  0  0
 27 28  1  0  0  0  0
 27 29  1  0  0  0  0
 29 30  1  0  0  0  0
 29 31  1  0  0  0  0
 29 32  1  0  0  0  0
M  END
$$$$

  -OEChem-04042216033D

 32 32  0     1  0  0  0  0  0999 V2000
   -3.7431   -3.9454    1.6043 H   0  0  0  0  0  0  0  0  0  0  0  0
   -3.6848   -3.0700    0.9515 C   0  0  0  0  0  0  0  0  0  0  0  0
   -4.4562   -2.3561    1.2500 H   0  0  0  0  0  0  0  0  0  0  0  0
   -3.8686   -3.3864   -0.0781 H   0  0  0  0  0  0  0  0  0  0  0  0
   -2.3140   -2.4285    1.0591 C   0  0  0  0  0  0  0  0  0  0  0  0
   -1.4896   -2.8851    1.8349 O   0  0  0  0  0  0  0  0  0  0  0  0
   -2.0193   -1.3156    0.2986 N   0  0  0  0  0  0  0  0  0  0  0  0
   -2.7711   -0.9100   -0.2562 H   0  0  0  0  0  0  0  0  0  0  0  0
   -0.7467   -0.5794    0.3464 C   0  0  1  0  0  0  0  0  0  0  0  0
   -0.2024   -0.8377    1.2585 H   0  0  0  0  0  0  0  0  0  0  0  0
    0.0871   -0.9290   -0.9095 C   0  0  0  0  0  0  0  0  0  0  0  0
   -0.5697   -1.3501   -1.6777 H   0  0  0  0  0  0  0  0  0  0  0  0
    0.5117   -0.0125   -1.3330 H   0  0  0  0  0  0  0  0  0  0  0  0
    1.2432   -1.8702   -0.6391 C   0  0  0  0  0  0  0  0  0  0  0  0
    1.4691   -2.9522   -1.5047 C   0  0  0  0  0  0  0  0  0  0  0  0
    0.7912   -3.1393   -2.3318 H   0  0  0  0  0  0  0  0  0  0  0  0
    2.5577   -3.8093   -1.3123 C   0  0  0  0  0  0  0  0  0  0  0  0
    2.7107   -4.6506   -1.9813 H   0  0  0  0  0  0  0  0  0  0  0  0
    3.4478   -3.5836   -0.2596 C   0  0  0  0  0  0  0  0  0  0  0  0
    4.2919   -4.2499   -0.1078 H   0  0  0  0  0  0  0  0  0  0  0  0
    3.2525   -2.4945    0.5935 C   0  0  0  0  0  0  0  0  0  0  0  0
    3.9484   -2.3122    1.4069 H   0  0  0  0  0  0  0  0  0  0  0  0
    2.1635   -1.6378    0.3986 C   0  0  0  0  0  0  0  0  0  0  0  0
    2.0455   -0.7878    1.0617 H   0  0  0  0  0  0  0  0  0  0  0  0
   -1.0171    0.9365    0.3908 C   0  0  0  0  0  0  0  0  0  0  0  0
   -1.8656    1.4267   -0.3458 O   0  0  0  0  0  0  0  0  0  0  0  0
   -0.3275    1.7497    1.2715 N   0  0  0  0  0  0  0  0  0  0  0  0
    0.3238    1.3051    1.9120 H   0  0  0  0  0  0  0  0  0  0  0  0
   -0.5611    3.1842    1.3866 C   0  0  0  0  0  0  0  0  0  0  0  0
   -1.6006    3.3832    1.6678 H   0  0  0  0  0  0  0  0  0  0  0  0
    0.0921    3.6127    2.1527 H   0  0  0  0  0  0  0  0  0  0  0  0
   -0.3513    3.6841    0.4351 H   0  0  0  0  0  0  0  0  0  0  0  0
  1  2  1  0  0  0  0
  2  3  1  0  0  0  0
  2  4  1  0  0  0  0
  2  5  1  0  0  0  0
  5  6  2  0  0  0  0
  5  7  1  0  0  0  0
  7  8  1  0  0  0  0
  7  9  1  0  0  0  0
  9 10  1  0  0  0  0
  9 11  1  0  0  0  0
  9 25  1  0  0  0  0
 11 12  1  0  0  0  0
 11 13  1  0  0  0  0
 11 14  1  0  0  0  0
 14 15  1  0  0  0  0
 14 23  2  0  0  0  0
 15 16  1  0  0  0  0
 15 17  2  0  0  0  0
 17 18  1  0  0  0  0
 17 19  1  0  0  0  0
 19 20  1  0  0  0  0
 19 21  2  0  0  0  0
 21 22  1  0  0  0  0
 21 23  1  0  0  0  0
 23 24  1  0  0  0  0
 25 26  2  0  0  0  0
 25 27  1  0  0  0  0
 27 28  1  0  0  0  0
 27 29  1  0  0  0  0
 29 30  1  0  0  0  0
 29 31  1  0  0  0  0
 29 32  1  0  0  0  0
M  END
$$$$

  -OEChem-04042216033D

 32 32  0     1  0  0  0  0  0999 V2000
   -3.7954   -3.9239    1.5970 H   0  0  0  0  0  0  0  0  0  0  0  0
   -3.7215   -3.0508    0.9425 C   0  0  0  0  0  0  0  0  0  0  0  0
   -4.4979   -2.3342    1.2208 H   0  0  0  0  0  0  0  0  0  0  0  0
   -3.8829   -3.3707   -0.0898 H   0  0  0  0  0  0  0  0  0  0  0  0
   -2.3529   -2.4103    1.0780 C   0  0  0  0  0  0  0  0  0  0  0  0
   -1.5517   -2.8529    1.8859 O   0  0  0  0  0  0  0  0  0  0  0  0
   -2.0348   -1.3113    0.3071 N   0  0  0  0  0  0  0  0  0  0  0  0
   -2.7700   -0.9135   -0.2749 H   0  0  0  0  0  0  0  0  0  0  0  0
   -0.7619   -0.5779    0.3787 C   0  0  1  0  0  0  0  0  0  0  0  0
   -0.2547   -0.8163    1.3141 H   0  0  0  0  0  0  0  0  0  0  0  0
    0.1075   -0.9443   -0.8510 C   0  0  0  0  0  0  0  0  0  0  0  0
   -0.5382   -1.3676   -1.6276 H   0  0  0  0  0  0  0  0  0  0  0  0
    0.5352   -0.0277   -1.2709 H   0  0  0  0  0  0  0  0  0  0  0  0
    1.2728   -1.8851   -0.5951 C   0  0  0  0  0  0  0  0  0  0  0  0
    1.6768   -2.7372   -1.6366 C   0  0  0  0  0  0  0  0  0  0  0  0
    1.1325   -2.7417   -2.5762 H   0  0  0  0  0  0  0  0  0  0  0  0
    2.7710   -3.5955   -1.4860 C   0  0  0  0  0  0  0  0  0  0  0  0
    3.0591   -4.2562   -2.2982 H   0  0  0  0  0  0  0  0  0  0  0  0
    3.4935   -3.6019   -0.2914 C   0  0  0  0  0  0  0  0  0  0  0  0
    4.3415   -4.2696   -0.1707 H   0  0  0  0  0  0  0  0  0  0  0  0
    3.1259   -2.7410    0.7448 C   0  0  0  0  0  0  0  0  0  0  0  0
    3.6920   -2.7374    1.6715 H   0  0  0  0  0  0  0  0  0  0  0  0
    2.0324   -1.8814    0.5914 C   0  0  0  0  0  0  0  0  0  0  0  0
    1.7999   -1.2147    1.4131 H   0  0  0  0  0  0  0  0  0  0  0  0
   -1.0319    0.9391    0.3900 C   0  0  0  0  0  0  0  0  0  0  0  0
   -1.8635    1.4170   -0.3737 O   0  0  0  0  0  0  0  0  0  0  0  0
   -0.3665    1.7663    1.2760 N   0  0  0  0  0  0  0  0  0  0  0  0
    0.2875    1.3358    1.9233 H   0  0  0  0  0  0  0  0  0  0  0  0
   -0.5936    3.2041    1.3538 C   0  0  0  0  0  0  0  0  0  0  0  0
   -1.6398    3.4142    1.5997 H   0  0  0  0  0  0  0  0  0  0  0  0
    0.0392    3.6454    2.1298 H   0  0  0  0  0  0  0  0  0  0  0  0
   -0.3529    3.6819    0.3984 H   0  0  0  0  0  0  0  0  0  0  0  0
  1  2  1  0  0  0  0
  2  3  1  0  0  0  0
  2  4  1  0  0  0  0
  2  5  1  0  0  0  0
  5  6  2  0  0  0  0
  5  7  1  0  0  0  0
  7  8  1  0  0  0  0
  7  9  1  0  0  0  0
  9 10  1  0  0  0  0
  9 11  1  0  0  0  0
  9 25  1  0  0  0  0
 11 12  1  0  0  0  0
 11 13  1  0  0  0  0
 11 14  1  0  0  0  0
 14 15  1  0  0  0  0
 14 23  2  0  0  0  0
 15 16  1  0  0  0  0
 15 17  2  0  0  0  0
 17 18  1  0  0  0  0
 17 19  1  0  0  0  0
 19 20  1  0  0  0  0
 19 21  2  0  0  0  0
 21 22  1  0  0  0  0
 21 23  1  0  0  0  0
 23 24  1  0  0  0  0
 25 26  2  0  0  0  0
 25 27  1  0  0  0  0
 27 28  1  0  0  0  0
 27 29  1  0  0  0  0
 29 30  1  0  0  0  0
 29 31  1  0  0  0  0
 29 32  1  0  0  0  0
M  END
$$$$

  -OEChem-04042216033D

 32 32  0     1  0  0  0  0  0999 V2000
   -3.8103   -3.8985    1.6167 H   0  0  0  0  0  0  0  0  0  0  0  0
   -3.7306   -3.0308    0.9559 C   0  0  0  0  0  0  0  0  0  0  0  0
   -4.5095   -2.3121    1.2217 H   0  0  0  0  0  0  0  0  0  0  0  0
   -3.8831   -3.3594   -0.0750 H   0  0  0  0  0  0  0  0  0  0  0  0
   -2.3631   -2.3894    1.0981 C   0  0  0  0  0  0  0  0  0  0  0  0
   -1.5718   -2.8186    1.9236 O   0  0  0  0  0  0  0  0  0  0  0  0
   -2.0323   -1.3040    0.3135 N   0  0  0  0  0  0  0  0  0  0  0  0
   -2.7582   -0.9114   -0.2837 H   0  0  0  0  0  0  0  0  0  0  0  0
   -0.7624   -0.5687    0.4031 C   0  0  1  0  0  0  0  0  0  0  0  0
   -0.2769   -0.7718    1.3560 H   0  0  0  0  0  0  0  0  0  0  0  0
    0.1364   -0.9430   -0.8037 C   0  0  0  0  0  0  0  0  0  0  0  0
   -0.4952   -1.3728   -1.5883 H   0  0  0  0  0  0  0  0  0  0  0  0
    0.5626   -0.0240   -1.2205 H   0  0  0  0  0  0  0  0  0  0  0  0
    1.3113   -1.8794   -0.5585 C   0  0  0  0  0  0  0  0  0  0  0  0
    1.9083   -2.4587   -1.6912 C   0  0  0  0  0  0  0  0  0  0  0  0
    1.5227   -2.2312   -2.6805 H   0  0  0  0  0  0  0  0  0  0  0  0
    2.9974   -3.3280   -1.5757 C   0  0  0  0  0  0  0  0  0  0  0  0
    3.4416   -3.7641   -2.4655 H   0  0  0  0  0  0  0  0  0  0  0  0
    3.5117   -3.6368   -0.3157 C   0  0  0  0  0  0  0  0  0  0  0  0
    4.3551   -4.3145   -0.2209 H   0  0  0  0  0  0  0  0  0  0  0  0
    2.9333   -3.0745    0.8236 C   0  0  0  0  0  0  0  0  0  0  0  0
    3.3251   -3.3187    1.8066 H   0  0  0  0  0  0  0  0  0  0  0  0
    1.8448   -2.2029    0.7067 C   0  0  0  0  0  0  0  0  0  0  0  0
    1.4384   -1.8092    1.6296 H   0  0  0  0  0  0  0  0  0  0  0  0
   -1.0436    0.9467    0.3809 C   0  0  0  0  0  0  0  0  0  0  0  0
   -1.8642    1.4049   -0.4068 O   0  0  0  0  0  0  0  0  0  0  0  0
   -0.4049    1.7930    1.2684 N   0  0  0  0  0  0  0  0  0  0  0  0
    0.2518    1.3799    1.9248 H   0  0  0  0  0  0  0  0  0  0  0  0
   -0.6303    3.2326    1.3076 C   0  0  0  0  0  0  0  0  0  0  0  0
   -1.6810    3.4512    1.5250 H   0  0  0  0  0  0  0  0  0  0  0  0
   -0.0139    3.6898    2.0875 H   0  0  0  0  0  0  0  0  0  0  0  0
   -0.3662    3.6883    0.3475 H   0  0  0  0  0  0  0  0  0  0  0  0
  1  2  1  0  0  0  0
  2  3  1  0  0  0  0
  2  4  1  0  0  0  0
  2  5  1  0  0  0  0
  5  6  2  0  0  0  0
  5  7  1  0  0  0  0
  7  8  1  0  0  0  0
  7  9  1  0  0  0  0
  9 10  1  0  0  0  0
  9 11  1  0  0  0  0
  9 25  1  0  0  0  0
 11 12  1  0  0  0  0
 11 13  1  0  0  0  0
 11 14  1  0  0  0  0
 14 15  1  0  0  0  0
 14 23  2  0  0  0  0
 15 16  1  0  0  0  0
 15 17  2  0  0  0  0
 17 18  1  0  0  0  0
 17 19  1  0  0  0  0
 19 20  1  0  0  0  0
 19 21  2  0  0  0  0
 21 22  1  0  0  0  0
 21 23  1  0  0  0  0
 23 24  1  0  0  0  0
 25 26  2  0  0  0  0
 25 27  1  0  0  0  0
 27 28  1  0  0  0  0
 27 29  1  0  0  0  0
 29 30  1  0  0  0  0
 29 31  1  0  0  0  0
 29 32  1  0  0  0  0
M  END
$$$$

  -OEChem-04042216033D

 32 32  0     1  0  0  0  0  0999 V2000
   -3.8907   -3.8870    1.5975 H   0  0  0  0  0  0  0  0  0  0  0  0
   -3.7767   -3.0152    0.9472 C   0  0  0  0  0  0  0  0  0  0  0  0
   -4.5833   -2.3089    1.1583 H   0  0  0  0  0  0  0  0  0  0  0  0
   -3.8499   -3.3416   -0.0930 H   0  0  0  0  0  0  0  0  0  0  0  0
   -2.4329   -2.3534    1.1891 C   0  0  0  0  0  0  0  0  0  0  0  0
   -1.7377   -2.7159    2.1245 O   0  0  0  0  0  0  0  0  0  0  0  0
   -2.0415   -1.2995    0.3906 N   0  0  0  0  0  0  0  0  0  0  0  0
   -2.7101   -0.9674   -0.3020 H   0  0  0  0  0  0  0  0  0  0  0  0
   -0.7517   -0.5928    0.4611 C   0  0  1  0  0  0  0  0  0  0  0  0
   -0.2310   -0.7948    1.4004 H   0  0  0  0  0  0  0  0  0  0  0  0
    0.1211   -0.9802   -0.7580 C   0  0  0  0  0  0  0  0  0  0  0  0
   -0.5346   -1.1341   -1.6219 H   0  0  0  0  0  0  0  0  0  0  0  0
    0.7650   -0.1273   -0.9993 H   0  0  0  0  0  0  0  0  0  0  0  0
    1.0447   -2.1798   -0.6283 C   0  0  0  0  0  0  0  0  0  0  0  0
    1.8260   -2.5121   -1.7474 C   0  0  0  0  0  0  0  0  0  0  0  0
    1.7420   -1.9255   -2.6575 H   0  0  0  0  0  0  0  0  0  0  0  0
    2.7157   -3.5911   -1.7166 C   0  0  0  0  0  0  0  0  0  0  0  0
    3.3087   -3.8324   -2.5938 H   0  0  0  0  0  0  0  0  0  0  0  0
    2.8402   -4.3588   -0.5573 C   0  0  0  0  0  0  0  0  0  0  0  0
    3.5282   -5.1986   -0.5292 H   0  0  0  0  0  0  0  0  0  0  0  0
    2.0754   -4.0417    0.5670 C   0  0  0  0  0  0  0  0  0  0  0  0
    2.1671   -4.6348    1.4721 H   0  0  0  0  0  0  0  0  0  0  0  0
    1.1879   -2.9608    0.5340 C   0  0  0  0  0  0  0  0  0  0  0  0
    0.6236   -2.7563    1.4348 H   0  0  0  0  0  0  0  0  0  0  0  0
   -1.0069    0.9261    0.3945 C   0  0  0  0  0  0  0  0  0  0  0  0
   -1.7968    1.3798   -0.4265 O   0  0  0  0  0  0  0  0  0  0  0  0
   -0.3538    1.7852    1.2590 N   0  0  0  0  0  0  0  0  0  0  0  0
    0.2640    1.3745    1.9536 H   0  0  0  0  0  0  0  0  0  0  0  0
   -0.5633    3.2277    1.2657 C   0  0  0  0  0  0  0  0  0  0  0  0
   -1.6099    3.4619    1.4869 H   0  0  0  0  0  0  0  0  0  0  0  0
    0.0649    3.6971    2.0286 H   0  0  0  0  0  0  0  0  0  0  0  0
   -0.3035    3.6571    0.2924 H   0  0  0  0  0  0  0  0  0  0  0  0
  1  2  1  0  0  0  0
  2  3  1  0  0  0  0
  2  4  1  0  0  0  0
  2  5  1  0  0  0  0
  5  6  2  0  0  0  0
  5  7  1  0  0  0  0
  7  8  1  0  0  0  0
  7  9  1  0  0  0  0
  9 10  1  0  0  0  0
  9 11  1  0  0  0  0
  9 25  1  0  0  0  0
 11 12  1  0  0  0  0
 11 13  1  0  0  0  0
 11 14  1  0  0  0  0
 14 15  1  0  0  0  0
 14 23  2  0  0  0  0
 15 16  1  0  0  0  0
 15 17  2  0  0  0  0
 17 18  1  0  0  0  0
 17 19  1  0  0  0  0
 19 20  1  0  0  0  0
 19 21  2  0  0  0  0
 21 22  1  0  0  0  0
 21 23  1  0  0  0  0
 23 24  1  0  0  0  0
 25 26  2  0  0  0  0
 25 27  1  0  0  0  0
 27 28  1  0  0  0  0
 27 29  1  0  0  0  0
 29 30  1  0  0  0  0
 29 31  1  0  0  0  0
 29 32  1  0  0  0  0
M  END
$$$$

  -OEChem-04042216033D

 32 32  0     1  0  0  0  0  0999 V2000
   -3.9373   -3.8851    1.5816 H   0  0  0  0  0  0  0  0  0  0  0  0
   -3.8048   -3.0170    0.9299 C   0  0  0  0  0  0  0  0  0  0  0  0
   -4.6307   -2.3209    1.0961 H   0  0  0  0  0  0  0  0  0  0  0  0
   -3.8233   -3.3533   -0.1098 H   0  0  0  0  0  0  0  0  0  0  0  0
   -2.4840   -2.3333    1.2303 C   0  0  0  0  0  0  0  0  0  0  0  0
   -1.8533   -2.6462    2.2271 O   0  0  0  0  0  0  0  0  0  0  0  0
   -2.0606   -1.2944    0.4287 N   0  0  0  0  0  0  0  0  0  0  0  0
   -2.6969   -0.9961   -0.3081 H   0  0  0  0  0  0  0  0  0  0  0  0
   -0.7591   -0.6048    0.4899 C   0  0  1  0  0  0  0  0  0  0  0  0
   -0.2307   -0.8240    1.4230 H   0  0  0  0  0  0  0  0  0  0  0  0
    0.1118   -0.9874   -0.7360 C   0  0  0  0  0  0  0  0  0  0  0  0
   -0.5461   -1.1327   -1.5993 H   0  0  0  0  0  0  0  0  0  0  0  0
    0.7540   -0.1315   -0.9722 H   0  0  0  0  0  0  0  0  0  0  0  0
    1.0334   -2.1904   -0.6309 C   0  0  0  0  0  0  0  0  0  0  0  0
    2.0318   -2.3275   -1.6103 C   0  0  0  0  0  0  0  0  0  0  0  0
    2.1092   -1.5961   -2.4094 H   0  0  0  0  0  0  0  0  0  0  0  0
    2.9322   -3.3976   -1.5835 C   0  0  0  0  0  0  0  0  0  0  0  0
    3.6929   -3.4875   -2.3532 H   0  0  0  0  0  0  0  0  0  0  0  0
    2.8524   -4.3503   -0.5664 C   0  0  0  0  0  0  0  0  0  0  0  0
    3.5497   -5.1826   -0.5415 H   0  0  0  0  0  0  0  0  0  0  0  0
    1.8735   -4.2256    0.4215 C   0  0  0  0  0  0  0  0  0  0  0  0
    1.8097   -4.9599    1.2194 H   0  0  0  0  0  0  0  0  0  0  0  0
    0.9749   -3.1536    0.3903 C   0  0  0  0  0  0  0  0  0  0  0  0
    0.2452   -3.0898    1.1836 H   0  0  0  0  0  0  0  0  0  0  0  0
   -0.9988    0.9163    0.4078 C   0  0  0  0  0  0  0  0  0  0  0  0
   -1.7754    1.3716   -0.4250 O   0  0  0  0  0  0  0  0  0  0  0  0
   -0.3350    1.7769    1.2624 N   0  0  0  0  0  0  0  0  0  0  0  0
    0.2659    1.3651    1.9711 H   0  0  0  0  0  0  0  0  0  0  0  0
   -0.5309    3.2213    1.2560 C   0  0  0  0  0  0  0  0  0  0  0  0
   -1.5732    3.4676    1.4843 H   0  0  0  0  0  0  0  0  0  0  0  0
    0.1091    3.6930    2.0079 H   0  0  0  0  0  0  0  0  0  0  0  0
   -0.2764    3.6379    0.2758 H   0  0  0  0  0  0  0  0  0  0  0  0
  1  2  1  0  0  0  0
  2  3  1  0  0  0  0
  2  4  1  0  0  0  0
  2  5  1  0  0  0  0
  5  6  2  0  0  0  0
  5  7  1  0  0  0  0
  7  8  1  0  0  0  0
  7  9  1  0  0  0  0
  9 10  1  0  0  0  0
  9 11  1  0  0  0  0
  9 25  1  0  0  0  0
 11 12  1  0  0  0  0
 11 13  1  0  0  0  0
 11 14  1  0  0  0  0
 14 15  1  0  0  0  0
 14 23  2  0  0  0  0
 15 16  1  0  0  0  0
 15 17  2  0  0  0  0
 17 18  1  0  0  0  0
 17 19  1  0  0  0  0
 19 20  1  0  0  0  0
 19 21  2  0  0  0  0
 21 22  1  0  0  0  0
 21 23  1  0  0  0  0
 23 24  1  0  0  0  0
 25 26  2  0  0  0  0
 25 27  1  0  0  0  0
 27 28  1  0  0  0  0
 27 29  1  0  0  0  0
 29 30  1  0  0  0  0
 29 31  1  0  0  0  0
 29 32  1  0  0  0  0
M  END
$$$$

  -OEChem-04042216033D

 32 32  0     1  0  0  0  0  0999 V2000
   -3.9845   -3.8234    1.6721 H   0  0  0  0  0  0  0  0  0  0  0  0
   -3.8284   -2.9926    0.9782 C   0  0  0  0  0  0  0  0  0  0  0  0
   -4.6349   -2.2670    1.1088 H   0  0  0  0  0  0  0  0  0  0  0  0
   -3.8558   -3.3781   -0.0439 H   0  0  0  0  0  0  0  0  0  0  0  0
   -2.4897   -2.3317    1.2465 C   0  0  0  0  0  0  0  0  0  0  0  0
   -1.8348   -2.6612    2.2227 O   0  0  0  0  0  0  0  0  0  0  0  0
   -2.0674   -1.2970    0.4389 N   0  0  0  0  0  0  0  0  0  0  0  0
   -2.7164   -0.9788   -0.2785 H   0  0  0  0  0  0  0  0  0  0  0  0
   -0.7596   -0.6183    0.4887 C   0  0  1  0  0  0  0  0  0  0  0  0
   -0.2281   -0.8465    1.4185 H   0  0  0  0  0  0  0  0  0  0  0  0
    0.1260   -0.9782   -0.7360 C   0  0  0  0  0  0  0  0  0  0  0  0
   -0.5248   -1.1230   -1.6045 H   0  0  0  0  0  0  0  0  0  0  0  0
    0.7581   -0.1118   -0.9609 H   0  0  0  0  0  0  0  0  0  0  0  0
    1.0517   -2.1788   -0.6325 C   0  0  0  0  0  0  0  0  0  0  0  0
    2.2471   -2.1547   -1.3732 C   0  0  0  0  0  0  0  0  0  0  0  0
    2.4917   -1.2909   -1.9842 H   0  0  0  0  0  0  0  0  0  0  0  0
    3.1416   -3.2300   -1.3422 C   0  0  0  0  0  0  0  0  0  0  0  0
    4.0617   -3.1890   -1.9177 H   0  0  0  0  0  0  0  0  0  0  0  0
    2.8498   -4.3574   -0.5724 C   0  0  0  0  0  0  0  0  0  0  0  0
    3.5415   -5.1941   -0.5437 H   0  0  0  0  0  0  0  0  0  0  0  0
    1.6605   -4.4062    0.1571 C   0  0  0  0  0  0  0  0  0  0  0  0
    1.4231   -5.2823    0.7535 H   0  0  0  0  0  0  0  0  0  0  0  0
    0.7694   -3.3286    0.1212 C   0  0  0  0  0  0  0  0  0  0  0  0
   -0.1423   -3.4143    0.6901 H   0  0  0  0  0  0  0  0  0  0  0  0
   -1.0011    0.9027    0.4084 C   0  0  0  0  0  0  0  0  0  0  0  0
   -1.7854    1.3580   -0.4175 O   0  0  0  0  0  0  0  0  0  0  0  0
   -0.3298    1.7635    1.2568 N   0  0  0  0  0  0  0  0  0  0  0  0
    0.2692    1.3513    1.9670 H   0  0  0  0  0  0  0  0  0  0  0  0
   -0.5295    3.2074    1.2525 C   0  0  0  0  0  0  0  0  0  0  0  0
   -1.5688    3.4510    1.4964 H   0  0  0  0  0  0  0  0  0  0  0  0
    0.1208    3.6813    1.9938 H   0  0  0  0  0  0  0  0  0  0  0  0
   -0.2914    3.6239    0.2681 H   0  0  0  0  0  0  0  0  0  0  0  0
  1  2  1  0  0  0  0
  2  3  1  0  0  0  0
  2  4  1  0  0  0  0
  2  5  1  0  0  0  0
  5  6  2  0  0  0  0
  5  7  1  0  0  0  0
  7  8  1  0  0  0  0
  7  9  1  0  0  0  0
  9 10  1  0  0  0  0
  9 11  1  0  0  0  0
  9 25  1  0  0  0  0
 11 12  1  0  0  0  0
 11 13  1  0  0  0  0
 11 14  1  0  0  0  0
 14 15  1  0  0  0  0
 14 23  2  0  0  0  0
 15 16  1  0  0  0  0
 15 17  2  0  0  0  0
 17 18  1  0  0  0  0
 17 19  1  0  0  0  0
 19 20  1  0  0  0  0
 19 21  2  0  0  0  0
 21 22  1  0  0  0  0
 21 23  1  0  0  0  0
 23 24  1  0  0  0  0
 25 26  2  0  0  0  0
 25 27  1  0  0  0  0
 27 28  1  0  0  0  0
 27 29  1  0  0  0  0
 29 30  1  0  0  0  0
 29 31  1  0  0  0  0
 29 32  1  0  0  0  0
M  END
$$$$

  -OEChem-04042216033D

 32 32  0     1  0  0  0  0  0999 V2000
   -3.9305   -3.8474    1.7027 H   0  0  0  0  0  0  0  0  0  0  0  0
   -3.8142   -2.9932    1.0296 C   0  0  0  0  0  0  0  0  0  0  0  0
   -4.5946   -2.2610    1.2511 H   0  0  0  0  0  0  0  0  0  0  0  0
   -3.9301   -3.3391   -0.0005 H   0  0  0  0  0  0  0  0  0  0  0  0
   -2.4460   -2.3643    1.2144 C   0  0  0  0  0  0  0  0  0  0  0  0
   -1.7087   -2.7656    2.1004 O   0  0  0  0  0  0  0  0  0  0  0  0
   -2.0651   -1.3103    0.4107 N   0  0  0  0  0  0  0  0  0  0  0  0
   -2.7629   -0.9409   -0.2330 H   0  0  0  0  0  0  0  0  0  0  0  0
   -0.7628   -0.6214    0.4401 C   0  0  1  0  0  0  0  0  0  0  0  0
   -0.2174   -0.8575    1.3598 H   0  0  0  0  0  0  0  0  0  0  0  0
    0.1207   -0.9621   -0.7885 C   0  0  0  0  0  0  0  0  0  0  0  0
   -0.5283   -1.1264   -1.6546 H   0  0  0  0  0  0  0  0  0  0  0  0
    0.7394   -0.0890   -1.0235 H   0  0  0  0  0  0  0  0  0  0  0  0
    1.0458   -2.1571   -0.6452 C   0  0  0  0  0  0  0  0  0  0  0  0
    2.3767   -2.0399   -1.0838 C   0  0  0  0  0  0  0  0  0  0  0  0
    2.7412   -1.0964   -1.4784 H   0  0  0  0  0  0  0  0  0  0  0  0
    3.2589   -3.1235   -1.0142 C   0  0  0  0  0  0  0  0  0  0  0  0
    4.2867   -3.0101   -1.3461 H   0  0  0  0  0  0  0  0  0  0  0  0
    2.8166   -4.3530   -0.5218 C   0  0  0  0  0  0  0  0  0  0  0  0
    3.4986   -5.1962   -0.4641 H   0  0  0  0  0  0  0  0  0  0  0  0
    1.4884   -4.4972   -0.1157 C   0  0  0  0  0  0  0  0  0  0  0  0
    1.1328   -5.4545    0.2541 H   0  0  0  0  0  0  0  0  0  0  0  0
    0.6095   -3.4113   -0.1906 C   0  0  0  0  0  0  0  0  0  0  0  0
   -0.4193   -3.5698    0.0989 H   0  0  0  0  0  0  0  0  0  0  0  0
   -1.0117    0.8992    0.3949 C   0  0  0  0  0  0  0  0  0  0  0  0
   -1.8309    1.3653   -0.3897 O   0  0  0  0  0  0  0  0  0  0  0  0
   -0.3213    1.7454    1.2428 N   0  0  0  0  0  0  0  0  0  0  0  0
    0.3133    1.3224    1.9147 H   0  0  0  0  0  0  0  0  0  0  0  0
   -0.5238    3.1885    1.2746 C   0  0  0  0  0  0  0  0  0  0  0  0
   -1.5613    3.4242    1.5334 H   0  0  0  0  0  0  0  0  0  0  0  0
    0.1318    3.6458    2.0220 H   0  0  0  0  0  0  0  0  0  0  0  0
   -0.2952    3.6290    0.2985 H   0  0  0  0  0  0  0  0  0  0  0  0
  1  2  1  0  0  0  0
  2  3  1  0  0  0  0
  2  4  1  0  0  0  0
  2  5  1  0  0  0  0
  5  6  2  0  0  0  0
  5  7  1  0  0  0  0
  7  8  1  0  0  0  0
  7  9  1  0  0  0  0
  9 10  1  0  0  0  0
  9 11  1  0  0  0  0
  9 25  1  0  0  0  0
 11 12  1  0  0  0  0
 11 13  1  0  0  0  0
 11 14  1  0  0  0  0
 14 15  1  0  0  0  0
 14 23  2  0  0  0  0
 15 16  1  0  0  0  0
 15 17  2  0  0  0  0
 17 18  1  0  0  0  0
 17 19  1  0  0  0  0
 19 20  1  0  0  0  0
 19 21  2  0  0  0  0
 21 22  1  0  0  0  0
 21 23  1  0  0  0  0
 23 24  1  0  0  0  0
 25 26  2  0  0  0  0
 25 27  1  0  0  0  0
 27 28  1  0  0  0  0
 27 29  1  0  0  0  0
 29 30  1  0  0  0  0
 29 31  1  0  0  0  0
 29 32  1  0  0  0  0
M  END
$$$$

  -OEChem-04042216033D

 32 32  0     1  0  0  0  0  0999 V2000
   -3.8592   -3.8669    1.7131 H   0  0  0  0  0  0  0  0  0  0  0  0
   -3.7660   -3.0112    1.0382 C   0  0  0  0  0  0  0  0  0  0  0  0
   -4.5230   -2.2690    1.3033 H   0  0  0  0  0  0  0  0  0  0  0  0
   -3.9400   -3.3500    0.0140 H   0  0  0  0  0  0  0  0  0  0  0  0
   -2.3813   -2.4023    1.1542 C   0  0  0  0  0  0  0  0  0  0  0  0
   -1.5874   -2.8518    1.9643 O   0  0  0  0  0  0  0  0  0  0  0  0
   -2.0434   -1.3225    0.3652 N   0  0  0  0  0  0  0  0  0  0  0  0
   -2.7789   -0.9178   -0.2121 H   0  0  0  0  0  0  0  0  0  0  0  0
   -0.7511   -0.6160    0.3842 C   0  0  1  0  0  0  0  0  0  0  0  0
   -0.1881   -0.8641    1.2903 H   0  0  0  0  0  0  0  0  0  0  0  0
    0.1073   -0.9471   -0.8597 C   0  0  0  0  0  0  0  0  0  0  0  0
   -0.5507   -1.1240   -1.7166 H   0  0  0  0  0  0  0  0  0  0  0  0
    0.7225   -0.0768   -1.1118 H   0  0  0  0  0  0  0  0  0  0  0  0
    1.0221   -2.1409   -0.6817 C   0  0  0  0  0  0  0  0  0  0  0  0
    2.4122   -1.9792   -0.8099 C   0  0  0  0  0  0  0  0  0  0  0  0
    2.8346   -0.9971   -0.9987 H   0  0  0  0  0  0  0  0  0  0  0  0
    3.2757   -3.0734   -0.6884 C   0  0  0  0  0  0  0  0  0  0  0  0
    4.3485   -2.9313   -0.7769 H   0  0  0  0  0  0  0  0  0  0  0  0
    2.7580   -4.3497   -0.4545 C   0  0  0  0  0  0  0  0  0  0  0  0
    3.4258   -5.2003   -0.3565 H   0  0  0  0  0  0  0  0  0  0  0  0
    1.3763   -4.5296   -0.3539 C   0  0  0  0  0  0  0  0  0  0  0  0
    0.9668   -5.5203   -0.1800 H   0  0  0  0  0  0  0  0  0  0  0  0
    0.5162   -3.4335   -0.4778 C   0  0  0  0  0  0  0  0  0  0  0  0
   -0.5525   -3.6004   -0.4179 H   0  0  0  0  0  0  0  0  0  0  0  0
   -1.0098    0.9028    0.3825 C   0  0  0  0  0  0  0  0  0  0  0  0
   -1.8582    1.3801   -0.3634 O   0  0  0  0  0  0  0  0  0  0  0  0
   -0.3068    1.7325    1.2362 N   0  0  0  0  0  0  0  0  0  0  0  0
    0.3484    1.2976    1.8803 H   0  0  0  0  0  0  0  0  0  0  0  0
   -0.5304    3.1705    1.3204 C   0  0  0  0  0  0  0  0  0  0  0  0
   -1.5654    3.3813    1.6096 H   0  0  0  0  0  0  0  0  0  0  0  0
    0.1345    3.6134    2.0681 H   0  0  0  0  0  0  0  0  0  0  0  0
   -0.3301    3.6466    0.3548 H   0  0  0  0  0  0  0  0  0  0  0  0
  1  2  1  0  0  0  0
  2  3  1  0  0  0  0
  2  4  1  0  0  0  0
  2  5  1  0  0  0  0
  5  6  2  0  0  0  0
  5  7  1  0  0  0  0
  7  8  1  0  0  0  0
  7  9  1  0  0  0  0
  9 10  1  0  0  0  0
  9 11  1  0  0  0  0
  9 25  1  0  0  0  0
 11 12  1  0  0  0  0
 11 13  1  0  0  0  0
 11 14  1  0  0  0  0
 14 15  1  0  0  0  0
 14 23  2  0  0  0  0
 15 16  1  0  0  0  0
 15 17  2  0  0  0  0
 17 18  1  0  0  0  0
 17 19  1  0  0  0  0
 19 20  1  0  0  0  0
 19 21  2  0  0  0  0
 21 22  1  0  0  0  0
 21 23  1  0  0  0  0
 23 24  1  0  0  0  0
 25 26  2  0  0  0  0
 25 27  1  0  0  0  0
 27 28  1  0  0  0  0
 27 29  1  0  0  0  0
 29 30  1  0  0  0  0
 29 31  1  0  0  0  0
 29 32  1  0  0  0  0
M  END
$$$$

  -OEChem-04042216033D

 32 32  0     1  0  0  0  0  0999 V2000
   -3.7698   -3.9341    1.6560 H   0  0  0  0  0  0  0  0  0  0  0  0
   -3.7024   -3.0604    1.0014 C   0  0  0  0  0  0  0  0  0  0  0  0
   -4.4649   -2.3368    1.2996 H   0  0  0  0  0  0  0  0  0  0  0  0
   -3.8916   -3.3761   -0.0275 H   0  0  0  0  0  0  0  0  0  0  0  0
   -2.3247   -2.4337    1.1054 C   0  0  0  0  0  0  0  0  0  0  0  0
   -1.5056   -2.8950    1.8830 O   0  0  0  0  0  0  0  0  0  0  0  0
   -2.0210   -1.3303    0.3356 N   0  0  0  0  0  0  0  0  0  0  0  0
   -2.7741   -0.9215   -0.2151 H   0  0  0  0  0  0  0  0  0  0  0  0
   -0.7400   -0.6058    0.3520 C   0  0  1  0  0  0  0  0  0  0  0  0
   -0.1586   -0.8670    1.2430 H   0  0  0  0  0  0  0  0  0  0  0  0
    0.0832   -0.9294   -0.9126 C   0  0  0  0  0  0  0  0  0  0  0  0
   -0.5900   -1.1071   -1.7578 H   0  0  0  0  0  0  0  0  0  0  0  0
    0.7002   -0.0647   -1.1792 H   0  0  0  0  0  0  0  0  0  0  0  0
    0.9882   -2.1238   -0.7194 C   0  0  0  0  0  0  0  0  0  0  0  0
    2.3701   -1.9442   -0.5475 C   0  0  0  0  0  0  0  0  0  0  0  0
    2.7952   -0.9454   -0.5386 H   0  0  0  0  0  0  0  0  0  0  0  0
    3.2164   -3.0464   -0.3834 C   0  0  0  0  0  0  0  0  0  0  0  0
    4.2833   -2.8973   -0.2470 H   0  0  0  0  0  0  0  0  0  0  0  0
    2.6889   -4.3407   -0.3928 C   0  0  0  0  0  0  0  0  0  0  0  0
    3.3431   -5.1973   -0.2598 H   0  0  0  0  0  0  0  0  0  0  0  0
    1.3158   -4.5309   -0.5719 C   0  0  0  0  0  0  0  0  0  0  0  0
    0.9012   -5.5346   -0.5765 H   0  0  0  0  0  0  0  0  0  0  0  0
    0.4724   -3.4276   -0.7398 C   0  0  0  0  0  0  0  0  0  0  0  0
   -0.5914   -3.5890   -0.8786 H   0  0  0  0  0  0  0  0  0  0  0  0
   -1.0060    0.9103    0.3899 C   0  0  0  0  0  0  0  0  0  0  0  0
   -1.8643    1.3992   -0.3366 O   0  0  0  0  0  0  0  0  0  0  0  0
   -0.2955    1.7256    1.2513 N   0  0  0  0  0  0  0  0  0  0  0  0
    0.3693    1.2814    1.8789 H   0  0  0  0  0  0  0  0  0  0  0  0
   -0.5114    3.1635    1.3533 C   0  0  0  0  0  0  0  0  0  0  0  0
   -1.5473    3.3772    1.6370 H   0  0  0  0  0  0  0  0  0  0  0  0
    0.1503    3.5926    2.1120 H   0  0  0  0  0  0  0  0  0  0  0  0
   -0.3004    3.6498    0.3951 H   0  0  0  0  0  0  0  0  0  0  0  0
  1  2  1  0  0  0  0
  2  3  1  0  0  0  0
  2  4  1  0  0  0  0
  2  5  1  0  0  0  0
  5  6  2  0  0  0  0
  5  7  1  0  0  0  0
  7  8  1  0  0  0  0
  7  9  1  0  0  0  0
  9 10  1  0  0  0  0
  9 11  1  0  0  0  0
  9 25  1  0  0  0  0
 11 12  1  0  0  0  0
 11 13  1  0  0  0  0
 11 14  1  0  0  0  0
 14 15  1  0  0  0  0
 14 23  2  0  0  0  0
 15 16  1  0  0  0  0
 15 17  2  0  0  0  0
 17 18  1  0  0  0  0
 17 19  1  0  0  0  0
 19 20  1  0  0  0  0
 19 21  2  0  0  0  0
 21 22  1  0  0  0  0
 21 23  1  0  0  0  0
 23 24  1  0  0  0  0
 25 26  2  0  0  0  0
 25 27  1  0  0  0  0
 27 28  1  0  0  0  0
 27 29  1  0  0  0  0
 29 30  1  0  0  0  0
 29 31  1  0  0  0  0
 29 32  1  0  0  0  0
M  END
$$$$

  -OEChem-04042216033D

 32 32  0     1  0  0  0  0  0999 V2000
   -3.7036   -3.9686    1.6266 H   0  0  0  0  0  0  0  0  0  0  0  0
   -3.6538   -3.0896    0.9777 C   0  0  0  0  0  0  0  0  0  0  0  0
   -4.4246   -2.3791    1.2862 H   0  0  0  0  0  0  0  0  0  0  0  0
   -3.8455   -3.4010   -0.0519 H   0  0  0  0  0  0  0  0  0  0  0  0
   -2.2849   -2.4436    1.0763 C   0  0  0  0  0  0  0  0  0  0  0  0
   -1.4543   -2.8990    1.8455 O   0  0  0  0  0  0  0  0  0  0  0  0
   -2.0019   -1.3294    0.3138 N   0  0  0  0  0  0  0  0  0  0  0  0
   -2.7620   -0.9252   -0.2303 H   0  0  0  0  0  0  0  0  0  0  0  0
   -0.7267   -0.5962    0.3320 C   0  0  1  0  0  0  0  0  0  0  0  0
   -0.1376   -0.8615    1.2163 H   0  0  0  0  0  0  0  0  0  0  0  0
    0.0758   -0.9180   -0.9436 C   0  0  0  0  0  0  0  0  0  0  0  0
   -0.6053   -1.0881   -1.7840 H   0  0  0  0  0  0  0  0  0  0  0  0
    0.7018   -0.0607   -1.2139 H   0  0  0  0  0  0  0  0  0  0  0  0
    0.9723   -2.1149   -0.7419 C   0  0  0  0  0  0  0  0  0  0  0  0
    2.2848   -1.9534   -0.2716 C   0  0  0  0  0  0  0  0  0  0  0  0
    2.6677   -0.9621   -0.0498 H   0  0  0  0  0  0  0  0  0  0  0  0
    3.1122   -3.0660   -0.0818 C   0  0  0  0  0  0  0  0  0  0  0  0
    4.1257   -2.9342    0.2848 H   0  0  0  0  0  0  0  0  0  0  0  0
    2.6330   -4.3497   -0.3596 C   0  0  0  0  0  0  0  0  0  0  0  0
    3.2722   -5.2145   -0.2077 H   0  0  0  0  0  0  0  0  0  0  0  0
    1.3266   -4.5196   -0.8270 C   0  0  0  0  0  0  0  0  0  0  0  0
    0.9494   -5.5161   -1.0360 H   0  0  0  0  0  0  0  0  0  0  0  0
    0.5013   -3.4065   -1.0172 C   0  0  0  0  0  0  0  0  0  0  0  0
   -0.5148   -3.5488   -1.3709 H   0  0  0  0  0  0  0  0  0  0  0  0
   -0.9978    0.9185    0.3879 C   0  0  0  0  0  0  0  0  0  0  0  0
   -1.8605    1.4122   -0.3299 O   0  0  0  0  0  0  0  0  0  0  0  0
   -0.2867    1.7282    1.2542 N   0  0  0  0  0  0  0  0  0  0  0  0
    0.3782    1.2796    1.8784 H   0  0  0  0  0  0  0  0  0  0  0  0
   -0.5126    3.1633    1.3754 C   0  0  0  0  0  0  0  0  0  0  0  0
   -1.5482    3.3657    1.6683 H   0  0  0  0  0  0  0  0  0  0  0  0
    0.1508    3.5871    2.1351 H   0  0  0  0  0  0  0  0  0  0  0  0
   -0.3115    3.6640    0.4226 H   0  0  0  0  0  0  0  0  0  0  0  0
  1  2  1  0  0  0  0
  2  3  1  0  0  0  0
  2  4  1  0  0  0  0
  2  5  1  0  0  0  0
  5  6  2  0  0  0  0
  5  7  1  0  0  0  0
  7  8  1  0  0  0  0
  7  9  1  0  0  0  0
  9 10  1  0  0  0  0
  9 11  1  0  0  0  0
  9 25  1  0  0  0  0
 11 12  1  0  0  0  0
 11 13  1  0  0  0  0
 11 14  1  0  0  0  0
 14 15  1  0  0  0  0
 14 23  2  0  0  0  0
 15 16  1  0  0  0  0
 15 17  2  0  0  0  0
 17 18  1  0  0  0  0
 17 19  1  0  0  0  0
 19 20  1  0  0  0  0
 19 21  2  0  0  0  0
 21 22  1  0  0  0  0
 21 23  1  0  0  0  0
 23 24  1  0  0  0  0
 25 26  2  0  0  0  0
 25 27  1  0  0  0  0
 27 28  1  0  0  0  0
 27 29  1  0  0  0  0
 29 30  1  0  0  0  0
 29 31  1  0  0  0  0
 29 32  1  0  0  0  0
M  END
$$$$

  -OEChem-04042216033D

 32 32  0     1  0  0  0  0  0999 V2000
   -3.6883   -3.9739    1.6129 H   0  0  0  0  0  0  0  0  0  0  0  0
   -3.6410   -3.0951    0.9638 C   0  0  0  0  0  0  0  0  0  0  0  0
   -4.4190   -2.3904    1.2668 H   0  0  0  0  0  0  0  0  0  0  0  0
   -3.8235   -3.4087   -0.0668 H   0  0  0  0  0  0  0  0  0  0  0  0
   -2.2774   -2.4393    1.0711 C   0  0  0  0  0  0  0  0  0  0  0  0
   -1.4511   -2.8826    1.8523 O   0  0  0  0  0  0  0  0  0  0  0  0
   -1.9965   -1.3241    0.3093 N   0  0  0  0  0  0  0  0  0  0  0  0
   -2.7527   -0.9274   -0.2452 H   0  0  0  0  0  0  0  0  0  0  0  0
   -0.7223   -0.5905    0.3316 C   0  0  1  0  0  0  0  0  0  0  0  0
   -0.1351   -0.8562    1.2167 H   0  0  0  0  0  0  0  0  0  0  0  0
    0.0726   -0.9189   -0.9472 C   0  0  0  0  0  0  0  0  0  0  0  0
   -0.6127   -1.0782   -1.7863 H   0  0  0  0  0  0  0  0  0  0  0  0
    0.7075   -0.0675   -1.2152 H   0  0  0  0  0  0  0  0  0  0  0  0
    0.9664   -2.1189   -0.7503 C   0  0  0  0  0  0  0  0  0  0  0  0
    2.1518   -2.0115   -0.0069 C   0  0  0  0  0  0  0  0  0  0  0  0
    2.4409   -1.0580    0.4233 H   0  0  0  0  0  0  0  0  0  0  0  0
    2.9723   -3.1282    0.1863 C   0  0  0  0  0  0  0  0  0  0  0  0
    3.8875   -3.0367    0.7634 H   0  0  0  0  0  0  0  0  0  0  0  0
    2.6123   -4.3636   -0.3602 C   0  0  0  0  0  0  0  0  0  0  0  0
    3.2467   -5.2317   -0.2082 H   0  0  0  0  0  0  0  0  0  0  0  0
    1.4307   -4.4814   -1.0981 C   0  0  0  0  0  0  0  0  0  0  0  0
    1.1458   -5.4414   -1.5179 H   0  0  0  0  0  0  0  0  0  0  0  0
    0.6115   -3.3637   -1.2906 C   0  0  0  0  0  0  0  0  0  0  0  0
   -0.3080   -3.4681   -1.8580 H   0  0  0  0  0  0  0  0  0  0  0  0
   -0.9921    0.9242    0.3883 C   0  0  0  0  0  0  0  0  0  0  0  0
   -1.8488    1.4199   -0.3352 O   0  0  0  0  0  0  0  0  0  0  0  0
   -0.2826    1.7322    1.2575 N   0  0  0  0  0  0  0  0  0  0  0  0
    0.3715    1.2814    1.8912 H   0  0  0  0  0  0  0  0  0  0  0  0
   -0.5138    3.1659    1.3836 C   0  0  0  0  0  0  0  0  0  0  0  0
   -1.5504    3.3635    1.6765 H   0  0  0  0  0  0  0  0  0  0  0  0
    0.1475    3.5903    2.1452 H   0  0  0  0  0  0  0  0  0  0  0  0
   -0.3143    3.6709    0.4326 H   0  0  0  0  0  0  0  0  0  0  0  0
  1  2  1  0  0  0  0
  2  3  1  0  0  0  0
  2  4  1  0  0  0  0
  2  5  1  0  0  0  0
  5  6  2  0  0  0  0
  5  7  1  0  0  0  0
  7  8  1  0  0  0  0
  7  9  1  0  0  0  0
  9 10  1  0  0  0  0
  9 11  1  0  0  0  0
  9 25  1  0  0  0  0
 11 12  1  0  0  0  0
 11 13  1  0  0  0  0
 11 14  1  0  0  0  0
 14 15  1  0  0  0  0
 14 23  2  0  0  0  0
 15 16  1  0  0  0  0
 15 17  2  0  0  0  0
 17 18  1  0  0  0  0
 17 19  1  0  0  0  0
 19 20  1  0  0  0  0
 19 21  2  0  0  0  0
 21 22  1  0  0  0  0
 21 23  1  0  0  0  0
 23 24  1  0  0  0  0
 25 26  2  0  0  0  0
 25 27  1  0  0  0  0
 27 28  1  0  0  0  0
 27 29  1  0  0  0  0
 29 30  1  0  0  0  0
 29 31  1  0  0  0  0
 29 32  1  0  0  0  0
M  END
$$$$

  -OEChem-04042216033D

 32 32  0     1  0  0  0  0  0999 V2000
   -3.7054   -3.9673    1.6113 H   0  0  0  0  0  0  0  0  0  0  0  0
   -3.6529   -3.0887    0.9623 C   0  0  0  0  0  0  0  0  0  0  0  0
   -4.4381   -2.3870    1.2538 H   0  0  0  0  0  0  0  0  0  0  0  0
   -3.8198   -3.4043   -0.0704 H   0  0  0  0  0  0  0  0  0  0  0  0
   -2.2937   -2.4264    1.0884 C   0  0  0  0  0  0  0  0  0  0  0  0
   -1.4797   -2.8569    1.8897 O   0  0  0  0  0  0  0  0  0  0  0  0
   -2.0027   -1.3184    0.3200 N   0  0  0  0  0  0  0  0  0  0  0  0
   -2.7489   -0.9324   -0.2552 H   0  0  0  0  0  0  0  0  0  0  0  0
   -0.7280   -0.5863    0.3515 C   0  0  1  0  0  0  0  0  0  0  0  0
   -0.1562   -0.8422    1.2482 H   0  0  0  0  0  0  0  0  0  0  0  0
    0.0764   -0.9283   -0.9198 C   0  0  0  0  0  0  0  0  0  0  0  0
   -0.6080   -1.0807   -1.7609 H   0  0  0  0  0  0  0  0  0  0  0  0
    0.7161   -0.0797   -1.1837 H   0  0  0  0  0  0  0  0  0  0  0  0
    0.9768   -2.1293   -0.7372 C   0  0  0  0  0  0  0  0  0  0  0  0
    1.9904   -2.1375    0.2349 C   0  0  0  0  0  0  0  0  0  0  0  0
    2.1509   -1.2701    0.8661 H   0  0  0  0  0  0  0  0  0  0  0  0
    2.8080   -3.2604    0.4020 C   0  0  0  0  0  0  0  0  0  0  0  0
    3.5865   -3.2573    1.1591 H   0  0  0  0  0  0  0  0  0  0  0  0
    2.6200   -4.3887   -0.4011 C   0  0  0  0  0  0  0  0  0  0  0  0
    3.2520   -5.2617   -0.2692 H   0  0  0  0  0  0  0  0  0  0  0  0
    1.6133   -4.3927   -1.3703 C   0  0  0  0  0  0  0  0  0  0  0  0
    1.4625   -5.2696   -1.9925 H   0  0  0  0  0  0  0  0  0  0  0  0
    0.7960   -3.2694   -1.5353 C   0  0  0  0  0  0  0  0  0  0  0  0
    0.0130   -3.2901   -2.2868 H   0  0  0  0  0  0  0  0  0  0  0  0
   -0.9963    0.9296    0.3915 C   0  0  0  0  0  0  0  0  0  0  0  0
   -1.8436    1.4196   -0.3469 O   0  0  0  0  0  0  0  0  0  0  0  0
   -0.2967    1.7453    1.2618 N   0  0  0  0  0  0  0  0  0  0  0  0
    0.3537    1.3011    1.9038 H   0  0  0  0  0  0  0  0  0  0  0  0
   -0.5248    3.1812    1.3693 C   0  0  0  0  0  0  0  0  0  0  0  0
   -1.5656    3.3849    1.6423 H   0  0  0  0  0  0  0  0  0  0  0  0
    0.1244    3.6115    2.1380 H   0  0  0  0  0  0  0  0  0  0  0  0
   -0.3069    3.6759    0.4169 H   0  0  0  0  0  0  0  0  0  0  0  0
  1  2  1  0  0  0  0
  2  3  1  0  0  0  0
  2  4  1  0  0  0  0
  2  5  1  0  0  0  0
  5  6  2  0  0  0  0
  5  7  1  0  0  0  0
  7  8  1  0  0  0  0
  7  9  1  0  0  0  0
  9 10  1  0  0  0  0
  9 11  1  0  0  0  0
  9 25  1  0  0  0  0
 11 12  1  0  0  0  0
 11 13  1  0  0  0  0
 11 14  1  0  0  0  0
 14 15  1  0  0  0  0
 14 23  2  0  0  0  0
 15 16  1  0  0  0  0
 15 17  2  0  0  0  0
 17 18  1  0  0  0  0
 17 19  1  0  0  0  0
 19 20  1  0  0  0  0
 19 21  2  0  0  0  0
 21 22  1  0  0  0  0
 21 23  1  0  0  0  0
 23 24  1  0  0  0  0
 25 26  2  0  0  0  0
 25 27  1  0  0  0  0
 27 28  1  0  0  0  0
 27 29  1  0  0  0  0
 29 30  1  0  0  0  0
 29 31  1  0  0  0  0
 29 32  1  0  0  0  0
M  END
$$$$

  -OEChem-04042216033D

 32 32  0     1  0  0  0  0  0999 V2000
   -3.7327   -3.9561    1.6114 H   0  0  0  0  0  0  0  0  0  0  0  0
   -3.6757   -3.0736    0.9681 C   0  0  0  0  0  0  0  0  0  0  0  0
   -4.4714   -2.3797    1.2495 H   0  0  0  0  0  0  0  0  0  0  0  0
   -3.8215   -3.3851   -0.0690 H   0  0  0  0  0  0  0  0  0  0  0  0
   -2.3238   -2.4020    1.1204 C   0  0  0  0  0  0  0  0  0  0  0  0
   -1.5318   -2.8114    1.9547 O   0  0  0  0  0  0  0  0  0  0  0  0
   -2.0127   -1.3098    0.3374 N   0  0  0  0  0  0  0  0  0  0  0  0
   -2.7394   -0.9412   -0.2731 H   0  0  0  0  0  0  0  0  0  0  0  0
   -0.7361   -0.5824    0.3854 C   0  0  1  0  0  0  0  0  0  0  0  0
   -0.1922   -0.8175    1.3029 H   0  0  0  0  0  0  0  0  0  0  0  0
    0.0909   -0.9424   -0.8693 C   0  0  0  0  0  0  0  0  0  0  0  0
   -0.5872   -1.0883   -1.7167 H   0  0  0  0  0  0  0  0  0  0  0  0
    0.7350   -0.0948   -1.1260 H   0  0  0  0  0  0  0  0  0  0  0  0
    1.0001   -2.1448   -0.7048 C   0  0  0  0  0  0  0  0  0  0  0  0
    1.8105   -2.3325    0.4296 C   0  0  0  0  0  0  0  0  0  0  0  0
    1.8265   -1.6037    1.2320 H   0  0  0  0  0  0  0  0  0  0  0  0
    2.6226   -3.4656    0.5481 C   0  0  0  0  0  0  0  0  0  0  0  0
    3.2384   -3.6007    1.4323 H   0  0  0  0  0  0  0  0  0  0  0  0
    2.6397   -4.4253   -0.4667 C   0  0  0  0  0  0  0  0  0  0  0  0
    3.2685   -5.3056   -0.3729 H   0  0  0  0  0  0  0  0  0  0  0  0
    1.8447   -4.2496   -1.6014 C   0  0  0  0  0  0  0  0  0  0  0  0
    1.8546   -4.9941   -2.3919 H   0  0  0  0  0  0  0  0  0  0  0  0
    1.0323   -3.1170   -1.7175 C   0  0  0  0  0  0  0  0  0  0  0  0
    0.4184   -2.9990   -2.6051 H   0  0  0  0  0  0  0  0  0  0  0  0
   -1.0042    0.9343    0.3910 C   0  0  0  0  0  0  0  0  0  0  0  0
   -1.8329    1.4112   -0.3767 O   0  0  0  0  0  0  0  0  0  0  0  0
   -0.3250    1.7661    1.2621 N   0  0  0  0  0  0  0  0  0  0  0  0
    0.3179    1.3354    1.9207 H   0  0  0  0  0  0  0  0  0  0  0  0
   -0.5515    3.2044    1.3349 C   0  0  0  0  0  0  0  0  0  0  0  0
   -1.5977    3.4163    1.5799 H   0  0  0  0  0  0  0  0  0  0  0  0
    0.0814    3.6481    2.1094 H   0  0  0  0  0  0  0  0  0  0  0  0
   -0.3105    3.6790    0.3779 H   0  0  0  0  0  0  0  0  0  0  0  0
  1  2  1  0  0  0  0
  2  3  1  0  0  0  0
  2  4  1  0  0  0  0
  2  5  1  0  0  0  0
  5  6  2  0  0  0  0
  5  7  1  0  0  0  0
  7  8  1  0  0  0  0
  7  9  1  0  0  0  0
  9 10  1  0  0  0  0
  9 11  1  0  0  0  0
  9 25  1  0  0  0  0
 11 12  1  0  0  0  0
 11 13  1  0  0  0  0
 11 14  1  0  0  0  0
 14 15  1  0  0  0  0
 14 23  2  0  0  0  0
 15 16  1  0  0  0  0
 15 17  2  0  0  0  0
 17 18  1  0  0  0  0
 17 19  1  0  0  0  0
 19 20  1  0  0  0  0
 19 21  2  0  0  0  0
 21 22  1  0  0  0  0
 21 23  1  0  0  0  0
 23 24  1  0  0  0  0
 25 26  2  0  0  0  0
 25 27  1  0  0  0  0
 27 28  1  0  0  0  0
 27 29  1  0  0  0  0
 29 30  1  0  0  0  0
 29 31  1  0  0  0  0
 29 32  1  0  0  0  0
M  END
$$$$

  -OEChem-04042216033D

 32 32  0     1  0  0  0  0  0999 V2000
   -3.8268   -3.8727    1.6751 H   0  0  0  0  0  0  0  0  0  0  0  0
   -3.7348   -3.0248    0.9907 C   0  0  0  0  0  0  0  0  0  0  0  0
   -4.5188   -2.2994    1.2206 H   0  0  0  0  0  0  0  0  0  0  0  0
   -3.8667   -3.3838   -0.0328 H   0  0  0  0  0  0  0  0  0  0  0  0
   -2.3708   -2.3777    1.1397 C   0  0  0  0  0  0  0  0  0  0  0  0
   -1.5924   -2.7865    1.9875 O   0  0  0  0  0  0  0  0  0  0  0  0
   -2.0334   -1.3033    0.3430 N   0  0  0  0  0  0  0  0  0  0  0  0
   -2.7493   -0.9263   -0.2754 H   0  0  0  0  0  0  0  0  0  0  0  0
   -0.7504   -0.5893    0.4088 C   0  0  1  0  0  0  0  0  0  0  0  0
   -0.2333   -0.8009    1.3452 H   0  0  0  0  0  0  0  0  0  0  0  0
    0.1045   -0.9716   -0.8218 C   0  0  0  0  0  0  0  0  0  0  0  0
   -0.5613   -1.1183   -1.6790 H   0  0  0  0  0  0  0  0  0  0  0  0
    0.7549   -0.1263   -1.0706 H   0  0  0  0  0  0  0  0  0  0  0  0
    1.0163   -2.1781   -0.6685 C   0  0  0  0  0  0  0  0  0  0  0  0
    1.5974   -2.5785    0.5509 C   0  0  0  0  0  0  0  0  0  0  0  0
    1.4197   -2.0404    1.4741 H   0  0  0  0  0  0  0  0  0  0  0  0
    2.4289   -3.7022    0.6129 C   0  0  0  0  0  0  0  0  0  0  0  0
    2.8601   -4.0030    1.5631 H   0  0  0  0  0  0  0  0  0  0  0  0
    2.7019   -4.4397   -0.5409 C   0  0  0  0  0  0  0  0  0  0  0  0
    3.3458   -5.3126   -0.4899 H   0  0  0  0  0  0  0  0  0  0  0  0
    2.1418   -4.0513   -1.7591 C   0  0  0  0  0  0  0  0  0  0  0  0
    2.3520   -4.6210   -2.6593 H   0  0  0  0  0  0  0  0  0  0  0  0
    1.3077   -2.9303   -1.8191 C   0  0  0  0  0  0  0  0  0  0  0  0
    0.8816   -2.6449   -2.7762 H   0  0  0  0  0  0  0  0  0  0  0  0
   -1.0101    0.9292    0.3808 C   0  0  0  0  0  0  0  0  0  0  0  0
   -1.8234    1.3968   -0.4087 O   0  0  0  0  0  0  0  0  0  0  0  0
   -0.3464    1.7720    1.2534 N   0  0  0  0  0  0  0  0  0  0  0  0
    0.2853    1.3499    1.9283 H   0  0  0  0  0  0  0  0  0  0  0  0
   -0.5710    3.2114    1.3013 C   0  0  0  0  0  0  0  0  0  0  0  0
   -1.6144    3.4285    1.5531 H   0  0  0  0  0  0  0  0  0  0  0  0
    0.0705    3.6694    2.0602 H   0  0  0  0  0  0  0  0  0  0  0  0
   -0.3393    3.6674    0.3331 H   0  0  0  0  0  0  0  0  0  0  0  0
  1  2  1  0  0  0  0
  2  3  1  0  0  0  0
  2  4  1  0  0  0  0
  2  5  1  0  0  0  0
  5  6  2  0  0  0  0
  5  7  1  0  0  0  0
  7  8  1  0  0  0  0
  7  9  1  0  0  0  0
  9 10  1  0  0  0  0
  9 11  1  0  0  0  0
  9 25  1  0  0  0  0
 11 12  1  0  0  0  0
 11 13  1  0  0  0  0
 11 14  1  0  0  0  0
 14 15  1  0  0  0  0
 14 23  2  0  0  0  0
 15 16  1  0  0  0  0
 15 17  2  0  0  0  0
 17 18  1  0  0  0  0
 17 19  1  0  0  0  0
 19 20  1  0  0  0  0
 19 21  2  0  0  0  0
 21 22  1  0  0  0  0
 21 23  1  0  0  0  0
 23 24  1  0  0  0  0
 25 26  2  0  0  0  0
 25 27  1  0  0  0  0
 27 28  1  0  0  0  0
 27 29  1  0  0  0  0
 29 30  1  0  0  0  0
 29 31  1  0  0  0  0
 29 32  1  0  0  0  0
M  END
$$$$

  -OEChem-04042216033D

 32 32  0     1  0  0  0  0  0999 V2000
   -3.8721   -3.8634    1.6534 H   0  0  0  0  0  0  0  0  0  0  0  0
   -3.7697   -3.0043    0.9846 C   0  0  0  0  0  0  0  0  0  0  0  0
   -4.5567   -2.2819    1.2140 H   0  0  0  0  0  0  0  0  0  0  0  0
   -3.8865   -3.3463   -0.0466 H   0  0  0  0  0  0  0  0  0  0  0  0
   -2.4081   -2.3603    1.1647 C   0  0  0  0  0  0  0  0  0  0  0  0
   -1.6560   -2.7588    2.0407 O   0  0  0  0  0  0  0  0  0  0  0  0
   -2.0458   -1.2980    0.3631 N   0  0  0  0  0  0  0  0  0  0  0  0
   -2.7431   -0.9321   -0.2827 H   0  0  0  0  0  0  0  0  0  0  0  0
   -0.7557   -0.5969    0.4328 C   0  0  1  0  0  0  0  0  0  0  0  0
   -0.2396   -0.7979    1.3725 H   0  0  0  0  0  0  0  0  0  0  0  0
    0.1034   -0.9898   -0.7916 C   0  0  0  0  0  0  0  0  0  0  0  0
   -0.5596   -1.1352   -1.6511 H   0  0  0  0  0  0  0  0  0  0  0  0
    0.7579   -0.1466   -1.0375 H   0  0  0  0  0  0  0  0  0  0  0  0
    1.0112   -2.2017   -0.6537 C   0  0  0  0  0  0  0  0  0  0  0  0
    1.3592   -2.8106    0.5687 C   0  0  0  0  0  0  0  0  0  0  0  0
    0.9711   -2.4627    1.5184 H   0  0  0  0  0  0  0  0  0  0  0  0
    2.2134   -3.9183    0.5996 C   0  0  0  0  0  0  0  0  0  0  0  0
    2.4601   -4.3816    1.5505 H   0  0  0  0  0  0  0  0  0  0  0  0
    2.7414   -4.4335   -0.5858 C   0  0  0  0  0  0  0  0  0  0  0  0
    3.4021   -5.2949   -0.5589 H   0  0  0  0  0  0  0  0  0  0  0  0
    2.4127   -3.8385   -1.8049 C   0  0  0  0  0  0  0  0  0  0  0  0
    2.8203   -4.2345   -2.7301 H   0  0  0  0  0  0  0  0  0  0  0  0
    1.5563   -2.7332   -1.8344 C   0  0  0  0  0  0  0  0  0  0  0  0
    1.3127   -2.2830   -2.7921 H   0  0  0  0  0  0  0  0  0  0  0  0
   -1.0072    0.9232    0.3859 C   0  0  0  0  0  0  0  0  0  0  0  0
   -1.8082    1.3863   -0.4189 O   0  0  0  0  0  0  0  0  0  0  0  0
   -0.3475    1.7737    1.2542 N   0  0  0  0  0  0  0  0  0  0  0  0
    0.2779    1.3574    1.9386 H   0  0  0  0  0  0  0  0  0  0  0  0
   -0.5595    3.2160    1.2765 C   0  0  0  0  0  0  0  0  0  0  0  0
   -1.6047    3.4462    1.5085 H   0  0  0  0  0  0  0  0  0  0  0  0
    0.0743    3.6802    2.0382 H   0  0  0  0  0  0  0  0  0  0  0  0
   -0.3090    3.6548    0.3050 H   0  0  0  0  0  0  0  0  0  0  0  0
  1  2  1  0  0  0  0
  2  3  1  0  0  0  0
  2  4  1  0  0  0  0
  2  5  1  0  0  0  0
  5  6  2  0  0  0  0
  5  7  1  0  0  0  0
  7  8  1  0  0  0  0
  7  9  1  0  0  0  0
  9 10  1  0  0  0  0
  9 11  1  0  0  0  0
  9 25  1  0  0  0  0
 11 12  1  0  0  0  0
 11 13  1  0  0  0  0
 11 14  1  0  0  0  0
 14 15  1  0  0  0  0
 14 23  2  0  0  0  0
 15 16  1  0  0  0  0
 15 17  2  0  0  0  0
 17 18  1  0  0  0  0
 17 19  1  0  0  0  0
 19 20  1  0  0  0  0
 19 21  2  0  0  0  0
 21 22  1  0  0  0  0
 21 23  1  0  0  0  0
 23 24  1  0  0  0  0
 25 26  2  0  0  0  0
 25 27  1  0  0  0  0
 27 28  1  0  0  0  0
 27 29  1  0  0  0  0
 29 30  1  0  0  0  0
 29 31  1  0  0  0  0
 29 32  1  0  0  0  0
M  END
$$$$

  -OEChem-04042216033D

 32 32  0     1  0  0  0  0  0999 V2000
   -3.9497   -3.8253    1.6623 H   0  0  0  0  0  0  0  0  0  0  0  0
   -3.7991   -3.0015    0.9589 C   0  0  0  0  0  0  0  0  0  0  0  0
   -4.5961   -2.2673    1.0993 H   0  0  0  0  0  0  0  0  0  0  0  0
   -3.8502   -3.3948   -0.0593 H   0  0  0  0  0  0  0  0  0  0  0  0
   -2.4490   -2.3513    1.1955 C   0  0  0  0  0  0  0  0  0  0  0  0
   -1.7534   -2.7200    2.1281 O   0  0  0  0  0  0  0  0  0  0  0  0
   -2.0527   -1.2995    0.3967 N   0  0  0  0  0  0  0  0  0  0  0  0
   -2.7231   -0.9589   -0.2901 H   0  0  0  0  0  0  0  0  0  0  0  0
   -0.7557   -0.6054    0.4590 C   0  0  1  0  0  0  0  0  0  0  0  0
   -0.2287   -0.8162    1.3931 H   0  0  0  0  0  0  0  0  0  0  0  0
    0.1030   -0.9947   -0.7699 C   0  0  0  0  0  0  0  0  0  0  0  0
   -0.5618   -1.1391   -1.6283 H   0  0  0  0  0  0  0  0  0  0  0  0
    0.7523   -0.1466   -1.0139 H   0  0  0  0  0  0  0  0  0  0  0  0
    1.0166   -2.2034   -0.6548 C   0  0  0  0  0  0  0  0  0  0  0  0
    1.1452   -3.0054    0.4946 C   0  0  0  0  0  0  0  0  0  0  0  0
    0.5875   -2.8018    1.3996 H   0  0  0  0  0  0  0  0  0  0  0  0
    2.0098   -4.1050    0.5091 C   0  0  0  0  0  0  0  0  0  0  0  0
    2.0920   -4.7127    1.4055 H   0  0  0  0  0  0  0  0  0  0  0  0
    2.7624   -4.4228   -0.6234 C   0  0  0  0  0  0  0  0  0  0  0  0
    3.4324   -5.2774   -0.6097 H   0  0  0  0  0  0  0  0  0  0  0  0
    2.6484   -3.6372   -1.7718 C   0  0  0  0  0  0  0  0  0  0  0  0
    3.2306   -3.8800   -2.6557 H   0  0  0  0  0  0  0  0  0  0  0  0
    1.7824   -2.5390   -1.7836 C   0  0  0  0  0  0  0  0  0  0  0  0
    1.7048   -1.9401   -2.6862 H   0  0  0  0  0  0  0  0  0  0  0  0
   -0.9989    0.9156    0.3975 C   0  0  0  0  0  0  0  0  0  0  0  0
   -1.7897    1.3772   -0.4183 O   0  0  0  0  0  0  0  0  0  0  0  0
   -0.3331    1.7688    1.2581 N   0  0  0  0  0  0  0  0  0  0  0  0
    0.2807    1.3526    1.9530 H   0  0  0  0  0  0  0  0  0  0  0  0
   -0.5397    3.2117    1.2723 C   0  0  0  0  0  0  0  0  0  0  0  0
   -1.5810    3.4465    1.5163 H   0  0  0  0  0  0  0  0  0  0  0  0
    0.1058    3.6789    2.0223 H   0  0  0  0  0  0  0  0  0  0  0  0
   -0.3004    3.6430    0.2945 H   0  0  0  0  0  0  0  0  0  0  0  0
  1  2  1  0  0  0  0
  2  3  1  0  0  0  0
  2  4  1  0  0  0  0
  2  5  1  0  0  0  0
  5  6  2  0  0  0  0
  5  7  1  0  0  0  0
  7  8  1  0  0  0  0
  7  9  1  0  0  0  0
  9 10  1  0  0  0  0
  9 11  1  0  0  0  0
  9 25  1  0  0  0  0
 11 12  1  0  0  0  0
 11 13  1  0  0  0  0
 11 14  1  0  0  0  0
 14 15  1  0  0  0  0
 14 23  2  0  0  0  0
 15 16  1  0  0  0  0
 15 17  2  0  0  0  0
 17 18  1  0  0  0  0
 17 19  1  0  0  0  0
 19 20  1  0  0  0  0
 19 21  2  0  0  0  0
 21 22  1  0  0  0  0
 21 23  1  0  0  0  0
 23 24  1  0  0  0  0
 25 26  2  0  0  0  0
 25 27  1  0  0  0  0
 27 28  1  0  0  0  0
 27 29  1  0  0  0  0
 29 30  1  0  0  0  0
 29 31  1  0  0  0  0
 29 32  1  0  0  0  0
M  END
$$$$

  -OEChem-04042216033D

 32 32  0     1  0  0  0  0  0999 V2000
   -3.9952   -3.8137    1.6603 H   0  0  0  0  0  0  0  0  0  0  0  0
   -3.8137   -3.0110    0.9402 C   0  0  0  0  0  0  0  0  0  0  0  0
   -4.6258   -2.2833    1.0108 H   0  0  0  0  0  0  0  0  0  0  0  0
   -3.8019   -3.4372   -0.0659 H   0  0  0  0  0  0  0  0  0  0  0  0
   -2.4869   -2.3357    1.2320 C   0  0  0  0  0  0  0  0  0  0  0  0
   -1.8494   -2.6553    2.2224 O   0  0  0  0  0  0  0  0  0  0  0  0
   -2.0650   -1.2957    0.4309 N   0  0  0  0  0  0  0  0  0  0  0  0
   -2.7067   -0.9897   -0.2980 H   0  0  0  0  0  0  0  0  0  0  0  0
   -0.7593   -0.6136    0.4846 C   0  0  1  0  0  0  0  0  0  0  0  0
   -0.2245   -0.8403    1.4120 H   0  0  0  0  0  0  0  0  0  0  0  0
    0.1008   -0.9938   -0.7499 C   0  0  0  0  0  0  0  0  0  0  0  0
   -0.5642   -1.1316   -1.6089 H   0  0  0  0  0  0  0  0  0  0  0  0
    0.7457   -0.1401   -0.9867 H   0  0  0  0  0  0  0  0  0  0  0  0
    1.0175   -2.2013   -0.6588 C   0  0  0  0  0  0  0  0  0  0  0  0
    0.9430   -3.1860    0.3403 C   0  0  0  0  0  0  0  0  0  0  0  0
    0.2219   -3.1223    1.1412 H   0  0  0  0  0  0  0  0  0  0  0  0
    1.8160   -4.2792    0.3407 C   0  0  0  0  0  0  0  0  0  0  0  0
    1.7422   -5.0271    1.1249 H   0  0  0  0  0  0  0  0  0  0  0  0
    2.7794   -4.4085   -0.6618 C   0  0  0  0  0  0  0  0  0  0  0  0
    3.4574   -5.2569   -0.6602 H   0  0  0  0  0  0  0  0  0  0  0  0
    2.8659   -3.4420   -1.6654 C   0  0  0  0  0  0  0  0  0  0  0  0
    3.6119   -3.5376   -2.4488 H   0  0  0  0  0  0  0  0  0  0  0  0
    1.9895   -2.3518   -1.6625 C   0  0  0  0  0  0  0  0  0  0  0  0
    2.0669   -1.6136   -2.4552 H   0  0  0  0  0  0  0  0  0  0  0  0
   -0.9918    0.9091    0.4109 C   0  0  0  0  0  0  0  0  0  0  0  0
   -1.7732    1.3719   -0.4133 O   0  0  0  0  0  0  0  0  0  0  0  0
   -0.3171    1.7630    1.2637 N   0  0  0  0  0  0  0  0  0  0  0  0
    0.2802    1.3450    1.9720 H   0  0  0  0  0  0  0  0  0  0  0  0
   -0.5132    3.2074    1.2688 C   0  0  0  0  0  0  0  0  0  0  0  0
   -1.5513    3.4517    1.5171 H   0  0  0  0  0  0  0  0  0  0  0  0
    0.1400    3.6755    2.0115 H   0  0  0  0  0  0  0  0  0  0  0  0
   -0.2767    3.6299    0.2866 H   0  0  0  0  0  0  0  0  0  0  0  0
  1  2  1  0  0  0  0
  2  3  1  0  0  0  0
  2  4  1  0  0  0  0
  2  5  1  0  0  0  0
  5  6  2  0  0  0  0
  5  7  1  0  0  0  0
  7  8  1  0  0  0  0
  7  9  1  0  0  0  0
  9 10  1  0  0  0  0
  9 11  1  0  0  0  0
  9 25  1  0  0  0  0
 11 12  1  0  0  0  0
 11 13  1  0  0  0  0
 11 14  1  0  0  0  0
 14 15  1  0  0  0  0
 14 23  2  0  0  0  0
 15 16  1  0  0  0  0
 15 17  2  0  0  0  0
 17 18  1  0  0  0  0
 17 19  1  0  0  0  0
 19 20  1  0  0  0  0
 19 21  2  0  0  0  0
 21 22  1  0  0  0  0
 21 23  1  0  0  0  0
 23 24  1  0  0  0  0
 25 26  2  0  0  0  0
 25 27  1  0  0  0  0
 27 28  1  0  0  0  0
 27 29  1  0  0  0  0
 29 30  1  0  0  0  0
 29 31  1  0  0  0  0
 29 32  1  0  0  0  0
M  END
$$$$

  -OEChem-04042216033D

 32 32  0     1  0  0  0  0  0999 V2000
   -3.9981   -3.8340    1.6450 H   0  0  0  0  0  0  0  0  0  0  0  0
   -3.8457   -2.9907    0.9656 C   0  0  0  0  0  0  0  0  0  0  0  0
   -4.6470   -2.2638    1.1190 H   0  0  0  0  0  0  0  0  0  0  0  0
   -3.8866   -3.3558   -0.0636 H   0  0  0  0  0  0  0  0  0  0  0  0
   -2.5012   -2.3409    1.2318 C   0  0  0  0  0  0  0  0  0  0  0  0
   -1.8427   -2.6821    2.2015 O   0  0  0  0  0  0  0  0  0  0  0  0
   -2.0804   -1.3003    0.4314 N   0  0  0  0  0  0  0  0  0  0  0  0
   -2.7350   -0.9730   -0.2768 H   0  0  0  0  0  0  0  0  0  0  0  0
   -0.7669   -0.6315    0.4688 C   0  0  1  0  0  0  0  0  0  0  0  0
   -0.2236   -0.8745    1.3879 H   0  0  0  0  0  0  0  0  0  0  0  0
    0.0953   -0.9902   -0.7724 C   0  0  0  0  0  0  0  0  0  0  0  0
   -0.5710   -1.1231   -1.6310 H   0  0  0  0  0  0  0  0  0  0  0  0
    0.7311   -0.1276   -1.0015 H   0  0  0  0  0  0  0  0  0  0  0  0
    1.0126   -2.1991   -0.6940 C   0  0  0  0  0  0  0  0  0  0  0  0
    0.7570   -3.3357    0.0891 C   0  0  0  0  0  0  0  0  0  0  0  0
   -0.1320   -3.4106    0.6941 H   0  0  0  0  0  0  0  0  0  0  0  0
    1.6486   -4.4130    0.1118 C   0  0  0  0  0  0  0  0  0  0  0  0
    1.4322   -5.2785    0.7312 H   0  0  0  0  0  0  0  0  0  0  0  0
    2.8126   -4.3763   -0.6578 C   0  0  0  0  0  0  0  0  0  0  0  0
    3.5046   -5.2131   -0.6400 H   0  0  0  0  0  0  0  0  0  0  0  0
    3.0800   -3.2599   -1.4521 C   0  0  0  0  0  0  0  0  0  0  0  0
    3.9813   -3.2269   -2.0568 H   0  0  0  0  0  0  0  0  0  0  0  0
    2.1861   -2.1841   -1.4688 C   0  0  0  0  0  0  0  0  0  0  0  0
    2.4123   -1.3277   -2.0971 H   0  0  0  0  0  0  0  0  0  0  0  0
   -0.9934    0.8927    0.4093 C   0  0  0  0  0  0  0  0  0  0  0  0
   -1.7883    1.3658   -0.3962 O   0  0  0  0  0  0  0  0  0  0  0  0
   -0.2993    1.7352    1.2580 N   0  0  0  0  0  0  0  0  0  0  0  0
    0.3106    1.3072    1.9495 H   0  0  0  0  0  0  0  0  0  0  0  0
   -0.4895    3.1800    1.2833 C   0  0  0  0  0  0  0  0  0  0  0  0
   -1.5262    3.4259    1.5363 H   0  0  0  0  0  0  0  0  0  0  0  0
    0.1664    3.6344    2.0321 H   0  0  0  0  0  0  0  0  0  0  0  0
   -0.2515    3.6149    0.3069 H   0  0  0  0  0  0  0  0  0  0  0  0
  1  2  1  0  0  0  0
  2  3  1  0  0  0  0
  2  4  1  0  0  0  0
  2  5  1  0  0  0  0
  5  6  2  0  0  0  0
  5  7  1  0  0  0  0
  7  8  1  0  0  0  0
  7  9  1  0  0  0  0
  9 10  1  0  0  0  0
  9 11  1  0  0  0  0
  9 25  1  0  0  0  0
 11 12  1  0  0  0  0
 11 13  1  0  0  0  0
 11 14  1  0  0  0  0
 14 15  1  0  0  0  0
 14 23  2  0  0  0  0
 15 16  1  0  0  0  0
 15 17  2  0  0  0  0
 17 18  1  0  0  0  0
 17 19  1  0  0  0  0
 19 20  1  0  0  0  0
 19 21  2  0  0  0  0
 21 22  1  0  0  0  0
 21 23  1  0  0  0  0
 23 24  1  0  0  0  0
 25 26  2  0  0  0  0
 25 27  1  0  0  0  0
 27 28  1  0  0  0  0
 27 29  1  0  0  0  0
 29 30  1  0  0  0  0
 29 31  1  0  0  0  0
 29 32  1  0  0  0  0
M  END
$$$$

  -OEChem-04042216033D

 32 32  0     1  0  0  0  0  0999 V2000
   -3.9693   -3.8384    1.6848 H   0  0  0  0  0  0  0  0  0  0  0  0
   -3.8398   -2.9853    1.0131 C   0  0  0  0  0  0  0  0  0  0  0  0
   -4.6062   -2.2396    1.2378 H   0  0  0  0  0  0  0  0  0  0  0  0
   -3.9644   -3.3270   -0.0173 H   0  0  0  0  0  0  0  0  0  0  0  0
   -2.4606   -2.3799    1.1942 C   0  0  0  0  0  0  0  0  0  0  0  0
   -1.7234   -2.7974    2.0730 O   0  0  0  0  0  0  0  0  0  0  0  0
   -2.0759   -1.3181    0.4030 N   0  0  0  0  0  0  0  0  0  0  0  0
   -2.7764   -0.9345   -0.2293 H   0  0  0  0  0  0  0  0  0  0  0  0
   -0.7651   -0.6447    0.4194 C   0  0  1  0  0  0  0  0  0  0  0  0
   -0.2033   -0.9026    1.3231 H   0  0  0  0  0  0  0  0  0  0  0  0
    0.0872   -0.9700   -0.8364 C   0  0  0  0  0  0  0  0  0  0  0  0
   -0.5851   -1.1062   -1.6896 H   0  0  0  0  0  0  0  0  0  0  0  0
    0.7083   -0.0973   -1.0660 H   0  0  0  0  0  0  0  0  0  0  0  0
    1.0062   -2.1765   -0.7539 C   0  0  0  0  0  0  0  0  0  0  0  0
    0.6080   -3.4143   -0.2262 C   0  0  0  0  0  0  0  0  0  0  0  0
   -0.4034   -3.5716    0.1179 H   0  0  0  0  0  0  0  0  0  0  0  0
    1.5017   -4.4878   -0.1505 C   0  0  0  0  0  0  0  0  0  0  0  0
    1.1721   -5.4355    0.2652 H   0  0  0  0  0  0  0  0  0  0  0  0
    2.8126   -4.3421   -0.6088 C   0  0  0  0  0  0  0  0  0  0  0  0
    3.5068   -5.1752   -0.5491 H   0  0  0  0  0  0  0  0  0  0  0  0
    3.2249   -3.1212   -1.1464 C   0  0  0  0  0  0  0  0  0  0  0  0
    4.2421   -3.0032   -1.5079 H   0  0  0  0  0  0  0  0  0  0  0  0
    2.3282   -2.0497   -1.2174 C   0  0  0  0  0  0  0  0  0  0  0  0
    2.6726   -1.1099   -1.6384 H   0  0  0  0  0  0  0  0  0  0  0  0
   -1.0024    0.8784    0.4023 C   0  0  0  0  0  0  0  0  0  0  0  0
   -1.8282    1.3636   -0.3639 O   0  0  0  0  0  0  0  0  0  0  0  0
   -0.2900    1.7053    1.2508 N   0  0  0  0  0  0  0  0  0  0  0  0
    0.3471    1.2657    1.9098 H   0  0  0  0  0  0  0  0  0  0  0  0
   -0.4814    3.1490    1.3097 C   0  0  0  0  0  0  0  0  0  0  0  0
   -1.5127    3.3887    1.5891 H   0  0  0  0  0  0  0  0  0  0  0  0
    0.1894    3.5887    2.0539 H   0  0  0  0  0  0  0  0  0  0  0  0
   -0.2644    3.6043    0.3378 H   0  0  0  0  0  0  0  0  0  0  0  0
  1  2  1  0  0  0  0
  2  3  1  0  0  0  0
  2  4  1  0  0  0  0
  2  5  1  0  0  0  0
  5  6  2  0  0  0  0
  5  7  1  0  0  0  0
  7  8  1  0  0  0  0
  7  9  1  0  0  0  0
  9 10  1  0  0  0  0
  9 11  1  0  0  0  0
  9 25  1  0  0  0  0
 11 12  1  0  0  0  0
 11 13  1  0  0  0  0
 11 14  1  0  0  0  0
 14 15  1  0  0  0  0
 14 23  2  0  0  0  0
 15 16  1  0  0  0  0
 15 17  2  0  0  0  0
 17 18  1  0  0  0  0
 17 19  1  0  0  0  0
 19 20  1  0  0  0  0
 19 21  2  0  0  0  0
 21 22  1  0  0  0  0
 21 23  1  0  0  0  0
 23 24  1  0  0  0  0
 25 26  2  0  0  0  0
 25 27  1  0  0  0  0
 27 28  1  0  0  0  0
 27 29  1  0  0  0  0
 29 30  1  0  0  0  0
 29 31  1  0  0  0  0
 29 32  1  0  0  0  0
M  END
$$$$

  -OEChem-04042216033D

 32 32  0     1  0  0  0  0  0999 V2000
   -3.8504   -3.8984    1.6809 H   0  0  0  0  0  0  0  0  0  0  0  0
   -3.7627   -3.0321    1.0193 C   0  0  0  0  0  0  0  0  0  0  0  0
   -4.5166   -2.2937    1.3027 H   0  0  0  0  0  0  0  0  0  0  0  0
   -3.9463   -3.3545   -0.0085 H   0  0  0  0  0  0  0  0  0  0  0  0
   -2.3769   -2.4253    1.1327 C   0  0  0  0  0  0  0  0  0  0  0  0
   -1.5752   -2.8883    1.9276 O   0  0  0  0  0  0  0  0  0  0  0  0
   -2.0474   -1.3318    0.3592 N   0  0  0  0  0  0  0  0  0  0  0  0
   -2.7885   -0.9204   -0.2059 H   0  0  0  0  0  0  0  0  0  0  0  0
   -0.7517   -0.6312    0.3620 C   0  0  1  0  0  0  0  0  0  0  0  0
   -0.1675   -0.9005    1.2483 H   0  0  0  0  0  0  0  0  0  0  0  0
    0.0741   -0.9380   -0.9111 C   0  0  0  0  0  0  0  0  0  0  0  0
   -0.6082   -1.0932   -1.7531 H   0  0  0  0  0  0  0  0  0  0  0  0
    0.6826   -0.0625   -1.1616 H   0  0  0  0  0  0  0  0  0  0  0  0
    0.9924   -2.1379   -0.7951 C   0  0  0  0  0  0  0  0  0  0  0  0
    0.5061   -3.4257   -0.5246 C   0  0  0  0  0  0  0  0  0  0  0  0
   -0.5574   -3.6010   -0.4220 H   0  0  0  0  0  0  0  0  0  0  0  0
    1.3794   -4.5103   -0.3939 C   0  0  0  0  0  0  0  0  0  0  0  0
    0.9843   -5.4985   -0.1784 H   0  0  0  0  0  0  0  0  0  0  0  0
    2.7560   -4.3218   -0.5369 C   0  0  0  0  0  0  0  0  0  0  0  0
    3.4342   -5.1638   -0.4343 H   0  0  0  0  0  0  0  0  0  0  0  0
    3.2560   -3.0466   -0.8112 C   0  0  0  0  0  0  0  0  0  0  0  0
    4.3255   -2.8958   -0.9233 H   0  0  0  0  0  0  0  0  0  0  0  0
    2.3795   -1.9638   -0.9383 C   0  0  0  0  0  0  0  0  0  0  0  0
    2.7895   -0.9808   -1.1479 H   0  0  0  0  0  0  0  0  0  0  0  0
   -1.0046    0.8883    0.3957 C   0  0  0  0  0  0  0  0  0  0  0  0
   -1.8611    1.3840   -0.3283 O   0  0  0  0  0  0  0  0  0  0  0  0
   -0.2798    1.7000    1.2485 N   0  0  0  0  0  0  0  0  0  0  0  0
    0.3847    1.2511    1.8731 H   0  0  0  0  0  0  0  0  0  0  0  0
   -0.4830    3.1400    1.3494 C   0  0  0  0  0  0  0  0  0  0  0  0
   -1.5164    3.3631    1.6350 H   0  0  0  0  0  0  0  0  0  0  0  0
    0.1835    3.5641    2.1065 H   0  0  0  0  0  0  0  0  0  0  0  0
   -0.2695    3.6247    0.3909 H   0  0  0  0  0  0  0  0  0  0  0  0
  1  2  1  0  0  0  0
  2  3  1  0  0  0  0
  2  4  1  0  0  0  0
  2  5  1  0  0  0  0
  5  6  2  0  0  0  0
  5  7  1  0  0  0  0
  7  8  1  0  0  0  0
  7  9  1  0  0  0  0
  9 10  1  0  0  0  0
  9 11  1  0  0  0  0
  9 25  1  0  0  0  0
 11 12  1  0  0  0  0
 11 13  1  0  0  0  0
 11 14  1  0  0  0  0
 14 15  1  0  0  0  0
 14 23  2  0  0  0  0
 15 16  1  0  0  0  0
 15 17  2  0  0  0  0
 17 18  1  0  0  0  0
 17 19  1  0  0  0  0
 19 20  1  0  0  0  0
 19 21  2  0  0  0  0
 21 22  1  0  0  0  0
 21 23  1  0  0  0  0
 23 24  1  0  0  0  0
 25 26  2  0  0  0  0
 25 27  1  0  0  0  0
 27 28  1  0  0  0  0
 27 29  1  0  0  0  0
 29 30  1  0  0  0  0
 29 31  1  0  0  0  0
 29 32  1  0  0  0  0
M  END
$$$$

  -OEChem-04042216033D

 32 32  0     1  0  0  0  0  0999 V2000
   -3.7429   -3.9433    1.6561 H   0  0  0  0  0  0  0  0  0  0  0  0
   -3.6809   -3.0707    0.9998 C   0  0  0  0  0  0  0  0  0  0  0  0
   -4.4354   -2.3431    1.3088 H   0  0  0  0  0  0  0  0  0  0  0  0
   -3.8866   -3.3862   -0.0259 H   0  0  0  0  0  0  0  0  0  0  0  0
   -2.2990   -2.4503    1.0827 C   0  0  0  0  0  0  0  0  0  0  0  0
   -1.4666   -2.9223    1.8396 O   0  0  0  0  0  0  0  0  0  0  0  0
   -2.0078   -1.3376    0.3217 N   0  0  0  0  0  0  0  0  0  0  0  0
   -2.7710   -0.9204   -0.2084 H   0  0  0  0  0  0  0  0  0  0  0  0
   -0.7274   -0.6113    0.3268 C   0  0  1  0  0  0  0  0  0  0  0  0
   -0.1316   -0.8823    1.2051 H   0  0  0  0  0  0  0  0  0  0  0  0
    0.0770   -0.9140   -0.9556 C   0  0  0  0  0  0  0  0  0  0  0  0
   -0.6097   -1.0810   -1.7920 H   0  0  0  0  0  0  0  0  0  0  0  0
    0.6868   -0.0432   -1.2195 H   0  0  0  0  0  0  0  0  0  0  0  0
    0.9891   -2.1086   -0.7993 C   0  0  0  0  0  0  0  0  0  0  0  0
    0.4749   -3.4132   -0.8018 C   0  0  0  0  0  0  0  0  0  0  0  0
   -0.5908   -3.5772   -0.9199 H   0  0  0  0  0  0  0  0  0  0  0  0
    1.3230   -4.5146   -0.6458 C   0  0  0  0  0  0  0  0  0  0  0  0
    0.9101   -5.5190   -0.6414 H   0  0  0  0  0  0  0  0  0  0  0  0
    2.6983   -4.3217   -0.4888 C   0  0  0  0  0  0  0  0  0  0  0  0
    3.3562   -5.1768   -0.3662 H   0  0  0  0  0  0  0  0  0  0  0  0
    3.2230   -3.0263   -0.4858 C   0  0  0  0  0  0  0  0  0  0  0  0
    4.2912   -2.8745   -0.3628 H   0  0  0  0  0  0  0  0  0  0  0  0
    2.3720   -1.9261   -0.6389 C   0  0  0  0  0  0  0  0  0  0  0  0
    2.7949   -0.9262   -0.6327 H   0  0  0  0  0  0  0  0  0  0  0  0
   -0.9984    0.9035    0.3868 C   0  0  0  0  0  0  0  0  0  0  0  0
   -1.8720    1.3968   -0.3182 O   0  0  0  0  0  0  0  0  0  0  0  0
   -0.2782    1.7119    1.2467 N   0  0  0  0  0  0  0  0  0  0  0  0
    0.3945    1.2625    1.8620 H   0  0  0  0  0  0  0  0  0  0  0  0
   -0.5110    3.1445    1.3811 C   0  0  0  0  0  0  0  0  0  0  0  0
   -1.5388    3.3380    1.7055 H   0  0  0  0  0  0  0  0  0  0  0  0
    0.1716    3.5703    2.1228 H   0  0  0  0  0  0  0  0  0  0  0  0
   -0.3419    3.6506    0.4249 H   0  0  0  0  0  0  0  0  0  0  0  0
  1  2  1  0  0  0  0
  2  3  1  0  0  0  0
  2  4  1  0  0  0  0
  2  5  1  0  0  0  0
  5  6  2  0  0  0  0
  5  7  1  0  0  0  0
  7  8  1  0  0  0  0
  7  9  1  0  0  0  0
  9 10  1  0  0  0  0
  9 11  1  0  0  0  0
  9 25  1  0  0  0  0
 11 12  1  0  0  0  0
 11 13  1  0  0  0  0
 11 14  1  0  0  0  0
 14 15  1  0  0  0  0
 14 23  2  0  0  0  0
 15 16  1  0  0  0  0
 15 17  2  0  0  0  0
 17 18  1  0  0  0  0
 17 19  1  0  0  0  0
 19 20  1  0  0  0  0
 19 21  2  0  0  0  0
 21 22  1  0  0  0  0
 21 23  1  0  0  0  0
 23 24  1  0  0  0  0
 25 26  2  0  0  0  0
 25 27  1  0  0  0  0
 27 28  1  0  0  0  0
 27 29  1  0  0  0  0
 29 30  1  0  0  0  0
 29 31  1  0  0  0  0
 29 32  1  0  0  0  0
M  END
$$$$

  -OEChem-04042216033D

 32 32  0     1  0  0  0  0  0999 V2000
   -3.6605   -3.9849    1.6259 H   0  0  0  0  0  0  0  0  0  0  0  0
   -3.6199   -3.1059    0.9765 C   0  0  0  0  0  0  0  0  0  0  0  0
   -4.3912   -2.3989    1.2915 H   0  0  0  0  0  0  0  0  0  0  0  0
   -3.8189   -3.4184   -0.0514 H   0  0  0  0  0  0  0  0  0  0  0  0
   -2.2527   -2.4539    1.0634 C   0  0  0  0  0  0  0  0  0  0  0  0
   -1.4107   -2.9101    1.8197 O   0  0  0  0  0  0  0  0  0  0  0  0
   -1.9843   -1.3330    0.3055 N   0  0  0  0  0  0  0  0  0  0  0  0
   -2.7527   -0.9286   -0.2266 H   0  0  0  0  0  0  0  0  0  0  0  0
   -0.7127   -0.5933    0.3134 C   0  0  1  0  0  0  0  0  0  0  0  0
   -0.1110   -0.8624    1.1883 H   0  0  0  0  0  0  0  0  0  0  0  0
    0.0747   -0.9011   -0.9747 C   0  0  0  0  0  0  0  0  0  0  0  0
   -0.6159   -1.0673   -1.8080 H   0  0  0  0  0  0  0  0  0  0  0  0
    0.6932   -0.0387   -1.2457 H   0  0  0  0  0  0  0  0  0  0  0  0
    0.9796   -2.0946   -0.7940 C   0  0  0  0  0  0  0  0  0  0  0  0
    0.5150   -3.3865   -1.0785 C   0  0  0  0  0  0  0  0  0  0  0  0
   -0.5037   -3.5327   -1.4231 H   0  0  0  0  0  0  0  0  0  0  0  0
    1.3505   -4.4956   -0.9096 C   0  0  0  0  0  0  0  0  0  0  0  0
    0.9785   -5.4925   -1.1257 H   0  0  0  0  0  0  0  0  0  0  0  0
    2.6607   -4.3209   -0.4553 C   0  0  0  0  0  0  0  0  0  0  0  0
    3.3082   -5.1821   -0.3214 H   0  0  0  0  0  0  0  0  0  0  0  0
    3.1335   -3.0370   -0.1686 C   0  0  0  0  0  0  0  0  0  0  0  0
    4.1502   -2.9011    0.1874 H   0  0  0  0  0  0  0  0  0  0  0  0
    2.2960   -1.9288   -0.3371 C   0  0  0  0  0  0  0  0  0  0  0  0
    2.6741   -0.9372   -0.1099 H   0  0  0  0  0  0  0  0  0  0  0  0
   -0.9911    0.9192    0.3831 C   0  0  0  0  0  0  0  0  0  0  0  0
   -1.8659    1.4126   -0.3202 O   0  0  0  0  0  0  0  0  0  0  0  0
   -0.2742    1.7269    1.2463 N   0  0  0  0  0  0  0  0  0  0  0  0
    0.4000    1.2778    1.8600 H   0  0  0  0  0  0  0  0  0  0  0  0
   -0.5221    3.1556    1.3950 C   0  0  0  0  0  0  0  0  0  0  0  0
   -1.5527    3.3343    1.7193 H   0  0  0  0  0  0  0  0  0  0  0  0
    0.1542    3.5810    2.1425 H   0  0  0  0  0  0  0  0  0  0  0  0
   -0.3564    3.6737    0.4445 H   0  0  0  0  0  0  0  0  0  0  0  0
  1  2  1  0  0  0  0
  2  3  1  0  0  0  0
  2  4  1  0  0  0  0
  2  5  1  0  0  0  0
  5  6  2  0  0  0  0
  5  7  1  0  0  0  0
  7  8  1  0  0  0  0
  7  9  1  0  0  0  0
  9 10  1  0  0  0  0
  9 11  1  0  0  0  0
  9 25  1  0  0  0  0
 11 12  1  0  0  0  0
 11 13  1  0  0  0  0
 11 14  1  0  0  0  0
 14 15  1  0  0  0  0
 14 23  2  0  0  0  0
 15 16  1  0  0  0  0
 15 17  2  0  0  0  0
 17 18  1  0  0  0  0
 17 19  1  0  0  0  0
 19 20  1  0  0  0  0
 19 21  2  0  0  0  0
 21 22  1  0  0  0  0
 21 23  1  0  0  0  0
 23 24  1  0  0  0  0
 25 26  2  0  0  0  0
 25 27  1  0  0  0  0
 27 28  1  0  0  0  0
 27 29  1  0  0  0  0
 29 30  1  0  0  0  0
 29 31  1  0  0  0  0
 29 32  1  0  0  0  0
M  END
$$$$

  -OEChem-04042216033D

 32 32  0     1  0  0  0  0  0999 V2000
   -3.6554   -3.9870    1.6130 H   0  0  0  0  0  0  0  0  0  0  0  0
   -3.6140   -3.1090    0.9626 C   0  0  0  0  0  0  0  0  0  0  0  0
   -4.3929   -2.4064    1.2686 H   0  0  0  0  0  0  0  0  0  0  0  0
   -3.8006   -3.4241   -0.0667 H   0  0  0  0  0  0  0  0  0  0  0  0
   -2.2519   -2.4486    1.0625 C   0  0  0  0  0  0  0  0  0  0  0  0
   -1.4178   -2.8909    1.8358 O   0  0  0  0  0  0  0  0  0  0  0  0
   -1.9826   -1.3286    0.3038 N   0  0  0  0  0  0  0  0  0  0  0  0
   -2.7451   -0.9348   -0.2442 H   0  0  0  0  0  0  0  0  0  0  0  0
   -0.7134   -0.5862    0.3209 C   0  0  1  0  0  0  0  0  0  0  0  0
   -0.1183   -0.8517    1.2009 H   0  0  0  0  0  0  0  0  0  0  0  0
    0.0757   -0.9037   -0.9639 C   0  0  0  0  0  0  0  0  0  0  0  0
   -0.6137   -1.0648   -1.7993 H   0  0  0  0  0  0  0  0  0  0  0  0
    0.7023   -0.0466   -1.2327 H   0  0  0  0  0  0  0  0  0  0  0  0
    0.9787   -2.0982   -0.7761 C   0  0  0  0  0  0  0  0  0  0  0  0
    0.6409   -3.3386   -1.3366 C   0  0  0  0  0  0  0  0  0  0  0  0
   -0.2832   -3.4496   -1.8952 H   0  0  0  0  0  0  0  0  0  0  0  0
    1.4811   -4.4451   -1.1718 C   0  0  0  0  0  0  0  0  0  0  0  0
    1.2068   -5.4036   -1.6015 H   0  0  0  0  0  0  0  0  0  0  0  0
    2.6711   -4.3184   -0.4494 C   0  0  0  0  0  0  0  0  0  0  0  0
    3.3214   -5.1781   -0.3178 H   0  0  0  0  0  0  0  0  0  0  0  0
    3.0206   -3.0842    0.1061 C   0  0  0  0  0  0  0  0  0  0  0  0
    3.9447   -2.9849    0.6675 H   0  0  0  0  0  0  0  0  0  0  0  0
    2.1788   -1.9789   -0.0587 C   0  0  0  0  0  0  0  0  0  0  0  0
    2.4620   -1.0255    0.3755 H   0  0  0  0  0  0  0  0  0  0  0  0
   -0.9928    0.9263    0.3854 C   0  0  0  0  0  0  0  0  0  0  0  0
   -1.8562    1.4202   -0.3313 O   0  0  0  0  0  0  0  0  0  0  0  0
   -0.2822    1.7340    1.2539 N   0  0  0  0  0  0  0  0  0  0  0  0
    0.3737    1.2821    1.8849 H   0  0  0  0  0  0  0  0  0  0  0  0
   -0.5245    3.1644    1.3947 C   0  0  0  0  0  0  0  0  0  0  0  0
   -1.5592    3.3506    1.7017 H   0  0  0  0  0  0  0  0  0  0  0  0
    0.1419    3.5880    2.1523 H   0  0  0  0  0  0  0  0  0  0  0  0
   -0.3400    3.6785    0.4456 H   0  0  0  0  0  0  0  0  0  0  0  0
  1  2  1  0  0  0  0
  2  3  1  0  0  0  0
  2  4  1  0  0  0  0
  2  5  1  0  0  0  0
  5  6  2  0  0  0  0
  5  7  1  0  0  0  0
  7  8  1  0  0  0  0
  7  9  1  0  0  0  0
  9 10  1  0  0  0  0
  9 11  1  0  0  0  0
  9 25  1  0  0  0  0
 11 12  1  0  0  0  0
 11 13  1  0  0  0  0
 11 14  1  0  0  0  0
 14 15  1  0  0  0  0
 14 23  2  0  0  0  0
 15 16  1  0  0  0  0
 15 17  2  0  0  0  0
 17 18  1  0  0  0  0
 17 19  1  0  0  0  0
 19 20  1  0  0  0  0
 19 21  2  0  0  0  0
 21 22  1  0  0  0  0
 21 23  1  0  0  0  0
 23 24  1  0  0  0  0
 25 26  2  0  0  0  0
 25 27  1  0  0  0  0
 27 28  1  0  0  0  0
 27 29  1  0  0  0  0
 29 30  1  0  0  0  0
 29 31  1  0  0  0  0
 29 32  1  0  0  0  0
M  END
$$$$

  -OEChem-04042216033D

 32 32  0     1  0  0  0  0  0999 V2000
   -3.6842   -3.9829    1.6056 H   0  0  0  0  0  0  0  0  0  0  0  0
   -3.6368   -3.1017    0.9595 C   0  0  0  0  0  0  0  0  0  0  0  0
   -4.4219   -2.4026    1.2575 H   0  0  0  0  0  0  0  0  0  0  0  0
   -3.8081   -3.4135   -0.0736 H   0  0  0  0  0  0  0  0  0  0  0  0
   -2.2783   -2.4370    1.0803 C   0  0  0  0  0  0  0  0  0  0  0  0
   -1.4596   -2.8688    1.8760 O   0  0  0  0  0  0  0  0  0  0  0  0
   -1.9939   -1.3249    0.3153 N   0  0  0  0  0  0  0  0  0  0  0  0
   -2.7434   -0.9392   -0.2560 H   0  0  0  0  0  0  0  0  0  0  0  0
   -0.7231   -0.5861    0.3488 C   0  0  1  0  0  0  0  0  0  0  0  0
   -0.1484   -0.8430    1.2439 H   0  0  0  0  0  0  0  0  0  0  0  0
    0.0842   -0.9134   -0.9239 C   0  0  0  0  0  0  0  0  0  0  0  0
   -0.5986   -1.0654   -1.7663 H   0  0  0  0  0  0  0  0  0  0  0  0
    0.7186   -0.0592   -1.1831 H   0  0  0  0  0  0  0  0  0  0  0  0
    0.9905   -2.1098   -0.7442 C   0  0  0  0  0  0  0  0  0  0  0  0
    0.8311   -3.2409   -1.5593 C   0  0  0  0  0  0  0  0  0  0  0  0
    0.0399   -3.2700   -2.3019 H   0  0  0  0  0  0  0  0  0  0  0  0
    1.6803   -4.3440   -1.4223 C   0  0  0  0  0  0  0  0  0  0  0  0
    1.5423   -5.2167   -2.0534 H   0  0  0  0  0  0  0  0  0  0  0  0
    2.7051   -4.3237   -0.4722 C   0  0  0  0  0  0  0  0  0  0  0  0
    3.3625   -5.1811   -0.3628 H   0  0  0  0  0  0  0  0  0  0  0  0
    2.8820   -3.1976    0.3366 C   0  0  0  0  0  0  0  0  0  0  0  0
    3.6784   -3.1801    1.0745 H   0  0  0  0  0  0  0  0  0  0  0  0
    2.0329   -2.0946    0.1968 C   0  0  0  0  0  0  0  0  0  0  0  0
    2.1890   -1.2254    0.8270 H   0  0  0  0  0  0  0  0  0  0  0  0
   -1.0010    0.9278    0.3941 C   0  0  0  0  0  0  0  0  0  0  0  0
   -1.8492    1.4156   -0.3445 O   0  0  0  0  0  0  0  0  0  0  0  0
   -0.3065    1.7452    1.2667 N   0  0  0  0  0  0  0  0  0  0  0  0
    0.3504    1.3041    1.9041 H   0  0  0  0  0  0  0  0  0  0  0  0
   -0.5354    3.1813    1.3712 C   0  0  0  0  0  0  0  0  0  0  0  0
   -1.5781    3.3857    1.6365 H   0  0  0  0  0  0  0  0  0  0  0  0
    0.1082    3.6115    2.1445 H   0  0  0  0  0  0  0  0  0  0  0  0
   -0.3101    3.6753    0.4202 H   0  0  0  0  0  0  0  0  0  0  0  0
  1  2  1  0  0  0  0
  2  3  1  0  0  0  0
  2  4  1  0  0  0  0
  2  5  1  0  0  0  0
  5  6  2  0  0  0  0
  5  7  1  0  0  0  0
  7  8  1  0  0  0  0
  7  9  1  0  0  0  0
  9 10  1  0  0  0  0
  9 11  1  0  0  0  0
  9 25  1  0  0  0  0
 11 12  1  0  0  0  0
 11 13  1  0  0  0  0
 11 14  1  0  0  0  0
 14 15  1  0  0  0  0
 14 23  2  0  0  0  0
 15 16  1  0  0  0  0
 15 17  2  0  0  0  0
 17 18  1  0  0  0  0
 17 19  1  0  0  0  0
 19 20  1  0  0  0  0
 19 21  2  0  0  0  0
 21 22  1  0  0  0  0
 21 23  1  0  0  0  0
 23 24  1  0  0  0  0
 25 26  2  0  0  0  0
 25 27  1  0  0  0  0
 27 28  1  0  0  0  0
 27 29  1  0  0  0  0
 29 30  1  0  0  0  0
 29 31  1  0  0  0  0
 29 32  1  0  0  0  0
M  END
$$$$

  -OEChem-04042216033D

 32 32  0     1  0  0  0  0  0999 V2000
   -3.7332   -3.9507    1.6144 H   0  0  0  0  0  0  0  0  0  0  0  0
   -3.6707   -3.0787    0.9575 C   0  0  0  0  0  0  0  0  0  0  0  0
   -4.4604   -2.3745    1.2299 H   0  0  0  0  0  0  0  0  0  0  0  0
   -3.8214   -3.4048   -0.0744 H   0  0  0  0  0  0  0  0  0  0  0  0
   -2.3137   -2.4147    1.0977 C   0  0  0  0  0  0  0  0  0  0  0  0
   -1.5146   -2.8331    1.9205 O   0  0  0  0  0  0  0  0  0  0  0  0
   -2.0082   -1.3155    0.3218 N   0  0  0  0  0  0  0  0  0  0  0  0
   -2.7415   -0.9375   -0.2750 H   0  0  0  0  0  0  0  0  0  0  0  0
   -0.7345   -0.5829    0.3740 C   0  0  1  0  0  0  0  0  0  0  0  0
   -0.1894   -0.8235    1.2896 H   0  0  0  0  0  0  0  0  0  0  0  0
    0.0983   -0.9320   -0.8794 C   0  0  0  0  0  0  0  0  0  0  0  0
   -0.5757   -1.0821   -1.7294 H   0  0  0  0  0  0  0  0  0  0  0  0
    0.7389   -0.0804   -1.1324 H   0  0  0  0  0  0  0  0  0  0  0  0
    1.0101   -2.1305   -0.7077 C   0  0  0  0  0  0  0  0  0  0  0  0
    1.0639   -3.1013   -1.7210 C   0  0  0  0  0  0  0  0  0  0  0  0
    0.4322   -3.0084   -2.5992 H   0  0  0  0  0  0  0  0  0  0  0  0
    1.9211   -4.2019   -1.6156 C   0  0  0  0  0  0  0  0  0  0  0  0
    1.9443   -4.9497   -2.4028 H   0  0  0  0  0  0  0  0  0  0  0  0
    2.7473   -4.3397   -0.4976 C   0  0  0  0  0  0  0  0  0  0  0  0
    3.4103   -5.1955   -0.4121 H   0  0  0  0  0  0  0  0  0  0  0  0
    2.7210   -3.3709    0.5085 C   0  0  0  0  0  0  0  0  0  0  0  0
    3.3656   -3.4732    1.3763 H   0  0  0  0  0  0  0  0  0  0  0  0
    1.8661   -2.2691    0.3996 C   0  0  0  0  0  0  0  0  0  0  0  0
    1.8801   -1.5261    1.1890 H   0  0  0  0  0  0  0  0  0  0  0  0
   -1.0072    0.9332    0.3904 C   0  0  0  0  0  0  0  0  0  0  0  0
   -1.8413    1.4128   -0.3694 O   0  0  0  0  0  0  0  0  0  0  0  0
   -0.3295    1.7607    1.2669 N   0  0  0  0  0  0  0  0  0  0  0  0
    0.3196    1.3279    1.9177 H   0  0  0  0  0  0  0  0  0  0  0  0
   -0.5613    3.1974    1.3525 C   0  0  0  0  0  0  0  0  0  0  0  0
   -1.6049    3.4031    1.6130 H   0  0  0  0  0  0  0  0  0  0  0  0
    0.0802    3.6385    2.1214 H   0  0  0  0  0  0  0  0  0  0  0  0
   -0.3353    3.6793    0.3955 H   0  0  0  0  0  0  0  0  0  0  0  0
  1  2  1  0  0  0  0
  2  3  1  0  0  0  0
  2  4  1  0  0  0  0
  2  5  1  0  0  0  0
  5  6  2  0  0  0  0
  5  7  1  0  0  0  0
  7  8  1  0  0  0  0
  7  9  1  0  0  0  0
  9 10  1  0  0  0  0
  9 11  1  0  0  0  0
  9 25  1  0  0  0  0
 11 12  1  0  0  0  0
 11 13  1  0  0  0  0
 11 14  1  0  0  0  0
 14 15  1  0  0  0  0
 14 23  2  0  0  0  0
 15 16  1  0  0  0  0
 15 17  2  0  0  0  0
 17 18  1  0  0  0  0
 17 19  1  0  0  0  0
 19 20  1  0  0  0  0
 19 21  2  0  0  0  0
 21 22  1  0  0  0  0
 21 23  1  0  0  0  0
 23 24  1  0  0  0  0
 25 26  2  0  0  0  0
 25 27  1  0  0  0  0
 27 28  1  0  0  0  0
 27 29  1  0  0  0  0
 29 30  1  0  0  0  0
 29 31  1  0  0  0  0
 29 32  1  0  0  0  0
M  END
$$$$

  -OEChem-04042216033D

 32 32  0     1  0  0  0  0  0999 V2000
   -3.7794   -3.9092    1.6408 H   0  0  0  0  0  0  0  0  0  0  0  0
   -3.7004   -3.0491    0.9699 C   0  0  0  0  0  0  0  0  0  0  0  0
   -4.4933   -2.3376    1.2128 H   0  0  0  0  0  0  0  0  0  0  0  0
   -3.8307   -3.3929   -0.0590 H   0  0  0  0  0  0  0  0  0  0  0  0
   -2.3447   -2.3867    1.1267 C   0  0  0  0  0  0  0  0  0  0  0  0
   -1.5664   -2.7882    1.9781 O   0  0  0  0  0  0  0  0  0  0  0  0
   -2.0159   -1.3061    0.3346 N   0  0  0  0  0  0  0  0  0  0  0  0
   -2.7313   -0.9383   -0.2900 H   0  0  0  0  0  0  0  0  0  0  0  0
   -0.7401   -0.5800    0.4062 C   0  0  1  0  0  0  0  0  0  0  0  0
   -0.2233   -0.7917    1.3429 H   0  0  0  0  0  0  0  0  0  0  0  0
    0.1224   -0.9483   -0.8231 C   0  0  0  0  0  0  0  0  0  0  0  0
   -0.5386   -1.0989   -1.6832 H   0  0  0  0  0  0  0  0  0  0  0  0
    0.7659   -0.0964   -1.0670 H   0  0  0  0  0  0  0  0  0  0  0  0
    1.0439   -2.1462   -0.6670 C   0  0  0  0  0  0  0  0  0  0  0  0
    1.3368   -2.9046   -1.8130 C   0  0  0  0  0  0  0  0  0  0  0  0
    0.8933   -2.6389   -2.7679 H   0  0  0  0  0  0  0  0  0  0  0  0
    2.1942   -4.0076   -1.7507 C   0  0  0  0  0  0  0  0  0  0  0  0
    2.4031   -4.5849   -2.6465 H   0  0  0  0  0  0  0  0  0  0  0  0
    2.7810   -4.3673   -0.5360 C   0  0  0  0  0  0  0  0  0  0  0  0
    3.4434   -5.2263   -0.4834 H   0  0  0  0  0  0  0  0  0  0  0  0
    2.5135   -3.6173    0.6112 C   0  0  0  0  0  0  0  0  0  0  0  0
    2.9677   -3.8940    1.5580 H   0  0  0  0  0  0  0  0  0  0  0  0
    1.6587   -2.5116    0.5465 C   0  0  0  0  0  0  0  0  0  0  0  0
    1.4889   -1.9592    1.4627 H   0  0  0  0  0  0  0  0  0  0  0  0
   -1.0138    0.9361    0.3832 C   0  0  0  0  0  0  0  0  0  0  0  0
   -1.8295    1.3987   -0.4069 O   0  0  0  0  0  0  0  0  0  0  0  0
   -0.3602    1.7819    1.2603 N   0  0  0  0  0  0  0  0  0  0  0  0
    0.2777    1.3640    1.9318 H   0  0  0  0  0  0  0  0  0  0  0  0
   -0.5948    3.2196    1.3101 C   0  0  0  0  0  0  0  0  0  0  0  0
   -1.6423    3.4292    1.5511 H   0  0  0  0  0  0  0  0  0  0  0  0
    0.0352    3.6792    2.0777 H   0  0  0  0  0  0  0  0  0  0  0  0
   -0.3558    3.6797    0.3455 H   0  0  0  0  0  0  0  0  0  0  0  0
  1  2  1  0  0  0  0
  2  3  1  0  0  0  0
  2  4  1  0  0  0  0
  2  5  1  0  0  0  0
  5  6  2  0  0  0  0
  5  7  1  0  0  0  0
  7  8  1  0  0  0  0
  7  9  1  0  0  0  0
  9 10  1  0  0  0  0
  9 11  1  0  0  0  0
  9 25  1  0  0  0  0
 11 12  1  0  0  0  0
 11 13  1  0  0  0  0
 11 14  1  0  0  0  0
 14 15  1  0  0  0  0
 14 23  2  0  0  0  0
 15 16  1  0  0  0  0
 15 17  2  0  0  0  0
 17 18  1  0  0  0  0
 17 19  1  0  0  0  0
 19 20  1  0  0  0  0
 19 21  2  0  0  0  0
 21 22  1  0  0  0  0
 21 23  1  0  0  0  0
 23 24  1  0  0  0  0
 25 26  2  0  0  0  0
 25 27  1  0  0  0  0
 27 28  1  0  0  0  0
 27 29  1  0  0  0  0
 29 30  1  0  0  0  0
 29 31  1  0  0  0  0
 29 32  1  0  0  0  0
M  END
$$$$

  -OEChem-04042216033D

 32 32  0     1  0  0  0  0  0999 V2000
   -3.8165   -3.8944    1.6381 H   0  0  0  0  0  0  0  0  0  0  0  0
   -3.7279   -3.0270    0.9780 C   0  0  0  0  0  0  0  0  0  0  0  0
   -4.5211   -2.3158    1.2208 H   0  0  0  0  0  0  0  0  0  0  0  0
   -3.8487   -3.3588   -0.0561 H   0  0  0  0  0  0  0  0  0  0  0  0
   -2.3718   -2.3706    1.1558 C   0  0  0  0  0  0  0  0  0  0  0  0
   -1.6156   -2.7622    2.0312 O   0  0  0  0  0  0  0  0  0  0  0  0
   -2.0204   -1.3033    0.3561 N   0  0  0  0  0  0  0  0  0  0  0  0
   -2.7214   -0.9440   -0.2894 H   0  0  0  0  0  0  0  0  0  0  0  0
   -0.7423   -0.5813    0.4337 C   0  0  1  0  0  0  0  0  0  0  0  0
   -0.2301   -0.7728    1.3776 H   0  0  0  0  0  0  0  0  0  0  0  0
    0.1358   -0.9591   -0.7821 C   0  0  0  0  0  0  0  0  0  0  0  0
   -0.5174   -1.1169   -1.6470 H   0  0  0  0  0  0  0  0  0  0  0  0
    0.7769   -0.1044   -1.0232 H   0  0  0  0  0  0  0  0  0  0  0  0
    1.0647   -2.1541   -0.6362 C   0  0  0  0  0  0  0  0  0  0  0  0
    1.6117   -2.6901   -1.8139 C   0  0  0  0  0  0  0  0  0  0  0  0
    1.3660   -2.2466   -2.7742 H   0  0  0  0  0  0  0  0  0  0  0  0
    2.4755   -3.7893   -1.7779 C   0  0  0  0  0  0  0  0  0  0  0  0
    2.8881   -4.1867   -2.7005 H   0  0  0  0  0  0  0  0  0  0  0  0
    2.8052   -4.3774   -0.5557 C   0  0  0  0  0  0  0  0  0  0  0  0
    3.4723   -5.2337   -0.5238 H   0  0  0  0  0  0  0  0  0  0  0  0
    2.2675   -3.8638    0.6260 C   0  0  0  0  0  0  0  0  0  0  0  0
    2.5116   -4.3243    1.5788 H   0  0  0  0  0  0  0  0  0  0  0  0
    1.4058   -2.7622    0.5886 C   0  0  0  0  0  0  0  0  0  0  0  0
    1.0079   -2.4180    1.5356 H   0  0  0  0  0  0  0  0  0  0  0  0
   -1.0169    0.9345    0.3838 C   0  0  0  0  0  0  0  0  0  0  0  0
   -1.8196    1.3851   -0.4263 O   0  0  0  0  0  0  0  0  0  0  0  0
   -0.3753    1.7940    1.2566 N   0  0  0  0  0  0  0  0  0  0  0  0
    0.2580    1.3868    1.9392 H   0  0  0  0  0  0  0  0  0  0  0  0
   -0.5970    3.2347    1.2711 C   0  0  0  0  0  0  0  0  0  0  0  0
   -1.6458    3.4599    1.4908 H   0  0  0  0  0  0  0  0  0  0  0  0
    0.0254    3.7049    2.0384 H   0  0  0  0  0  0  0  0  0  0  0  0
   -0.3380    3.6719    0.3011 H   0  0  0  0  0  0  0  0  0  0  0  0
  1  2  1  0  0  0  0
  2  3  1  0  0  0  0
  2  4  1  0  0  0  0
  2  5  1  0  0  0  0
  5  6  2  0  0  0  0
  5  7  1  0  0  0  0
  7  8  1  0  0  0  0
  7  9  1  0  0  0  0
  9 10  1  0  0  0  0
  9 11  1  0  0  0  0
  9 25  1  0  0  0  0
 11 12  1  0  0  0  0
 11 13  1  0  0  0  0
 11 14  1  0  0  0  0
 14 15  1  0  0  0  0
 14 23  2  0  0  0  0
 15 16  1  0  0  0  0
 15 17  2  0  0  0  0
 17 18  1  0  0  0  0
 17 19  1  0  0  0  0
 19 20  1  0  0  0  0
 19 21  2  0  0  0  0
 21 22  1  0  0  0  0
 21 23  1  0  0  0  0
 23 24  1  0  0  0  0
 25 26  2  0  0  0  0
 25 27  1  0  0  0  0
 27 28  1  0  0  0  0
 27 29  1  0  0  0  0
 29 30  1  0  0  0  0
 29 31  1  0  0  0  0
 29 32  1  0  0  0  0
M  END
$$$$

  -OEChem-04042216033D

 32 32  0     1  0  0  0  0  0999 V2000
   -4.0133   -3.8116    1.6932 H   0  0  0  0  0  0  0  0  0  0  0  0
   -3.8309   -3.0194    0.9617 C   0  0  0  0  0  0  0  0  0  0  0  0
   -4.6547   -2.3028    1.0047 H   0  0  0  0  0  0  0  0  0  0  0  0
   -3.7941   -3.4638   -0.0358 H   0  0  0  0  0  0  0  0  0  0  0  0
   -2.5198   -2.3189    1.2644 C   0  0  0  0  0  0  0  0  0  0  0  0
   -1.9016   -2.6023    2.2781 O   0  0  0  0  0  0  0  0  0  0  0  0
   -2.0924   -1.2939    0.4470 N   0  0  0  0  0  0  0  0  0  0  0  0
   -2.7114   -1.0295   -0.3167 H   0  0  0  0  0  0  0  0  0  0  0  0
   -0.7832   -0.6187    0.4957 C   0  0  1  0  0  0  0  0  0  0  0  0
   -0.2526   -0.8443    1.4257 H   0  0  0  0  0  0  0  0  0  0  0  0
    0.0734   -1.0222   -0.7306 C   0  0  0  0  0  0  0  0  0  0  0  0
   -0.5452   -0.9130   -1.6279 H   0  0  0  0  0  0  0  0  0  0  0  0
    0.8916   -0.2990   -0.8170 H   0  0  0  0  0  0  0  0  0  0  0  0
    0.7142   -2.3982   -0.7684 C   0  0  0  0  0  0  0  0  0  0  0  0
    1.4785   -2.7219   -1.9021 C   0  0  0  0  0  0  0  0  0  0  0  0
    1.5467   -2.0176   -2.7261 H   0  0  0  0  0  0  0  0  0  0  0  0
    2.1464   -3.9470   -2.0012 C   0  0  0  0  0  0  0  0  0  0  0  0
    2.7173   -4.1846   -2.8938 H   0  0  0  0  0  0  0  0  0  0  0  0
    2.0818   -4.8627   -0.9495 C   0  0  0  0  0  0  0  0  0  0  0  0
    2.5990   -5.8149   -1.0213 H   0  0  0  0  0  0  0  0  0  0  0  0
    1.3623   -4.5412    0.2031 C   0  0  0  0  0  0  0  0  0  0  0  0
    1.3270   -5.2385    1.0351 H   0  0  0  0  0  0  0  0  0  0  0  0
    0.6961   -3.3147    0.2970 C   0  0  0  0  0  0  0  0  0  0  0  0
    0.1908   -3.0911    1.2256 H   0  0  0  0  0  0  0  0  0  0  0  0
   -0.9889    0.9060    0.3989 C   0  0  0  0  0  0  0  0  0  0  0  0
   -1.7524    1.3732   -0.4395 O   0  0  0  0  0  0  0  0  0  0  0  0
   -0.3020    1.7578    1.2440 N   0  0  0  0  0  0  0  0  0  0  0  0
    0.2711    1.3368    1.9702 H   0  0  0  0  0  0  0  0  0  0  0  0
   -0.4730    3.2054    1.2324 C   0  0  0  0  0  0  0  0  0  0  0  0
   -1.5067    3.4713    1.4770 H   0  0  0  0  0  0  0  0  0  0  0  0
    0.1882    3.6699    1.9702 H   0  0  0  0  0  0  0  0  0  0  0  0
   -0.2282    3.6122    0.2456 H   0  0  0  0  0  0  0  0  0  0  0  0
  1  2  1  0  0  0  0
  2  3  1  0  0  0  0
  2  4  1  0  0  0  0
  2  5  1  0  0  0  0
  5  6  2  0  0  0  0
  5  7  1  0  0  0  0
  7  8  1  0  0  0  0
  7  9  1  0  0  0  0
  9 10  1  0  0  0  0
  9 11  1  0  0  0  0
  9 25  1  0  0  0  0
 11 12  1  0  0  0  0
 11 13  1  0  0  0  0
 11 14  1  0  0  0  0
 14 15  1  0  0  0  0
 14 23  2  0  0  0  0
 15 16  1  0  0  0  0
 15 17  2  0  0  0  0
 17 18  1  0  0  0  0
 17 19  1  0  0  0  0
 19 20  1  0  0  0  0
 19 21  2  0  0  0  0
 21 22  1  0  0  0  0
 21 23  1  0  0  0  0
 23 24  1  0  0  0  0
 25 26  2  0  0  0  0
 25 27  1  0  0  0  0
 27 28  1  0  0  0  0
 27 29  1  0  0  0  0
 29 30  1  0  0  0  0
 29 31  1  0  0  0  0
 29 32  1  0  0  0  0
M  END
$$$$

  -OEChem-04042216033D

 32 32  0     1  0  0  0  0  0999 V2000
   -4.0556   -3.7753    1.8126 H   0  0  0  0  0  0  0  0  0  0  0  0
   -3.8892   -2.9710    1.0903 C   0  0  0  0  0  0  0  0  0  0  0  0
   -4.7010   -2.2447    1.1764 H   0  0  0  0  0  0  0  0  0  0  0  0
   -3.8956   -3.3961    0.0837 H   0  0  0  0  0  0  0  0  0  0  0  0
   -2.5585   -2.2939    1.3586 C   0  0  0  0  0  0  0  0  0  0  0  0
   -1.9260   -2.5736    2.3651 O   0  0  0  0  0  0  0  0  0  0  0  0
   -2.1200   -1.2944    0.5158 N   0  0  0  0  0  0  0  0  0  0  0  0
   -2.7520   -1.0196   -0.2337 H   0  0  0  0  0  0  0  0  0  0  0  0
   -0.7964   -0.6431    0.5268 C   0  0  1  0  0  0  0  0  0  0  0  0
   -0.2560   -0.8665    1.4523 H   0  0  0  0  0  0  0  0  0  0  0  0
    0.0650   -1.0437   -0.7021 C   0  0  0  0  0  0  0  0  0  0  0  0
   -0.5568   -0.9300   -1.5966 H   0  0  0  0  0  0  0  0  0  0  0  0
    0.8742   -0.3092   -0.7827 H   0  0  0  0  0  0  0  0  0  0  0  0
    0.7242   -2.4115   -0.7814 C   0  0  0  0  0  0  0  0  0  0  0  0
    1.7306   -2.5783   -1.7492 C   0  0  0  0  0  0  0  0  0  0  0  0
    1.9800   -1.7583   -2.4163 H   0  0  0  0  0  0  0  0  0  0  0  0
    2.4171   -3.7897   -1.8847 C   0  0  0  0  0  0  0  0  0  0  0  0
    3.1827   -3.8990   -2.6471 H   0  0  0  0  0  0  0  0  0  0  0  0
    2.1187   -4.8577   -1.0371 C   0  0  0  0  0  0  0  0  0  0  0  0
    2.6496   -5.7999   -1.1360 H   0  0  0  0  0  0  0  0  0  0  0  0
    1.1400   -4.7044   -0.0536 C   0  0  0  0  0  0  0  0  0  0  0  0
    0.9127   -5.5255    0.6199 H   0  0  0  0  0  0  0  0  0  0  0  0
    0.4562   -3.4909    0.0754 C   0  0  0  0  0  0  0  0  0  0  0  0
   -0.2672   -3.4144    0.8689 H   0  0  0  0  0  0  0  0  0  0  0  0
   -0.9920    0.8819    0.4031 C   0  0  0  0  0  0  0  0  0  0  0  0
   -1.7719    1.3382   -0.4264 O   0  0  0  0  0  0  0  0  0  0  0  0
   -0.2821    1.7456    1.2169 N   0  0  0  0  0  0  0  0  0  0  0  0
    0.3064    1.3354    1.9369 H   0  0  0  0  0  0  0  0  0  0  0  0
   -0.4424    3.1941    1.1784 C   0  0  0  0  0  0  0  0  0  0  0  0
   -1.4684    3.4728    1.4406 H   0  0  0  0  0  0  0  0  0  0  0  0
    0.2387    3.6688    1.8914 H   0  0  0  0  0  0  0  0  0  0  0  0
   -0.2170    3.5792    0.1783 H   0  0  0  0  0  0  0  0  0  0  0  0
  1  2  1  0  0  0  0
  2  3  1  0  0  0  0
  2  4  1  0  0  0  0
  2  5  1  0  0  0  0
  5  6  2  0  0  0  0
  5  7  1  0  0  0  0
  7  8  1  0  0  0  0
  7  9  1  0  0  0  0
  9 10  1  0  0  0  0
  9 11  1  0  0  0  0
  9 25  1  0  0  0  0
 11 12  1  0  0  0  0
 11 13  1  0  0  0  0
 11 14  1  0  0  0  0
 14 15  1  0  0  0  0
 14 23  2  0  0  0  0
 15 16  1  0  0  0  0
 15 17  2  0  0  0  0
 17 18  1  0  0  0  0
 17 19  1  0  0  0  0
 19 20  1  0  0  0  0
 19 21  2  0  0  0  0
 21 22  1  0  0  0  0
 21 23  1  0  0  0  0
 23 24  1  0  0  0  0
 25 26  2  0  0  0  0
 25 27  1  0  0  0  0
 27 28  1  0  0  0  0
 27 29  1  0  0  0  0
 29 30  1  0  0  0  0
 29 31  1  0  0  0  0
 29 32  1  0  0  0  0
M  END
$$$$

  -OEChem-04042216033D

 32 32  0     1  0  0  0  0  0999 V2000
   -4.1425   -3.7031    1.8031 H   0  0  0  0  0  0  0  0  0  0  0  0
   -3.9690   -2.8836    1.0998 C   0  0  0  0  0  0  0  0  0  0  0  0
   -4.7228   -2.1102    1.2657 H   0  0  0  0  0  0  0  0  0  0  0  0
   -4.0682   -3.2671    0.0814 H   0  0  0  0  0  0  0  0  0  0  0  0
   -2.5817   -2.3043    1.3027 C   0  0  0  0  0  0  0  0  0  0  0  0
   -1.8896   -2.6918    2.2308 O   0  0  0  0  0  0  0  0  0  0  0  0
   -2.1330   -1.3010    0.4694 N   0  0  0  0  0  0  0  0  0  0  0  0
   -2.7940   -0.9393   -0.2162 H   0  0  0  0  0  0  0  0  0  0  0  0
   -0.8035   -0.6645    0.5011 C   0  0  1  0  0  0  0  0  0  0  0  0
   -0.2901   -0.8927    1.4407 H   0  0  0  0  0  0  0  0  0  0  0  0
    0.1169   -1.0425   -0.6929 C   0  0  0  0  0  0  0  0  0  0  0  0
   -0.4659   -0.9288   -1.6131 H   0  0  0  0  0  0  0  0  0  0  0  0
    0.9174   -0.2955   -0.7308 H   0  0  0  0  0  0  0  0  0  0  0  0
    0.7865   -2.4081   -0.7497 C   0  0  0  0  0  0  0  0  0  0  0  0
    2.0284   -2.4916   -1.4061 C   0  0  0  0  0  0  0  0  0  0  0  0
    2.4805   -1.5997   -1.8295 H   0  0  0  0  0  0  0  0  0  0  0  0
    2.7082   -3.7081   -1.5281 C   0  0  0  0  0  0  0  0  0  0  0  0
    3.6695   -3.7455   -2.0317 H   0  0  0  0  0  0  0  0  0  0  0  0
    2.1488   -4.8743   -1.0046 C   0  0  0  0  0  0  0  0  0  0  0  0
    2.6725   -5.8212   -1.0953 H   0  0  0  0  0  0  0  0  0  0  0  0
    0.9068   -4.8180   -0.3707 C   0  0  0  0  0  0  0  0  0  0  0  0
    0.4595   -5.7223    0.0313 H   0  0  0  0  0  0  0  0  0  0  0  0
    0.2309   -3.5986   -0.2543 C   0  0  0  0  0  0  0  0  0  0  0  0
   -0.7339   -3.6145    0.2227 H   0  0  0  0  0  0  0  0  0  0  0  0
   -0.9994    0.8612    0.3895 C   0  0  0  0  0  0  0  0  0  0  0  0
   -1.7859    1.3235   -0.4303 O   0  0  0  0  0  0  0  0  0  0  0  0
   -0.2985    1.7178    1.2181 N   0  0  0  0  0  0  0  0  0  0  0  0
    0.2904    1.3013    1.9342 H   0  0  0  0  0  0  0  0  0  0  0  0
   -0.4676    3.1655    1.1988 C   0  0  0  0  0  0  0  0  0  0  0  0
   -1.4972    3.4347    1.4569 H   0  0  0  0  0  0  0  0  0  0  0  0
    0.2052    3.6345    1.9231 H   0  0  0  0  0  0  0  0  0  0  0  0
   -0.2371    3.5654    0.2057 H   0  0  0  0  0  0  0  0  0  0  0  0
  1  2  1  0  0  0  0
  2  3  1  0  0  0  0
  2  4  1  0  0  0  0
  2  5  1  0  0  0  0
  5  6  2  0  0  0  0
  5  7  1  0  0  0  0
  7  8  1  0  0  0  0
  7  9  1  0  0  0  0
  9 10  1  0  0  0  0
  9 11  1  0  0  0  0
  9 25  1  0  0  0  0
 11 12  1  0  0  0  0
 11 13  1  0  0  0  0
 11 14  1  0  0  0  0
 14 15  1  0  0  0  0
 14 23  2  0  0  0  0
 15 16  1  0  0  0  0
 15 17  2  0  0  0  0
 17 18  1  0  0  0  0
 17 19  1  0  0  0  0
 19 20  1  0  0  0  0
 19 21  2  0  0  0  0
 21 22  1  0  0  0  0
 21 23  1  0  0  0  0
 23 24  1  0  0  0  0
 25 26  2  0  0  0  0
 25 27  1  0  0  0  0
 27 28  1  0  0  0  0
 27 29  1  0  0  0  0
 29 30  1  0  0  0  0
 29 31  1  0  0  0  0
 29 32  1  0  0  0  0
M  END
$$$$

  -OEChem-04042216033D

 32 32  0     1  0  0  0  0  0999 V2000
   -4.0258   -3.7598    1.8282 H   0  0  0  0  0  0  0  0  0  0  0  0
   -3.9007   -2.9195    1.1393 C   0  0  0  0  0  0  0  0  0  0  0  0
   -4.6387   -2.1512    1.3820 H   0  0  0  0  0  0  0  0  0  0  0  0
   -4.0733   -3.2721    0.1196 H   0  0  0  0  0  0  0  0  0  0  0  0
   -2.5006   -2.3483    1.2601 C   0  0  0  0  0  0  0  0  0  0  0  0
   -1.7348   -2.7905    2.1011 O   0  0  0  0  0  0  0  0  0  0  0  0
   -2.1118   -1.3141    0.4334 N   0  0  0  0  0  0  0  0  0  0  0  0
   -2.8211   -0.9116   -0.1772 H   0  0  0  0  0  0  0  0  0  0  0  0
   -0.7957   -0.6528    0.4469 C   0  0  1  0  0  0  0  0  0  0  0  0
   -0.2634   -0.8873    1.3743 H   0  0  0  0  0  0  0  0  0  0  0  0
    0.1143   -1.0115   -0.7567 C   0  0  0  0  0  0  0  0  0  0  0  0
   -0.4782   -0.9235   -1.6733 H   0  0  0  0  0  0  0  0  0  0  0  0
    0.9039   -0.2550   -0.8173 H   0  0  0  0  0  0  0  0  0  0  0  0
    0.7757   -2.3794   -0.7592 C   0  0  0  0  0  0  0  0  0  0  0  0
    2.1381   -2.4667   -1.0990 C   0  0  0  0  0  0  0  0  0  0  0  0
    2.7111   -1.5659   -1.2962 H   0  0  0  0  0  0  0  0  0  0  0  0
    2.7884   -3.7030   -1.1757 C   0  0  0  0  0  0  0  0  0  0  0  0
    3.8458   -3.7471   -1.4190 H   0  0  0  0  0  0  0  0  0  0  0  0
    2.0763   -4.8812   -0.9439 C   0  0  0  0  0  0  0  0  0  0  0  0
    2.5772   -5.8432   -1.0005 H   0  0  0  0  0  0  0  0  0  0  0  0
    0.7119   -4.8175   -0.6547 C   0  0  0  0  0  0  0  0  0  0  0  0
    0.1470   -5.7308   -0.4935 H   0  0  0  0  0  0  0  0  0  0  0  0
    0.0667   -3.5786   -0.5817 C   0  0  0  0  0  0  0  0  0  0  0  0
   -0.9985   -3.5746   -0.4035 H   0  0  0  0  0  0  0  0  0  0  0  0
   -1.0125    0.8718    0.3799 C   0  0  0  0  0  0  0  0  0  0  0  0
   -1.8357    1.3430   -0.3975 O   0  0  0  0  0  0  0  0  0  0  0  0
   -0.3006    1.7161    1.2120 N   0  0  0  0  0  0  0  0  0  0  0  0
    0.3301    1.2903    1.8858 H   0  0  0  0  0  0  0  0  0  0  0  0
   -0.4839    3.1622    1.2330 C   0  0  0  0  0  0  0  0  0  0  0  0
   -1.5130    3.4143    1.5098 H   0  0  0  0  0  0  0  0  0  0  0  0
    0.1923    3.6186    1.9623 H   0  0  0  0  0  0  0  0  0  0  0  0
   -0.2688    3.5902    0.2482 H   0  0  0  0  0  0  0  0  0  0  0  0
  1  2  1  0  0  0  0
  2  3  1  0  0  0  0
  2  4  1  0  0  0  0
  2  5  1  0  0  0  0
  5  6  2  0  0  0  0
  5  7  1  0  0  0  0
  7  8  1  0  0  0  0
  7  9  1  0  0  0  0
  9 10  1  0  0  0  0
  9 11  1  0  0  0  0
  9 25  1  0  0  0  0
 11 12  1  0  0  0  0
 11 13  1  0  0  0  0
 11 14  1  0  0  0  0
 14 15  1  0  0  0  0
 14 23  2  0  0  0  0
 15 16  1  0  0  0  0
 15 17  2  0  0  0  0
 17 18  1  0  0  0  0
 17 19  1  0  0  0  0
 19 20  1  0  0  0  0
 19 21  2  0  0  0  0
 21 22  1  0  0  0  0
 21 23  1  0  0  0  0
 23 24  1  0  0  0  0
 25 26  2  0  0  0  0
 25 27  1  0  0  0  0
 27 28  1  0  0  0  0
 27 29  1  0  0  0  0
 29 30  1  0  0  0  0
 29 31  1  0  0  0  0
 29 32  1  0  0  0  0
M  END
$$$$

  -OEChem-04042216033D

 32 32  0     1  0  0  0  0  0999 V2000
   -3.9003   -3.8447    1.7714 H   0  0  0  0  0  0  0  0  0  0  0  0
   -3.8072   -2.9898    1.0958 C   0  0  0  0  0  0  0  0  0  0  0  0
   -4.5596   -2.2444    1.3642 H   0  0  0  0  0  0  0  0  0  0  0  0
   -3.9886   -3.3292    0.0733 H   0  0  0  0  0  0  0  0  0  0  0  0
   -2.4190   -2.3871    1.2030 C   0  0  0  0  0  0  0  0  0  0  0  0
   -1.6263   -2.8324    2.0168 O   0  0  0  0  0  0  0  0  0  0  0  0
   -2.0741   -1.3218    0.3961 N   0  0  0  0  0  0  0  0  0  0  0  0
   -2.8044   -0.9191   -0.1888 H   0  0  0  0  0  0  0  0  0  0  0  0
   -0.7731   -0.6328    0.4061 C   0  0  1  0  0  0  0  0  0  0  0  0
   -0.2176   -0.8808    1.3165 H   0  0  0  0  0  0  0  0  0  0  0  0
    0.1000   -0.9775   -0.8230 C   0  0  0  0  0  0  0  0  0  0  0  0
   -0.5134   -0.8979   -1.7266 H   0  0  0  0  0  0  0  0  0  0  0  0
    0.8911   -0.2254   -0.9108 H   0  0  0  0  0  0  0  0  0  0  0  0
    0.7404   -2.3510   -0.7911 C   0  0  0  0  0  0  0  0  0  0  0  0
    2.1406   -2.4655   -0.8271 C   0  0  0  0  0  0  0  0  0  0  0  0
    2.7625   -1.5757   -0.8240 H   0  0  0  0  0  0  0  0  0  0  0  0
    2.7585   -3.7206   -0.8542 C   0  0  0  0  0  0  0  0  0  0  0  0
    3.8419   -3.7931   -0.8649 H   0  0  0  0  0  0  0  0  0  0  0  0
    1.9820   -4.8816   -0.8693 C   0  0  0  0  0  0  0  0  0  0  0  0
    2.4588   -5.8572   -0.8853 H   0  0  0  0  0  0  0  0  0  0  0  0
    0.5887   -4.7830   -0.8744 C   0  0  0  0  0  0  0  0  0  0  0  0
   -0.0194   -5.6821   -0.9004 H   0  0  0  0  0  0  0  0  0  0  0  0
   -0.0251   -3.5264   -0.8513 C   0  0  0  0  0  0  0  0  0  0  0  0
   -1.1064   -3.4755   -0.8897 H   0  0  0  0  0  0  0  0  0  0  0  0
   -1.0094    0.8892    0.3844 C   0  0  0  0  0  0  0  0  0  0  0  0
   -1.8487    1.3691   -0.3698 O   0  0  0  0  0  0  0  0  0  0  0  0
   -0.2953    1.7210    1.2267 N   0  0  0  0  0  0  0  0  0  0  0  0
    0.3466    1.2859    1.8838 H   0  0  0  0  0  0  0  0  0  0  0  0
   -0.4945    3.1640    1.2845 C   0  0  0  0  0  0  0  0  0  0  0  0
   -1.5242    3.3985    1.5744 H   0  0  0  0  0  0  0  0  0  0  0  0
    0.1819    3.6097    2.0203 H   0  0  0  0  0  0  0  0  0  0  0  0
   -0.2907    3.6180    0.3088 H   0  0  0  0  0  0  0  0  0  0  0  0
  1  2  1  0  0  0  0
  2  3  1  0  0  0  0
  2  4  1  0  0  0  0
  2  5  1  0  0  0  0
  5  6  2  0  0  0  0
  5  7  1  0  0  0  0
  7  8  1  0  0  0  0
  7  9  1  0  0  0  0
  9 10  1  0  0  0  0
  9 11  1  0  0  0  0
  9 25  1  0  0  0  0
 11 12  1  0  0  0  0
 11 13  1  0  0  0  0
 11 14  1  0  0  0  0
 14 15  1  0  0  0  0
 14 23  2  0  0  0  0
 15 16  1  0  0  0  0
 15 17  2  0  0  0  0
 17 18  1  0  0  0  0
 17 19  1  0  0  0  0
 19 20  1  0  0  0  0
 19 21  2  0  0  0  0
 21 22  1  0  0  0  0
 21 23  1  0  0  0  0
 23 24  1  0  0  0  0
 25 26  2  0  0  0  0
 25 27  1  0  0  0  0
 27 28  1  0  0  0  0
 27 29  1  0  0  0  0
 29 30  1  0  0  0  0
 29 31  1  0  0  0  0
 29 32  1  0  0  0  0
M  END
$$$$

  -OEChem-04042216033D

 32 32  0     1  0  0  0  0  0999 V2000
   -3.7780   -3.9382    1.6840 H   0  0  0  0  0  0  0  0  0  0  0  0
   -3.7157   -3.0646    1.0290 C   0  0  0  0  0  0  0  0  0  0  0  0
   -4.4934   -2.3527    1.3154 H   0  0  0  0  0  0  0  0  0  0  0  0
   -3.8853   -3.3858   -0.0015 H   0  0  0  0  0  0  0  0  0  0  0  0
   -2.3497   -2.4157    1.1505 C   0  0  0  0  0  0  0  0  0  0  0  0
   -1.5438   -2.8463    1.9594 O   0  0  0  0  0  0  0  0  0  0  0  0
   -2.0413   -1.3257    0.3624 N   0  0  0  0  0  0  0  0  0  0  0  0
   -2.7834   -0.9364   -0.2162 H   0  0  0  0  0  0  0  0  0  0  0  0
   -0.7535   -0.6133    0.3722 C   0  0  1  0  0  0  0  0  0  0  0  0
   -0.1770   -0.8732    1.2663 H   0  0  0  0  0  0  0  0  0  0  0  0
    0.0808   -0.9484   -0.8809 C   0  0  0  0  0  0  0  0  0  0  0  0
   -0.5521   -0.8702   -1.7712 H   0  0  0  0  0  0  0  0  0  0  0  0
    0.8775   -0.2056   -0.9918 H   0  0  0  0  0  0  0  0  0  0  0  0
    0.7026   -2.3253   -0.8251 C   0  0  0  0  0  0  0  0  0  0  0  0
    2.0743   -2.4714   -0.5654 C   0  0  0  0  0  0  0  0  0  0  0  0
    2.6897   -1.5986   -0.3719 H   0  0  0  0  0  0  0  0  0  0  0  0
    2.6645   -3.7397   -0.5437 C   0  0  0  0  0  0  0  0  0  0  0  0
    3.7245   -3.8417   -0.3322 H   0  0  0  0  0  0  0  0  0  0  0  0
    1.8901   -4.8761   -0.7935 C   0  0  0  0  0  0  0  0  0  0  0  0
    2.3460   -5.8615   -0.7728 H   0  0  0  0  0  0  0  0  0  0  0  0
    0.5276   -4.7415   -1.0735 C   0  0  0  0  0  0  0  0  0  0  0  0
   -0.0756   -5.6221   -1.2727 H   0  0  0  0  0  0  0  0  0  0  0  0
   -0.0591   -3.4720   -1.0974 C   0  0  0  0  0  0  0  0  0  0  0  0
   -1.1150   -3.3800   -1.3281 H   0  0  0  0  0  0  0  0  0  0  0  0
   -1.0009    0.9063    0.3886 C   0  0  0  0  0  0  0  0  0  0  0  0
   -1.8467    1.3964   -0.3514 O   0  0  0  0  0  0  0  0  0  0  0  0
   -0.2831    1.7255    1.2404 N   0  0  0  0  0  0  0  0  0  0  0  0
    0.3652    1.2814    1.8850 H   0  0  0  0  0  0  0  0  0  0  0  0
   -0.4900    3.1660    1.3277 C   0  0  0  0  0  0  0  0  0  0  0  0
   -1.5247    3.3890    1.6087 H   0  0  0  0  0  0  0  0  0  0  0  0
    0.1738    3.5983    2.0827 H   0  0  0  0  0  0  0  0  0  0  0  0
   -0.2755    3.6427    0.3654 H   0  0  0  0  0  0  0  0  0  0  0  0
  1  2  1  0  0  0  0
  2  3  1  0  0  0  0
  2  4  1  0  0  0  0
  2  5  1  0  0  0  0
  5  6  2  0  0  0  0
  5  7  1  0  0  0  0
  7  8  1  0  0  0  0
  7  9  1  0  0  0  0
  9 10  1  0  0  0  0
  9 11  1  0  0  0  0
  9 25  1  0  0  0  0
 11 12  1  0  0  0  0
 11 13  1  0  0  0  0
 11 14  1  0  0  0  0
 14 15  1  0  0  0  0
 14 23  2  0  0  0  0
 15 16  1  0  0  0  0
 15 17  2  0  0  0  0
 17 18  1  0  0  0  0
 17 19  1  0  0  0  0
 19 20  1  0  0  0  0
 19 21  2  0  0  0  0
 21 22  1  0  0  0  0
 21 23  1  0  0  0  0
 23 24  1  0  0  0  0
 25 26  2  0  0  0  0
 25 27  1  0  0  0  0
 27 28  1  0  0  0  0
 27 29  1  0  0  0  0
 29 30  1  0  0  0  0
 29 31  1  0  0  0  0
 29 32  1  0  0  0  0
M  END
$$$$

  -OEChem-04042216033D

 32 32  0     1  0  0  0  0  0999 V2000
   -3.7079   -3.9822    1.6317 H   0  0  0  0  0  0  0  0  0  0  0  0
   -3.6602   -3.1033    0.9826 C   0  0  0  0  0  0  0  0  0  0  0  0
   -4.4501   -2.4066    1.2733 H   0  0  0  0  0  0  0  0  0  0  0  0
   -3.8240   -3.4198   -0.0501 H   0  0  0  0  0  0  0  0  0  0  0  0
   -2.3051   -2.4327    1.1086 C   0  0  0  0  0  0  0  0  0  0  0  0
   -1.4928   -2.8546    1.9161 O   0  0  0  0  0  0  0  0  0  0  0  0
   -2.0176   -1.3277    0.3337 N   0  0  0  0  0  0  0  0  0  0  0  0
   -2.7640   -0.9485   -0.2457 H   0  0  0  0  0  0  0  0  0  0  0  0
   -0.7381   -0.6014    0.3459 C   0  0  1  0  0  0  0  0  0  0  0  0
   -0.1503   -0.8687    1.2302 H   0  0  0  0  0  0  0  0  0  0  0  0
    0.0715   -0.9309   -0.9217 C   0  0  0  0  0  0  0  0  0  0  0  0
   -0.5729   -0.8476   -1.8034 H   0  0  0  0  0  0  0  0  0  0  0  0
    0.8746   -0.1963   -1.0433 H   0  0  0  0  0  0  0  0  0  0  0  0
    0.6830   -2.3097   -0.8548 C   0  0  0  0  0  0  0  0  0  0  0  0
    1.9626   -2.4951   -0.3098 C   0  0  0  0  0  0  0  0  0  0  0  0
    2.5194   -1.6472    0.0764 H   0  0  0  0  0  0  0  0  0  0  0  0
    2.5310   -3.7724   -0.2511 C   0  0  0  0  0  0  0  0  0  0  0  0
    3.5188   -3.9080    0.1788 H   0  0  0  0  0  0  0  0  0  0  0  0
    1.8259   -4.8754   -0.7412 C   0  0  0  0  0  0  0  0  0  0  0  0
    2.2648   -5.8674   -0.6922 H   0  0  0  0  0  0  0  0  0  0  0  0
    0.5531   -4.6997   -1.2918 C   0  0  0  0  0  0  0  0  0  0  0  0
    0.0031   -5.5557   -1.6712 H   0  0  0  0  0  0  0  0  0  0  0  0
   -0.0134   -3.4220   -1.3504 C   0  0  0  0  0  0  0  0  0  0  0  0
   -1.0029   -3.2953   -1.7779 H   0  0  0  0  0  0  0  0  0  0  0  0
   -0.9921    0.9164    0.3865 C   0  0  0  0  0  0  0  0  0  0  0  0
   -1.8441    1.4137   -0.3415 O   0  0  0  0  0  0  0  0  0  0  0  0
   -0.2722    1.7257    1.2460 N   0  0  0  0  0  0  0  0  0  0  0  0
    0.3783    1.2739    1.8828 H   0  0  0  0  0  0  0  0  0  0  0  0
   -0.4884    3.1628    1.3609 C   0  0  0  0  0  0  0  0  0  0  0  0
   -1.5264    3.3741    1.6393 H   0  0  0  0  0  0  0  0  0  0  0  0
    0.1674    3.5834    2.1293 H   0  0  0  0  0  0  0  0  0  0  0  0
   -0.2700    3.6602    0.4100 H   0  0  0  0  0  0  0  0  0  0  0  0
  1  2  1  0  0  0  0
  2  3  1  0  0  0  0
  2  4  1  0  0  0  0
  2  5  1  0  0  0  0
  5  6  2  0  0  0  0
  5  7  1  0  0  0  0
  7  8  1  0  0  0  0
  7  9  1  0  0  0  0
  9 10  1  0  0  0  0
  9 11  1  0  0  0  0
  9 25  1  0  0  0  0
 11 12  1  0  0  0  0
 11 13  1  0  0  0  0
 11 14  1  0  0  0  0
 14 15  1  0  0  0  0
 14 23  2  0  0  0  0
 15 16  1  0  0  0  0
 15 17  2  0  0  0  0
 17 18  1  0  0  0  0
 17 19  1  0  0  0  0
 19 20  1  0  0  0  0
 19 21  2  0  0  0  0
 21 22  1  0  0  0  0
 21 23  1  0  0  0  0
 23 24  1  0  0  0  0
 25 26  2  0  0  0  0
 25 27  1  0  0  0  0
 27 28  1  0  0  0  0
 27 29  1  0  0  0  0
 29 30  1  0  0  0  0
 29 31  1  0  0  0  0
 29 32  1  0  0  0  0
M  END
$$$$

  -OEChem-04042216033D

 32 32  0     1  0  0  0  0  0999 V2000
   -3.6836   -3.9960    1.6082 H   0  0  0  0  0  0  0  0  0  0  0  0
   -3.6389   -3.1155    0.9610 C   0  0  0  0  0  0  0  0  0  0  0  0
   -4.4354   -2.4251    1.2485 H   0  0  0  0  0  0  0  0  0  0  0  0
   -3.7943   -3.4312   -0.0734 H   0  0  0  0  0  0  0  0  0  0  0  0
   -2.2896   -2.4354    1.0962 C   0  0  0  0  0  0  0  0  0  0  0  0
   -1.4799   -2.8496    1.9107 O   0  0  0  0  0  0  0  0  0  0  0  0
   -2.0057   -1.3268    0.3254 N   0  0  0  0  0  0  0  0  0  0  0  0
   -2.7482   -0.9571   -0.2648 H   0  0  0  0  0  0  0  0  0  0  0  0
   -0.7298   -0.5958    0.3447 C   0  0  1  0  0  0  0  0  0  0  0  0
   -0.1423   -0.8627    1.2290 H   0  0  0  0  0  0  0  0  0  0  0  0
    0.0701   -0.9266   -0.9278 C   0  0  0  0  0  0  0  0  0  0  0  0
   -0.5775   -0.8332   -1.8062 H   0  0  0  0  0  0  0  0  0  0  0  0
    0.8796   -0.1995   -1.0489 H   0  0  0  0  0  0  0  0  0  0  0  0
    0.6782   -2.3070   -0.8639 C   0  0  0  0  0  0  0  0  0  0  0  0
    1.8025   -2.5572   -0.0625 C   0  0  0  0  0  0  0  0  0  0  0  0
    2.2469   -1.7567    0.5198 H   0  0  0  0  0  0  0  0  0  0  0  0
    2.3578   -3.8399    0.0009 C   0  0  0  0  0  0  0  0  0  0  0  0
    3.2246   -4.0261    0.6277 H   0  0  0  0  0  0  0  0  0  0  0  0
    1.7935   -4.8843   -0.7376 C   0  0  0  0  0  0  0  0  0  0  0  0
    2.2226   -5.8805   -0.6862 H   0  0  0  0  0  0  0  0  0  0  0  0
    0.6728   -4.6449   -1.5381 C   0  0  0  0  0  0  0  0  0  0  0  0
    0.2306   -5.4557   -2.1089 H   0  0  0  0  0  0  0  0  0  0  0  0
    0.1186   -3.3620   -1.6000 C   0  0  0  0  0  0  0  0  0  0  0  0
   -0.7545   -3.1881   -2.2209 H   0  0  0  0  0  0  0  0  0  0  0  0
   -0.9875    0.9214    0.3892 C   0  0  0  0  0  0  0  0  0  0  0  0
   -1.8354    1.4194   -0.3431 O   0  0  0  0  0  0  0  0  0  0  0  0
   -0.2731    1.7304    1.2535 N   0  0  0  0  0  0  0  0  0  0  0  0
    0.3789    1.2796    1.8893 H   0  0  0  0  0  0  0  0  0  0  0  0
   -0.4917    3.1672    1.3689 C   0  0  0  0  0  0  0  0  0  0  0  0
   -1.5311    3.3770    1.6429 H   0  0  0  0  0  0  0  0  0  0  0  0
    0.1602    3.5879    2.1405 H   0  0  0  0  0  0  0  0  0  0  0  0
   -0.2701    3.6661    0.4195 H   0  0  0  0  0  0  0  0  0  0  0  0
  1  2  1  0  0  0  0
  2  3  1  0  0  0  0
  2  4  1  0  0  0  0
  2  5  1  0  0  0  0
  5  6  2  0  0  0  0
  5  7  1  0  0  0  0
  7  8  1  0  0  0  0
  7  9  1  0  0  0  0
  9 10  1  0  0  0  0
  9 11  1  0  0  0  0
  9 25  1  0  0  0  0
 11 12  1  0  0  0  0
 11 13  1  0  0  0  0
 11 14  1  0  0  0  0
 14 15  1  0  0  0  0
 14 23  2  0  0  0  0
 15 16  1  0  0  0  0
 15 17  2  0  0  0  0
 17 18  1  0  0  0  0
 17 19  1  0  0  0  0
 19 20  1  0  0  0  0
 19 21  2  0  0  0  0
 21 22  1  0  0  0  0
 21 23  1  0  0  0  0
 23 24  1  0  0  0  0
 25 26  2  0  0  0  0
 25 27  1  0  0  0  0
 27 28  1  0  0  0  0
 27 29  1  0  0  0  0
 29 30  1  0  0  0  0
 29 31  1  0  0  0  0
 29 32  1  0  0  0  0
M  END
$$$$

  -OEChem-04042216033D

 32 32  0     1  0  0  0  0  0999 V2000
   -3.6871   -3.9921    1.6085 H   0  0  0  0  0  0  0  0  0  0  0  0
   -3.6420   -3.1104    0.9633 C   0  0  0  0  0  0  0  0  0  0  0  0
   -4.4470   -2.4266    1.2429 H   0  0  0  0  0  0  0  0  0  0  0  0
   -3.7837   -3.4264   -0.0730 H   0  0  0  0  0  0  0  0  0  0  0  0
   -2.2997   -2.4197    1.1151 C   0  0  0  0  0  0  0  0  0  0  0  0
   -1.5040   -2.8160    1.9526 O   0  0  0  0  0  0  0  0  0  0  0  0
   -2.0070   -1.3192    0.3359 N   0  0  0  0  0  0  0  0  0  0  0  0
   -2.7358   -0.9659   -0.2807 H   0  0  0  0  0  0  0  0  0  0  0  0
   -0.7296   -0.5918    0.3635 C   0  0  1  0  0  0  0  0  0  0  0  0
   -0.1540   -0.8479    1.2578 H   0  0  0  0  0  0  0  0  0  0  0  0
    0.0740   -0.9350   -0.9051 C   0  0  0  0  0  0  0  0  0  0  0  0
   -0.5722   -0.8326   -1.7833 H   0  0  0  0  0  0  0  0  0  0  0  0
    0.8896   -0.2136   -1.0210 H   0  0  0  0  0  0  0  0  0  0  0  0
    0.6846   -2.3177   -0.8549 C   0  0  0  0  0  0  0  0  0  0  0  0
    1.5988   -2.6741    0.1494 C   0  0  0  0  0  0  0  0  0  0  0  0
    1.8860   -1.9559    0.9102 H   0  0  0  0  0  0  0  0  0  0  0  0
    2.1471   -3.9605    0.1892 C   0  0  0  0  0  0  0  0  0  0  0  0
    2.8469   -4.2270    0.9756 H   0  0  0  0  0  0  0  0  0  0  0  0
    1.7893   -4.9044   -0.7773 C   0  0  0  0  0  0  0  0  0  0  0  0
    2.2129   -5.9037   -0.7443 H   0  0  0  0  0  0  0  0  0  0  0  0
    0.8819   -4.5604   -1.7829 C   0  0  0  0  0  0  0  0  0  0  0  0
    0.6005   -5.2927   -2.5336 H   0  0  0  0  0  0  0  0  0  0  0  0
    0.3330   -3.2742   -1.8202 C   0  0  0  0  0  0  0  0  0  0  0  0
   -0.3728   -3.0223   -2.6057 H   0  0  0  0  0  0  0  0  0  0  0  0
   -0.9862    0.9264    0.3908 C   0  0  0  0  0  0  0  0  0  0  0  0
   -1.8230    1.4186   -0.3580 O   0  0  0  0  0  0  0  0  0  0  0  0
   -0.2817    1.7437    1.2557 N   0  0  0  0  0  0  0  0  0  0  0  0
    0.3626    1.2997    1.9037 H   0  0  0  0  0  0  0  0  0  0  0  0
   -0.5030    3.1812    1.3550 C   0  0  0  0  0  0  0  0  0  0  0  0
   -1.5453    3.3919    1.6166 H   0  0  0  0  0  0  0  0  0  0  0  0
    0.1406    3.6108    2.1287 H   0  0  0  0  0  0  0  0  0  0  0  0
   -0.2727    3.6704    0.4028 H   0  0  0  0  0  0  0  0  0  0  0  0
  1  2  1  0  0  0  0
  2  3  1  0  0  0  0
  2  4  1  0  0  0  0
  2  5  1  0  0  0  0
  5  6  2  0  0  0  0
  5  7  1  0  0  0  0
  7  8  1  0  0  0  0
  7  9  1  0  0  0  0
  9 10  1  0  0  0  0
  9 11  1  0  0  0  0
  9 25  1  0  0  0  0
 11 12  1  0  0  0  0
 11 13  1  0  0  0  0
 11 14  1  0  0  0  0
 14 15  1  0  0  0  0
 14 23  2  0  0  0  0
 15 16  1  0  0  0  0
 15 17  2  0  0  0  0
 17 18  1  0  0  0  0
 17 19  1  0  0  0  0
 19 20  1  0  0  0  0
 19 21  2  0  0  0  0
 21 22  1  0  0  0  0
 21 23  1  0  0  0  0
 23 24  1  0  0  0  0
 25 26  2  0  0  0  0
 25 27  1  0  0  0  0
 27 28  1  0  0  0  0
 27 29  1  0  0  0  0
 29 30  1  0  0  0  0
 29 31  1  0  0  0  0
 29 32  1  0  0  0  0
M  END
$$$$

  -OEChem-04042216033D

 32 32  0     1  0  0  0  0  0999 V2000
   -3.7187   -3.9703    1.6213 H   0  0  0  0  0  0  0  0  0  0  0  0
   -3.6660   -3.0898    0.9749 C   0  0  0  0  0  0  0  0  0  0  0  0
   -4.4798   -2.4093    1.2368 H   0  0  0  0  0  0  0  0  0  0  0  0
   -3.7853   -3.4086   -0.0634 H   0  0  0  0  0  0  0  0  0  0  0  0
   -2.3303   -2.3924    1.1502 C   0  0  0  0  0  0  0  0  0  0  0  0
   -1.5551   -2.7703    2.0155 O   0  0  0  0  0  0  0  0  0  0  0  0
   -2.0181   -1.3080    0.3565 N   0  0  0  0  0  0  0  0  0  0  0  0
   -2.7293   -0.9708   -0.2889 H   0  0  0  0  0  0  0  0  0  0  0  0
   -0.7373   -0.5881    0.3928 C   0  0  1  0  0  0  0  0  0  0  0  0
   -0.1801   -0.8238    1.3026 H   0  0  0  0  0  0  0  0  0  0  0  0
    0.0790   -0.9551   -0.8632 C   0  0  0  0  0  0  0  0  0  0  0  0
   -0.5629   -0.8518   -1.7445 H   0  0  0  0  0  0  0  0  0  0  0  0
    0.8962   -0.2356   -0.9773 H   0  0  0  0  0  0  0  0  0  0  0  0
    0.6982   -2.3390   -0.8293 C   0  0  0  0  0  0  0  0  0  0  0  0
    1.3660   -2.8403    0.3023 C   0  0  0  0  0  0  0  0  0  0  0  0
    1.4626   -2.2455    1.2039 H   0  0  0  0  0  0  0  0  0  0  0  0
    1.9155   -4.1269    0.2958 C   0  0  0  0  0  0  0  0  0  0  0  0
    2.4190   -4.5039    1.1811 H   0  0  0  0  0  0  0  0  0  0  0  0
    1.8118   -4.9284   -0.8437 C   0  0  0  0  0  0  0  0  0  0  0  0
    2.2374   -5.9275   -0.8468 H   0  0  0  0  0  0  0  0  0  0  0  0
    1.1570   -4.4412   -1.9773 C   0  0  0  0  0  0  0  0  0  0  0  0
    1.0744   -5.0613   -2.8648 H   0  0  0  0  0  0  0  0  0  0  0  0
    0.6054   -3.1556   -1.9682 C   0  0  0  0  0  0  0  0  0  0  0  0
    0.0989   -2.7939   -2.8578 H   0  0  0  0  0  0  0  0  0  0  0  0
   -0.9886    0.9315    0.3884 C   0  0  0  0  0  0  0  0  0  0  0  0
   -1.8119    1.4134   -0.3819 O   0  0  0  0  0  0  0  0  0  0  0  0
   -0.2956    1.7613    1.2504 N   0  0  0  0  0  0  0  0  0  0  0  0
    0.3373    1.3261    1.9156 H   0  0  0  0  0  0  0  0  0  0  0  0
   -0.5169    3.2004    1.3249 C   0  0  0  0  0  0  0  0  0  0  0  0
   -1.5614    3.4157    1.5747 H   0  0  0  0  0  0  0  0  0  0  0  0
    0.1209    3.6413    2.0971 H   0  0  0  0  0  0  0  0  0  0  0  0
   -0.2784    3.6748    0.3670 H   0  0  0  0  0  0  0  0  0  0  0  0
  1  2  1  0  0  0  0
  2  3  1  0  0  0  0
  2  4  1  0  0  0  0
  2  5  1  0  0  0  0
  5  6  2  0  0  0  0
  5  7  1  0  0  0  0
  7  8  1  0  0  0  0
  7  9  1  0  0  0  0
  9 10  1  0  0  0  0
  9 11  1  0  0  0  0
  9 25  1  0  0  0  0
 11 12  1  0  0  0  0
 11 13  1  0  0  0  0
 11 14  1  0  0  0  0
 14 15  1  0  0  0  0
 14 23  2  0  0  0  0
 15 16  1  0  0  0  0
 15 17  2  0  0  0  0
 17 18  1  0  0  0  0
 17 19  1  0  0  0  0
 19 20  1  0  0  0  0
 19 21  2  0  0  0  0
 21 22  1  0  0  0  0
 21 23  1  0  0  0  0
 23 24  1  0  0  0  0
 25 26  2  0  0  0  0
 25 27  1  0  0  0  0
 27 28  1  0  0  0  0
 27 29  1  0  0  0  0
 29 30  1  0  0  0  0
 29 31  1  0  0  0  0
 29 32  1  0  0  0  0
M  END
$$$$

  -OEChem-04042216033D

 32 32  0     1  0  0  0  0  0999 V2000
   -3.8208   -3.8988    1.6843 H   0  0  0  0  0  0  0  0  0  0  0  0
   -3.7259   -3.0550    0.9951 C   0  0  0  0  0  0  0  0  0  0  0  0
   -4.5360   -2.3476    1.1884 H   0  0  0  0  0  0  0  0  0  0  0  0
   -3.8117   -3.4265   -0.0290 H   0  0  0  0  0  0  0  0  0  0  0  0
   -2.3851   -2.3715    1.1863 C   0  0  0  0  0  0  0  0  0  0  0  0
   -1.6368   -2.7386    2.0795 O   0  0  0  0  0  0  0  0  0  0  0  0
   -2.0433   -1.3046    0.3813 N   0  0  0  0  0  0  0  0  0  0  0  0
   -2.7371   -0.9746   -0.2867 H   0  0  0  0  0  0  0  0  0  0  0  0
   -0.7555   -0.5966    0.4240 C   0  0  1  0  0  0  0  0  0  0  0  0
   -0.2119   -0.8165    1.3455 H   0  0  0  0  0  0  0  0  0  0  0  0
    0.0771   -0.9820   -0.8177 C   0  0  0  0  0  0  0  0  0  0  0  0
   -0.5578   -0.8794   -1.7045 H   0  0  0  0  0  0  0  0  0  0  0  0
    0.8952   -0.2617   -0.9240 H   0  0  0  0  0  0  0  0  0  0  0  0
    0.7060   -2.3645   -0.8050 C   0  0  0  0  0  0  0  0  0  0  0  0
    1.1067   -3.0268    0.3705 C   0  0  0  0  0  0  0  0  0  0  0  0
    0.9758   -2.5774    1.3484 H   0  0  0  0  0  0  0  0  0  0  0  0
    1.6817   -4.3007    0.3139 C   0  0  0  0  0  0  0  0  0  0  0  0
    1.9763   -4.7999    1.2322 H   0  0  0  0  0  0  0  0  0  0  0  0
    1.8719   -4.9313   -0.9176 C   0  0  0  0  0  0  0  0  0  0  0  0
    2.3171   -5.9210   -0.9594 H   0  0  0  0  0  0  0  0  0  0  0  0
    1.4860   -4.2850   -2.0939 C   0  0  0  0  0  0  0  0  0  0  0  0
    1.6323   -4.7712   -3.0540 H   0  0  0  0  0  0  0  0  0  0  0  0
    0.9093   -3.0121   -2.0348 C   0  0  0  0  0  0  0  0  0  0  0  0
    0.6165   -2.5244   -2.9597 H   0  0  0  0  0  0  0  0  0  0  0  0
   -0.9951    0.9248    0.3889 C   0  0  0  0  0  0  0  0  0  0  0  0
   -1.8003    1.4005   -0.4039 O   0  0  0  0  0  0  0  0  0  0  0  0
   -0.3077    1.7635    1.2469 N   0  0  0  0  0  0  0  0  0  0  0  0
    0.3122    1.3346    1.9282 H   0  0  0  0  0  0  0  0  0  0  0  0
   -0.5075    3.2069    1.2864 C   0  0  0  0  0  0  0  0  0  0  0  0
   -1.5429    3.4434    1.5530 H   0  0  0  0  0  0  0  0  0  0  0  0
    0.1539    3.6598    2.0313 H   0  0  0  0  0  0  0  0  0  0  0  0
   -0.2839    3.6517    0.3110 H   0  0  0  0  0  0  0  0  0  0  0  0
  1  2  1  0  0  0  0
  2  3  1  0  0  0  0
  2  4  1  0  0  0  0
  2  5  1  0  0  0  0
  5  6  2  0  0  0  0
  5  7  1  0  0  0  0
  7  8  1  0  0  0  0
  7  9  1  0  0  0  0
  9 10  1  0  0  0  0
  9 11  1  0  0  0  0
  9 25  1  0  0  0  0
 11 12  1  0  0  0  0
 11 13  1  0  0  0  0
 11 14  1  0  0  0  0
 14 15  1  0  0  0  0
 14 23  2  0  0  0  0
 15 16  1  0  0  0  0
 15 17  2  0  0  0  0
 17 18  1  0  0  0  0
 17 19  1  0  0  0  0
 19 20  1  0  0  0  0
 19 21  2  0  0  0  0
 21 22  1  0  0  0  0
 21 23  1  0  0  0  0
 23 24  1  0  0  0  0
 25 26  2  0  0  0  0
 25 27  1  0  0  0  0
 27 28  1  0  0  0  0
 27 29  1  0  0  0  0
 29 30  1  0  0  0  0
 29 31  1  0  0  0  0
 29 32  1  0  0  0  0
M  END
$$$$

  -OEChem-04042216033D

 32 32  0     1  0  0  0  0  0999 V2000
   -3.9019   -3.8663    1.6938 H   0  0  0  0  0  0  0  0  0  0  0  0
   -3.7664   -3.0461    0.9833 C   0  0  0  0  0  0  0  0  0  0  0  0
   -4.5922   -2.3396    1.0979 H   0  0  0  0  0  0  0  0  0  0  0  0
   -3.7810   -3.4538   -0.0305 H   0  0  0  0  0  0  0  0  0  0  0  0
   -2.4456   -2.3448    1.2392 C   0  0  0  0  0  0  0  0  0  0  0  0
   -1.7658   -2.6641    2.2019 O   0  0  0  0  0  0  0  0  0  0  0  0
   -2.0610   -1.2998    0.4253 N   0  0  0  0  0  0  0  0  0  0  0  0
   -2.7167   -1.0083   -0.2968 H   0  0  0  0  0  0  0  0  0  0  0  0
   -0.7636   -0.6047    0.4658 C   0  0  1  0  0  0  0  0  0  0  0  0
   -0.2221   -0.8229    1.3905 H   0  0  0  0  0  0  0  0  0  0  0  0
    0.0782   -1.0000   -0.7700 C   0  0  0  0  0  0  0  0  0  0  0  0
   -0.5531   -0.8974   -1.6594 H   0  0  0  0  0  0  0  0  0  0  0  0
    0.8937   -0.2762   -0.8722 H   0  0  0  0  0  0  0  0  0  0  0  0
    0.7180   -2.3772   -0.7858 C   0  0  0  0  0  0  0  0  0  0  0  0
    0.8586   -3.1969    0.3487 C   0  0  0  0  0  0  0  0  0  0  0  0
    0.5330   -2.8702    1.3286 H   0  0  0  0  0  0  0  0  0  0  0  0
    1.4448   -4.4633    0.2506 C   0  0  0  0  0  0  0  0  0  0  0  0
    1.5418   -5.0817    1.1383 H   0  0  0  0  0  0  0  0  0  0  0  0
    1.9049   -4.9305   -0.9824 C   0  0  0  0  0  0  0  0  0  0  0  0
    2.3606   -5.9135   -1.0564 H   0  0  0  0  0  0  0  0  0  0  0  0
    1.7786   -4.1273   -2.1174 C   0  0  0  0  0  0  0  0  0  0  0  0
    2.1356   -4.4853   -3.0785 H   0  0  0  0  0  0  0  0  0  0  0  0
    1.1894   -2.8627   -2.0166 C   0  0  0  0  0  0  0  0  0  0  0  0
    1.0958   -2.2529   -2.9103 H   0  0  0  0  0  0  0  0  0  0  0  0
   -0.9890    0.9182    0.3956 C   0  0  0  0  0  0  0  0  0  0  0  0
   -1.7768    1.3855   -0.4197 O   0  0  0  0  0  0  0  0  0  0  0  0
   -0.3019    1.7682    1.2427 N   0  0  0  0  0  0  0  0  0  0  0  0
    0.2985    1.3472    1.9463 H   0  0  0  0  0  0  0  0  0  0  0  0
   -0.4913    3.2136    1.2510 C   0  0  0  0  0  0  0  0  0  0  0  0
   -1.5251    3.4627    1.5122 H   0  0  0  0  0  0  0  0  0  0  0  0
    0.1732    3.6778    1.9860 H   0  0  0  0  0  0  0  0  0  0  0  0
   -0.2645    3.6358    0.2663 H   0  0  0  0  0  0  0  0  0  0  0  0
  1  2  1  0  0  0  0
  2  3  1  0  0  0  0
  2  4  1  0  0  0  0
  2  5  1  0  0  0  0
  5  6  2  0  0  0  0
  5  7  1  0  0  0  0
  7  8  1  0  0  0  0
  7  9  1  0  0  0  0
  9 10  1  0  0  0  0
  9 11  1  0  0  0  0
  9 25  1  0  0  0  0
 11 12  1  0  0  0  0
 11 13  1  0  0  0  0
 11 14  1  0  0  0  0
 14 15  1  0  0  0  0
 14 23  2  0  0  0  0
 15 16  1  0  0  0  0
 15 17  2  0  0  0  0
 17 18  1  0  0  0  0
 17 19  1  0  0  0  0
 19 20  1  0  0  0  0
 19 21  2  0  0  0  0
 21 22  1  0  0  0  0
 21 23  1  0  0  0  0
 23 24  1  0  0  0  0
 25 26  2  0  0  0  0
 25 27  1  0  0  0  0
 27 28  1  0  0  0  0
 27 29  1  0  0  0  0
 29 30  1  0  0  0  0
 29 31  1  0  0  0  0
 29 32  1  0  0  0  0
M  END
$$$$

  -OEChem-04042216033D

 32 32  0     1  0  0  0  0  0999 V2000
   -3.9769   -3.8392    1.7025 H   0  0  0  0  0  0  0  0  0  0  0  0
   -3.8124   -3.0303    0.9852 C   0  0  0  0  0  0  0  0  0  0  0  0
   -4.6476   -2.3284    1.0457 H   0  0  0  0  0  0  0  0  0  0  0  0
   -3.7742   -3.4553   -0.0208 H   0  0  0  0  0  0  0  0  0  0  0  0
   -2.5113   -2.3141    1.2941 C   0  0  0  0  0  0  0  0  0  0  0  0
   -1.8994   -2.5811    2.3164 O   0  0  0  0  0  0  0  0  0  0  0  0
   -2.0850   -1.2946    0.4694 N   0  0  0  0  0  0  0  0  0  0  0  0
   -2.7027   -1.0413   -0.2990 H   0  0  0  0  0  0  0  0  0  0  0  0
   -0.7761   -0.6174    0.5081 C   0  0  1  0  0  0  0  0  0  0  0  0
   -0.2417   -0.8392    1.4372 H   0  0  0  0  0  0  0  0  0  0  0  0
    0.0819   -1.0192   -0.7191 C   0  0  0  0  0  0  0  0  0  0  0  0
   -0.5408   -0.9136   -1.6142 H   0  0  0  0  0  0  0  0  0  0  0  0
    0.8949   -0.2905   -0.8094 H   0  0  0  0  0  0  0  0  0  0  0  0
    0.7338   -2.3900   -0.7641 C   0  0  0  0  0  0  0  0  0  0  0  0
    0.6281   -3.3611    0.2451 C   0  0  0  0  0  0  0  0  0  0  0  0
    0.1118   -3.1558    1.1710 H   0  0  0  0  0  0  0  0  0  0  0  0
    1.2287   -4.6165    0.1024 C   0  0  0  0  0  0  0  0  0  0  0  0
    1.1393   -5.3496    0.8987 H   0  0  0  0  0  0  0  0  0  0  0  0
    1.9460   -4.9243   -1.0555 C   0  0  0  0  0  0  0  0  0  0  0  0
    2.4119   -5.8992   -1.1656 H   0  0  0  0  0  0  0  0  0  0  0  0
    2.0640   -3.9706   -2.0684 C   0  0  0  0  0  0  0  0  0  0  0  0
    2.6215   -4.2027   -2.9711 H   0  0  0  0  0  0  0  0  0  0  0  0
    1.4609   -2.7171   -1.9208 C   0  0  0  0  0  0  0  0  0  0  0  0
    1.5556   -1.9899   -2.7217 H   0  0  0  0  0  0  0  0  0  0  0  0
   -0.9854    0.9065    0.4012 C   0  0  0  0  0  0  0  0  0  0  0  0
   -1.7526    1.3658   -0.4381 O   0  0  0  0  0  0  0  0  0  0  0  0
   -0.2972    1.7668    1.2369 N   0  0  0  0  0  0  0  0  0  0  0  0
    0.2817    1.3535    1.9629 H   0  0  0  0  0  0  0  0  0  0  0  0
   -0.4704    3.2140    1.2121 C   0  0  0  0  0  0  0  0  0  0  0  0
   -1.5031    3.4802    1.4602 H   0  0  0  0  0  0  0  0  0  0  0  0
    0.1944    3.6869    1.9413 H   0  0  0  0  0  0  0  0  0  0  0  0
   -0.2323    3.6122    0.2200 H   0  0  0  0  0  0  0  0  0  0  0  0
  1  2  1  0  0  0  0
  2  3  1  0  0  0  0
  2  4  1  0  0  0  0
  2  5  1  0  0  0  0
  5  6  2  0  0  0  0
  5  7  1  0  0  0  0
  7  8  1  0  0  0  0
  7  9  1  0  0  0  0
  9 10  1  0  0  0  0
  9 11  1  0  0  0  0
  9 25  1  0  0  0  0
 11 12  1  0  0  0  0
 11 13  1  0  0  0  0
 11 14  1  0  0  0  0
 14 15  1  0  0  0  0
 14 23  2  0  0  0  0
 15 16  1  0  0  0  0
 15 17  2  0  0  0  0
 17 18  1  0  0  0  0
 17 19  1  0  0  0  0
 19 20  1  0  0  0  0
 19 21  2  0  0  0  0
 21 22  1  0  0  0  0
 21 23  1  0  0  0  0
 23 24  1  0  0  0  0
 25 26  2  0  0  0  0
 25 27  1  0  0  0  0
 27 28  1  0  0  0  0
 27 29  1  0  0  0  0
 29 30  1  0  0  0  0
 29 31  1  0  0  0  0
 29 32  1  0  0  0  0
M  END
$$$$

  -OEChem-04042216033D

 32 32  0     1  0  0  0  0  0999 V2000
   -4.0707   -3.7535    1.8423 H   0  0  0  0  0  0  0  0  0  0  0  0
   -3.8958   -2.9626    1.1077 C   0  0  0  0  0  0  0  0  0  0  0  0
   -4.6979   -2.2245    1.1857 H   0  0  0  0  0  0  0  0  0  0  0  0
   -3.9098   -3.4020    0.1073 H   0  0  0  0  0  0  0  0  0  0  0  0
   -2.5557   -2.2990    1.3622 C   0  0  0  0  0  0  0  0  0  0  0  0
   -1.9124   -2.5890    2.3589 O   0  0  0  0  0  0  0  0  0  0  0  0
   -2.1193   -1.2994    0.5188 N   0  0  0  0  0  0  0  0  0  0  0  0
   -2.7579   -1.0160   -0.2219 H   0  0  0  0  0  0  0  0  0  0  0  0
   -0.7949   -0.6500    0.5254 C   0  0  1  0  0  0  0  0  0  0  0  0
   -0.2528   -0.8742    1.4497 H   0  0  0  0  0  0  0  0  0  0  0  0
    0.0677   -1.0454   -0.7047 C   0  0  0  0  0  0  0  0  0  0  0  0
   -0.5542   -0.9288   -1.5989 H   0  0  0  0  0  0  0  0  0  0  0  0
    0.8760   -0.3097   -0.7823 H   0  0  0  0  0  0  0  0  0  0  0  0
    0.7301   -2.4114   -0.7905 C   0  0  0  0  0  0  0  0  0  0  0  0
    0.4178   -3.5179    0.0153 C   0  0  0  0  0  0  0  0  0  0  0  0
   -0.3074   -3.4507    0.8081 H   0  0  0  0  0  0  0  0  0  0  0  0
    1.0629   -4.7469   -0.1617 C   0  0  0  0  0  0  0  0  0  0  0  0
    0.8105   -5.5858    0.4803 H   0  0  0  0  0  0  0  0  0  0  0  0
    2.0321   -4.8944   -1.1554 C   0  0  0  0  0  0  0  0  0  0  0  0
    2.5331   -5.8483   -1.2913 H   0  0  0  0  0  0  0  0  0  0  0  0
    2.3537   -3.8087   -1.9712 C   0  0  0  0  0  0  0  0  0  0  0  0
    3.1051   -3.9164   -2.7478 H   0  0  0  0  0  0  0  0  0  0  0  0
    1.7057   -2.5826   -1.7886 C   0  0  0  0  0  0  0  0  0  0  0  0
    1.9649   -1.7527   -2.4396 H   0  0  0  0  0  0  0  0  0  0  0  0
   -0.9922    0.8749    0.4042 C   0  0  0  0  0  0  0  0  0  0  0  0
   -1.7769    1.3321   -0.4201 O   0  0  0  0  0  0  0  0  0  0  0  0
   -0.2792    1.7372    1.2165 N   0  0  0  0  0  0  0  0  0  0  0  0
    0.3142    1.3257    1.9317 H   0  0  0  0  0  0  0  0  0  0  0  0
   -0.4372    3.1857    1.1802 C   0  0  0  0  0  0  0  0  0  0  0  0
   -1.4621    3.4660    1.4452 H   0  0  0  0  0  0  0  0  0  0  0  0
    0.2463    3.6582    1.8921 H   0  0  0  0  0  0  0  0  0  0  0  0
   -0.2131    3.5710    0.1799 H   0  0  0  0  0  0  0  0  0  0  0  0
  1  2  1  0  0  0  0
  2  3  1  0  0  0  0
  2  4  1  0  0  0  0
  2  5  1  0  0  0  0
  5  6  2  0  0  0  0
  5  7  1  0  0  0  0
  7  8  1  0  0  0  0
  7  9  1  0  0  0  0
  9 10  1  0  0  0  0
  9 11  1  0  0  0  0
  9 25  1  0  0  0  0
 11 12  1  0  0  0  0
 11 13  1  0  0  0  0
 11 14  1  0  0  0  0
 14 15  1  0  0  0  0
 14 23  2  0  0  0  0
 15 16  1  0  0  0  0
 15 17  2  0  0  0  0
 17 18  1  0  0  0  0
 17 19  1  0  0  0  0
 19 20  1  0  0  0  0
 19 21  2  0  0  0  0
 21 22  1  0  0  0  0
 21 23  1  0  0  0  0
 23 24  1  0  0  0  0
 25 26  2  0  0  0  0
 25 27  1  0  0  0  0
 27 28  1  0  0  0  0
 27 29  1  0  0  0  0
 29 30  1  0  0  0  0
 29 31  1  0  0  0  0
 29 32  1  0  0  0  0
M  END
$$$$

  -OEChem-04042216033D

 32 32  0     1  0  0  0  0  0999 V2000
   -4.1575   -3.7099    1.7827 H   0  0  0  0  0  0  0  0  0  0  0  0
   -3.9852   -2.8868    1.0834 C   0  0  0  0  0  0  0  0  0  0  0  0
   -4.7375   -2.1132    1.2563 H   0  0  0  0  0  0  0  0  0  0  0  0
   -4.0889   -3.2648    0.0634 H   0  0  0  0  0  0  0  0  0  0  0  0
   -2.5959   -2.3117    1.2847 C   0  0  0  0  0  0  0  0  0  0  0  0
   -1.9028   -2.7053    2.2095 O   0  0  0  0  0  0  0  0  0  0  0  0
   -2.1481   -1.3014    0.4594 N   0  0  0  0  0  0  0  0  0  0  0  0
   -2.8103   -0.9339   -0.2219 H   0  0  0  0  0  0  0  0  0  0  0  0
   -0.8126   -0.6765    0.4818 C   0  0  1  0  0  0  0  0  0  0  0  0
   -0.2876   -0.9216    1.4108 H   0  0  0  0  0  0  0  0  0  0  0  0
    0.0866   -1.0450   -0.7318 C   0  0  0  0  0  0  0  0  0  0  0  0
   -0.5101   -0.9127   -1.6404 H   0  0  0  0  0  0  0  0  0  0  0  0
    0.8919   -0.3034   -0.7720 H   0  0  0  0  0  0  0  0  0  0  0  0
    0.7454   -2.4142   -0.8241 C   0  0  0  0  0  0  0  0  0  0  0  0
    0.2207   -3.5997   -0.2852 C   0  0  0  0  0  0  0  0  0  0  0  0
   -0.7200   -3.6138    0.2371 H   0  0  0  0  0  0  0  0  0  0  0  0
    0.8965   -4.8174   -0.4159 C   0  0  0  0  0  0  0  0  0  0  0  0
    0.4703   -5.7189    0.0141 H   0  0  0  0  0  0  0  0  0  0  0  0
    2.1132   -4.8754   -1.0967 C   0  0  0  0  0  0  0  0  0  0  0  0
    2.6369   -5.8212   -1.1988 H   0  0  0  0  0  0  0  0  0  0  0  0
    2.6504   -3.7113   -1.6474 C   0  0  0  0  0  0  0  0  0  0  0  0
    3.5958   -3.7494   -2.1806 H   0  0  0  0  0  0  0  0  0  0  0  0
    1.9702   -2.4964   -1.5120 C   0  0  0  0  0  0  0  0  0  0  0  0
    2.4078   -1.6054   -1.9521 H   0  0  0  0  0  0  0  0  0  0  0  0
   -0.9963    0.8526    0.3930 C   0  0  0  0  0  0  0  0  0  0  0  0
   -1.7906    1.3334   -0.4085 O   0  0  0  0  0  0  0  0  0  0  0  0
   -0.2766    1.6913    1.2238 N   0  0  0  0  0  0  0  0  0  0  0  0
    0.3232    1.2596    1.9215 H   0  0  0  0  0  0  0  0  0  0  0  0
   -0.4336    3.1405    1.2293 C   0  0  0  0  0  0  0  0  0  0  0  0
   -1.4589    3.4137    1.4997 H   0  0  0  0  0  0  0  0  0  0  0  0
    0.2483    3.5921    1.9562 H   0  0  0  0  0  0  0  0  0  0  0  0
   -0.2072    3.5543    0.2410 H   0  0  0  0  0  0  0  0  0  0  0  0
  1  2  1  0  0  0  0
  2  3  1  0  0  0  0
  2  4  1  0  0  0  0
  2  5  1  0  0  0  0
  5  6  2  0  0  0  0
  5  7  1  0  0  0  0
  7  8  1  0  0  0  0
  7  9  1  0  0  0  0
  9 10  1  0  0  0  0
  9 11  1  0  0  0  0
  9 25  1  0  0  0  0
 11 12  1  0  0  0  0
 11 13  1  0  0  0  0
 11 14  1  0  0  0  0
 14 15  1  0  0  0  0
 14 23  2  0  0  0  0
 15 16  1  0  0  0  0
 15 17  2  0  0  0  0
 17 18  1  0  0  0  0
 17 19  1  0  0  0  0
 19 20  1  0  0  0  0
 19 21  2  0  0  0  0
 21 22  1  0  0  0  0
 21 23  1  0  0  0  0
 23 24  1  0  0  0  0
 25 26  2  0  0  0  0
 25 27  1  0  0  0  0
 27 28  1  0  0  0  0
 27 29  1  0  0  0  0
 29 30  1  0  0  0  0
 29 31  1  0  0  0  0
 29 32  1  0  0  0  0
M  END
$$$$

  -OEChem-04042216033D

 32 32  0     1  0  0  0  0  0999 V2000
   -4.0685   -3.7566    1.7947 H   0  0  0  0  0  0  0  0  0  0  0  0
   -3.9348   -2.9127    1.1120 C   0  0  0  0  0  0  0  0  0  0  0  0
   -4.6609   -2.1361    1.3645 H   0  0  0  0  0  0  0  0  0  0  0  0
   -4.1172   -3.2542    0.0901 H   0  0  0  0  0  0  0  0  0  0  0  0
   -2.5259   -2.3625    1.2305 C   0  0  0  0  0  0  0  0  0  0  0  0
   -1.7603   -2.8250    2.0607 O   0  0  0  0  0  0  0  0  0  0  0  0
   -2.1312   -1.3184    0.4197 N   0  0  0  0  0  0  0  0  0  0  0  0
   -2.8411   -0.9009   -0.1801 H   0  0  0  0  0  0  0  0  0  0  0  0
   -0.8054   -0.6749    0.4217 C   0  0  1  0  0  0  0  0  0  0  0  0
   -0.2573   -0.9367    1.3327 H   0  0  0  0  0  0  0  0  0  0  0  0
    0.0765   -1.0090   -0.8114 C   0  0  0  0  0  0  0  0  0  0  0  0
   -0.5361   -0.8844   -1.7105 H   0  0  0  0  0  0  0  0  0  0  0  0
    0.8697   -0.2556   -0.8650 H   0  0  0  0  0  0  0  0  0  0  0  0
    0.7330   -2.3788   -0.8902 C   0  0  0  0  0  0  0  0  0  0  0  0
    0.0702   -3.5831   -0.6049 C   0  0  0  0  0  0  0  0  0  0  0  0
   -0.9797   -3.5962   -0.3555 H   0  0  0  0  0  0  0  0  0  0  0  0
    0.7401   -4.8098   -0.6674 C   0  0  0  0  0  0  0  0  0  0  0  0
    0.2069   -5.7282   -0.4403 H   0  0  0  0  0  0  0  0  0  0  0  0
    2.0892   -4.8551   -1.0232 C   0  0  0  0  0  0  0  0  0  0  0  0
    2.6088   -5.8076   -1.0720 H   0  0  0  0  0  0  0  0  0  0  0  0
    2.7648   -3.6700   -1.3185 C   0  0  0  0  0  0  0  0  0  0  0  0
    3.8137   -3.6985   -1.5986 H   0  0  0  0  0  0  0  0  0  0  0  0
    2.0911   -2.4458   -1.2517 C   0  0  0  0  0  0  0  0  0  0  0  0
    2.6408   -1.5387   -1.4835 H   0  0  0  0  0  0  0  0  0  0  0  0
   -1.0073    0.8530    0.3881 C   0  0  0  0  0  0  0  0  0  0  0  0
   -1.8375    1.3477   -0.3669 O   0  0  0  0  0  0  0  0  0  0  0  0
   -0.2715    1.6736    1.2229 N   0  0  0  0  0  0  0  0  0  0  0  0
    0.3645    1.2285    1.8789 H   0  0  0  0  0  0  0  0  0  0  0  0
   -0.4381    3.1209    1.2735 C   0  0  0  0  0  0  0  0  0  0  0  0
   -1.4601    3.3787    1.5707 H   0  0  0  0  0  0  0  0  0  0  0  0
    0.2540    3.5561    2.0008 H   0  0  0  0  0  0  0  0  0  0  0  0
   -0.2328    3.5645    0.2936 H   0  0  0  0  0  0  0  0  0  0  0  0
  1  2  1  0  0  0  0
  2  3  1  0  0  0  0
  2  4  1  0  0  0  0
  2  5  1  0  0  0  0
  5  6  2  0  0  0  0
  5  7  1  0  0  0  0
  7  8  1  0  0  0  0
  7  9  1  0  0  0  0
  9 10  1  0  0  0  0
  9 11  1  0  0  0  0
  9 25  1  0  0  0  0
 11 12  1  0  0  0  0
 11 13  1  0  0  0  0
 11 14  1  0  0  0  0
 14 15  1  0  0  0  0
 14 23  2  0  0  0  0
 15 16  1  0  0  0  0
 15 17  2  0  0  0  0
 17 18  1  0  0  0  0
 17 19  1  0  0  0  0
 19 20  1  0  0  0  0
 19 21  2  0  0  0  0
 21 22  1  0  0  0  0
 21 23  1  0  0  0  0
 23 24  1  0  0  0  0
 25 26  2  0  0  0  0
 25 27  1  0  0  0  0
 27 28  1  0  0  0  0
 27 29  1  0  0  0  0
 29 30  1  0  0  0  0
 29 31  1  0  0  0  0
 29 32  1  0  0  0  0
M  END
$$$$

  -OEChem-04042216033D

 32 32  0     1  0  0  0  0  0999 V2000
   -3.9084   -3.8571    1.7445 H   0  0  0  0  0  0  0  0  0  0  0  0
   -3.8154   -2.9983    1.0738 C   0  0  0  0  0  0  0  0  0  0  0  0
   -4.5556   -2.2465    1.3584 H   0  0  0  0  0  0  0  0  0  0  0  0
   -4.0150   -3.3271    0.0511 H   0  0  0  0  0  0  0  0  0  0  0  0
   -2.4196   -2.4110    1.1659 C   0  0  0  0  0  0  0  0  0  0  0  0
   -1.6157   -2.8775    1.9565 O   0  0  0  0  0  0  0  0  0  0  0  0
   -2.0820   -1.3312    0.3758 N   0  0  0  0  0  0  0  0  0  0  0  0
   -2.8211   -0.9114   -0.1857 H   0  0  0  0  0  0  0  0  0  0  0  0
   -0.7764   -0.6505    0.3723 C   0  0  1  0  0  0  0  0  0  0  0  0
   -0.2034   -0.9217    1.2651 H   0  0  0  0  0  0  0  0  0  0  0  0
    0.0750   -0.9609   -0.8828 C   0  0  0  0  0  0  0  0  0  0  0  0
   -0.5581   -0.8522   -1.7697 H   0  0  0  0  0  0  0  0  0  0  0  0
    0.8619   -0.2035   -0.9635 H   0  0  0  0  0  0  0  0  0  0  0  0
    0.7232   -2.3316   -0.9244 C   0  0  0  0  0  0  0  0  0  0  0  0
   -0.0252   -3.5185   -0.8922 C   0  0  0  0  0  0  0  0  0  0  0  0
   -1.1072   -3.4851   -0.8813 H   0  0  0  0  0  0  0  0  0  0  0  0
    0.6060   -4.7668   -0.8993 C   0  0  0  0  0  0  0  0  0  0  0  0
    0.0106   -5.6744   -0.8721 H   0  0  0  0  0  0  0  0  0  0  0  0
    2.0000   -4.8462   -0.9398 C   0  0  0  0  0  0  0  0  0  0  0  0
    2.4904   -5.8151   -0.9426 H   0  0  0  0  0  0  0  0  0  0  0  0
    2.7601   -3.6750   -0.9749 C   0  0  0  0  0  0  0  0  0  0  0  0
    3.8442   -3.7324   -1.0053 H   0  0  0  0  0  0  0  0  0  0  0  0
    2.1249   -2.4284   -0.9661 C   0  0  0  0  0  0  0  0  0  0  0  0
    2.7355   -1.5312   -0.9875 H   0  0  0  0  0  0  0  0  0  0  0  0
   -1.0072    0.8730    0.3885 C   0  0  0  0  0  0  0  0  0  0  0  0
   -1.8599    1.3723   -0.3377 O   0  0  0  0  0  0  0  0  0  0  0  0
   -0.2715    1.6837    1.2330 N   0  0  0  0  0  0  0  0  0  0  0  0
    0.3837    1.2319    1.8651 H   0  0  0  0  0  0  0  0  0  0  0  0
   -0.4619    3.1261    1.3259 C   0  0  0  0  0  0  0  0  0  0  0  0
   -1.4858    3.3594    1.6365 H   0  0  0  0  0  0  0  0  0  0  0  0
    0.2277    3.5517    2.0611 H   0  0  0  0  0  0  0  0  0  0  0  0
   -0.2703    3.6006    0.3577 H   0  0  0  0  0  0  0  0  0  0  0  0
  1  2  1  0  0  0  0
  2  3  1  0  0  0  0
  2  4  1  0  0  0  0
  2  5  1  0  0  0  0
  5  6  2  0  0  0  0
  5  7  1  0  0  0  0
  7  8  1  0  0  0  0
  7  9  1  0  0  0  0
  9 10  1  0  0  0  0
  9 11  1  0  0  0  0
  9 25  1  0  0  0  0
 11 12  1  0  0  0  0
 11 13  1  0  0  0  0
 11 14  1  0  0  0  0
 14 15  1  0  0  0  0
 14 23  2  0  0  0  0
 15 16  1  0  0  0  0
 15 17  2  0  0  0  0
 17 18  1  0  0  0  0
 17 19  1  0  0  0  0
 19 20  1  0  0  0  0
 19 21  2  0  0  0  0
 21 22  1  0  0  0  0
 21 23  1  0  0  0  0
 23 24  1  0  0  0  0
 25 26  2  0  0  0  0
 25 27  1  0  0  0  0
 27 28  1  0  0  0  0
 27 29  1  0  0  0  0
 29 30  1  0  0  0  0
 29 31  1  0  0  0  0
 29 32  1  0  0  0  0
M  END
$$$$

  -OEChem-04042216033D

 32 32  0     1  0  0  0  0  0999 V2000
   -3.7644   -3.9429    1.6722 H   0  0  0  0  0  0  0  0  0  0  0  0
   -3.6995   -3.0740    1.0113 C   0  0  0  0  0  0  0  0  0  0  0  0
   -4.4670   -2.3521    1.3009 H   0  0  0  0  0  0  0  0  0  0  0  0
   -3.8829   -3.3984   -0.0158 H   0  0  0  0  0  0  0  0  0  0  0  0
   -2.3261   -2.4381    1.1153 C   0  0  0  0  0  0  0  0  0  0  0  0
   -1.5089   -2.8833    1.9048 O   0  0  0  0  0  0  0  0  0  0  0  0
   -2.0285   -1.3356    0.3407 N   0  0  0  0  0  0  0  0  0  0  0  0
   -2.7793   -0.9375   -0.2206 H   0  0  0  0  0  0  0  0  0  0  0  0
   -0.7421   -0.6207    0.3418 C   0  0  1  0  0  0  0  0  0  0  0  0
   -0.1523   -0.8929    1.2233 H   0  0  0  0  0  0  0  0  0  0  0  0
    0.0781   -0.9272   -0.9288 C   0  0  0  0  0  0  0  0  0  0  0  0
   -0.5690   -0.8340   -1.8074 H   0  0  0  0  0  0  0  0  0  0  0  0
    0.8675   -0.1758   -1.0355 H   0  0  0  0  0  0  0  0  0  0  0  0
    0.7133   -2.2997   -0.9218 C   0  0  0  0  0  0  0  0  0  0  0  0
   -0.0507   -3.4552   -1.1458 C   0  0  0  0  0  0  0  0  0  0  0  0
   -1.1138   -3.3733   -1.3442 H   0  0  0  0  0  0  0  0  0  0  0  0
    0.5445   -4.7210   -1.1210 C   0  0  0  0  0  0  0  0  0  0  0  0
   -0.0584   -5.6077   -1.2918 H   0  0  0  0  0  0  0  0  0  0  0  0
    1.9140   -4.8449   -0.8717 C   0  0  0  0  0  0  0  0  0  0  0  0
    2.3764   -5.8273   -0.8494 H   0  0  0  0  0  0  0  0  0  0  0  0
    2.6858   -3.7018   -0.6462 C   0  0  0  0  0  0  0  0  0  0  0  0
    3.7493   -3.7963   -0.4489 H   0  0  0  0  0  0  0  0  0  0  0  0
    2.0875   -2.4372   -0.6691 C   0  0  0  0  0  0  0  0  0  0  0  0
    2.7001   -1.5601   -0.4858 H   0  0  0  0  0  0  0  0  0  0  0  0
   -0.9961    0.8974    0.3857 C   0  0  0  0  0  0  0  0  0  0  0  0
   -1.8591    1.3948   -0.3294 O   0  0  0  0  0  0  0  0  0  0  0  0
   -0.2685    1.7058    1.2395 N   0  0  0  0  0  0  0  0  0  0  0  0
    0.3898    1.2532    1.8678 H   0  0  0  0  0  0  0  0  0  0  0  0
   -0.4912    3.1411    1.3652 C   0  0  0  0  0  0  0  0  0  0  0  0
   -1.5161    3.3428    1.6941 H   0  0  0  0  0  0  0  0  0  0  0  0
    0.1982    3.5678    2.1000 H   0  0  0  0  0  0  0  0  0  0  0  0
   -0.3242    3.6402    0.4048 H   0  0  0  0  0  0  0  0  0  0  0  0
  1  2  1  0  0  0  0
  2  3  1  0  0  0  0
  2  4  1  0  0  0  0
  2  5  1  0  0  0  0
  5  6  2  0  0  0  0
  5  7  1  0  0  0  0
  7  8  1  0  0  0  0
  7  9  1  0  0  0  0
  9 10  1  0  0  0  0
  9 11  1  0  0  0  0
  9 25  1  0  0  0  0
 11 12  1  0  0  0  0
 11 13  1  0  0  0  0
 11 14  1  0  0  0  0
 14 15  1  0  0  0  0
 14 23  2  0  0  0  0
 15 16  1  0  0  0  0
 15 17  2  0  0  0  0
 17 18  1  0  0  0  0
 17 19  1  0  0  0  0
 19 20  1  0  0  0  0
 19 21  2  0  0  0  0
 21 22  1  0  0  0  0
 21 23  1  0  0  0  0
 23 24  1  0  0  0  0
 25 26  2  0  0  0  0
 25 27  1  0  0  0  0
 27 28  1  0  0  0  0
 27 29  1  0  0  0  0
 29 30  1  0  0  0  0
 29 31  1  0  0  0  0
 29 32  1  0  0  0  0
M  END
$$$$

  -OEChem-04042216033D

 32 32  0     1  0  0  0  0  0999 V2000
   -3.6673   -4.0007    1.6169 H   0  0  0  0  0  0  0  0  0  0  0  0
   -3.6216   -3.1244    0.9640 C   0  0  0  0  0  0  0  0  0  0  0  0
   -4.4124   -2.4276    1.2521 H   0  0  0  0  0  0  0  0  0  0  0  0
   -3.7855   -3.4452   -0.0674 H   0  0  0  0  0  0  0  0  0  0  0  0
   -2.2680   -2.4505    1.0866 C   0  0  0  0  0  0  0  0  0  0  0  0
   -1.4475   -2.8760    1.8836 O   0  0  0  0  0  0  0  0  0  0  0  0
   -1.9932   -1.3357    0.3215 N   0  0  0  0  0  0  0  0  0  0  0  0
   -2.7475   -0.9544   -0.2460 H   0  0  0  0  0  0  0  0  0  0  0  0
   -0.7195   -0.6001    0.3297 C   0  0  1  0  0  0  0  0  0  0  0  0
   -0.1209   -0.8724    1.2056 H   0  0  0  0  0  0  0  0  0  0  0  0
    0.0782   -0.9088   -0.9508 C   0  0  0  0  0  0  0  0  0  0  0  0
   -0.5772   -0.8197   -1.8236 H   0  0  0  0  0  0  0  0  0  0  0  0
    0.8742   -0.1664   -1.0724 H   0  0  0  0  0  0  0  0  0  0  0  0
    0.7020   -2.2831   -0.9110 C   0  0  0  0  0  0  0  0  0  0  0  0
    0.0041   -3.3979   -1.3991 C   0  0  0  0  0  0  0  0  0  0  0  0
   -0.9925   -3.2756   -1.8108 H   0  0  0  0  0  0  0  0  0  0  0  0
    0.5789   -4.6725   -1.3541 C   0  0  0  0  0  0  0  0  0  0  0  0
    0.0287   -5.5300   -1.7291 H   0  0  0  0  0  0  0  0  0  0  0  0
    1.8599   -4.8430   -0.8212 C   0  0  0  0  0  0  0  0  0  0  0  0
    2.3056   -5.8326   -0.7827 H   0  0  0  0  0  0  0  0  0  0  0  0
    2.5639   -3.7383   -0.3328 C   0  0  0  0  0  0  0  0  0  0  0  0
    3.5578   -3.8701    0.0843 H   0  0  0  0  0  0  0  0  0  0  0  0
    1.9865   -2.4646   -0.3768 C   0  0  0  0  0  0  0  0  0  0  0  0
    2.5418   -1.6161    0.0098 H   0  0  0  0  0  0  0  0  0  0  0  0
   -0.9877    0.9146    0.3877 C   0  0  0  0  0  0  0  0  0  0  0  0
   -1.8512    1.4102   -0.3278 O   0  0  0  0  0  0  0  0  0  0  0  0
   -0.2687    1.7233    1.2485 N   0  0  0  0  0  0  0  0  0  0  0  0
    0.3932    1.2731    1.8746 H   0  0  0  0  0  0  0  0  0  0  0  0
   -0.5043    3.1557    1.3819 C   0  0  0  0  0  0  0  0  0  0  0  0
   -1.5361    3.3475    1.6952 H   0  0  0  0  0  0  0  0  0  0  0  0
    0.1696    3.5814    2.1315 H   0  0  0  0  0  0  0  0  0  0  0  0
   -0.3254    3.6635    0.4282 H   0  0  0  0  0  0  0  0  0  0  0  0
  1  2  1  0  0  0  0
  2  3  1  0  0  0  0
  2  4  1  0  0  0  0
  2  5  1  0  0  0  0
  5  6  2  0  0  0  0
  5  7  1  0  0  0  0
  7  8  1  0  0  0  0
  7  9  1  0  0  0  0
  9 10  1  0  0  0  0
  9 11  1  0  0  0  0
  9 25  1  0  0  0  0
 11 12  1  0  0  0  0
 11 13  1  0  0  0  0
 11 14  1  0  0  0  0
 14 15  1  0  0  0  0
 14 23  2  0  0  0  0
 15 16  1  0  0  0  0
 15 17  2  0  0  0  0
 17 18  1  0  0  0  0
 17 19  1  0  0  0  0
 19 20  1  0  0  0  0
 19 21  2  0  0  0  0
 21 22  1  0  0  0  0
 21 23  1  0  0  0  0
 23 24  1  0  0  0  0
 25 26  2  0  0  0  0
 25 27  1  0  0  0  0
 27 28  1  0  0  0  0
 27 29  1  0  0  0  0
 29 30  1  0  0  0  0
 29 31  1  0  0  0  0
 29 32  1  0  0  0  0
M  END
$$$$

  -OEChem-04042216033D

 32 32  0     1  0  0  0  0  0999 V2000
   -3.6370   -4.0133    1.5994 H   0  0  0  0  0  0  0  0  0  0  0  0
   -3.5955   -3.1378    0.9454 C   0  0  0  0  0  0  0  0  0  0  0  0
   -4.4011   -2.4526    1.2202 H   0  0  0  0  0  0  0  0  0  0  0  0
   -3.7392   -3.4634   -0.0876 H   0  0  0  0  0  0  0  0  0  0  0  0
   -2.2540   -2.4436    1.0862 C   0  0  0  0  0  0  0  0  0  0  0  0
   -1.4423   -2.8500    1.9026 O   0  0  0  0  0  0  0  0  0  0  0  0
   -1.9813   -1.3298    0.3190 N   0  0  0  0  0  0  0  0  0  0  0  0
   -2.7258   -0.9677   -0.2731 H   0  0  0  0  0  0  0  0  0  0  0  0
   -0.7110   -0.5897    0.3358 C   0  0  1  0  0  0  0  0  0  0  0  0
   -0.1165   -0.8569    1.2154 H   0  0  0  0  0  0  0  0  0  0  0  0
    0.0825   -0.9068   -0.9442 C   0  0  0  0  0  0  0  0  0  0  0  0
   -0.5717   -0.8118   -1.8173 H   0  0  0  0  0  0  0  0  0  0  0  0
    0.8869   -0.1739   -1.0661 H   0  0  0  0  0  0  0  0  0  0  0  0
    0.7005   -2.2834   -0.8934 C   0  0  0  0  0  0  0  0  0  0  0  0
    0.1495   -3.3359   -1.6397 C   0  0  0  0  0  0  0  0  0  0  0  0
   -0.7297   -3.1658   -2.2530 H   0  0  0  0  0  0  0  0  0  0  0  0
    0.7200   -4.6126   -1.5966 C   0  0  0  0  0  0  0  0  0  0  0  0
    0.2836   -5.4225   -2.1732 H   0  0  0  0  0  0  0  0  0  0  0  0
    1.8500   -4.8472   -0.8078 C   0  0  0  0  0  0  0  0  0  0  0  0
    2.2921   -5.8384   -0.7713 H   0  0  0  0  0  0  0  0  0  0  0  0
    2.4080   -3.8043   -0.0626 C   0  0  0  0  0  0  0  0  0  0  0  0
    3.2833   -3.9859    0.5538 H   0  0  0  0  0  0  0  0  0  0  0  0
    1.8361   -2.5282   -0.1066 C   0  0  0  0  0  0  0  0  0  0  0  0
    2.2768   -1.7277    0.4790 H   0  0  0  0  0  0  0  0  0  0  0  0
   -0.9834    0.9244    0.3879 C   0  0  0  0  0  0  0  0  0  0  0  0
   -1.8404    1.4168   -0.3378 O   0  0  0  0  0  0  0  0  0  0  0  0
   -0.2733    1.7365    1.2526 N   0  0  0  0  0  0  0  0  0  0  0  0
    0.3804    1.2883    1.8886 H   0  0  0  0  0  0  0  0  0  0  0  0
   -0.5138    3.1683    1.3818 C   0  0  0  0  0  0  0  0  0  0  0  0
   -1.5466    3.3576    1.6929 H   0  0  0  0  0  0  0  0  0  0  0  0
    0.1577    3.5975    2.1314 H   0  0  0  0  0  0  0  0  0  0  0  0
   -0.3345    3.6736    0.4269 H   0  0  0  0  0  0  0  0  0  0  0  0
  1  2  1  0  0  0  0
  2  3  1  0  0  0  0
  2  4  1  0  0  0  0
  2  5  1  0  0  0  0
  5  6  2  0  0  0  0
  5  7  1  0  0  0  0
  7  8  1  0  0  0  0
  7  9  1  0  0  0  0
  9 10  1  0  0  0  0
  9 11  1  0  0  0  0
  9 25  1  0  0  0  0
 11 12  1  0  0  0  0
 11 13  1  0  0  0  0
 11 14  1  0  0  0  0
 14 15  1  0  0  0  0
 14 23  2  0  0  0  0
 15 16  1  0  0  0  0
 15 17  2  0  0  0  0
 17 18  1  0  0  0  0
 17 19  1  0  0  0  0
 19 20  1  0  0  0  0
 19 21  2  0  0  0  0
 21 22  1  0  0  0  0
 21 23  1  0  0  0  0
 23 24  1  0  0  0  0
 25 26  2  0  0  0  0
 25 27  1  0  0  0  0
 27 28  1  0  0  0  0
 27 29  1  0  0  0  0
 29 30  1  0  0  0  0
 29 31  1  0  0  0  0
 29 32  1  0  0  0  0
M  END
$$$$

  -OEChem-04042216033D

 32 32  0     1  0  0  0  0  0999 V2000
   -3.6673   -4.0031    1.6030 H   0  0  0  0  0  0  0  0  0  0  0  0
   -3.6227   -3.1232    0.9553 C   0  0  0  0  0  0  0  0  0  0  0  0
   -4.4268   -2.4382    1.2343 H   0  0  0  0  0  0  0  0  0  0  0  0
   -3.7658   -3.4414   -0.0800 H   0  0  0  0  0  0  0  0  0  0  0  0
   -2.2795   -2.4334    1.1027 C   0  0  0  0  0  0  0  0  0  0  0  0
   -1.4774   -2.8352    1.9313 O   0  0  0  0  0  0  0  0  0  0  0  0
   -1.9930   -1.3275    0.3289 N   0  0  0  0  0  0  0  0  0  0  0  0
   -2.7282   -0.9691   -0.2771 H   0  0  0  0  0  0  0  0  0  0  0  0
   -0.7212   -0.5903    0.3595 C   0  0  1  0  0  0  0  0  0  0  0  0
   -0.1443   -0.8464    1.2531 H   0  0  0  0  0  0  0  0  0  0  0  0
    0.0882   -0.9200   -0.9088 C   0  0  0  0  0  0  0  0  0  0  0  0
   -0.5576   -0.8197   -1.7876 H   0  0  0  0  0  0  0  0  0  0  0  0
    0.8965   -0.1899   -1.0207 H   0  0  0  0  0  0  0  0  0  0  0  0
    0.7117   -2.2972   -0.8641 C   0  0  0  0  0  0  0  0  0  0  0  0
    0.3776   -3.2500   -1.8392 C   0  0  0  0  0  0  0  0  0  0  0  0
   -0.3400   -3.0061   -2.6165 H   0  0  0  0  0  0  0  0  0  0  0  0
    0.9585   -4.5226   -1.8218 C   0  0  0  0  0  0  0  0  0  0  0  0
    0.6887   -5.2534   -2.5784 H   0  0  0  0  0  0  0  0  0  0  0  0
    1.8852   -4.8544   -0.8296 C   0  0  0  0  0  0  0  0  0  0  0  0
    2.3340   -5.8431   -0.8122 H   0  0  0  0  0  0  0  0  0  0  0  0
    2.2320   -3.9112    0.1418 C   0  0  0  0  0  0  0  0  0  0  0  0
    2.9497   -4.1677    0.9152 H   0  0  0  0  0  0  0  0  0  0  0  0
    1.6522   -2.6381    0.1213 C   0  0  0  0  0  0  0  0  0  0  0  0
    1.9342   -1.9186    0.8826 H   0  0  0  0  0  0  0  0  0  0  0  0
   -0.9901    0.9257    0.3925 C   0  0  0  0  0  0  0  0  0  0  0  0
   -1.8311    1.4134   -0.3545 O   0  0  0  0  0  0  0  0  0  0  0  0
   -0.2930    1.7462    1.2601 N   0  0  0  0  0  0  0  0  0  0  0  0
    0.3568    1.3056    1.9052 H   0  0  0  0  0  0  0  0  0  0  0  0
   -0.5193    3.1832    1.3569 C   0  0  0  0  0  0  0  0  0  0  0  0
   -1.5614    3.3903    1.6225 H   0  0  0  0  0  0  0  0  0  0  0  0
    0.1263    3.6165    2.1268 H   0  0  0  0  0  0  0  0  0  0  0  0
   -0.2949    3.6714    0.4027 H   0  0  0  0  0  0  0  0  0  0  0  0
  1  2  1  0  0  0  0
  2  3  1  0  0  0  0
  2  4  1  0  0  0  0
  2  5  1  0  0  0  0
  5  6  2  0  0  0  0
  5  7  1  0  0  0  0
  7  8  1  0  0  0  0
  7  9  1  0  0  0  0
  9 10  1  0  0  0  0
  9 11  1  0  0  0  0
  9 25  1  0  0  0  0
 11 12  1  0  0  0  0
 11 13  1  0  0  0  0
 11 14  1  0  0  0  0
 14 15  1  0  0  0  0
 14 23  2  0  0  0  0
 15 16  1  0  0  0  0
 15 17  2  0  0  0  0
 17 18  1  0  0  0  0
 17 19  1  0  0  0  0
 19 20  1  0  0  0  0
 19 21  2  0  0  0  0
 21 22  1  0  0  0  0
 21 23  1  0  0  0  0
 23 24  1  0  0  0  0
 25 26  2  0  0  0  0
 25 27  1  0  0  0  0
 27 28  1  0  0  0  0
 27 29  1  0  0  0  0
 29 30  1  0  0  0  0
 29 31  1  0  0  0  0
 29 32  1  0  0  0  0
M  END
$$$$

  -OEChem-04042216033D

 32 32  0     1  0  0  0  0  0999 V2000
   -3.7116   -3.9698    1.6262 H   0  0  0  0  0  0  0  0  0  0  0  0
   -3.6534   -3.1001    0.9657 C   0  0  0  0  0  0  0  0  0  0  0  0
   -4.4625   -2.4104    1.2178 H   0  0  0  0  0  0  0  0  0  0  0  0
   -3.7765   -3.4346   -0.0672 H   0  0  0  0  0  0  0  0  0  0  0  0
   -2.3133   -2.4082    1.1295 C   0  0  0  0  0  0  0  0  0  0  0  0
   -1.5330   -2.7901    1.9883 O   0  0  0  0  0  0  0  0  0  0  0  0
   -2.0074   -1.3177    0.3416 N   0  0  0  0  0  0  0  0  0  0  0  0
   -2.7233   -0.9758   -0.2962 H   0  0  0  0  0  0  0  0  0  0  0  0
   -0.7325   -0.5879    0.3858 C   0  0  1  0  0  0  0  0  0  0  0  0
   -0.1780   -0.8245    1.2971 H   0  0  0  0  0  0  0  0  0  0  0  0
    0.0958   -0.9395   -0.8665 C   0  0  0  0  0  0  0  0  0  0  0  0
   -0.5413   -0.8390   -1.7517 H   0  0  0  0  0  0  0  0  0  0  0  0
    0.9068   -0.2114   -0.9718 H   0  0  0  0  0  0  0  0  0  0  0  0
    0.7264   -2.3174   -0.8317 C   0  0  0  0  0  0  0  0  0  0  0  0
    0.6514   -3.1346   -1.9713 C   0  0  0  0  0  0  0  0  0  0  0  0
    0.1289   -2.7871   -2.8574 H   0  0  0  0  0  0  0  0  0  0  0  0
    1.2408   -4.4032   -1.9849 C   0  0  0  0  0  0  0  0  0  0  0  0
    1.1688   -5.0255   -2.8718 H   0  0  0  0  0  0  0  0  0  0  0  0
    1.9221   -4.8692   -0.8580 C   0  0  0  0  0  0  0  0  0  0  0  0
    2.3771   -5.8552   -0.8648 H   0  0  0  0  0  0  0  0  0  0  0  0
    2.0177   -4.0619    0.2781 C   0  0  0  0  0  0  0  0  0  0  0  0
    2.5462   -4.4203    1.1565 H   0  0  0  0  0  0  0  0  0  0  0  0
    1.4307   -2.7921    0.2887 C   0  0  0  0  0  0  0  0  0  0  0  0
    1.5259   -2.1880    1.1843 H   0  0  0  0  0  0  0  0  0  0  0  0
   -0.9946    0.9295    0.3877 C   0  0  0  0  0  0  0  0  0  0  0  0
   -1.8175    1.4102   -0.3836 O   0  0  0  0  0  0  0  0  0  0  0  0
   -0.3095    1.7586    1.2567 N   0  0  0  0  0  0  0  0  0  0  0  0
    0.3243    1.3238    1.9214 H   0  0  0  0  0  0  0  0  0  0  0  0
   -0.5313    3.1974    1.3313 C   0  0  0  0  0  0  0  0  0  0  0  0
   -1.5729    3.4118    1.5924 H   0  0  0  0  0  0  0  0  0  0  0  0
    0.1151    3.6403    2.0950 H   0  0  0  0  0  0  0  0  0  0  0  0
   -0.3043    3.6699    0.3699 H   0  0  0  0  0  0  0  0  0  0  0  0
  1  2  1  0  0  0  0
  2  3  1  0  0  0  0
  2  4  1  0  0  0  0
  2  5  1  0  0  0  0
  5  6  2  0  0  0  0
  5  7  1  0  0  0  0
  7  8  1  0  0  0  0
  7  9  1  0  0  0  0
  9 10  1  0  0  0  0
  9 11  1  0  0  0  0
  9 25  1  0  0  0  0
 11 12  1  0  0  0  0
 11 13  1  0  0  0  0
 11 14  1  0  0  0  0
 14 15  1  0  0  0  0
 14 23  2  0  0  0  0
 15 16  1  0  0  0  0
 15 17  2  0  0  0  0
 17 18  1  0  0  0  0
 17 19  1  0  0  0  0
 19 20  1  0  0  0  0
 19 21  2  0  0  0  0
 21 22  1  0  0  0  0
 21 23  1  0  0  0  0
 23 24  1  0  0  0  0
 25 26  2  0  0  0  0
 25 27  1  0  0  0  0
 27 28  1  0  0  0  0
 27 29  1  0  0  0  0
 29 30  1  0  0  0  0
 29 31  1  0  0  0  0
 29 32  1  0  0  0  0
M  END
$$$$

  -OEChem-04042216033D

 32 32  0     1  0  0  0  0  0999 V2000
   -3.7735   -3.9376    1.6383 H   0  0  0  0  0  0  0  0  0  0  0  0
   -3.6980   -3.0689    0.9783 C   0  0  0  0  0  0  0  0  0  0  0  0
   -4.5102   -2.3762    1.2112 H   0  0  0  0  0  0  0  0  0  0  0  0
   -3.7996   -3.4044   -0.0566 H   0  0  0  0  0  0  0  0  0  0  0  0
   -2.3597   -2.3808    1.1703 C   0  0  0  0  0  0  0  0  0  0  0  0
   -1.6097   -2.7463    2.0626 O   0  0  0  0  0  0  0  0  0  0  0  0
   -2.0229   -1.3096    0.3689 N   0  0  0  0  0  0  0  0  0  0  0  0
   -2.7170   -0.9818   -0.2997 H   0  0  0  0  0  0  0  0  0  0  0  0
   -0.7418   -0.5904    0.4211 C   0  0  1  0  0  0  0  0  0  0  0  0
   -0.2030   -0.8069    1.3462 H   0  0  0  0  0  0  0  0  0  0  0  0
    0.1039   -0.9647   -0.8149 C   0  0  0  0  0  0  0  0  0  0  0  0
   -0.5257   -0.8678   -1.7061 H   0  0  0  0  0  0  0  0  0  0  0  0
    0.9155   -0.2366   -0.9158 H   0  0  0  0  0  0  0  0  0  0  0  0
    0.7436   -2.3418   -0.7962 C   0  0  0  0  0  0  0  0  0  0  0  0
    0.9532   -2.9950   -2.0222 C   0  0  0  0  0  0  0  0  0  0  0  0
    0.6439   -2.5220   -2.9494 H   0  0  0  0  0  0  0  0  0  0  0  0
    1.5569   -4.2558   -2.0743 C   0  0  0  0  0  0  0  0  0  0  0  0
    1.7063   -4.7477   -3.0308 H   0  0  0  0  0  0  0  0  0  0  0  0
    1.9670   -4.8824   -0.8957 C   0  0  0  0  0  0  0  0  0  0  0  0
    2.4328   -5.8627   -0.9320 H   0  0  0  0  0  0  0  0  0  0  0  0
    1.7770   -4.2428    0.3312 C   0  0  0  0  0  0  0  0  0  0  0  0
    2.0920   -4.7263    1.2513 H   0  0  0  0  0  0  0  0  0  0  0  0
    1.1769   -2.9802    0.3809 C   0  0  0  0  0  0  0  0  0  0  0  0
    1.0488   -2.5217    1.3549 H   0  0  0  0  0  0  0  0  0  0  0  0
   -0.9967    0.9287    0.3867 C   0  0  0  0  0  0  0  0  0  0  0  0
   -1.8036    1.3974   -0.4088 O   0  0  0  0  0  0  0  0  0  0  0  0
   -0.3234    1.7729    1.2505 N   0  0  0  0  0  0  0  0  0  0  0  0
    0.2997    1.3500    1.9327 H   0  0  0  0  0  0  0  0  0  0  0  0
   -0.5376    3.2142    1.2896 C   0  0  0  0  0  0  0  0  0  0  0  0
   -1.5810    3.4406    1.5332 H   0  0  0  0  0  0  0  0  0  0  0  0
    0.1020    3.6709    2.0509 H   0  0  0  0  0  0  0  0  0  0  0  0
   -0.2959    3.6636    0.3207 H   0  0  0  0  0  0  0  0  0  0  0  0
  1  2  1  0  0  0  0
  2  3  1  0  0  0  0
  2  4  1  0  0  0  0
  2  5  1  0  0  0  0
  5  6  2  0  0  0  0
  5  7  1  0  0  0  0
  7  8  1  0  0  0  0
  7  9  1  0  0  0  0
  9 10  1  0  0  0  0
  9 11  1  0  0  0  0
  9 25  1  0  0  0  0
 11 12  1  0  0  0  0
 11 13  1  0  0  0  0
 11 14  1  0  0  0  0
 14 15  1  0  0  0  0
 14 23  2  0  0  0  0
 15 16  1  0  0  0  0
 15 17  2  0  0  0  0
 17 18  1  0  0  0  0
 17 19  1  0  0  0  0
 19 20  1  0  0  0  0
 19 21  2  0  0  0  0
 21 22  1  0  0  0  0
 21 23  1  0  0  0  0
 23 24  1  0  0  0  0
 25 26  2  0  0  0  0
 25 27  1  0  0  0  0
 27 28  1  0  0  0  0
 27 29  1  0  0  0  0
 29 30  1  0  0  0  0
 29 31  1  0  0  0  0
 29 32  1  0  0  0  0
M  END
$$$$

  -OEChem-04042216033D

 32 32  0     1  0  0  0  0  0999 V2000
   -3.8626   -3.9076    1.6244 H   0  0  0  0  0  0  0  0  0  0  0  0
   -3.7607   -3.0414    0.9647 C   0  0  0  0  0  0  0  0  0  0  0  0
   -4.5851   -2.3506    1.1573 H   0  0  0  0  0  0  0  0  0  0  0  0
   -3.8129   -3.3820   -0.0722 H   0  0  0  0  0  0  0  0  0  0  0  0
   -2.4356   -2.3472    1.2151 C   0  0  0  0  0  0  0  0  0  0  0  0
   -1.7481   -2.6785    2.1681 O   0  0  0  0  0  0  0  0  0  0  0  0
   -2.0530   -1.2985    0.4049 N   0  0  0  0  0  0  0  0  0  0  0  0
   -2.7106   -0.9999   -0.3125 H   0  0  0  0  0  0  0  0  0  0  0  0
   -0.7585   -0.5996    0.4563 C   0  0  1  0  0  0  0  0  0  0  0  0
   -0.2242   -0.8145    1.3854 H   0  0  0  0  0  0  0  0  0  0  0  0
    0.0926   -0.9953   -0.7719 C   0  0  0  0  0  0  0  0  0  0  0  0
   -0.5307   -0.8960   -1.6673 H   0  0  0  0  0  0  0  0  0  0  0  0
    0.9090   -0.2717   -0.8682 H   0  0  0  0  0  0  0  0  0  0  0  0
    0.7310   -2.3734   -0.7727 C   0  0  0  0  0  0  0  0  0  0  0  0
    1.2236   -2.8634   -1.9935 C   0  0  0  0  0  0  0  0  0  0  0  0
    1.1090   -2.2738   -2.8983 H   0  0  0  0  0  0  0  0  0  0  0  0
    1.8583   -4.1076   -2.0706 C   0  0  0  0  0  0  0  0  0  0  0  0
    2.2240   -4.4731   -3.0255 H   0  0  0  0  0  0  0  0  0  0  0  0
    2.0235   -4.8789   -0.9184 C   0  0  0  0  0  0  0  0  0  0  0  0
    2.5144   -5.8461   -0.9739 H   0  0  0  0  0  0  0  0  0  0  0  0
    1.5616   -4.3975    0.3084 C   0  0  0  0  0  0  0  0  0  0  0  0
    1.6946   -4.9880    1.2101 H   0  0  0  0  0  0  0  0  0  0  0  0
    0.9302   -3.1514    0.3828 C   0  0  0  0  0  0  0  0  0  0  0  0
    0.6074   -2.8118    1.3596 H   0  0  0  0  0  0  0  0  0  0  0  0
   -0.9898    0.9224    0.3885 C   0  0  0  0  0  0  0  0  0  0  0  0
   -1.7783    1.3885   -0.4267 O   0  0  0  0  0  0  0  0  0  0  0  0
   -0.3119    1.7723    1.2427 N   0  0  0  0  0  0  0  0  0  0  0  0
    0.2925    1.3515    1.9429 H   0  0  0  0  0  0  0  0  0  0  0  0
   -0.5157    3.2155    1.2633 C   0  0  0  0  0  0  0  0  0  0  0  0
   -1.5576    3.4518    1.5038 H   0  0  0  0  0  0  0  0  0  0  0  0
    0.1272    3.6771    2.0191 H   0  0  0  0  0  0  0  0  0  0  0  0
   -0.2708    3.6512    0.2888 H   0  0  0  0  0  0  0  0  0  0  0  0
  1  2  1  0  0  0  0
  2  3  1  0  0  0  0
  2  4  1  0  0  0  0
  2  5  1  0  0  0  0
  5  6  2  0  0  0  0
  5  7  1  0  0  0  0
  7  8  1  0  0  0  0
  7  9  1  0  0  0  0
  9 10  1  0  0  0  0
  9 11  1  0  0  0  0
  9 25  1  0  0  0  0
 11 12  1  0  0  0  0
 11 13  1  0  0  0  0
 11 14  1  0  0  0  0
 14 15  1  0  0  0  0
 14 23  2  0  0  0  0
 15 16  1  0  0  0  0
 15 17  2  0  0  0  0
 17 18  1  0  0  0  0
 17 19  1  0  0  0  0
 19 20  1  0  0  0  0
 19 21  2  0  0  0  0
 21 22  1  0  0  0  0
 21 23  1  0  0  0  0
 23 24  1  0  0  0  0
 25 26  2  0  0  0  0
 25 27  1  0  0  0  0
 27 28  1  0  0  0  0
 27 29  1  0  0  0  0
 29 30  1  0  0  0  0
 29 31  1  0  0  0  0
 29 32  1  0  0  0  0
M  END
$$$$

  -OEChem-04042216033D

 32 32  0     1  0  0  0  0  0999 V2000
   -4.0962   -3.7557    1.8676 H   0  0  0  0  0  0  0  0  0  0  0  0
   -3.9256   -2.9708    1.1255 C   0  0  0  0  0  0  0  0  0  0  0  0
   -4.7374   -2.2421    1.1890 H   0  0  0  0  0  0  0  0  0  0  0  0
   -3.9266   -3.4218    0.1302 H   0  0  0  0  0  0  0  0  0  0  0  0
   -2.5960   -2.2873    1.3821 C   0  0  0  0  0  0  0  0  0  0  0  0
   -1.9562   -2.5574    2.3868 O   0  0  0  0  0  0  0  0  0  0  0  0
   -2.1671   -1.2911    0.5307 N   0  0  0  0  0  0  0  0  0  0  0  0
   -2.7999   -1.0369   -0.2250 H   0  0  0  0  0  0  0  0  0  0  0  0
   -0.8379   -0.6522    0.5104 C   0  0  1  0  0  0  0  0  0  0  0  0
   -0.2861   -0.8884    1.4257 H   0  0  0  0  0  0  0  0  0  0  0  0
   -0.0013   -1.0736   -0.7287 C   0  0  0  0  0  0  0  0  0  0  0  0
   -0.5411   -0.7334   -1.6195 H   0  0  0  0  0  0  0  0  0  0  0  0
    0.9394   -0.5141   -0.6908 H   0  0  0  0  0  0  0  0  0  0  0  0
    0.3653   -2.5275   -0.9756 C   0  0  0  0  0  0  0  0  0  0  0  0
    1.1190   -2.8071   -2.1287 C   0  0  0  0  0  0  0  0  0  0  0  0
    1.3411   -2.0107   -2.8330 H   0  0  0  0  0  0  0  0  0  0  0  0
    1.5749   -4.1003   -2.4057 C   0  0  0  0  0  0  0  0  0  0  0  0
    2.1338   -4.2963   -3.3160 H   0  0  0  0  0  0  0  0  0  0  0  0
    1.3188   -5.1362   -1.5061 C   0  0  0  0  0  0  0  0  0  0  0  0
    1.6731   -6.1413   -1.7143 H   0  0  0  0  0  0  0  0  0  0  0  0
    0.6290   -4.8664   -0.3229 C   0  0  0  0  0  0  0  0  0  0  0  0
    0.4602   -5.6575    0.4018 H   0  0  0  0  0  0  0  0  0  0  0  0
    0.1762   -3.5705   -0.0539 C   0  0  0  0  0  0  0  0  0  0  0  0
   -0.2839   -3.3957    0.9052 H   0  0  0  0  0  0  0  0  0  0  0  0
   -1.0014    0.8767    0.3931 C   0  0  0  0  0  0  0  0  0  0  0  0
   -1.7954    1.3547   -0.4100 O   0  0  0  0  0  0  0  0  0  0  0  0
   -0.2520    1.7203    1.1925 N   0  0  0  0  0  0  0  0  0  0  0  0
    0.3460    1.2935    1.8949 H   0  0  0  0  0  0  0  0  0  0  0  0
   -0.3861    3.1716    1.1696 C   0  0  0  0  0  0  0  0  0  0  0  0
   -1.3998    3.4672    1.4594 H   0  0  0  0  0  0  0  0  0  0  0  0
    0.3210    3.6277    1.8689 H   0  0  0  0  0  0  0  0  0  0  0  0
   -0.1787    3.5598    0.1669 H   0  0  0  0  0  0  0  0  0  0  0  0
  1  2  1  0  0  0  0
  2  3  1  0  0  0  0
  2  4  1  0  0  0  0
  2  5  1  0  0  0  0
  5  6  2  0  0  0  0
  5  7  1  0  0  0  0
  7  8  1  0  0  0  0
  7  9  1  0  0  0  0
  9 10  1  0  0  0  0
  9 11  1  0  0  0  0
  9 25  1  0  0  0  0
 11 12  1  0  0  0  0
 11 13  1  0  0  0  0
 11 14  1  0  0  0  0
 14 15  1  0  0  0  0
 14 23  2  0  0  0  0
 15 16  1  0  0  0  0
 15 17  2  0  0  0  0
 17 18  1  0  0  0  0
 17 19  1  0  0  0  0
 19 20  1  0  0  0  0
 19 21  2  0  0  0  0
 21 22  1  0  0  0  0
 21 23  1  0  0  0  0
 23 24  1  0  0  0  0
 25 26  2  0  0  0  0
 25 27  1  0  0  0  0
 27 28  1  0  0  0  0
 27 29  1  0  0  0  0
 29 30  1  0  0  0  0
 29 31  1  0  0  0  0
 29 32  1  0  0  0  0
M  END
$$$$

  -OEChem-04042216033D

 32 32  0     1  0  0  0  0  0999 V2000
   -4.2867   -3.6327    1.8527 H   0  0  0  0  0  0  0  0  0  0  0  0
   -4.0976   -2.8173    1.1489 C   0  0  0  0  0  0  0  0  0  0  0  0
   -4.8431   -2.0339    1.3064 H   0  0  0  0  0  0  0  0  0  0  0  0
   -4.1931   -3.2029    0.1309 H   0  0  0  0  0  0  0  0  0  0  0  0
   -2.7046   -2.2555    1.3617 C   0  0  0  0  0  0  0  0  0  0  0  0
   -2.0352   -2.6286    2.3126 O   0  0  0  0  0  0  0  0  0  0  0  0
   -2.2226   -1.2834    0.5102 N   0  0  0  0  0  0  0  0  0  0  0  0
   -2.8629   -0.9381   -0.2028 H   0  0  0  0  0  0  0  0  0  0  0  0
   -0.8719   -0.6913    0.5206 C   0  0  1  0  0  0  0  0  0  0  0  0
   -0.3693   -0.9270    1.4642 H   0  0  0  0  0  0  0  0  0  0  0  0
    0.0489   -1.1140   -0.6610 C   0  0  0  0  0  0  0  0  0  0  0  0
   -0.4288   -0.7616   -1.5820 H   0  0  0  0  0  0  0  0  0  0  0  0
    0.9791   -0.5469   -0.5469 H   0  0  0  0  0  0  0  0  0  0  0  0
    0.4525   -2.5575   -0.9327 C   0  0  0  0  0  0  0  0  0  0  0  0
    1.5288   -2.7448   -1.8195 C   0  0  0  0  0  0  0  0  0  0  0  0
    2.0007   -1.8846   -2.2851 H   0  0  0  0  0  0  0  0  0  0  0  0
    2.0080   -4.0215   -2.1305 C   0  0  0  0  0  0  0  0  0  0  0  0
    2.8347   -4.1381   -2.8251 H   0  0  0  0  0  0  0  0  0  0  0  0
    1.4234   -5.1450   -1.5459 C   0  0  0  0  0  0  0  0  0  0  0  0
    1.7932   -6.1386   -1.7810 H   0  0  0  0  0  0  0  0  0  0  0  0
    0.3659   -4.9829   -0.6501 C   0  0  0  0  0  0  0  0  0  0  0  0
   -0.0859   -5.8515   -0.1803 H   0  0  0  0  0  0  0  0  0  0  0  0
   -0.1095   -3.7028   -0.3451 C   0  0  0  0  0  0  0  0  0  0  0  0
   -0.9093   -3.6416    0.3697 H   0  0  0  0  0  0  0  0  0  0  0  0
   -1.0034    0.8396    0.3839 C   0  0  0  0  0  0  0  0  0  0  0  0
   -1.7825    1.3232   -0.4305 O   0  0  0  0  0  0  0  0  0  0  0  0
   -0.2591    1.6774    1.1941 N   0  0  0  0  0  0  0  0  0  0  0  0
    0.3242    1.2460    1.9058 H   0  0  0  0  0  0  0  0  0  0  0  0
   -0.3708    3.1304    1.1607 C   0  0  0  0  0  0  0  0  0  0  0  0
   -1.3830    3.4433    1.4377 H   0  0  0  0  0  0  0  0  0  0  0  0
    0.3359    3.5798    1.8649 H   0  0  0  0  0  0  0  0  0  0  0  0
   -0.1456    3.5095    0.1582 H   0  0  0  0  0  0  0  0  0  0  0  0
  1  2  1  0  0  0  0
  2  3  1  0  0  0  0
  2  4  1  0  0  0  0
  2  5  1  0  0  0  0
  5  6  2  0  0  0  0
  5  7  1  0  0  0  0
  7  8  1  0  0  0  0
  7  9  1  0  0  0  0
  9 10  1  0  0  0  0
  9 11  1  0  0  0  0
  9 25  1  0  0  0  0
 11 12  1  0  0  0  0
 11 13  1  0  0  0  0
 11 14  1  0  0  0  0
 14 15  1  0  0  0  0
 14 23  2  0  0  0  0
 15 16  1  0  0  0  0
 15 17  2  0  0  0  0
 17 18  1  0  0  0  0
 17 19  1  0  0  0  0
 19 20  1  0  0  0  0
 19 21  2  0  0  0  0
 21 22  1  0  0  0  0
 21 23  1  0  0  0  0
 23 24  1  0  0  0  0
 25 26  2  0  0  0  0
 25 27  1  0  0  0  0
 27 28  1  0  0  0  0
 27 29  1  0  0  0  0
 29 30  1  0  0  0  0
 29 31  1  0  0  0  0
 29 32  1  0  0  0  0
M  END
$$$$

  -OEChem-04042216033D

 32 32  0     1  0  0  0  0  0999 V2000
   -4.2089   -3.6169    1.9817 H   0  0  0  0  0  0  0  0  0  0  0  0
   -4.0584   -2.7917    1.2800 C   0  0  0  0  0  0  0  0  0  0  0  0
   -4.7518   -1.9851    1.5300 H   0  0  0  0  0  0  0  0  0  0  0  0
   -4.2719   -3.1461    0.2686 H   0  0  0  0  0  0  0  0  0  0  0  0
   -2.6292   -2.2895    1.3623 C   0  0  0  0  0  0  0  0  0  0  0  0
   -1.8699   -2.7501    2.1994 O   0  0  0  0  0  0  0  0  0  0  0  0
   -2.2029   -1.2998    0.4995 N   0  0  0  0  0  0  0  0  0  0  0  0
   -2.9001   -0.8836   -0.1161 H   0  0  0  0  0  0  0  0  0  0  0  0
   -0.8602   -0.6941    0.4828 C   0  0  1  0  0  0  0  0  0  0  0  0
   -0.3461   -0.9223    1.4220 H   0  0  0  0  0  0  0  0  0  0  0  0
    0.0731   -1.1005   -0.6930 C   0  0  0  0  0  0  0  0  0  0  0  0
   -0.4078   -0.7716   -1.6206 H   0  0  0  0  0  0  0  0  0  0  0  0
    0.9901   -0.5118   -0.5843 H   0  0  0  0  0  0  0  0  0  0  0  0
    0.4831   -2.5500   -0.9213 C   0  0  0  0  0  0  0  0  0  0  0  0
    1.7424   -2.7745   -1.5085 C   0  0  0  0  0  0  0  0  0  0  0  0
    2.3940   -1.9362   -1.7353 H   0  0  0  0  0  0  0  0  0  0  0  0
    2.1923   -4.0660   -1.8018 C   0  0  0  0  0  0  0  0  0  0  0  0
    3.1763   -4.2135   -2.2370 H   0  0  0  0  0  0  0  0  0  0  0  0
    1.3743   -5.1651   -1.5383 C   0  0  0  0  0  0  0  0  0  0  0  0
    1.7196   -6.1704   -1.7611 H   0  0  0  0  0  0  0  0  0  0  0  0
    0.1024   -4.9630   -1.0012 C   0  0  0  0  0  0  0  0  0  0  0  0
   -0.5487   -5.8116   -0.8136 H   0  0  0  0  0  0  0  0  0  0  0  0
   -0.3418   -3.6683   -0.7121 C   0  0  0  0  0  0  0  0  0  0  0  0
   -1.3483   -3.5684   -0.3434 H   0  0  0  0  0  0  0  0  0  0  0  0
   -1.0175    0.8353    0.3680 C   0  0  0  0  0  0  0  0  0  0  0  0
   -1.8360    1.3139   -0.4098 O   0  0  0  0  0  0  0  0  0  0  0  0
   -0.2660    1.6766    1.1676 N   0  0  0  0  0  0  0  0  0  0  0  0
    0.3501    1.2480    1.8529 H   0  0  0  0  0  0  0  0  0  0  0  0
   -0.4047    3.1277    1.1544 C   0  0  0  0  0  0  0  0  0  0  0  0
   -1.4184    3.4179    1.4503 H   0  0  0  0  0  0  0  0  0  0  0  0
    0.3038    3.5817    1.8539 H   0  0  0  0  0  0  0  0  0  0  0  0
   -0.2024    3.5231    0.1534 H   0  0  0  0  0  0  0  0  0  0  0  0
  1  2  1  0  0  0  0
  2  3  1  0  0  0  0
  2  4  1  0  0  0  0
  2  5  1  0  0  0  0
  5  6  2  0  0  0  0
  5  7  1  0  0  0  0
  7  8  1  0  0  0  0
  7  9  1  0  0  0  0
  9 10  1  0  0  0  0
  9 11  1  0  0  0  0
  9 25  1  0  0  0  0
 11 12  1  0  0  0  0
 11 13  1  0  0  0  0
 11 14  1  0  0  0  0
 14 15  1  0  0  0  0
 14 23  2  0  0  0  0
 15 16  1  0  0  0  0
 15 17  2  0  0  0  0
 17 18  1  0  0  0  0
 17 19  1  0  0  0  0
 19 20  1  0  0  0  0
 19 21  2  0  0  0  0
 21 22  1  0  0  0  0
 21 23  1  0  0  0  0
 23 24  1  0  0  0  0
 25 26  2  0  0  0  0
 25 27  1  0  0  0  0
 27 28  1  0  0  0  0
 27 29  1  0  0  0  0
 29 30  1  0  0  0  0
 29 31  1  0  0  0  0
 29 32  1  0  0  0  0
M  END
$$$$

  -OEChem-04042216033D

 32 32  0     1  0  0  0  0  0999 V2000
   -4.0455   -3.7365    1.9272 H   0  0  0  0  0  0  0  0  0  0  0  0
   -3.9391   -2.8871    1.2466 C   0  0  0  0  0  0  0  0  0  0  0  0
   -4.6524   -2.1117    1.5358 H   0  0  0  0  0  0  0  0  0  0  0  0
   -4.1650   -3.2200    0.2306 H   0  0  0  0  0  0  0  0  0  0  0  0
   -2.5258   -2.3396    1.3106 C   0  0  0  0  0  0  0  0  0  0  0  0
   -1.7335   -2.7975    2.1180 O   0  0  0  0  0  0  0  0  0  0  0  0
   -2.1559   -1.3101    0.4681 N   0  0  0  0  0  0  0  0  0  0  0  0
   -2.8817   -0.8922   -0.1118 H   0  0  0  0  0  0  0  0  0  0  0  0
   -0.8324   -0.6671    0.4443 C   0  0  1  0  0  0  0  0  0  0  0  0
   -0.2939   -0.9072    1.3666 H   0  0  0  0  0  0  0  0  0  0  0  0
    0.0735   -1.0529   -0.7544 C   0  0  0  0  0  0  0  0  0  0  0  0
   -0.4318   -0.7403   -1.6745 H   0  0  0  0  0  0  0  0  0  0  0  0
    0.9907   -0.4597   -0.6795 H   0  0  0  0  0  0  0  0  0  0  0  0
    0.4553   -2.5145   -0.9309 C   0  0  0  0  0  0  0  0  0  0  0  0
    1.7959   -2.8269   -1.2202 C   0  0  0  0  0  0  0  0  0  0  0  0
    2.5472   -2.0436   -1.2372 H   0  0  0  0  0  0  0  0  0  0  0  0
    2.1968   -4.1435   -1.4709 C   0  0  0  0  0  0  0  0  0  0  0  0
    3.2414   -4.3660   -1.6673 H   0  0  0  0  0  0  0  0  0  0  0  0
    1.2529   -5.1718   -1.4731 C   0  0  0  0  0  0  0  0  0  0  0  0
    1.5607   -6.1958   -1.6629 H   0  0  0  0  0  0  0  0  0  0  0  0
   -0.0925   -4.8738   -1.2510 C   0  0  0  0  0  0  0  0  0  0  0  0
   -0.8356   -5.6649   -1.2813 H   0  0  0  0  0  0  0  0  0  0  0  0
   -0.4875   -3.5549   -1.0049 C   0  0  0  0  0  0  0  0  0  0  0  0
   -1.5448   -3.3574   -0.8993 H   0  0  0  0  0  0  0  0  0  0  0  0
   -1.0201    0.8612    0.3815 C   0  0  0  0  0  0  0  0  0  0  0  0
   -1.8602    1.3453   -0.3691 O   0  0  0  0  0  0  0  0  0  0  0  0
   -0.2705    1.6948    1.1910 N   0  0  0  0  0  0  0  0  0  0  0  0
    0.3652    1.2597    1.8539 H   0  0  0  0  0  0  0  0  0  0  0  0
   -0.4288    3.1439    1.2131 C   0  0  0  0  0  0  0  0  0  0  0  0
   -1.4446    3.4145    1.5202 H   0  0  0  0  0  0  0  0  0  0  0  0
    0.2771    3.5906    1.9200 H   0  0  0  0  0  0  0  0  0  0  0  0
   -0.2366    3.5651    0.2207 H   0  0  0  0  0  0  0  0  0  0  0  0
  1  2  1  0  0  0  0
  2  3  1  0  0  0  0
  2  4  1  0  0  0  0
  2  5  1  0  0  0  0
  5  6  2  0  0  0  0
  5  7  1  0  0  0  0
  7  8  1  0  0  0  0
  7  9  1  0  0  0  0
  9 10  1  0  0  0  0
  9 11  1  0  0  0  0
  9 25  1  0  0  0  0
 11 12  1  0  0  0  0
 11 13  1  0  0  0  0
 11 14  1  0  0  0  0
 14 15  1  0  0  0  0
 14 23  2  0  0  0  0
 15 16  1  0  0  0  0
 15 17  2  0  0  0  0
 17 18  1  0  0  0  0
 17 19  1  0  0  0  0
 19 20  1  0  0  0  0
 19 21  2  0  0  0  0
 21 22  1  0  0  0  0
 21 23  1  0  0  0  0
 23 24  1  0  0  0  0
 25 26  2  0  0  0  0
 25 27  1  0  0  0  0
 27 28  1  0  0  0  0
 27 29  1  0  0  0  0
 29 30  1  0  0  0  0
 29 31  1  0  0  0  0
 29 32  1  0  0  0  0
M  END
$$$$

  -OEChem-04042216033D

 32 32  0     1  0  0  0  0  0999 V2000
   -3.9231   -3.8228    1.8509 H   0  0  0  0  0  0  0  0  0  0  0  0
   -3.8386   -2.9754    1.1646 C   0  0  0  0  0  0  0  0  0  0  0  0
   -4.5846   -2.2250    1.4371 H   0  0  0  0  0  0  0  0  0  0  0  0
   -4.0370   -3.3248    0.1486 H   0  0  0  0  0  0  0  0  0  0  0  0
   -2.4475   -2.3752    1.2440 C   0  0  0  0  0  0  0  0  0  0  0  0
   -1.6438   -2.8110    2.0527 O   0  0  0  0  0  0  0  0  0  0  0  0
   -2.1159   -1.3154    0.4237 N   0  0  0  0  0  0  0  0  0  0  0  0
   -2.8539   -0.9153   -0.1528 H   0  0  0  0  0  0  0  0  0  0  0  0
   -0.8085   -0.6405    0.4033 C   0  0  1  0  0  0  0  0  0  0  0  0
   -0.2507   -0.8935    1.3106 H   0  0  0  0  0  0  0  0  0  0  0  0
    0.0646   -1.0116   -0.8187 C   0  0  0  0  0  0  0  0  0  0  0  0
   -0.4633   -0.7074   -1.7289 H   0  0  0  0  0  0  0  0  0  0  0  0
    0.9871   -0.4235   -0.7751 H   0  0  0  0  0  0  0  0  0  0  0  0
    0.4179   -2.4802   -0.9565 C   0  0  0  0  0  0  0  0  0  0  0  0
    1.7678   -2.8698   -0.9469 C   0  0  0  0  0  0  0  0  0  0  0  0
    2.5474   -2.1352   -0.7715 H   0  0  0  0  0  0  0  0  0  0  0  0
    2.1324   -4.2059   -1.1451 C   0  0  0  0  0  0  0  0  0  0  0  0
    3.1789   -4.4937   -1.1134 H   0  0  0  0  0  0  0  0  0  0  0  0
    1.1509   -5.1696   -1.3874 C   0  0  0  0  0  0  0  0  0  0  0  0
    1.4318   -6.2075   -1.5396 H   0  0  0  0  0  0  0  0  0  0  0  0
   -0.1922   -4.7908   -1.4472 C   0  0  0  0  0  0  0  0  0  0  0  0
   -0.9558   -5.5340   -1.6559 H   0  0  0  0  0  0  0  0  0  0  0  0
   -0.5524   -3.4534   -1.2492 C   0  0  0  0  0  0  0  0  0  0  0  0
   -1.5961   -3.1754   -1.3397 H   0  0  0  0  0  0  0  0  0  0  0  0
   -1.0128    0.8857    0.3816 C   0  0  0  0  0  0  0  0  0  0  0  0
   -1.8611    1.3801   -0.3527 O   0  0  0  0  0  0  0  0  0  0  0  0
   -0.2634    1.7051    1.2056 N   0  0  0  0  0  0  0  0  0  0  0  0
    0.3807    1.2589    1.8528 H   0  0  0  0  0  0  0  0  0  0  0  0
   -0.4450    3.1499    1.2751 C   0  0  0  0  0  0  0  0  0  0  0  0
   -1.4622    3.3934    1.5997 H   0  0  0  0  0  0  0  0  0  0  0  0
    0.2597    3.5862    1.9895 H   0  0  0  0  0  0  0  0  0  0  0  0
   -0.2688    3.6051    0.2948 H   0  0  0  0  0  0  0  0  0  0  0  0
  1  2  1  0  0  0  0
  2  3  1  0  0  0  0
  2  4  1  0  0  0  0
  2  5  1  0  0  0  0
  5  6  2  0  0  0  0
  5  7  1  0  0  0  0
  7  8  1  0  0  0  0
  7  9  1  0  0  0  0
  9 10  1  0  0  0  0
  9 11  1  0  0  0  0
  9 25  1  0  0  0  0
 11 12  1  0  0  0  0
 11 13  1  0  0  0  0
 11 14  1  0  0  0  0
 14 15  1  0  0  0  0
 14 23  2  0  0  0  0
 15 16  1  0  0  0  0
 15 17  2  0  0  0  0
 17 18  1  0  0  0  0
 17 19  1  0  0  0  0
 19 20  1  0  0  0  0
 19 21  2  0  0  0  0
 21 22  1  0  0  0  0
 21 23  1  0  0  0  0
 23 24  1  0  0  0  0
 25 26  2  0  0  0  0
 25 27  1  0  0  0  0
 27 28  1  0  0  0  0
 27 29  1  0  0  0  0
 29 30  1  0  0  0  0
 29 31  1  0  0  0  0
 29 32  1  0  0  0  0
M  END
$$$$

  -OEChem-04042216033D

 32 32  0     1  0  0  0  0  0999 V2000
   -3.8144   -3.9116    1.7474 H   0  0  0  0  0  0  0  0  0  0  0  0
   -3.7481   -3.0553    1.0702 C   0  0  0  0  0  0  0  0  0  0  0  0
   -4.5253   -2.3345    1.3352 H   0  0  0  0  0  0  0  0  0  0  0  0
   -3.9145   -3.4023    0.0477 H   0  0  0  0  0  0  0  0  0  0  0  0
   -2.3810   -2.4069    1.1808 C   0  0  0  0  0  0  0  0  0  0  0  0
   -1.5746   -2.8272    1.9954 O   0  0  0  0  0  0  0  0  0  0  0  0
   -2.0751   -1.3221    0.3838 N   0  0  0  0  0  0  0  0  0  0  0  0
   -2.8148   -0.9428   -0.2041 H   0  0  0  0  0  0  0  0  0  0  0  0
   -0.7813   -0.6210    0.3754 C   0  0  1  0  0  0  0  0  0  0  0  0
   -0.2081   -0.8863    1.2697 H   0  0  0  0  0  0  0  0  0  0  0  0
    0.0609   -0.9738   -0.8687 C   0  0  0  0  0  0  0  0  0  0  0  0
   -0.4838   -0.6642   -1.7671 H   0  0  0  0  0  0  0  0  0  0  0  0
    0.9906   -0.3962   -0.8443 H   0  0  0  0  0  0  0  0  0  0  0  0
    0.3911   -2.4459   -0.9878 C   0  0  0  0  0  0  0  0  0  0  0  0
    1.6832   -2.9061   -0.6901 C   0  0  0  0  0  0  0  0  0  0  0  0
    2.4397   -2.2153   -0.3314 H   0  0  0  0  0  0  0  0  0  0  0  0
    2.0104   -4.2586   -0.8382 C   0  0  0  0  0  0  0  0  0  0  0  0
    3.0092   -4.6060   -0.5919 H   0  0  0  0  0  0  0  0  0  0  0  0
    1.0517   -5.1642   -1.3009 C   0  0  0  0  0  0  0  0  0  0  0  0
    1.3038   -6.2150   -1.4099 H   0  0  0  0  0  0  0  0  0  0  0  0
   -0.2303   -4.7134   -1.6262 C   0  0  0  0  0  0  0  0  0  0  0  0
   -0.9738   -5.4136   -1.9940 H   0  0  0  0  0  0  0  0  0  0  0  0
   -0.5538   -3.3605   -1.4800 C   0  0  0  0  0  0  0  0  0  0  0  0
   -1.5473   -3.0192   -1.7513 H   0  0  0  0  0  0  0  0  0  0  0  0
   -1.0044    0.9023    0.3889 C   0  0  0  0  0  0  0  0  0  0  0  0
   -1.8535    1.4023   -0.3406 O   0  0  0  0  0  0  0  0  0  0  0  0
   -0.2638    1.7139    1.2284 N   0  0  0  0  0  0  0  0  0  0  0  0
    0.3815    1.2623    1.8706 H   0  0  0  0  0  0  0  0  0  0  0  0
   -0.4547    3.1565    1.3177 C   0  0  0  0  0  0  0  0  0  0  0  0
   -1.4750    3.3890    1.6405 H   0  0  0  0  0  0  0  0  0  0  0  0
    0.2439    3.5869    2.0419 H   0  0  0  0  0  0  0  0  0  0  0  0
   -0.2766    3.6272    0.3450 H   0  0  0  0  0  0  0  0  0  0  0  0
  1  2  1  0  0  0  0
  2  3  1  0  0  0  0
  2  4  1  0  0  0  0
  2  5  1  0  0  0  0
  5  6  2  0  0  0  0
  5  7  1  0  0  0  0
  7  8  1  0  0  0  0
  7  9  1  0  0  0  0
  9 10  1  0  0  0  0
  9 11  1  0  0  0  0
  9 25  1  0  0  0  0
 11 12  1  0  0  0  0
 11 13  1  0  0  0  0
 11 14  1  0  0  0  0
 14 15  1  0  0  0  0
 14 23  2  0  0  0  0
 15 16  1  0  0  0  0
 15 17  2  0  0  0  0
 17 18  1  0  0  0  0
 17 19  1  0  0  0  0
 19 20  1  0  0  0  0
 19 21  2  0  0  0  0
 21 22  1  0  0  0  0
 21 23  1  0  0  0  0
 23 24  1  0  0  0  0
 25 26  2  0  0  0  0
 25 27  1  0  0  0  0
 27 28  1  0  0  0  0
 27 29  1  0  0  0  0
 29 30  1  0  0  0  0
 29 31  1  0  0  0  0
 29 32  1  0  0  0  0
M  END
$$$$

  -OEChem-04042216033D

 32 32  0     1  0  0  0  0  0999 V2000
   -3.7180   -3.9866    1.6489 H   0  0  0  0  0  0  0  0  0  0  0  0
   -3.6728   -3.1120    0.9941 C   0  0  0  0  0  0  0  0  0  0  0  0
   -4.4773   -2.4244    1.2656 H   0  0  0  0  0  0  0  0  0  0  0  0
   -3.8138   -3.4385   -0.0389 H   0  0  0  0  0  0  0  0  0  0  0  0
   -2.3301   -2.4214    1.1377 C   0  0  0  0  0  0  0  0  0  0  0  0
   -1.5258   -2.8228    1.9643 O   0  0  0  0  0  0  0  0  0  0  0  0
   -2.0439   -1.3215    0.3547 N   0  0  0  0  0  0  0  0  0  0  0  0
   -2.7809   -0.9647   -0.2496 H   0  0  0  0  0  0  0  0  0  0  0  0
   -0.7592   -0.6045    0.3527 C   0  0  1  0  0  0  0  0  0  0  0  0
   -0.1744   -0.8775    1.2368 H   0  0  0  0  0  0  0  0  0  0  0  0
    0.0581   -0.9488   -0.9073 C   0  0  0  0  0  0  0  0  0  0  0  0
   -0.4981   -0.6338   -1.7967 H   0  0  0  0  0  0  0  0  0  0  0  0
    0.9948   -0.3821   -0.8972 H   0  0  0  0  0  0  0  0  0  0  0  0
    0.3706   -2.4238   -1.0114 C   0  0  0  0  0  0  0  0  0  0  0  0
    1.5418   -2.9449   -0.4419 C   0  0  0  0  0  0  0  0  0  0  0  0
    2.2228   -2.2934    0.0967 H   0  0  0  0  0  0  0  0  0  0  0  0
    1.8380   -4.3084   -0.5491 C   0  0  0  0  0  0  0  0  0  0  0  0
    2.7416   -4.7047   -0.0958 H   0  0  0  0  0  0  0  0  0  0  0  0
    0.9687   -5.1620   -1.2348 C   0  0  0  0  0  0  0  0  0  0  0  0
    1.1971   -6.2206   -1.3148 H   0  0  0  0  0  0  0  0  0  0  0  0
   -0.1953   -4.6506   -1.8160 C   0  0  0  0  0  0  0  0  0  0  0  0
   -0.8699   -5.3118   -2.3515 H   0  0  0  0  0  0  0  0  0  0  0  0
   -0.4901   -3.2874   -1.7070 C   0  0  0  0  0  0  0  0  0  0  0  0
   -1.3949   -2.8978   -2.1630 H   0  0  0  0  0  0  0  0  0  0  0  0
   -0.9928    0.9166    0.3890 C   0  0  0  0  0  0  0  0  0  0  0  0
   -1.8422    1.4221   -0.3362 O   0  0  0  0  0  0  0  0  0  0  0  0
   -0.2556    1.7216    1.2378 N   0  0  0  0  0  0  0  0  0  0  0  0
    0.3896    1.2651    1.8765 H   0  0  0  0  0  0  0  0  0  0  0  0
   -0.4593    3.1607    1.3502 C   0  0  0  0  0  0  0  0  0  0  0  0
   -1.4899    3.3802    1.6483 H   0  0  0  0  0  0  0  0  0  0  0  0
    0.2148    3.5807    2.1028 H   0  0  0  0  0  0  0  0  0  0  0  0
   -0.2571    3.6516    0.3926 H   0  0  0  0  0  0  0  0  0  0  0  0
  1  2  1  0  0  0  0
  2  3  1  0  0  0  0
  2  4  1  0  0  0  0
  2  5  1  0  0  0  0
  5  6  2  0  0  0  0
  5  7  1  0  0  0  0
  7  8  1  0  0  0  0
  7  9  1  0  0  0  0
  9 10  1  0  0  0  0
  9 11  1  0  0  0  0
  9 25  1  0  0  0  0
 11 12  1  0  0  0  0
 11 13  1  0  0  0  0
 11 14  1  0  0  0  0
 14 15  1  0  0  0  0
 14 23  2  0  0  0  0
 15 16  1  0  0  0  0
 15 17  2  0  0  0  0
 17 18  1  0  0  0  0
 17 19  1  0  0  0  0
 19 20  1  0  0  0  0
 19 21  2  0  0  0  0
 21 22  1  0  0  0  0
 21 23  1  0  0  0  0
 23 24  1  0  0  0  0
 25 26  2  0  0  0  0
 25 27  1  0  0  0  0
 27 28  1  0  0  0  0
 27 29  1  0  0  0  0
 29 30  1  0  0  0  0
 29 31  1  0  0  0  0
 29 32  1  0  0  0  0
M  END
$$$$

  -OEChem-04042216033D

 32 32  0     1  0  0  0  0  0999 V2000
   -3.6865   -4.0091    1.6121 H   0  0  0  0  0  0  0  0  0  0  0  0
   -3.6448   -3.1312    0.9614 C   0  0  0  0  0  0  0  0  0  0  0  0
   -4.4590   -2.4536    1.2292 H   0  0  0  0  0  0  0  0  0  0  0  0
   -3.7732   -3.4546   -0.0743 H   0  0  0  0  0  0  0  0  0  0  0  0
   -2.3108   -2.4270    1.1192 C   0  0  0  0  0  0  0  0  0  0  0  0
   -1.5119   -2.8185    1.9563 O   0  0  0  0  0  0  0  0  0  0  0  0
   -2.0291   -1.3220    0.3418 N   0  0  0  0  0  0  0  0  0  0  0  0
   -2.7589   -0.9811   -0.2801 H   0  0  0  0  0  0  0  0  0  0  0  0
   -0.7485   -0.5983    0.3473 C   0  0  1  0  0  0  0  0  0  0  0  0
   -0.1618   -0.8726    1.2295 H   0  0  0  0  0  0  0  0  0  0  0  0
    0.0580   -0.9398   -0.9193 C   0  0  0  0  0  0  0  0  0  0  0  0
   -0.5014   -0.6156   -1.8033 H   0  0  0  0  0  0  0  0  0  0  0  0
    0.9998   -0.3817   -0.9118 H   0  0  0  0  0  0  0  0  0  0  0  0
    0.3649   -2.4157   -1.0239 C   0  0  0  0  0  0  0  0  0  0  0  0
    1.3522   -2.9986   -0.2158 C   0  0  0  0  0  0  0  0  0  0  0  0
    1.8990   -2.3925    0.4994 H   0  0  0  0  0  0  0  0  0  0  0  0
    1.6312   -4.3663   -0.3109 C   0  0  0  0  0  0  0  0  0  0  0  0
    2.3905   -4.8101    0.3261 H   0  0  0  0  0  0  0  0  0  0  0  0
    0.9276   -5.1630   -1.2191 C   0  0  0  0  0  0  0  0  0  0  0  0
    1.1429   -6.2251   -1.2904 H   0  0  0  0  0  0  0  0  0  0  0  0
   -0.0558   -4.5909   -2.0313 C   0  0  0  0  0  0  0  0  0  0  0  0
   -0.6032   -5.2083   -2.7370 H   0  0  0  0  0  0  0  0  0  0  0  0
   -0.3352   -3.2236   -1.9333 C   0  0  0  0  0  0  0  0  0  0  0  0
   -1.1027   -2.7896   -2.5667 H   0  0  0  0  0  0  0  0  0  0  0  0
   -0.9859    0.9221    0.3898 C   0  0  0  0  0  0  0  0  0  0  0  0
   -1.8314    1.4297   -0.3385 O   0  0  0  0  0  0  0  0  0  0  0  0
   -0.2534    1.7250    1.2448 N   0  0  0  0  0  0  0  0  0  0  0  0
    0.3908    1.2674    1.8838 H   0  0  0  0  0  0  0  0  0  0  0  0
   -0.4610    3.1633    1.3629 C   0  0  0  0  0  0  0  0  0  0  0  0
   -1.4949    3.3797    1.6519 H   0  0  0  0  0  0  0  0  0  0  0  0
    0.2047    3.5803    2.1246 H   0  0  0  0  0  0  0  0  0  0  0  0
   -0.2502    3.6598    0.4100 H   0  0  0  0  0  0  0  0  0  0  0  0
  1  2  1  0  0  0  0
  2  3  1  0  0  0  0
  2  4  1  0  0  0  0
  2  5  1  0  0  0  0
  5  6  2  0  0  0  0
  5  7  1  0  0  0  0
  7  8  1  0  0  0  0
  7  9  1  0  0  0  0
  9 10  1  0  0  0  0
  9 11  1  0  0  0  0
  9 25  1  0  0  0  0
 11 12  1  0  0  0  0
 11 13  1  0  0  0  0
 11 14  1  0  0  0  0
 14 15  1  0  0  0  0
 14 23  2  0  0  0  0
 15 16  1  0  0  0  0
 15 17  2  0  0  0  0
 17 18  1  0  0  0  0
 17 19  1  0  0  0  0
 19 20  1  0  0  0  0
 19 21  2  0  0  0  0
 21 22  1  0  0  0  0
 21 23  1  0  0  0  0
 23 24  1  0  0  0  0
 25 26  2  0  0  0  0
 25 27  1  0  0  0  0
 27 28  1  0  0  0  0
 27 29  1  0  0  0  0
 29 30  1  0  0  0  0
 29 31  1  0  0  0  0
 29 32  1  0  0  0  0
M  END
$$$$

  -OEChem-04042216033D

 32 32  0     1  0  0  0  0  0999 V2000
   -3.6982   -3.9997    1.6255 H   0  0  0  0  0  0  0  0  0  0  0  0
   -3.6472   -3.1340    0.9595 C   0  0  0  0  0  0  0  0  0  0  0  0
   -4.4718   -2.4571    1.1962 H   0  0  0  0  0  0  0  0  0  0  0  0
   -3.7504   -3.4780   -0.0725 H   0  0  0  0  0  0  0  0  0  0  0  0
   -2.3216   -2.4178    1.1350 C   0  0  0  0  0  0  0  0  0  0  0  0
   -1.5392   -2.7892    1.9968 O   0  0  0  0  0  0  0  0  0  0  0  0
   -2.0319   -1.3188    0.3522 N   0  0  0  0  0  0  0  0  0  0  0  0
   -2.7433   -1.0027   -0.3030 H   0  0  0  0  0  0  0  0  0  0  0  0
   -0.7508   -0.5965    0.3641 C   0  0  1  0  0  0  0  0  0  0  0  0
   -0.1697   -0.8631    1.2522 H   0  0  0  0  0  0  0  0  0  0  0  0
    0.0565   -0.9433   -0.9019 C   0  0  0  0  0  0  0  0  0  0  0  0
   -0.5010   -0.6100   -1.7838 H   0  0  0  0  0  0  0  0  0  0  0  0
    1.0006   -0.3893   -0.8893 H   0  0  0  0  0  0  0  0  0  0  0  0
    0.3684   -2.4189   -1.0215 C   0  0  0  0  0  0  0  0  0  0  0  0
    1.1157   -3.0822   -0.0359 C   0  0  0  0  0  0  0  0  0  0  0  0
    1.4772   -2.5426    0.8334 H   0  0  0  0  0  0  0  0  0  0  0  0
    1.3892   -4.4492   -0.1491 C   0  0  0  0  0  0  0  0  0  0  0  0
    1.9603   -4.9520    0.6254 H   0  0  0  0  0  0  0  0  0  0  0  0
    0.9209   -5.1681   -1.2521 C   0  0  0  0  0  0  0  0  0  0  0  0
    1.1318   -6.2299   -1.3378 H   0  0  0  0  0  0  0  0  0  0  0  0
    0.1777   -4.5180   -2.2410 C   0  0  0  0  0  0  0  0  0  0  0  0
   -0.1881   -5.0751   -3.0984 H   0  0  0  0  0  0  0  0  0  0  0  0
   -0.0962   -3.1508   -2.1257 C   0  0  0  0  0  0  0  0  0  0  0  0
   -0.6765   -2.6597   -2.9007 H   0  0  0  0  0  0  0  0  0  0  0  0
   -0.9875    0.9244    0.3939 C   0  0  0  0  0  0  0  0  0  0  0  0
   -1.8200    1.4302   -0.3506 O   0  0  0  0  0  0  0  0  0  0  0  0
   -0.2609    1.7305    1.2508 N   0  0  0  0  0  0  0  0  0  0  0  0
    0.3726    1.2746    1.9015 H   0  0  0  0  0  0  0  0  0  0  0  0
   -0.4577    3.1713    1.3511 C   0  0  0  0  0  0  0  0  0  0  0  0
   -1.4856    3.3981    1.6532 H   0  0  0  0  0  0  0  0  0  0  0  0
    0.2232    3.5948    2.0955 H   0  0  0  0  0  0  0  0  0  0  0  0
   -0.2588    3.6521    0.3876 H   0  0  0  0  0  0  0  0  0  0  0  0
  1  2  1  0  0  0  0
  2  3  1  0  0  0  0
  2  4  1  0  0  0  0
  2  5  1  0  0  0  0
  5  6  2  0  0  0  0
  5  7  1  0  0  0  0
  7  8  1  0  0  0  0
  7  9  1  0  0  0  0
  9 10  1  0  0  0  0
  9 11  1  0  0  0  0
  9 25  1  0  0  0  0
 11 12  1  0  0  0  0
 11 13  1  0  0  0  0
 11 14  1  0  0  0  0
 14 15  1  0  0  0  0
 14 23  2  0  0  0  0
 15 16  1  0  0  0  0
 15 17  2  0  0  0  0
 17 18  1  0  0  0  0
 17 19  1  0  0  0  0
 19 20  1  0  0  0  0
 19 21  2  0  0  0  0
 21 22  1  0  0  0  0
 21 23  1  0  0  0  0
 23 24  1  0  0  0  0
 25 26  2  0  0  0  0
 25 27  1  0  0  0  0
 27 28  1  0  0  0  0
 27 29  1  0  0  0  0
 29 30  1  0  0  0  0
 29 31  1  0  0  0  0
 29 32  1  0  0  0  0
M  END
$$$$

  -OEChem-04042216033D

 32 32  0     1  0  0  0  0  0999 V2000
   -3.7385   -3.9757    1.6514 H   0  0  0  0  0  0  0  0  0  0  0  0
   -3.6751   -3.1139    0.9813 C   0  0  0  0  0  0  0  0  0  0  0  0
   -4.5088   -2.4399    1.1915 H   0  0  0  0  0  0  0  0  0  0  0  0
   -3.7496   -3.4652   -0.0506 H   0  0  0  0  0  0  0  0  0  0  0  0
   -2.3593   -2.3878    1.1858 C   0  0  0  0  0  0  0  0  0  0  0  0
   -1.6067   -2.7316    2.0851 O   0  0  0  0  0  0  0  0  0  0  0  0
   -2.0469   -1.3077    0.3861 N   0  0  0  0  0  0  0  0  0  0  0  0
   -2.7362   -1.0178   -0.3040 H   0  0  0  0  0  0  0  0  0  0  0  0
   -0.7595   -0.5963    0.3967 C   0  0  1  0  0  0  0  0  0  0  0  0
   -0.1876   -0.8474    1.2944 H   0  0  0  0  0  0  0  0  0  0  0  0
    0.0507   -0.9676   -0.8633 C   0  0  0  0  0  0  0  0  0  0  0  0
   -0.5072   -0.6340   -1.7451 H   0  0  0  0  0  0  0  0  0  0  0  0
    0.9957   -0.4152   -0.8514 H   0  0  0  0  0  0  0  0  0  0  0  0
    0.3731   -2.4425   -1.0043 C   0  0  0  0  0  0  0  0  0  0  0  0
    0.8453   -3.2077    0.0754 C   0  0  0  0  0  0  0  0  0  0  0  0
    0.9873   -2.7586    1.0532 H   0  0  0  0  0  0  0  0  0  0  0  0
    1.1274   -4.5684   -0.0822 C   0  0  0  0  0  0  0  0  0  0  0  0
    1.4805   -5.1471    0.7662 H   0  0  0  0  0  0  0  0  0  0  0  0
    0.9497   -5.1815   -1.3250 C   0  0  0  0  0  0  0  0  0  0  0  0
    1.1694   -6.2381   -1.4461 H   0  0  0  0  0  0  0  0  0  0  0  0
    0.4881   -4.4313   -2.4097 C   0  0  0  0  0  0  0  0  0  0  0  0
    0.3507   -4.9043   -3.3776 H   0  0  0  0  0  0  0  0  0  0  0  0
    0.2021   -3.0713   -2.2485 C   0  0  0  0  0  0  0  0  0  0  0  0
   -0.1565   -2.5035   -3.1017 H   0  0  0  0  0  0  0  0  0  0  0  0
   -0.9853    0.9275    0.3934 C   0  0  0  0  0  0  0  0  0  0  0  0
   -1.8060    1.4252   -0.3694 O   0  0  0  0  0  0  0  0  0  0  0  0
   -0.2617    1.7461    1.2412 N   0  0  0  0  0  0  0  0  0  0  0  0
    0.3585    1.2987    1.9104 H   0  0  0  0  0  0  0  0  0  0  0  0
   -0.4594    3.1885    1.3188 C   0  0  0  0  0  0  0  0  0  0  0  0
   -1.4909    3.4188    1.6055 H   0  0  0  0  0  0  0  0  0  0  0  0
    0.2125    3.6231    2.0652 H   0  0  0  0  0  0  0  0  0  0  0  0
   -0.2498    3.6568    0.3513 H   0  0  0  0  0  0  0  0  0  0  0  0
  1  2  1  0  0  0  0
  2  3  1  0  0  0  0
  2  4  1  0  0  0  0
  2  5  1  0  0  0  0
  5  6  2  0  0  0  0
  5  7  1  0  0  0  0
  7  8  1  0  0  0  0
  7  9  1  0  0  0  0
  9 10  1  0  0  0  0
  9 11  1  0  0  0  0
  9 25  1  0  0  0  0
 11 12  1  0  0  0  0
 11 13  1  0  0  0  0
 11 14  1  0  0  0  0
 14 15  1  0  0  0  0
 14 23  2  0  0  0  0
 15 16  1  0  0  0  0
 15 17  2  0  0  0  0
 17 18  1  0  0  0  0
 17 19  1  0  0  0  0
 19 20  1  0  0  0  0
 19 21  2  0  0  0  0
 21 22  1  0  0  0  0
 21 23  1  0  0  0  0
 23 24  1  0  0  0  0
 25 26  2  0  0  0  0
 25 27  1  0  0  0  0
 27 28  1  0  0  0  0
 27 29  1  0  0  0  0
 29 30  1  0  0  0  0
 29 31  1  0  0  0  0
 29 32  1  0  0  0  0
M  END
$$$$

  -OEChem-04042216033D

 32 32  0     1  0  0  0  0  0999 V2000
   -3.8393   -3.9173    1.7129 H   0  0  0  0  0  0  0  0  0  0  0  0
   -3.7277   -3.0960    0.9995 C   0  0  0  0  0  0  0  0  0  0  0  0
   -4.5724   -2.4122    1.1124 H   0  0  0  0  0  0  0  0  0  0  0  0
   -3.7318   -3.5069   -0.0131 H   0  0  0  0  0  0  0  0  0  0  0  0
   -2.4271   -2.3573    1.2512 C   0  0  0  0  0  0  0  0  0  0  0  0
   -1.7322   -2.6581    2.2098 O   0  0  0  0  0  0  0  0  0  0  0  0
   -2.0744   -1.3028    0.4350 N   0  0  0  0  0  0  0  0  0  0  0  0
   -2.7318   -1.0442   -0.2975 H   0  0  0  0  0  0  0  0  0  0  0  0
   -0.7779   -0.6046    0.4434 C   0  0  1  0  0  0  0  0  0  0  0  0
   -0.2155   -0.8449    1.3505 H   0  0  0  0  0  0  0  0  0  0  0  0
    0.0456   -0.9939   -0.8064 C   0  0  0  0  0  0  0  0  0  0  0  0
   -0.5090   -0.6635   -1.6915 H   0  0  0  0  0  0  0  0  0  0  0  0
    0.9861   -0.4340   -0.7887 H   0  0  0  0  0  0  0  0  0  0  0  0
    0.3915   -2.4616   -0.9798 C   0  0  0  0  0  0  0  0  0  0  0  0
    0.5769   -3.3385    0.1028 C   0  0  0  0  0  0  0  0  0  0  0  0
    0.5074   -2.9848    1.1255 H   0  0  0  0  0  0  0  0  0  0  0  0
    0.8739   -4.6884   -0.1105 C   0  0  0  0  0  0  0  0  0  0  0  0
    1.0118   -5.3499    0.7399 H   0  0  0  0  0  0  0  0  0  0  0  0
    0.9947   -5.1827   -1.4114 C   0  0  0  0  0  0  0  0  0  0  0  0
    1.2260   -6.2310   -1.5758 H   0  0  0  0  0  0  0  0  0  0  0  0
    0.8199   -4.3227   -2.4981 C   0  0  0  0  0  0  0  0  0  0  0  0
    0.9152   -4.7020   -3.5111 H   0  0  0  0  0  0  0  0  0  0  0  0
    0.5213   -2.9732   -2.2815 C   0  0  0  0  0  0  0  0  0  0  0  0
    0.3868   -2.3195   -3.1383 H   0  0  0  0  0  0  0  0  0  0  0  0
   -0.9891    0.9208    0.3967 C   0  0  0  0  0  0  0  0  0  0  0  0
   -1.7936    1.4076   -0.3901 O   0  0  0  0  0  0  0  0  0  0  0  0
   -0.2670    1.7524    1.2328 N   0  0  0  0  0  0  0  0  0  0  0  0
    0.3410    1.3156    1.9199 H   0  0  0  0  0  0  0  0  0  0  0  0
   -0.4421    3.1991    1.2663 C   0  0  0  0  0  0  0  0  0  0  0  0
   -1.4645    3.4542    1.5642 H   0  0  0  0  0  0  0  0  0  0  0  0
    0.2504    3.6476    1.9851 H   0  0  0  0  0  0  0  0  0  0  0  0
   -0.2434    3.6323    0.2802 H   0  0  0  0  0  0  0  0  0  0  0  0
  1  2  1  0  0  0  0
  2  3  1  0  0  0  0
  2  4  1  0  0  0  0
  2  5  1  0  0  0  0
  5  6  2  0  0  0  0
  5  7  1  0  0  0  0
  7  8  1  0  0  0  0
  7  9  1  0  0  0  0
  9 10  1  0  0  0  0
  9 11  1  0  0  0  0
  9 25  1  0  0  0  0
 11 12  1  0  0  0  0
 11 13  1  0  0  0  0
 11 14  1  0  0  0  0
 14 15  1  0  0  0  0
 14 23  2  0  0  0  0
 15 16  1  0  0  0  0
 15 17  2  0  0  0  0
 17 18  1  0  0  0  0
 17 19  1  0  0  0  0
 19 20  1  0  0  0  0
 19 21  2  0  0  0  0
 21 22  1  0  0  0  0
 21 23  1  0  0  0  0
 23 24  1  0  0  0  0
 25 26  2  0  0  0  0
 25 27  1  0  0  0  0
 27 28  1  0  0  0  0
 27 29  1  0  0  0  0
 29 30  1  0  0  0  0
 29 31  1  0  0  0  0
 29 32  1  0  0  0  0
M  END
$$$$

  -OEChem-04042216033D

 32 32  0     1  0  0  0  0  0999 V2000
   -3.9410   -3.8642    1.7649 H   0  0  0  0  0  0  0  0  0  0  0  0
   -3.7985   -3.0599    1.0377 C   0  0  0  0  0  0  0  0  0  0  0  0
   -4.6458   -2.3726    1.0996 H   0  0  0  0  0  0  0  0  0  0  0  0
   -3.7623   -3.4946    0.0357 H   0  0  0  0  0  0  0  0  0  0  0  0
   -2.5074   -2.3176    1.3255 C   0  0  0  0  0  0  0  0  0  0  0  0
   -1.8729   -2.5721    2.3378 O   0  0  0  0  0  0  0  0  0  0  0  0
   -2.1064   -1.2974    0.4883 N   0  0  0  0  0  0  0  0  0  0  0  0
   -2.7321   -1.0664   -0.2806 H   0  0  0  0  0  0  0  0  0  0  0  0
   -0.7963   -0.6206    0.4936 C   0  0  1  0  0  0  0  0  0  0  0  0
   -0.2483   -0.8510    1.4125 H   0  0  0  0  0  0  0  0  0  0  0  0
    0.0510   -1.0282   -0.7402 C   0  0  0  0  0  0  0  0  0  0  0  0
   -0.4895   -0.6994   -1.6350 H   0  0  0  0  0  0  0  0  0  0  0  0
    0.9872   -0.4615   -0.7053 H   0  0  0  0  0  0  0  0  0  0  0  0
    0.4242   -2.4862   -0.9475 C   0  0  0  0  0  0  0  0  0  0  0  0
    0.3271   -3.4749    0.0451 C   0  0  0  0  0  0  0  0  0  0  0  0
    0.0564   -3.2199    1.0604 H   0  0  0  0  0  0  0  0  0  0  0  0
    0.6360   -4.8101   -0.2338 C   0  0  0  0  0  0  0  0  0  0  0  0
    0.5615   -5.5555    0.5528 H   0  0  0  0  0  0  0  0  0  0  0  0
    1.0483   -5.1809   -1.5155 C   0  0  0  0  0  0  0  0  0  0  0  0
    1.2881   -6.2176   -1.7328 H   0  0  0  0  0  0  0  0  0  0  0  0
    1.1582   -4.2105   -2.5138 C   0  0  0  0  0  0  0  0  0  0  0  0
    1.4815   -4.4915   -3.5117 H   0  0  0  0  0  0  0  0  0  0  0  0
    0.8482   -2.8763   -2.2290 C   0  0  0  0  0  0  0  0  0  0  0  0
    0.9321   -2.1366   -3.0198 H   0  0  0  0  0  0  0  0  0  0  0  0
   -0.9901    0.9057    0.3941 C   0  0  0  0  0  0  0  0  0  0  0  0
   -1.7757    1.3773   -0.4208 O   0  0  0  0  0  0  0  0  0  0  0  0
   -0.2699    1.7546    1.2142 N   0  0  0  0  0  0  0  0  0  0  0  0
    0.3158    1.3316    1.9287 H   0  0  0  0  0  0  0  0  0  0  0  0
   -0.4283    3.2037    1.2005 C   0  0  0  0  0  0  0  0  0  0  0  0
   -1.4506    3.4800    1.4800 H   0  0  0  0  0  0  0  0  0  0  0  0
    0.2628    3.6662    1.9118 H   0  0  0  0  0  0  0  0  0  0  0  0
   -0.2149    3.6034    0.2035 H   0  0  0  0  0  0  0  0  0  0  0  0
  1  2  1  0  0  0  0
  2  3  1  0  0  0  0
  2  4  1  0  0  0  0
  2  5  1  0  0  0  0
  5  6  2  0  0  0  0
  5  7  1  0  0  0  0
  7  8  1  0  0  0  0
  7  9  1  0  0  0  0
  9 10  1  0  0  0  0
  9 11  1  0  0  0  0
  9 25  1  0  0  0  0
 11 12  1  0  0  0  0
 11 13  1  0  0  0  0
 11 14  1  0  0  0  0
 14 15  1  0  0  0  0
 14 23  2  0  0  0  0
 15 16  1  0  0  0  0
 15 17  2  0  0  0  0
 17 18  1  0  0  0  0
 17 19  1  0  0  0  0
 19 20  1  0  0  0  0
 19 21  2  0  0  0  0
 21 22  1  0  0  0  0
 21 23  1  0  0  0  0
 23 24  1  0  0  0  0
 25 26  2  0  0  0  0
 25 27  1  0  0  0  0
 27 28  1  0  0  0  0
 27 29  1  0  0  0  0
 29 30  1  0  0  0  0
 29 31  1  0  0  0  0
 29 32  1  0  0  0  0
M  END
$$$$

  -OEChem-04042216033D

 32 32  0     1  0  0  0  0  0999 V2000
   -4.0801   -3.7383    1.9539 H   0  0  0  0  0  0  0  0  0  0  0  0
   -3.9120   -2.9678    1.1963 C   0  0  0  0  0  0  0  0  0  0  0  0
   -4.7200   -2.2344    1.2530 H   0  0  0  0  0  0  0  0  0  0  0  0
   -3.9228   -3.4368    0.2093 H   0  0  0  0  0  0  0  0  0  0  0  0
   -2.5776   -2.2860    1.4297 C   0  0  0  0  0  0  0  0  0  0  0  0
   -1.9201   -2.5566    2.4230 O   0  0  0  0  0  0  0  0  0  0  0  0
   -2.1540   -1.3012    0.5625 N   0  0  0  0  0  0  0  0  0  0  0  0
   -2.7956   -1.0463   -0.1859 H   0  0  0  0  0  0  0  0  0  0  0  0
   -0.8270   -0.6579    0.5329 C   0  0  1  0  0  0  0  0  0  0  0  0
   -0.2777   -0.8774    1.4540 H   0  0  0  0  0  0  0  0  0  0  0  0
    0.0287   -1.0782   -0.6948 C   0  0  0  0  0  0  0  0  0  0  0  0
   -0.5095   -0.7477   -1.5903 H   0  0  0  0  0  0  0  0  0  0  0  0
    0.9594   -0.5027   -0.6500 H   0  0  0  0  0  0  0  0  0  0  0  0
    0.4273   -2.5238   -0.9483 C   0  0  0  0  0  0  0  0  0  0  0  0
    0.0921   -3.6194   -0.1369 C   0  0  0  0  0  0  0  0  0  0  0  0
   -0.4131   -3.4871    0.8048 H   0  0  0  0  0  0  0  0  0  0  0  0
    0.4612   -4.9219   -0.4895 C   0  0  0  0  0  0  0  0  0  0  0  0
    0.2005   -5.7513    0.1613 H   0  0  0  0  0  0  0  0  0  0  0  0
    1.1739   -5.1546   -1.6670 C   0  0  0  0  0  0  0  0  0  0  0  0
    1.4625   -6.1655   -1.9397 H   0  0  0  0  0  0  0  0  0  0  0  0
    1.5190   -4.0796   -2.4874 C   0  0  0  0  0  0  0  0  0  0  0  0
    2.0741   -4.2522   -3.4045 H   0  0  0  0  0  0  0  0  0  0  0  0
    1.1457   -2.7801   -2.1292 C   0  0  0  0  0  0  0  0  0  0  0  0
    1.4144   -1.9581   -2.7863 H   0  0  0  0  0  0  0  0  0  0  0  0
   -1.0034    0.8680    0.3929 C   0  0  0  0  0  0  0  0  0  0  0  0
   -1.8000    1.3275   -0.4185 O   0  0  0  0  0  0  0  0  0  0  0  0
   -0.2615    1.7302    1.1790 N   0  0  0  0  0  0  0  0  0  0  0  0
    0.3374    1.3198    1.8901 H   0  0  0  0  0  0  0  0  0  0  0  0
   -0.4000    3.1804    1.1263 C   0  0  0  0  0  0  0  0  0  0  0  0
   -1.4130    3.4796    1.4150 H   0  0  0  0  0  0  0  0  0  0  0  0
    0.3096    3.6529    1.8122 H   0  0  0  0  0  0  0  0  0  0  0  0
   -0.1983    3.5486    0.1149 H   0  0  0  0  0  0  0  0  0  0  0  0
  1  2  1  0  0  0  0
  2  3  1  0  0  0  0
  2  4  1  0  0  0  0
  2  5  1  0  0  0  0
  5  6  2  0  0  0  0
  5  7  1  0  0  0  0
  7  8  1  0  0  0  0
  7  9  1  0  0  0  0
  9 10  1  0  0  0  0
  9 11  1  0  0  0  0
  9 25  1  0  0  0  0
 11 12  1  0  0  0  0
 11 13  1  0  0  0  0
 11 14  1  0  0  0  0
 14 15  1  0  0  0  0
 14 23  2  0  0  0  0
 15 16  1  0  0  0  0
 15 17  2  0  0  0  0
 17 18  1  0  0  0  0
 17 19  1  0  0  0  0
 19 20  1  0  0  0  0
 19 21  2  0  0  0  0
 21 22  1  0  0  0  0
 21 23  1  0  0  0  0
 23 24  1  0  0  0  0
 25 26  2  0  0  0  0
 25 27  1  0  0  0  0
 27 28  1  0  0  0  0
 27 29  1  0  0  0  0
 29 30  1  0  0  0  0
 29 31  1  0  0  0  0
 29 32  1  0  0  0  0
M  END
$$$$

  -OEChem-04042216033D

 32 32  0     1  0  0  0  0  0999 V2000
   -4.3085   -3.5982    1.8828 H   0  0  0  0  0  0  0  0  0  0  0  0
   -4.1059   -2.8030    1.1599 C   0  0  0  0  0  0  0  0  0  0  0  0
   -4.8362   -2.0027    1.3020 H   0  0  0  0  0  0  0  0  0  0  0  0
   -4.2120   -3.2093    0.1510 H   0  0  0  0  0  0  0  0  0  0  0  0
   -2.7021   -2.2625    1.3557 C   0  0  0  0  0  0  0  0  0  0  0  0
   -2.0236   -2.6526    2.2931 O   0  0  0  0  0  0  0  0  0  0  0  0
   -2.2206   -1.2886    0.5060 N   0  0  0  0  0  0  0  0  0  0  0  0
   -2.8666   -0.9264   -0.1935 H   0  0  0  0  0  0  0  0  0  0  0  0
   -0.8687   -0.7000    0.5177 C   0  0  1  0  0  0  0  0  0  0  0  0
   -0.3662   -0.9388    1.4605 H   0  0  0  0  0  0  0  0  0  0  0  0
    0.0528   -1.1183   -0.6656 C   0  0  0  0  0  0  0  0  0  0  0  0
   -0.4258   -0.7619   -1.5845 H   0  0  0  0  0  0  0  0  0  0  0  0
    0.9834   -0.5520   -0.5499 H   0  0  0  0  0  0  0  0  0  0  0  0
    0.4552   -2.5610   -0.9453 C   0  0  0  0  0  0  0  0  0  0  0  0
   -0.1430   -3.7117   -0.4059 C   0  0  0  0  0  0  0  0  0  0  0  0
   -0.9442   -3.6545    0.3078 H   0  0  0  0  0  0  0  0  0  0  0  0
    0.2985   -4.9923   -0.7573 C   0  0  0  0  0  0  0  0  0  0  0  0
   -0.1746   -5.8650   -0.3167 H   0  0  0  0  0  0  0  0  0  0  0  0
    1.3460   -5.1502   -1.6659 C   0  0  0  0  0  0  0  0  0  0  0  0
    1.6890   -6.1443   -1.9371 H   0  0  0  0  0  0  0  0  0  0  0  0
    1.9502   -4.0221   -2.2213 C   0  0  0  0  0  0  0  0  0  0  0  0
    2.7640   -4.1358   -2.9314 H   0  0  0  0  0  0  0  0  0  0  0  0
    1.5056   -2.7452   -1.8633 C   0  0  0  0  0  0  0  0  0  0  0  0
    1.9871   -1.8820   -2.3136 H   0  0  0  0  0  0  0  0  0  0  0  0
   -1.0026    0.8314    0.3861 C   0  0  0  0  0  0  0  0  0  0  0  0
   -1.7819    1.3166   -0.4273 O   0  0  0  0  0  0  0  0  0  0  0  0
   -0.2601    1.6698    1.1973 N   0  0  0  0  0  0  0  0  0  0  0  0
    0.3166    1.2396    1.9151 H   0  0  0  0  0  0  0  0  0  0  0  0
   -0.3757    3.1227    1.1636 C   0  0  0  0  0  0  0  0  0  0  0  0
   -1.3891    3.4335    1.4391 H   0  0  0  0  0  0  0  0  0  0  0  0
    0.3292    3.5745    1.8681 H   0  0  0  0  0  0  0  0  0  0  0  0
   -0.1510    3.5019    0.1611 H   0  0  0  0  0  0  0  0  0  0  0  0
  1  2  1  0  0  0  0
  2  3  1  0  0  0  0
  2  4  1  0  0  0  0
  2  5  1  0  0  0  0
  5  6  2  0  0  0  0
  5  7  1  0  0  0  0
  7  8  1  0  0  0  0
  7  9  1  0  0  0  0
  9 10  1  0  0  0  0
  9 11  1  0  0  0  0
  9 25  1  0  0  0  0
 11 12  1  0  0  0  0
 11 13  1  0  0  0  0
 11 14  1  0  0  0  0
 14 15  1  0  0  0  0
 14 23  2  0  0  0  0
 15 16  1  0  0  0  0
 15 17  2  0  0  0  0
 17 18  1  0  0  0  0
 17 19  1  0  0  0  0
 19 20  1  0  0  0  0
 19 21  2  0  0  0  0
 21 22  1  0  0  0  0
 21 23  1  0  0  0  0
 23 24  1  0  0  0  0
 25 26  2  0  0  0  0
 25 27  1  0  0  0  0
 27 28  1  0  0  0  0
 27 29  1  0  0  0  0
 29 30  1  0  0  0  0
 29 31  1  0  0  0  0
 29 32  1  0  0  0  0
M  END
$$$$

  -OEChem-04042216033D

 32 32  0     1  0  0  0  0  0999 V2000
   -4.2393   -3.6188    1.9505 H   0  0  0  0  0  0  0  0  0  0  0  0
   -4.0871   -2.7838    1.2609 C   0  0  0  0  0  0  0  0  0  0  0  0
   -4.7722   -1.9756    1.5286 H   0  0  0  0  0  0  0  0  0  0  0  0
   -4.3106   -3.1210    0.2458 H   0  0  0  0  0  0  0  0  0  0  0  0
   -2.6533   -2.2949    1.3408 C   0  0  0  0  0  0  0  0  0  0  0  0
   -1.8935   -2.7714    2.1688 O   0  0  0  0  0  0  0  0  0  0  0  0
   -2.2244   -1.2955    0.4910 N   0  0  0  0  0  0  0  0  0  0  0  0
   -2.9229   -0.8665   -0.1143 H   0  0  0  0  0  0  0  0  0  0  0  0
   -0.8736   -0.7076    0.4611 C   0  0  1  0  0  0  0  0  0  0  0  0
   -0.3432   -0.9624    1.3841 H   0  0  0  0  0  0  0  0  0  0  0  0
    0.0295   -1.0957   -0.7455 C   0  0  0  0  0  0  0  0  0  0  0  0
   -0.4685   -0.7350   -1.6520 H   0  0  0  0  0  0  0  0  0  0  0  0
    0.9547   -0.5189   -0.6404 H   0  0  0  0  0  0  0  0  0  0  0  0
    0.4248   -2.5393   -1.0349 C   0  0  0  0  0  0  0  0  0  0  0  0
   -0.3446   -3.6752   -0.7321 C   0  0  0  0  0  0  0  0  0  0  0  0
   -1.3224   -3.5963   -0.2902 H   0  0  0  0  0  0  0  0  0  0  0  0
    0.1168   -4.9638   -1.0219 C   0  0  0  0  0  0  0  0  0  0  0  0
   -0.4972   -5.8249   -0.7757 H   0  0  0  0  0  0  0  0  0  0  0  0
    1.3605   -5.1447   -1.6279 C   0  0  0  0  0  0  0  0  0  0  0  0
    1.7179   -6.1452   -1.8524 H   0  0  0  0  0  0  0  0  0  0  0  0
    2.1391   -4.0318   -1.9458 C   0  0  0  0  0  0  0  0  0  0  0  0
    3.1071   -4.1634   -2.4198 H   0  0  0  0  0  0  0  0  0  0  0  0
    1.6729   -2.7465   -1.6521 C   0  0  0  0  0  0  0  0  0  0  0  0
    2.3002   -1.8987   -1.9104 H   0  0  0  0  0  0  0  0  0  0  0  0
   -1.0159    0.8259    0.3780 C   0  0  0  0  0  0  0  0  0  0  0  0
   -1.8417    1.3291   -0.3764 O   0  0  0  0  0  0  0  0  0  0  0  0
   -0.2404    1.6437    1.1793 N   0  0  0  0  0  0  0  0  0  0  0  0
    0.3855    1.1954    1.8428 H   0  0  0  0  0  0  0  0  0  0  0  0
   -0.3584    3.0966    1.1922 C   0  0  0  0  0  0  0  0  0  0  0  0
   -1.3633    3.3968    1.5072 H   0  0  0  0  0  0  0  0  0  0  0  0
    0.3663    3.5282    1.8891 H   0  0  0  0  0  0  0  0  0  0  0  0
   -0.1642    3.5058    0.1952 H   0  0  0  0  0  0  0  0  0  0  0  0
  1  2  1  0  0  0  0
  2  3  1  0  0  0  0
  2  4  1  0  0  0  0
  2  5  1  0  0  0  0
  5  6  2  0  0  0  0
  5  7  1  0  0  0  0
  7  8  1  0  0  0  0
  7  9  1  0  0  0  0
  9 10  1  0  0  0  0
  9 11  1  0  0  0  0
  9 25  1  0  0  0  0
 11 12  1  0  0  0  0
 11 13  1  0  0  0  0
 11 14  1  0  0  0  0
 14 15  1  0  0  0  0
 14 23  2  0  0  0  0
 15 16  1  0  0  0  0
 15 17  2  0  0  0  0
 17 18  1  0  0  0  0
 17 19  1  0  0  0  0
 19 20  1  0  0  0  0
 19 21  2  0  0  0  0
 21 22  1  0  0  0  0
 21 23  1  0  0  0  0
 23 24  1  0  0  0  0
 25 26  2  0  0  0  0
 25 27  1  0  0  0  0
 27 28  1  0  0  0  0
 27 29  1  0  0  0  0
 29 30  1  0  0  0  0
 29 31  1  0  0  0  0
 29 32  1  0  0  0  0
M  END
$$$$

  -OEChem-04042216033D

 32 32  0     1  0  0  0  0  0999 V2000
   -4.0964   -3.7327    1.8872 H   0  0  0  0  0  0  0  0  0  0  0  0
   -3.9846   -2.8764    1.2163 C   0  0  0  0  0  0  0  0  0  0  0  0
   -4.6756   -2.0901    1.5293 H   0  0  0  0  0  0  0  0  0  0  0  0
   -4.2366   -3.1902    0.2006 H   0  0  0  0  0  0  0  0  0  0  0  0
   -2.5593   -2.3589    1.2616 C   0  0  0  0  0  0  0  0  0  0  0  0
   -1.7583   -2.8532    2.0382 O   0  0  0  0  0  0  0  0  0  0  0  0
   -2.1882   -1.3126    0.4406 N   0  0  0  0  0  0  0  0  0  0  0  0
   -2.9184   -0.8688   -0.1142 H   0  0  0  0  0  0  0  0  0  0  0  0
   -0.8553   -0.6880    0.4069 C   0  0  1  0  0  0  0  0  0  0  0  0
   -0.3025   -0.9621    1.3113 H   0  0  0  0  0  0  0  0  0  0  0  0
    0.0293   -1.0343   -0.8217 C   0  0  0  0  0  0  0  0  0  0  0  0
   -0.4923   -0.6800   -1.7172 H   0  0  0  0  0  0  0  0  0  0  0  0
    0.9470   -0.4433   -0.7372 H   0  0  0  0  0  0  0  0  0  0  0  0
    0.4142   -2.4825   -1.0913 C   0  0  0  0  0  0  0  0  0  0  0  0
   -0.4831   -3.5622   -1.0301 C   0  0  0  0  0  0  0  0  0  0  0  0
   -1.5366   -3.4030   -0.8531 H   0  0  0  0  0  0  0  0  0  0  0  0
   -0.0513   -4.8753   -1.2467 C   0  0  0  0  0  0  0  0  0  0  0  0
   -0.7627   -5.6940   -1.1968 H   0  0  0  0  0  0  0  0  0  0  0  0
    1.2906   -5.1347   -1.5301 C   0  0  0  0  0  0  0  0  0  0  0  0
    1.6257   -6.1542   -1.6961 H   0  0  0  0  0  0  0  0  0  0  0  0
    2.1978   -4.0765   -1.6014 C   0  0  0  0  0  0  0  0  0  0  0  0
    3.2430   -4.2716   -1.8220 H   0  0  0  0  0  0  0  0  0  0  0  0
    1.7613   -2.7655   -1.3834 C   0  0  0  0  0  0  0  0  0  0  0  0
    2.4896   -1.9622   -1.4384 H   0  0  0  0  0  0  0  0  0  0  0  0
   -1.0248    0.8437    0.3895 C   0  0  0  0  0  0  0  0  0  0  0  0
   -1.8704    1.3605   -0.3327 O   0  0  0  0  0  0  0  0  0  0  0  0
   -0.2473    1.6438    1.2064 N   0  0  0  0  0  0  0  0  0  0  0  0
    0.3992    1.1826    1.8406 H   0  0  0  0  0  0  0  0  0  0  0  0
   -0.3728    3.0951    1.2582 C   0  0  0  0  0  0  0  0  0  0  0  0
   -1.3774    3.3819    1.5866 H   0  0  0  0  0  0  0  0  0  0  0  0
    0.3539    3.5127    1.9617 H   0  0  0  0  0  0  0  0  0  0  0  0
   -0.1867    3.5310    0.2708 H   0  0  0  0  0  0  0  0  0  0  0  0
  1  2  1  0  0  0  0
  2  3  1  0  0  0  0
  2  4  1  0  0  0  0
  2  5  1  0  0  0  0
  5  6  2  0  0  0  0
  5  7  1  0  0  0  0
  7  8  1  0  0  0  0
  7  9  1  0  0  0  0
  9 10  1  0  0  0  0
  9 11  1  0  0  0  0
  9 25  1  0  0  0  0
 11 12  1  0  0  0  0
 11 13  1  0  0  0  0
 11 14  1  0  0  0  0
 14 15  1  0  0  0  0
 14 23  2  0  0  0  0
 15 16  1  0  0  0  0
 15 17  2  0  0  0  0
 17 18  1  0  0  0  0
 17 19  1  0  0  0  0
 19 20  1  0  0  0  0
 19 21  2  0  0  0  0
 21 22  1  0  0  0  0
 21 23  1  0  0  0  0
 23 24  1  0  0  0  0
 25 26  2  0  0  0  0
 25 27  1  0  0  0  0
 27 28  1  0  0  0  0
 27 29  1  0  0  0  0
 29 30  1  0  0  0  0
 29 31  1  0  0  0  0
 29 32  1  0  0  0  0
M  END
$$$$

  -OEChem-04042216033D

 32 32  0     1  0  0  0  0  0999 V2000
   -3.9201   -3.8514    1.7927 H   0  0  0  0  0  0  0  0  0  0  0  0
   -3.8400   -2.9929    1.1202 C   0  0  0  0  0  0  0  0  0  0  0  0
   -4.5767   -2.2424    1.4171 H   0  0  0  0  0  0  0  0  0  0  0  0
   -4.0555   -3.3233    0.1013 H   0  0  0  0  0  0  0  0  0  0  0  0
   -2.4436   -2.4040    1.1886 C   0  0  0  0  0  0  0  0  0  0  0  0
   -1.6264   -2.8691    1.9669 O   0  0  0  0  0  0  0  0  0  0  0  0
   -2.1218   -1.3232    0.3920 N   0  0  0  0  0  0  0  0  0  0  0  0
   -2.8685   -0.9037   -0.1592 H   0  0  0  0  0  0  0  0  0  0  0  0
   -0.8117   -0.6537    0.3643 C   0  0  1  0  0  0  0  0  0  0  0  0
   -0.2381   -0.9337    1.2536 H   0  0  0  0  0  0  0  0  0  0  0  0
    0.0457   -0.9782   -0.8845 C   0  0  0  0  0  0  0  0  0  0  0  0
   -0.5001   -0.6393   -1.7713 H   0  0  0  0  0  0  0  0  0  0  0  0
    0.9638   -0.3841   -0.8323 H   0  0  0  0  0  0  0  0  0  0  0  0
    0.4133   -2.4346   -1.1071 C   0  0  0  0  0  0  0  0  0  0  0  0
   -0.5524   -3.4394   -1.2844 C   0  0  0  0  0  0  0  0  0  0  0  0
   -1.6050   -3.1873   -1.3254 H   0  0  0  0  0  0  0  0  0  0  0  0
   -0.1777   -4.7775   -1.4451 C   0  0  0  0  0  0  0  0  0  0  0  0
   -0.9372   -5.5407   -1.5841 H   0  0  0  0  0  0  0  0  0  0  0  0
    1.1727   -5.1326   -1.4281 C   0  0  0  0  0  0  0  0  0  0  0  0
    1.4646   -6.1717   -1.5485 H   0  0  0  0  0  0  0  0  0  0  0  0
    2.1462   -4.1463   -1.2543 C   0  0  0  0  0  0  0  0  0  0  0  0
    3.1972   -4.4190   -1.2381 H   0  0  0  0  0  0  0  0  0  0  0  0
    1.7678   -2.8089   -1.0942 C   0  0  0  0  0  0  0  0  0  0  0  0
    2.5411   -2.0604   -0.9515 H   0  0  0  0  0  0  0  0  0  0  0  0
   -1.0169    0.8730    0.3899 C   0  0  0  0  0  0  0  0  0  0  0  0
   -1.8781    1.3879   -0.3147 O   0  0  0  0  0  0  0  0  0  0  0  0
   -0.2512    1.6696    1.2215 N   0  0  0  0  0  0  0  0  0  0  0  0
    0.4082    1.2061    1.8404 H   0  0  0  0  0  0  0  0  0  0  0  0
   -0.4172    3.1144    1.3224 C   0  0  0  0  0  0  0  0  0  0  0  0
   -1.4309    3.3622    1.6543 H   0  0  0  0  0  0  0  0  0  0  0  0
    0.2936    3.5271    2.0448 H   0  0  0  0  0  0  0  0  0  0  0  0
   -0.2379    3.5888    0.3518 H   0  0  0  0  0  0  0  0  0  0  0  0
  1  2  1  0  0  0  0
  2  3  1  0  0  0  0
  2  4  1  0  0  0  0
  2  5  1  0  0  0  0
  5  6  2  0  0  0  0
  5  7  1  0  0  0  0
  7  8  1  0  0  0  0
  7  9  1  0  0  0  0
  9 10  1  0  0  0  0
  9 11  1  0  0  0  0
  9 25  1  0  0  0  0
 11 12  1  0  0  0  0
 11 13  1  0  0  0  0
 11 14  1  0  0  0  0
 14 15  1  0  0  0  0
 14 23  2  0  0  0  0
 15 16  1  0  0  0  0
 15 17  2  0  0  0  0
 17 18  1  0  0  0  0
 17 19  1  0  0  0  0
 19 20  1  0  0  0  0
 19 21  2  0  0  0  0
 21 22  1  0  0  0  0
 21 23  1  0  0  0  0
 23 24  1  0  0  0  0
 25 26  2  0  0  0  0
 25 27  1  0  0  0  0
 27 28  1  0  0  0  0
 27 29  1  0  0  0  0
 29 30  1  0  0  0  0
 29 31  1  0  0  0  0
 29 32  1  0  0  0  0
M  END
$$$$

  -OEChem-04042216033D

 32 32  0     1  0  0  0  0  0999 V2000
   -3.7740   -3.9507    1.6943 H   0  0  0  0  0  0  0  0  0  0  0  0
   -3.7160   -3.0854    1.0280 C   0  0  0  0  0  0  0  0  0  0  0  0
   -4.4914   -2.3695    1.3110 H   0  0  0  0  0  0  0  0  0  0  0  0
   -3.8928   -3.4188    0.0027 H   0  0  0  0  0  0  0  0  0  0  0  0
   -2.3487   -2.4360    1.1317 C   0  0  0  0  0  0  0  0  0  0  0  0
   -1.5284   -2.8704    1.9247 O   0  0  0  0  0  0  0  0  0  0  0  0
   -2.0595   -1.3330    0.3536 N   0  0  0  0  0  0  0  0  0  0  0  0
   -2.8103   -0.9436   -0.2132 H   0  0  0  0  0  0  0  0  0  0  0  0
   -0.7695   -0.6251    0.3406 C   0  0  1  0  0  0  0  0  0  0  0  0
   -0.1825   -0.9065    1.2207 H   0  0  0  0  0  0  0  0  0  0  0  0
    0.0631   -0.9401   -0.9217 C   0  0  0  0  0  0  0  0  0  0  0  0
   -0.4965   -0.6141   -1.8049 H   0  0  0  0  0  0  0  0  0  0  0  0
    0.9856   -0.3510   -0.8941 H   0  0  0  0  0  0  0  0  0  0  0  0
    0.4112   -2.4034   -1.0930 C   0  0  0  0  0  0  0  0  0  0  0  0
   -0.5481   -3.3358   -1.5195 C   0  0  0  0  0  0  0  0  0  0  0  0
   -1.5533   -3.0063   -1.7604 H   0  0  0  0  0  0  0  0  0  0  0  0
   -0.2218   -4.6900   -1.6474 C   0  0  0  0  0  0  0  0  0  0  0  0
   -0.9723   -5.4014   -1.9782 H   0  0  0  0  0  0  0  0  0  0  0  0
    1.0705   -5.1282   -1.3462 C   0  0  0  0  0  0  0  0  0  0  0  0
    1.3244   -6.1799   -1.4402 H   0  0  0  0  0  0  0  0  0  0  0  0
    2.0344   -4.2105   -0.9193 C   0  0  0  0  0  0  0  0  0  0  0  0
    3.0380   -4.5496   -0.6805 H   0  0  0  0  0  0  0  0  0  0  0  0
    1.7051   -2.8566   -0.7925 C   0  0  0  0  0  0  0  0  0  0  0  0
    2.4631   -2.1584   -0.4517 H   0  0  0  0  0  0  0  0  0  0  0  0
   -1.0034    0.8962    0.3902 C   0  0  0  0  0  0  0  0  0  0  0  0
   -1.8672    1.4050   -0.3155 O   0  0  0  0  0  0  0  0  0  0  0  0
   -0.2564    1.6960    1.2355 N   0  0  0  0  0  0  0  0  0  0  0  0
    0.4045    1.2366    1.8559 H   0  0  0  0  0  0  0  0  0  0  0  0
   -0.4552    3.1351    1.3575 C   0  0  0  0  0  0  0  0  0  0  0  0
   -1.4759    3.3552    1.6874 H   0  0  0  0  0  0  0  0  0  0  0  0
    0.2424    3.5525    2.0898 H   0  0  0  0  0  0  0  0  0  0  0  0
   -0.2818    3.6286    0.3955 H   0  0  0  0  0  0  0  0  0  0  0  0
  1  2  1  0  0  0  0
  2  3  1  0  0  0  0
  2  4  1  0  0  0  0
  2  5  1  0  0  0  0
  5  6  2  0  0  0  0
  5  7  1  0  0  0  0
  7  8  1  0  0  0  0
  7  9  1  0  0  0  0
  9 10  1  0  0  0  0
  9 11  1  0  0  0  0
  9 25  1  0  0  0  0
 11 12  1  0  0  0  0
 11 13  1  0  0  0  0
 11 14  1  0  0  0  0
 14 15  1  0  0  0  0
 14 23  2  0  0  0  0
 15 16  1  0  0  0  0
 15 17  2  0  0  0  0
 17 18  1  0  0  0  0
 17 19  1  0  0  0  0
 19 20  1  0  0  0  0
 19 21  2  0  0  0  0
 21 22  1  0  0  0  0
 21 23  1  0  0  0  0
 23 24  1  0  0  0  0
 25 26  2  0  0  0  0
 25 27  1  0  0  0  0
 27 28  1  0  0  0  0
 27 29  1  0  0  0  0
 29 30  1  0  0  0  0
 29 31  1  0  0  0  0
 29 32  1  0  0  0  0
M  END
$$$$

  -OEChem-04042216033D

 32 32  0     1  0  0  0  0  0999 V2000
   -3.6658   -4.0154    1.6250 H   0  0  0  0  0  0  0  0  0  0  0  0
   -3.6229   -3.1476    0.9608 C   0  0  0  0  0  0  0  0  0  0  0  0
   -4.4334   -2.4627    1.2214 H   0  0  0  0  0  0  0  0  0  0  0  0
   -3.7570   -3.4863   -0.0692 H   0  0  0  0  0  0  0  0  0  0  0  0
   -2.2857   -2.4455    1.1026 C   0  0  0  0  0  0  0  0  0  0  0  0
   -1.4729   -2.8466    1.9210 O   0  0  0  0  0  0  0  0  0  0  0  0
   -2.0161   -1.3330    0.3313 N   0  0  0  0  0  0  0  0  0  0  0  0
   -2.7581   -0.9818   -0.2702 H   0  0  0  0  0  0  0  0  0  0  0  0
   -0.7390   -0.6026    0.3297 C   0  0  1  0  0  0  0  0  0  0  0  0
   -0.1447   -0.8807    1.2059 H   0  0  0  0  0  0  0  0  0  0  0  0
    0.0731   -0.9186   -0.9412 C   0  0  0  0  0  0  0  0  0  0  0  0
   -0.4922   -0.5950   -1.8217 H   0  0  0  0  0  0  0  0  0  0  0  0
    1.0035   -0.3416   -0.9280 H   0  0  0  0  0  0  0  0  0  0  0  0
    0.4035   -2.3871   -1.0745 C   0  0  0  0  0  0  0  0  0  0  0  0
   -0.4669   -3.2558   -1.7517 C   0  0  0  0  0  0  0  0  0  0  0  0
   -1.3791   -2.8700   -2.1960 H   0  0  0  0  0  0  0  0  0  0  0  0
   -0.1708   -4.6188   -1.8593 C   0  0  0  0  0  0  0  0  0  0  0  0
   -0.8501   -5.2829   -2.3850 H   0  0  0  0  0  0  0  0  0  0  0  0
    0.9987   -5.1265   -1.2866 C   0  0  0  0  0  0  0  0  0  0  0  0
    1.2284   -6.1849   -1.3651 H   0  0  0  0  0  0  0  0  0  0  0  0
    1.8697   -4.2705   -0.6059 C   0  0  0  0  0  0  0  0  0  0  0  0
    2.7749   -4.6649   -0.1537 H   0  0  0  0  0  0  0  0  0  0  0  0
    1.5723   -2.9073   -0.4998 C   0  0  0  0  0  0  0  0  0  0  0  0
    2.2515   -2.2551    0.0399 H   0  0  0  0  0  0  0  0  0  0  0  0
   -0.9884    0.9154    0.3864 C   0  0  0  0  0  0  0  0  0  0  0  0
   -1.8473    1.4208   -0.3278 O   0  0  0  0  0  0  0  0  0  0  0  0
   -0.2539    1.7172    1.2405 N   0  0  0  0  0  0  0  0  0  0  0  0
    0.3969    1.2587    1.8721 H   0  0  0  0  0  0  0  0  0  0  0  0
   -0.4764    3.1515    1.3761 C   0  0  0  0  0  0  0  0  0  0  0  0
   -1.4969    3.3498    1.7202 H   0  0  0  0  0  0  0  0  0  0  0  0
    0.2227    3.5764    2.1025 H   0  0  0  0  0  0  0  0  0  0  0  0
   -0.3244    3.6556    0.4159 H   0  0  0  0  0  0  0  0  0  0  0  0
  1  2  1  0  0  0  0
  2  3  1  0  0  0  0
  2  4  1  0  0  0  0
  2  5  1  0  0  0  0
  5  6  2  0  0  0  0
  5  7  1  0  0  0  0
  7  8  1  0  0  0  0
  7  9  1  0  0  0  0
  9 10  1  0  0  0  0
  9 11  1  0  0  0  0
  9 25  1  0  0  0  0
 11 12  1  0  0  0  0
 11 13  1  0  0  0  0
 11 14  1  0  0  0  0
 14 15  1  0  0  0  0
 14 23  2  0  0  0  0
 15 16  1  0  0  0  0
 15 17  2  0  0  0  0
 17 18  1  0  0  0  0
 17 19  1  0  0  0  0
 19 20  1  0  0  0  0
 19 21  2  0  0  0  0
 21 22  1  0  0  0  0
 21 23  1  0  0  0  0
 23 24  1  0  0  0  0
 25 26  2  0  0  0  0
 25 27  1  0  0  0  0
 27 28  1  0  0  0  0
 27 29  1  0  0  0  0
 29 30  1  0  0  0  0
 29 31  1  0  0  0  0
 29 32  1  0  0  0  0
M  END
$$$$

  -OEChem-04042216033D

 32 32  0     1  0  0  0  0  0999 V2000
   -3.6320   -4.0349    1.5986 H   0  0  0  0  0  0  0  0  0  0  0  0
   -3.5930   -3.1667    0.9350 C   0  0  0  0  0  0  0  0  0  0  0  0
   -4.4171   -2.4940    1.1843 H   0  0  0  0  0  0  0  0  0  0  0  0
   -3.7077   -3.5072   -0.0968 H   0  0  0  0  0  0  0  0  0  0  0  0
   -2.2683   -2.4456    1.0962 C   0  0  0  0  0  0  0  0  0  0  0  0
   -1.4644   -2.8309    1.9314 O   0  0  0  0  0  0  0  0  0  0  0  0
   -2.0020   -1.3316    0.3264 N   0  0  0  0  0  0  0  0  0  0  0  0
   -2.7334   -1.0026   -0.2998 H   0  0  0  0  0  0  0  0  0  0  0  0
   -0.7301   -0.5926    0.3331 C   0  0  1  0  0  0  0  0  0  0  0  0
   -0.1368   -0.8663    1.2111 H   0  0  0  0  0  0  0  0  0  0  0  0
    0.0751   -0.9153   -0.9394 C   0  0  0  0  0  0  0  0  0  0  0  0
   -0.4905   -0.5909   -1.8194 H   0  0  0  0  0  0  0  0  0  0  0  0
    1.0110   -0.3472   -0.9301 H   0  0  0  0  0  0  0  0  0  0  0  0
    0.3986   -2.3863   -1.0563 C   0  0  0  0  0  0  0  0  0  0  0  0
   -0.2960   -3.1962   -1.9681 C   0  0  0  0  0  0  0  0  0  0  0  0
   -1.0682   -2.7663   -2.5983 H   0  0  0  0  0  0  0  0  0  0  0  0
   -0.0051   -4.5607   -2.0721 C   0  0  0  0  0  0  0  0  0  0  0  0
   -0.5485   -5.1801   -2.7792 H   0  0  0  0  0  0  0  0  0  0  0  0
    0.9833   -5.1280   -1.2627 C   0  0  0  0  0  0  0  0  0  0  0  0
    1.2080   -6.1876   -1.3388 H   0  0  0  0  0  0  0  0  0  0  0  0
    1.6791   -4.3299   -0.3498 C   0  0  0  0  0  0  0  0  0  0  0  0
    2.4409   -4.7700    0.2867 H   0  0  0  0  0  0  0  0  0  0  0  0
    1.3879   -2.9652   -0.2481 C   0  0  0  0  0  0  0  0  0  0  0  0
    1.9275   -2.3582    0.4719 H   0  0  0  0  0  0  0  0  0  0  0  0
   -0.9840    0.9249    0.3877 C   0  0  0  0  0  0  0  0  0  0  0  0
   -1.8347    1.4299   -0.3364 O   0  0  0  0  0  0  0  0  0  0  0  0
   -0.2568    1.7284    1.2468 N   0  0  0  0  0  0  0  0  0  0  0  0
    0.3887    1.2708    1.8846 H   0  0  0  0  0  0  0  0  0  0  0  0
   -0.4791    3.1633    1.3781 C   0  0  0  0  0  0  0  0  0  0  0  0
   -1.5054    3.3640    1.7031 H   0  0  0  0  0  0  0  0  0  0  0  0
    0.2071    3.5866    2.1180 H   0  0  0  0  0  0  0  0  0  0  0  0
   -0.3076    3.6671    0.4211 H   0  0  0  0  0  0  0  0  0  0  0  0
  1  2  1  0  0  0  0
  2  3  1  0  0  0  0
  2  4  1  0  0  0  0
  2  5  1  0  0  0  0
  5  6  2  0  0  0  0
  5  7  1  0  0  0  0
  7  8  1  0  0  0  0
  7  9  1  0  0  0  0
  9 10  1  0  0  0  0
  9 11  1  0  0  0  0
  9 25  1  0  0  0  0
 11 12  1  0  0  0  0
 11 13  1  0  0  0  0
 11 14  1  0  0  0  0
 14 15  1  0  0  0  0
 14 23  2  0  0  0  0
 15 16  1  0  0  0  0
 15 17  2  0  0  0  0
 17 18  1  0  0  0  0
 17 19  1  0  0  0  0
 19 20  1  0  0  0  0
 19 21  2  0  0  0  0
 21 22  1  0  0  0  0
 21 23  1  0  0  0  0
 23 24  1  0  0  0  0
 25 26  2  0  0  0  0
 25 27  1  0  0  0  0
 27 28  1  0  0  0  0
 27 29  1  0  0  0  0
 29 30  1  0  0  0  0
 29 31  1  0  0  0  0
 29 32  1  0  0  0  0
M  END
$$$$

  -OEChem-04042216033D

 32 32  0     1  0  0  0  0  0999 V2000
   -3.6492   -4.0225    1.6169 H   0  0  0  0  0  0  0  0  0  0  0  0
   -3.5994   -3.1662    0.9385 C   0  0  0  0  0  0  0  0  0  0  0  0
   -4.4344   -2.4954    1.1543 H   0  0  0  0  0  0  0  0  0  0  0  0
   -3.6855   -3.5267   -0.0892 H   0  0  0  0  0  0  0  0  0  0  0  0
   -2.2848   -2.4309    1.1187 C   0  0  0  0  0  0  0  0  0  0  0  0
   -1.4985   -2.7938    1.9807 O   0  0  0  0  0  0  0  0  0  0  0  0
   -2.0090   -1.3257    0.3393 N   0  0  0  0  0  0  0  0  0  0  0  0
   -2.7221   -1.0203   -0.3192 H   0  0  0  0  0  0  0  0  0  0  0  0
   -0.7357   -0.5892    0.3533 C   0  0  1  0  0  0  0  0  0  0  0  0
   -0.1526   -0.8528    1.2409 H   0  0  0  0  0  0  0  0  0  0  0  0
    0.0763   -0.9246   -0.9126 C   0  0  0  0  0  0  0  0  0  0  0  0
   -0.4846   -0.5963   -1.7943 H   0  0  0  0  0  0  0  0  0  0  0  0
    1.0143   -0.3607   -0.8988 H   0  0  0  0  0  0  0  0  0  0  0  0
    0.4034   -2.3964   -1.0331 C   0  0  0  0  0  0  0  0  0  0  0  0
   -0.0463   -3.1295   -2.1426 C   0  0  0  0  0  0  0  0  0  0  0  0
   -0.6307   -2.6430   -2.9178 H   0  0  0  0  0  0  0  0  0  0  0  0
    0.2484   -4.4918   -2.2635 C   0  0  0  0  0  0  0  0  0  0  0  0
   -0.1063   -5.0499   -3.1251 H   0  0  0  0  0  0  0  0  0  0  0  0
    0.9975   -5.1352   -1.2742 C   0  0  0  0  0  0  0  0  0  0  0  0
    1.2234   -6.1936   -1.3633 H   0  0  0  0  0  0  0  0  0  0  0  0
    1.4542   -4.4137   -0.1676 C   0  0  0  0  0  0  0  0  0  0  0  0
    2.0306   -4.9111    0.6067 H   0  0  0  0  0  0  0  0  0  0  0  0
    1.1626   -3.0509   -0.0507 C   0  0  0  0  0  0  0  0  0  0  0  0
    1.5173   -2.5080    0.8195 H   0  0  0  0  0  0  0  0  0  0  0  0
   -0.9850    0.9298    0.3890 C   0  0  0  0  0  0  0  0  0  0  0  0
   -1.8223    1.4317   -0.3526 O   0  0  0  0  0  0  0  0  0  0  0  0
   -0.2642    1.7384    1.2487 N   0  0  0  0  0  0  0  0  0  0  0  0
    0.3697    1.2838    1.9000 H   0  0  0  0  0  0  0  0  0  0  0  0
   -0.4784    3.1760    1.3619 C   0  0  0  0  0  0  0  0  0  0  0  0
   -1.5026    3.3863    1.6872 H   0  0  0  0  0  0  0  0  0  0  0  0
    0.2126    3.6047    2.0940 H   0  0  0  0  0  0  0  0  0  0  0  0
   -0.3069    3.6664    0.3978 H   0  0  0  0  0  0  0  0  0  0  0  0
  1  2  1  0  0  0  0
  2  3  1  0  0  0  0
  2  4  1  0  0  0  0
  2  5  1  0  0  0  0
  5  6  2  0  0  0  0
  5  7  1  0  0  0  0
  7  8  1  0  0  0  0
  7  9  1  0  0  0  0
  9 10  1  0  0  0  0
  9 11  1  0  0  0  0
  9 25  1  0  0  0  0
 11 12  1  0  0  0  0
 11 13  1  0  0  0  0
 11 14  1  0  0  0  0
 14 15  1  0  0  0  0
 14 23  2  0  0  0  0
 15 16  1  0  0  0  0
 15 17  2  0  0  0  0
 17 18  1  0  0  0  0
 17 19  1  0  0  0  0
 19 20  1  0  0  0  0
 19 21  2  0  0  0  0
 21 22  1  0  0  0  0
 21 23  1  0  0  0  0
 23 24  1  0  0  0  0
 25 26  2  0  0  0  0
 25 27  1  0  0  0  0
 27 28  1  0  0  0  0
 27 29  1  0  0  0  0
 29 30  1  0  0  0  0
 29 31  1  0  0  0  0
 29 32  1  0  0  0  0
M  END
$$$$

  -OEChem-04042216033D

 32 32  0     1  0  0  0  0  0999 V2000
   -3.7203   -3.9888    1.6343 H   0  0  0  0  0  0  0  0  0  0  0  0
   -3.6615   -3.1224    0.9696 C   0  0  0  0  0  0  0  0  0  0  0  0
   -4.4901   -2.4468    1.1951 H   0  0  0  0  0  0  0  0  0  0  0  0
   -3.7497   -3.4658   -0.0638 H   0  0  0  0  0  0  0  0  0  0  0  0
   -2.3407   -2.4026    1.1634 C   0  0  0  0  0  0  0  0  0  0  0  0
   -1.5833   -2.7514    2.0567 O   0  0  0  0  0  0  0  0  0  0  0  0
   -2.0328   -1.3179    0.3683 N   0  0  0  0  0  0  0  0  0  0  0  0
   -2.7269   -1.0205   -0.3137 H   0  0  0  0  0  0  0  0  0  0  0  0
   -0.7512   -0.5967    0.3901 C   0  0  1  0  0  0  0  0  0  0  0  0
   -0.1854   -0.8455    1.2922 H   0  0  0  0  0  0  0  0  0  0  0  0
    0.0757   -0.9553   -0.8619 C   0  0  0  0  0  0  0  0  0  0  0  0
   -0.4760   -0.6254   -1.7488 H   0  0  0  0  0  0  0  0  0  0  0  0
    1.0152   -0.3941   -0.8392 H   0  0  0  0  0  0  0  0  0  0  0  0
    0.4101   -2.4272   -0.9986 C   0  0  0  0  0  0  0  0  0  0  0  0
    0.2544   -3.0589   -2.2430 C   0  0  0  0  0  0  0  0  0  0  0  0
   -0.1203   -2.4999   -3.0952 H   0  0  0  0  0  0  0  0  0  0  0  0
    0.5751   -4.4110   -2.4051 C   0  0  0  0  0  0  0  0  0  0  0  0
    0.4443   -4.8875   -3.3721 H   0  0  0  0  0  0  0  0  0  0  0  0
    1.0643   -5.1477   -1.3233 C   0  0  0  0  0  0  0  0  0  0  0  0
    1.3099   -6.1984   -1.4454 H   0  0  0  0  0  0  0  0  0  0  0  0
    1.2380   -4.5281   -0.0831 C   0  0  0  0  0  0  0  0  0  0  0  0
    1.6162   -5.0960    0.7617 H   0  0  0  0  0  0  0  0  0  0  0  0
    0.9207   -3.1752    0.0757 C   0  0  0  0  0  0  0  0  0  0  0  0
    1.0624   -2.7189    1.0503 H   0  0  0  0  0  0  0  0  0  0  0  0
   -0.9897    0.9246    0.3896 C   0  0  0  0  0  0  0  0  0  0  0  0
   -1.8121    1.4174   -0.3744 O   0  0  0  0  0  0  0  0  0  0  0  0
   -0.2784    1.7455    1.2452 N   0  0  0  0  0  0  0  0  0  0  0  0
    0.3512    1.3018    1.9081 H   0  0  0  0  0  0  0  0  0  0  0  0
   -0.4807    3.1872    1.3205 C   0  0  0  0  0  0  0  0  0  0  0  0
   -1.5151    3.4154    1.5985 H   0  0  0  0  0  0  0  0  0  0  0  0
    0.1839    3.6235    2.0724 H   0  0  0  0  0  0  0  0  0  0  0  0
   -0.2639    3.6554    0.3546 H   0  0  0  0  0  0  0  0  0  0  0  0
  1  2  1  0  0  0  0
  2  3  1  0  0  0  0
  2  4  1  0  0  0  0
  2  5  1  0  0  0  0
  5  6  2  0  0  0  0
  5  7  1  0  0  0  0
  7  8  1  0  0  0  0
  7  9  1  0  0  0  0
  9 10  1  0  0  0  0
  9 11  1  0  0  0  0
  9 25  1  0  0  0  0
 11 12  1  0  0  0  0
 11 13  1  0  0  0  0
 11 14  1  0  0  0  0
 14 15  1  0  0  0  0
 14 23  2  0  0  0  0
 15 16  1  0  0  0  0
 15 17  2  0  0  0  0
 17 18  1  0  0  0  0
 17 19  1  0  0  0  0
 19 20  1  0  0  0  0
 19 21  2  0  0  0  0
 21 22  1  0  0  0  0
 21 23  1  0  0  0  0
 23 24  1  0  0  0  0
 25 26  2  0  0  0  0
 25 27  1  0  0  0  0
 27 28  1  0  0  0  0
 27 29  1  0  0  0  0
 29 30  1  0  0  0  0
 29 31  1  0  0  0  0
 29 32  1  0  0  0  0
M  END
$$$$

  -OEChem-04042216033D

 32 32  0     1  0  0  0  0  0999 V2000
   -3.8152   -3.9486    1.6384 H   0  0  0  0  0  0  0  0  0  0  0  0
   -3.7323   -3.0826    0.9760 C   0  0  0  0  0  0  0  0  0  0  0  0
   -4.5676   -2.4057    1.1713 H   0  0  0  0  0  0  0  0  0  0  0  0
   -3.7847   -3.4264   -0.0599 H   0  0  0  0  0  0  0  0  0  0  0  0
   -2.4179   -2.3649    1.2169 C   0  0  0  0  0  0  0  0  0  0  0  0
   -1.7120   -2.6881    2.1602 O   0  0  0  0  0  0  0  0  0  0  0  0
   -2.0642   -1.3046    0.4086 N   0  0  0  0  0  0  0  0  0  0  0  0
   -2.7272   -1.0272   -0.3119 H   0  0  0  0  0  0  0  0  0  0  0  0
   -0.7696   -0.6048    0.4318 C   0  0  1  0  0  0  0  0  0  0  0  0
   -0.2150   -0.8460    1.3432 H   0  0  0  0  0  0  0  0  0  0  0  0
    0.0622   -0.9911   -0.8125 C   0  0  0  0  0  0  0  0  0  0  0  0
   -0.4847   -0.6618   -1.7030 H   0  0  0  0  0  0  0  0  0  0  0  0
    1.0048   -0.4347   -0.7887 H   0  0  0  0  0  0  0  0  0  0  0  0
    0.3982   -2.4622   -0.9703 C   0  0  0  0  0  0  0  0  0  0  0  0
    0.5498   -2.9867   -2.2644 C   0  0  0  0  0  0  0  0  0  0  0  0
    0.3849   -2.3525   -3.1305 H   0  0  0  0  0  0  0  0  0  0  0  0
    0.9045   -4.3257   -2.4612 C   0  0  0  0  0  0  0  0  0  0  0  0
    1.0045   -4.7185   -3.4686 H   0  0  0  0  0  0  0  0  0  0  0  0
    1.1334   -5.1566   -1.3620 C   0  0  0  0  0  0  0  0  0  0  0  0
    1.4069   -6.1970   -1.5113 H   0  0  0  0  0  0  0  0  0  0  0  0
    1.0199   -4.6413   -0.0687 C   0  0  0  0  0  0  0  0  0  0  0  0
    1.2076   -5.2780    0.7909 H   0  0  0  0  0  0  0  0  0  0  0  0
    0.6694   -3.3012    0.1246 C   0  0  0  0  0  0  0  0  0  0  0  0
    0.6125   -2.9279    1.1416 H   0  0  0  0  0  0  0  0  0  0  0  0
   -0.9874    0.9198    0.3928 C   0  0  0  0  0  0  0  0  0  0  0  0
   -1.7900    1.4058   -0.3964 O   0  0  0  0  0  0  0  0  0  0  0  0
   -0.2771    1.7515    1.2390 N   0  0  0  0  0  0  0  0  0  0  0  0
    0.3301    1.3150    1.9271 H   0  0  0  0  0  0  0  0  0  0  0  0
   -0.4655    3.1965    1.2818 C   0  0  0  0  0  0  0  0  0  0  0  0
   -1.4990    3.4407    1.5495 H   0  0  0  0  0  0  0  0  0  0  0  0
    0.1998    3.6429    2.0272 H   0  0  0  0  0  0  0  0  0  0  0  0
   -0.2391    3.6409    0.3068 H   0  0  0  0  0  0  0  0  0  0  0  0
  1  2  1  0  0  0  0
  2  3  1  0  0  0  0
  2  4  1  0  0  0  0
  2  5  1  0  0  0  0
  5  6  2  0  0  0  0
  5  7  1  0  0  0  0
  7  8  1  0  0  0  0
  7  9  1  0  0  0  0
  9 10  1  0  0  0  0
  9 11  1  0  0  0  0
  9 25  1  0  0  0  0
 11 12  1  0  0  0  0
 11 13  1  0  0  0  0
 11 14  1  0  0  0  0
 14 15  1  0  0  0  0
 14 23  2  0  0  0  0
 15 16  1  0  0  0  0
 15 17  2  0  0  0  0
 17 18  1  0  0  0  0
 17 19  1  0  0  0  0
 19 20  1  0  0  0  0
 19 21  2  0  0  0  0
 21 22  1  0  0  0  0
 21 23  1  0  0  0  0
 23 24  1  0  0  0  0
 25 26  2  0  0  0  0
 25 27  1  0  0  0  0
 27 28  1  0  0  0  0
 27 29  1  0  0  0  0
 29 30  1  0  0  0  0
 29 31  1  0  0  0  0
 29 32  1  0  0  0  0
M  END
$$$$

  -OEChem-04042216033D

 32 32  0     1  0  0  0  0  0999 V2000
   -3.9674   -3.8624    1.7016 H   0  0  0  0  0  0  0  0  0  0  0  0
   -3.8263   -3.0424    0.9920 C   0  0  0  0  0  0  0  0  0  0  0  0
   -4.6646   -2.3476    1.0834 H   0  0  0  0  0  0  0  0  0  0  0  0
   -3.8093   -3.4530   -0.0206 H   0  0  0  0  0  0  0  0  0  0  0  0
   -2.5226   -2.3216    1.2783 C   0  0  0  0  0  0  0  0  0  0  0  0
   -1.8782   -2.6045    2.2765 O   0  0  0  0  0  0  0  0  0  0  0  0
   -2.1195   -1.2914    0.4546 N   0  0  0  0  0  0  0  0  0  0  0  0
   -2.7483   -1.0402   -0.3052 H   0  0  0  0  0  0  0  0  0  0  0  0
   -0.8072   -0.6207    0.4734 C   0  0  1  0  0  0  0  0  0  0  0  0
   -0.2624   -0.8630    1.3910 H   0  0  0  0  0  0  0  0  0  0  0  0
    0.0308   -1.0301   -0.7634 C   0  0  0  0  0  0  0  0  0  0  0  0
   -0.5069   -0.6953   -1.6573 H   0  0  0  0  0  0  0  0  0  0  0  0
    0.9752   -0.4771   -0.7301 H   0  0  0  0  0  0  0  0  0  0  0  0
    0.3736   -2.4963   -0.9566 C   0  0  0  0  0  0  0  0  0  0  0  0
    0.8380   -2.9039   -2.2185 C   0  0  0  0  0  0  0  0  0  0  0  0
    0.8717   -2.1918   -3.0377 H   0  0  0  0  0  0  0  0  0  0  0  0
    1.2426   -4.2231   -2.4498 C   0  0  0  0  0  0  0  0  0  0  0  0
    1.5752   -4.5246   -3.4387 H   0  0  0  0  0  0  0  0  0  0  0  0
    1.2247   -5.1510   -1.4066 C   0  0  0  0  0  0  0  0  0  0  0  0
    1.5384   -6.1760   -1.5812 H   0  0  0  0  0  0  0  0  0  0  0  0
    0.8235   -4.7487   -0.1311 C   0  0  0  0  0  0  0  0  0  0  0  0
    0.8354   -5.4564    0.6926 H   0  0  0  0  0  0  0  0  0  0  0  0
    0.4225   -3.4278    0.0947 C   0  0  0  0  0  0  0  0  0  0  0  0
    0.1776   -3.1403    1.1090 H   0  0  0  0  0  0  0  0  0  0  0  0
   -0.9909    0.9076    0.3944 C   0  0  0  0  0  0  0  0  0  0  0  0
   -1.7679    1.3948   -0.4196 O   0  0  0  0  0  0  0  0  0  0  0  0
   -0.2686    1.7411    1.2282 N   0  0  0  0  0  0  0  0  0  0  0  0
    0.3101    1.3048    1.9404 H   0  0  0  0  0  0  0  0  0  0  0  0
   -0.4214    3.1908    1.2367 C   0  0  0  0  0  0  0  0  0  0  0  0
   -1.4439    3.4671    1.5150 H   0  0  0  0  0  0  0  0  0  0  0  0
    0.2675    3.6389    1.9591 H   0  0  0  0  0  0  0  0  0  0  0  0
   -0.2009    3.6055    0.2473 H   0  0  0  0  0  0  0  0  0  0  0  0
  1  2  1  0  0  0  0
  2  3  1  0  0  0  0
  2  4  1  0  0  0  0
  2  5  1  0  0  0  0
  5  6  2  0  0  0  0
  5  7  1  0  0  0  0
  7  8  1  0  0  0  0
  7  9  1  0  0  0  0
  9 10  1  0  0  0  0
  9 11  1  0  0  0  0
  9 25  1  0  0  0  0
 11 12  1  0  0  0  0
 11 13  1  0  0  0  0
 11 14  1  0  0  0  0
 14 15  1  0  0  0  0
 14 23  2  0  0  0  0
 15 16  1  0  0  0  0
 15 17  2  0  0  0  0
 17 18  1  0  0  0  0
 17 19  1  0  0  0  0
 19 20  1  0  0  0  0
 19 21  2  0  0  0  0
 21 22  1  0  0  0  0
 21 23  1  0  0  0  0
 23 24  1  0  0  0  0
 25 26  2  0  0  0  0
 25 27  1  0  0  0  0
 27 28  1  0  0  0  0
 27 29  1  0  0  0  0
 29 30  1  0  0  0  0
 29 31  1  0  0  0  0
 29 32  1  0  0  0  0
M  END
$$$$

  -OEChem-04042216033D

 32 32  0     1  0  0  0  0  0999 V2000
   -4.2250   -3.5913    2.1311 H   0  0  0  0  0  0  0  0  0  0  0  0
   -4.0598   -2.8323    1.3614 C   0  0  0  0  0  0  0  0  0  0  0  0
   -4.8029   -2.0402    1.4815 H   0  0  0  0  0  0  0  0  0  0  0  0
   -4.1850   -3.2941    0.3789 H   0  0  0  0  0  0  0  0  0  0  0  0
   -2.6629   -2.2543    1.4870 C   0  0  0  0  0  0  0  0  0  0  0  0
   -1.9332   -2.6120    2.3991 O   0  0  0  0  0  0  0  0  0  0  0  0
   -2.2454   -1.2810    0.6038 N   0  0  0  0  0  0  0  0  0  0  0  0
   -2.9283   -0.9599   -0.0800 H   0  0  0  0  0  0  0  0  0  0  0  0
   -0.8970   -0.6914    0.5071 C   0  0  1  0  0  0  0  0  0  0  0  0
   -0.3310   -0.9335    1.4122 H   0  0  0  0  0  0  0  0  0  0  0  0
   -0.0629   -1.1306   -0.7352 C   0  0  0  0  0  0  0  0  0  0  0  0
   -0.4641   -0.5836   -1.5960 H   0  0  0  0  0  0  0  0  0  0  0  0
    0.9571   -0.7663   -0.5737 H   0  0  0  0  0  0  0  0  0  0  0  0
    0.0535   -2.5724   -1.2115 C   0  0  0  0  0  0  0  0  0  0  0  0
    0.8430   -2.7873   -2.3560 C   0  0  0  0  0  0  0  0  0  0  0  0
    1.2628   -1.9383   -2.8876 H   0  0  0  0  0  0  0  0  0  0  0  0
    1.0845   -4.0736   -2.8495 C   0  0  0  0  0  0  0  0  0  0  0  0
    1.6754   -4.2084   -3.7507 H   0  0  0  0  0  0  0  0  0  0  0  0
    0.5719   -5.1837   -2.1778 C   0  0  0  0  0  0  0  0  0  0  0  0
    0.7577   -6.1852   -2.5545 H   0  0  0  0  0  0  0  0  0  0  0  0
   -0.1567   -4.9990   -1.0023 C   0  0  0  0  0  0  0  0  0  0  0  0
   -0.5243   -5.8591   -0.4505 H   0  0  0  0  0  0  0  0  0  0  0  0
   -0.3920   -3.7085   -0.5156 C   0  0  0  0  0  0  0  0  0  0  0  0
   -0.8888   -3.6313    0.4349 H   0  0  0  0  0  0  0  0  0  0  0  0
   -1.0241    0.8414    0.3852 C   0  0  0  0  0  0  0  0  0  0  0  0
   -1.8616    1.3362   -0.3617 O   0  0  0  0  0  0  0  0  0  0  0  0
   -0.2097    1.6700    1.1352 N   0  0  0  0  0  0  0  0  0  0  0  0
    0.4174    1.2321    1.8043 H   0  0  0  0  0  0  0  0  0  0  0  0
   -0.3129    3.1240    1.1136 C   0  0  0  0  0  0  0  0  0  0  0  0
   -1.3003    3.4433    1.4632 H   0  0  0  0  0  0  0  0  0  0  0  0
    0.4456    3.5668    1.7663 H   0  0  0  0  0  0  0  0  0  0  0  0
   -0.1580    3.5045    0.0984 H   0  0  0  0  0  0  0  0  0  0  0  0
  1  2  1  0  0  0  0
  2  3  1  0  0  0  0
  2  4  1  0  0  0  0
  2  5  1  0  0  0  0
  5  6  2  0  0  0  0
  5  7  1  0  0  0  0
  7  8  1  0  0  0  0
  7  9  1  0  0  0  0
  9 10  1  0  0  0  0
  9 11  1  0  0  0  0
  9 25  1  0  0  0  0
 11 12  1  0  0  0  0
 11 13  1  0  0  0  0
 11 14  1  0  0  0  0
 14 15  1  0  0  0  0
 14 23  2  0  0  0  0
 15 16  1  0  0  0  0
 15 17  2  0  0  0  0
 17 18  1  0  0  0  0
 17 19  1  0  0  0  0
 19 20  1  0  0  0  0
 19 21  2  0  0  0  0
 21 22  1  0  0  0  0
 21 23  1  0  0  0  0
 23 24  1  0  0  0  0
 25 26  2  0  0  0  0
 25 27  1  0  0  0  0
 27 28  1  0  0  0  0
 27 29  1  0  0  0  0
 29 30  1  0  0  0  0
 29 31  1  0  0  0  0
 29 32  1  0  0  0  0
M  END
$$$$

  -OEChem-04042216033D

 32 32  0     1  0  0  0  0  0999 V2000
   -4.3545   -3.5080    2.0792 H   0  0  0  0  0  0  0  0  0  0  0  0
   -4.1943   -2.6773    1.3862 C   0  0  0  0  0  0  0  0  0  0  0  0
   -4.8457   -1.8479    1.6720 H   0  0  0  0  0  0  0  0  0  0  0  0
   -4.4557   -3.0060    0.3775 H   0  0  0  0  0  0  0  0  0  0  0  0
   -2.7443   -2.2332    1.4283 C   0  0  0  0  0  0  0  0  0  0  0  0
   -1.9832   -2.7155    2.2518 O   0  0  0  0  0  0  0  0  0  0  0  0
   -2.2982   -1.2724    0.5430 N   0  0  0  0  0  0  0  0  0  0  0  0
   -2.9915   -0.8414   -0.0668 H   0  0  0  0  0  0  0  0  0  0  0  0
   -0.9348   -0.7175    0.4876 C   0  0  1  0  0  0  0  0  0  0  0  0
   -0.4245   -0.9505    1.4276 H   0  0  0  0  0  0  0  0  0  0  0  0
   -0.0068   -1.1738   -0.6801 C   0  0  0  0  0  0  0  0  0  0  0  0
   -0.3410   -0.6372   -1.5752 H   0  0  0  0  0  0  0  0  0  0  0  0
    0.9933   -0.7978   -0.4391 H   0  0  0  0  0  0  0  0  0  0  0  0
    0.1577   -2.6188   -1.1420 C   0  0  0  0  0  0  0  0  0  0  0  0
    1.2650   -2.8748   -1.9726 C   0  0  0  0  0  0  0  0  0  0  0  0
    1.9415   -2.0672   -2.2358 H   0  0  0  0  0  0  0  0  0  0  0  0
    1.5264   -4.1534   -2.4748 C   0  0  0  0  0  0  0  0  0  0  0  0
    2.3914   -4.3223   -3.1093 H   0  0  0  0  0  0  0  0  0  0  0  0
    0.6742   -5.2116   -2.1605 C   0  0  0  0  0  0  0  0  0  0  0  0
    0.8728   -6.2072   -2.5462 H   0  0  0  0  0  0  0  0  0  0  0  0
   -0.4381   -4.9810   -1.3508 C   0  0  0  0  0  0  0  0  0  0  0  0
   -1.1082   -5.7994   -1.1049 H   0  0  0  0  0  0  0  0  0  0  0  0
   -0.6953   -3.6984   -0.8539 C   0  0  0  0  0  0  0  0  0  0  0  0
   -1.5756   -3.5882   -0.2482 H   0  0  0  0  0  0  0  0  0  0  0  0
   -1.0364    0.8159    0.3541 C   0  0  0  0  0  0  0  0  0  0  0  0
   -1.8598    1.3169   -0.4043 O   0  0  0  0  0  0  0  0  0  0  0  0
   -0.2349    1.6381    1.1246 N   0  0  0  0  0  0  0  0  0  0  0  0
    0.3841    1.1952    1.7980 H   0  0  0  0  0  0  0  0  0  0  0  0
   -0.3222    3.0931    1.0988 C   0  0  0  0  0  0  0  0  0  0  0  0
   -1.3140    3.4240    1.4250 H   0  0  0  0  0  0  0  0  0  0  0  0
    0.4257    3.5283    1.7687 H   0  0  0  0  0  0  0  0  0  0  0  0
   -0.1400    3.4703    0.0870 H   0  0  0  0  0  0  0  0  0  0  0  0
  1  2  1  0  0  0  0
  2  3  1  0  0  0  0
  2  4  1  0  0  0  0
  2  5  1  0  0  0  0
  5  6  2  0  0  0  0
  5  7  1  0  0  0  0
  7  8  1  0  0  0  0
  7  9  1  0  0  0  0
  9 10  1  0  0  0  0
  9 11  1  0  0  0  0
  9 25  1  0  0  0  0
 11 12  1  0  0  0  0
 11 13  1  0  0  0  0
 11 14  1  0  0  0  0
 14 15  1  0  0  0  0
 14 23  2  0  0  0  0
 15 16  1  0  0  0  0
 15 17  2  0  0  0  0
 17 18  1  0  0  0  0
 17 19  1  0  0  0  0
 19 20  1  0  0  0  0
 19 21  2  0  0  0  0
 21 22  1  0  0  0  0
 21 23  1  0  0  0  0
 23 24  1  0  0  0  0
 25 26  2  0  0  0  0
 25 27  1  0  0  0  0
 27 28  1  0  0  0  0
 27 29  1  0  0  0  0
 29 30  1  0  0  0  0
 29 31  1  0  0  0  0
 29 32  1  0  0  0  0
M  END
$$$$

  -OEChem-04042216033D

 32 32  0     1  0  0  0  0  0999 V2000
   -4.1579   -3.6220    2.1219 H   0  0  0  0  0  0  0  0  0  0  0  0
   -4.0540   -2.7737    1.4394 C   0  0  0  0  0  0  0  0  0  0  0  0
   -4.7133   -1.9690    1.7734 H   0  0  0  0  0  0  0  0  0  0  0  0
   -4.3546   -3.0899    0.4376 H   0  0  0  0  0  0  0  0  0  0  0  0
   -2.6161   -2.2894    1.4216 C   0  0  0  0  0  0  0  0  0  0  0  0
   -1.8041   -2.7710    2.1950 O   0  0  0  0  0  0  0  0  0  0  0  0
   -2.2443   -1.2886    0.5453 N   0  0  0  0  0  0  0  0  0  0  0  0
   -2.9784   -0.8490   -0.0078 H   0  0  0  0  0  0  0  0  0  0  0  0
   -0.9011   -0.6948    0.4601 C   0  0  1  0  0  0  0  0  0  0  0  0
   -0.3583   -0.9325    1.3802 H   0  0  0  0  0  0  0  0  0  0  0  0
   -0.0008   -1.1323   -0.7320 C   0  0  0  0  0  0  0  0  0  0  0  0
   -0.3704   -0.6152   -1.6243 H   0  0  0  0  0  0  0  0  0  0  0  0
    1.0004   -0.7381   -0.5292 H   0  0  0  0  0  0  0  0  0  0  0  0
    0.1381   -2.5939   -1.1467 C   0  0  0  0  0  0  0  0  0  0  0  0
    1.3642   -2.9801   -1.7204 C   0  0  0  0  0  0  0  0  0  0  0  0
    2.1834   -2.2700   -1.7809 H   0  0  0  0  0  0  0  0  0  0  0  0
    1.5701   -4.2749   -2.2075 C   0  0  0  0  0  0  0  0  0  0  0  0
    2.5340   -4.5528   -2.6232 H   0  0  0  0  0  0  0  0  0  0  0  0
    0.5344   -5.2081   -2.1647 C   0  0  0  0  0  0  0  0  0  0  0  0
    0.6892   -6.2150   -2.5407 H   0  0  0  0  0  0  0  0  0  0  0  0
   -0.7090   -4.8325   -1.6554 C   0  0  0  0  0  0  0  0  0  0  0  0
   -1.5275   -5.5461   -1.6465 H   0  0  0  0  0  0  0  0  0  0  0  0
   -0.9093   -3.5344   -1.1728 C   0  0  0  0  0  0  0  0  0  0  0  0
   -1.9081   -3.2837   -0.8532 H   0  0  0  0  0  0  0  0  0  0  0  0
   -1.0353    0.8386    0.3755 C   0  0  0  0  0  0  0  0  0  0  0  0
   -1.8938    1.3417   -0.3410 O   0  0  0  0  0  0  0  0  0  0  0  0
   -0.2248    1.6565    1.1415 N   0  0  0  0  0  0  0  0  0  0  0  0
    0.4240    1.2085    1.7827 H   0  0  0  0  0  0  0  0  0  0  0  0
   -0.3460    3.1093    1.1625 C   0  0  0  0  0  0  0  0  0  0  0  0
   -1.3402    3.4060    1.5127 H   0  0  0  0  0  0  0  0  0  0  0  0
    0.4008    3.5418    1.8351 H   0  0  0  0  0  0  0  0  0  0  0  0
   -0.1869    3.5212    0.1605 H   0  0  0  0  0  0  0  0  0  0  0  0
  1  2  1  0  0  0  0
  2  3  1  0  0  0  0
  2  4  1  0  0  0  0
  2  5  1  0  0  0  0
  5  6  2  0  0  0  0
  5  7  1  0  0  0  0
  7  8  1  0  0  0  0
  7  9  1  0  0  0  0
  9 10  1  0  0  0  0
  9 11  1  0  0  0  0
  9 25  1  0  0  0  0
 11 12  1  0  0  0  0
 11 13  1  0  0  0  0
 11 14  1  0  0  0  0
 14 15  1  0  0  0  0
 14 23  2  0  0  0  0
 15 16  1  0  0  0  0
 15 17  2  0  0  0  0
 17 18  1  0  0  0  0
 17 19  1  0  0  0  0
 19 20  1  0  0  0  0
 19 21  2  0  0  0  0
 21 22  1  0  0  0  0
 21 23  1  0  0  0  0
 23 24  1  0  0  0  0
 25 26  2  0  0  0  0
 25 27  1  0  0  0  0
 27 28  1  0  0  0  0
 27 29  1  0  0  0  0
 29 30  1  0  0  0  0
 29 31  1  0  0  0  0
 29 32  1  0  0  0  0
M  END
$$$$

  -OEChem-04042216033D

 32 32  0     1  0  0  0  0  0999 V2000
   -4.0283   -3.7159    2.0509 H   0  0  0  0  0  0  0  0  0  0  0  0
   -3.9437   -2.8850    1.3449 C   0  0  0  0  0  0  0  0  0  0  0  0
   -4.6458   -2.1006    1.6374 H   0  0  0  0  0  0  0  0  0  0  0  0
   -4.2039   -3.2444    0.3466 H   0  0  0  0  0  0  0  0  0  0  0  0
   -2.5279   -2.3399    1.3471 C   0  0  0  0  0  0  0  0  0  0  0  0
   -1.7005   -2.8039    2.1153 O   0  0  0  0  0  0  0  0  0  0  0  0
   -2.1975   -1.2999    0.5008 N   0  0  0  0  0  0  0  0  0  0  0  0
   -2.9482   -0.8730   -0.0391 H   0  0  0  0  0  0  0  0  0  0  0  0
   -0.8735   -0.6645    0.4227 C   0  0  1  0  0  0  0  0  0  0  0  0
   -0.3139   -0.9163    1.3291 H   0  0  0  0  0  0  0  0  0  0  0  0
    0.0063   -1.0768   -0.7883 C   0  0  0  0  0  0  0  0  0  0  0  0
   -0.3866   -0.5692   -1.6759 H   0  0  0  0  0  0  0  0  0  0  0  0
    1.0114   -0.6790   -0.6158 H   0  0  0  0  0  0  0  0  0  0  0  0
    0.1093   -2.5507   -1.1545 C   0  0  0  0  0  0  0  0  0  0  0  0
    1.3803   -3.0801   -1.4416 C   0  0  0  0  0  0  0  0  0  0  0  0
    2.2675   -2.4677   -1.3135 H   0  0  0  0  0  0  0  0  0  0  0  0
    1.5366   -4.4018   -1.8727 C   0  0  0  0  0  0  0  0  0  0  0  0
    2.5299   -4.7981   -2.0615 H   0  0  0  0  0  0  0  0  0  0  0  0
    0.4153   -5.2097   -2.0673 C   0  0  0  0  0  0  0  0  0  0  0  0
    0.5339   -6.2365   -2.4007 H   0  0  0  0  0  0  0  0  0  0  0  0
   -0.8599   -4.6832   -1.8540 C   0  0  0  0  0  0  0  0  0  0  0  0
   -1.7366   -5.2976   -2.0355 H   0  0  0  0  0  0  0  0  0  0  0  0
   -1.0101   -3.3601   -1.4247 C   0  0  0  0  0  0  0  0  0  0  0  0
   -2.0155   -2.9701   -1.3327 H   0  0  0  0  0  0  0  0  0  0  0  0
   -1.0344    0.8670    0.3883 C   0  0  0  0  0  0  0  0  0  0  0  0
   -1.9024    1.3752   -0.3127 O   0  0  0  0  0  0  0  0  0  0  0  0
   -0.2318    1.6759    1.1719 N   0  0  0  0  0  0  0  0  0  0  0  0
    0.4279    1.2214    1.7973 H   0  0  0  0  0  0  0  0  0  0  0  0
   -0.3720    3.1259    1.2271 C   0  0  0  0  0  0  0  0  0  0  0  0
   -1.3683    3.4012    1.5883 H   0  0  0  0  0  0  0  0  0  0  0  0
    0.3722    3.5528    1.9062 H   0  0  0  0  0  0  0  0  0  0  0  0
   -0.2239    3.5627    0.2339 H   0  0  0  0  0  0  0  0  0  0  0  0
  1  2  1  0  0  0  0
  2  3  1  0  0  0  0
  2  4  1  0  0  0  0
  2  5  1  0  0  0  0
  5  6  2  0  0  0  0
  5  7  1  0  0  0  0
  7  8  1  0  0  0  0
  7  9  1  0  0  0  0
  9 10  1  0  0  0  0
  9 11  1  0  0  0  0
  9 25  1  0  0  0  0
 11 12  1  0  0  0  0
 11 13  1  0  0  0  0
 11 14  1  0  0  0  0
 14 15  1  0  0  0  0
 14 23  2  0  0  0  0
 15 16  1  0  0  0  0
 15 17  2  0  0  0  0
 17 18  1  0  0  0  0
 17 19  1  0  0  0  0
 19 20  1  0  0  0  0
 19 21  2  0  0  0  0
 21 22  1  0  0  0  0
 21 23  1  0  0  0  0
 23 24  1  0  0  0  0
 25 26  2  0  0  0  0
 25 27  1  0  0  0  0
 27 28  1  0  0  0  0
 27 29  1  0  0  0  0
 29 30  1  0  0  0  0
 29 31  1  0  0  0  0
 29 32  1  0  0  0  0
M  END
$$$$

  -OEChem-04042216033D

 32 32  0     1  0  0  0  0  0999 V2000
   -3.9055   -3.8321    1.9141 H   0  0  0  0  0  0  0  0  0  0  0  0
   -3.8384   -2.9920    1.2172 C   0  0  0  0  0  0  0  0  0  0  0  0
   -4.5912   -2.2478    1.4876 H   0  0  0  0  0  0  0  0  0  0  0  0
   -4.0407   -3.3564    0.2073 H   0  0  0  0  0  0  0  0  0  0  0  0
   -2.4541   -2.3743    1.2759 C   0  0  0  0  0  0  0  0  0  0  0  0
   -1.6289   -2.8078    2.0645 O   0  0  0  0  0  0  0  0  0  0  0  0
   -2.1492   -1.3072    0.4545 N   0  0  0  0  0  0  0  0  0  0  0  0
   -2.8999   -0.9131   -0.1091 H   0  0  0  0  0  0  0  0  0  0  0  0
   -0.8407   -0.6375    0.3956 C   0  0  1  0  0  0  0  0  0  0  0  0
   -0.2690   -0.8990    1.2916 H   0  0  0  0  0  0  0  0  0  0  0  0
    0.0158   -1.0280   -0.8346 C   0  0  0  0  0  0  0  0  0  0  0  0
   -0.3936   -0.5207   -1.7147 H   0  0  0  0  0  0  0  0  0  0  0  0
    1.0279   -0.6385   -0.6871 H   0  0  0  0  0  0  0  0  0  0  0  0
    0.0827   -2.5075   -1.1670 C   0  0  0  0  0  0  0  0  0  0  0  0
    1.3252   -3.1624   -1.1654 C   0  0  0  0  0  0  0  0  0  0  0  0
    2.2200   -2.6338   -0.8520 H   0  0  0  0  0  0  0  0  0  0  0  0
    1.4309   -4.5047   -1.5459 C   0  0  0  0  0  0  0  0  0  0  0  0
    2.3955   -5.0025   -1.5161 H   0  0  0  0  0  0  0  0  0  0  0  0
    0.2971   -5.2038   -1.9672 C   0  0  0  0  0  0  0  0  0  0  0  0
    0.3777   -6.2459   -2.2616 H   0  0  0  0  0  0  0  0  0  0  0  0
   -0.9374   -4.5528   -2.0241 C   0  0  0  0  0  0  0  0  0  0  0  0
   -1.8165   -5.0858   -2.3733 H   0  0  0  0  0  0  0  0  0  0  0  0
   -1.0381   -3.2104   -1.6436 C   0  0  0  0  0  0  0  0  0  0  0  0
   -1.9966   -2.7113   -1.7341 H   0  0  0  0  0  0  0  0  0  0  0  0
   -1.0268    0.8909    0.3950 C   0  0  0  0  0  0  0  0  0  0  0  0
   -1.8928    1.4006   -0.3074 O   0  0  0  0  0  0  0  0  0  0  0  0
   -0.2407    1.6954    1.1994 N   0  0  0  0  0  0  0  0  0  0  0  0
    0.4207    1.2378    1.8207 H   0  0  0  0  0  0  0  0  0  0  0  0
   -0.3974    3.1426    1.2785 C   0  0  0  0  0  0  0  0  0  0  0  0
   -1.4016    3.4005    1.6310 H   0  0  0  0  0  0  0  0  0  0  0  0
    0.3332    3.5648    1.9752 H   0  0  0  0  0  0  0  0  0  0  0  0
   -0.2406    3.5994    0.2956 H   0  0  0  0  0  0  0  0  0  0  0  0
  1  2  1  0  0  0  0
  2  3  1  0  0  0  0
  2  4  1  0  0  0  0
  2  5  1  0  0  0  0
  5  6  2  0  0  0  0
  5  7  1  0  0  0  0
  7  8  1  0  0  0  0
  7  9  1  0  0  0  0
  9 10  1  0  0  0  0
  9 11  1  0  0  0  0
  9 25  1  0  0  0  0
 11 12  1  0  0  0  0
 11 13  1  0  0  0  0
 11 14  1  0  0  0  0
 14 15  1  0  0  0  0
 14 23  2  0  0  0  0
 15 16  1  0  0  0  0
 15 17  2  0  0  0  0
 17 18  1  0  0  0  0
 17 19  1  0  0  0  0
 19 20  1  0  0  0  0
 19 21  2  0  0  0  0
 21 22  1  0  0  0  0
 21 23  1  0  0  0  0
 23 24  1  0  0  0  0
 25 26  2  0  0  0  0
 25 27  1  0  0  0  0
 27 28  1  0  0  0  0
 27 29  1  0  0  0  0
 29 30  1  0  0  0  0
 29 31  1  0  0  0  0
 29 32  1  0  0  0  0
M  END
$$$$

  -OEChem-04042216033D

 32 32  0     1  0  0  0  0  0999 V2000
   -3.7969   -3.9331    1.7722 H   0  0  0  0  0  0  0  0  0  0  0  0
   -3.7478   -3.0743    1.0969 C   0  0  0  0  0  0  0  0  0  0  0  0
   -4.5397   -2.3700    1.3627 H   0  0  0  0  0  0  0  0  0  0  0  0
   -3.9061   -3.4224    0.0733 H   0  0  0  0  0  0  0  0  0  0  0  0
   -2.3938   -2.3997    1.2077 C   0  0  0  0  0  0  0  0  0  0  0  0
   -1.5754   -2.8096    2.0162 O   0  0  0  0  0  0  0  0  0  0  0  0
   -2.1078   -1.3115    0.4080 N   0  0  0  0  0  0  0  0  0  0  0  0
   -2.8522   -0.9490   -0.1834 H   0  0  0  0  0  0  0  0  0  0  0  0
   -0.8117   -0.6163    0.3678 C   0  0  1  0  0  0  0  0  0  0  0  0
   -0.2308   -0.8889    1.2546 H   0  0  0  0  0  0  0  0  0  0  0  0
    0.0245   -0.9866   -0.8783 C   0  0  0  0  0  0  0  0  0  0  0  0
   -0.3947   -0.4735   -1.7508 H   0  0  0  0  0  0  0  0  0  0  0  0
    1.0437   -0.6095   -0.7471 H   0  0  0  0  0  0  0  0  0  0  0  0
    0.0630   -2.4684   -1.1878 C   0  0  0  0  0  0  0  0  0  0  0  0
    1.2133   -3.2205   -0.9051 C   0  0  0  0  0  0  0  0  0  0  0  0
    2.0625   -2.7549   -0.4145 H   0  0  0  0  0  0  0  0  0  0  0  0
    1.2744   -4.5796   -1.2326 C   0  0  0  0  0  0  0  0  0  0  0  0
    2.1627   -5.1558   -0.9922 H   0  0  0  0  0  0  0  0  0  0  0  0
    0.1928   -5.1966   -1.8674 C   0  0  0  0  0  0  0  0  0  0  0  0
    0.2399   -6.2516   -2.1200 H   0  0  0  0  0  0  0  0  0  0  0  0
   -0.9465   -4.4510   -2.1819 C   0  0  0  0  0  0  0  0  0  0  0  0
   -1.7836   -4.9247   -2.6858 H   0  0  0  0  0  0  0  0  0  0  0  0
   -1.0054   -3.0930   -1.8525 C   0  0  0  0  0  0  0  0  0  0  0  0
   -1.8873   -2.5184   -2.1168 H   0  0  0  0  0  0  0  0  0  0  0  0
   -1.0148    0.9092    0.3953 C   0  0  0  0  0  0  0  0  0  0  0  0
   -1.8738    1.4243   -0.3117 O   0  0  0  0  0  0  0  0  0  0  0  0
   -0.2412    1.7068    1.2183 N   0  0  0  0  0  0  0  0  0  0  0  0
    0.4107    1.2438    1.8456 H   0  0  0  0  0  0  0  0  0  0  0  0
   -0.4128    3.1508    1.3189 C   0  0  0  0  0  0  0  0  0  0  0  0
   -1.4276    3.3933    1.6516 H   0  0  0  0  0  0  0  0  0  0  0  0
    0.2970    3.5673    2.0401 H   0  0  0  0  0  0  0  0  0  0  0  0
   -0.2374    3.6252    0.3477 H   0  0  0  0  0  0  0  0  0  0  0  0
  1  2  1  0  0  0  0
  2  3  1  0  0  0  0
  2  4  1  0  0  0  0
  2  5  1  0  0  0  0
  5  6  2  0  0  0  0
  5  7  1  0  0  0  0
  7  8  1  0  0  0  0
  7  9  1  0  0  0  0
  9 10  1  0  0  0  0
  9 11  1  0  0  0  0
  9 25  1  0  0  0  0
 11 12  1  0  0  0  0
 11 13  1  0  0  0  0
 11 14  1  0  0  0  0
 14 15  1  0  0  0  0
 14 23  2  0  0  0  0
 15 16  1  0  0  0  0
 15 17  2  0  0  0  0
 17 18  1  0  0  0  0
 17 19  1  0  0  0  0
 19 20  1  0  0  0  0
 19 21  2  0  0  0  0
 21 22  1  0  0  0  0
 21 23  1  0  0  0  0
 23 24  1  0  0  0  0
 25 26  2  0  0  0  0
 25 27  1  0  0  0  0
 27 28  1  0  0  0  0
 27 29  1  0  0  0  0
 29 30  1  0  0  0  0
 29 31  1  0  0  0  0
 29 32  1  0  0  0  0
M  END
$$$$

  -OEChem-04042216033D

 32 32  0     1  0  0  0  0  0999 V2000
   -3.7329   -3.9878    1.6756 H   0  0  0  0  0  0  0  0  0  0  0  0
   -3.6892   -3.1225    1.0085 C   0  0  0  0  0  0  0  0  0  0  0  0
   -4.5028   -2.4389    1.2621 H   0  0  0  0  0  0  0  0  0  0  0  0
   -3.8162   -3.4661   -0.0210 H   0  0  0  0  0  0  0  0  0  0  0  0
   -2.3546   -2.4169    1.1552 C   0  0  0  0  0  0  0  0  0  0  0  0
   -1.5442   -2.8128    1.9793 O   0  0  0  0  0  0  0  0  0  0  0  0
   -2.0783   -1.3146    0.3719 N   0  0  0  0  0  0  0  0  0  0  0  0
   -2.8109   -0.9790   -0.2491 H   0  0  0  0  0  0  0  0  0  0  0  0
   -0.7897   -0.6040    0.3480 C   0  0  1  0  0  0  0  0  0  0  0  0
   -0.2032   -0.8849    1.2283 H   0  0  0  0  0  0  0  0  0  0  0  0
    0.0328   -0.9603   -0.9089 C   0  0  0  0  0  0  0  0  0  0  0  0
   -0.3897   -0.4376   -1.7737 H   0  0  0  0  0  0  0  0  0  0  0  0
    1.0575   -0.5963   -0.7843 H   0  0  0  0  0  0  0  0  0  0  0  0
    0.0544   -2.4422   -1.2094 C   0  0  0  0  0  0  0  0  0  0  0  0
    1.0533   -3.2627   -0.6660 C   0  0  0  0  0  0  0  0  0  0  0  0
    1.8048   -2.8415   -0.0056 H   0  0  0  0  0  0  0  0  0  0  0  0
    1.0814   -4.6317   -0.9528 C   0  0  0  0  0  0  0  0  0  0  0  0
    1.8517   -5.2607   -0.5169 H   0  0  0  0  0  0  0  0  0  0  0  0
    0.1158   -5.1908   -1.7953 C   0  0  0  0  0  0  0  0  0  0  0  0
    0.1374   -6.2537   -2.0165 H   0  0  0  0  0  0  0  0  0  0  0  0
   -0.8764   -4.3792   -2.3527 C   0  0  0  0  0  0  0  0  0  0  0  0
   -1.6246   -4.8103   -3.0109 H   0  0  0  0  0  0  0  0  0  0  0  0
   -0.9038   -3.0110   -2.0636 C   0  0  0  0  0  0  0  0  0  0  0  0
   -1.6753   -2.3867   -2.5035 H   0  0  0  0  0  0  0  0  0  0  0  0
   -1.0040    0.9198    0.3954 C   0  0  0  0  0  0  0  0  0  0  0  0
   -1.8572    1.4395   -0.3152 O   0  0  0  0  0  0  0  0  0  0  0  0
   -0.2406    1.7121    1.2331 N   0  0  0  0  0  0  0  0  0  0  0  0
    0.4090    1.2449    1.8596 H   0  0  0  0  0  0  0  0  0  0  0  0
   -0.4210    3.1541    1.3498 C   0  0  0  0  0  0  0  0  0  0  0  0
   -1.4388    3.3879    1.6795 H   0  0  0  0  0  0  0  0  0  0  0  0
    0.2821    3.5663    2.0797 H   0  0  0  0  0  0  0  0  0  0  0  0
   -0.2426    3.6412    0.3854 H   0  0  0  0  0  0  0  0  0  0  0  0
  1  2  1  0  0  0  0
  2  3  1  0  0  0  0
  2  4  1  0  0  0  0
  2  5  1  0  0  0  0
  5  6  2  0  0  0  0
  5  7  1  0  0  0  0
  7  8  1  0  0  0  0
  7  9  1  0  0  0  0
  9 10  1  0  0  0  0
  9 11  1  0  0  0  0
  9 25  1  0  0  0  0
 11 12  1  0  0  0  0
 11 13  1  0  0  0  0
 11 14  1  0  0  0  0
 14 15  1  0  0  0  0
 14 23  2  0  0  0  0
 15 16  1  0  0  0  0
 15 17  2  0  0  0  0
 17 18  1  0  0  0  0
 17 19  1  0  0  0  0
 19 20  1  0  0  0  0
 19 21  2  0  0  0  0
 21 22  1  0  0  0  0
 21 23  1  0  0  0  0
 23 24  1  0  0  0  0
 25 26  2  0  0  0  0
 25 27  1  0  0  0  0
 27 28  1  0  0  0  0
 27 29  1  0  0  0  0
 29 30  1  0  0  0  0
 29 31  1  0  0  0  0
 29 32  1  0  0  0  0
M  END
$$$$

  -OEChem-04042216033D

 32 32  0     1  0  0  0  0  0999 V2000
   -3.7072   -4.0108    1.6316 H   0  0  0  0  0  0  0  0  0  0  0  0
   -3.6629   -3.1447    0.9653 C   0  0  0  0  0  0  0  0  0  0  0  0
   -4.4889   -2.4710    1.2054 H   0  0  0  0  0  0  0  0  0  0  0  0
   -3.7691   -3.4886   -0.0664 H   0  0  0  0  0  0  0  0  0  0  0  0
   -2.3393   -2.4232    1.1329 C   0  0  0  0  0  0  0  0  0  0  0  0
   -1.5380   -2.8073    1.9718 O   0  0  0  0  0  0  0  0  0  0  0  0
   -2.0642   -1.3160    0.3562 N   0  0  0  0  0  0  0  0  0  0  0  0
   -2.7837   -1.0022   -0.2910 H   0  0  0  0  0  0  0  0  0  0  0  0
   -0.7791   -0.5986    0.3422 C   0  0  1  0  0  0  0  0  0  0  0  0
   -0.1915   -0.8824    1.2208 H   0  0  0  0  0  0  0  0  0  0  0  0
    0.0372   -0.9473   -0.9203 C   0  0  0  0  0  0  0  0  0  0  0  0
   -0.3854   -0.4150   -1.7794 H   0  0  0  0  0  0  0  0  0  0  0  0
    1.0648   -0.5913   -0.7960 H   0  0  0  0  0  0  0  0  0  0  0  0
    0.0540   -2.4286   -1.2233 C   0  0  0  0  0  0  0  0  0  0  0  0
    0.8430   -3.3000   -0.4586 C   0  0  0  0  0  0  0  0  0  0  0  0
    1.4398   -2.9148    0.3625 H   0  0  0  0  0  0  0  0  0  0  0  0
    0.8514   -4.6725   -0.7287 C   0  0  0  0  0  0  0  0  0  0  0  0
    1.4585   -5.3391   -0.1234 H   0  0  0  0  0  0  0  0  0  0  0  0
    0.0730   -5.1856   -1.7706 C   0  0  0  0  0  0  0  0  0  0  0  0
    0.0787   -6.2516   -1.9784 H   0  0  0  0  0  0  0  0  0  0  0  0
   -0.7142   -4.3248   -2.5414 C   0  0  0  0  0  0  0  0  0  0  0  0
   -1.3191   -4.7219   -3.3512 H   0  0  0  0  0  0  0  0  0  0  0  0
   -0.7228   -2.9525   -2.2686 C   0  0  0  0  0  0  0  0  0  0  0  0
   -1.3393   -2.2932   -2.8723 H   0  0  0  0  0  0  0  0  0  0  0  0
   -0.9985    0.9240    0.3954 C   0  0  0  0  0  0  0  0  0  0  0  0
   -1.8454    1.4467   -0.3204 O   0  0  0  0  0  0  0  0  0  0  0  0
   -0.2409    1.7127    1.2413 N   0  0  0  0  0  0  0  0  0  0  0  0
    0.4062    1.2432    1.8684 H   0  0  0  0  0  0  0  0  0  0  0  0
   -0.4210    3.1540    1.3635 C   0  0  0  0  0  0  0  0  0  0  0  0
   -1.4408    3.3874    1.6870 H   0  0  0  0  0  0  0  0  0  0  0  0
    0.2775    3.5613    2.1006 H   0  0  0  0  0  0  0  0  0  0  0  0
   -0.2350    3.6451    0.4027 H   0  0  0  0  0  0  0  0  0  0  0  0
  1  2  1  0  0  0  0
  2  3  1  0  0  0  0
  2  4  1  0  0  0  0
  2  5  1  0  0  0  0
  5  6  2  0  0  0  0
  5  7  1  0  0  0  0
  7  8  1  0  0  0  0
  7  9  1  0  0  0  0
  9 10  1  0  0  0  0
  9 11  1  0  0  0  0
  9 25  1  0  0  0  0
 11 12  1  0  0  0  0
 11 13  1  0  0  0  0
 11 14  1  0  0  0  0
 14 15  1  0  0  0  0
 14 23  2  0  0  0  0
 15 16  1  0  0  0  0
 15 17  2  0  0  0  0
 17 18  1  0  0  0  0
 17 19  1  0  0  0  0
 19 20  1  0  0  0  0
 19 21  2  0  0  0  0
 21 22  1  0  0  0  0
 21 23  1  0  0  0  0
 23 24  1  0  0  0  0
 25 26  2  0  0  0  0
 25 27  1  0  0  0  0
 27 28  1  0  0  0  0
 27 29  1  0  0  0  0
 29 30  1  0  0  0  0
 29 31  1  0  0  0  0
 29 32  1  0  0  0  0
M  END
$$$$

  -OEChem-04042216033D

 32 32  0     1  0  0  0  0  0999 V2000
   -3.7198   -4.0060    1.6457 H   0  0  0  0  0  0  0  0  0  0  0  0
   -3.6674   -3.1472    0.9707 C   0  0  0  0  0  0  0  0  0  0  0  0
   -4.5063   -2.4798    1.1818 H   0  0  0  0  0  0  0  0  0  0  0  0
   -3.7434   -3.5046   -0.0591 H   0  0  0  0  0  0  0  0  0  0  0  0
   -2.3566   -2.4090    1.1641 C   0  0  0  0  0  0  0  0  0  0  0  0
   -1.5771   -2.7697    2.0338 O   0  0  0  0  0  0  0  0  0  0  0  0
   -2.0703   -1.3114    0.3777 N   0  0  0  0  0  0  0  0  0  0  0  0
   -2.7704   -1.0242   -0.3022 H   0  0  0  0  0  0  0  0  0  0  0  0
   -0.7829   -0.5980    0.3640 C   0  0  1  0  0  0  0  0  0  0  0  0
   -0.1985   -0.8751    1.2466 H   0  0  0  0  0  0  0  0  0  0  0  0
    0.0305   -0.9562   -0.8998 C   0  0  0  0  0  0  0  0  0  0  0  0
   -0.3916   -0.4174   -1.7550 H   0  0  0  0  0  0  0  0  0  0  0  0
    1.0592   -0.6037   -0.7743 H   0  0  0  0  0  0  0  0  0  0  0  0
    0.0553   -2.4362   -1.2197 C   0  0  0  0  0  0  0  0  0  0  0  0
    0.5826   -3.3611   -0.3053 C   0  0  0  0  0  0  0  0  0  0  0  0
    0.9745   -3.0227    0.6492 H   0  0  0  0  0  0  0  0  0  0  0  0
    0.5896   -4.7286   -0.5989 C   0  0  0  0  0  0  0  0  0  0  0  0
    0.9920   -5.4338    0.1222 H   0  0  0  0  0  0  0  0  0  0  0  0
    0.0729   -5.1864   -1.8141 C   0  0  0  0  0  0  0  0  0  0  0  0
    0.0768   -6.2486   -2.0409 H   0  0  0  0  0  0  0  0  0  0  0  0
   -0.4506   -4.2742   -2.7348 C   0  0  0  0  0  0  0  0  0  0  0  0
   -0.8515   -4.6278   -3.6800 H   0  0  0  0  0  0  0  0  0  0  0  0
   -0.4593   -2.9068   -2.4383 C   0  0  0  0  0  0  0  0  0  0  0  0
   -0.8711   -2.2101   -3.1622 H   0  0  0  0  0  0  0  0  0  0  0  0
   -0.9974    0.9269    0.3992 C   0  0  0  0  0  0  0  0  0  0  0  0
   -1.8353    1.4460   -0.3297 O   0  0  0  0  0  0  0  0  0  0  0  0
   -0.2422    1.7225    1.2413 N   0  0  0  0  0  0  0  0  0  0  0  0
    0.3932    1.2571    1.8833 H   0  0  0  0  0  0  0  0  0  0  0  0
   -0.4156    3.1663    1.3449 C   0  0  0  0  0  0  0  0  0  0  0  0
   -1.4329    3.4078    1.6705 H   0  0  0  0  0  0  0  0  0  0  0  0
    0.2883    3.5805    2.0729 H   0  0  0  0  0  0  0  0  0  0  0  0
   -0.2319    3.6448    0.3771 H   0  0  0  0  0  0  0  0  0  0  0  0
  1  2  1  0  0  0  0
  2  3  1  0  0  0  0
  2  4  1  0  0  0  0
  2  5  1  0  0  0  0
  5  6  2  0  0  0  0
  5  7  1  0  0  0  0
  7  8  1  0  0  0  0
  7  9  1  0  0  0  0
  9 10  1  0  0  0  0
  9 11  1  0  0  0  0
  9 25  1  0  0  0  0
 11 12  1  0  0  0  0
 11 13  1  0  0  0  0
 11 14  1  0  0  0  0
 14 15  1  0  0  0  0
 14 23  2  0  0  0  0
 15 16  1  0  0  0  0
 15 17  2  0  0  0  0
 17 18  1  0  0  0  0
 17 19  1  0  0  0  0
 19 20  1  0  0  0  0
 19 21  2  0  0  0  0
 21 22  1  0  0  0  0
 21 23  1  0  0  0  0
 23 24  1  0  0  0  0
 25 26  2  0  0  0  0
 25 27  1  0  0  0  0
 27 28  1  0  0  0  0
 27 29  1  0  0  0  0
 29 30  1  0  0  0  0
 29 31  1  0  0  0  0
 29 32  1  0  0  0  0
M  END
$$$$

  -OEChem-04042216033D

 32 32  0     1  0  0  0  0  0999 V2000
   -3.7956   -3.9590    1.7145 H   0  0  0  0  0  0  0  0  0  0  0  0
   -3.7108   -3.1290    1.0076 C   0  0  0  0  0  0  0  0  0  0  0  0
   -4.5583   -2.4546    1.1508 H   0  0  0  0  0  0  0  0  0  0  0  0
   -3.7387   -3.5292   -0.0089 H   0  0  0  0  0  0  0  0  0  0  0  0
   -2.4101   -2.3815    1.2318 C   0  0  0  0  0  0  0  0  0  0  0  0
   -1.6719   -2.7063    2.1501 O   0  0  0  0  0  0  0  0  0  0  0  0
   -2.0928   -1.3069    0.4263 N   0  0  0  0  0  0  0  0  0  0  0  0
   -2.7703   -1.0453   -0.2863 H   0  0  0  0  0  0  0  0  0  0  0  0
   -0.7970   -0.6061    0.4053 C   0  0  1  0  0  0  0  0  0  0  0  0
   -0.2182   -0.8718    1.2951 H   0  0  0  0  0  0  0  0  0  0  0  0
    0.0212   -0.9805   -0.8553 C   0  0  0  0  0  0  0  0  0  0  0  0
   -0.4006   -0.4396   -1.7095 H   0  0  0  0  0  0  0  0  0  0  0  0
    1.0473   -0.6233   -0.7244 H   0  0  0  0  0  0  0  0  0  0  0  0
    0.0719   -2.4547   -1.2088 C   0  0  0  0  0  0  0  0  0  0  0  0
    0.3088   -3.4385   -0.2353 C   0  0  0  0  0  0  0  0  0  0  0  0
    0.4856   -3.1564    0.7981 H   0  0  0  0  0  0  0  0  0  0  0  0
    0.3261   -4.7947   -0.5758 C   0  0  0  0  0  0  0  0  0  0  0  0
    0.5077   -5.5408    0.1923 H   0  0  0  0  0  0  0  0  0  0  0  0
    0.1094   -5.1859   -1.8993 C   0  0  0  0  0  0  0  0  0  0  0  0
    0.1231   -6.2390   -2.1641 H   0  0  0  0  0  0  0  0  0  0  0  0
   -0.1233   -4.2182   -2.8802 C   0  0  0  0  0  0  0  0  0  0  0  0
   -0.2913   -4.5191   -3.9100 H   0  0  0  0  0  0  0  0  0  0  0  0
   -0.1416   -2.8620   -2.5359 C   0  0  0  0  0  0  0  0  0  0  0  0
   -0.3274   -2.1242   -3.3106 H   0  0  0  0  0  0  0  0  0  0  0  0
   -1.0001    0.9213    0.4021 C   0  0  0  0  0  0  0  0  0  0  0  0
   -1.8274    1.4310   -0.3455 O   0  0  0  0  0  0  0  0  0  0  0  0
   -0.2443    1.7301    1.2312 N   0  0  0  0  0  0  0  0  0  0  0  0
    0.3822    1.2747    1.8890 H   0  0  0  0  0  0  0  0  0  0  0  0
   -0.4054    3.1776    1.2983 C   0  0  0  0  0  0  0  0  0  0  0  0
   -1.4156    3.4357    1.6331 H   0  0  0  0  0  0  0  0  0  0  0  0
    0.3131    3.6064    2.0035 H   0  0  0  0  0  0  0  0  0  0  0  0
   -0.2333    3.6281    0.3150 H   0  0  0  0  0  0  0  0  0  0  0  0
  1  2  1  0  0  0  0
  2  3  1  0  0  0  0
  2  4  1  0  0  0  0
  2  5  1  0  0  0  0
  5  6  2  0  0  0  0
  5  7  1  0  0  0  0
  7  8  1  0  0  0  0
  7  9  1  0  0  0  0
  9 10  1  0  0  0  0
  9 11  1  0  0  0  0
  9 25  1  0  0  0  0
 11 12  1  0  0  0  0
 11 13  1  0  0  0  0
 11 14  1  0  0  0  0
 14 15  1  0  0  0  0
 14 23  2  0  0  0  0
 15 16  1  0  0  0  0
 15 17  2  0  0  0  0
 17 18  1  0  0  0  0
 17 19  1  0  0  0  0
 19 20  1  0  0  0  0
 19 21  2  0  0  0  0
 21 22  1  0  0  0  0
 21 23  1  0  0  0  0
 23 24  1  0  0  0  0
 25 26  2  0  0  0  0
 25 27  1  0  0  0  0
 27 28  1  0  0  0  0
 27 29  1  0  0  0  0
 29 30  1  0  0  0  0
 29 31  1  0  0  0  0
 29 32  1  0  0  0  0
M  END
$$$$

  -OEChem-04042216033D

 32 32  0     1  0  0  0  0  0999 V2000
   -3.9168   -3.8734    1.8282 H   0  0  0  0  0  0  0  0  0  0  0  0
   -3.7910   -3.0781    1.0883 C   0  0  0  0  0  0  0  0  0  0  0  0
   -4.6334   -2.3866    1.1664 H   0  0  0  0  0  0  0  0  0  0  0  0
   -3.7847   -3.5238    0.0906 H   0  0  0  0  0  0  0  0  0  0  0  0
   -2.4888   -2.3387    1.3304 C   0  0  0  0  0  0  0  0  0  0  0  0
   -1.7966   -2.6235    2.2963 O   0  0  0  0  0  0  0  0  0  0  0  0
   -2.1284   -1.3022    0.4946 N   0  0  0  0  0  0  0  0  0  0  0  0
   -2.7828   -1.0664   -0.2483 H   0  0  0  0  0  0  0  0  0  0  0  0
   -0.8196   -0.6242    0.4571 C   0  0  1  0  0  0  0  0  0  0  0  0
   -0.2507   -0.8720    1.3586 H   0  0  0  0  0  0  0  0  0  0  0  0
    0.0132   -1.0235   -0.7920 C   0  0  0  0  0  0  0  0  0  0  0  0
   -0.4046   -0.4875   -1.6516 H   0  0  0  0  0  0  0  0  0  0  0  0
    1.0335   -0.6537   -0.6513 H   0  0  0  0  0  0  0  0  0  0  0  0
    0.1038   -2.4888   -1.1836 C   0  0  0  0  0  0  0  0  0  0  0  0
    0.0427   -3.5378   -0.2524 C   0  0  0  0  0  0  0  0  0  0  0  0
    0.0109   -3.3286    0.8100 H   0  0  0  0  0  0  0  0  0  0  0  0
    0.0776   -4.8732   -0.6666 C   0  0  0  0  0  0  0  0  0  0  0  0
    0.0368   -5.6683    0.0723 H   0  0  0  0  0  0  0  0  0  0  0  0
    0.1761   -5.1816   -2.0253 C   0  0  0  0  0  0  0  0  0  0  0  0
    0.2054   -6.2183   -2.3480 H   0  0  0  0  0  0  0  0  0  0  0  0
    0.2451   -4.1509   -2.9657 C   0  0  0  0  0  0  0  0  0  0  0  0
    0.3251   -4.3851   -4.0231 H   0  0  0  0  0  0  0  0  0  0  0  0
    0.2083   -2.8168   -2.5458 C   0  0  0  0  0  0  0  0  0  0  0  0
    0.2552   -2.0300   -3.2928 H   0  0  0  0  0  0  0  0  0  0  0  0
   -1.0065    0.9049    0.3946 C   0  0  0  0  0  0  0  0  0  0  0  0
   -1.8265    1.3975   -0.3723 O   0  0  0  0  0  0  0  0  0  0  0  0
   -0.2458    1.7328    1.1998 N   0  0  0  0  0  0  0  0  0  0  0  0
    0.3704    1.2920    1.8770 H   0  0  0  0  0  0  0  0  0  0  0  0
   -0.3947    3.1828    1.2225 C   0  0  0  0  0  0  0  0  0  0  0  0
   -1.4022    3.4593    1.5506 H   0  0  0  0  0  0  0  0  0  0  0  0
    0.3289    3.6262    1.9133 H   0  0  0  0  0  0  0  0  0  0  0  0
   -0.2209    3.6018    0.2257 H   0  0  0  0  0  0  0  0  0  0  0  0
  1  2  1  0  0  0  0
  2  3  1  0  0  0  0
  2  4  1  0  0  0  0
  2  5  1  0  0  0  0
  5  6  2  0  0  0  0
  5  7  1  0  0  0  0
  7  8  1  0  0  0  0
  7  9  1  0  0  0  0
  9 10  1  0  0  0  0
  9 11  1  0  0  0  0
  9 25  1  0  0  0  0
 11 12  1  0  0  0  0
 11 13  1  0  0  0  0
 11 14  1  0  0  0  0
 14 15  1  0  0  0  0
 14 23  2  0  0  0  0
 15 16  1  0  0  0  0
 15 17  2  0  0  0  0
 17 18  1  0  0  0  0
 17 19  1  0  0  0  0
 19 20  1  0  0  0  0
 19 21  2  0  0  0  0
 21 22  1  0  0  0  0
 21 23  1  0  0  0  0
 23 24  1  0  0  0  0
 25 26  2  0  0  0  0
 25 27  1  0  0  0  0
 27 28  1  0  0  0  0
 27 29  1  0  0  0  0
 29 30  1  0  0  0  0
 29 31  1  0  0  0  0
 29 32  1  0  0  0  0
M  END
$$$$

  -OEChem-04042216033D

 32 32  0     1  0  0  0  0  0999 V2000
   -4.0254   -3.7603    2.0428 H   0  0  0  0  0  0  0  0  0  0  0  0
   -3.8887   -2.9910    1.2777 C   0  0  0  0  0  0  0  0  0  0  0  0
   -4.6982   -2.2618    1.3613 H   0  0  0  0  0  0  0  0  0  0  0  0
   -3.9319   -3.4626    0.2928 H   0  0  0  0  0  0  0  0  0  0  0  0
   -2.5500   -2.3018    1.4613 C   0  0  0  0  0  0  0  0  0  0  0  0
   -1.8408   -2.5890    2.4139 O   0  0  0  0  0  0  0  0  0  0  0  0
   -2.1703   -1.3052    0.5870 N   0  0  0  0  0  0  0  0  0  0  0  0
   -2.8409   -1.0551   -0.1370 H   0  0  0  0  0  0  0  0  0  0  0  0
   -0.8475   -0.6578    0.5040 C   0  0  1  0  0  0  0  0  0  0  0  0
   -0.2726   -0.8855    1.4072 H   0  0  0  0  0  0  0  0  0  0  0  0
   -0.0148   -1.0794   -0.7429 C   0  0  0  0  0  0  0  0  0  0  0  0
   -0.4391   -0.5483   -1.6026 H   0  0  0  0  0  0  0  0  0  0  0  0
    1.0005   -0.6953   -0.6012 H   0  0  0  0  0  0  0  0  0  0  0  0
    0.1154   -2.5317   -1.1796 C   0  0  0  0  0  0  0  0  0  0  0  0
   -0.2090   -3.6440   -0.3869 C   0  0  0  0  0  0  0  0  0  0  0  0
   -0.4656   -3.5274    0.6545 H   0  0  0  0  0  0  0  0  0  0  0  0
   -0.1243   -4.9453   -0.8933 C   0  0  0  0  0  0  0  0  0  0  0  0
   -0.3651   -5.7902   -0.2545 H   0  0  0  0  0  0  0  0  0  0  0  0
    0.2856   -5.1591   -2.2105 C   0  0  0  0  0  0  0  0  0  0  0  0
    0.3536   -6.1692   -2.6037 H   0  0  0  0  0  0  0  0  0  0  0  0
    0.6173   -4.0680   -3.0154 C   0  0  0  0  0  0  0  0  0  0  0  0
    0.9394   -4.2272   -4.0402 H   0  0  0  0  0  0  0  0  0  0  0  0
    0.5313   -2.7695   -2.5018 C   0  0  0  0  0  0  0  0  0  0  0  0
    0.7833   -1.9336   -3.1480 H   0  0  0  0  0  0  0  0  0  0  0  0
   -1.0217    0.8709    0.3907 C   0  0  0  0  0  0  0  0  0  0  0  0
   -1.8576    1.3456   -0.3706 O   0  0  0  0  0  0  0  0  0  0  0  0
   -0.2389    1.7186    1.1532 N   0  0  0  0  0  0  0  0  0  0  0  0
    0.3904    1.2947    1.8293 H   0  0  0  0  0  0  0  0  0  0  0  0
   -0.3801    3.1696    1.1376 C   0  0  0  0  0  0  0  0  0  0  0  0
   -1.3812    3.4612    1.4721 H   0  0  0  0  0  0  0  0  0  0  0  0
    0.3554    3.6278    1.8058 H   0  0  0  0  0  0  0  0  0  0  0  0
   -0.2179    3.5599    0.1274 H   0  0  0  0  0  0  0  0  0  0  0  0
  1  2  1  0  0  0  0
  2  3  1  0  0  0  0
  2  4  1  0  0  0  0
  2  5  1  0  0  0  0
  5  6  2  0  0  0  0
  5  7  1  0  0  0  0
  7  8  1  0  0  0  0
  7  9  1  0  0  0  0
  9 10  1  0  0  0  0
  9 11  1  0  0  0  0
  9 25  1  0  0  0  0
 11 12  1  0  0  0  0
 11 13  1  0  0  0  0
 11 14  1  0  0  0  0
 14 15  1  0  0  0  0
 14 23  2  0  0  0  0
 15 16  1  0  0  0  0
 15 17  2  0  0  0  0
 17 18  1  0  0  0  0
 17 19  1  0  0  0  0
 19 20  1  0  0  0  0
 19 21  2  0  0  0  0
 21 22  1  0  0  0  0
 21 23  1  0  0  0  0
 23 24  1  0  0  0  0
 25 26  2  0  0  0  0
 25 27  1  0  0  0  0
 27 28  1  0  0  0  0
 27 29  1  0  0  0  0
 29 30  1  0  0  0  0
 29 31  1  0  0  0  0
 29 32  1  0  0  0  0
M  END
$$$$

  -OEChem-04042216033D

 32 32  0     1  0  0  0  0  0999 V2000
   -4.1807   -3.5894    2.2313 H   0  0  0  0  0  0  0  0  0  0  0  0
   -4.0362   -2.8309    1.4569 C   0  0  0  0  0  0  0  0  0  0  0  0
   -4.7684   -2.0331    1.6032 H   0  0  0  0  0  0  0  0  0  0  0  0
   -4.1992   -3.2906    0.4789 H   0  0  0  0  0  0  0  0  0  0  0  0
   -2.6309   -2.2651    1.5343 C   0  0  0  0  0  0  0  0  0  0  0  0
   -1.8676   -2.6420    2.4103 O   0  0  0  0  0  0  0  0  0  0  0  0
   -2.2344   -1.2974    0.6350 N   0  0  0  0  0  0  0  0  0  0  0  0
   -2.9374   -0.9637   -0.0220 H   0  0  0  0  0  0  0  0  0  0  0  0
   -0.8912   -0.7007    0.5177 C   0  0  1  0  0  0  0  0  0  0  0  0
   -0.3189   -0.9258    1.4231 H   0  0  0  0  0  0  0  0  0  0  0  0
   -0.0471   -1.1407   -0.7180 C   0  0  0  0  0  0  0  0  0  0  0  0
   -0.4578   -0.6059   -1.5821 H   0  0  0  0  0  0  0  0  0  0  0  0
    0.9654   -0.7559   -0.5578 H   0  0  0  0  0  0  0  0  0  0  0  0
    0.1022   -2.5811   -1.1940 C   0  0  0  0  0  0  0  0  0  0  0  0
   -0.4762   -3.7211   -0.6116 C   0  0  0  0  0  0  0  0  0  0  0  0
   -1.0267   -3.6701    0.3101 H   0  0  0  0  0  0  0  0  0  0  0  0
   -0.3058   -4.9908   -1.1744 C   0  0  0  0  0  0  0  0  0  0  0  0
   -0.7508   -5.8579   -0.6954 H   0  0  0  0  0  0  0  0  0  0  0  0
    0.4446   -5.1478   -2.3401 C   0  0  0  0  0  0  0  0  0  0  0  0
    0.5773   -6.1334   -2.7763 H   0  0  0  0  0  0  0  0  0  0  0  0
    1.0289   -4.0309   -2.9371 C   0  0  0  0  0  0  0  0  0  0  0  0
    1.6158   -4.1442   -3.8439 H   0  0  0  0  0  0  0  0  0  0  0  0
    0.8555   -2.7652   -2.3679 C   0  0  0  0  0  0  0  0  0  0  0  0
    1.3111   -1.9084   -2.8556 H   0  0  0  0  0  0  0  0  0  0  0  0
   -1.0332    0.8299    0.3828 C   0  0  0  0  0  0  0  0  0  0  0  0
   -1.8855    1.3106   -0.3565 O   0  0  0  0  0  0  0  0  0  0  0  0
   -0.2177    1.6727    1.1155 N   0  0  0  0  0  0  0  0  0  0  0  0
    0.4254    1.2467    1.7772 H   0  0  0  0  0  0  0  0  0  0  0  0
   -0.3269    3.1259    1.0760 C   0  0  0  0  0  0  0  0  0  0  0  0
   -1.3161    3.4458    1.4200 H   0  0  0  0  0  0  0  0  0  0  0  0
    0.4288    3.5796    1.7245 H   0  0  0  0  0  0  0  0  0  0  0  0
   -0.1721    3.4947    0.0565 H   0  0  0  0  0  0  0  0  0  0  0  0
  1  2  1  0  0  0  0
  2  3  1  0  0  0  0
  2  4  1  0  0  0  0
  2  5  1  0  0  0  0
  5  6  2  0  0  0  0
  5  7  1  0  0  0  0
  7  8  1  0  0  0  0
  7  9  1  0  0  0  0
  9 10  1  0  0  0  0
  9 11  1  0  0  0  0
  9 25  1  0  0  0  0
 11 12  1  0  0  0  0
 11 13  1  0  0  0  0
 11 14  1  0  0  0  0
 14 15  1  0  0  0  0
 14 23  2  0  0  0  0
 15 16  1  0  0  0  0
 15 17  2  0  0  0  0
 17 18  1  0  0  0  0
 17 19  1  0  0  0  0
 19 20  1  0  0  0  0
 19 21  2  0  0  0  0
 21 22  1  0  0  0  0
 21 23  1  0  0  0  0
 23 24  1  0  0  0  0
 25 26  2  0  0  0  0
 25 27  1  0  0  0  0
 27 28  1  0  0  0  0
 27 29  1  0  0  0  0
 29 30  1  0  0  0  0
 29 31  1  0  0  0  0
 29 32  1  0  0  0  0
M  END
$$$$

  -OEChem-04042216033D

 32 32  0     1  0  0  0  0  0999 V2000
   -4.3558   -3.5262    2.0401 H   0  0  0  0  0  0  0  0  0  0  0  0
   -4.2007   -2.6757    1.3704 C   0  0  0  0  0  0  0  0  0  0  0  0
   -4.8508   -1.8558    1.6850 H   0  0  0  0  0  0  0  0  0  0  0  0
   -4.4690   -2.9744    0.3541 H   0  0  0  0  0  0  0  0  0  0  0  0
   -2.7503   -2.2328    1.4150 C   0  0  0  0  0  0  0  0  0  0  0  0
   -1.9889   -2.7226    2.2337 O   0  0  0  0  0  0  0  0  0  0  0  0
   -2.3037   -1.2656    0.5372 N   0  0  0  0  0  0  0  0  0  0  0  0
   -2.9974   -0.8279   -0.0673 H   0  0  0  0  0  0  0  0  0  0  0  0
   -0.9368   -0.7198    0.4751 C   0  0  1  0  0  0  0  0  0  0  0  0
   -0.4172   -0.9680    1.4059 H   0  0  0  0  0  0  0  0  0  0  0  0
   -0.0280   -1.1668   -0.7115 C   0  0  0  0  0  0  0  0  0  0  0  0
   -0.3688   -0.6139   -1.5941 H   0  0  0  0  0  0  0  0  0  0  0  0
    0.9783   -0.8034   -0.4779 H   0  0  0  0  0  0  0  0  0  0  0  0
    0.1194   -2.6055   -1.1987 C   0  0  0  0  0  0  0  0  0  0  0  0
   -0.7174   -3.6919   -0.8885 C   0  0  0  0  0  0  0  0  0  0  0  0
   -1.5722   -3.5928   -0.2457 H   0  0  0  0  0  0  0  0  0  0  0  0
   -0.4756   -4.9683   -1.4087 C   0  0  0  0  0  0  0  0  0  0  0  0
   -1.1349   -5.7911   -1.1480 H   0  0  0  0  0  0  0  0  0  0  0  0
    0.6091   -5.1878   -2.2579 C   0  0  0  0  0  0  0  0  0  0  0  0
    0.7960   -6.1787   -2.6610 H   0  0  0  0  0  0  0  0  0  0  0  0
    1.4505   -4.1253   -2.5860 C   0  0  0  0  0  0  0  0  0  0  0  0
    2.2962   -4.2872   -3.2476 H   0  0  0  0  0  0  0  0  0  0  0  0
    1.2038   -2.8524   -2.0616 C   0  0  0  0  0  0  0  0  0  0  0  0
    1.8719   -2.0410   -2.3347 H   0  0  0  0  0  0  0  0  0  0  0  0
   -1.0304    0.8158    0.3600 C   0  0  0  0  0  0  0  0  0  0  0  0
   -1.8592    1.3299   -0.3836 O   0  0  0  0  0  0  0  0  0  0  0  0
   -0.2172    1.6253    1.1317 N   0  0  0  0  0  0  0  0  0  0  0  0
    0.4025    1.1719    1.7975 H   0  0  0  0  0  0  0  0  0  0  0  0
   -0.3023    3.0806    1.1259 C   0  0  0  0  0  0  0  0  0  0  0  0
   -1.2910    3.4080    1.4641 H   0  0  0  0  0  0  0  0  0  0  0  0
    0.4515    3.5064    1.7950 H   0  0  0  0  0  0  0  0  0  0  0  0
   -0.1274    3.4706    0.1177 H   0  0  0  0  0  0  0  0  0  0  0  0
  1  2  1  0  0  0  0
  2  3  1  0  0  0  0
  2  4  1  0  0  0  0
  2  5  1  0  0  0  0
  5  6  2  0  0  0  0
  5  7  1  0  0  0  0
  7  8  1  0  0  0  0
  7  9  1  0  0  0  0
  9 10  1  0  0  0  0
  9 11  1  0  0  0  0
  9 25  1  0  0  0  0
 11 12  1  0  0  0  0
 11 13  1  0  0  0  0
 11 14  1  0  0  0  0
 14 15  1  0  0  0  0
 14 23  2  0  0  0  0
 15 16  1  0  0  0  0
 15 17  2  0  0  0  0
 17 18  1  0  0  0  0
 17 19  1  0  0  0  0
 19 20  1  0  0  0  0
 19 21  2  0  0  0  0
 21 22  1  0  0  0  0
 21 23  1  0  0  0  0
 23 24  1  0  0  0  0
 25 26  2  0  0  0  0
 25 27  1  0  0  0  0
 27 28  1  0  0  0  0
 27 29  1  0  0  0  0
 29 30  1  0  0  0  0
 29 31  1  0  0  0  0
 29 32  1  0  0  0  0
M  END
$$$$

  -OEChem-04042216033D

 32 32  0     1  0  0  0  0  0999 V2000
   -4.2110   -3.6076    2.0672 H   0  0  0  0  0  0  0  0  0  0  0  0
   -4.1003   -2.7511    1.3961 C   0  0  0  0  0  0  0  0  0  0  0  0
   -4.7402   -1.9396    1.7509 H   0  0  0  0  0  0  0  0  0  0  0  0
   -4.4195   -3.0460    0.3936 H   0  0  0  0  0  0  0  0  0  0  0  0
   -2.6540   -2.2940    1.3670 C   0  0  0  0  0  0  0  0  0  0  0  0
   -1.8379   -2.8159    2.1092 O   0  0  0  0  0  0  0  0  0  0  0  0
   -2.2768   -1.2763    0.5126 N   0  0  0  0  0  0  0  0  0  0  0  0
   -3.0115   -0.8083   -0.0156 H   0  0  0  0  0  0  0  0  0  0  0  0
   -0.9241   -0.7040    0.4198 C   0  0  1  0  0  0  0  0  0  0  0  0
   -0.3686   -0.9791    1.3220 H   0  0  0  0  0  0  0  0  0  0  0  0
   -0.0478   -1.1075   -0.8032 C   0  0  0  0  0  0  0  0  0  0  0  0
   -0.4249   -0.5483   -1.6665 H   0  0  0  0  0  0  0  0  0  0  0  0
    0.9592   -0.7300   -0.5981 H   0  0  0  0  0  0  0  0  0  0  0  0
    0.0795   -2.5471   -1.2951 C   0  0  0  0  0  0  0  0  0  0  0  0
   -0.9077   -3.5443   -1.1934 C   0  0  0  0  0  0  0  0  0  0  0  0
   -1.8909   -3.3354   -0.8056 H   0  0  0  0  0  0  0  0  0  0  0  0
   -0.6721   -4.8487   -1.6417 C   0  0  0  0  0  0  0  0  0  0  0  0
   -1.4510   -5.5998   -1.5524 H   0  0  0  0  0  0  0  0  0  0  0  0
    0.5580   -5.1860   -2.2070 C   0  0  0  0  0  0  0  0  0  0  0  0
    0.7415   -6.1992   -2.5523 H   0  0  0  0  0  0  0  0  0  0  0  0
    1.5492   -4.2121   -2.3285 C   0  0  0  0  0  0  0  0  0  0  0  0
    2.5086   -4.4656   -2.7697 H   0  0  0  0  0  0  0  0  0  0  0  0
    1.3086   -2.9103   -1.8773 C   0  0  0  0  0  0  0  0  0  0  0  0
    2.1002   -2.1745   -1.9800 H   0  0  0  0  0  0  0  0  0  0  0  0
   -1.0370    0.8332    0.3806 C   0  0  0  0  0  0  0  0  0  0  0  0
   -1.9014    1.3700   -0.3039 O   0  0  0  0  0  0  0  0  0  0  0  0
   -0.2005    1.6163    1.1548 N   0  0  0  0  0  0  0  0  0  0  0  0
    0.4538    1.1409    1.7702 H   0  0  0  0  0  0  0  0  0  0  0  0
   -0.2993    3.0694    1.2186 C   0  0  0  0  0  0  0  0  0  0  0  0
   -1.2835    3.3703    1.5927 H   0  0  0  0  0  0  0  0  0  0  0  0
    0.4646    3.4713    1.8912 H   0  0  0  0  0  0  0  0  0  0  0  0
   -0.1505    3.5074    0.2260 H   0  0  0  0  0  0  0  0  0  0  0  0
  1  2  1  0  0  0  0
  2  3  1  0  0  0  0
  2  4  1  0  0  0  0
  2  5  1  0  0  0  0
  5  6  2  0  0  0  0
  5  7  1  0  0  0  0
  7  8  1  0  0  0  0
  7  9  1  0  0  0  0
  9 10  1  0  0  0  0
  9 11  1  0  0  0  0
  9 25  1  0  0  0  0
 11 12  1  0  0  0  0
 11 13  1  0  0  0  0
 11 14  1  0  0  0  0
 14 15  1  0  0  0  0
 14 23  2  0  0  0  0
 15 16  1  0  0  0  0
 15 17  2  0  0  0  0
 17 18  1  0  0  0  0
 17 19  1  0  0  0  0
 19 20  1  0  0  0  0
 19 21  2  0  0  0  0
 21 22  1  0  0  0  0
 21 23  1  0  0  0  0
 23 24  1  0  0  0  0
 25 26  2  0  0  0  0
 25 27  1  0  0  0  0
 27 28  1  0  0  0  0
 27 29  1  0  0  0  0
 29 30  1  0  0  0  0
 29 31  1  0  0  0  0
 29 32  1  0  0  0  0
M  END
$$$$

  -OEChem-04042216033D

 32 32  0     1  0  0  0  0  0999 V2000
   -4.0661   -3.7186    1.9755 H   0  0  0  0  0  0  0  0  0  0  0  0
   -3.9788   -2.8742    1.2860 C   0  0  0  0  0  0  0  0  0  0  0  0
   -4.6625   -2.0847    1.6071 H   0  0  0  0  0  0  0  0  0  0  0  0
   -4.2624   -3.2074    0.2849 H   0  0  0  0  0  0  0  0  0  0  0  0
   -2.5542   -2.3524    1.2759 C   0  0  0  0  0  0  0  0  0  0  0  0
   -1.7188   -2.8567    2.0090 O   0  0  0  0  0  0  0  0  0  0  0  0
   -2.2232   -1.2904    0.4571 N   0  0  0  0  0  0  0  0  0  0  0  0
   -2.9777   -0.8346   -0.0533 H   0  0  0  0  0  0  0  0  0  0  0  0
   -0.8911   -0.6720    0.3731 C   0  0  1  0  0  0  0  0  0  0  0  0
   -0.3196   -0.9607    1.2606 H   0  0  0  0  0  0  0  0  0  0  0  0
   -0.0279   -1.0400   -0.8666 C   0  0  0  0  0  0  0  0  0  0  0  0
   -0.4317   -0.4898   -1.7234 H   0  0  0  0  0  0  0  0  0  0  0  0
    0.9779   -0.6472   -0.6873 H   0  0  0  0  0  0  0  0  0  0  0  0
    0.0822   -2.4897   -1.3256 C   0  0  0  0  0  0  0  0  0  0  0  0
   -1.0087   -3.3705   -1.4428 C   0  0  0  0  0  0  0  0  0  0  0  0
   -2.0223   -3.0295   -1.2846 H   0  0  0  0  0  0  0  0  0  0  0  0
   -0.8250   -4.7048   -1.8211 C   0  0  0  0  0  0  0  0  0  0  0  0
   -1.6815   -5.3663   -1.9092 H   0  0  0  0  0  0  0  0  0  0  0  0
    0.4568   -5.1861   -2.0920 C   0  0  0  0  0  0  0  0  0  0  0  0
    0.5999   -6.2223   -2.3836 H   0  0  0  0  0  0  0  0  0  0  0  0
    1.5526   -4.3279   -1.9902 C   0  0  0  0  0  0  0  0  0  0  0  0
    2.5519   -4.6966   -2.2017 H   0  0  0  0  0  0  0  0  0  0  0  0
    1.3641   -2.9950   -1.6097 C   0  0  0  0  0  0  0  0  0  0  0  0
    2.2349   -2.3518   -1.5298 H   0  0  0  0  0  0  0  0  0  0  0  0
   -1.0363    0.8619    0.3922 C   0  0  0  0  0  0  0  0  0  0  0  0
   -1.9138    1.4034   -0.2712 O   0  0  0  0  0  0  0  0  0  0  0  0
   -0.2091    1.6351    1.1862 N   0  0  0  0  0  0  0  0  0  0  0  0
    0.4576    1.1522    1.7822 H   0  0  0  0  0  0  0  0  0  0  0  0
   -0.3315    3.0837    1.2942 C   0  0  0  0  0  0  0  0  0  0  0  0
   -1.3210    3.3580    1.6750 H   0  0  0  0  0  0  0  0  0  0  0  0
    0.4242    3.4776    1.9806 H   0  0  0  0  0  0  0  0  0  0  0  0
   -0.1877    3.5537    0.3156 H   0  0  0  0  0  0  0  0  0  0  0  0
  1  2  1  0  0  0  0
  2  3  1  0  0  0  0
  2  4  1  0  0  0  0
  2  5  1  0  0  0  0
  5  6  2  0  0  0  0
  5  7  1  0  0  0  0
  7  8  1  0  0  0  0
  7  9  1  0  0  0  0
  9 10  1  0  0  0  0
  9 11  1  0  0  0  0
  9 25  1  0  0  0  0
 11 12  1  0  0  0  0
 11 13  1  0  0  0  0
 11 14  1  0  0  0  0
 14 15  1  0  0  0  0
 14 23  2  0  0  0  0
 15 16  1  0  0  0  0
 15 17  2  0  0  0  0
 17 18  1  0  0  0  0
 17 19  1  0  0  0  0
 19 20  1  0  0  0  0
 19 21  2  0  0  0  0
 21 22  1  0  0  0  0
 21 23  1  0  0  0  0
 23 24  1  0  0  0  0
 25 26  2  0  0  0  0
 25 27  1  0  0  0  0
 27 28  1  0  0  0  0
 27 29  1  0  0  0  0
 29 30  1  0  0  0  0
 29 31  1  0  0  0  0
 29 32  1  0  0  0  0
M  END
$$$$

  -OEChem-04042216033D

 32 32  0     1  0  0  0  0  0999 V2000
   -3.9197   -3.8425    1.8467 H   0  0  0  0  0  0  0  0  0  0  0  0
   -3.8508   -2.9965    1.1573 C   0  0  0  0  0  0  0  0  0  0  0  0
   -4.5864   -2.2430    1.4491 H   0  0  0  0  0  0  0  0  0  0  0  0
   -4.0775   -3.3468    0.1476 H   0  0  0  0  0  0  0  0  0  0  0  0
   -2.4554   -2.4023    1.1971 C   0  0  0  0  0  0  0  0  0  0  0  0
   -1.6162   -2.8738    1.9483 O   0  0  0  0  0  0  0  0  0  0  0  0
   -2.1579   -1.3108    0.4052 N   0  0  0  0  0  0  0  0  0  0  0  0
   -2.9191   -0.8873   -0.1221 H   0  0  0  0  0  0  0  0  0  0  0  0
   -0.8480   -0.6443    0.3457 C   0  0  1  0  0  0  0  0  0  0  0  0
   -0.2673   -0.9351    1.2268 H   0  0  0  0  0  0  0  0  0  0  0  0
    0.0050   -0.9854   -0.9038 C   0  0  0  0  0  0  0  0  0  0  0  0
   -0.4159   -0.4455   -1.7588 H   0  0  0  0  0  0  0  0  0  0  0  0
    1.0126   -0.5882   -0.7459 H   0  0  0  0  0  0  0  0  0  0  0  0
    0.0962   -2.4450   -1.3176 C   0  0  0  0  0  0  0  0  0  0  0  0
   -1.0325   -3.2048   -1.6718 C   0  0  0  0  0  0  0  0  0  0  0  0
   -2.0117   -2.7417   -1.7158 H   0  0  0  0  0  0  0  0  0  0  0  0
   -0.9134   -4.5583   -2.0053 C   0  0  0  0  0  0  0  0  0  0  0  0
   -1.7946   -5.1296   -2.2805 H   0  0  0  0  0  0  0  0  0  0  0  0
    0.3395   -5.1752   -1.9871 C   0  0  0  0  0  0  0  0  0  0  0  0
    0.4335   -6.2264   -2.2426 H   0  0  0  0  0  0  0  0  0  0  0  0
    1.4714   -4.4352   -1.6378 C   0  0  0  0  0  0  0  0  0  0  0  0
    2.4470   -4.9118   -1.6190 H   0  0  0  0  0  0  0  0  0  0  0  0
    1.3484   -3.0821   -1.3044 C   0  0  0  0  0  0  0  0  0  0  0  0
    2.2397   -2.5291   -1.0252 H   0  0  0  0  0  0  0  0  0  0  0  0
   -1.0317    0.8837    0.3968 C   0  0  0  0  0  0  0  0  0  0  0  0
   -1.9096    1.4175   -0.2721 O   0  0  0  0  0  0  0  0  0  0  0  0
   -0.2303    1.6601    1.2136 N   0  0  0  0  0  0  0  0  0  0  0  0
    0.4441    1.1814    1.8042 H   0  0  0  0  0  0  0  0  0  0  0  0
   -0.3755    3.1053    1.3376 C   0  0  0  0  0  0  0  0  0  0  0  0
   -1.3726    3.3606    1.7117 H   0  0  0  0  0  0  0  0  0  0  0  0
    0.3679    3.5014    2.0363 H   0  0  0  0  0  0  0  0  0  0  0  0
   -0.2290    3.5890    0.3661 H   0  0  0  0  0  0  0  0  0  0  0  0
  1  2  1  0  0  0  0
  2  3  1  0  0  0  0
  2  4  1  0  0  0  0
  2  5  1  0  0  0  0
  5  6  2  0  0  0  0
  5  7  1  0  0  0  0
  7  8  1  0  0  0  0
  7  9  1  0  0  0  0
  9 10  1  0  0  0  0
  9 11  1  0  0  0  0
  9 25  1  0  0  0  0
 11 12  1  0  0  0  0
 11 13  1  0  0  0  0
 11 14  1  0  0  0  0
 14 15  1  0  0  0  0
 14 23  2  0  0  0  0
 15 16  1  0  0  0  0
 15 17  2  0  0  0  0
 17 18  1  0  0  0  0
 17 19  1  0  0  0  0
 19 20  1  0  0  0  0
 19 21  2  0  0  0  0
 21 22  1  0  0  0  0
 21 23  1  0  0  0  0
 23 24  1  0  0  0  0
 25 26  2  0  0  0  0
 25 27  1  0  0  0  0
 27 28  1  0  0  0  0
 27 29  1  0  0  0  0
 29 30  1  0  0  0  0
 29 31  1  0  0  0  0
 29 32  1  0  0  0  0
M  END
$$$$

  -OEChem-04042216033D

 32 32  0     1  0  0  0  0  0999 V2000
   -3.7757   -3.9540    1.7183 H   0  0  0  0  0  0  0  0  0  0  0  0
   -3.7254   -3.0969    1.0409 C   0  0  0  0  0  0  0  0  0  0  0  0
   -4.5088   -2.3857    1.3132 H   0  0  0  0  0  0  0  0  0  0  0  0
   -3.8960   -3.4456    0.0197 H   0  0  0  0  0  0  0  0  0  0  0  0
   -2.3651   -2.4325    1.1383 C   0  0  0  0  0  0  0  0  0  0  0  0
   -1.5338   -2.8637    1.9223 O   0  0  0  0  0  0  0  0  0  0  0  0
   -2.0911   -1.3240    0.3621 N   0  0  0  0  0  0  0  0  0  0  0  0
   -2.8453   -0.9453   -0.2064 H   0  0  0  0  0  0  0  0  0  0  0  0
   -0.7999   -0.6193    0.3281 C   0  0  1  0  0  0  0  0  0  0  0  0
   -0.2128   -0.9076    1.2056 H   0  0  0  0  0  0  0  0  0  0  0  0
    0.0394   -0.9484   -0.9290 C   0  0  0  0  0  0  0  0  0  0  0  0
   -0.3889   -0.4160   -1.7853 H   0  0  0  0  0  0  0  0  0  0  0  0
    1.0529   -0.5596   -0.7884 H   0  0  0  0  0  0  0  0  0  0  0  0
    0.1049   -2.4181   -1.2921 C   0  0  0  0  0  0  0  0  0  0  0  0
   -0.9872   -3.0702   -1.8889 C   0  0  0  0  0  0  0  0  0  0  0  0
   -1.8861   -2.5110   -2.1275 H   0  0  0  0  0  0  0  0  0  0  0  0
   -0.9277   -4.4345   -2.1912 C   0  0  0  0  0  0  0  0  0  0  0  0
   -1.7767   -4.9264   -2.6560 H   0  0  0  0  0  0  0  0  0  0  0  0
    0.2258   -5.1653   -1.8945 C   0  0  0  0  0  0  0  0  0  0  0  0
    0.2736   -6.2255   -2.1251 H   0  0  0  0  0  0  0  0  0  0  0  0
    1.3170   -4.5299   -1.2951 C   0  0  0  0  0  0  0  0  0  0  0  0
    2.2115   -5.0977   -1.0573 H   0  0  0  0  0  0  0  0  0  0  0  0
    1.2546   -3.1650   -0.9933 C   0  0  0  0  0  0  0  0  0  0  0  0
    2.1051   -2.6897   -0.5149 H   0  0  0  0  0  0  0  0  0  0  0  0
   -1.0160    0.9037    0.3926 C   0  0  0  0  0  0  0  0  0  0  0  0
   -1.8890    1.4265   -0.2911 O   0  0  0  0  0  0  0  0  0  0  0  0
   -0.2428    1.6888    1.2281 N   0  0  0  0  0  0  0  0  0  0  0  0
    0.4259    1.2176    1.8309 H   0  0  0  0  0  0  0  0  0  0  0  0
   -0.4222    3.1292    1.3642 C   0  0  0  0  0  0  0  0  0  0  0  0
   -1.4284    3.3576    1.7311 H   0  0  0  0  0  0  0  0  0  0  0  0
    0.3053    3.5353    2.0736 H   0  0  0  0  0  0  0  0  0  0  0  0
   -0.2771    3.6258    0.3989 H   0  0  0  0  0  0  0  0  0  0  0  0
  1  2  1  0  0  0  0
  2  3  1  0  0  0  0
  2  4  1  0  0  0  0
  2  5  1  0  0  0  0
  5  6  2  0  0  0  0
  5  7  1  0  0  0  0
  7  8  1  0  0  0  0
  7  9  1  0  0  0  0
  9 10  1  0  0  0  0
  9 11  1  0  0  0  0
  9 25  1  0  0  0  0
 11 12  1  0  0  0  0
 11 13  1  0  0  0  0
 11 14  1  0  0  0  0
 14 15  1  0  0  0  0
 14 23  2  0  0  0  0
 15 16  1  0  0  0  0
 15 17  2  0  0  0  0
 17 18  1  0  0  0  0
 17 19  1  0  0  0  0
 19 20  1  0  0  0  0
 19 21  2  0  0  0  0
 21 22  1  0  0  0  0
 21 23  1  0  0  0  0
 23 24  1  0  0  0  0
 25 26  2  0  0  0  0
 25 27  1  0  0  0  0
 27 28  1  0  0  0  0
 27 29  1  0  0  0  0
 29 30  1  0  0  0  0
 29 31  1  0  0  0  0
 29 32  1  0  0  0  0
M  END
$$$$

  -OEChem-04042216033D

 32 32  0     1  0  0  0  0  0999 V2000
   -3.6701   -4.0251    1.6297 H   0  0  0  0  0  0  0  0  0  0  0  0
   -3.6320   -3.1643    0.9564 C   0  0  0  0  0  0  0  0  0  0  0  0
   -4.4555   -2.4886    1.1997 H   0  0  0  0  0  0  0  0  0  0  0  0
   -3.7482   -3.5164   -0.0714 H   0  0  0  0  0  0  0  0  0  0  0  0
   -2.3065   -2.4423    1.1067 C   0  0  0  0  0  0  0  0  0  0  0  0
   -1.4884   -2.8371    1.9237 O   0  0  0  0  0  0  0  0  0  0  0  0
   -2.0477   -1.3256    0.3373 N   0  0  0  0  0  0  0  0  0  0  0  0
   -2.7856   -0.9933   -0.2792 H   0  0  0  0  0  0  0  0  0  0  0  0
   -0.7682   -0.5988    0.3188 C   0  0  1  0  0  0  0  0  0  0  0  0
   -0.1764   -0.8846    1.1940 H   0  0  0  0  0  0  0  0  0  0  0  0
    0.0563   -0.9283   -0.9448 C   0  0  0  0  0  0  0  0  0  0  0  0
   -0.3742   -0.3991   -1.8017 H   0  0  0  0  0  0  0  0  0  0  0  0
    1.0762   -0.5523   -0.8166 H   0  0  0  0  0  0  0  0  0  0  0  0
    0.0997   -2.4051   -1.2696 C   0  0  0  0  0  0  0  0  0  0  0  0
   -0.8710   -2.9831   -2.1037 C   0  0  0  0  0  0  0  0  0  0  0  0
   -1.6486   -2.3635   -2.5395 H   0  0  0  0  0  0  0  0  0  0  0  0
   -0.8462   -4.3539   -2.3813 C   0  0  0  0  0  0  0  0  0  0  0  0
   -1.5984   -4.7909   -3.0312 H   0  0  0  0  0  0  0  0  0  0  0  0
    0.1475   -5.1617   -1.8209 C   0  0  0  0  0  0  0  0  0  0  0  0
    0.1680   -6.2266   -2.0331 H   0  0  0  0  0  0  0  0  0  0  0  0
    1.1132   -4.5973   -0.9821 C   0  0  0  0  0  0  0  0  0  0  0  0
    1.8808   -5.2242   -0.5384 H   0  0  0  0  0  0  0  0  0  0  0  0
    1.0877   -3.2258   -0.7069 C   0  0  0  0  0  0  0  0  0  0  0  0
    1.8342   -2.8024   -0.0425 H   0  0  0  0  0  0  0  0  0  0  0  0
   -0.9994    0.9220    0.3883 C   0  0  0  0  0  0  0  0  0  0  0  0
   -1.8624    1.4422   -0.3099 O   0  0  0  0  0  0  0  0  0  0  0  0
   -0.2414    1.7105    1.2345 N   0  0  0  0  0  0  0  0  0  0  0  0
    0.4142    1.2411    1.8528 H   0  0  0  0  0  0  0  0  0  0  0  0
   -0.4433    3.1468    1.3816 C   0  0  0  0  0  0  0  0  0  0  0  0
   -1.4539    3.3567    1.7474 H   0  0  0  0  0  0  0  0  0  0  0  0
    0.2759    3.5586    2.0961 H   0  0  0  0  0  0  0  0  0  0  0  0
   -0.3037    3.6536    0.4209 H   0  0  0  0  0  0  0  0  0  0  0  0
  1  2  1  0  0  0  0
  2  3  1  0  0  0  0
  2  4  1  0  0  0  0
  2  5  1  0  0  0  0
  5  6  2  0  0  0  0
  5  7  1  0  0  0  0
  7  8  1  0  0  0  0
  7  9  1  0  0  0  0
  9 10  1  0  0  0  0
  9 11  1  0  0  0  0
  9 25  1  0  0  0  0
 11 12  1  0  0  0  0
 11 13  1  0  0  0  0
 11 14  1  0  0  0  0
 14 15  1  0  0  0  0
 14 23  2  0  0  0  0
 15 16  1  0  0  0  0
 15 17  2  0  0  0  0
 17 18  1  0  0  0  0
 17 19  1  0  0  0  0
 19 20  1  0  0  0  0
 19 21  2  0  0  0  0
 21 22  1  0  0  0  0
 21 23  1  0  0  0  0
 23 24  1  0  0  0  0
 25 26  2  0  0  0  0
 25 27  1  0  0  0  0
 27 28  1  0  0  0  0
 27 29  1  0  0  0  0
 29 30  1  0  0  0  0
 29 31  1  0  0  0  0
 29 32  1  0  0  0  0
M  END
$$$$

  -OEChem-04042216033D

 32 32  0     1  0  0  0  0  0999 V2000
   -3.6414   -4.0483    1.6010 H   0  0  0  0  0  0  0  0  0  0  0  0
   -3.5996   -3.1907    0.9237 C   0  0  0  0  0  0  0  0  0  0  0  0
   -4.4447   -2.5315    1.1364 H   0  0  0  0  0  0  0  0  0  0  0  0
   -3.6757   -3.5515   -0.1050 H   0  0  0  0  0  0  0  0  0  0  0  0
   -2.2950   -2.4391    1.1104 C   0  0  0  0  0  0  0  0  0  0  0  0
   -1.4953   -2.8087    1.9575 O   0  0  0  0  0  0  0  0  0  0  0  0
   -2.0344   -1.3245    0.3387 N   0  0  0  0  0  0  0  0  0  0  0  0
   -2.7496   -1.0308   -0.3224 H   0  0  0  0  0  0  0  0  0  0  0  0
   -0.7581   -0.5910    0.3287 C   0  0  1  0  0  0  0  0  0  0  0  0
   -0.1668   -0.8725    1.2056 H   0  0  0  0  0  0  0  0  0  0  0  0
    0.0601   -0.9258   -0.9362 C   0  0  0  0  0  0  0  0  0  0  0  0
   -0.3691   -0.3942   -1.7924 H   0  0  0  0  0  0  0  0  0  0  0  0
    1.0839   -0.5593   -0.8117 H   0  0  0  0  0  0  0  0  0  0  0  0
    0.0942   -2.4055   -1.2469 C   0  0  0  0  0  0  0  0  0  0  0  0
   -0.6739   -2.9311   -2.2978 C   0  0  0  0  0  0  0  0  0  0  0  0
   -1.2894   -2.2734   -2.9041 H   0  0  0  0  0  0  0  0  0  0  0  0
   -0.6569   -4.3026   -2.5737 C   0  0  0  0  0  0  0  0  0  0  0  0
   -1.2527   -4.6999   -3.3901 H   0  0  0  0  0  0  0  0  0  0  0  0
    0.1262   -5.1618   -1.7973 C   0  0  0  0  0  0  0  0  0  0  0  0
    0.1391   -6.2271   -2.0081 H   0  0  0  0  0  0  0  0  0  0  0  0
    0.8907   -4.6482   -0.7455 C   0  0  0  0  0  0  0  0  0  0  0  0
    1.4923   -5.3141   -0.1339 H   0  0  0  0  0  0  0  0  0  0  0  0
    0.8748   -3.2763   -0.4728 C   0  0  0  0  0  0  0  0  0  0  0  0
    1.4600   -2.8913    0.3566 H   0  0  0  0  0  0  0  0  0  0  0  0
   -0.9910    0.9300    0.3893 C   0  0  0  0  0  0  0  0  0  0  0  0
   -1.8419    1.4484   -0.3248 O   0  0  0  0  0  0  0  0  0  0  0  0
   -0.2409    1.7225    1.2391 N   0  0  0  0  0  0  0  0  0  0  0  0
    0.4011    1.2541    1.8723 H   0  0  0  0  0  0  0  0  0  0  0  0
   -0.4436    3.1597    1.3783 C   0  0  0  0  0  0  0  0  0  0  0  0
   -1.4552    3.3705    1.7410 H   0  0  0  0  0  0  0  0  0  0  0  0
    0.2739    3.5756    2.0922 H   0  0  0  0  0  0  0  0  0  0  0  0
   -0.3023    3.6621    0.4154 H   0  0  0  0  0  0  0  0  0  0  0  0
  1  2  1  0  0  0  0
  2  3  1  0  0  0  0
  2  4  1  0  0  0  0
  2  5  1  0  0  0  0
  5  6  2  0  0  0  0
  5  7  1  0  0  0  0
  7  8  1  0  0  0  0
  7  9  1  0  0  0  0
  9 10  1  0  0  0  0
  9 11  1  0  0  0  0
  9 25  1  0  0  0  0
 11 12  1  0  0  0  0
 11 13  1  0  0  0  0
 11 14  1  0  0  0  0
 14 15  1  0  0  0  0
 14 23  2  0  0  0  0
 15 16  1  0  0  0  0
 15 17  2  0  0  0  0
 17 18  1  0  0  0  0
 17 19  1  0  0  0  0
 19 20  1  0  0  0  0
 19 21  2  0  0  0  0
 21 22  1  0  0  0  0
 21 23  1  0  0  0  0
 23 24  1  0  0  0  0
 25 26  2  0  0  0  0
 25 27  1  0  0  0  0
 27 28  1  0  0  0  0
 27 29  1  0  0  0  0
 29 30  1  0  0  0  0
 29 31  1  0  0  0  0
 29 32  1  0  0  0  0
M  END
$$$$

  -OEChem-04042216033D

 32 32  0     1  0  0  0  0  0999 V2000
   -3.6868   -4.0188    1.6376 H   0  0  0  0  0  0  0  0  0  0  0  0
   -3.6313   -3.1737    0.9458 C   0  0  0  0  0  0  0  0  0  0  0  0
   -4.4806   -2.5109    1.1284 H   0  0  0  0  0  0  0  0  0  0  0  0
   -3.6856   -3.5528   -0.0778 H   0  0  0  0  0  0  0  0  0  0  0  0
   -2.3313   -2.4185    1.1471 C   0  0  0  0  0  0  0  0  0  0  0  0
   -1.5521   -2.7696    2.0211 O   0  0  0  0  0  0  0  0  0  0  0  0
   -2.0538   -1.3172    0.3627 N   0  0  0  0  0  0  0  0  0  0  0  0
   -2.7526   -1.0401   -0.3227 H   0  0  0  0  0  0  0  0  0  0  0  0
   -0.7718   -0.5933    0.3546 C   0  0  1  0  0  0  0  0  0  0  0  0
   -0.1893   -0.8673    1.2395 H   0  0  0  0  0  0  0  0  0  0  0  0
    0.0516   -0.9441   -0.9043 C   0  0  0  0  0  0  0  0  0  0  0  0
   -0.3711   -0.4098   -1.7622 H   0  0  0  0  0  0  0  0  0  0  0  0
    1.0767   -0.5830   -0.7748 H   0  0  0  0  0  0  0  0  0  0  0  0
    0.0895   -2.4237   -1.2219 C   0  0  0  0  0  0  0  0  0  0  0  0
   -0.4064   -2.8996   -2.4460 C   0  0  0  0  0  0  0  0  0  0  0  0
   -0.8260   -2.2088   -3.1711 H   0  0  0  0  0  0  0  0  0  0  0  0
   -0.3664   -4.2652   -2.7481 C   0  0  0  0  0  0  0  0  0  0  0  0
   -0.7525   -4.6221   -3.6982 H   0  0  0  0  0  0  0  0  0  0  0  0
    0.1709   -5.1698   -1.8278 C   0  0  0  0  0  0  0  0  0  0  0  0
    0.2007   -6.2304   -2.0595 H   0  0  0  0  0  0  0  0  0  0  0  0
    0.6700   -4.7063   -0.6074 C   0  0  0  0  0  0  0  0  0  0  0  0
    1.0823   -5.4052    0.1144 H   0  0  0  0  0  0  0  0  0  0  0  0
    0.6343   -3.3402   -0.3097 C   0  0  0  0  0  0  0  0  0  0  0  0
    1.0151   -2.9968    0.6476 H   0  0  0  0  0  0  0  0  0  0  0  0
   -0.9942    0.9302    0.3922 C   0  0  0  0  0  0  0  0  0  0  0  0
   -1.8319    1.4470   -0.3385 O   0  0  0  0  0  0  0  0  0  0  0  0
   -0.2451    1.7269    1.2387 N   0  0  0  0  0  0  0  0  0  0  0  0
    0.3868    1.2622    1.8846 H   0  0  0  0  0  0  0  0  0  0  0  0
   -0.4334    3.1678    1.3530 C   0  0  0  0  0  0  0  0  0  0  0  0
   -1.4457    3.3946    1.7033 H   0  0  0  0  0  0  0  0  0  0  0  0
    0.2823    3.5872    2.0664 H   0  0  0  0  0  0  0  0  0  0  0  0
   -0.2779    3.6528    0.3835 H   0  0  0  0  0  0  0  0  0  0  0  0
  1  2  1  0  0  0  0
  2  3  1  0  0  0  0
  2  4  1  0  0  0  0
  2  5  1  0  0  0  0
  5  6  2  0  0  0  0
  5  7  1  0  0  0  0
  7  8  1  0  0  0  0
  7  9  1  0  0  0  0
  9 10  1  0  0  0  0
  9 11  1  0  0  0  0
  9 25  1  0  0  0  0
 11 12  1  0  0  0  0
 11 13  1  0  0  0  0
 11 14  1  0  0  0  0
 14 15  1  0  0  0  0
 14 23  2  0  0  0  0
 15 16  1  0  0  0  0
 15 17  2  0  0  0  0
 17 18  1  0  0  0  0
 17 19  1  0  0  0  0
 19 20  1  0  0  0  0
 19 21  2  0  0  0  0
 21 22  1  0  0  0  0
 21 23  1  0  0  0  0
 23 24  1  0  0  0  0
 25 26  2  0  0  0  0
 25 27  1  0  0  0  0
 27 28  1  0  0  0  0
 27 29  1  0  0  0  0
 29 30  1  0  0  0  0
 29 31  1  0  0  0  0
 29 32  1  0  0  0  0
M  END
$$$$

  -OEChem-04042216033D

 32 32  0     1  0  0  0  0  0999 V2000
   -3.7919   -3.9671    1.6815 H   0  0  0  0  0  0  0  0  0  0  0  0
   -3.7153   -3.1241    0.9890 C   0  0  0  0  0  0  0  0  0  0  0  0
   -4.5577   -2.4492    1.1589 H   0  0  0  0  0  0  0  0  0  0  0  0
   -3.7617   -3.5047   -0.0343 H   0  0  0  0  0  0  0  0  0  0  0  0
   -2.4081   -2.3856    1.2061 C   0  0  0  0  0  0  0  0  0  0  0  0
   -1.6646   -2.7197    2.1168 O   0  0  0  0  0  0  0  0  0  0  0  0
   -2.0912   -1.3081    0.4041 N   0  0  0  0  0  0  0  0  0  0  0  0
   -2.7670   -1.0436   -0.3089 H   0  0  0  0  0  0  0  0  0  0  0  0
   -0.7968   -0.6053    0.3942 C   0  0  1  0  0  0  0  0  0  0  0  0
   -0.2252   -0.8711    1.2887 H   0  0  0  0  0  0  0  0  0  0  0  0
    0.0321   -0.9787   -0.8574 C   0  0  0  0  0  0  0  0  0  0  0  0
   -0.3829   -0.4419   -1.7175 H   0  0  0  0  0  0  0  0  0  0  0  0
    1.0578   -0.6223   -0.7204 H   0  0  0  0  0  0  0  0  0  0  0  0
    0.0768   -2.4552   -1.1953 C   0  0  0  0  0  0  0  0  0  0  0  0
   -0.1070   -2.8737   -2.5231 C   0  0  0  0  0  0  0  0  0  0  0  0
   -0.3192   -2.1455   -3.3004 H   0  0  0  0  0  0  0  0  0  0  0  0
   -0.0272   -4.2286   -2.8635 C   0  0  0  0  0  0  0  0  0  0  0  0
   -0.1819   -4.5396   -3.8926 H   0  0  0  0  0  0  0  0  0  0  0  0
    0.2556   -5.1809   -1.8804 C   0  0  0  0  0  0  0  0  0  0  0  0
    0.3163   -6.2333   -2.1419 H   0  0  0  0  0  0  0  0  0  0  0  0
    0.4697   -4.7743   -0.5608 C   0  0  0  0  0  0  0  0  0  0  0  0
    0.6983   -5.5080    0.2065 H   0  0  0  0  0  0  0  0  0  0  0  0
    0.3935   -3.4191   -0.2244 C   0  0  0  0  0  0  0  0  0  0  0  0
    0.5757   -3.1232    0.8046 H   0  0  0  0  0  0  0  0  0  0  0  0
   -0.9994    0.9218    0.3934 C   0  0  0  0  0  0  0  0  0  0  0  0
   -1.8227    1.4339   -0.3569 O   0  0  0  0  0  0  0  0  0  0  0  0
   -0.2488    1.7270    1.2302 N   0  0  0  0  0  0  0  0  0  0  0  0
    0.3758    1.2684    1.8875 H   0  0  0  0  0  0  0  0  0  0  0  0
   -0.4160    3.1730    1.3091 C   0  0  0  0  0  0  0  0  0  0  0  0
   -1.4316    3.4245    1.6325 H   0  0  0  0  0  0  0  0  0  0  0  0
    0.2916    3.5966    2.0283 H   0  0  0  0  0  0  0  0  0  0  0  0
   -0.2322    3.6341    0.3330 H   0  0  0  0  0  0  0  0  0  0  0  0
  1  2  1  0  0  0  0
  2  3  1  0  0  0  0
  2  4  1  0  0  0  0
  2  5  1  0  0  0  0
  5  6  2  0  0  0  0
  5  7  1  0  0  0  0
  7  8  1  0  0  0  0
  7  9  1  0  0  0  0
  9 10  1  0  0  0  0
  9 11  1  0  0  0  0
  9 25  1  0  0  0  0
 11 12  1  0  0  0  0
 11 13  1  0  0  0  0
 11 14  1  0  0  0  0
 14 15  1  0  0  0  0
 14 23  2  0  0  0  0
 15 16  1  0  0  0  0
 15 17  2  0  0  0  0
 17 18  1  0  0  0  0
 17 19  1  0  0  0  0
 19 20  1  0  0  0  0
 19 21  2  0  0  0  0
 21 22  1  0  0  0  0
 21 23  1  0  0  0  0
 23 24  1  0  0  0  0
 25 26  2  0  0  0  0
 25 27  1  0  0  0  0
 27 28  1  0  0  0  0
 27 29  1  0  0  0  0
 29 30  1  0  0  0  0
 29 31  1  0  0  0  0
 29 32  1  0  0  0  0
M  END
$$$$

  -OEChem-04042216033D

 32 32  0     1  0  0  0  0  0999 V2000
   -3.9321   -3.8773    1.7440 H   0  0  0  0  0  0  0  0  0  0  0  0
   -3.8155   -3.0594    1.0277 C   0  0  0  0  0  0  0  0  0  0  0  0
   -4.6524   -2.3666    1.1428 H   0  0  0  0  0  0  0  0  0  0  0  0
   -3.8287   -3.4731    0.0163 H   0  0  0  0  0  0  0  0  0  0  0  0
   -2.5057   -2.3342    1.2707 C   0  0  0  0  0  0  0  0  0  0  0  0
   -1.8062   -2.6437    2.2235 O   0  0  0  0  0  0  0  0  0  0  0  0
   -2.1440   -1.2859    0.4501 N   0  0  0  0  0  0  0  0  0  0  0  0
   -2.8003   -1.0297   -0.2843 H   0  0  0  0  0  0  0  0  0  0  0  0
   -0.8313   -0.6157    0.4275 C   0  0  1  0  0  0  0  0  0  0  0  0
   -0.2676   -0.8784    1.3279 H   0  0  0  0  0  0  0  0  0  0  0  0
   -0.0056   -1.0209   -0.8214 C   0  0  0  0  0  0  0  0  0  0  0  0
   -0.4154   -0.4826   -1.6833 H   0  0  0  0  0  0  0  0  0  0  0  0
    1.0225   -0.6716   -0.6840 H   0  0  0  0  0  0  0  0  0  0  0  0
    0.0423   -2.4932   -1.1857 C   0  0  0  0  0  0  0  0  0  0  0  0
    0.1814   -2.8590   -2.5349 C   0  0  0  0  0  0  0  0  0  0  0  0
    0.1695   -2.0971   -3.3086 H   0  0  0  0  0  0  0  0  0  0  0  0
    0.3201   -4.2005   -2.9076 C   0  0  0  0  0  0  0  0  0  0  0  0
    0.4032   -4.4661   -3.9573 H   0  0  0  0  0  0  0  0  0  0  0  0
    0.3613   -5.1967   -1.9291 C   0  0  0  0  0  0  0  0  0  0  0  0
    0.4701   -6.2390   -2.2150 H   0  0  0  0  0  0  0  0  0  0  0  0
    0.2872   -4.8438   -0.5796 C   0  0  0  0  0  0  0  0  0  0  0  0
    0.3498   -5.6086    0.1891 H   0  0  0  0  0  0  0  0  0  0  0  0
    0.1517   -3.5010   -0.2133 C   0  0  0  0  0  0  0  0  0  0  0  0
    0.1534   -3.2504    0.8417 H   0  0  0  0  0  0  0  0  0  0  0  0
   -1.0016    0.9155    0.3895 C   0  0  0  0  0  0  0  0  0  0  0  0
   -1.8173    1.4286   -0.3684 O   0  0  0  0  0  0  0  0  0  0  0  0
   -0.2347    1.7214    1.2106 N   0  0  0  0  0  0  0  0  0  0  0  0
    0.3731    1.2618    1.8828 H   0  0  0  0  0  0  0  0  0  0  0  0
   -0.3845    3.1699    1.2741 C   0  0  0  0  0  0  0  0  0  0  0  0
   -1.3975    3.4364    1.5933 H   0  0  0  0  0  0  0  0  0  0  0  0
    0.3267    3.5921    1.9907 H   0  0  0  0  0  0  0  0  0  0  0  0
   -0.1937    3.6189    0.2936 H   0  0  0  0  0  0  0  0  0  0  0  0
  1  2  1  0  0  0  0
  2  3  1  0  0  0  0
  2  4  1  0  0  0  0
  2  5  1  0  0  0  0
  5  6  2  0  0  0  0
  5  7  1  0  0  0  0
  7  8  1  0  0  0  0
  7  9  1  0  0  0  0
  9 10  1  0  0  0  0
  9 11  1  0  0  0  0
  9 25  1  0  0  0  0
 11 12  1  0  0  0  0
 11 13  1  0  0  0  0
 11 14  1  0  0  0  0
 14 15  1  0  0  0  0
 14 23  2  0  0  0  0
 15 16  1  0  0  0  0
 15 17  2  0  0  0  0
 17 18  1  0  0  0  0
 17 19  1  0  0  0  0
 19 20  1  0  0  0  0
 19 21  2  0  0  0  0
 21 22  1  0  0  0  0
 21 23  1  0  0  0  0
 23 24  1  0  0  0  0
 25 26  2  0  0  0  0
 25 27  1  0  0  0  0
 27 28  1  0  0  0  0
 27 29  1  0  0  0  0
 29 30  1  0  0  0  0
 29 31  1  0  0  0  0
 29 32  1  0  0  0  0
M  END
$$$$

  -OEChem-04042216033D

 32 32  0     1  0  0  0  0  0999 V2000
   -4.0559   -3.7732    1.9225 H   0  0  0  0  0  0  0  0  0  0  0  0
   -3.9112   -2.9903    1.1728 C   0  0  0  0  0  0  0  0  0  0  0  0
   -4.7239   -2.2649    1.2585 H   0  0  0  0  0  0  0  0  0  0  0  0
   -3.9401   -3.4450    0.1795 H   0  0  0  0  0  0  0  0  0  0  0  0
   -2.5768   -2.3012    1.3862 C   0  0  0  0  0  0  0  0  0  0  0  0
   -1.8848   -2.5979    2.3483 O   0  0  0  0  0  0  0  0  0  0  0  0
   -2.1891   -1.2859    0.5371 N   0  0  0  0  0  0  0  0  0  0  0  0
   -2.8496   -1.0262   -0.1924 H   0  0  0  0  0  0  0  0  0  0  0  0
   -0.8613   -0.6464    0.4745 C   0  0  1  0  0  0  0  0  0  0  0  0
   -0.2863   -0.9026    1.3698 H   0  0  0  0  0  0  0  0  0  0  0  0
   -0.0520   -1.0647   -0.7862 C   0  0  0  0  0  0  0  0  0  0  0  0
   -0.4714   -0.5208   -1.6401 H   0  0  0  0  0  0  0  0  0  0  0  0
    0.9755   -0.7102   -0.6549 H   0  0  0  0  0  0  0  0  0  0  0  0
    0.0173   -2.5234   -1.2058 C   0  0  0  0  0  0  0  0  0  0  0  0
    0.4687   -2.8112   -2.5056 C   0  0  0  0  0  0  0  0  0  0  0  0
    0.6531   -2.0008   -3.2047 H   0  0  0  0  0  0  0  0  0  0  0  0
    0.6615   -4.1290   -2.9338 C   0  0  0  0  0  0  0  0  0  0  0  0
    0.9774   -4.3285   -3.9534 H   0  0  0  0  0  0  0  0  0  0  0  0
    0.4584   -5.1870   -2.0460 C   0  0  0  0  0  0  0  0  0  0  0  0
    0.6096   -6.2118   -2.3724 H   0  0  0  0  0  0  0  0  0  0  0  0
    0.0942   -4.9176   -0.7256 C   0  0  0  0  0  0  0  0  0  0  0  0
   -0.0193   -5.7310   -0.0149 H   0  0  0  0  0  0  0  0  0  0  0  0
   -0.0949   -3.5968   -0.3063 C   0  0  0  0  0  0  0  0  0  0  0  0
   -0.2844   -3.4239    0.7435 H   0  0  0  0  0  0  0  0  0  0  0  0
   -1.0148    0.8861    0.3972 C   0  0  0  0  0  0  0  0  0  0  0  0
   -1.8393    1.3883   -0.3587 O   0  0  0  0  0  0  0  0  0  0  0  0
   -0.2251    1.7061    1.1823 N   0  0  0  0  0  0  0  0  0  0  0  0
    0.3910    1.2592    1.8556 H   0  0  0  0  0  0  0  0  0  0  0  0
   -0.3519    3.1584    1.2012 C   0  0  0  0  0  0  0  0  0  0  0  0
   -1.3511    3.4523    1.5395 H   0  0  0  0  0  0  0  0  0  0  0  0
    0.3859    3.5932    1.8823 H   0  0  0  0  0  0  0  0  0  0  0  0
   -0.1829    3.5710    0.2010 H   0  0  0  0  0  0  0  0  0  0  0  0
  1  2  1  0  0  0  0
  2  3  1  0  0  0  0
  2  4  1  0  0  0  0
  2  5  1  0  0  0  0
  5  6  2  0  0  0  0
  5  7  1  0  0  0  0
  7  8  1  0  0  0  0
  7  9  1  0  0  0  0
  9 10  1  0  0  0  0
  9 11  1  0  0  0  0
  9 25  1  0  0  0  0
 11 12  1  0  0  0  0
 11 13  1  0  0  0  0
 11 14  1  0  0  0  0
 14 15  1  0  0  0  0
 14 23  2  0  0  0  0
 15 16  1  0  0  0  0
 15 17  2  0  0  0  0
 17 18  1  0  0  0  0
 17 19  1  0  0  0  0
 19 20  1  0  0  0  0
 19 21  2  0  0  0  0
 21 22  1  0  0  0  0
 21 23  1  0  0  0  0
 23 24  1  0  0  0  0
 25 26  2  0  0  0  0
 25 27  1  0  0  0  0
 27 28  1  0  0  0  0
 27 29  1  0  0  0  0
 29 30  1  0  0  0  0
 29 31  1  0  0  0  0
 29 32  1  0  0  0  0
M  END
$$$$

  -OEChem-04042216033D

 32 32  0     1  0  0  0  0  0999 V2000
   -4.2024   -3.5025    2.4066 H   0  0  0  0  0  0  0  0  0  0  0  0
   -4.0984   -2.7251    1.6445 C   0  0  0  0  0  0  0  0  0  0  0  0
   -4.7488   -1.8867    1.9050 H   0  0  0  0  0  0  0  0  0  0  0  0
   -4.4104   -3.1327    0.6799 H   0  0  0  0  0  0  0  0  0  0  0  0
   -2.6576   -2.2573    1.5674 C   0  0  0  0  0  0  0  0  0  0  0  0
   -1.8201   -2.7357    2.3159 O   0  0  0  0  0  0  0  0  0  0  0  0
   -2.3038   -1.2810    0.6583 N   0  0  0  0  0  0  0  0  0  0  0  0
   -3.0515   -0.8671    0.1036 H   0  0  0  0  0  0  0  0  0  0  0  0
   -0.9560   -0.7153    0.4733 C   0  0  1  0  0  0  0  0  0  0  0  0
   -0.3603   -0.9554    1.3597 H   0  0  0  0  0  0  0  0  0  0  0  0
   -0.1340   -1.1630   -0.7795 C   0  0  0  0  0  0  0  0  0  0  0  0
   -0.3643   -0.4487   -1.5784 H   0  0  0  0  0  0  0  0  0  0  0  0
    0.9197   -1.0161   -0.5217 H   0  0  0  0  0  0  0  0  0  0  0  0
   -0.2339   -2.5219   -1.4671 C   0  0  0  0  0  0  0  0  0  0  0  0
    0.6032   -2.6995   -2.5847 C   0  0  0  0  0  0  0  0  0  0  0  0
    1.2276   -1.8787   -2.9254 H   0  0  0  0  0  0  0  0  0  0  0  0
    0.6452   -3.9073   -3.2883 C   0  0  0  0  0  0  0  0  0  0  0  0
    1.2891   -4.0086   -4.1570 H   0  0  0  0  0  0  0  0  0  0  0  0
   -0.1381   -4.9829   -2.8705 C   0  0  0  0  0  0  0  0  0  0  0  0
   -0.1083   -5.9245   -3.4108 H   0  0  0  0  0  0  0  0  0  0  0  0
   -0.9468   -4.8456   -1.7423 C   0  0  0  0  0  0  0  0  0  0  0  0
   -1.5401   -5.6864   -1.3954 H   0  0  0  0  0  0  0  0  0  0  0  0
   -0.9837   -3.6335   -1.0437 C   0  0  0  0  0  0  0  0  0  0  0  0
   -1.5911   -3.6125   -0.1582 H   0  0  0  0  0  0  0  0  0  0  0  0
   -1.0767    0.8202    0.3744 C   0  0  0  0  0  0  0  0  0  0  0  0
   -1.9736    1.3286   -0.2894 O   0  0  0  0  0  0  0  0  0  0  0  0
   -0.2041    1.6353    1.0723 N   0  0  0  0  0  0  0  0  0  0  0  0
    0.4835    1.1861    1.6709 H   0  0  0  0  0  0  0  0  0  0  0  0
   -0.2915    3.0906    1.0693 C   0  0  0  0  0  0  0  0  0  0  0  0
   -1.2503    3.4185    1.4846 H   0  0  0  0  0  0  0  0  0  0  0  0
    0.5127    3.5187    1.6755 H   0  0  0  0  0  0  0  0  0  0  0  0
   -0.1982    3.4782    0.0493 H   0  0  0  0  0  0  0  0  0  0  0  0
  1  2  1  0  0  0  0
  2  3  1  0  0  0  0
  2  4  1  0  0  0  0
  2  5  1  0  0  0  0
  5  6  2  0  0  0  0
  5  7  1  0  0  0  0
  7  8  1  0  0  0  0
  7  9  1  0  0  0  0
  9 10  1  0  0  0  0
  9 11  1  0  0  0  0
  9 25  1  0  0  0  0
 11 12  1  0  0  0  0
 11 13  1  0  0  0  0
 11 14  1  0  0  0  0
 14 15  1  0  0  0  0
 14 23  2  0  0  0  0
 15 16  1  0  0  0  0
 15 17  2  0  0  0  0
 17 18  1  0  0  0  0
 17 19  1  0  0  0  0
 19 20  1  0  0  0  0
 19 21  2  0  0  0  0
 21 22  1  0  0  0  0
 21 23  1  0  0  0  0
 23 24  1  0  0  0  0
 25 26  2  0  0  0  0
 25 27  1  0  0  0  0
 27 28  1  0  0  0  0
 27 29  1  0  0  0  0
 29 30  1  0  0  0  0
 29 31  1  0  0  0  0
 29 32  1  0  0  0  0
M  END
$$$$

  -OEChem-04042216033D

 32 32  0     1  0  0  0  0  0999 V2000
   -4.1999   -3.5168    2.3314 H   0  0  0  0  0  0  0  0  0  0  0  0
   -4.1081   -2.6891    1.6226 C   0  0  0  0  0  0  0  0  0  0  0  0
   -4.7153   -1.8524    1.9761 H   0  0  0  0  0  0  0  0  0  0  0  0
   -4.4821   -3.0163    0.6496 H   0  0  0  0  0  0  0  0  0  0  0  0
   -2.6574   -2.2609    1.5047 C   0  0  0  0  0  0  0  0  0  0  0  0
   -1.8105   -2.7831    2.2118 O   0  0  0  0  0  0  0  0  0  0  0  0
   -2.3098   -1.2681    0.6091 N   0  0  0  0  0  0  0  0  0  0  0  0
   -3.0629   -0.7988    0.1080 H   0  0  0  0  0  0  0  0  0  0  0  0
   -0.9589   -0.7097    0.4506 C   0  0  1  0  0  0  0  0  0  0  0  0
   -0.3888   -0.9553    1.3523 H   0  0  0  0  0  0  0  0  0  0  0  0
   -0.0979   -1.1764   -0.7651 C   0  0  0  0  0  0  0  0  0  0  0  0
   -0.3013   -0.4777   -1.5843 H   0  0  0  0  0  0  0  0  0  0  0  0
    0.9465   -1.0236   -0.4742 H   0  0  0  0  0  0  0  0  0  0  0  0
   -0.1927   -2.5538   -1.4207 C   0  0  0  0  0  0  0  0  0  0  0  0
    0.8758   -2.8982   -2.2701 C   0  0  0  0  0  0  0  0  0  0  0  0
    1.7126   -2.2168   -2.3891 H   0  0  0  0  0  0  0  0  0  0  0  0
    0.9012   -4.1098   -2.9678 C   0  0  0  0  0  0  0  0  0  0  0  0
    1.7465   -4.3533   -3.6046 H   0  0  0  0  0  0  0  0  0  0  0  0
   -0.1621   -5.0037   -2.8483 C   0  0  0  0  0  0  0  0  0  0  0  0
   -0.1468   -5.9471   -3.3861 H   0  0  0  0  0  0  0  0  0  0  0  0
   -1.2526   -4.6702   -2.0450 C   0  0  0  0  0  0  0  0  0  0  0  0
   -2.0929   -5.3529   -1.9640 H   0  0  0  0  0  0  0  0  0  0  0  0
   -1.2737   -3.4545   -1.3517 C   0  0  0  0  0  0  0  0  0  0  0  0
   -2.1658   -3.2477   -0.7867 H   0  0  0  0  0  0  0  0  0  0  0  0
   -1.0612    0.8272    0.3749 C   0  0  0  0  0  0  0  0  0  0  0  0
   -1.9502    1.3527   -0.2861 O   0  0  0  0  0  0  0  0  0  0  0  0
   -0.1903    1.6233    1.0959 N   0  0  0  0  0  0  0  0  0  0  0  0
    0.4855    1.1586    1.6960 H   0  0  0  0  0  0  0  0  0  0  0  0
   -0.2765    3.0784    1.1266 C   0  0  0  0  0  0  0  0  0  0  0  0
   -1.2447    3.3969    1.5270 H   0  0  0  0  0  0  0  0  0  0  0  0
    0.5131    3.4908    1.7621 H   0  0  0  0  0  0  0  0  0  0  0  0
   -0.1593    3.4903    0.1187 H   0  0  0  0  0  0  0  0  0  0  0  0
  1  2  1  0  0  0  0
  2  3  1  0  0  0  0
  2  4  1  0  0  0  0
  2  5  1  0  0  0  0
  5  6  2  0  0  0  0
  5  7  1  0  0  0  0
  7  8  1  0  0  0  0
  7  9  1  0  0  0  0
  9 10  1  0  0  0  0
  9 11  1  0  0  0  0
  9 25  1  0  0  0  0
 11 12  1  0  0  0  0
 11 13  1  0  0  0  0
 11 14  1  0  0  0  0
 14 15  1  0  0  0  0
 14 23  2  0  0  0  0
 15 16  1  0  0  0  0
 15 17  2  0  0  0  0
 17 18  1  0  0  0  0
 17 19  1  0  0  0  0
 19 20  1  0  0  0  0
 19 21  2  0  0  0  0
 21 22  1  0  0  0  0
 21 23  1  0  0  0  0
 23 24  1  0  0  0  0
 25 26  2  0  0  0  0
 25 27  1  0  0  0  0
 27 28  1  0  0  0  0
 27 29  1  0  0  0  0
 29 30  1  0  0  0  0
 29 31  1  0  0  0  0
 29 32  1  0  0  0  0
M  END
$$$$

  -OEChem-04042216033D

 32 32  0     1  0  0  0  0  0999 V2000
   -4.0575   -3.6233    2.2909 H   0  0  0  0  0  0  0  0  0  0  0  0
   -3.9926   -2.8193    1.5524 C   0  0  0  0  0  0  0  0  0  0  0  0
   -4.6549   -2.0059    1.8579 H   0  0  0  0  0  0  0  0  0  0  0  0
   -4.3212   -3.2037    0.5840 H   0  0  0  0  0  0  0  0  0  0  0  0
   -2.5648   -2.3158    1.4527 C   0  0  0  0  0  0  0  0  0  0  0  0
   -1.6977   -2.8087    2.1567 O   0  0  0  0  0  0  0  0  0  0  0  0
   -2.2638   -1.2843    0.5849 N   0  0  0  0  0  0  0  0  0  0  0  0
   -3.0374   -0.8318    0.1009 H   0  0  0  0  0  0  0  0  0  0  0  0
   -0.9340   -0.6796    0.4264 C   0  0  1  0  0  0  0  0  0  0  0  0
   -0.3479   -0.9318    1.3156 H   0  0  0  0  0  0  0  0  0  0  0  0
   -0.0854   -1.1250   -0.8016 C   0  0  0  0  0  0  0  0  0  0  0  0
   -0.3182   -0.4401   -1.6244 H   0  0  0  0  0  0  0  0  0  0  0  0
    0.9631   -0.9535   -0.5379 H   0  0  0  0  0  0  0  0  0  0  0  0
   -0.2114   -2.5213   -1.4067 C   0  0  0  0  0  0  0  0  0  0  0  0
    0.9405   -3.0620   -2.0085 C   0  0  0  0  0  0  0  0  0  0  0  0
    1.8846   -2.5292   -1.9489 H   0  0  0  0  0  0  0  0  0  0  0  0
    0.9128   -4.2932   -2.6715 C   0  0  0  0  0  0  0  0  0  0  0  0
    1.8236   -4.7006   -3.1002 H   0  0  0  0  0  0  0  0  0  0  0  0
   -0.2872   -4.9941   -2.7893 C   0  0  0  0  0  0  0  0  0  0  0  0
   -0.3132   -5.9499   -3.3043 H   0  0  0  0  0  0  0  0  0  0  0  0
   -1.4583   -4.4461   -2.2648 C   0  0  0  0  0  0  0  0  0  0  0  0
   -2.4016   -4.9698   -2.3866 H   0  0  0  0  0  0  0  0  0  0  0  0
   -1.4238   -3.2133   -1.6033 C   0  0  0  0  0  0  0  0  0  0  0  0
   -2.3717   -2.8050   -1.2847 H   0  0  0  0  0  0  0  0  0  0  0  0
   -1.0622    0.8557    0.3974 C   0  0  0  0  0  0  0  0  0  0  0  0
   -1.9652    1.3830   -0.2424 O   0  0  0  0  0  0  0  0  0  0  0  0
   -0.1954    1.6460    1.1300 N   0  0  0  0  0  0  0  0  0  0  0  0
    0.4999    1.1764    1.7035 H   0  0  0  0  0  0  0  0  0  0  0  0
   -0.2992    3.0986    1.1961 C   0  0  0  0  0  0  0  0  0  0  0  0
   -1.2679    3.3952    1.6118 H   0  0  0  0  0  0  0  0  0  0  0  0
    0.4904    3.5057    1.8350 H   0  0  0  0  0  0  0  0  0  0  0  0
   -0.1952    3.5356    0.1974 H   0  0  0  0  0  0  0  0  0  0  0  0
  1  2  1  0  0  0  0
  2  3  1  0  0  0  0
  2  4  1  0  0  0  0
  2  5  1  0  0  0  0
  5  6  2  0  0  0  0
  5  7  1  0  0  0  0
  7  8  1  0  0  0  0
  7  9  1  0  0  0  0
  9 10  1  0  0  0  0
  9 11  1  0  0  0  0
  9 25  1  0  0  0  0
 11 12  1  0  0  0  0
 11 13  1  0  0  0  0
 11 14  1  0  0  0  0
 14 15  1  0  0  0  0
 14 23  2  0  0  0  0
 15 16  1  0  0  0  0
 15 17  2  0  0  0  0
 17 18  1  0  0  0  0
 17 19  1  0  0  0  0
 19 20  1  0  0  0  0
 19 21  2  0  0  0  0
 21 22  1  0  0  0  0
 21 23  1  0  0  0  0
 23 24  1  0  0  0  0
 25 26  2  0  0  0  0
 25 27  1  0  0  0  0
 27 28  1  0  0  0  0
 27 29  1  0  0  0  0
 29 30  1  0  0  0  0
 29 31  1  0  0  0  0
 29 32  1  0  0  0  0
M  END
$$$$

  -OEChem-04042216033D

 32 32  0     1  0  0  0  0  0999 V2000
   -3.9484   -3.7541    2.1258 H   0  0  0  0  0  0  0  0  0  0  0  0
   -3.8944   -2.9354    1.4028 C   0  0  0  0  0  0  0  0  0  0  0  0
   -4.6136   -2.1642    1.6891 H   0  0  0  0  0  0  0  0  0  0  0  0
   -4.1562   -3.3211    0.4145 H   0  0  0  0  0  0  0  0  0  0  0  0
   -2.4932   -2.3545    1.3747 C   0  0  0  0  0  0  0  0  0  0  0  0
   -1.6298   -2.8161    2.1044 O   0  0  0  0  0  0  0  0  0  0  0  0
   -2.2115   -1.2954    0.5350 N   0  0  0  0  0  0  0  0  0  0  0  0
   -2.9873   -0.8737    0.0284 H   0  0  0  0  0  0  0  0  0  0  0  0
   -0.8964   -0.6514    0.4045 C   0  0  1  0  0  0  0  0  0  0  0  0
   -0.3052   -0.9114    1.2883 H   0  0  0  0  0  0  0  0  0  0  0  0
   -0.0565   -1.0736   -0.8340 C   0  0  0  0  0  0  0  0  0  0  0  0
   -0.3030   -0.3941   -1.6572 H   0  0  0  0  0  0  0  0  0  0  0  0
    0.9973   -0.9044   -0.5921 H   0  0  0  0  0  0  0  0  0  0  0  0
   -0.2261   -2.4787   -1.3954 C   0  0  0  0  0  0  0  0  0  0  0  0
    0.9254   -3.2144   -1.7256 C   0  0  0  0  0  0  0  0  0  0  0  0
    1.9090   -2.8228   -1.4857 H   0  0  0  0  0  0  0  0  0  0  0  0
    0.8350   -4.4670   -2.3417 C   0  0  0  0  0  0  0  0  0  0  0  0
    1.7371   -5.0310   -2.5591 H   0  0  0  0  0  0  0  0  0  0  0  0
   -0.4138   -4.9883   -2.6840 C   0  0  0  0  0  0  0  0  0  0  0  0
   -0.4869   -5.9600   -3.1631 H   0  0  0  0  0  0  0  0  0  0  0  0
   -1.5665   -4.2428   -2.4308 C   0  0  0  0  0  0  0  0  0  0  0  0
   -2.5369   -4.6281   -2.7289 H   0  0  0  0  0  0  0  0  0  0  0  0
   -1.4695   -2.9906   -1.8141 C   0  0  0  0  0  0  0  0  0  0  0  0
   -2.3764   -2.4106   -1.6915 H   0  0  0  0  0  0  0  0  0  0  0  0
   -1.0534    0.8809    0.4077 C   0  0  0  0  0  0  0  0  0  0  0  0
   -1.9538    1.4039   -0.2393 O   0  0  0  0  0  0  0  0  0  0  0  0
   -0.2107    1.6728    1.1662 N   0  0  0  0  0  0  0  0  0  0  0  0
    0.4849    1.2056    1.7411 H   0  0  0  0  0  0  0  0  0  0  0  0
   -0.3390    3.1224    1.2540 C   0  0  0  0  0  0  0  0  0  0  0  0
   -1.3217    3.3970    1.6519 H   0  0  0  0  0  0  0  0  0  0  0  0
    0.4291    3.5309    1.9178 H   0  0  0  0  0  0  0  0  0  0  0  0
   -0.2188    3.5784    0.2656 H   0  0  0  0  0  0  0  0  0  0  0  0
  1  2  1  0  0  0  0
  2  3  1  0  0  0  0
  2  4  1  0  0  0  0
  2  5  1  0  0  0  0
  5  6  2  0  0  0  0
  5  7  1  0  0  0  0
  7  8  1  0  0  0  0
  7  9  1  0  0  0  0
  9 10  1  0  0  0  0
  9 11  1  0  0  0  0
  9 25  1  0  0  0  0
 11 12  1  0  0  0  0
 11 13  1  0  0  0  0
 11 14  1  0  0  0  0
 14 15  1  0  0  0  0
 14 23  2  0  0  0  0
 15 16  1  0  0  0  0
 15 17  2  0  0  0  0
 17 18  1  0  0  0  0
 17 19  1  0  0  0  0
 19 20  1  0  0  0  0
 19 21  2  0  0  0  0
 21 22  1  0  0  0  0
 21 23  1  0  0  0  0
 23 24  1  0  0  0  0
 25 26  2  0  0  0  0
 25 27  1  0  0  0  0
 27 28  1  0  0  0  0
 27 29  1  0  0  0  0
 29 30  1  0  0  0  0
 29 31  1  0  0  0  0
 29 32  1  0  0  0  0
M  END
$$$$

  -OEChem-04042216033D

 32 32  0     1  0  0  0  0  0999 V2000
   -3.8659   -3.8534    1.9605 H   0  0  0  0  0  0  0  0  0  0  0  0
   -3.8166   -3.0197    1.2545 C   0  0  0  0  0  0  0  0  0  0  0  0
   -4.5773   -2.2834    1.5247 H   0  0  0  0  0  0  0  0  0  0  0  0
   -4.0228   -3.3970    0.2500 H   0  0  0  0  0  0  0  0  0  0  0  0
   -2.4402   -2.3829    1.2917 C   0  0  0  0  0  0  0  0  0  0  0  0
   -1.5883   -2.8199    2.0501 O   0  0  0  0  0  0  0  0  0  0  0  0
   -2.1680   -1.3021    0.4773 N   0  0  0  0  0  0  0  0  0  0  0  0
   -2.9351   -0.9160   -0.0685 H   0  0  0  0  0  0  0  0  0  0  0  0
   -0.8637   -0.6285    0.3788 C   0  0  1  0  0  0  0  0  0  0  0  0
   -0.2718   -0.8986    1.2590 H   0  0  0  0  0  0  0  0  0  0  0  0
   -0.0314   -1.0272   -0.8689 C   0  0  0  0  0  0  0  0  0  0  0  0
   -0.2844   -0.3446   -1.6873 H   0  0  0  0  0  0  0  0  0  0  0  0
    1.0271   -0.8674   -0.6419 H   0  0  0  0  0  0  0  0  0  0  0  0
   -0.2369   -2.4336   -1.4029 C   0  0  0  0  0  0  0  0  0  0  0  0
    0.8476   -3.3242   -1.4558 C   0  0  0  0  0  0  0  0  0  0  0  0
    1.8091   -3.0378   -1.0411 H   0  0  0  0  0  0  0  0  0  0  0  0
    0.7049   -4.5963   -2.0206 C   0  0  0  0  0  0  0  0  0  0  0  0
    1.5474   -5.2813   -2.0321 H   0  0  0  0  0  0  0  0  0  0  0  0
   -0.5186   -4.9834   -2.5732 C   0  0  0  0  0  0  0  0  0  0  0  0
   -0.6294   -5.9704   -3.0123 H   0  0  0  0  0  0  0  0  0  0  0  0
   -1.5932   -4.0906   -2.5743 C   0  0  0  0  0  0  0  0  0  0  0  0
   -2.5380   -4.3796   -3.0250 H   0  0  0  0  0  0  0  0  0  0  0  0
   -1.4462   -2.8197   -2.0084 C   0  0  0  0  0  0  0  0  0  0  0  0
   -2.2774   -2.1234   -2.0508 H   0  0  0  0  0  0  0  0  0  0  0  0
   -1.0415    0.9008    0.4083 C   0  0  0  0  0  0  0  0  0  0  0  0
   -1.9312    1.4245   -0.2526 O   0  0  0  0  0  0  0  0  0  0  0  0
   -0.2213    1.6902    1.1937 N   0  0  0  0  0  0  0  0  0  0  0  0
    0.4666    1.2216    1.7767 H   0  0  0  0  0  0  0  0  0  0  0  0
   -0.3697    3.1365    1.3017 C   0  0  0  0  0  0  0  0  0  0  0  0
   -1.3615    3.3921    1.6894 H   0  0  0  0  0  0  0  0  0  0  0  0
    0.3835    3.5446    1.9825 H   0  0  0  0  0  0  0  0  0  0  0  0
   -0.2418    3.6093    0.3223 H   0  0  0  0  0  0  0  0  0  0  0  0
  1  2  1  0  0  0  0
  2  3  1  0  0  0  0
  2  4  1  0  0  0  0
  2  5  1  0  0  0  0
  5  6  2  0  0  0  0
  5  7  1  0  0  0  0
  7  8  1  0  0  0  0
  7  9  1  0  0  0  0
  9 10  1  0  0  0  0
  9 11  1  0  0  0  0
  9 25  1  0  0  0  0
 11 12  1  0  0  0  0
 11 13  1  0  0  0  0
 11 14  1  0  0  0  0
 14 15  1  0  0  0  0
 14 23  2  0  0  0  0
 15 16  1  0  0  0  0
 15 17  2  0  0  0  0
 17 18  1  0  0  0  0
 17 19  1  0  0  0  0
 19 20  1  0  0  0  0
 19 21  2  0  0  0  0
 21 22  1  0  0  0  0
 21 23  1  0  0  0  0
 23 24  1  0  0  0  0
 25 26  2  0  0  0  0
 25 27  1  0  0  0  0
 27 28  1  0  0  0  0
 27 29  1  0  0  0  0
 29 30  1  0  0  0  0
 29 31  1  0  0  0  0
 29 32  1  0  0  0  0
M  END
$$$$

  -OEChem-04042216033D

 32 32  0     1  0  0  0  0  0999 V2000
   -3.7885   -3.9417    1.8060 H   0  0  0  0  0  0  0  0  0  0  0  0
   -3.7458   -3.0915    1.1194 C   0  0  0  0  0  0  0  0  0  0  0  0
   -4.5433   -2.3900    1.3756 H   0  0  0  0  0  0  0  0  0  0  0  0
   -3.9006   -3.4541    0.1003 H   0  0  0  0  0  0  0  0  0  0  0  0
   -2.3972   -2.4046    1.2202 C   0  0  0  0  0  0  0  0  0  0  0  0
   -1.5603   -2.8185    2.0081 O   0  0  0  0  0  0  0  0  0  0  0  0
   -2.1316   -1.3075    0.4260 N   0  0  0  0  0  0  0  0  0  0  0  0
   -2.8811   -0.9615   -0.1682 H   0  0  0  0  0  0  0  0  0  0  0  0
   -0.8363   -0.6119    0.3582 C   0  0  1  0  0  0  0  0  0  0  0  0
   -0.2447   -0.8908    1.2358 H   0  0  0  0  0  0  0  0  0  0  0  0
   -0.0083   -0.9875   -0.8963 C   0  0  0  0  0  0  0  0  0  0  0  0
   -0.2591   -0.2963   -1.7084 H   0  0  0  0  0  0  0  0  0  0  0  0
    1.0538   -0.8427   -0.6755 H   0  0  0  0  0  0  0  0  0  0  0  0
   -0.2402   -2.3918   -1.4142 C   0  0  0  0  0  0  0  0  0  0  0  0
    0.7155   -3.3955   -1.1983 C   0  0  0  0  0  0  0  0  0  0  0  0
    1.6061   -3.1843   -0.6142 H   0  0  0  0  0  0  0  0  0  0  0  0
    0.5240   -4.6827   -1.7126 C   0  0  0  0  0  0  0  0  0  0  0  0
    1.2626   -5.4562   -1.5245 H   0  0  0  0  0  0  0  0  0  0  0  0
   -0.6163   -4.9734   -2.4673 C   0  0  0  0  0  0  0  0  0  0  0  0
   -0.7639   -5.9725   -2.8661 H   0  0  0  0  0  0  0  0  0  0  0  0
   -1.5608   -3.9733   -2.7144 C   0  0  0  0  0  0  0  0  0  0  0  0
   -2.4407   -4.1924   -3.3118 H   0  0  0  0  0  0  0  0  0  0  0  0
   -1.3677   -2.6880   -2.1979 C   0  0  0  0  0  0  0  0  0  0  0  0
   -2.0975   -1.9119   -2.4072 H   0  0  0  0  0  0  0  0  0  0  0  0
   -1.0323    0.9144    0.4073 C   0  0  0  0  0  0  0  0  0  0  0  0
   -1.9037    1.4407   -0.2758 O   0  0  0  0  0  0  0  0  0  0  0  0
   -0.2333    1.7000    1.2174 N   0  0  0  0  0  0  0  0  0  0  0  0
    0.4349    1.2274    1.8197 H   0  0  0  0  0  0  0  0  0  0  0  0
   -0.3848    3.1454    1.3290 C   0  0  0  0  0  0  0  0  0  0  0  0
   -1.3844    3.3988    1.6974 H   0  0  0  0  0  0  0  0  0  0  0  0
    0.3544    3.5501    2.0269 H   0  0  0  0  0  0  0  0  0  0  0  0
   -0.2368    3.6222    0.3543 H   0  0  0  0  0  0  0  0  0  0  0  0
  1  2  1  0  0  0  0
  2  3  1  0  0  0  0
  2  4  1  0  0  0  0
  2  5  1  0  0  0  0
  5  6  2  0  0  0  0
  5  7  1  0  0  0  0
  7  8  1  0  0  0  0
  7  9  1  0  0  0  0
  9 10  1  0  0  0  0
  9 11  1  0  0  0  0
  9 25  1  0  0  0  0
 11 12  1  0  0  0  0
 11 13  1  0  0  0  0
 11 14  1  0  0  0  0
 14 15  1  0  0  0  0
 14 23  2  0  0  0  0
 15 16  1  0  0  0  0
 15 17  2  0  0  0  0
 17 18  1  0  0  0  0
 17 19  1  0  0  0  0
 19 20  1  0  0  0  0
 19 21  2  0  0  0  0
 21 22  1  0  0  0  0
 21 23  1  0  0  0  0
 23 24  1  0  0  0  0
 25 26  2  0  0  0  0
 25 27  1  0  0  0  0
 27 28  1  0  0  0  0
 27 29  1  0  0  0  0
 29 30  1  0  0  0  0
 29 31  1  0  0  0  0
 29 32  1  0  0  0  0
M  END
$$$$

  -OEChem-04042216033D

 32 32  0     1  0  0  0  0  0999 V2000
   -3.7333   -3.9942    1.6881 H   0  0  0  0  0  0  0  0  0  0  0  0
   -3.6947   -3.1321    1.0166 C   0  0  0  0  0  0  0  0  0  0  0  0
   -4.5142   -2.4535    1.2642 H   0  0  0  0  0  0  0  0  0  0  0  0
   -3.8161   -3.4811   -0.0118 H   0  0  0  0  0  0  0  0  0  0  0  0
   -2.3665   -2.4151    1.1618 C   0  0  0  0  0  0  0  0  0  0  0  0
   -1.5408   -2.8175    1.9679 O   0  0  0  0  0  0  0  0  0  0  0  0
   -2.1044   -1.3065    0.3830 N   0  0  0  0  0  0  0  0  0  0  0  0
   -2.8359   -0.9902   -0.2488 H   0  0  0  0  0  0  0  0  0  0  0  0
   -0.8146   -0.5982    0.3377 C   0  0  1  0  0  0  0  0  0  0  0  0
   -0.2243   -0.8848    1.2135 H   0  0  0  0  0  0  0  0  0  0  0  0
    0.0095   -0.9618   -0.9212 C   0  0  0  0  0  0  0  0  0  0  0  0
   -0.2378   -0.2629   -1.7279 H   0  0  0  0  0  0  0  0  0  0  0  0
    1.0740   -0.8306   -0.7034 H   0  0  0  0  0  0  0  0  0  0  0  0
   -0.2390   -2.3649   -1.4304 C   0  0  0  0  0  0  0  0  0  0  0  0
    0.5353   -3.4371   -0.9645 C   0  0  0  0  0  0  0  0  0  0  0  0
    1.3067   -3.2678   -0.2192 H   0  0  0  0  0  0  0  0  0  0  0  0
    0.3070   -4.7345   -1.4356 C   0  0  0  0  0  0  0  0  0  0  0  0
    0.9044   -5.5593   -1.0590 H   0  0  0  0  0  0  0  0  0  0  0  0
   -0.6917   -4.9691   -2.3857 C   0  0  0  0  0  0  0  0  0  0  0  0
   -0.8685   -5.9767   -2.7504 H   0  0  0  0  0  0  0  0  0  0  0  0
   -1.4610   -3.9048   -2.8656 C   0  0  0  0  0  0  0  0  0  0  0  0
   -2.2340   -4.0835   -3.6070 H   0  0  0  0  0  0  0  0  0  0  0  0
   -1.2330   -2.6085   -2.3919 C   0  0  0  0  0  0  0  0  0  0  0  0
   -1.8325   -1.7860   -2.7710 H   0  0  0  0  0  0  0  0  0  0  0  0
   -1.0186    0.9263    0.4024 C   0  0  0  0  0  0  0  0  0  0  0  0
   -1.8789    1.4589   -0.2897 O   0  0  0  0  0  0  0  0  0  0  0  0
   -0.2320    1.7056    1.2306 N   0  0  0  0  0  0  0  0  0  0  0  0
    0.4281    1.2285    1.8385 H   0  0  0  0  0  0  0  0  0  0  0  0
   -0.3949    3.1484    1.3594 C   0  0  0  0  0  0  0  0  0  0  0  0
   -1.4052    3.3907    1.7058 H   0  0  0  0  0  0  0  0  0  0  0  0
    0.3237    3.5474    2.0817 H   0  0  0  0  0  0  0  0  0  0  0  0
   -0.2253    3.6398    0.3955 H   0  0  0  0  0  0  0  0  0  0  0  0
  1  2  1  0  0  0  0
  2  3  1  0  0  0  0
  2  4  1  0  0  0  0
  2  5  1  0  0  0  0
  5  6  2  0  0  0  0
  5  7  1  0  0  0  0
  7  8  1  0  0  0  0
  7  9  1  0  0  0  0
  9 10  1  0  0  0  0
  9 11  1  0  0  0  0
  9 25  1  0  0  0  0
 11 12  1  0  0  0  0
 11 13  1  0  0  0  0
 11 14  1  0  0  0  0
 14 15  1  0  0  0  0
 14 23  2  0  0  0  0
 15 16  1  0  0  0  0
 15 17  2  0  0  0  0
 17 18  1  0  0  0  0
 17 19  1  0  0  0  0
 19 20  1  0  0  0  0
 19 21  2  0  0  0  0
 21 22  1  0  0  0  0
 21 23  1  0  0  0  0
 23 24  1  0  0  0  0
 25 26  2  0  0  0  0
 25 27  1  0  0  0  0
 27 28  1  0  0  0  0
 27 29  1  0  0  0  0
 29 30  1  0  0  0  0
 29 31  1  0  0  0  0
 29 32  1  0  0  0  0
M  END
$$$$

  -OEChem-04042216033D

 32 32  0     1  0  0  0  0  0999 V2000
   -3.7248   -4.0067    1.6542 H   0  0  0  0  0  0  0  0  0  0  0  0
   -3.6834   -3.1451    0.9824 C   0  0  0  0  0  0  0  0  0  0  0  0
   -4.5134   -2.4742    1.2166 H   0  0  0  0  0  0  0  0  0  0  0  0
   -3.7857   -3.4967   -0.0472 H   0  0  0  0  0  0  0  0  0  0  0  0
   -2.3636   -2.4162    1.1481 C   0  0  0  0  0  0  0  0  0  0  0  0
   -1.5496   -2.8092    1.9712 O   0  0  0  0  0  0  0  0  0  0  0  0
   -2.0957   -1.3067    0.3721 N   0  0  0  0  0  0  0  0  0  0  0  0
   -2.8111   -1.0109   -0.2879 H   0  0  0  0  0  0  0  0  0  0  0  0
   -0.8064   -0.5954    0.3363 C   0  0  1  0  0  0  0  0  0  0  0  0
   -0.2181   -0.8832    1.2131 H   0  0  0  0  0  0  0  0  0  0  0  0
    0.0162   -0.9548   -0.9250 C   0  0  0  0  0  0  0  0  0  0  0  0
   -0.2256   -0.2470   -1.7253 H   0  0  0  0  0  0  0  0  0  0  0  0
    1.0814   -0.8330   -0.7051 H   0  0  0  0  0  0  0  0  0  0  0  0
   -0.2331   -2.3555   -1.4407 C   0  0  0  0  0  0  0  0  0  0  0  0
    0.3085   -3.4629   -0.7722 C   0  0  0  0  0  0  0  0  0  0  0  0
    0.9057   -3.3179    0.1234 H   0  0  0  0  0  0  0  0  0  0  0  0
    0.0652   -4.7604   -1.2344 C   0  0  0  0  0  0  0  0  0  0  0  0
    0.4844   -5.6100   -0.7033 H   0  0  0  0  0  0  0  0  0  0  0  0
   -0.7214   -4.9620   -2.3725 C   0  0  0  0  0  0  0  0  0  0  0  0
   -0.9098   -5.9699   -2.7305 H   0  0  0  0  0  0  0  0  0  0  0  0
   -1.2644   -3.8644   -3.0472 C   0  0  0  0  0  0  0  0  0  0  0  0
   -1.8751   -4.0189   -3.9319 H   0  0  0  0  0  0  0  0  0  0  0  0
   -1.0209   -2.5672   -2.5830 C   0  0  0  0  0  0  0  0  0  0  0  0
   -1.4499   -1.7219   -3.1130 H   0  0  0  0  0  0  0  0  0  0  0  0
   -1.0123    0.9292    0.4002 C   0  0  0  0  0  0  0  0  0  0  0  0
   -1.8649    1.4631   -0.3002 O   0  0  0  0  0  0  0  0  0  0  0  0
   -0.2317    1.7078    1.2348 N   0  0  0  0  0  0  0  0  0  0  0  0
    0.4235    1.2301    1.8472 H   0  0  0  0  0  0  0  0  0  0  0  0
   -0.3957    3.1504    1.3665 C   0  0  0  0  0  0  0  0  0  0  0  0
   -1.4080    3.3926    1.7073 H   0  0  0  0  0  0  0  0  0  0  0  0
    0.3184    3.5465    2.0949 H   0  0  0  0  0  0  0  0  0  0  0  0
   -0.2195    3.6448    0.4053 H   0  0  0  0  0  0  0  0  0  0  0  0
  1  2  1  0  0  0  0
  2  3  1  0  0  0  0
  2  4  1  0  0  0  0
  2  5  1  0  0  0  0
  5  6  2  0  0  0  0
  5  7  1  0  0  0  0
  7  8  1  0  0  0  0
  7  9  1  0  0  0  0
  9 10  1  0  0  0  0
  9 11  1  0  0  0  0
  9 25  1  0  0  0  0
 11 12  1  0  0  0  0
 11 13  1  0  0  0  0
 11 14  1  0  0  0  0
 14 15  1  0  0  0  0
 14 23  2  0  0  0  0
 15 16  1  0  0  0  0
 15 17  2  0  0  0  0
 17 18  1  0  0  0  0
 17 19  1  0  0  0  0
 19 20  1  0  0  0  0
 19 21  2  0  0  0  0
 21 22  1  0  0  0  0
 21 23  1  0  0  0  0
 23 24  1  0  0  0  0
 25 26  2  0  0  0  0
 25 27  1  0  0  0  0
 27 28  1  0  0  0  0
 27 29  1  0  0  0  0
 29 30  1  0  0  0  0
 29 31  1  0  0  0  0
 29 32  1  0  0  0  0
M  END
$$$$

  -OEChem-04042216033D

 32 32  0     1  0  0  0  0  0999 V2000
   -3.7607   -3.9900    1.6903 H   0  0  0  0  0  0  0  0  0  0  0  0
   -3.7064   -3.1351    1.0108 C   0  0  0  0  0  0  0  0  0  0  0  0
   -4.5423   -2.4633    1.2204 H   0  0  0  0  0  0  0  0  0  0  0  0
   -3.7862   -3.4974   -0.0173 H   0  0  0  0  0  0  0  0  0  0  0  0
   -2.3919   -2.4012    1.1966 C   0  0  0  0  0  0  0  0  0  0  0  0
   -1.6014   -2.7716    2.0525 O   0  0  0  0  0  0  0  0  0  0  0  0
   -2.1050   -1.3073    0.4060 N   0  0  0  0  0  0  0  0  0  0  0  0
   -2.8046   -1.0315   -0.2793 H   0  0  0  0  0  0  0  0  0  0  0  0
   -0.8109   -0.6040    0.3638 C   0  0  1  0  0  0  0  0  0  0  0  0
   -0.2240   -0.8843    1.2439 H   0  0  0  0  0  0  0  0  0  0  0  0
    0.0112   -0.9684   -0.8994 C   0  0  0  0  0  0  0  0  0  0  0  0
   -0.2265   -0.2525   -1.6937 H   0  0  0  0  0  0  0  0  0  0  0  0
    1.0753   -0.8482   -0.6740 H   0  0  0  0  0  0  0  0  0  0  0  0
   -0.2185   -2.3648   -1.4412 C   0  0  0  0  0  0  0  0  0  0  0  0
    0.0486   -3.4944   -0.6521 C   0  0  0  0  0  0  0  0  0  0  0  0
    0.4393   -3.3743    0.3546 H   0  0  0  0  0  0  0  0  0  0  0  0
   -0.1944   -4.7814   -1.1423 C   0  0  0  0  0  0  0  0  0  0  0  0
    0.0151   -5.6451   -0.5179 H   0  0  0  0  0  0  0  0  0  0  0  0
   -0.7086   -4.9531   -2.4305 C   0  0  0  0  0  0  0  0  0  0  0  0
   -0.8980   -5.9523   -2.8114 H   0  0  0  0  0  0  0  0  0  0  0  0
   -0.9783   -3.8361   -3.2264 C   0  0  0  0  0  0  0  0  0  0  0  0
   -1.3775   -3.9665   -4.2279 H   0  0  0  0  0  0  0  0  0  0  0  0
   -0.7356   -2.5494   -2.7331 C   0  0  0  0  0  0  0  0  0  0  0  0
   -0.9571   -1.6911   -3.3603 H   0  0  0  0  0  0  0  0  0  0  0  0
   -1.0129    0.9227    0.4016 C   0  0  0  0  0  0  0  0  0  0  0  0
   -1.8610    1.4489   -0.3102 O   0  0  0  0  0  0  0  0  0  0  0  0
   -0.2331    1.7119    1.2269 N   0  0  0  0  0  0  0  0  0  0  0  0
    0.4157    1.2418    1.8518 H   0  0  0  0  0  0  0  0  0  0  0  0
   -0.3929    3.1568    1.3346 C   0  0  0  0  0  0  0  0  0  0  0  0
   -1.4042    3.4069    1.6725 H   0  0  0  0  0  0  0  0  0  0  0  0
    0.3232    3.5633    2.0552 H   0  0  0  0  0  0  0  0  0  0  0  0
   -0.2168    3.6349    0.3651 H   0  0  0  0  0  0  0  0  0  0  0  0
  1  2  1  0  0  0  0
  2  3  1  0  0  0  0
  2  4  1  0  0  0  0
  2  5  1  0  0  0  0
  5  6  2  0  0  0  0
  5  7  1  0  0  0  0
  7  8  1  0  0  0  0
  7  9  1  0  0  0  0
  9 10  1  0  0  0  0
  9 11  1  0  0  0  0
  9 25  1  0  0  0  0
 11 12  1  0  0  0  0
 11 13  1  0  0  0  0
 11 14  1  0  0  0  0
 14 15  1  0  0  0  0
 14 23  2  0  0  0  0
 15 16  1  0  0  0  0
 15 17  2  0  0  0  0
 17 18  1  0  0  0  0
 17 19  1  0  0  0  0
 19 20  1  0  0  0  0
 19 21  2  0  0  0  0
 21 22  1  0  0  0  0
 21 23  1  0  0  0  0
 23 24  1  0  0  0  0
 25 26  2  0  0  0  0
 25 27  1  0  0  0  0
 27 28  1  0  0  0  0
 27 29  1  0  0  0  0
 29 30  1  0  0  0  0
 29 31  1  0  0  0  0
 29 32  1  0  0  0  0
M  END
$$$$

  -OEChem-04042216033D

 32 32  0     1  0  0  0  0  0999 V2000
   -3.8645   -3.9068    1.8255 H   0  0  0  0  0  0  0  0  0  0  0  0
   -3.7731   -3.0884    1.1061 C   0  0  0  0  0  0  0  0  0  0  0  0
   -4.6032   -2.3936    1.2539 H   0  0  0  0  0  0  0  0  0  0  0  0
   -3.8267   -3.5002    0.0952 H   0  0  0  0  0  0  0  0  0  0  0  0
   -2.4527   -2.3670    1.2969 C   0  0  0  0  0  0  0  0  0  0  0  0
   -1.6924   -2.7089    2.1906 O   0  0  0  0  0  0  0  0  0  0  0  0
   -2.1337   -1.3050    0.4767 N   0  0  0  0  0  0  0  0  0  0  0  0
   -2.8223   -1.0430   -0.2252 H   0  0  0  0  0  0  0  0  0  0  0  0
   -0.8290   -0.6223    0.4100 C   0  0  1  0  0  0  0  0  0  0  0  0
   -0.2426   -0.8864    1.2955 H   0  0  0  0  0  0  0  0  0  0  0  0
   -0.0046   -1.0056   -0.8525 C   0  0  0  0  0  0  0  0  0  0  0  0
   -0.2421   -0.2873   -1.6448 H   0  0  0  0  0  0  0  0  0  0  0  0
    1.0568   -0.8756   -0.6200 H   0  0  0  0  0  0  0  0  0  0  0  0
   -0.1931   -2.3964   -1.4343 C   0  0  0  0  0  0  0  0  0  0  0  0
   -0.2211   -3.5436   -0.6250 C   0  0  0  0  0  0  0  0  0  0  0  0
   -0.0394   -3.4625    0.4419 H   0  0  0  0  0  0  0  0  0  0  0  0
   -0.4462   -4.8084   -1.1771 C   0  0  0  0  0  0  0  0  0  0  0  0
   -0.4568   -5.6838   -0.5344 H   0  0  0  0  0  0  0  0  0  0  0  0
   -0.6493   -4.9444   -2.5523 C   0  0  0  0  0  0  0  0  0  0  0  0
   -0.8244   -5.9263   -2.9823 H   0  0  0  0  0  0  0  0  0  0  0  0
   -0.6213   -3.8136   -3.3726 C   0  0  0  0  0  0  0  0  0  0  0  0
   -0.7778   -3.9150   -4.4425 H   0  0  0  0  0  0  0  0  0  0  0  0
   -0.3957   -2.5497   -2.8161 C   0  0  0  0  0  0  0  0  0  0  0  0
   -0.3872   -1.6823   -3.4693 H   0  0  0  0  0  0  0  0  0  0  0  0
   -1.0221    0.9072    0.3994 C   0  0  0  0  0  0  0  0  0  0  0  0
   -1.8719    1.4182   -0.3216 O   0  0  0  0  0  0  0  0  0  0  0  0
   -0.2343    1.7148    1.1992 N   0  0  0  0  0  0  0  0  0  0  0  0
    0.4080    1.2576    1.8402 H   0  0  0  0  0  0  0  0  0  0  0  0
   -0.3872    3.1628    1.2693 C   0  0  0  0  0  0  0  0  0  0  0  0
   -1.3886    3.4258    1.6261 H   0  0  0  0  0  0  0  0  0  0  0  0
    0.3489    3.5877    1.9585 H   0  0  0  0  0  0  0  0  0  0  0  0
   -0.2348    3.6121    0.2823 H   0  0  0  0  0  0  0  0  0  0  0  0
  1  2  1  0  0  0  0
  2  3  1  0  0  0  0
  2  4  1  0  0  0  0
  2  5  1  0  0  0  0
  5  6  2  0  0  0  0
  5  7  1  0  0  0  0
  7  8  1  0  0  0  0
  7  9  1  0  0  0  0
  9 10  1  0  0  0  0
  9 11  1  0  0  0  0
  9 25  1  0  0  0  0
 11 12  1  0  0  0  0
 11 13  1  0  0  0  0
 11 14  1  0  0  0  0
 14 15  1  0  0  0  0
 14 23  2  0  0  0  0
 15 16  1  0  0  0  0
 15 17  2  0  0  0  0
 17 18  1  0  0  0  0
 17 19  1  0  0  0  0
 19 20  1  0  0  0  0
 19 21  2  0  0  0  0
 21 22  1  0  0  0  0
 21 23  1  0  0  0  0
 23 24  1  0  0  0  0
 25 26  2  0  0  0  0
 25 27  1  0  0  0  0
 27 28  1  0  0  0  0
 27 29  1  0  0  0  0
 29 30  1  0  0  0  0
 29 31  1  0  0  0  0
 29 32  1  0  0  0  0
M  END
$$$$

  -OEChem-04042216033D

 32 32  0     1  0  0  0  0  0999 V2000
   -3.9799   -3.7923    2.0297 H   0  0  0  0  0  0  0  0  0  0  0  0
   -3.8744   -3.0006    1.2829 C   0  0  0  0  0  0  0  0  0  0  0  0
   -4.6749   -2.2708    1.4264 H   0  0  0  0  0  0  0  0  0  0  0  0
   -3.9665   -3.4414    0.2871 H   0  0  0  0  0  0  0  0  0  0  0  0
   -2.5240   -2.3244    1.4247 C   0  0  0  0  0  0  0  0  0  0  0  0
   -1.7632   -2.6608    2.3198 O   0  0  0  0  0  0  0  0  0  0  0  0
   -2.1773   -1.3042    0.5636 N   0  0  0  0  0  0  0  0  0  0  0  0
   -2.8720   -1.0335   -0.1297 H   0  0  0  0  0  0  0  0  0  0  0  0
   -0.8578   -0.6541    0.4585 C   0  0  1  0  0  0  0  0  0  0  0  0
   -0.2714   -0.8969    1.3499 H   0  0  0  0  0  0  0  0  0  0  0  0
   -0.0289   -1.0633   -0.7989 C   0  0  0  0  0  0  0  0  0  0  0  0
   -0.2667   -0.3474   -1.5937 H   0  0  0  0  0  0  0  0  0  0  0  0
    1.0288   -0.9209   -0.5564 H   0  0  0  0  0  0  0  0  0  0  0  0
   -0.1698   -2.4454   -1.4222 C   0  0  0  0  0  0  0  0  0  0  0  0
   -0.4922   -3.6035   -0.6965 C   0  0  0  0  0  0  0  0  0  0  0  0
   -0.5373   -3.5792    0.3839 H   0  0  0  0  0  0  0  0  0  0  0  0
   -0.6801   -4.8326   -1.3371 C   0  0  0  0  0  0  0  0  0  0  0  0
   -0.9135   -5.7169   -0.7513 H   0  0  0  0  0  0  0  0  0  0  0  0
   -0.5505   -4.9248   -2.7241 C   0  0  0  0  0  0  0  0  0  0  0  0
   -0.6952   -5.8783   -3.2235 H   0  0  0  0  0  0  0  0  0  0  0  0
   -0.2237   -3.7870   -3.4643 C   0  0  0  0  0  0  0  0  0  0  0  0
   -0.1181   -3.8524   -4.5431 H   0  0  0  0  0  0  0  0  0  0  0  0
   -0.0360   -2.5610   -2.8173 C   0  0  0  0  0  0  0  0  0  0  0  0
    0.2063   -1.6872   -3.4150 H   0  0  0  0  0  0  0  0  0  0  0  0
   -1.0356    0.8768    0.3901 C   0  0  0  0  0  0  0  0  0  0  0  0
   -1.8946    1.3689   -0.3334 O   0  0  0  0  0  0  0  0  0  0  0  0
   -0.2318    1.7067    1.1503 N   0  0  0  0  0  0  0  0  0  0  0  0
    0.4190    1.2684    1.7960 H   0  0  0  0  0  0  0  0  0  0  0  0
   -0.3761    3.1571    1.1722 C   0  0  0  0  0  0  0  0  0  0  0  0
   -1.3715    3.4377    1.5325 H   0  0  0  0  0  0  0  0  0  0  0  0
    0.3706    3.6018    1.8371 H   0  0  0  0  0  0  0  0  0  0  0  0
   -0.2347    3.5713    0.1684 H   0  0  0  0  0  0  0  0  0  0  0  0
  1  2  1  0  0  0  0
  2  3  1  0  0  0  0
  2  4  1  0  0  0  0
  2  5  1  0  0  0  0
  5  6  2  0  0  0  0
  5  7  1  0  0  0  0
  7  8  1  0  0  0  0
  7  9  1  0  0  0  0
  9 10  1  0  0  0  0
  9 11  1  0  0  0  0
  9 25  1  0  0  0  0
 11 12  1  0  0  0  0
 11 13  1  0  0  0  0
 11 14  1  0  0  0  0
 14 15  1  0  0  0  0
 14 23  2  0  0  0  0
 15 16  1  0  0  0  0
 15 17  2  0  0  0  0
 17 18  1  0  0  0  0
 17 19  1  0  0  0  0
 19 20  1  0  0  0  0
 19 21  2  0  0  0  0
 21 22  1  0  0  0  0
 21 23  1  0  0  0  0
 23 24  1  0  0  0  0
 25 26  2  0  0  0  0
 25 27  1  0  0  0  0
 27 28  1  0  0  0  0
 27 29  1  0  0  0  0
 29 30  1  0  0  0  0
 29 31  1  0  0  0  0
 29 32  1  0  0  0  0
M  END
$$$$

  -OEChem-04042216033D

 32 32  0     1  0  0  0  0  0999 V2000
   -4.0795   -3.6428    2.3020 H   0  0  0  0  0  0  0  0  0  0  0  0
   -3.9804   -2.8686    1.5361 C   0  0  0  0  0  0  0  0  0  0  0  0
   -4.7086   -2.0789    1.7368 H   0  0  0  0  0  0  0  0  0  0  0  0
   -4.1923   -3.3103    0.5591 H   0  0  0  0  0  0  0  0  0  0  0  0
   -2.5761   -2.2949    1.5500 C   0  0  0  0  0  0  0  0  0  0  0  0
   -1.7611   -2.6938    2.3678 O   0  0  0  0  0  0  0  0  0  0  0  0
   -2.2332   -1.3058    0.6517 N   0  0  0  0  0  0  0  0  0  0  0  0
   -2.9686   -0.9684    0.0329 H   0  0  0  0  0  0  0  0  0  0  0  0
   -0.9021   -0.6946    0.4837 C   0  0  1  0  0  0  0  0  0  0  0  0
   -0.3000   -0.9248    1.3684 H   0  0  0  0  0  0  0  0  0  0  0  0
   -0.0846   -1.1244   -0.7781 C   0  0  0  0  0  0  0  0  0  0  0  0
   -0.3363   -0.4122   -1.5724 H   0  0  0  0  0  0  0  0  0  0  0  0
    0.9717   -0.9665   -0.5394 H   0  0  0  0  0  0  0  0  0  0  0  0
   -0.1875   -2.4942   -1.4416 C   0  0  0  0  0  0  0  0  0  0  0  0
   -0.7661   -3.6439   -0.8786 C   0  0  0  0  0  0  0  0  0  0  0  0
   -1.0818   -3.6660    0.1504 H   0  0  0  0  0  0  0  0  0  0  0  0
   -0.8729   -4.8354   -1.6041 C   0  0  0  0  0  0  0  0  0  0  0  0
   -1.3105   -5.7139   -1.1391 H   0  0  0  0  0  0  0  0  0  0  0  0
   -0.4026   -4.9020   -2.9162 C   0  0  0  0  0  0  0  0  0  0  0  0
   -0.4837   -5.8269   -3.4796 H   0  0  0  0  0  0  0  0  0  0  0  0
    0.1831   -3.7759   -3.4952 C   0  0  0  0  0  0  0  0  0  0  0  0
    0.5550   -3.8202   -4.5146 H   0  0  0  0  0  0  0  0  0  0  0  0
    0.2867   -2.5887   -2.7632 C   0  0  0  0  0  0  0  0  0  0  0  0
    0.7365   -1.7226   -3.2396 H   0  0  0  0  0  0  0  0  0  0  0  0
   -1.0616    0.8375    0.3858 C   0  0  0  0  0  0  0  0  0  0  0  0
   -1.9519    1.3247   -0.3023 O   0  0  0  0  0  0  0  0  0  0  0  0
   -0.2188    1.6726    1.0963 N   0  0  0  0  0  0  0  0  0  0  0  0
    0.4615    1.2390    1.7142 H   0  0  0  0  0  0  0  0  0  0  0  0
   -0.3428    3.1252    1.0934 C   0  0  0  0  0  0  0  0  0  0  0  0
   -1.3231    3.4273    1.4767 H   0  0  0  0  0  0  0  0  0  0  0  0
    0.4292    3.5716    1.7276 H   0  0  0  0  0  0  0  0  0  0  0  0
   -0.2248    3.5178    0.0779 H   0  0  0  0  0  0  0  0  0  0  0  0
  1  2  1  0  0  0  0
  2  3  1  0  0  0  0
  2  4  1  0  0  0  0
  2  5  1  0  0  0  0
  5  6  2  0  0  0  0
  5  7  1  0  0  0  0
  7  8  1  0  0  0  0
  7  9  1  0  0  0  0
  9 10  1  0  0  0  0
  9 11  1  0  0  0  0
  9 25  1  0  0  0  0
 11 12  1  0  0  0  0
 11 13  1  0  0  0  0
 11 14  1  0  0  0  0
 14 15  1  0  0  0  0
 14 23  2  0  0  0  0
 15 16  1  0  0  0  0
 15 17  2  0  0  0  0
 17 18  1  0  0  0  0
 17 19  1  0  0  0  0
 19 20  1  0  0  0  0
 19 21  2  0  0  0  0
 21 22  1  0  0  0  0
 21 23  1  0  0  0  0
 23 24  1  0  0  0  0
 25 26  2  0  0  0  0
 25 27  1  0  0  0  0
 27 28  1  0  0  0  0
 27 29  1  0  0  0  0
 29 30  1  0  0  0  0
 29 31  1  0  0  0  0
 29 32  1  0  0  0  0
M  END
$$$$

  -OEChem-04042216033D

 32 32  0     1  0  0  0  0  0999 V2000
   -4.1444   -3.5332    2.4562 H   0  0  0  0  0  0  0  0  0  0  0  0
   -4.0634   -2.7393    1.7084 C   0  0  0  0  0  0  0  0  0  0  0  0
   -4.6956   -1.9017    2.0132 H   0  0  0  0  0  0  0  0  0  0  0  0
   -4.4170   -3.1230    0.7484 H   0  0  0  0  0  0  0  0  0  0  0  0
   -2.6224   -2.2812    1.5845 C   0  0  0  0  0  0  0  0  0  0  0  0
   -1.7616   -2.7771    2.2943 O   0  0  0  0  0  0  0  0  0  0  0  0
   -2.2949   -1.2962    0.6745 N   0  0  0  0  0  0  0  0  0  0  0  0
   -3.0595   -0.8667    0.1555 H   0  0  0  0  0  0  0  0  0  0  0  0
   -0.9539   -0.7220    0.4695 C   0  0  1  0  0  0  0  0  0  0  0  0
   -0.3445   -0.9624    1.3466 H   0  0  0  0  0  0  0  0  0  0  0  0
   -0.1423   -1.1588   -0.7938 C   0  0  0  0  0  0  0  0  0  0  0  0
   -0.3885   -0.4426   -1.5863 H   0  0  0  0  0  0  0  0  0  0  0  0
    0.9129   -1.0040   -0.5469 H   0  0  0  0  0  0  0  0  0  0  0  0
   -0.2354   -2.5158   -1.4874 C   0  0  0  0  0  0  0  0  0  0  0  0
   -1.0493   -3.6042   -1.1256 C   0  0  0  0  0  0  0  0  0  0  0  0
   -1.6764   -3.5875   -0.2537 H   0  0  0  0  0  0  0  0  0  0  0  0
   -1.0530   -4.7889   -1.8714 C   0  0  0  0  0  0  0  0  0  0  0  0
   -1.6824   -5.6186   -1.5637 H   0  0  0  0  0  0  0  0  0  0  0  0
   -0.2458   -4.9116   -3.0027 C   0  0  0  0  0  0  0  0  0  0  0  0
   -0.2494   -5.8315   -3.5803 H   0  0  0  0  0  0  0  0  0  0  0  0
    0.5687   -3.8458   -3.3833 C   0  0  0  0  0  0  0  0  0  0  0  0
    1.2007   -3.9318   -4.2621 H   0  0  0  0  0  0  0  0  0  0  0  0
    0.5695   -2.6661   -2.6325 C   0  0  0  0  0  0  0  0  0  0  0  0
    1.2085   -1.8485   -2.9530 H   0  0  0  0  0  0  0  0  0  0  0  0
   -1.0834    0.8135    0.3831 C   0  0  0  0  0  0  0  0  0  0  0  0
   -1.9929    1.3218   -0.2634 O   0  0  0  0  0  0  0  0  0  0  0  0
   -0.2026    1.6281    1.0710 N   0  0  0  0  0  0  0  0  0  0  0  0
    0.4972    1.1783    1.6547 H   0  0  0  0  0  0  0  0  0  0  0  0
   -0.2920    3.0833    1.0718 C   0  0  0  0  0  0  0  0  0  0  0  0
   -1.2561    3.4085    1.4767 H   0  0  0  0  0  0  0  0  0  0  0  0
    0.5041    3.5104    1.6892 H   0  0  0  0  0  0  0  0  0  0  0  0
   -0.1869    3.4737    0.0540 H   0  0  0  0  0  0  0  0  0  0  0  0
  1  2  1  0  0  0  0
  2  3  1  0  0  0  0
  2  4  1  0  0  0  0
  2  5  1  0  0  0  0
  5  6  2  0  0  0  0
  5  7  1  0  0  0  0
  7  8  1  0  0  0  0
  7  9  1  0  0  0  0
  9 10  1  0  0  0  0
  9 11  1  0  0  0  0
  9 25  1  0  0  0  0
 11 12  1  0  0  0  0
 11 13  1  0  0  0  0
 11 14  1  0  0  0  0
 14 15  1  0  0  0  0
 14 23  2  0  0  0  0
 15 16  1  0  0  0  0
 15 17  2  0  0  0  0
 17 18  1  0  0  0  0
 17 19  1  0  0  0  0
 19 20  1  0  0  0  0
 19 21  2  0  0  0  0
 21 22  1  0  0  0  0
 21 23  1  0  0  0  0
 23 24  1  0  0  0  0
 25 26  2  0  0  0  0
 25 27  1  0  0  0  0
 27 28  1  0  0  0  0
 27 29  1  0  0  0  0
 29 30  1  0  0  0  0
 29 31  1  0  0  0  0
 29 32  1  0  0  0  0
M  END
$$$$

  -OEChem-04042216033D

 32 32  0     1  0  0  0  0  0999 V2000
   -4.2451   -3.5046    2.2796 H   0  0  0  0  0  0  0  0  0  0  0  0
   -4.1461   -2.6628    1.5886 C   0  0  0  0  0  0  0  0  0  0  0  0
   -4.7341   -1.8236    1.9680 H   0  0  0  0  0  0  0  0  0  0  0  0
   -4.5372   -2.9606    0.6128 H   0  0  0  0  0  0  0  0  0  0  0  0
   -2.6893   -2.2581    1.4625 C   0  0  0  0  0  0  0  0  0  0  0  0
   -1.8434   -2.8110    2.1470 O   0  0  0  0  0  0  0  0  0  0  0  0
   -2.3337   -1.2534    0.5837 N   0  0  0  0  0  0  0  0  0  0  0  0
   -3.0846   -0.7616    0.1012 H   0  0  0  0  0  0  0  0  0  0  0  0
   -0.9763   -0.7101    0.4226 C   0  0  1  0  0  0  0  0  0  0  0  0
   -0.4000   -0.9824    1.3126 H   0  0  0  0  0  0  0  0  0  0  0  0
   -0.1320   -1.1537   -0.8138 C   0  0  0  0  0  0  0  0  0  0  0  0
   -0.3341   -0.4297   -1.6111 H   0  0  0  0  0  0  0  0  0  0  0  0
    0.9160   -1.0196   -0.5266 H   0  0  0  0  0  0  0  0  0  0  0  0
   -0.2417   -2.5086   -1.5126 C   0  0  0  0  0  0  0  0  0  0  0  0
   -1.2770   -3.4538   -1.3809 C   0  0  0  0  0  0  0  0  0  0  0  0
   -2.1442   -3.2806   -0.7689 H   0  0  0  0  0  0  0  0  0  0  0  0
   -1.2416   -4.6716   -2.0699 C   0  0  0  0  0  0  0  0  0  0  0  0
   -2.0523   -5.3839   -1.9493 H   0  0  0  0  0  0  0  0  0  0  0  0
   -0.1715   -4.9732   -2.9125 C   0  0  0  0  0  0  0  0  0  0  0  0
   -0.1451   -5.9187   -3.4461 H   0  0  0  0  0  0  0  0  0  0  0  0
    0.8623   -4.0503   -3.0669 C   0  0  0  0  0  0  0  0  0  0  0  0
    1.6983   -4.2754   -3.7224 H   0  0  0  0  0  0  0  0  0  0  0  0
    0.8222   -2.8360   -2.3745 C   0  0  0  0  0  0  0  0  0  0  0  0
    1.6410   -2.1360   -2.5111 H   0  0  0  0  0  0  0  0  0  0  0  0
   -1.0622    0.8292    0.3782 C   0  0  0  0  0  0  0  0  0  0  0  0
   -1.9546    1.3782   -0.2588 O   0  0  0  0  0  0  0  0  0  0  0  0
   -0.1747    1.6003    1.1063 N   0  0  0  0  0  0  0  0  0  0  0  0
    0.5081    1.1157    1.6822 H   0  0  0  0  0  0  0  0  0  0  0  0
   -0.2476    3.0547    1.1734 C   0  0  0  0  0  0  0  0  0  0  0  0
   -1.2058    3.3709    1.5988 H   0  0  0  0  0  0  0  0  0  0  0  0
    0.5566    3.4452    1.8043 H   0  0  0  0  0  0  0  0  0  0  0  0
   -0.1447    3.4902    0.1738 H   0  0  0  0  0  0  0  0  0  0  0  0
  1  2  1  0  0  0  0
  2  3  1  0  0  0  0
  2  4  1  0  0  0  0
  2  5  1  0  0  0  0
  5  6  2  0  0  0  0
  5  7  1  0  0  0  0
  7  8  1  0  0  0  0
  7  9  1  0  0  0  0
  9 10  1  0  0  0  0
  9 11  1  0  0  0  0
  9 25  1  0  0  0  0
 11 12  1  0  0  0  0
 11 13  1  0  0  0  0
 11 14  1  0  0  0  0
 14 15  1  0  0  0  0
 14 23  2  0  0  0  0
 15 16  1  0  0  0  0
 15 17  2  0  0  0  0
 17 18  1  0  0  0  0
 17 19  1  0  0  0  0
 19 20  1  0  0  0  0
 19 21  2  0  0  0  0
 21 22  1  0  0  0  0
 21 23  1  0  0  0  0
 23 24  1  0  0  0  0
 25 26  2  0  0  0  0
 25 27  1  0  0  0  0
 27 28  1  0  0  0  0
 27 29  1  0  0  0  0
 29 30  1  0  0  0  0
 29 31  1  0  0  0  0
 29 32  1  0  0  0  0
M  END
$$$$

  -OEChem-04042216033D

 32 32  0     1  0  0  0  0  0999 V2000
   -4.1182   -3.5970    2.2191 H   0  0  0  0  0  0  0  0  0  0  0  0
   -4.0430   -2.7849    1.4903 C   0  0  0  0  0  0  0  0  0  0  0  0
   -4.6804   -1.9592    1.8158 H   0  0  0  0  0  0  0  0  0  0  0  0
   -4.3939   -3.1478    0.5213 H   0  0  0  0  0  0  0  0  0  0  0  0
   -2.6048   -2.3154    1.3774 C   0  0  0  0  0  0  0  0  0  0  0  0
   -1.7364   -2.8559    2.0436 O   0  0  0  0  0  0  0  0  0  0  0  0
   -2.2955   -1.2615    0.5398 N   0  0  0  0  0  0  0  0  0  0  0  0
   -3.0666   -0.7786    0.0815 H   0  0  0  0  0  0  0  0  0  0  0  0
   -0.9562   -0.6782    0.3807 C   0  0  1  0  0  0  0  0  0  0  0  0
   -0.3613   -0.9727    1.2511 H   0  0  0  0  0  0  0  0  0  0  0  0
   -0.1280   -1.0816   -0.8775 C   0  0  0  0  0  0  0  0  0  0  0  0
   -0.3626   -0.3552   -1.6634 H   0  0  0  0  0  0  0  0  0  0  0  0
    0.9239   -0.9304   -0.6154 H   0  0  0  0  0  0  0  0  0  0  0  0
   -0.2598   -2.4399   -1.5659 C   0  0  0  0  0  0  0  0  0  0  0  0
   -1.4226   -3.2333   -1.6206 C   0  0  0  0  0  0  0  0  0  0  0  0
   -2.3689   -2.8881   -1.2339 H   0  0  0  0  0  0  0  0  0  0  0  0
   -1.4162   -4.4899   -2.2364 C   0  0  0  0  0  0  0  0  0  0  0  0
   -2.3261   -5.0814   -2.2689 H   0  0  0  0  0  0  0  0  0  0  0  0
   -0.2467   -4.9829   -2.8155 C   0  0  0  0  0  0  0  0  0  0  0  0
   -0.2420   -5.9587   -3.2919 H   0  0  0  0  0  0  0  0  0  0  0  0
    0.9150   -4.2120   -2.7829 C   0  0  0  0  0  0  0  0  0  0  0  0
    1.8292   -4.5882   -3.2324 H   0  0  0  0  0  0  0  0  0  0  0  0
    0.9039   -2.9574   -2.1655 C   0  0  0  0  0  0  0  0  0  0  0  0
    1.8254   -2.3838   -2.1491 H   0  0  0  0  0  0  0  0  0  0  0  0
   -1.0631    0.8592    0.4067 C   0  0  0  0  0  0  0  0  0  0  0  0
   -1.9677    1.4220   -0.2000 O   0  0  0  0  0  0  0  0  0  0  0  0
   -0.1739    1.6111    1.1527 N   0  0  0  0  0  0  0  0  0  0  0  0
    0.5209    1.1121    1.7012 H   0  0  0  0  0  0  0  0  0  0  0  0
   -0.2528    3.0622    1.2675 C   0  0  0  0  0  0  0  0  0  0  0  0
   -1.2126    3.3614    1.7016 H   0  0  0  0  0  0  0  0  0  0  0  0
    0.5493    3.4347    1.9120 H   0  0  0  0  0  0  0  0  0  0  0  0
   -0.1500    3.5302    0.2828 H   0  0  0  0  0  0  0  0  0  0  0  0
  1  2  1  0  0  0  0
  2  3  1  0  0  0  0
  2  4  1  0  0  0  0
  2  5  1  0  0  0  0
  5  6  2  0  0  0  0
  5  7  1  0  0  0  0
  7  8  1  0  0  0  0
  7  9  1  0  0  0  0
  9 10  1  0  0  0  0
  9 11  1  0  0  0  0
  9 25  1  0  0  0  0
 11 12  1  0  0  0  0
 11 13  1  0  0  0  0
 11 14  1  0  0  0  0
 14 15  1  0  0  0  0
 14 23  2  0  0  0  0
 15 16  1  0  0  0  0
 15 17  2  0  0  0  0
 17 18  1  0  0  0  0
 17 19  1  0  0  0  0
 19 20  1  0  0  0  0
 19 21  2  0  0  0  0
 21 22  1  0  0  0  0
 21 23  1  0  0  0  0
 23 24  1  0  0  0  0
 25 26  2  0  0  0  0
 25 27  1  0  0  0  0
 27 28  1  0  0  0  0
 27 29  1  0  0  0  0
 29 30  1  0  0  0  0
 29 31  1  0  0  0  0
 29 32  1  0  0  0  0
M  END
$$$$

  -OEChem-04042216033D

 32 32  0     1  0  0  0  0  0999 V2000
   -4.0085   -3.7251    2.0520 H   0  0  0  0  0  0  0  0  0  0  0  0
   -3.9439   -2.9023    1.3344 C   0  0  0  0  0  0  0  0  0  0  0  0
   -4.6307   -2.1106    1.6433 H   0  0  0  0  0  0  0  0  0  0  0  0
   -4.2406   -3.2702    0.3493 H   0  0  0  0  0  0  0  0  0  0  0  0
   -2.5255   -2.3668    1.2801 C   0  0  0  0  0  0  0  0  0  0  0  0
   -1.6554   -2.8829    1.9637 O   0  0  0  0  0  0  0  0  0  0  0  0
   -2.2382   -1.2813    0.4764 N   0  0  0  0  0  0  0  0  0  0  0  0
   -3.0167   -0.8185    0.0109 H   0  0  0  0  0  0  0  0  0  0  0  0
   -0.9155   -0.6531    0.3506 C   0  0  1  0  0  0  0  0  0  0  0  0
   -0.3203   -0.9541    1.2184 H   0  0  0  0  0  0  0  0  0  0  0  0
   -0.0795   -1.0229   -0.9093 C   0  0  0  0  0  0  0  0  0  0  0  0
   -0.3291   -0.3011   -1.6945 H   0  0  0  0  0  0  0  0  0  0  0  0
    0.9729   -0.8583   -0.6581 H   0  0  0  0  0  0  0  0  0  0  0  0
   -0.2293   -2.3911   -1.5665 C   0  0  0  0  0  0  0  0  0  0  0  0
   -1.4650   -3.0110   -1.8330 C   0  0  0  0  0  0  0  0  0  0  0  0
   -2.3983   -2.4939   -1.6514 H   0  0  0  0  0  0  0  0  0  0  0  0
   -1.5269   -4.2915   -2.3930 C   0  0  0  0  0  0  0  0  0  0  0  0
   -2.4907   -4.7478   -2.5980 H   0  0  0  0  0  0  0  0  0  0  0  0
   -0.3515   -4.9805   -2.6966 C   0  0  0  0  0  0  0  0  0  0  0  0
   -0.3980   -5.9754   -3.1293 H   0  0  0  0  0  0  0  0  0  0  0  0
    0.8843   -4.3830   -2.4444 C   0  0  0  0  0  0  0  0  0  0  0  0
    1.8016   -4.9149   -2.6783 H   0  0  0  0  0  0  0  0  0  0  0  0
    0.9416   -3.1026   -1.8841 C   0  0  0  0  0  0  0  0  0  0  0  0
    1.9158   -2.6659   -1.6883 H   0  0  0  0  0  0  0  0  0  0  0  0
   -1.0567    0.8793    0.4145 C   0  0  0  0  0  0  0  0  0  0  0  0
   -1.9603    1.4360   -0.1989 O   0  0  0  0  0  0  0  0  0  0  0  0
   -0.1951    1.6331    1.1901 N   0  0  0  0  0  0  0  0  0  0  0  0
    0.4995    1.1370    1.7417 H   0  0  0  0  0  0  0  0  0  0  0  0
   -0.3016    3.0805    1.3258 C   0  0  0  0  0  0  0  0  0  0  0  0
   -1.2674    3.3543    1.7630 H   0  0  0  0  0  0  0  0  0  0  0  0
    0.4929    3.4593    1.9759 H   0  0  0  0  0  0  0  0  0  0  0  0
   -0.2073    3.5647    0.3481 H   0  0  0  0  0  0  0  0  0  0  0  0
  1  2  1  0  0  0  0
  2  3  1  0  0  0  0
  2  4  1  0  0  0  0
  2  5  1  0  0  0  0
  5  6  2  0  0  0  0
  5  7  1  0  0  0  0
  7  8  1  0  0  0  0
  7  9  1  0  0  0  0
  9 10  1  0  0  0  0
  9 11  1  0  0  0  0
  9 25  1  0  0  0  0
 11 12  1  0  0  0  0
 11 13  1  0  0  0  0
 11 14  1  0  0  0  0
 14 15  1  0  0  0  0
 14 23  2  0  0  0  0
 15 16  1  0  0  0  0
 15 17  2  0  0  0  0
 17 18  1  0  0  0  0
 17 19  1  0  0  0  0
 19 20  1  0  0  0  0
 19 21  2  0  0  0  0
 21 22  1  0  0  0  0
 21 23  1  0  0  0  0
 23 24  1  0  0  0  0
 25 26  2  0  0  0  0
 25 27  1  0  0  0  0
 27 28  1  0  0  0  0
 27 29  1  0  0  0  0
 29 30  1  0  0  0  0
 29 31  1  0  0  0  0
 29 32  1  0  0  0  0
M  END
$$$$

  -OEChem-04042216033D

 32 32  0     1  0  0  0  0  0999 V2000
   -3.8807   -3.8620    1.8629 H   0  0  0  0  0  0  0  0  0  0  0  0
   -3.8271   -3.0187    1.1688 C   0  0  0  0  0  0  0  0  0  0  0  0
   -4.5710   -2.2738    1.4612 H   0  0  0  0  0  0  0  0  0  0  0  0
   -4.0544   -3.3770    0.1618 H   0  0  0  0  0  0  0  0  0  0  0  0
   -2.4400   -2.4048    1.1963 C   0  0  0  0  0  0  0  0  0  0  0  0
   -1.5799   -2.8778    1.9231 O   0  0  0  0  0  0  0  0  0  0  0  0
   -2.1701   -1.2995    0.4146 N   0  0  0  0  0  0  0  0  0  0  0  0
   -2.9442   -0.8818   -0.0972 H   0  0  0  0  0  0  0  0  0  0  0  0
   -0.8649   -0.6274    0.3279 C   0  0  1  0  0  0  0  0  0  0  0  0
   -0.2718   -0.9254    1.1981 H   0  0  0  0  0  0  0  0  0  0  0  0
   -0.0249   -0.9786   -0.9308 C   0  0  0  0  0  0  0  0  0  0  0  0
   -0.2818   -0.2660   -1.7221 H   0  0  0  0  0  0  0  0  0  0  0  0
    1.0302   -0.8135   -0.6920 H   0  0  0  0  0  0  0  0  0  0  0  0
   -0.2002   -2.3608   -1.5389 C   0  0  0  0  0  0  0  0  0  0  0  0
   -1.4369   -2.8167   -2.0294 C   0  0  0  0  0  0  0  0  0  0  0  0
   -2.2974   -2.1563   -2.0329 H   0  0  0  0  0  0  0  0  0  0  0  0
   -1.5739   -4.1099   -2.5449 C   0  0  0  0  0  0  0  0  0  0  0  0
   -2.5342   -4.4450   -2.9251 H   0  0  0  0  0  0  0  0  0  0  0  0
   -0.4734   -4.9696   -2.5751 C   0  0  0  0  0  0  0  0  0  0  0  0
   -0.5772   -5.9745   -2.9736 H   0  0  0  0  0  0  0  0  0  0  0  0
    0.7618   -4.5330   -2.0907 C   0  0  0  0  0  0  0  0  0  0  0  0
    1.6186   -5.1998   -2.1088 H   0  0  0  0  0  0  0  0  0  0  0  0
    0.8949   -3.2394   -1.5752 C   0  0  0  0  0  0  0  0  0  0  0  0
    1.8605   -2.9243   -1.1925 H   0  0  0  0  0  0  0  0  0  0  0  0
   -1.0431    0.9002    0.4079 C   0  0  0  0  0  0  0  0  0  0  0  0
   -1.9401    1.4445   -0.2261 O   0  0  0  0  0  0  0  0  0  0  0  0
   -0.2170    1.6638    1.2124 N   0  0  0  0  0  0  0  0  0  0  0  0
    0.4761    1.1764    1.7735 H   0  0  0  0  0  0  0  0  0  0  0  0
   -0.3603    3.1066    1.3652 C   0  0  0  0  0  0  0  0  0  0  0  0
   -1.3445    3.3525    1.7776 H   0  0  0  0  0  0  0  0  0  0  0  0
    0.4060    3.4931    2.0441 H   0  0  0  0  0  0  0  0  0  0  0  0
   -0.2481    3.6073    0.3978 H   0  0  0  0  0  0  0  0  0  0  0  0
  1  2  1  0  0  0  0
  2  3  1  0  0  0  0
  2  4  1  0  0  0  0
  2  5  1  0  0  0  0
  5  6  2  0  0  0  0
  5  7  1  0  0  0  0
  7  8  1  0  0  0  0
  7  9  1  0  0  0  0
  9 10  1  0  0  0  0
  9 11  1  0  0  0  0
  9 25  1  0  0  0  0
 11 12  1  0  0  0  0
 11 13  1  0  0  0  0
 11 14  1  0  0  0  0
 14 15  1  0  0  0  0
 14 23  2  0  0  0  0
 15 16  1  0  0  0  0
 15 17  2  0  0  0  0
 17 18  1  0  0  0  0
 17 19  1  0  0  0  0
 19 20  1  0  0  0  0
 19 21  2  0  0  0  0
 21 22  1  0  0  0  0
 21 23  1  0  0  0  0
 23 24  1  0  0  0  0
 25 26  2  0  0  0  0
 25 27  1  0  0  0  0
 27 28  1  0  0  0  0
 27 29  1  0  0  0  0
 29 30  1  0  0  0  0
 29 31  1  0  0  0  0
 29 32  1  0  0  0  0
M  END
$$$$

  -OEChem-04042216033D

 32 32  0     1  0  0  0  0  0999 V2000
   -3.7490   -3.9807    1.7093 H   0  0  0  0  0  0  0  0  0  0  0  0
   -3.7101   -3.1211    1.0345 C   0  0  0  0  0  0  0  0  0  0  0  0
   -4.5065   -2.4236    1.3048 H   0  0  0  0  0  0  0  0  0  0  0  0
   -3.8699   -3.4699    0.0113 H   0  0  0  0  0  0  0  0  0  0  0  0
   -2.3614   -2.4347    1.1386 C   0  0  0  0  0  0  0  0  0  0  0  0
   -1.5173   -2.8651    1.9099 O   0  0  0  0  0  0  0  0  0  0  0  0
   -2.1062   -1.3175    0.3692 N   0  0  0  0  0  0  0  0  0  0  0  0
   -2.8627   -0.9586   -0.2085 H   0  0  0  0  0  0  0  0  0  0  0  0
   -0.8172   -0.6091    0.3156 C   0  0  1  0  0  0  0  0  0  0  0  0
   -0.2241   -0.9018    1.1876 H   0  0  0  0  0  0  0  0  0  0  0  0
    0.0211   -0.9450   -0.9443 C   0  0  0  0  0  0  0  0  0  0  0  0
   -0.2379   -0.2382   -1.7401 H   0  0  0  0  0  0  0  0  0  0  0  0
    1.0798   -0.7877   -0.7160 H   0  0  0  0  0  0  0  0  0  0  0  0
   -0.1824   -2.3371   -1.5068 C   0  0  0  0  0  0  0  0  0  0  0  0
   -1.3421   -2.6615   -2.2306 C   0  0  0  0  0  0  0  0  0  0  0  0
   -2.0865   -1.8957   -2.4258 H   0  0  0  0  0  0  0  0  0  0  0  0
   -1.5443   -3.9588   -2.7125 C   0  0  0  0  0  0  0  0  0  0  0  0
   -2.4408   -4.1954   -3.2778 H   0  0  0  0  0  0  0  0  0  0  0  0
   -0.5908   -4.9505   -2.4661 C   0  0  0  0  0  0  0  0  0  0  0  0
   -0.7460   -5.9597   -2.8361 H   0  0  0  0  0  0  0  0  0  0  0  0
    0.5624   -4.6424   -1.7386 C   0  0  0  0  0  0  0  0  0  0  0  0
    1.3004   -5.4133   -1.5383 H   0  0  0  0  0  0  0  0  0  0  0  0
    0.7635   -3.3432   -1.2599 C   0  0  0  0  0  0  0  0  0  0  0  0
    1.6559   -3.1230   -0.6822 H   0  0  0  0  0  0  0  0  0  0  0  0
   -1.0280    0.9138    0.3996 C   0  0  0  0  0  0  0  0  0  0  0  0
   -1.9088    1.4468   -0.2660 O   0  0  0  0  0  0  0  0  0  0  0  0
   -0.2353    1.6884    1.2264 N   0  0  0  0  0  0  0  0  0  0  0  0
    0.4433    1.2096    1.8120 H   0  0  0  0  0  0  0  0  0  0  0  0
   -0.4049    3.1284    1.3760 C   0  0  0  0  0  0  0  0  0  0  0  0
   -1.4079    3.3595    1.7500 H   0  0  0  0  0  0  0  0  0  0  0  0
    0.3286    3.5235    2.0853 H   0  0  0  0  0  0  0  0  0  0  0  0
   -0.2621    3.6324    0.4143 H   0  0  0  0  0  0  0  0  0  0  0  0
  1  2  1  0  0  0  0
  2  3  1  0  0  0  0
  2  4  1  0  0  0  0
  2  5  1  0  0  0  0
  5  6  2  0  0  0  0
  5  7  1  0  0  0  0
  7  8  1  0  0  0  0
  7  9  1  0  0  0  0
  9 10  1  0  0  0  0
  9 11  1  0  0  0  0
  9 25  1  0  0  0  0
 11 12  1  0  0  0  0
 11 13  1  0  0  0  0
 11 14  1  0  0  0  0
 14 15  1  0  0  0  0
 14 23  2  0  0  0  0
 15 16  1  0  0  0  0
 15 17  2  0  0  0  0
 17 18  1  0  0  0  0
 17 19  1  0  0  0  0
 19 20  1  0  0  0  0
 19 21  2  0  0  0  0
 21 22  1  0  0  0  0
 21 23  1  0  0  0  0
 23 24  1  0  0  0  0
 25 26  2  0  0  0  0
 25 27  1  0  0  0  0
 27 28  1  0  0  0  0
 27 29  1  0  0  0  0
 29 30  1  0  0  0  0
 29 31  1  0  0  0  0
 29 32  1  0  0  0  0
M  END
$$$$

  -OEChem-04042216033D

 32 32  0     1  0  0  0  0  0999 V2000
   -3.6785   -4.0350    1.6252 H   0  0  0  0  0  0  0  0  0  0  0  0
   -3.6425   -3.1716    0.9552 C   0  0  0  0  0  0  0  0  0  0  0  0
   -4.4714   -2.5019    1.1962 H   0  0  0  0  0  0  0  0  0  0  0  0
   -3.7517   -3.5203   -0.0746 H   0  0  0  0  0  0  0  0  0  0  0  0
   -2.3226   -2.4408    1.1130 C   0  0  0  0  0  0  0  0  0  0  0  0
   -1.4973   -2.8395    1.9214 O   0  0  0  0  0  0  0  0  0  0  0  0
   -2.0698   -1.3209    0.3472 N   0  0  0  0  0  0  0  0  0  0  0  0
   -2.7999   -1.0104   -0.2891 H   0  0  0  0  0  0  0  0  0  0  0  0
   -0.7883   -0.5965    0.3133 C   0  0  1  0  0  0  0  0  0  0  0  0
   -0.1973   -0.8853    1.1879 H   0  0  0  0  0  0  0  0  0  0  0  0
    0.0447   -0.9348   -0.9469 C   0  0  0  0  0  0  0  0  0  0  0  0
   -0.2079   -0.2290   -1.7458 H   0  0  0  0  0  0  0  0  0  0  0  0
    1.1070   -0.7933   -0.7239 H   0  0  0  0  0  0  0  0  0  0  0  0
   -0.1820   -2.3341   -1.4760 C   0  0  0  0  0  0  0  0  0  0  0  0
   -1.1830   -2.5829   -2.4287 C   0  0  0  0  0  0  0  0  0  0  0  0
   -1.7832   -1.7624   -2.8105 H   0  0  0  0  0  0  0  0  0  0  0  0
   -1.4159   -3.8819   -2.8925 C   0  0  0  0  0  0  0  0  0  0  0  0
   -2.1897   -4.0641   -3.6323 H   0  0  0  0  0  0  0  0  0  0  0  0
   -0.6527   -4.9457   -2.4023 C   0  0  0  0  0  0  0  0  0  0  0  0
   -0.8324   -5.9554   -2.7596 H   0  0  0  0  0  0  0  0  0  0  0  0
    0.3402   -4.7087   -1.4468 C   0  0  0  0  0  0  0  0  0  0  0  0
    0.9284   -5.5338   -1.0566 H   0  0  0  0  0  0  0  0  0  0  0  0
    0.5723   -3.4089   -0.9845 C   0  0  0  0  0  0  0  0  0  0  0  0
    1.3331   -3.2391   -0.2284 H   0  0  0  0  0  0  0  0  0  0  0  0
   -1.0119    0.9247    0.3933 C   0  0  0  0  0  0  0  0  0  0  0  0
   -1.8787    1.4528   -0.2941 O   0  0  0  0  0  0  0  0  0  0  0  0
   -0.2381    1.7057    1.2318 N   0  0  0  0  0  0  0  0  0  0  0  0
    0.4258    1.2305    1.8368 H   0  0  0  0  0  0  0  0  0  0  0  0
   -0.4256    3.1437    1.3823 C   0  0  0  0  0  0  0  0  0  0  0  0
   -1.4335    3.3626    1.7503 H   0  0  0  0  0  0  0  0  0  0  0  0
    0.2987    3.5468    2.0964 H   0  0  0  0  0  0  0  0  0  0  0  0
   -0.2828    3.6520    0.4229 H   0  0  0  0  0  0  0  0  0  0  0  0
  1  2  1  0  0  0  0
  2  3  1  0  0  0  0
  2  4  1  0  0  0  0
  2  5  1  0  0  0  0
  5  6  2  0  0  0  0
  5  7  1  0  0  0  0
  7  8  1  0  0  0  0
  7  9  1  0  0  0  0
  9 10  1  0  0  0  0
  9 11  1  0  0  0  0
  9 25  1  0  0  0  0
 11 12  1  0  0  0  0
 11 13  1  0  0  0  0
 11 14  1  0  0  0  0
 14 15  1  0  0  0  0
 14 23  2  0  0  0  0
 15 16  1  0  0  0  0
 15 17  2  0  0  0  0
 17 18  1  0  0  0  0
 17 19  1  0  0  0  0
 19 20  1  0  0  0  0
 19 21  2  0  0  0  0
 21 22  1  0  0  0  0
 21 23  1  0  0  0  0
 23 24  1  0  0  0  0
 25 26  2  0  0  0  0
 25 27  1  0  0  0  0
 27 28  1  0  0  0  0
 27 29  1  0  0  0  0
 29 30  1  0  0  0  0
 29 31  1  0  0  0  0
 29 32  1  0  0  0  0
M  END
$$$$

  -OEChem-04042216033D

 32 32  0     1  0  0  0  0  0999 V2000
   -3.6838   -4.0363    1.6304 H   0  0  0  0  0  0  0  0  0  0  0  0
   -3.6497   -3.1669    0.9681 C   0  0  0  0  0  0  0  0  0  0  0  0
   -4.4771   -2.4987    1.2185 H   0  0  0  0  0  0  0  0  0  0  0  0
   -3.7620   -3.5063   -0.0646 H   0  0  0  0  0  0  0  0  0  0  0  0
   -2.3294   -2.4383    1.1290 C   0  0  0  0  0  0  0  0  0  0  0  0
   -1.5121   -2.8318    1.9485 O   0  0  0  0  0  0  0  0  0  0  0  0
   -2.0679   -1.3250    0.3568 N   0  0  0  0  0  0  0  0  0  0  0  0
   -2.7902   -1.0222   -0.2924 H   0  0  0  0  0  0  0  0  0  0  0  0
   -0.7860   -0.6010    0.3302 C   0  0  1  0  0  0  0  0  0  0  0  0
   -0.2000   -0.8845    1.2099 H   0  0  0  0  0  0  0  0  0  0  0  0
    0.0479   -0.9446   -0.9276 C   0  0  0  0  0  0  0  0  0  0  0  0
   -0.1957   -0.2342   -1.7252 H   0  0  0  0  0  0  0  0  0  0  0  0
    1.1101   -0.8128   -0.6991 H   0  0  0  0  0  0  0  0  0  0  0  0
   -0.1816   -2.3447   -1.4542 C   0  0  0  0  0  0  0  0  0  0  0  0
   -0.9464   -2.5535   -2.6125 C   0  0  0  0  0  0  0  0  0  0  0  0
   -1.3698   -1.7071   -3.1451 H   0  0  0  0  0  0  0  0  0  0  0  0
   -1.1734   -3.8488   -3.0899 C   0  0  0  0  0  0  0  0  0  0  0  0
   -1.7649   -4.0003   -3.9880 H   0  0  0  0  0  0  0  0  0  0  0  0
   -0.6390   -4.9478   -2.4108 C   0  0  0  0  0  0  0  0  0  0  0  0
   -0.8160   -5.9541   -2.7789 H   0  0  0  0  0  0  0  0  0  0  0  0
    0.1223   -4.7497   -1.2550 C   0  0  0  0  0  0  0  0  0  0  0  0
    0.5332   -5.6011   -0.7204 H   0  0  0  0  0  0  0  0  0  0  0  0
    0.3503   -3.4538   -0.7803 C   0  0  0  0  0  0  0  0  0  0  0  0
    0.9273   -3.3118    0.1288 H   0  0  0  0  0  0  0  0  0  0  0  0
   -1.0110    0.9208    0.3956 C   0  0  0  0  0  0  0  0  0  0  0  0
   -1.8669    1.4441   -0.3089 O   0  0  0  0  0  0  0  0  0  0  0  0
   -0.2465    1.7094    1.2355 N   0  0  0  0  0  0  0  0  0  0  0  0
    0.4102    1.2411    1.8536 H   0  0  0  0  0  0  0  0  0  0  0  0
   -0.4273    3.1504    1.3591 C   0  0  0  0  0  0  0  0  0  0  0  0
   -1.4471    3.3823    1.6841 H   0  0  0  0  0  0  0  0  0  0  0  0
    0.2717    3.5579    2.0958 H   0  0  0  0  0  0  0  0  0  0  0  0
   -0.2430    3.6423    0.3982 H   0  0  0  0  0  0  0  0  0  0  0  0
  1  2  1  0  0  0  0
  2  3  1  0  0  0  0
  2  4  1  0  0  0  0
  2  5  1  0  0  0  0
  5  6  2  0  0  0  0
  5  7  1  0  0  0  0
  7  8  1  0  0  0  0
  7  9  1  0  0  0  0
  9 10  1  0  0  0  0
  9 11  1  0  0  0  0
  9 25  1  0  0  0  0
 11 12  1  0  0  0  0
 11 13  1  0  0  0  0
 11 14  1  0  0  0  0
 14 15  1  0  0  0  0
 14 23  2  0  0  0  0
 15 16  1  0  0  0  0
 15 17  2  0  0  0  0
 17 18  1  0  0  0  0
 17 19  1  0  0  0  0
 19 20  1  0  0  0  0
 19 21  2  0  0  0  0
 21 22  1  0  0  0  0
 21 23  1  0  0  0  0
 23 24  1  0  0  0  0
 25 26  2  0  0  0  0
 25 27  1  0  0  0  0
 27 28  1  0  0  0  0
 27 29  1  0  0  0  0
 29 30  1  0  0  0  0
 29 31  1  0  0  0  0
 29 32  1  0  0  0  0
M  END
$$$$

  -OEChem-04042216033D

 32 32  0     1  0  0  0  0  0999 V2000
   -3.7577   -3.9905    1.6816 H   0  0  0  0  0  0  0  0  0  0  0  0
   -3.7023   -3.1363    1.0010 C   0  0  0  0  0  0  0  0  0  0  0  0
   -4.5356   -2.4616    1.2111 H   0  0  0  0  0  0  0  0  0  0  0  0
   -3.7848   -3.4993   -0.0265 H   0  0  0  0  0  0  0  0  0  0  0  0
   -2.3861   -2.4053    1.1839 C   0  0  0  0  0  0  0  0  0  0  0  0
   -1.5941   -2.7791    2.0368 O   0  0  0  0  0  0  0  0  0  0  0  0
   -2.0999   -1.3102    0.3944 N   0  0  0  0  0  0  0  0  0  0  0  0
   -2.8008   -1.0305   -0.2878 H   0  0  0  0  0  0  0  0  0  0  0  0
   -0.8076   -0.6038    0.3595 C   0  0  1  0  0  0  0  0  0  0  0  0
   -0.2250   -0.8823    1.2428 H   0  0  0  0  0  0  0  0  0  0  0  0
    0.0224   -0.9694   -0.8971 C   0  0  0  0  0  0  0  0  0  0  0  0
   -0.2131   -0.2572   -1.6955 H   0  0  0  0  0  0  0  0  0  0  0  0
    1.0854   -0.8470   -0.6675 H   0  0  0  0  0  0  0  0  0  0  0  0
   -0.2066   -2.3683   -1.4312 C   0  0  0  0  0  0  0  0  0  0  0  0
   -0.6855   -2.5616   -2.7365 C   0  0  0  0  0  0  0  0  0  0  0  0
   -0.9214   -1.7070   -3.3637 H   0  0  0  0  0  0  0  0  0  0  0  0
   -0.8720   -3.8527   -3.2428 C   0  0  0  0  0  0  0  0  0  0  0  0
   -1.2482   -3.9903   -4.2523 H   0  0  0  0  0  0  0  0  0  0  0  0
   -0.5714   -4.9649   -2.4511 C   0  0  0  0  0  0  0  0  0  0  0  0
   -0.7174   -5.9676   -2.8418 H   0  0  0  0  0  0  0  0  0  0  0  0
   -0.0770   -4.7839   -1.1564 C   0  0  0  0  0  0  0  0  0  0  0  0
    0.1617   -5.6437   -0.5375 H   0  0  0  0  0  0  0  0  0  0  0  0
    0.1122   -3.4926   -0.6538 C   0  0  0  0  0  0  0  0  0  0  0  0
    0.4967   -3.3654    0.3546 H   0  0  0  0  0  0  0  0  0  0  0  0
   -1.0123    0.9226    0.3965 C   0  0  0  0  0  0  0  0  0  0  0  0
   -1.8585    1.4470   -0.3188 O   0  0  0  0  0  0  0  0  0  0  0  0
   -0.2386    1.7137    1.2259 N   0  0  0  0  0  0  0  0  0  0  0  0
    0.4059    1.2442    1.8558 H   0  0  0  0  0  0  0  0  0  0  0  0
   -0.4047    3.1581    1.3351 C   0  0  0  0  0  0  0  0  0  0  0  0
   -1.4164    3.4030    1.6752 H   0  0  0  0  0  0  0  0  0  0  0  0
    0.3109    3.5674    2.0546 H   0  0  0  0  0  0  0  0  0  0  0  0
   -0.2325    3.6381    0.3660 H   0  0  0  0  0  0  0  0  0  0  0  0
  1  2  1  0  0  0  0
  2  3  1  0  0  0  0
  2  4  1  0  0  0  0
  2  5  1  0  0  0  0
  5  6  2  0  0  0  0
  5  7  1  0  0  0  0
  7  8  1  0  0  0  0
  7  9  1  0  0  0  0
  9 10  1  0  0  0  0
  9 11  1  0  0  0  0
  9 25  1  0  0  0  0
 11 12  1  0  0  0  0
 11 13  1  0  0  0  0
 11 14  1  0  0  0  0
 14 15  1  0  0  0  0
 14 23  2  0  0  0  0
 15 16  1  0  0  0  0
 15 17  2  0  0  0  0
 17 18  1  0  0  0  0
 17 19  1  0  0  0  0
 19 20  1  0  0  0  0
 19 21  2  0  0  0  0
 21 22  1  0  0  0  0
 21 23  1  0  0  0  0
 23 24  1  0  0  0  0
 25 26  2  0  0  0  0
 25 27  1  0  0  0  0
 27 28  1  0  0  0  0
 27 29  1  0  0  0  0
 29 30  1  0  0  0  0
 29 31  1  0  0  0  0
 29 32  1  0  0  0  0
M  END
$$$$

  -OEChem-04042216033D

 32 32  0     1  0  0  0  0  0999 V2000
   -3.8722   -3.9231    1.7543 H   0  0  0  0  0  0  0  0  0  0  0  0
   -3.7921   -3.0814    1.0608 C   0  0  0  0  0  0  0  0  0  0  0  0
   -4.6201   -2.3924    1.2435 H   0  0  0  0  0  0  0  0  0  0  0  0
   -3.8605   -3.4605    0.0381 H   0  0  0  0  0  0  0  0  0  0  0  0
   -2.4695   -2.3651    1.2564 C   0  0  0  0  0  0  0  0  0  0  0  0
   -1.7076   -2.7229    2.1424 O   0  0  0  0  0  0  0  0  0  0  0  0
   -2.1472   -1.2948    0.4474 N   0  0  0  0  0  0  0  0  0  0  0  0
   -2.8317   -1.0237   -0.2550 H   0  0  0  0  0  0  0  0  0  0  0  0
   -0.8399   -0.6155    0.3981 C   0  0  1  0  0  0  0  0  0  0  0  0
   -0.2608   -0.8902    1.2852 H   0  0  0  0  0  0  0  0  0  0  0  0
   -0.0156   -1.0023   -0.8603 C   0  0  0  0  0  0  0  0  0  0  0  0
   -0.2473   -0.2869   -1.6570 H   0  0  0  0  0  0  0  0  0  0  0  0
    1.0480   -0.8854   -0.6294 H   0  0  0  0  0  0  0  0  0  0  0  0
   -0.2385   -2.3950   -1.4182 C   0  0  0  0  0  0  0  0  0  0  0  0
   -0.4002   -2.5791   -2.8013 C   0  0  0  0  0  0  0  0  0  0  0  0
   -0.4350   -1.7206   -3.4658 H   0  0  0  0  0  0  0  0  0  0  0  0
   -0.5366   -3.8626   -3.3420 C   0  0  0  0  0  0  0  0  0  0  0  0
   -0.6823   -3.9883   -4.4109 H   0  0  0  0  0  0  0  0  0  0  0  0
   -0.4784   -4.9826   -2.5082 C   0  0  0  0  0  0  0  0  0  0  0  0
   -0.5841   -5.9796   -2.9257 H   0  0  0  0  0  0  0  0  0  0  0  0
   -0.2632   -4.8165   -1.1378 C   0  0  0  0  0  0  0  0  0  0  0  0
   -0.1923   -5.6830   -0.4867 H   0  0  0  0  0  0  0  0  0  0  0  0
   -0.1247   -3.5324   -0.6024 C   0  0  0  0  0  0  0  0  0  0  0  0
    0.0790   -3.4248    0.4586 H   0  0  0  0  0  0  0  0  0  0  0  0
   -1.0199    0.9152    0.4013 C   0  0  0  0  0  0  0  0  0  0  0  0
   -1.8571    1.4390   -0.3250 O   0  0  0  0  0  0  0  0  0  0  0  0
   -0.2333    1.7104    1.2143 N   0  0  0  0  0  0  0  0  0  0  0  0
    0.4046    1.2442    1.8533 H   0  0  0  0  0  0  0  0  0  0  0  0
   -0.3722    3.1597    1.2890 C   0  0  0  0  0  0  0  0  0  0  0  0
   -1.3775    3.4313    1.6278 H   0  0  0  0  0  0  0  0  0  0  0  0
    0.3546    3.5735    1.9943 H   0  0  0  0  0  0  0  0  0  0  0  0
   -0.1967    3.6123    0.3074 H   0  0  0  0  0  0  0  0  0  0  0  0
  1  2  1  0  0  0  0
  2  3  1  0  0  0  0
  2  4  1  0  0  0  0
  2  5  1  0  0  0  0
  5  6  2  0  0  0  0
  5  7  1  0  0  0  0
  7  8  1  0  0  0  0
  7  9  1  0  0  0  0
  9 10  1  0  0  0  0
  9 11  1  0  0  0  0
  9 25  1  0  0  0  0
 11 12  1  0  0  0  0
 11 13  1  0  0  0  0
 11 14  1  0  0  0  0
 14 15  1  0  0  0  0
 14 23  2  0  0  0  0
 15 16  1  0  0  0  0
 15 17  2  0  0  0  0
 17 18  1  0  0  0  0
 17 19  1  0  0  0  0
 19 20  1  0  0  0  0
 19 21  2  0  0  0  0
 21 22  1  0  0  0  0
 21 23  1  0  0  0  0
 23 24  1  0  0  0  0
 25 26  2  0  0  0  0
 25 27  1  0  0  0  0
 27 28  1  0  0  0  0
 27 29  1  0  0  0  0
 29 30  1  0  0  0  0
 29 31  1  0  0  0  0
 29 32  1  0  0  0  0
M  END
$$$$

  -OEChem-04042216033D

 32 32  0     1  0  0  0  0  0999 V2000
   -3.9933   -3.8419    1.8703 H   0  0  0  0  0  0  0  0  0  0  0  0
   -3.8966   -3.0139    1.1627 C   0  0  0  0  0  0  0  0  0  0  0  0
   -4.7150   -2.3092    1.3287 H   0  0  0  0  0  0  0  0  0  0  0  0
   -3.9655   -3.4098    0.1463 H   0  0  0  0  0  0  0  0  0  0  0  0
   -2.5639   -2.3154    1.3538 C   0  0  0  0  0  0  0  0  0  0  0  0
   -1.8216   -2.6556    2.2630 O   0  0  0  0  0  0  0  0  0  0  0  0
   -2.2116   -1.2761    0.5182 N   0  0  0  0  0  0  0  0  0  0  0  0
   -2.8893   -1.0103   -0.1932 H   0  0  0  0  0  0  0  0  0  0  0  0
   -0.8872   -0.6323    0.4387 C   0  0  1  0  0  0  0  0  0  0  0  0
   -0.3055   -0.9026    1.3254 H   0  0  0  0  0  0  0  0  0  0  0  0
   -0.0739   -1.0411   -0.8249 C   0  0  0  0  0  0  0  0  0  0  0  0
   -0.3030   -0.3215   -1.6188 H   0  0  0  0  0  0  0  0  0  0  0  0
    0.9899   -0.9279   -0.5937 H   0  0  0  0  0  0  0  0  0  0  0  0
   -0.2800   -2.4230   -1.4213 C   0  0  0  0  0  0  0  0  0  0  0  0
   -0.1093   -2.5955   -2.8059 C   0  0  0  0  0  0  0  0  0  0  0  0
    0.0583   -1.7325   -3.4435 H   0  0  0  0  0  0  0  0  0  0  0  0
   -0.1777   -3.8642   -3.3920 C   0  0  0  0  0  0  0  0  0  0  0  0
   -0.0763   -3.9721   -4.4680 H   0  0  0  0  0  0  0  0  0  0  0  0
   -0.3640   -4.9930   -2.5912 C   0  0  0  0  0  0  0  0  0  0  0  0
   -0.4153   -5.9796   -3.0419 H   0  0  0  0  0  0  0  0  0  0  0  0
   -0.4488   -4.8502   -1.2049 C   0  0  0  0  0  0  0  0  0  0  0  0
   -0.5468   -5.7274   -0.5719 H   0  0  0  0  0  0  0  0  0  0  0  0
   -0.3780   -3.5785   -0.6271 C   0  0  0  0  0  0  0  0  0  0  0  0
   -0.3639   -3.5059    0.4537 H   0  0  0  0  0  0  0  0  0  0  0  0
   -1.0382    0.9020    0.4057 C   0  0  0  0  0  0  0  0  0  0  0  0
   -1.8722    1.4266   -0.3239 O   0  0  0  0  0  0  0  0  0  0  0  0
   -0.2261    1.6988    1.1918 N   0  0  0  0  0  0  0  0  0  0  0  0
    0.4081    1.2339    1.8354 H   0  0  0  0  0  0  0  0  0  0  0  0
   -0.3178    3.1534    1.2200 C   0  0  0  0  0  0  0  0  0  0  0  0
   -1.3055    3.4689    1.5723 H   0  0  0  0  0  0  0  0  0  0  0  0
    0.4389    3.5670    1.8936 H   0  0  0  0  0  0  0  0  0  0  0  0
   -0.1510    3.5667    0.2196 H   0  0  0  0  0  0  0  0  0  0  0  0
  1  2  1  0  0  0  0
  2  3  1  0  0  0  0
  2  4  1  0  0  0  0
  2  5  1  0  0  0  0
  5  6  2  0  0  0  0
  5  7  1  0  0  0  0
  7  8  1  0  0  0  0
  7  9  1  0  0  0  0
  9 10  1  0  0  0  0
  9 11  1  0  0  0  0
  9 25  1  0  0  0  0
 11 12  1  0  0  0  0
 11 13  1  0  0  0  0
 11 14  1  0  0  0  0
 14 15  1  0  0  0  0
 14 23  2  0  0  0  0
 15 16  1  0  0  0  0
 15 17  2  0  0  0  0
 17 18  1  0  0  0  0
 17 19  1  0  0  0  0
 19 20  1  0  0  0  0
 19 21  2  0  0  0  0
 21 22  1  0  0  0  0
 21 23  1  0  0  0  0
 23 24  1  0  0  0  0
 25 26  2  0  0  0  0
 25 27  1  0  0  0  0
 27 28  1  0  0  0  0
 27 29  1  0  0  0  0
 29 30  1  0  0  0  0
 29 31  1  0  0  0  0
 29 32  1  0  0  0  0
M  END
$$$$

  -OEChem-04042216033D

 32 32  0     1  0  0  0  0  0999 V2000
   -4.1474   -3.6404    2.1588 H   0  0  0  0  0  0  0  0  0  0  0  0
   -4.0207   -2.8658    1.3974 C   0  0  0  0  0  0  0  0  0  0  0  0
   -4.7646   -2.0828    1.5636 H   0  0  0  0  0  0  0  0  0  0  0  0
   -4.1832   -3.3101    0.4124 H   0  0  0  0  0  0  0  0  0  0  0  0
   -2.6241   -2.2789    1.4757 C   0  0  0  0  0  0  0  0  0  0  0  0
   -1.8468   -2.6653    2.3353 O   0  0  0  0  0  0  0  0  0  0  0  0
   -2.2541   -1.2767    0.6034 N   0  0  0  0  0  0  0  0  0  0  0  0
   -2.9651   -0.9497   -0.0481 H   0  0  0  0  0  0  0  0  0  0  0  0
   -0.9136   -0.6771    0.4653 C   0  0  1  0  0  0  0  0  0  0  0  0
   -0.3181   -0.9375    1.3462 H   0  0  0  0  0  0  0  0  0  0  0  0
   -0.1147   -1.1021   -0.8078 C   0  0  0  0  0  0  0  0  0  0  0  0
   -0.3487   -0.3774   -1.5958 H   0  0  0  0  0  0  0  0  0  0  0  0
    0.9485   -0.9827   -0.5762 H   0  0  0  0  0  0  0  0  0  0  0  0
   -0.2838   -2.4658   -1.4621 C   0  0  0  0  0  0  0  0  0  0  0  0
    0.2198   -2.6184   -2.7669 C   0  0  0  0  0  0  0  0  0  0  0  0
    0.6030   -1.7543   -3.3016 H   0  0  0  0  0  0  0  0  0  0  0  0
    0.2126   -3.8583   -3.4142 C   0  0  0  0  0  0  0  0  0  0  0  0
    0.5736   -3.9403   -4.4352 H   0  0  0  0  0  0  0  0  0  0  0  0
   -0.2469   -4.9914   -2.7422 C   0  0  0  0  0  0  0  0  0  0  0  0
   -0.2517   -5.9574   -3.2387 H   0  0  0  0  0  0  0  0  0  0  0  0
   -0.6618   -4.8814   -1.4141 C   0  0  0  0  0  0  0  0  0  0  0  0
   -0.9678   -5.7667   -0.8644 H   0  0  0  0  0  0  0  0  0  0  0  0
   -0.6486   -3.6366   -0.7760 C   0  0  0  0  0  0  0  0  0  0  0  0
   -0.8737   -3.6187    0.2784 H   0  0  0  0  0  0  0  0  0  0  0  0
   -1.0461    0.8588    0.3943 C   0  0  0  0  0  0  0  0  0  0  0  0
   -1.9139    1.3737   -0.3024 O   0  0  0  0  0  0  0  0  0  0  0  0
   -0.2007    1.6676    1.1314 N   0  0  0  0  0  0  0  0  0  0  0  0
    0.4558    1.2131    1.7599 H   0  0  0  0  0  0  0  0  0  0  0  0
   -0.3028    3.1218    1.1505 C   0  0  0  0  0  0  0  0  0  0  0  0
   -1.2752    3.4323    1.5471 H   0  0  0  0  0  0  0  0  0  0  0  0
    0.4817    3.5483    1.7831 H   0  0  0  0  0  0  0  0  0  0  0  0
   -0.1888    3.5275    0.1397 H   0  0  0  0  0  0  0  0  0  0  0  0
  1  2  1  0  0  0  0
  2  3  1  0  0  0  0
  2  4  1  0  0  0  0
  2  5  1  0  0  0  0
  5  6  2  0  0  0  0
  5  7  1  0  0  0  0
  7  8  1  0  0  0  0
  7  9  1  0  0  0  0
  9 10  1  0  0  0  0
  9 11  1  0  0  0  0
  9 25  1  0  0  0  0
 11 12  1  0  0  0  0
 11 13  1  0  0  0  0
 11 14  1  0  0  0  0
 14 15  1  0  0  0  0
 14 23  2  0  0  0  0
 15 16  1  0  0  0  0
 15 17  2  0  0  0  0
 17 18  1  0  0  0  0
 17 19  1  0  0  0  0
 19 20  1  0  0  0  0
 19 21  2  0  0  0  0
 21 22  1  0  0  0  0
 21 23  1  0  0  0  0
 23 24  1  0  0  0  0
 25 26  2  0  0  0  0
 25 27  1  0  0  0  0
 27 28  1  0  0  0  0
 27 29  1  0  0  0  0
 29 30  1  0  0  0  0
 29 31  1  0  0  0  0
 29 32  1  0  0  0  0
M  END
$$$$

  -OEChem-04042216033D

 32 32  0     1  0  0  0  0  0999 V2000
   -4.1303   -3.5049    2.4721 H   0  0  0  0  0  0  0  0  0  0  0  0
   -4.0691   -2.6879    1.7476 C   0  0  0  0  0  0  0  0  0  0  0  0
   -4.6583   -1.8447    2.1162 H   0  0  0  0  0  0  0  0  0  0  0  0
   -4.4876   -3.0283    0.7973 H   0  0  0  0  0  0  0  0  0  0  0  0
   -2.6246   -2.2650    1.5559 C   0  0  0  0  0  0  0  0  0  0  0  0
   -1.7410   -2.8084    2.1993 O   0  0  0  0  0  0  0  0  0  0  0  0
   -2.3206   -1.2613    0.6571 N   0  0  0  0  0  0  0  0  0  0  0  0
   -3.0969   -0.7819    0.2031 H   0  0  0  0  0  0  0  0  0  0  0  0
   -0.9773   -0.7086    0.4305 C   0  0  1  0  0  0  0  0  0  0  0  0
   -0.3618   -0.9616    1.2997 H   0  0  0  0  0  0  0  0  0  0  0  0
   -0.1780   -1.1652   -0.8354 C   0  0  0  0  0  0  0  0  0  0  0  0
   -0.1761   -0.3214   -1.5349 H   0  0  0  0  0  0  0  0  0  0  0  0
    0.8575   -1.2948   -0.5046 H   0  0  0  0  0  0  0  0  0  0  0  0
   -0.5053   -2.3763   -1.7106 C   0  0  0  0  0  0  0  0  0  0  0  0
    0.3646   -2.5812   -2.7985 C   0  0  0  0  0  0  0  0  0  0  0  0
    1.1878   -1.8931   -2.9663 H   0  0  0  0  0  0  0  0  0  0  0  0
    0.2018   -3.6527   -3.6821 C   0  0  0  0  0  0  0  0  0  0  0  0
    0.8895   -3.7823   -4.5125 H   0  0  0  0  0  0  0  0  0  0  0  0
   -0.8436   -4.5558   -3.4947 C   0  0  0  0  0  0  0  0  0  0  0  0
   -0.9748   -5.3917   -4.1757 H   0  0  0  0  0  0  0  0  0  0  0  0
   -1.7181   -4.3804   -2.4226 C   0  0  0  0  0  0  0  0  0  0  0  0
   -2.5314   -5.0833   -2.2689 H   0  0  0  0  0  0  0  0  0  0  0  0
   -1.5504   -3.3060   -1.5413 C   0  0  0  0  0  0  0  0  0  0  0  0
   -2.2604   -3.2452   -0.7365 H   0  0  0  0  0  0  0  0  0  0  0  0
   -1.0871    0.8300    0.3850 C   0  0  0  0  0  0  0  0  0  0  0  0
   -2.0143    1.3647   -0.2131 O   0  0  0  0  0  0  0  0  0  0  0  0
   -0.1775    1.6165    1.0680 N   0  0  0  0  0  0  0  0  0  0  0  0
    0.5414    1.1446    1.6092 H   0  0  0  0  0  0  0  0  0  0  0  0
   -0.2624    3.0707    1.1252 C   0  0  0  0  0  0  0  0  0  0  0  0
   -1.2168    3.3828    1.5623 H   0  0  0  0  0  0  0  0  0  0  0  0
    0.5474    3.4727    1.7415 H   0  0  0  0  0  0  0  0  0  0  0  0
   -0.1775    3.4986    0.1209 H   0  0  0  0  0  0  0  0  0  0  0  0
  1  2  1  0  0  0  0
  2  3  1  0  0  0  0
  2  4  1  0  0  0  0
  2  5  1  0  0  0  0
  5  6  2  0  0  0  0
  5  7  1  0  0  0  0
  7  8  1  0  0  0  0
  7  9  1  0  0  0  0
  9 10  1  0  0  0  0
  9 11  1  0  0  0  0
  9 25  1  0  0  0  0
 11 12  1  0  0  0  0
 11 13  1  0  0  0  0
 11 14  1  0  0  0  0
 14 15  1  0  0  0  0
 14 23  2  0  0  0  0
 15 16  1  0  0  0  0
 15 17  2  0  0  0  0
 17 18  1  0  0  0  0
 17 19  1  0  0  0  0
 19 20  1  0  0  0  0
 19 21  2  0  0  0  0
 21 22  1  0  0  0  0
 21 23  1  0  0  0  0
 23 24  1  0  0  0  0
 25 26  2  0  0  0  0
 25 27  1  0  0  0  0
 27 28  1  0  0  0  0
 27 29  1  0  0  0  0
 29 30  1  0  0  0  0
 29 31  1  0  0  0  0
 29 32  1  0  0  0  0
M  END
$$$$

  -OEChem-04042216033D

 32 32  0     1  0  0  0  0  0999 V2000
   -4.0006   -3.5631    2.5118 H   0  0  0  0  0  0  0  0  0  0  0  0
   -3.9645   -2.8006    1.7288 C   0  0  0  0  0  0  0  0  0  0  0  0
   -4.6032   -1.9640    2.0222 H   0  0  0  0  0  0  0  0  0  0  0  0
   -4.3441   -3.2318    0.7996 H   0  0  0  0  0  0  0  0  0  0  0  0
   -2.5388   -2.3206    1.5321 C   0  0  0  0  0  0  0  0  0  0  0  0
   -1.6303   -2.8411    2.1600 O   0  0  0  0  0  0  0  0  0  0  0  0
   -2.2834   -1.2828    0.6577 N   0  0  0  0  0  0  0  0  0  0  0  0
   -3.0821   -0.8095    0.2380 H   0  0  0  0  0  0  0  0  0  0  0  0
   -0.9613   -0.6908    0.4205 C   0  0  1  0  0  0  0  0  0  0  0  0
   -0.3297   -0.9475    1.2769 H   0  0  0  0  0  0  0  0  0  0  0  0
   -0.1757   -1.1381   -0.8528 C   0  0  0  0  0  0  0  0  0  0  0  0
   -0.2109   -0.3059   -1.5644 H   0  0  0  0  0  0  0  0  0  0  0  0
    0.8693   -1.2379   -0.5427 H   0  0  0  0  0  0  0  0  0  0  0  0
   -0.5193   -2.3707   -1.6917 C   0  0  0  0  0  0  0  0  0  0  0  0
    0.4820   -2.7953   -2.5854 C   0  0  0  0  0  0  0  0  0  0  0  0
    1.4434   -2.2907   -2.5976 H   0  0  0  0  0  0  0  0  0  0  0  0
    0.2854   -3.8700   -3.4578 C   0  0  0  0  0  0  0  0  0  0  0  0
    1.0866   -4.1870   -4.1187 H   0  0  0  0  0  0  0  0  0  0  0  0
   -0.9419   -4.5305   -3.4822 C   0  0  0  0  0  0  0  0  0  0  0  0
   -1.0995   -5.3652   -4.1588 H   0  0  0  0  0  0  0  0  0  0  0  0
   -1.9718   -4.0971   -2.6475 C   0  0  0  0  0  0  0  0  0  0  0  0
   -2.9390   -4.5894   -2.6844 H   0  0  0  0  0  0  0  0  0  0  0  0
   -1.7699   -3.0195   -1.7768 C   0  0  0  0  0  0  0  0  0  0  0  0
   -2.6299   -2.7063   -1.2070 H   0  0  0  0  0  0  0  0  0  0  0  0
   -1.0865    0.8459    0.4175 C   0  0  0  0  0  0  0  0  0  0  0  0
   -2.0284    1.3832   -0.1543 O   0  0  0  0  0  0  0  0  0  0  0  0
   -0.1724    1.6264    1.1016 N   0  0  0  0  0  0  0  0  0  0  0  0
    0.5613    1.1502    1.6189 H   0  0  0  0  0  0  0  0  0  0  0  0
   -0.2634    3.0792    1.1826 C   0  0  0  0  0  0  0  0  0  0  0  0
   -1.2136    3.3791    1.6368 H   0  0  0  0  0  0  0  0  0  0  0  0
    0.5524    3.4758    1.7946 H   0  0  0  0  0  0  0  0  0  0  0  0
   -0.1941    3.5235    0.1841 H   0  0  0  0  0  0  0  0  0  0  0  0
  1  2  1  0  0  0  0
  2  3  1  0  0  0  0
  2  4  1  0  0  0  0
  2  5  1  0  0  0  0
  5  6  2  0  0  0  0
  5  7  1  0  0  0  0
  7  8  1  0  0  0  0
  7  9  1  0  0  0  0
  9 10  1  0  0  0  0
  9 11  1  0  0  0  0
  9 25  1  0  0  0  0
 11 12  1  0  0  0  0
 11 13  1  0  0  0  0
 11 14  1  0  0  0  0
 14 15  1  0  0  0  0
 14 23  2  0  0  0  0
 15 16  1  0  0  0  0
 15 17  2  0  0  0  0
 17 18  1  0  0  0  0
 17 19  1  0  0  0  0
 19 20  1  0  0  0  0
 19 21  2  0  0  0  0
 21 22  1  0  0  0  0
 21 23  1  0  0  0  0
 23 24  1  0  0  0  0
 25 26  2  0  0  0  0
 25 27  1  0  0  0  0
 27 28  1  0  0  0  0
 27 29  1  0  0  0  0
 29 30  1  0  0  0  0
 29 31  1  0  0  0  0
 29 32  1  0  0  0  0
M  END
$$$$

  -OEChem-04042216033D

 32 32  0     1  0  0  0  0  0999 V2000
   -3.9250   -3.6894    2.3504 H   0  0  0  0  0  0  0  0  0  0  0  0
   -3.8942   -2.8941    1.6003 C   0  0  0  0  0  0  0  0  0  0  0  0
   -4.5664   -2.0906    1.9111 H   0  0  0  0  0  0  0  0  0  0  0  0
   -4.2366   -3.2979    0.6445 H   0  0  0  0  0  0  0  0  0  0  0  0
   -2.4800   -2.3634    1.4579 C   0  0  0  0  0  0  0  0  0  0  0  0
   -1.5737   -2.8629    2.1062 O   0  0  0  0  0  0  0  0  0  0  0  0
   -2.2335   -1.3043    0.6081 N   0  0  0  0  0  0  0  0  0  0  0  0
   -3.0355   -0.8497    0.1756 H   0  0  0  0  0  0  0  0  0  0  0  0
   -0.9219   -0.6747    0.4044 C   0  0  1  0  0  0  0  0  0  0  0  0
   -0.2951   -0.9332    1.2639 H   0  0  0  0  0  0  0  0  0  0  0  0
   -0.1247   -1.1012   -0.8668 C   0  0  0  0  0  0  0  0  0  0  0  0
   -0.1696   -0.2759   -1.5857 H   0  0  0  0  0  0  0  0  0  0  0  0
    0.9230   -1.1936   -0.5640 H   0  0  0  0  0  0  0  0  0  0  0  0
   -0.5061   -2.3458   -1.6634 C   0  0  0  0  0  0  0  0  0  0  0  0
    0.5268   -3.0318   -2.3288 C   0  0  0  0  0  0  0  0  0  0  0  0
    1.5598   -2.7308   -2.1834 H   0  0  0  0  0  0  0  0  0  0  0  0
    0.2613   -4.1213   -3.1649 C   0  0  0  0  0  0  0  0  0  0  0  0
    1.0797   -4.6528   -3.6413 H   0  0  0  0  0  0  0  0  0  0  0  0
   -1.0558   -4.5196   -3.3942 C   0  0  0  0  0  0  0  0  0  0  0  0
   -1.2661   -5.3652   -4.0423 H   0  0  0  0  0  0  0  0  0  0  0  0
   -2.1026   -3.8054   -2.8104 C   0  0  0  0  0  0  0  0  0  0  0  0
   -3.1309   -4.0845   -3.0194 H   0  0  0  0  0  0  0  0  0  0  0  0
   -1.8301   -2.7146   -1.9778 C   0  0  0  0  0  0  0  0  0  0  0  0
   -2.6761   -2.1460   -1.6158 H   0  0  0  0  0  0  0  0  0  0  0  0
   -1.0773    0.8585    0.4242 C   0  0  0  0  0  0  0  0  0  0  0  0
   -2.0193    1.3844   -0.1581 O   0  0  0  0  0  0  0  0  0  0  0  0
   -0.1921    1.6471    1.1363 N   0  0  0  0  0  0  0  0  0  0  0  0
    0.5348    1.1770    1.6686 H   0  0  0  0  0  0  0  0  0  0  0  0
   -0.3209    3.0954    1.2442 C   0  0  0  0  0  0  0  0  0  0  0  0
   -1.2733    3.3618    1.7143 H   0  0  0  0  0  0  0  0  0  0  0  0
    0.4914    3.5027    1.8537 H   0  0  0  0  0  0  0  0  0  0  0  0
   -0.2752    3.5590    0.2531 H   0  0  0  0  0  0  0  0  0  0  0  0
  1  2  1  0  0  0  0
  2  3  1  0  0  0  0
  2  4  1  0  0  0  0
  2  5  1  0  0  0  0
  5  6  2  0  0  0  0
  5  7  1  0  0  0  0
  7  8  1  0  0  0  0
  7  9  1  0  0  0  0
  9 10  1  0  0  0  0
  9 11  1  0  0  0  0
  9 25  1  0  0  0  0
 11 12  1  0  0  0  0
 11 13  1  0  0  0  0
 11 14  1  0  0  0  0
 14 15  1  0  0  0  0
 14 23  2  0  0  0  0
 15 16  1  0  0  0  0
 15 17  2  0  0  0  0
 17 18  1  0  0  0  0
 17 19  1  0  0  0  0
 19 20  1  0  0  0  0
 19 21  2  0  0  0  0
 21 22  1  0  0  0  0
 21 23  1  0  0  0  0
 23 24  1  0  0  0  0
 25 26  2  0  0  0  0
 25 27  1  0  0  0  0
 27 28  1  0  0  0  0
 27 29  1  0  0  0  0
 29 30  1  0  0  0  0
 29 31  1  0  0  0  0
 29 32  1  0  0  0  0
M  END
$$$$

  -OEChem-04042216033D

 32 32  0     1  0  0  0  0  0999 V2000
   -3.8617   -3.7979    2.1621 H   0  0  0  0  0  0  0  0  0  0  0  0
   -3.8296   -2.9827    1.4339 C   0  0  0  0  0  0  0  0  0  0  0  0
   -4.5478   -2.2150    1.7319 H   0  0  0  0  0  0  0  0  0  0  0  0
   -4.1103   -3.3752    0.4535 H   0  0  0  0  0  0  0  0  0  0  0  0
   -2.4337   -2.3914    1.3705 C   0  0  0  0  0  0  0  0  0  0  0  0
   -1.5412   -2.8606    2.0598 O   0  0  0  0  0  0  0  0  0  0  0  0
   -2.1881   -1.3140    0.5441 N   0  0  0  0  0  0  0  0  0  0  0  0
   -2.9824   -0.8977    0.0629 H   0  0  0  0  0  0  0  0  0  0  0  0
   -0.8844   -0.6520    0.3857 C   0  0  1  0  0  0  0  0  0  0  0  0
   -0.2657   -0.9152    1.2496 H   0  0  0  0  0  0  0  0  0  0  0  0
   -0.0797   -1.0572   -0.8840 C   0  0  0  0  0  0  0  0  0  0  0  0
   -0.1278   -0.2341   -1.6048 H   0  0  0  0  0  0  0  0  0  0  0  0
    0.9703   -1.1542   -0.5911 H   0  0  0  0  0  0  0  0  0  0  0  0
   -0.5036   -2.3045   -1.6450 C   0  0  0  0  0  0  0  0  0  0  0  0
    0.4793   -3.2188   -2.0605 C   0  0  0  0  0  0  0  0  0  0  0  0
    1.5120   -3.0852   -1.7535 H   0  0  0  0  0  0  0  0  0  0  0  0
    0.1497   -4.3247   -2.8513 C   0  0  0  0  0  0  0  0  0  0  0  0
    0.9192   -5.0357   -3.1368 H   0  0  0  0  0  0  0  0  0  0  0  0
   -1.1664   -4.5097   -3.2806 C   0  0  0  0  0  0  0  0  0  0  0  0
   -1.4236   -5.3673   -3.8952 H   0  0  0  0  0  0  0  0  0  0  0  0
   -2.1441   -3.5734   -2.9381 C   0  0  0  0  0  0  0  0  0  0  0  0
   -3.1607   -3.6937   -3.3002 H   0  0  0  0  0  0  0  0  0  0  0  0
   -1.8083   -2.4694   -2.1474 C   0  0  0  0  0  0  0  0  0  0  0  0
   -2.5706   -1.7252   -1.9442 H   0  0  0  0  0  0  0  0  0  0  0  0
   -1.0645    0.8774    0.4228 C   0  0  0  0  0  0  0  0  0  0  0  0
   -1.9903    1.3973   -0.1901 O   0  0  0  0  0  0  0  0  0  0  0  0
   -0.2120    1.6695    1.1698 N   0  0  0  0  0  0  0  0  0  0  0  0
    0.5044    1.2032    1.7193 H   0  0  0  0  0  0  0  0  0  0  0  0
   -0.3653    3.1142    1.2913 C   0  0  0  0  0  0  0  0  0  0  0  0
   -1.3355    3.3608    1.7352 H   0  0  0  0  0  0  0  0  0  0  0  0
    0.4219    3.5260    1.9301 H   0  0  0  0  0  0  0  0  0  0  0  0
   -0.2963    3.5908    0.3077 H   0  0  0  0  0  0  0  0  0  0  0  0
  1  2  1  0  0  0  0
  2  3  1  0  0  0  0
  2  4  1  0  0  0  0
  2  5  1  0  0  0  0
  5  6  2  0  0  0  0
  5  7  1  0  0  0  0
  7  8  1  0  0  0  0
  7  9  1  0  0  0  0
  9 10  1  0  0  0  0
  9 11  1  0  0  0  0
  9 25  1  0  0  0  0
 11 12  1  0  0  0  0
 11 13  1  0  0  0  0
 11 14  1  0  0  0  0
 14 15  1  0  0  0  0
 14 23  2  0  0  0  0
 15 16  1  0  0  0  0
 15 17  2  0  0  0  0
 17 18  1  0  0  0  0
 17 19  1  0  0  0  0
 19 20  1  0  0  0  0
 19 21  2  0  0  0  0
 21 22  1  0  0  0  0
 21 23  1  0  0  0  0
 23 24  1  0  0  0  0
 25 26  2  0  0  0  0
 25 27  1  0  0  0  0
 27 28  1  0  0  0  0
 27 29  1  0  0  0  0
 29 30  1  0  0  0  0
 29 31  1  0  0  0  0
 29 32  1  0  0  0  0
M  END
$$$$

  -OEChem-04042216033D

 32 32  0     1  0  0  0  0  0999 V2000
   -3.7977   -3.9096    1.9547 H   0  0  0  0  0  0  0  0  0  0  0  0
   -3.7641   -3.0735    1.2508 C   0  0  0  0  0  0  0  0  0  0  0  0
   -4.5411   -2.3541    1.5197 H   0  0  0  0  0  0  0  0  0  0  0  0
   -3.9588   -3.4525    0.2444 H   0  0  0  0  0  0  0  0  0  0  0  0
   -2.4020   -2.4075    1.2940 C   0  0  0  0  0  0  0  0  0  0  0  0
   -1.5347   -2.8398    2.0381 O   0  0  0  0  0  0  0  0  0  0  0  0
   -2.1544   -1.3145    0.4896 N   0  0  0  0  0  0  0  0  0  0  0  0
   -2.9238   -0.9580   -0.0722 H   0  0  0  0  0  0  0  0  0  0  0  0
   -0.8577   -0.6281    0.3756 C   0  0  1  0  0  0  0  0  0  0  0  0
   -0.2474   -0.8990    1.2429 H   0  0  0  0  0  0  0  0  0  0  0  0
   -0.0481   -1.0131   -0.8940 C   0  0  0  0  0  0  0  0  0  0  0  0
   -0.0939   -0.1869   -1.6119 H   0  0  0  0  0  0  0  0  0  0  0  0
    1.0030   -1.1215   -0.6092 H   0  0  0  0  0  0  0  0  0  0  0  0
   -0.5062   -2.2571   -1.6323 C   0  0  0  0  0  0  0  0  0  0  0  0
    0.3654   -3.3459   -1.7902 C   0  0  0  0  0  0  0  0  0  0  0  0
    1.3438   -3.3340   -1.3196 H   0  0  0  0  0  0  0  0  0  0  0  0
   -0.0190   -4.4674   -2.5334 C   0  0  0  0  0  0  0  0  0  0  0  0
    0.6578   -5.3113   -2.6289 H   0  0  0  0  0  0  0  0  0  0  0  0
   -1.2695   -4.4997   -3.1565 C   0  0  0  0  0  0  0  0  0  0  0  0
   -1.5669   -5.3696   -3.7346 H   0  0  0  0  0  0  0  0  0  0  0  0
   -2.1284   -3.4029   -3.0484 C   0  0  0  0  0  0  0  0  0  0  0  0
   -3.0911   -3.4150   -3.5508 H   0  0  0  0  0  0  0  0  0  0  0  0
   -1.7407   -2.2834   -2.3049 C   0  0  0  0  0  0  0  0  0  0  0  0
   -2.4004   -1.4222   -2.2553 H   0  0  0  0  0  0  0  0  0  0  0  0
   -1.0546    0.8983    0.4283 C   0  0  0  0  0  0  0  0  0  0  0  0
   -1.9507    1.4203   -0.2256 O   0  0  0  0  0  0  0  0  0  0  0  0
   -0.2312    1.6893    1.2084 N   0  0  0  0  0  0  0  0  0  0  0  0
    0.4655    1.2230    1.7828 H   0  0  0  0  0  0  0  0  0  0  0  0
   -0.3762    3.1363    1.3095 C   0  0  0  0  0  0  0  0  0  0  0  0
   -1.3634    3.3959    1.7063 H   0  0  0  0  0  0  0  0  0  0  0  0
    0.3852    3.5475    1.9792 H   0  0  0  0  0  0  0  0  0  0  0  0
   -0.2579    3.6022    0.3255 H   0  0  0  0  0  0  0  0  0  0  0  0
  1  2  1  0  0  0  0
  2  3  1  0  0  0  0
  2  4  1  0  0  0  0
  2  5  1  0  0  0  0
  5  6  2  0  0  0  0
  5  7  1  0  0  0  0
  7  8  1  0  0  0  0
  7  9  1  0  0  0  0
  9 10  1  0  0  0  0
  9 11  1  0  0  0  0
  9 25  1  0  0  0  0
 11 12  1  0  0  0  0
 11 13  1  0  0  0  0
 11 14  1  0  0  0  0
 14 15  1  0  0  0  0
 14 23  2  0  0  0  0
 15 16  1  0  0  0  0
 15 17  2  0  0  0  0
 17 18  1  0  0  0  0
 17 19  1  0  0  0  0
 19 20  1  0  0  0  0
 19 21  2  0  0  0  0
 21 22  1  0  0  0  0
 21 23  1  0  0  0  0
 23 24  1  0  0  0  0
 25 26  2  0  0  0  0
 25 27  1  0  0  0  0
 27 28  1  0  0  0  0
 27 29  1  0  0  0  0
 29 30  1  0  0  0  0
 29 31  1  0  0  0  0
 29 32  1  0  0  0  0
M  END
$$$$

  -OEChem-04042216033D

 32 32  0     1  0  0  0  0  0999 V2000
   -3.7377   -3.9834    1.7902 H   0  0  0  0  0  0  0  0  0  0  0  0
   -3.7111   -3.1276    1.1099 C   0  0  0  0  0  0  0  0  0  0  0  0
   -4.5264   -2.4467    1.3659 H   0  0  0  0  0  0  0  0  0  0  0  0
   -3.8505   -3.4865    0.0869 H   0  0  0  0  0  0  0  0  0  0  0  0
   -2.3795   -2.4106    1.2248 C   0  0  0  0  0  0  0  0  0  0  0  0
   -1.5335   -2.8179    2.0069 O   0  0  0  0  0  0  0  0  0  0  0  0
   -2.1298   -1.3070    0.4354 N   0  0  0  0  0  0  0  0  0  0  0  0
   -2.8700   -0.9972   -0.1895 H   0  0  0  0  0  0  0  0  0  0  0  0
   -0.8369   -0.6072    0.3554 C   0  0  1  0  0  0  0  0  0  0  0  0
   -0.2349   -0.8852    1.2260 H   0  0  0  0  0  0  0  0  0  0  0  0
   -0.0221   -0.9819   -0.9117 C   0  0  0  0  0  0  0  0  0  0  0  0
   -0.0600   -0.1528   -1.6270 H   0  0  0  0  0  0  0  0  0  0  0  0
    1.0283   -1.1037   -0.6298 H   0  0  0  0  0  0  0  0  0  0  0  0
   -0.5029   -2.2230   -1.6349 C   0  0  0  0  0  0  0  0  0  0  0  0
    0.2057   -3.4291   -1.5345 C   0  0  0  0  0  0  0  0  0  0  0  0
    1.0840   -3.4930   -0.8992 H   0  0  0  0  0  0  0  0  0  0  0  0
   -0.2230   -4.5647   -2.2307 C   0  0  0  0  0  0  0  0  0  0  0  0
    0.3243   -5.4977   -2.1334 H   0  0  0  0  0  0  0  0  0  0  0  0
   -1.3530   -4.4982   -3.0514 C   0  0  0  0  0  0  0  0  0  0  0  0
   -1.6829   -5.3790   -3.5944 H   0  0  0  0  0  0  0  0  0  0  0  0
   -2.0515   -3.2942   -3.1788 C   0  0  0  0  0  0  0  0  0  0  0  0
   -2.9222   -3.2361   -3.8253 H   0  0  0  0  0  0  0  0  0  0  0  0
   -1.6234   -2.1612   -2.4796 C   0  0  0  0  0  0  0  0  0  0  0  0
   -2.1616   -1.2246   -2.5943 H   0  0  0  0  0  0  0  0  0  0  0  0
   -1.0395    0.9180    0.4190 C   0  0  0  0  0  0  0  0  0  0  0  0
   -1.9101    1.4472   -0.2628 O   0  0  0  0  0  0  0  0  0  0  0  0
   -0.2342    1.7026    1.2241 N   0  0  0  0  0  0  0  0  0  0  0  0
    0.4361    1.2298    1.8240 H   0  0  0  0  0  0  0  0  0  0  0  0
   -0.3839    3.1484    1.3358 C   0  0  0  0  0  0  0  0  0  0  0  0
   -1.3830    3.4021    1.7053 H   0  0  0  0  0  0  0  0  0  0  0  0
    0.3564    3.5535    2.0325 H   0  0  0  0  0  0  0  0  0  0  0  0
   -0.2369    3.6248    0.3607 H   0  0  0  0  0  0  0  0  0  0  0  0
  1  2  1  0  0  0  0
  2  3  1  0  0  0  0
  2  4  1  0  0  0  0
  2  5  1  0  0  0  0
  5  6  2  0  0  0  0
  5  7  1  0  0  0  0
  7  8  1  0  0  0  0
  7  9  1  0  0  0  0
  9 10  1  0  0  0  0
  9 11  1  0  0  0  0
  9 25  1  0  0  0  0
 11 12  1  0  0  0  0
 11 13  1  0  0  0  0
 11 14  1  0  0  0  0
 14 15  1  0  0  0  0
 14 23  2  0  0  0  0
 15 16  1  0  0  0  0
 15 17  2  0  0  0  0
 17 18  1  0  0  0  0
 17 19  1  0  0  0  0
 19 20  1  0  0  0  0
 19 21  2  0  0  0  0
 21 22  1  0  0  0  0
 21 23  1  0  0  0  0
 23 24  1  0  0  0  0
 25 26  2  0  0  0  0
 25 27  1  0  0  0  0
 27 28  1  0  0  0  0
 27 29  1  0  0  0  0
 29 30  1  0  0  0  0
 29 31  1  0  0  0  0
 29 32  1  0  0  0  0
M  END
$$$$

  -OEChem-04042216033D

 32 32  0     1  0  0  0  0  0999 V2000
   -3.7223   -4.0068    1.6918 H   0  0  0  0  0  0  0  0  0  0  0  0
   -3.6895   -3.1425    1.0229 C   0  0  0  0  0  0  0  0  0  0  0  0
   -4.5148   -2.4713    1.2716 H   0  0  0  0  0  0  0  0  0  0  0  0
   -3.8072   -3.4888   -0.0069 H   0  0  0  0  0  0  0  0  0  0  0  0
   -2.3667   -2.4155    1.1705 C   0  0  0  0  0  0  0  0  0  0  0  0
   -1.5292   -2.8251    1.9609 O   0  0  0  0  0  0  0  0  0  0  0  0
   -2.1124   -1.3043    0.3936 N   0  0  0  0  0  0  0  0  0  0  0  0
   -2.8375   -1.0083   -0.2556 H   0  0  0  0  0  0  0  0  0  0  0  0
   -0.8218   -0.5973    0.3362 C   0  0  1  0  0  0  0  0  0  0  0  0
   -0.2267   -0.8813    1.2096 H   0  0  0  0  0  0  0  0  0  0  0  0
   -0.0005   -0.9635   -0.9275 C   0  0  0  0  0  0  0  0  0  0  0  0
   -0.0277   -0.1292   -1.6368 H   0  0  0  0  0  0  0  0  0  0  0  0
    1.0474   -1.0983   -0.6418 H   0  0  0  0  0  0  0  0  0  0  0  0
   -0.4891   -2.2019   -1.6474 C   0  0  0  0  0  0  0  0  0  0  0  0
    0.0138   -3.4667   -1.3106 C   0  0  0  0  0  0  0  0  0  0  0  0
    0.7506   -3.5654   -0.5186 H   0  0  0  0  0  0  0  0  0  0  0  0
   -0.4450   -4.6108   -1.9721 C   0  0  0  0  0  0  0  0  0  0  0  0
   -0.0559   -5.5868   -1.6974 H   0  0  0  0  0  0  0  0  0  0  0  0
   -1.4049   -4.4978   -2.9827 C   0  0  0  0  0  0  0  0  0  0  0  0
   -1.7587   -5.3861   -3.4979 H   0  0  0  0  0  0  0  0  0  0  0  0
   -1.9065   -3.2398   -3.3303 C   0  0  0  0  0  0  0  0  0  0  0  0
   -2.6495   -3.1487   -4.1171 H   0  0  0  0  0  0  0  0  0  0  0  0
   -1.4490   -2.0969   -2.6660 C   0  0  0  0  0  0  0  0  0  0  0  0
   -1.8429   -1.1224   -2.9404 H   0  0  0  0  0  0  0  0  0  0  0  0
   -1.0284    0.9270    0.4093 C   0  0  0  0  0  0  0  0  0  0  0  0
   -1.8887    1.4622   -0.2809 O   0  0  0  0  0  0  0  0  0  0  0  0
   -0.2344    1.7051    1.2315 N   0  0  0  0  0  0  0  0  0  0  0  0
    0.4301    1.2274    1.8337 H   0  0  0  0  0  0  0  0  0  0  0  0
   -0.3910    3.1488    1.3592 C   0  0  0  0  0  0  0  0  0  0  0  0
   -1.3971    3.3960    1.7143 H   0  0  0  0  0  0  0  0  0  0  0  0
    0.3354    3.5462    2.0745 H   0  0  0  0  0  0  0  0  0  0  0  0
   -0.2276    3.6383    0.3932 H   0  0  0  0  0  0  0  0  0  0  0  0
  1  2  1  0  0  0  0
  2  3  1  0  0  0  0
  2  4  1  0  0  0  0
  2  5  1  0  0  0  0
  5  6  2  0  0  0  0
  5  7  1  0  0  0  0
  7  8  1  0  0  0  0
  7  9  1  0  0  0  0
  9 10  1  0  0  0  0
  9 11  1  0  0  0  0
  9 25  1  0  0  0  0
 11 12  1  0  0  0  0
 11 13  1  0  0  0  0
 11 14  1  0  0  0  0
 14 15  1  0  0  0  0
 14 23  2  0  0  0  0
 15 16  1  0  0  0  0
 15 17  2  0  0  0  0
 17 18  1  0  0  0  0
 17 19  1  0  0  0  0
 19 20  1  0  0  0  0
 19 21  2  0  0  0  0
 21 22  1  0  0  0  0
 21 23  1  0  0  0  0
 23 24  1  0  0  0  0
 25 26  2  0  0  0  0
 25 27  1  0  0  0  0
 27 28  1  0  0  0  0
 27 29  1  0  0  0  0
 29 30  1  0  0  0  0
 29 31  1  0  0  0  0
 29 32  1  0  0  0  0
M  END
$$$$

  -OEChem-04042216033D

 32 32  0     1  0  0  0  0  0999 V2000
   -3.7408   -3.9974    1.6865 H   0  0  0  0  0  0  0  0  0  0  0  0
   -3.7016   -3.1344    1.0162 C   0  0  0  0  0  0  0  0  0  0  0  0
   -4.5237   -2.4583    1.2625 H   0  0  0  0  0  0  0  0  0  0  0  0
   -3.8198   -3.4821   -0.0132 H   0  0  0  0  0  0  0  0  0  0  0  0
   -2.3749   -2.4147    1.1655 C   0  0  0  0  0  0  0  0  0  0  0  0
   -1.5409   -2.8288    1.9575 O   0  0  0  0  0  0  0  0  0  0  0  0
   -2.1113   -1.3051    0.3895 N   0  0  0  0  0  0  0  0  0  0  0  0
   -2.8318   -1.0073   -0.2643 H   0  0  0  0  0  0  0  0  0  0  0  0
   -0.8193   -0.5997    0.3362 C   0  0  1  0  0  0  0  0  0  0  0  0
   -0.2269   -0.8845    1.2111 H   0  0  0  0  0  0  0  0  0  0  0  0
    0.0056   -0.9620   -0.9275 C   0  0  0  0  0  0  0  0  0  0  0  0
   -0.0128   -0.1203   -1.6282 H   0  0  0  0  0  0  0  0  0  0  0  0
    1.0510   -1.1047   -0.6367 H   0  0  0  0  0  0  0  0  0  0  0  0
   -0.4731   -2.1974   -1.6605 C   0  0  0  0  0  0  0  0  0  0  0  0
   -0.2165   -3.4754   -1.1413 C   0  0  0  0  0  0  0  0  0  0  0  0
    0.3350   -3.5815   -0.2110 H   0  0  0  0  0  0  0  0  0  0  0  0
   -0.6837   -4.6173   -1.7998 C   0  0  0  0  0  0  0  0  0  0  0  0
   -0.4828   -5.6006   -1.3847 H   0  0  0  0  0  0  0  0  0  0  0  0
   -1.4111   -4.4911   -2.9871 C   0  0  0  0  0  0  0  0  0  0  0  0
   -1.7722   -5.3776   -3.5001 H   0  0  0  0  0  0  0  0  0  0  0  0
   -1.6733   -3.2219   -3.5121 C   0  0  0  0  0  0  0  0  0  0  0  0
   -2.2397   -3.1211   -4.4332 H   0  0  0  0  0  0  0  0  0  0  0  0
   -1.2076   -2.0805   -2.8503 C   0  0  0  0  0  0  0  0  0  0  0  0
   -1.4242   -1.0990   -3.2622 H   0  0  0  0  0  0  0  0  0  0  0  0
   -1.0266    0.9250    0.4070 C   0  0  0  0  0  0  0  0  0  0  0  0
   -1.8867    1.4602   -0.2833 O   0  0  0  0  0  0  0  0  0  0  0  0
   -0.2353    1.7033    1.2318 N   0  0  0  0  0  0  0  0  0  0  0  0
    0.4303    1.2264    1.8335 H   0  0  0  0  0  0  0  0  0  0  0  0
   -0.3921    3.1469    1.3583 C   0  0  0  0  0  0  0  0  0  0  0  0
   -1.4012    3.3946    1.7045 H   0  0  0  0  0  0  0  0  0  0  0  0
    0.3280    3.5440    2.0800 H   0  0  0  0  0  0  0  0  0  0  0  0
   -0.2198    3.6360    0.3938 H   0  0  0  0  0  0  0  0  0  0  0  0
  1  2  1  0  0  0  0
  2  3  1  0  0  0  0
  2  4  1  0  0  0  0
  2  5  1  0  0  0  0
  5  6  2  0  0  0  0
  5  7  1  0  0  0  0
  7  8  1  0  0  0  0
  7  9  1  0  0  0  0
  9 10  1  0  0  0  0
  9 11  1  0  0  0  0
  9 25  1  0  0  0  0
 11 12  1  0  0  0  0
 11 13  1  0  0  0  0
 11 14  1  0  0  0  0
 14 15  1  0  0  0  0
 14 23  2  0  0  0  0
 15 16  1  0  0  0  0
 15 17  2  0  0  0  0
 17 18  1  0  0  0  0
 17 19  1  0  0  0  0
 19 20  1  0  0  0  0
 19 21  2  0  0  0  0
 21 22  1  0  0  0  0
 21 23  1  0  0  0  0
 23 24  1  0  0  0  0
 25 26  2  0  0  0  0
 25 27  1  0  0  0  0
 27 28  1  0  0  0  0
 27 29  1  0  0  0  0
 29 30  1  0  0  0  0
 29 31  1  0  0  0  0
 29 32  1  0  0  0  0
M  END
$$$$

  -OEChem-04042216033D

 32 32  0     1  0  0  0  0  0999 V2000
   -3.8144   -3.9377    1.7973 H   0  0  0  0  0  0  0  0  0  0  0  0
   -3.7529   -3.0960    1.1019 C   0  0  0  0  0  0  0  0  0  0  0  0
   -4.5609   -2.3946    1.3235 H   0  0  0  0  0  0  0  0  0  0  0  0
   -3.8741   -3.4710    0.0825 H   0  0  0  0  0  0  0  0  0  0  0  0
   -2.4118   -2.4006    1.2379 C   0  0  0  0  0  0  0  0  0  0  0  0
   -1.5893   -2.8094    2.0443 O   0  0  0  0  0  0  0  0  0  0  0  0
   -2.1269   -1.3115    0.4412 N   0  0  0  0  0  0  0  0  0  0  0  0
   -2.8444   -1.0157   -0.2172 H   0  0  0  0  0  0  0  0  0  0  0  0
   -0.8286   -0.6191    0.3672 C   0  0  1  0  0  0  0  0  0  0  0  0
   -0.2323   -0.8936    1.2428 H   0  0  0  0  0  0  0  0  0  0  0  0
   -0.0075   -0.9842   -0.9027 C   0  0  0  0  0  0  0  0  0  0  0  0
   -0.0208   -0.1340   -1.5934 H   0  0  0  0  0  0  0  0  0  0  0  0
    1.0363   -1.1267   -0.6069 H   0  0  0  0  0  0  0  0  0  0  0  0
   -0.4538   -2.2147   -1.6698 C   0  0  0  0  0  0  0  0  0  0  0  0
   -0.4721   -3.4799   -1.0607 C   0  0  0  0  0  0  0  0  0  0  0  0
   -0.1257   -3.5931   -0.0370 H   0  0  0  0  0  0  0  0  0  0  0  0
   -0.9214   -4.6046   -1.7599 C   0  0  0  0  0  0  0  0  0  0  0  0
   -0.9221   -5.5769   -1.2761 H   0  0  0  0  0  0  0  0  0  0  0  0
   -1.3652   -4.4757   -3.0789 C   0  0  0  0  0  0  0  0  0  0  0  0
   -1.7129   -5.3487   -3.6239 H   0  0  0  0  0  0  0  0  0  0  0  0
   -1.3592   -3.2208   -3.6948 C   0  0  0  0  0  0  0  0  0  0  0  0
   -1.7065   -3.1165   -4.7185 H   0  0  0  0  0  0  0  0  0  0  0  0
   -0.9079   -2.0974   -2.9931 C   0  0  0  0  0  0  0  0  0  0  0  0
   -0.9193   -1.1280   -3.4827 H   0  0  0  0  0  0  0  0  0  0  0  0
   -1.0330    0.9080    0.4066 C   0  0  0  0  0  0  0  0  0  0  0  0
   -1.8972    1.4318   -0.2874 O   0  0  0  0  0  0  0  0  0  0  0  0
   -0.2361    1.7009    1.2122 N   0  0  0  0  0  0  0  0  0  0  0  0
    0.4283    1.2343    1.8231 H   0  0  0  0  0  0  0  0  0  0  0  0
   -0.3926    3.1465    1.3147 C   0  0  0  0  0  0  0  0  0  0  0  0
   -1.3923    3.3985    1.6837 H   0  0  0  0  0  0  0  0  0  0  0  0
    0.3466    3.5590    2.0082 H   0  0  0  0  0  0  0  0  0  0  0  0
   -0.2484    3.6171    0.3364 H   0  0  0  0  0  0  0  0  0  0  0  0
  1  2  1  0  0  0  0
  2  3  1  0  0  0  0
  2  4  1  0  0  0  0
  2  5  1  0  0  0  0
  5  6  2  0  0  0  0
  5  7  1  0  0  0  0
  7  8  1  0  0  0  0
  7  9  1  0  0  0  0
  9 10  1  0  0  0  0
  9 11  1  0  0  0  0
  9 25  1  0  0  0  0
 11 12  1  0  0  0  0
 11 13  1  0  0  0  0
 11 14  1  0  0  0  0
 14 15  1  0  0  0  0
 14 23  2  0  0  0  0
 15 16  1  0  0  0  0
 15 17  2  0  0  0  0
 17 18  1  0  0  0  0
 17 19  1  0  0  0  0
 19 20  1  0  0  0  0
 19 21  2  0  0  0  0
 21 22  1  0  0  0  0
 21 23  1  0  0  0  0
 23 24  1  0  0  0  0
 25 26  2  0  0  0  0
 25 27  1  0  0  0  0
 27 28  1  0  0  0  0
 27 29  1  0  0  0  0
 29 30  1  0  0  0  0
 29 31  1  0  0  0  0
 29 32  1  0  0  0  0
M  END
$$$$

  -OEChem-04042216033D

 32 32  0     1  0  0  0  0  0999 V2000
   -3.8939   -3.8543    1.9847 H   0  0  0  0  0  0  0  0  0  0  0  0
   -3.8256   -3.0298    1.2697 C   0  0  0  0  0  0  0  0  0  0  0  0
   -4.6088   -2.3018    1.4946 H   0  0  0  0  0  0  0  0  0  0  0  0
   -3.9810   -3.4227    0.2618 H   0  0  0  0  0  0  0  0  0  0  0  0
   -2.4626   -2.3702    1.3595 C   0  0  0  0  0  0  0  0  0  0  0  0
   -1.6404   -2.7721    2.1692 O   0  0  0  0  0  0  0  0  0  0  0  0
   -2.1593   -1.3154    0.5243 N   0  0  0  0  0  0  0  0  0  0  0  0
   -2.8875   -1.0061   -0.1167 H   0  0  0  0  0  0  0  0  0  0  0  0
   -0.8502   -0.6493    0.4086 C   0  0  1  0  0  0  0  0  0  0  0  0
   -0.2476   -0.9035    1.2861 H   0  0  0  0  0  0  0  0  0  0  0  0
   -0.0304   -1.0301   -0.8642 C   0  0  0  0  0  0  0  0  0  0  0  0
   -0.0366   -0.1745   -1.5483 H   0  0  0  0  0  0  0  0  0  0  0  0
    1.0106   -1.1670   -0.5558 H   0  0  0  0  0  0  0  0  0  0  0  0
   -0.4270   -2.2570   -1.6732 C   0  0  0  0  0  0  0  0  0  0  0  0
   -0.7375   -3.4906   -1.0774 C   0  0  0  0  0  0  0  0  0  0  0  0
   -0.6031   -3.6282   -0.0104 H   0  0  0  0  0  0  0  0  0  0  0  0
   -1.1636   -4.5782   -1.8466 C   0  0  0  0  0  0  0  0  0  0  0  0
   -1.3848   -5.5270   -1.3666 H   0  0  0  0  0  0  0  0  0  0  0  0
   -1.2922   -4.4472   -3.2312 C   0  0  0  0  0  0  0  0  0  0  0  0
   -1.6226   -5.2908   -3.8303 H   0  0  0  0  0  0  0  0  0  0  0  0
   -0.9877   -3.2288   -3.8425 C   0  0  0  0  0  0  0  0  0  0  0  0
   -1.0866   -3.1220   -4.9187 H   0  0  0  0  0  0  0  0  0  0  0  0
   -0.5611   -2.1439   -3.0683 C   0  0  0  0  0  0  0  0  0  0  0  0
   -0.3448   -1.2019   -3.5635 H   0  0  0  0  0  0  0  0  0  0  0  0
   -1.0503    0.8803    0.4003 C   0  0  0  0  0  0  0  0  0  0  0  0
   -1.9304    1.3848   -0.2882 O   0  0  0  0  0  0  0  0  0  0  0  0
   -0.2392    1.6958    1.1682 N   0  0  0  0  0  0  0  0  0  0  0  0
    0.4348    1.2463    1.7815 H   0  0  0  0  0  0  0  0  0  0  0  0
   -0.3946    3.1440    1.2336 C   0  0  0  0  0  0  0  0  0  0  0  0
   -1.3898    3.4067    1.6079 H   0  0  0  0  0  0  0  0  0  0  0  0
    0.3529    3.5746    1.9067 H   0  0  0  0  0  0  0  0  0  0  0  0
   -0.2618    3.5887    0.2417 H   0  0  0  0  0  0  0  0  0  0  0  0
  1  2  1  0  0  0  0
  2  3  1  0  0  0  0
  2  4  1  0  0  0  0
  2  5  1  0  0  0  0
  5  6  2  0  0  0  0
  5  7  1  0  0  0  0
  7  8  1  0  0  0  0
  7  9  1  0  0  0  0
  9 10  1  0  0  0  0
  9 11  1  0  0  0  0
  9 25  1  0  0  0  0
 11 12  1  0  0  0  0
 11 13  1  0  0  0  0
 11 14  1  0  0  0  0
 14 15  1  0  0  0  0
 14 23  2  0  0  0  0
 15 16  1  0  0  0  0
 15 17  2  0  0  0  0
 17 18  1  0  0  0  0
 17 19  1  0  0  0  0
 19 20  1  0  0  0  0
 19 21  2  0  0  0  0
 21 22  1  0  0  0  0
 21 23  1  0  0  0  0
 23 24  1  0  0  0  0
 25 26  2  0  0  0  0
 25 27  1  0  0  0  0
 27 28  1  0  0  0  0
 27 29  1  0  0  0  0
 29 30  1  0  0  0  0
 29 31  1  0  0  0  0
 29 32  1  0  0  0  0
M  END
$$$$

  -OEChem-04042216033D

 32 32  0     1  0  0  0  0  0999 V2000
   -3.9862   -3.7185    2.2493 H   0  0  0  0  0  0  0  0  0  0  0  0
   -3.9208   -2.9127    1.5127 C   0  0  0  0  0  0  0  0  0  0  0  0
   -4.6395   -2.1332    1.7774 H   0  0  0  0  0  0  0  0  0  0  0  0
   -4.1744   -3.3138    0.5282 H   0  0  0  0  0  0  0  0  0  0  0  0
   -2.5176   -2.3369    1.4899 C   0  0  0  0  0  0  0  0  0  0  0  0
   -1.6648   -2.7740    2.2474 O   0  0  0  0  0  0  0  0  0  0  0  0
   -2.2115   -1.3166    0.6136 N   0  0  0  0  0  0  0  0  0  0  0  0
   -2.9672   -0.9607    0.0304 H   0  0  0  0  0  0  0  0  0  0  0  0
   -0.8913   -0.6863    0.4390 C   0  0  1  0  0  0  0  0  0  0  0  0
   -0.2756   -0.9232    1.3124 H   0  0  0  0  0  0  0  0  0  0  0  0
   -0.0807   -1.0879   -0.8387 C   0  0  0  0  0  0  0  0  0  0  0  0
   -0.0935   -0.2313   -1.5217 H   0  0  0  0  0  0  0  0  0  0  0  0
    0.9605   -1.2134   -0.5261 H   0  0  0  0  0  0  0  0  0  0  0  0
   -0.4304   -2.3086   -1.6853 C   0  0  0  0  0  0  0  0  0  0  0  0
   -1.0177   -3.4856   -1.1913 C   0  0  0  0  0  0  0  0  0  0  0  0
   -1.1373   -3.6395   -0.1294 H   0  0  0  0  0  0  0  0  0  0  0  0
   -1.3771   -4.5338   -2.0450 C   0  0  0  0  0  0  0  0  0  0  0  0
   -1.8130   -5.4401   -1.6350 H   0  0  0  0  0  0  0  0  0  0  0  0
   -1.1585   -4.4237   -3.4190 C   0  0  0  0  0  0  0  0  0  0  0  0
   -1.4353   -5.2371   -4.0833 H   0  0  0  0  0  0  0  0  0  0  0  0
   -0.5704   -3.2671   -3.9328 C   0  0  0  0  0  0  0  0  0  0  0  0
   -0.3935   -3.1759   -5.0004 H   0  0  0  0  0  0  0  0  0  0  0  0
   -0.2125   -2.2233   -3.0730 C   0  0  0  0  0  0  0  0  0  0  0  0
    0.2324   -1.3297   -3.5004 H   0  0  0  0  0  0  0  0  0  0  0  0
   -1.0784    0.8452    0.3912 C   0  0  0  0  0  0  0  0  0  0  0  0
   -1.9863    1.3375   -0.2696 O   0  0  0  0  0  0  0  0  0  0  0  0
   -0.2369    1.6743    1.1103 N   0  0  0  0  0  0  0  0  0  0  0  0
    0.4634    1.2361    1.7019 H   0  0  0  0  0  0  0  0  0  0  0  0
   -0.3829    3.1244    1.1470 C   0  0  0  0  0  0  0  0  0  0  0  0
   -1.3639    3.4015    1.5470 H   0  0  0  0  0  0  0  0  0  0  0  0
    0.3878    3.5659    1.7860 H   0  0  0  0  0  0  0  0  0  0  0  0
   -0.2803    3.5452    0.1412 H   0  0  0  0  0  0  0  0  0  0  0  0
  1  2  1  0  0  0  0
  2  3  1  0  0  0  0
  2  4  1  0  0  0  0
  2  5  1  0  0  0  0
  5  6  2  0  0  0  0
  5  7  1  0  0  0  0
  7  8  1  0  0  0  0
  7  9  1  0  0  0  0
  9 10  1  0  0  0  0
  9 11  1  0  0  0  0
  9 25  1  0  0  0  0
 11 12  1  0  0  0  0
 11 13  1  0  0  0  0
 11 14  1  0  0  0  0
 14 15  1  0  0  0  0
 14 23  2  0  0  0  0
 15 16  1  0  0  0  0
 15 17  2  0  0  0  0
 17 18  1  0  0  0  0
 17 19  1  0  0  0  0
 19 20  1  0  0  0  0
 19 21  2  0  0  0  0
 21 22  1  0  0  0  0
 21 23  1  0  0  0  0
 23 24  1  0  0  0  0
 25 26  2  0  0  0  0
 25 27  1  0  0  0  0
 27 28  1  0  0  0  0
 27 29  1  0  0  0  0
 29 30  1  0  0  0  0
 29 31  1  0  0  0  0
 29 32  1  0  0  0  0
M  END
$$$$

  -OEChem-04042216033D

 32 32  0     1  0  0  0  0  0999 V2000
   -3.9810   -3.6358    2.4872 H   0  0  0  0  0  0  0  0  0  0  0  0
   -3.9496   -2.8218    1.7576 C   0  0  0  0  0  0  0  0  0  0  0  0
   -4.5875   -2.0074    2.1097 H   0  0  0  0  0  0  0  0  0  0  0  0
   -4.3332   -3.1895    0.8027 H   0  0  0  0  0  0  0  0  0  0  0  0
   -2.5260   -2.3264    1.5866 C   0  0  0  0  0  0  0  0  0  0  0  0
   -1.6234   -2.8253    2.2402 O   0  0  0  0  0  0  0  0  0  0  0  0
   -2.2580   -1.3145    0.6868 N   0  0  0  0  0  0  0  0  0  0  0  0
   -3.0500   -0.8934    0.2030 H   0  0  0  0  0  0  0  0  0  0  0  0
   -0.9370   -0.7125    0.4420 C   0  0  1  0  0  0  0  0  0  0  0  0
   -0.2923   -0.9498    1.2942 H   0  0  0  0  0  0  0  0  0  0  0  0
   -0.1617   -1.1228   -0.8562 C   0  0  0  0  0  0  0  0  0  0  0  0
   -0.1986   -0.2649   -1.5373 H   0  0  0  0  0  0  0  0  0  0  0  0
    0.8866   -1.2368   -0.5626 H   0  0  0  0  0  0  0  0  0  0  0  0
   -0.4935   -2.3313   -1.7316 C   0  0  0  0  0  0  0  0  0  0  0  0
   -1.3157   -3.4202   -1.3887 C   0  0  0  0  0  0  0  0  0  0  0  0
   -1.7259   -3.5348   -0.4010 H   0  0  0  0  0  0  0  0  0  0  0  0
   -1.5832   -4.4470   -2.3014 C   0  0  0  0  0  0  0  0  0  0  0  0
   -2.2120   -5.2819   -2.0070 H   0  0  0  0  0  0  0  0  0  0  0  0
   -1.0336   -4.4093   -3.5830 C   0  0  0  0  0  0  0  0  0  0  0  0
   -1.2409   -5.2069   -4.2904 H   0  0  0  0  0  0  0  0  0  0  0  0
   -0.2090   -3.3448   -3.9456 C   0  0  0  0  0  0  0  0  0  0  0  0
    0.2264   -3.3097   -4.9398 H   0  0  0  0  0  0  0  0  0  0  0  0
    0.0542   -2.3219   -3.0288 C   0  0  0  0  0  0  0  0  0  0  0  0
    0.6937   -1.5011   -3.3399 H   0  0  0  0  0  0  0  0  0  0  0  0
   -1.1062    0.8216    0.3988 C   0  0  0  0  0  0  0  0  0  0  0  0
   -2.0508    1.3233   -0.2008 O   0  0  0  0  0  0  0  0  0  0  0  0
   -0.2178    1.6416    1.0705 N   0  0  0  0  0  0  0  0  0  0  0  0
    0.5174    1.1967    1.6128 H   0  0  0  0  0  0  0  0  0  0  0  0
   -0.3433    3.0935    1.1121 C   0  0  0  0  0  0  0  0  0  0  0  0
   -1.3033    3.3834    1.5520 H   0  0  0  0  0  0  0  0  0  0  0  0
    0.4588    3.5251    1.7185 H   0  0  0  0  0  0  0  0  0  0  0  0
   -0.2773    3.5125    0.1026 H   0  0  0  0  0  0  0  0  0  0  0  0
  1  2  1  0  0  0  0
  2  3  1  0  0  0  0
  2  4  1  0  0  0  0
  2  5  1  0  0  0  0
  5  6  2  0  0  0  0
  5  7  1  0  0  0  0
  7  8  1  0  0  0  0
  7  9  1  0  0  0  0
  9 10  1  0  0  0  0
  9 11  1  0  0  0  0
  9 25  1  0  0  0  0
 11 12  1  0  0  0  0
 11 13  1  0  0  0  0
 11 14  1  0  0  0  0
 14 15  1  0  0  0  0
 14 23  2  0  0  0  0
 15 16  1  0  0  0  0
 15 17  2  0  0  0  0
 17 18  1  0  0  0  0
 17 19  1  0  0  0  0
 19 20  1  0  0  0  0
 19 21  2  0  0  0  0
 21 22  1  0  0  0  0
 21 23  1  0  0  0  0
 23 24  1  0  0  0  0
 25 26  2  0  0  0  0
 25 27  1  0  0  0  0
 27 28  1  0  0  0  0
 27 29  1  0  0  0  0
 29 30  1  0  0  0  0
 29 31  1  0  0  0  0
 29 32  1  0  0  0  0
M  END
$$$$

  -OEChem-04042216033D

 32 32  0     1  0  0  0  0  0999 V2000
   -4.1193   -3.5206    2.4494 H   0  0  0  0  0  0  0  0  0  0  0  0
   -4.0649   -2.6917    1.7381 C   0  0  0  0  0  0  0  0  0  0  0  0
   -4.6470   -1.8534    2.1284 H   0  0  0  0  0  0  0  0  0  0  0  0
   -4.4971   -3.0146    0.7878 H   0  0  0  0  0  0  0  0  0  0  0  0
   -2.6215   -2.2698    1.5359 C   0  0  0  0  0  0  0  0  0  0  0  0
   -1.7328   -2.8215    2.1652 O   0  0  0  0  0  0  0  0  0  0  0  0
   -2.3249   -1.2560    0.6459 N   0  0  0  0  0  0  0  0  0  0  0  0
   -3.1049   -0.7713    0.2035 H   0  0  0  0  0  0  0  0  0  0  0  0
   -0.9831   -0.7018    0.4146 C   0  0  1  0  0  0  0  0  0  0  0  0
   -0.3614   -0.9649    1.2764 H   0  0  0  0  0  0  0  0  0  0  0  0
   -0.1939   -1.1468   -0.8615 C   0  0  0  0  0  0  0  0  0  0  0  0
   -0.1991   -0.2967   -1.5532 H   0  0  0  0  0  0  0  0  0  0  0  0
    0.8446   -1.2789   -0.5410 H   0  0  0  0  0  0  0  0  0  0  0  0
   -0.5287   -2.3494   -1.7456 C   0  0  0  0  0  0  0  0  0  0  0  0
   -1.5849   -3.2685   -1.5885 C   0  0  0  0  0  0  0  0  0  0  0  0
   -2.2913   -3.2134   -0.7799 H   0  0  0  0  0  0  0  0  0  0  0  0
   -1.7686   -4.3255   -2.4872 C   0  0  0  0  0  0  0  0  0  0  0  0
   -2.5884   -5.0222   -2.3403 H   0  0  0  0  0  0  0  0  0  0  0  0
   -0.9024   -4.4906   -3.5678 C   0  0  0  0  0  0  0  0  0  0  0  0
   -1.0462   -5.3116   -4.2641 H   0  0  0  0  0  0  0  0  0  0  0  0
    0.1503   -3.5944   -3.7469 C   0  0  0  0  0  0  0  0  0  0  0  0
    0.8297   -3.7146   -4.5857 H   0  0  0  0  0  0  0  0  0  0  0  0
    0.3296   -2.5408   -2.8451 C   0  0  0  0  0  0  0  0  0  0  0  0
    1.1567   -1.8563   -3.0082 H   0  0  0  0  0  0  0  0  0  0  0  0
   -1.0902    0.8373    0.3874 C   0  0  0  0  0  0  0  0  0  0  0  0
   -2.0205    1.3810   -0.1975 O   0  0  0  0  0  0  0  0  0  0  0  0
   -0.1731    1.6136    1.0722 N   0  0  0  0  0  0  0  0  0  0  0  0
    0.5451    1.1329    1.6066 H   0  0  0  0  0  0  0  0  0  0  0  0
   -0.2558    3.0670    1.1513 C   0  0  0  0  0  0  0  0  0  0  0  0
   -1.2060    3.3738    1.6013 H   0  0  0  0  0  0  0  0  0  0  0  0
    0.5599    3.4588    1.7666 H   0  0  0  0  0  0  0  0  0  0  0  0
   -0.1791    3.5098    0.1526 H   0  0  0  0  0  0  0  0  0  0  0  0
  1  2  1  0  0  0  0
  2  3  1  0  0  0  0
  2  4  1  0  0  0  0
  2  5  1  0  0  0  0
  5  6  2  0  0  0  0
  5  7  1  0  0  0  0
  7  8  1  0  0  0  0
  7  9  1  0  0  0  0
  9 10  1  0  0  0  0
  9 11  1  0  0  0  0
  9 25  1  0  0  0  0
 11 12  1  0  0  0  0
 11 13  1  0  0  0  0
 11 14  1  0  0  0  0
 14 15  1  0  0  0  0
 14 23  2  0  0  0  0
 15 16  1  0  0  0  0
 15 17  2  0  0  0  0
 17 18  1  0  0  0  0
 17 19  1  0  0  0  0
 19 20  1  0  0  0  0
 19 21  2  0  0  0  0
 21 22  1  0  0  0  0
 21 23  1  0  0  0  0
 23 24  1  0  0  0  0
 25 26  2  0  0  0  0
 25 27  1  0  0  0  0
 27 28  1  0  0  0  0
 27 29  1  0  0  0  0
 29 30  1  0  0  0  0
 29 31  1  0  0  0  0
 29 32  1  0  0  0  0
M  END
$$$$

  -OEChem-04042216033D

 32 32  0     1  0  0  0  0  0999 V2000
   -4.0450   -3.5424    2.4460 H   0  0  0  0  0  0  0  0  0  0  0  0
   -4.0026   -2.7673    1.6756 C   0  0  0  0  0  0  0  0  0  0  0  0
   -4.6236   -1.9252    1.9902 H   0  0  0  0  0  0  0  0  0  0  0  0
   -4.3992   -3.1753    0.7430 H   0  0  0  0  0  0  0  0  0  0  0  0
   -2.5707   -2.3087    1.4729 C   0  0  0  0  0  0  0  0  0  0  0  0
   -1.6648   -2.8629    2.0749 O   0  0  0  0  0  0  0  0  0  0  0  0
   -2.3056   -1.2544    0.6212 N   0  0  0  0  0  0  0  0  0  0  0  0
   -3.0996   -0.7607    0.2162 H   0  0  0  0  0  0  0  0  0  0  0  0
   -0.9756   -0.6792    0.3855 C   0  0  1  0  0  0  0  0  0  0  0  0
   -0.3393   -0.9684    1.2280 H   0  0  0  0  0  0  0  0  0  0  0  0
   -0.2075   -1.0959   -0.9101 C   0  0  0  0  0  0  0  0  0  0  0  0
   -0.2350   -0.2388   -1.5921 H   0  0  0  0  0  0  0  0  0  0  0  0
    0.8381   -1.2198   -0.6097 H   0  0  0  0  0  0  0  0  0  0  0  0
   -0.5659   -2.2916   -1.7964 C   0  0  0  0  0  0  0  0  0  0  0  0
   -1.7681   -3.0295   -1.7972 C   0  0  0  0  0  0  0  0  0  0  0  0
   -2.6098   -2.7758   -1.1744 H   0  0  0  0  0  0  0  0  0  0  0  0
   -1.9487   -4.1233   -2.6518 C   0  0  0  0  0  0  0  0  0  0  0  0
   -2.8849   -4.6733   -2.6355 H   0  0  0  0  0  0  0  0  0  0  0  0
   -0.9344   -4.5070   -3.5288 C   0  0  0  0  0  0  0  0  0  0  0  0
   -1.0766   -5.3563   -4.1904 H   0  0  0  0  0  0  0  0  0  0  0  0
    0.2610   -3.7899   -3.5528 C   0  0  0  0  0  0  0  0  0  0  0  0
    1.0550   -4.0804   -4.2343 H   0  0  0  0  0  0  0  0  0  0  0  0
    0.4370   -2.6985   -2.6967 C   0  0  0  0  0  0  0  0  0  0  0  0
    1.3793   -2.1602   -2.7338 H   0  0  0  0  0  0  0  0  0  0  0  0
   -1.0815    0.8588    0.4229 C   0  0  0  0  0  0  0  0  0  0  0  0
   -2.0242    1.4230   -0.1213 O   0  0  0  0  0  0  0  0  0  0  0  0
   -0.1507    1.6091    1.1180 N   0  0  0  0  0  0  0  0  0  0  0  0
    0.5792    1.1094    1.6182 H   0  0  0  0  0  0  0  0  0  0  0  0
   -0.2317    3.0587    1.2517 C   0  0  0  0  0  0  0  0  0  0  0  0
   -1.1647    3.3465    1.7477 H   0  0  0  0  0  0  0  0  0  0  0  0
    0.6062    3.4316    1.8484 H   0  0  0  0  0  0  0  0  0  0  0  0
   -0.1938    3.5366    0.2672 H   0  0  0  0  0  0  0  0  0  0  0  0
  1  2  1  0  0  0  0
  2  3  1  0  0  0  0
  2  4  1  0  0  0  0
  2  5  1  0  0  0  0
  5  6  2  0  0  0  0
  5  7  1  0  0  0  0
  7  8  1  0  0  0  0
  7  9  1  0  0  0  0
  9 10  1  0  0  0  0
  9 11  1  0  0  0  0
  9 25  1  0  0  0  0
 11 12  1  0  0  0  0
 11 13  1  0  0  0  0
 11 14  1  0  0  0  0
 14 15  1  0  0  0  0
 14 23  2  0  0  0  0
 15 16  1  0  0  0  0
 15 17  2  0  0  0  0
 17 18  1  0  0  0  0
 17 19  1  0  0  0  0
 19 20  1  0  0  0  0
 19 21  2  0  0  0  0
 21 22  1  0  0  0  0
 21 23  1  0  0  0  0
 23 24  1  0  0  0  0
 25 26  2  0  0  0  0
 25 27  1  0  0  0  0
 27 28  1  0  0  0  0
 27 29  1  0  0  0  0
 29 30  1  0  0  0  0
 29 31  1  0  0  0  0
 29 32  1  0  0  0  0
M  END
$$$$

  -OEChem-04042216033D

 32 32  0     1  0  0  0  0  0999 V2000
   -3.9828   -3.6657    2.2474 H   0  0  0  0  0  0  0  0  0  0  0  0
   -3.9451   -2.8603    1.5087 C   0  0  0  0  0  0  0  0  0  0  0  0
   -4.6056   -2.0529    1.8339 H   0  0  0  0  0  0  0  0  0  0  0  0
   -4.2964   -3.2461    0.5488 H   0  0  0  0  0  0  0  0  0  0  0  0
   -2.5249   -2.3456    1.3689 C   0  0  0  0  0  0  0  0  0  0  0  0
   -1.6201   -2.8842    1.9871 O   0  0  0  0  0  0  0  0  0  0  0  0
   -2.2701   -1.2602    0.5547 N   0  0  0  0  0  0  0  0  0  0  0  0
   -3.0680   -0.7760    0.1470 H   0  0  0  0  0  0  0  0  0  0  0  0
   -0.9486   -0.6518    0.3550 C   0  0  1  0  0  0  0  0  0  0  0  0
   -0.3178   -0.9542    1.1970 H   0  0  0  0  0  0  0  0  0  0  0  0
   -0.1657   -1.0379   -0.9396 C   0  0  0  0  0  0  0  0  0  0  0  0
   -0.2048   -0.1786   -1.6178 H   0  0  0  0  0  0  0  0  0  0  0  0
    0.8818   -1.1488   -0.6413 H   0  0  0  0  0  0  0  0  0  0  0  0
   -0.5409   -2.2359   -1.8137 C   0  0  0  0  0  0  0  0  0  0  0  0
   -1.8395   -2.7565   -1.9884 C   0  0  0  0  0  0  0  0  0  0  0  0
   -2.7093   -2.2725   -1.5681 H   0  0  0  0  0  0  0  0  0  0  0  0
   -2.0675   -3.8905   -2.7757 C   0  0  0  0  0  0  0  0  0  0  0  0
   -3.0781   -4.2660   -2.9038 H   0  0  0  0  0  0  0  0  0  0  0  0
   -1.0024   -4.5331   -3.4069 C   0  0  0  0  0  0  0  0  0  0  0  0
   -1.1798   -5.4129   -4.0184 H   0  0  0  0  0  0  0  0  0  0  0  0
    0.2911   -4.0344   -3.2531 C   0  0  0  0  0  0  0  0  0  0  0  0
    1.1247   -4.5292   -3.7421 H   0  0  0  0  0  0  0  0  0  0  0  0
    0.5146   -2.8999   -2.4661 C   0  0  0  0  0  0  0  0  0  0  0  0
    1.5328   -2.5383   -2.3595 H   0  0  0  0  0  0  0  0  0  0  0  0
   -1.0741    0.8824    0.4355 C   0  0  0  0  0  0  0  0  0  0  0  0
   -2.0126    1.4494   -0.1128 O   0  0  0  0  0  0  0  0  0  0  0  0
   -0.1629    1.6248    1.1642 N   0  0  0  0  0  0  0  0  0  0  0  0
    0.5625    1.1199    1.6659 H   0  0  0  0  0  0  0  0  0  0  0  0
   -0.2595    3.0700    1.3306 C   0  0  0  0  0  0  0  0  0  0  0  0
   -1.2006    3.3374    1.8228 H   0  0  0  0  0  0  0  0  0  0  0  0
    0.5686    3.4359    1.9454 H   0  0  0  0  0  0  0  0  0  0  0  0
   -0.2150    3.5713    0.3578 H   0  0  0  0  0  0  0  0  0  0  0  0
  1  2  1  0  0  0  0
  2  3  1  0  0  0  0
  2  4  1  0  0  0  0
  2  5  1  0  0  0  0
  5  6  2  0  0  0  0
  5  7  1  0  0  0  0
  7  8  1  0  0  0  0
  7  9  1  0  0  0  0
  9 10  1  0  0  0  0
  9 11  1  0  0  0  0
  9 25  1  0  0  0  0
 11 12  1  0  0  0  0
 11 13  1  0  0  0  0
 11 14  1  0  0  0  0
 14 15  1  0  0  0  0
 14 23  2  0  0  0  0
 15 16  1  0  0  0  0
 15 17  2  0  0  0  0
 17 18  1  0  0  0  0
 17 19  1  0  0  0  0
 19 20  1  0  0  0  0
 19 21  2  0  0  0  0
 21 22  1  0  0  0  0
 21 23  1  0  0  0  0
 23 24  1  0  0  0  0
 25 26  2  0  0  0  0
 25 27  1  0  0  0  0
 27 28  1  0  0  0  0
 27 29  1  0  0  0  0
 29 30  1  0  0  0  0
 29 31  1  0  0  0  0
 29 32  1  0  0  0  0
M  END
$$$$

  -OEChem-04042216033D

 32 32  0     1  0  0  0  0  0999 V2000
   -3.9045   -3.7948    2.0326 H   0  0  0  0  0  0  0  0  0  0  0  0
   -3.8666   -2.9636    1.3229 C   0  0  0  0  0  0  0  0  0  0  0  0
   -4.5738   -2.1946    1.6429 H   0  0  0  0  0  0  0  0  0  0  0  0
   -4.1577   -3.3300    0.3355 H   0  0  0  0  0  0  0  0  0  0  0  0
   -2.4640   -2.3884    1.2648 C   0  0  0  0  0  0  0  0  0  0  0  0
   -1.5690   -2.9003    1.9195 O   0  0  0  0  0  0  0  0  0  0  0  0
   -2.2139   -1.2821    0.4785 N   0  0  0  0  0  0  0  0  0  0  0  0
   -3.0091   -0.8298    0.0322 H   0  0  0  0  0  0  0  0  0  0  0  0
   -0.9035   -0.6326    0.3321 C   0  0  1  0  0  0  0  0  0  0  0  0
   -0.2862   -0.9355    1.1836 H   0  0  0  0  0  0  0  0  0  0  0  0
   -0.0952   -0.9908   -0.9514 C   0  0  0  0  0  0  0  0  0  0  0  0
   -0.1426   -0.1342   -1.6325 H   0  0  0  0  0  0  0  0  0  0  0  0
    0.9533   -1.0912   -0.6541 H   0  0  0  0  0  0  0  0  0  0  0  0
   -0.4891   -2.1982   -1.7959 C   0  0  0  0  0  0  0  0  0  0  0  0
   -1.8155   -2.4945   -2.1631 C   0  0  0  0  0  0  0  0  0  0  0  0
   -2.6204   -1.8110   -1.9194 H   0  0  0  0  0  0  0  0  0  0  0  0
   -2.1234   -3.6456   -2.8959 C   0  0  0  0  0  0  0  0  0  0  0  0
   -3.1515   -3.8499   -3.1794 H   0  0  0  0  0  0  0  0  0  0  0  0
   -1.1086   -4.5279   -3.2715 C   0  0  0  0  0  0  0  0  0  0  0  0
   -1.3458   -5.4230   -3.8388 H   0  0  0  0  0  0  0  0  0  0  0  0
    0.2135   -4.2522   -2.9176 C   0  0  0  0  0  0  0  0  0  0  0  0
    1.0062   -4.9359   -3.2062 H   0  0  0  0  0  0  0  0  0  0  0  0
    0.5174   -3.0988   -2.1865 C   0  0  0  0  0  0  0  0  0  0  0  0
    1.5517   -2.9133   -1.9136 H   0  0  0  0  0  0  0  0  0  0  0  0
   -1.0641    0.8962    0.4325 C   0  0  0  0  0  0  0  0  0  0  0  0
   -1.9899    1.4520   -0.1480 O   0  0  0  0  0  0  0  0  0  0  0  0
   -0.1932    1.6463    1.2014 N   0  0  0  0  0  0  0  0  0  0  0  0
    0.5230    1.1491    1.7236 H   0  0  0  0  0  0  0  0  0  0  0  0
   -0.3178    3.0887    1.3725 C   0  0  0  0  0  0  0  0  0  0  0  0
   -1.2801    3.3386    1.8316 H   0  0  0  0  0  0  0  0  0  0  0  0
    0.4816    3.4631    2.0190 H   0  0  0  0  0  0  0  0  0  0  0  0
   -0.2458    3.5967    0.4051 H   0  0  0  0  0  0  0  0  0  0  0  0
  1  2  1  0  0  0  0
  2  3  1  0  0  0  0
  2  4  1  0  0  0  0
  2  5  1  0  0  0  0
  5  6  2  0  0  0  0
  5  7  1  0  0  0  0
  7  8  1  0  0  0  0
  7  9  1  0  0  0  0
  9 10  1  0  0  0  0
  9 11  1  0  0  0  0
  9 25  1  0  0  0  0
 11 12  1  0  0  0  0
 11 13  1  0  0  0  0
 11 14  1  0  0  0  0
 14 15  1  0  0  0  0
 14 23  2  0  0  0  0
 15 16  1  0  0  0  0
 15 17  2  0  0  0  0
 17 18  1  0  0  0  0
 17 19  1  0  0  0  0
 19 20  1  0  0  0  0
 19 21  2  0  0  0  0
 21 22  1  0  0  0  0
 21 23  1  0  0  0  0
 23 24  1  0  0  0  0
 25 26  2  0  0  0  0
 25 27  1  0  0  0  0
 27 28  1  0  0  0  0
 27 29  1  0  0  0  0
 29 30  1  0  0  0  0
 29 31  1  0  0  0  0
 29 32  1  0  0  0  0
M  END
$$$$

  -OEChem-04042216033D

 32 32  0     1  0  0  0  0  0999 V2000
   -3.8027   -3.9265    1.8212 H   0  0  0  0  0  0  0  0  0  0  0  0
   -3.7670   -3.0758    1.1352 C   0  0  0  0  0  0  0  0  0  0  0  0
   -4.5376   -2.3569    1.4232 H   0  0  0  0  0  0  0  0  0  0  0  0
   -3.9690   -3.4325    0.1224 H   0  0  0  0  0  0  0  0  0  0  0  0
   -2.4006   -2.4195    1.1854 C   0  0  0  0  0  0  0  0  0  0  0  0
   -1.5290   -2.8806    1.9066 O   0  0  0  0  0  0  0  0  0  0  0  0
   -2.1550   -1.3013    0.4154 N   0  0  0  0  0  0  0  0  0  0  0  0
   -2.9306   -0.9145   -0.1171 H   0  0  0  0  0  0  0  0  0  0  0  0
   -0.8589   -0.6123    0.3205 C   0  0  1  0  0  0  0  0  0  0  0  0
   -0.2537   -0.9085    1.1830 H   0  0  0  0  0  0  0  0  0  0  0  0
   -0.0317   -0.9572   -0.9507 C   0  0  0  0  0  0  0  0  0  0  0  0
   -0.0811   -0.1094   -1.6424 H   0  0  0  0  0  0  0  0  0  0  0  0
    1.0175   -1.0558   -0.6554 H   0  0  0  0  0  0  0  0  0  0  0  0
   -0.4518   -2.1796   -1.7492 C   0  0  0  0  0  0  0  0  0  0  0  0
   -1.7298   -2.2822   -2.3265 C   0  0  0  0  0  0  0  0  0  0  0  0
   -2.4234   -1.4502   -2.2526 H   0  0  0  0  0  0  0  0  0  0  0  0
   -2.1143   -3.4352   -3.0189 C   0  0  0  0  0  0  0  0  0  0  0  0
   -3.1013   -3.4965   -3.4674 H   0  0  0  0  0  0  0  0  0  0  0  0
   -1.2255   -4.5067   -3.1372 C   0  0  0  0  0  0  0  0  0  0  0  0
   -1.5211   -5.4042   -3.6724 H   0  0  0  0  0  0  0  0  0  0  0  0
    0.0462   -4.4213   -2.5645 C   0  0  0  0  0  0  0  0  0  0  0  0
    0.7375   -5.2544   -2.6502 H   0  0  0  0  0  0  0  0  0  0  0  0
    0.4281   -3.2662   -1.8736 C   0  0  0  0  0  0  0  0  0  0  0  0
    1.4148   -3.2240   -1.4226 H   0  0  0  0  0  0  0  0  0  0  0  0
   -1.0532    0.9120    0.4220 C   0  0  0  0  0  0  0  0  0  0  0  0
   -1.9539    1.4561   -0.2070 O   0  0  0  0  0  0  0  0  0  0  0  0
   -0.2249    1.6735    1.2257 N   0  0  0  0  0  0  0  0  0  0  0  0
    0.4734    1.1849    1.7790 H   0  0  0  0  0  0  0  0  0  0  0  0
   -0.3650    3.1159    1.3810 C   0  0  0  0  0  0  0  0  0  0  0  0
   -1.3514    3.3639    1.7866 H   0  0  0  0  0  0  0  0  0  0  0  0
    0.3975    3.4974    2.0669 H   0  0  0  0  0  0  0  0  0  0  0  0
   -0.2437    3.6188    0.4158 H   0  0  0  0  0  0  0  0  0  0  0  0
  1  2  1  0  0  0  0
  2  3  1  0  0  0  0
  2  4  1  0  0  0  0
  2  5  1  0  0  0  0
  5  6  2  0  0  0  0
  5  7  1  0  0  0  0
  7  8  1  0  0  0  0
  7  9  1  0  0  0  0
  9 10  1  0  0  0  0
  9 11  1  0  0  0  0
  9 25  1  0  0  0  0
 11 12  1  0  0  0  0
 11 13  1  0  0  0  0
 11 14  1  0  0  0  0
 14 15  1  0  0  0  0
 14 23  2  0  0  0  0
 15 16  1  0  0  0  0
 15 17  2  0  0  0  0
 17 18  1  0  0  0  0
 17 19  1  0  0  0  0
 19 20  1  0  0  0  0
 19 21  2  0  0  0  0
 21 22  1  0  0  0  0
 21 23  1  0  0  0  0
 23 24  1  0  0  0  0
 25 26  2  0  0  0  0
 25 27  1  0  0  0  0
 27 28  1  0  0  0  0
 27 29  1  0  0  0  0
 29 30  1  0  0  0  0
 29 31  1  0  0  0  0
 29 32  1  0  0  0  0
M  END
$$$$

  -OEChem-04042216033D

 32 32  0     1  0  0  0  0  0999 V2000
   -3.7082   -4.0158    1.6759 H   0  0  0  0  0  0  0  0  0  0  0  0
   -3.6791   -3.1478    1.0115 C   0  0  0  0  0  0  0  0  0  0  0  0
   -4.4901   -2.4678    1.2827 H   0  0  0  0  0  0  0  0  0  0  0  0
   -3.8239   -3.4862   -0.0175 H   0  0  0  0  0  0  0  0  0  0  0  0
   -2.3442   -2.4386    1.1350 C   0  0  0  0  0  0  0  0  0  0  0  0
   -1.4966   -2.8629    1.9063 O   0  0  0  0  0  0  0  0  0  0  0  0
   -2.0973   -1.3180    0.3694 N   0  0  0  0  0  0  0  0  0  0  0  0
   -2.8408   -0.9930   -0.2438 H   0  0  0  0  0  0  0  0  0  0  0  0
   -0.8112   -0.6044    0.3143 C   0  0  1  0  0  0  0  0  0  0  0  0
   -0.2161   -0.8918    1.1866 H   0  0  0  0  0  0  0  0  0  0  0  0
    0.0251   -0.9437   -0.9492 C   0  0  0  0  0  0  0  0  0  0  0  0
   -0.0146   -0.1002   -1.6471 H   0  0  0  0  0  0  0  0  0  0  0  0
    1.0731   -1.0566   -0.6550 H   0  0  0  0  0  0  0  0  0  0  0  0
   -0.4249   -2.1746   -1.7087 C   0  0  0  0  0  0  0  0  0  0  0  0
   -1.5774   -2.1348   -2.5106 C   0  0  0  0  0  0  0  0  0  0  0  0
   -2.1249   -1.2030   -2.6204 H   0  0  0  0  0  0  0  0  0  0  0  0
   -2.0235   -3.2818   -3.1747 C   0  0  0  0  0  0  0  0  0  0  0  0
   -2.9115   -3.2371   -3.7982 H   0  0  0  0  0  0  0  0  0  0  0  0
   -1.3250   -4.4845   -3.0358 C   0  0  0  0  0  0  0  0  0  0  0  0
   -1.6697   -5.3765   -3.5506 H   0  0  0  0  0  0  0  0  0  0  0  0
   -0.1830   -4.5381   -2.2307 C   0  0  0  0  0  0  0  0  0  0  0  0
    0.3559   -5.4737   -2.1133 H   0  0  0  0  0  0  0  0  0  0  0  0
    0.2631   -3.3887   -1.5689 C   0  0  0  0  0  0  0  0  0  0  0  0
    1.1412   -3.4478   -0.9329 H   0  0  0  0  0  0  0  0  0  0  0  0
   -1.0335    0.9165    0.4049 C   0  0  0  0  0  0  0  0  0  0  0  0
   -1.9078    1.4478   -0.2706 O   0  0  0  0  0  0  0  0  0  0  0  0
   -0.2448    1.6943    1.2325 N   0  0  0  0  0  0  0  0  0  0  0  0
    0.4310    1.2181    1.8234 H   0  0  0  0  0  0  0  0  0  0  0  0
   -0.4168    3.1346    1.3766 C   0  0  0  0  0  0  0  0  0  0  0  0
   -1.4271    3.3670    1.7298 H   0  0  0  0  0  0  0  0  0  0  0  0
    0.3019    3.5312    2.1000 H   0  0  0  0  0  0  0  0  0  0  0  0
   -0.2543    3.6369    0.4171 H   0  0  0  0  0  0  0  0  0  0  0  0
  1  2  1  0  0  0  0
  2  3  1  0  0  0  0
  2  4  1  0  0  0  0
  2  5  1  0  0  0  0
  5  6  2  0  0  0  0
  5  7  1  0  0  0  0
  7  8  1  0  0  0  0
  7  9  1  0  0  0  0
  9 10  1  0  0  0  0
  9 11  1  0  0  0  0
  9 25  1  0  0  0  0
 11 12  1  0  0  0  0
 11 13  1  0  0  0  0
 11 14  1  0  0  0  0
 14 15  1  0  0  0  0
 14 23  2  0  0  0  0
 15 16  1  0  0  0  0
 15 17  2  0  0  0  0
 17 18  1  0  0  0  0
 17 19  1  0  0  0  0
 19 20  1  0  0  0  0
 19 21  2  0  0  0  0
 21 22  1  0  0  0  0
 21 23  1  0  0  0  0
 23 24  1  0  0  0  0
 25 26  2  0  0  0  0
 25 27  1  0  0  0  0
 27 28  1  0  0  0  0
 27 29  1  0  0  0  0
 29 30  1  0  0  0  0
 29 31  1  0  0  0  0
 29 32  1  0  0  0  0
M  END
$$$$

  -OEChem-04042216033D

 32 32  0     1  0  0  0  0  0999 V2000
   -3.6848   -4.0383    1.6335 H   0  0  0  0  0  0  0  0  0  0  0  0
   -3.6546   -3.1670    0.9736 C   0  0  0  0  0  0  0  0  0  0  0  0
   -4.4778   -2.4975    1.2342 H   0  0  0  0  0  0  0  0  0  0  0  0
   -3.7787   -3.5025   -0.0592 H   0  0  0  0  0  0  0  0  0  0  0  0
   -2.3301   -2.4429    1.1221 C   0  0  0  0  0  0  0  0  0  0  0  0
   -1.4923   -2.8564    1.9102 O   0  0  0  0  0  0  0  0  0  0  0  0
   -2.0786   -1.3239    0.3558 N   0  0  0  0  0  0  0  0  0  0  0  0
   -2.8050   -1.0225   -0.2895 H   0  0  0  0  0  0  0  0  0  0  0  0
   -0.7957   -0.6020    0.3162 C   0  0  1  0  0  0  0  0  0  0  0  0
   -0.2060   -0.8852    1.1933 H   0  0  0  0  0  0  0  0  0  0  0  0
    0.0431   -0.9456   -0.9425 C   0  0  0  0  0  0  0  0  0  0  0  0
    0.0132   -0.1047   -1.6437 H   0  0  0  0  0  0  0  0  0  0  0  0
    1.0897   -1.0707   -0.6474 H   0  0  0  0  0  0  0  0  0  0  0  0
   -0.4213   -2.1821   -1.6802 C   0  0  0  0  0  0  0  0  0  0  0  0
   -1.3756   -2.0787   -2.7041 C   0  0  0  0  0  0  0  0  0  0  0  0
   -1.7626   -1.1038   -2.9869 H   0  0  0  0  0  0  0  0  0  0  0  0
   -1.8359   -3.2232   -3.3635 C   0  0  0  0  0  0  0  0  0  0  0  0
   -2.5716   -3.1325   -4.1573 H   0  0  0  0  0  0  0  0  0  0  0  0
   -1.3488   -4.4823   -2.9998 C   0  0  0  0  0  0  0  0  0  0  0  0
   -1.7054   -5.3721   -3.5105 H   0  0  0  0  0  0  0  0  0  0  0  0
   -0.4033   -4.5951   -1.9756 C   0  0  0  0  0  0  0  0  0  0  0  0
   -0.0285   -5.5721   -1.6852 H   0  0  0  0  0  0  0  0  0  0  0  0
    0.0571   -3.4494   -1.3179 C   0  0  0  0  0  0  0  0  0  0  0  0
    0.7775   -3.5481   -0.5109 H   0  0  0  0  0  0  0  0  0  0  0  0
   -1.0245    0.9186    0.3973 C   0  0  0  0  0  0  0  0  0  0  0  0
   -1.8870    1.4460   -0.2963 O   0  0  0  0  0  0  0  0  0  0  0  0
   -0.2502    1.7024    1.2328 N   0  0  0  0  0  0  0  0  0  0  0  0
    0.4158    1.2304    1.8379 H   0  0  0  0  0  0  0  0  0  0  0  0
   -0.4293    3.1428    1.3685 C   0  0  0  0  0  0  0  0  0  0  0  0
   -1.4436    3.3729    1.7115 H   0  0  0  0  0  0  0  0  0  0  0  0
    0.2816    3.5452    2.0965 H   0  0  0  0  0  0  0  0  0  0  0  0
   -0.2602    3.6417    0.4083 H   0  0  0  0  0  0  0  0  0  0  0  0
  1  2  1  0  0  0  0
  2  3  1  0  0  0  0
  2  4  1  0  0  0  0
  2  5  1  0  0  0  0
  5  6  2  0  0  0  0
  5  7  1  0  0  0  0
  7  8  1  0  0  0  0
  7  9  1  0  0  0  0
  9 10  1  0  0  0  0
  9 11  1  0  0  0  0
  9 25  1  0  0  0  0
 11 12  1  0  0  0  0
 11 13  1  0  0  0  0
 11 14  1  0  0  0  0
 14 15  1  0  0  0  0
 14 23  2  0  0  0  0
 15 16  1  0  0  0  0
 15 17  2  0  0  0  0
 17 18  1  0  0  0  0
 17 19  1  0  0  0  0
 19 20  1  0  0  0  0
 19 21  2  0  0  0  0
 21 22  1  0  0  0  0
 21 23  1  0  0  0  0
 23 24  1  0  0  0  0
 25 26  2  0  0  0  0
 25 27  1  0  0  0  0
 27 28  1  0  0  0  0
 27 29  1  0  0  0  0
 29 30  1  0  0  0  0
 29 31  1  0  0  0  0
 29 32  1  0  0  0  0
M  END
$$$$

  -OEChem-04042216033D

 32 32  0     1  0  0  0  0  0999 V2000
   -3.7221   -4.0118    1.6689 H   0  0  0  0  0  0  0  0  0  0  0  0
   -3.6858   -3.1438    1.0049 C   0  0  0  0  0  0  0  0  0  0  0  0
   -4.5041   -2.4672    1.2627 H   0  0  0  0  0  0  0  0  0  0  0  0
   -3.8119   -3.4832   -0.0263 H   0  0  0  0  0  0  0  0  0  0  0  0
   -2.3565   -2.4287    1.1507 C   0  0  0  0  0  0  0  0  0  0  0  0
   -1.5218   -2.8457    1.9406 O   0  0  0  0  0  0  0  0  0  0  0  0
   -2.0936   -1.3177    0.3767 N   0  0  0  0  0  0  0  0  0  0  0  0
   -2.8166   -1.0158   -0.2726 H   0  0  0  0  0  0  0  0  0  0  0  0
   -0.8063   -0.6037    0.3313 C   0  0  1  0  0  0  0  0  0  0  0  0
   -0.2177   -0.8844    1.2102 H   0  0  0  0  0  0  0  0  0  0  0  0
    0.0282   -0.9600   -0.9276 C   0  0  0  0  0  0  0  0  0  0  0  0
    0.0083   -0.1182   -1.6284 H   0  0  0  0  0  0  0  0  0  0  0  0
    1.0731   -1.0953   -0.6307 H   0  0  0  0  0  0  0  0  0  0  0  0
   -0.4383   -2.1987   -1.6634 C   0  0  0  0  0  0  0  0  0  0  0  0
   -1.1383   -2.0873   -2.8744 C   0  0  0  0  0  0  0  0  0  0  0  0
   -1.3548   -1.1073   -3.2900 H   0  0  0  0  0  0  0  0  0  0  0  0
   -1.5720   -3.2326   -3.5510 C   0  0  0  0  0  0  0  0  0  0  0  0
   -2.1160   -3.1362   -4.4860 H   0  0  0  0  0  0  0  0  0  0  0  0
   -1.3048   -4.5002   -3.0246 C   0  0  0  0  0  0  0  0  0  0  0  0
   -1.6408   -5.3894   -3.5499 H   0  0  0  0  0  0  0  0  0  0  0  0
   -0.6024   -4.6213   -1.8220 C   0  0  0  0  0  0  0  0  0  0  0  0
   -0.3939   -5.6035   -1.4082 H   0  0  0  0  0  0  0  0  0  0  0  0
   -0.1686   -3.4754   -1.1474 C   0  0  0  0  0  0  0  0  0  0  0  0
    0.3664   -3.5778   -0.2071 H   0  0  0  0  0  0  0  0  0  0  0  0
   -1.0252    0.9195    0.4000 C   0  0  0  0  0  0  0  0  0  0  0  0
   -1.8840    1.4473   -0.2977 O   0  0  0  0  0  0  0  0  0  0  0  0
   -0.2456    1.7052    1.2293 N   0  0  0  0  0  0  0  0  0  0  0  0
    0.4181    1.2344    1.8379 H   0  0  0  0  0  0  0  0  0  0  0  0
   -0.4163    3.1476    1.3543 C   0  0  0  0  0  0  0  0  0  0  0  0
   -1.4329    3.3859    1.6846 H   0  0  0  0  0  0  0  0  0  0  0  0
    0.2889    3.5507    2.0875 H   0  0  0  0  0  0  0  0  0  0  0  0
   -0.2339    3.6385    0.3926 H   0  0  0  0  0  0  0  0  0  0  0  0
  1  2  1  0  0  0  0
  2  3  1  0  0  0  0
  2  4  1  0  0  0  0
  2  5  1  0  0  0  0
  5  6  2  0  0  0  0
  5  7  1  0  0  0  0
  7  8  1  0  0  0  0
  7  9  1  0  0  0  0
  9 10  1  0  0  0  0
  9 11  1  0  0  0  0
  9 25  1  0  0  0  0
 11 12  1  0  0  0  0
 11 13  1  0  0  0  0
 11 14  1  0  0  0  0
 14 15  1  0  0  0  0
 14 23  2  0  0  0  0
 15 16  1  0  0  0  0
 15 17  2  0  0  0  0
 17 18  1  0  0  0  0
 17 19  1  0  0  0  0
 19 20  1  0  0  0  0
 19 21  2  0  0  0  0
 21 22  1  0  0  0  0
 21 23  1  0  0  0  0
 23 24  1  0  0  0  0
 25 26  2  0  0  0  0
 25 27  1  0  0  0  0
 27 28  1  0  0  0  0
 27 29  1  0  0  0  0
 29 30  1  0  0  0  0
 29 31  1  0  0  0  0
 29 32  1  0  0  0  0
M  END
$$$$

  -OEChem-04042216033D

 32 32  0     1  0  0  0  0  0999 V2000
   -3.8044   -3.9542    1.7603 H   0  0  0  0  0  0  0  0  0  0  0  0
   -3.7546   -3.0991    1.0806 C   0  0  0  0  0  0  0  0  0  0  0  0
   -4.5689   -2.4106    1.3187 H   0  0  0  0  0  0  0  0  0  0  0  0
   -3.8755   -3.4569    0.0550 H   0  0  0  0  0  0  0  0  0  0  0  0
   -2.4196   -2.3939    1.2240 C   0  0  0  0  0  0  0  0  0  0  0  0
   -1.5976   -2.8013    2.0317 O   0  0  0  0  0  0  0  0  0  0  0  0
   -2.1357   -1.3031    0.4289 N   0  0  0  0  0  0  0  0  0  0  0  0
   -2.8506   -1.0078   -0.2327 H   0  0  0  0  0  0  0  0  0  0  0  0
   -0.8365   -0.6118    0.3632 C   0  0  1  0  0  0  0  0  0  0  0  0
   -0.2454   -0.8878    1.2421 H   0  0  0  0  0  0  0  0  0  0  0  0
   -0.0117   -0.9852   -0.9000 C   0  0  0  0  0  0  0  0  0  0  0  0
   -0.0224   -0.1402   -1.5972 H   0  0  0  0  0  0  0  0  0  0  0  0
    1.0315   -1.1303   -0.6027 H   0  0  0  0  0  0  0  0  0  0  0  0
   -0.4734   -2.2193   -1.6505 C   0  0  0  0  0  0  0  0  0  0  0  0
   -0.8789   -2.1243   -2.9911 C   0  0  0  0  0  0  0  0  0  0  0  0
   -0.9105   -1.1575   -3.4851 H   0  0  0  0  0  0  0  0  0  0  0  0
   -1.2614   -3.2666   -3.7031 C   0  0  0  0  0  0  0  0  0  0  0  0
   -1.5877   -3.1786   -4.7352 H   0  0  0  0  0  0  0  0  0  0  0  0
   -1.2192   -4.5214   -3.0884 C   0  0  0  0  0  0  0  0  0  0  0  0
   -1.5145   -5.4088   -3.6408 H   0  0  0  0  0  0  0  0  0  0  0  0
   -0.7837   -4.6329   -1.7650 C   0  0  0  0  0  0  0  0  0  0  0  0
   -0.7357   -5.6067   -1.2865 H   0  0  0  0  0  0  0  0  0  0  0  0
   -0.4018   -3.4894   -1.0560 C   0  0  0  0  0  0  0  0  0  0  0  0
   -0.0513   -3.5899   -0.0323 H   0  0  0  0  0  0  0  0  0  0  0  0
   -1.0353    0.9157    0.4044 C   0  0  0  0  0  0  0  0  0  0  0  0
   -1.8930    1.4443   -0.2940 O   0  0  0  0  0  0  0  0  0  0  0  0
   -0.2392    1.7030    1.2159 N   0  0  0  0  0  0  0  0  0  0  0  0
    0.4219    1.2313    1.8264 H   0  0  0  0  0  0  0  0  0  0  0  0
   -0.3849    3.1498    1.3173 C   0  0  0  0  0  0  0  0  0  0  0  0
   -1.3913    3.4107    1.6615 H   0  0  0  0  0  0  0  0  0  0  0  0
    0.3402    3.5534    2.0305 H   0  0  0  0  0  0  0  0  0  0  0  0
   -0.2112    3.6206    0.3438 H   0  0  0  0  0  0  0  0  0  0  0  0
  1  2  1  0  0  0  0
  2  3  1  0  0  0  0
  2  4  1  0  0  0  0
  2  5  1  0  0  0  0
  5  6  2  0  0  0  0
  5  7  1  0  0  0  0
  7  8  1  0  0  0  0
  7  9  1  0  0  0  0
  9 10  1  0  0  0  0
  9 11  1  0  0  0  0
  9 25  1  0  0  0  0
 11 12  1  0  0  0  0
 11 13  1  0  0  0  0
 11 14  1  0  0  0  0
 14 15  1  0  0  0  0
 14 23  2  0  0  0  0
 15 16  1  0  0  0  0
 15 17  2  0  0  0  0
 17 18  1  0  0  0  0
 17 19  1  0  0  0  0
 19 20  1  0  0  0  0
 19 21  2  0  0  0  0
 21 22  1  0  0  0  0
 21 23  1  0  0  0  0
 23 24  1  0  0  0  0
 25 26  2  0  0  0  0
 25 27  1  0  0  0  0
 27 28  1  0  0  0  0
 27 29  1  0  0  0  0
 29 30  1  0  0  0  0
 29 31  1  0  0  0  0
 29 32  1  0  0  0  0
M  END
$$$$

  -OEChem-04042216033D

 32 32  0     1  0  0  0  0  0999 V2000
   -3.9399   -3.8373    1.9070 H   0  0  0  0  0  0  0  0  0  0  0  0
   -3.8582   -3.0091    1.1977 C   0  0  0  0  0  0  0  0  0  0  0  0
   -4.6394   -2.2775    1.4174 H   0  0  0  0  0  0  0  0  0  0  0  0
   -4.0046   -3.3958    0.1860 H   0  0  0  0  0  0  0  0  0  0  0  0
   -2.4930   -2.3572    1.3069 C   0  0  0  0  0  0  0  0  0  0  0  0
   -1.6793   -2.7733    2.1181 O   0  0  0  0  0  0  0  0  0  0  0  0
   -2.1814   -1.2905    0.4904 N   0  0  0  0  0  0  0  0  0  0  0  0
   -2.9023   -0.9729   -0.1545 H   0  0  0  0  0  0  0  0  0  0  0  0
   -0.8670   -0.6316    0.3928 C   0  0  1  0  0  0  0  0  0  0  0  0
   -0.2692   -0.9062    1.2675 H   0  0  0  0  0  0  0  0  0  0  0  0
   -0.0593   -1.0186   -0.8820 C   0  0  0  0  0  0  0  0  0  0  0  0
   -0.0635   -0.1676   -1.5719 H   0  0  0  0  0  0  0  0  0  0  0  0
    0.9834   -1.1746   -0.5888 H   0  0  0  0  0  0  0  0  0  0  0  0
   -0.5136   -2.2409   -1.6601 C   0  0  0  0  0  0  0  0  0  0  0  0
   -0.6066   -2.1818   -3.0607 C   0  0  0  0  0  0  0  0  0  0  0  0
   -0.4503   -1.2397   -3.5779 H   0  0  0  0  0  0  0  0  0  0  0  0
   -0.9254   -3.3204   -3.8093 C   0  0  0  0  0  0  0  0  0  0  0  0
   -1.0220   -3.2501   -4.8888 H   0  0  0  0  0  0  0  0  0  0  0  0
   -1.1098   -4.5489   -3.1696 C   0  0  0  0  0  0  0  0  0  0  0  0
   -1.3550   -5.4344   -3.7486 H   0  0  0  0  0  0  0  0  0  0  0  0
   -0.9495   -4.6391   -1.7850 C   0  0  0  0  0  0  0  0  0  0  0  0
   -1.0539   -5.5973   -1.2844 H   0  0  0  0  0  0  0  0  0  0  0  0
   -0.6306   -3.4978   -1.0429 C   0  0  0  0  0  0  0  0  0  0  0  0
   -0.4507   -3.5994    0.0223 H   0  0  0  0  0  0  0  0  0  0  0  0
   -1.0450    0.8999    0.4077 C   0  0  0  0  0  0  0  0  0  0  0  0
   -1.9122    1.4268   -0.2802 O   0  0  0  0  0  0  0  0  0  0  0  0
   -0.2272    1.6923    1.1926 N   0  0  0  0  0  0  0  0  0  0  0  0
    0.4399    1.2246    1.7996 H   0  0  0  0  0  0  0  0  0  0  0  0
   -0.3589    3.1420    1.2745 C   0  0  0  0  0  0  0  0  0  0  0  0
   -1.3505    3.4168    1.6496 H   0  0  0  0  0  0  0  0  0  0  0  0
    0.3940    3.5526    1.9542 H   0  0  0  0  0  0  0  0  0  0  0  0
   -0.2169    3.5955    0.2879 H   0  0  0  0  0  0  0  0  0  0  0  0
  1  2  1  0  0  0  0
  2  3  1  0  0  0  0
  2  4  1  0  0  0  0
  2  5  1  0  0  0  0
  5  6  2  0  0  0  0
  5  7  1  0  0  0  0
  7  8  1  0  0  0  0
  7  9  1  0  0  0  0
  9 10  1  0  0  0  0
  9 11  1  0  0  0  0
  9 25  1  0  0  0  0
 11 12  1  0  0  0  0
 11 13  1  0  0  0  0
 11 14  1  0  0  0  0
 14 15  1  0  0  0  0
 14 23  2  0  0  0  0
 15 16  1  0  0  0  0
 15 17  2  0  0  0  0
 17 18  1  0  0  0  0
 17 19  1  0  0  0  0
 19 20  1  0  0  0  0
 19 21  2  0  0  0  0
 21 22  1  0  0  0  0
 21 23  1  0  0  0  0
 23 24  1  0  0  0  0
 25 26  2  0  0  0  0
 25 27  1  0  0  0  0
 27 28  1  0  0  0  0
 27 29  1  0  0  0  0
 29 30  1  0  0  0  0
 29 31  1  0  0  0  0
 29 32  1  0  0  0  0
M  END
$$$$

  -OEChem-04042216033D

 32 32  0     1  0  0  0  0  0999 V2000
   -4.0659   -3.7070    2.1111 H   0  0  0  0  0  0  0  0  0  0  0  0
   -3.9744   -2.8972    1.3819 C   0  0  0  0  0  0  0  0  0  0  0  0
   -4.7049   -2.1211    1.6227 H   0  0  0  0  0  0  0  0  0  0  0  0
   -4.1886   -3.2937    0.3863 H   0  0  0  0  0  0  0  0  0  0  0  0
   -2.5730   -2.3171    1.4155 C   0  0  0  0  0  0  0  0  0  0  0  0
   -1.7483   -2.7556    2.2031 O   0  0  0  0  0  0  0  0  0  0  0  0
   -2.2418   -1.2817    0.5664 N   0  0  0  0  0  0  0  0  0  0  0  0
   -2.9767   -0.9287   -0.0441 H   0  0  0  0  0  0  0  0  0  0  0  0
   -0.9117   -0.6625    0.4234 C   0  0  1  0  0  0  0  0  0  0  0  0
   -0.3046   -0.9302    1.2937 H   0  0  0  0  0  0  0  0  0  0  0  0
   -0.1162   -1.0619   -0.8605 C   0  0  0  0  0  0  0  0  0  0  0  0
   -0.1151   -0.2041   -1.5422 H   0  0  0  0  0  0  0  0  0  0  0  0
    0.9251   -1.2204   -0.5635 H   0  0  0  0  0  0  0  0  0  0  0  0
   -0.5387   -2.2685   -1.6851 C   0  0  0  0  0  0  0  0  0  0  0  0
   -0.2931   -2.2498   -3.0700 C   0  0  0  0  0  0  0  0  0  0  0  0
    0.0725   -1.3436   -3.5438 H   0  0  0  0  0  0  0  0  0  0  0  0
   -0.5423   -3.3706   -3.8693 C   0  0  0  0  0  0  0  0  0  0  0  0
   -0.3833   -3.3180   -4.9424 H   0  0  0  0  0  0  0  0  0  0  0  0
   -0.9832   -4.5593   -3.2853 C   0  0  0  0  0  0  0  0  0  0  0  0
   -1.1733   -5.4330   -3.9017 H   0  0  0  0  0  0  0  0  0  0  0  0
   -1.1388   -4.6293   -1.8999 C   0  0  0  0  0  0  0  0  0  0  0  0
   -1.4272   -5.5658   -1.4318 H   0  0  0  0  0  0  0  0  0  0  0  0
   -0.8884   -3.5027   -1.1095 C   0  0  0  0  0  0  0  0  0  0  0  0
   -0.9232   -3.6201   -0.0347 H   0  0  0  0  0  0  0  0  0  0  0  0
   -1.0674    0.8723    0.4045 C   0  0  0  0  0  0  0  0  0  0  0  0
   -1.9498    1.3960   -0.2665 O   0  0  0  0  0  0  0  0  0  0  0  0
   -0.2204    1.6704    1.1515 N   0  0  0  0  0  0  0  0  0  0  0  0
    0.4623    1.2074    1.7448 H   0  0  0  0  0  0  0  0  0  0  0  0
   -0.3254    3.1237    1.1986 C   0  0  0  0  0  0  0  0  0  0  0  0
   -1.2979    3.4249    1.6022 H   0  0  0  0  0  0  0  0  0  0  0  0
    0.4589    3.5393    1.8386 H   0  0  0  0  0  0  0  0  0  0  0  0
   -0.2128    3.5481    0.1952 H   0  0  0  0  0  0  0  0  0  0  0  0
  1  2  1  0  0  0  0
  2  3  1  0  0  0  0
  2  4  1  0  0  0  0
  2  5  1  0  0  0  0
  5  6  2  0  0  0  0
  5  7  1  0  0  0  0
  7  8  1  0  0  0  0
  7  9  1  0  0  0  0
  9 10  1  0  0  0  0
  9 11  1  0  0  0  0
  9 25  1  0  0  0  0
 11 12  1  0  0  0  0
 11 13  1  0  0  0  0
 11 14  1  0  0  0  0
 14 15  1  0  0  0  0
 14 23  2  0  0  0  0
 15 16  1  0  0  0  0
 15 17  2  0  0  0  0
 17 18  1  0  0  0  0
 17 19  1  0  0  0  0
 19 20  1  0  0  0  0
 19 21  2  0  0  0  0
 21 22  1  0  0  0  0
 21 23  1  0  0  0  0
 23 24  1  0  0  0  0
 25 26  2  0  0  0  0
 25 27  1  0  0  0  0
 27 28  1  0  0  0  0
 27 29  1  0  0  0  0
 29 30  1  0  0  0  0
 29 31  1  0  0  0  0
 29 32  1  0  0  0  0
M  END
$$$$

  -OEChem-04042216033D

 32 32  0     1  0  0  0  0  0999 V2000
   -4.0715   -3.6000    2.3922 H   0  0  0  0  0  0  0  0  0  0  0  0
   -4.0097   -2.7930    1.6568 C   0  0  0  0  0  0  0  0  0  0  0  0
   -4.6636   -1.9769    1.9735 H   0  0  0  0  0  0  0  0  0  0  0  0
   -4.3516   -3.1704    0.6899 H   0  0  0  0  0  0  0  0  0  0  0  0
   -2.5804   -2.2976    1.5421 C   0  0  0  0  0  0  0  0  0  0  0  0
   -1.7043   -2.7951    2.2323 O   0  0  0  0  0  0  0  0  0  0  0  0
   -2.2762   -1.2849    0.6555 N   0  0  0  0  0  0  0  0  0  0  0  0
   -3.0490   -0.8662    0.1400 H   0  0  0  0  0  0  0  0  0  0  0  0
   -0.9428   -0.6988    0.4361 C   0  0  1  0  0  0  0  0  0  0  0  0
   -0.3085   -0.9557    1.2905 H   0  0  0  0  0  0  0  0  0  0  0  0
   -0.1725   -1.1098   -0.8643 C   0  0  0  0  0  0  0  0  0  0  0  0
   -0.1873   -0.2485   -1.5415 H   0  0  0  0  0  0  0  0  0  0  0  0
    0.8726   -1.2538   -0.5728 H   0  0  0  0  0  0  0  0  0  0  0  0
   -0.5470   -2.3054   -1.7353 C   0  0  0  0  0  0  0  0  0  0  0  0
    0.0188   -2.3443   -3.0238 C   0  0  0  0  0  0  0  0  0  0  0  0
    0.6055   -1.5035   -3.3814 H   0  0  0  0  0  0  0  0  0  0  0  0
   -0.1754   -3.4328   -3.8803 C   0  0  0  0  0  0  0  0  0  0  0  0
    0.2482   -3.4204   -4.8801 H   0  0  0  0  0  0  0  0  0  0  0  0
   -0.9048   -4.5390   -3.4453 C   0  0  0  0  0  0  0  0  0  0  0  0
   -1.0571   -5.3880   -4.1051 H   0  0  0  0  0  0  0  0  0  0  0  0
   -1.4061   -4.5611   -2.1437 C   0  0  0  0  0  0  0  0  0  0  0  0
   -1.9323   -5.4388   -1.7803 H   0  0  0  0  0  0  0  0  0  0  0  0
   -1.2043   -3.4680   -1.2937 C   0  0  0  0  0  0  0  0  0  0  0  0
   -1.5305   -3.5815   -0.2742 H   0  0  0  0  0  0  0  0  0  0  0  0
   -1.0902    0.8377    0.3994 C   0  0  0  0  0  0  0  0  0  0  0  0
   -2.0135    1.3564   -0.2187 O   0  0  0  0  0  0  0  0  0  0  0  0
   -0.2022    1.6421    1.0904 N   0  0  0  0  0  0  0  0  0  0  0  0
    0.5085    1.1840    1.6539 H   0  0  0  0  0  0  0  0  0  0  0  0
   -0.3104    3.0953    1.1372 C   0  0  0  0  0  0  0  0  0  0  0  0
   -1.2626    3.3944    1.5876 H   0  0  0  0  0  0  0  0  0  0  0  0
    0.5031    3.5167    1.7354 H   0  0  0  0  0  0  0  0  0  0  0  0
   -0.2499    3.5165    0.1283 H   0  0  0  0  0  0  0  0  0  0  0  0
  1  2  1  0  0  0  0
  2  3  1  0  0  0  0
  2  4  1  0  0  0  0
  2  5  1  0  0  0  0
  5  6  2  0  0  0  0
  5  7  1  0  0  0  0
  7  8  1  0  0  0  0
  7  9  1  0  0  0  0
  9 10  1  0  0  0  0
  9 11  1  0  0  0  0
  9 25  1  0  0  0  0
 11 12  1  0  0  0  0
 11 13  1  0  0  0  0
 11 14  1  0  0  0  0
 14 15  1  0  0  0  0
 14 23  2  0  0  0  0
 15 16  1  0  0  0  0
 15 17  2  0  0  0  0
 17 18  1  0  0  0  0
 17 19  1  0  0  0  0
 19 20  1  0  0  0  0
 19 21  2  0  0  0  0
 21 22  1  0  0  0  0
 21 23  1  0  0  0  0
 23 24  1  0  0  0  0
 25 26  2  0  0  0  0
 25 27  1  0  0  0  0
 27 28  1  0  0  0  0
 27 29  1  0  0  0  0
 29 30  1  0  0  0  0
 29 31  1  0  0  0  0
 29 32  1  0  0  0  0
M  END
$$$$

  -OEChem-04042216033D

 32 32  0     1  0  0  0  0  0999 V2000
   -3.8810   -3.6007    2.5996 H   0  0  0  0  0  0  0  0  0  0  0  0
   -3.8884   -2.8168    1.8370 C   0  0  0  0  0  0  0  0  0  0  0  0
   -4.4875   -1.9781    2.2002 H   0  0  0  0  0  0  0  0  0  0  0  0
   -4.3442   -3.2147    0.9272 H   0  0  0  0  0  0  0  0  0  0  0  0
   -2.4723   -2.3548    1.5485 C   0  0  0  0  0  0  0  0  0  0  0  0
   -1.5296   -2.9041    2.0963 O   0  0  0  0  0  0  0  0  0  0  0  0
   -2.2607   -1.3026    0.6806 N   0  0  0  0  0  0  0  0  0  0  0  0
   -3.0788   -0.8106    0.3237 H   0  0  0  0  0  0  0  0  0  0  0  0
   -0.9527   -0.7032    0.3946 C   0  0  1  0  0  0  0  0  0  0  0  0
   -0.2775   -0.9611    1.2168 H   0  0  0  0  0  0  0  0  0  0  0  0
   -0.2262   -1.1139   -0.9274 C   0  0  0  0  0  0  0  0  0  0  0  0
   -0.0113   -0.1949   -1.4840 H   0  0  0  0  0  0  0  0  0  0  0  0
    0.7428   -1.5165   -0.6149 H   0  0  0  0  0  0  0  0  0  0  0  0
   -0.7649   -2.0993   -1.9681 C   0  0  0  0  0  0  0  0  0  0  0  0
    0.0762   -2.3077   -3.0776 C   0  0  0  0  0  0  0  0  0  0  0  0
    1.0317   -1.7945   -3.1325 H   0  0  0  0  0  0  0  0  0  0  0  0
   -0.2788   -3.1660   -4.1223 C   0  0  0  0  0  0  0  0  0  0  0  0
    0.3954   -3.3090   -4.9613 H   0  0  0  0  0  0  0  0  0  0  0  0
   -1.4999   -3.8371   -4.0865 C   0  0  0  0  0  0  0  0  0  0  0  0
   -1.7812   -4.5042   -4.8959 H   0  0  0  0  0  0  0  0  0  0  0  0
   -2.3595   -3.6420   -3.0058 C   0  0  0  0  0  0  0  0  0  0  0  0
   -3.3144   -4.1581   -2.9763 H   0  0  0  0  0  0  0  0  0  0  0  0
   -2.0005   -2.7818   -1.9614 C   0  0  0  0  0  0  0  0  0  0  0  0
   -2.7278   -2.6791   -1.1737 H   0  0  0  0  0  0  0  0  0  0  0  0
   -1.1056    0.8317    0.4272 C   0  0  0  0  0  0  0  0  0  0  0  0
   -2.0865    1.3629   -0.0814 O   0  0  0  0  0  0  0  0  0  0  0  0
   -0.1757    1.6164    1.0851 N   0  0  0  0  0  0  0  0  0  0  0  0
    0.5864    1.1442    1.5633 H   0  0  0  0  0  0  0  0  0  0  0  0
   -0.2955    3.0642    1.2076 C   0  0  0  0  0  0  0  0  0  0  0  0
   -1.1961    3.3275    1.7723 H   0  0  0  0  0  0  0  0  0  0  0  0
    0.5739    3.4730    1.7314 H   0  0  0  0  0  0  0  0  0  0  0  0
   -0.3512    3.5296    0.2177 H   0  0  0  0  0  0  0  0  0  0  0  0
  1  2  1  0  0  0  0
  2  3  1  0  0  0  0
  2  4  1  0  0  0  0
  2  5  1  0  0  0  0
  5  6  2  0  0  0  0
  5  7  1  0  0  0  0
  7  8  1  0  0  0  0
  7  9  1  0  0  0  0
  9 10  1  0  0  0  0
  9 11  1  0  0  0  0
  9 25  1  0  0  0  0
 11 12  1  0  0  0  0
 11 13  1  0  0  0  0
 11 14  1  0  0  0  0
 14 15  1  0  0  0  0
 14 23  2  0  0  0  0
 15 16  1  0  0  0  0
 15 17  2  0  0  0  0
 17 18  1  0  0  0  0
 17 19  1  0  0  0  0
 19 20  1  0  0  0  0
 19 21  2  0  0  0  0
 21 22  1  0  0  0  0
 21 23  1  0  0  0  0
 23 24  1  0  0  0  0
 25 26  2  0  0  0  0
 25 27  1  0  0  0  0
 27 28  1  0  0  0  0
 27 29  1  0  0  0  0
 29 30  1  0  0  0  0
 29 31  1  0  0  0  0
 29 32  1  0  0  0  0
M  END
$$$$

  -OEChem-04042216033D

 32 32  0     1  0  0  0  0  0999 V2000
   -3.8206   -3.6953    2.5043 H   0  0  0  0  0  0  0  0  0  0  0  0
   -3.8274   -2.9076    1.7455 C   0  0  0  0  0  0  0  0  0  0  0  0
   -4.4712   -2.0940    2.0885 H   0  0  0  0  0  0  0  0  0  0  0  0
   -4.2313   -3.3168    0.8164 H   0  0  0  0  0  0  0  0  0  0  0  0
   -2.4193   -2.3928    1.5122 C   0  0  0  0  0  0  0  0  0  0  0  0
   -1.4778   -2.9071    2.0955 O   0  0  0  0  0  0  0  0  0  0  0  0
   -2.2157   -1.3301    0.6563 N   0  0  0  0  0  0  0  0  0  0  0  0
   -3.0386   -0.8568    0.2874 H   0  0  0  0  0  0  0  0  0  0  0  0
   -0.9162   -0.6993    0.3954 C   0  0  1  0  0  0  0  0  0  0  0  0
   -0.2451   -0.9492    1.2235 H   0  0  0  0  0  0  0  0  0  0  0  0
   -0.1792   -1.1065   -0.9200 C   0  0  0  0  0  0  0  0  0  0  0  0
    0.0244   -0.1951   -1.4930 H   0  0  0  0  0  0  0  0  0  0  0  0
    0.7944   -1.4967   -0.6060 H   0  0  0  0  0  0  0  0  0  0  0  0
   -0.7463   -2.1091   -1.9254 C   0  0  0  0  0  0  0  0  0  0  0  0
    0.1625   -2.6188   -2.8715 C   0  0  0  0  0  0  0  0  0  0  0  0
    1.2149   -2.3610   -2.8019 H   0  0  0  0  0  0  0  0  0  0  0  0
   -0.2467   -3.4762   -3.8975 C   0  0  0  0  0  0  0  0  0  0  0  0
    0.4827   -3.8768   -4.5951 H   0  0  0  0  0  0  0  0  0  0  0  0
   -1.5938   -3.8107   -4.0298 C   0  0  0  0  0  0  0  0  0  0  0  0
   -1.9158   -4.4757   -4.8258 H   0  0  0  0  0  0  0  0  0  0  0  0
   -2.5276   -3.2610   -3.1511 C   0  0  0  0  0  0  0  0  0  0  0  0
   -3.5828   -3.4848   -3.2754 H   0  0  0  0  0  0  0  0  0  0  0  0
   -2.1122   -2.4011   -2.1280 C   0  0  0  0  0  0  0  0  0  0  0  0
   -2.8938   -1.9494   -1.5354 H   0  0  0  0  0  0  0  0  0  0  0  0
   -1.0957    0.8316    0.4338 C   0  0  0  0  0  0  0  0  0  0  0  0
   -2.0780    1.3463   -0.0889 O   0  0  0  0  0  0  0  0  0  0  0  0
   -0.1910    1.6289    1.1108 N   0  0  0  0  0  0  0  0  0  0  0  0
    0.5735    1.1675    1.5957 H   0  0  0  0  0  0  0  0  0  0  0  0
   -0.3442    3.0723    1.2480 C   0  0  0  0  0  0  0  0  0  0  0  0
   -1.2785    3.3114    1.7667 H   0  0  0  0  0  0  0  0  0  0  0  0
    0.4875    3.4880    1.8248 H   0  0  0  0  0  0  0  0  0  0  0  0
   -0.3550    3.5516    0.2634 H   0  0  0  0  0  0  0  0  0  0  0  0
  1  2  1  0  0  0  0
  2  3  1  0  0  0  0
  2  4  1  0  0  0  0
  2  5  1  0  0  0  0
  5  6  2  0  0  0  0
  5  7  1  0  0  0  0
  7  8  1  0  0  0  0
  7  9  1  0  0  0  0
  9 10  1  0  0  0  0
  9 11  1  0  0  0  0
  9 25  1  0  0  0  0
 11 12  1  0  0  0  0
 11 13  1  0  0  0  0
 11 14  1  0  0  0  0
 14 15  1  0  0  0  0
 14 23  2  0  0  0  0
 15 16  1  0  0  0  0
 15 17  2  0  0  0  0
 17 18  1  0  0  0  0
 17 19  1  0  0  0  0
 19 20  1  0  0  0  0
 19 21  2  0  0  0  0
 21 22  1  0  0  0  0
 21 23  1  0  0  0  0
 23 24  1  0  0  0  0
 25 26  2  0  0  0  0
 25 27  1  0  0  0  0
 27 28  1  0  0  0  0
 27 29  1  0  0  0  0
 29 30  1  0  0  0  0
 29 31  1  0  0  0  0
 29 32  1  0  0  0  0
M  END
$$$$

  -OEChem-04042216033D

 32 32  0     1  0  0  0  0  0999 V2000
   -3.7786   -3.8145    2.3125 H   0  0  0  0  0  0  0  0  0  0  0  0
   -3.7820   -3.0015    1.5811 C   0  0  0  0  0  0  0  0  0  0  0  0
   -4.4741   -2.2262    1.9184 H   0  0  0  0  0  0  0  0  0  0  0  0
   -4.1243   -3.3934    0.6202 H   0  0  0  0  0  0  0  0  0  0  0  0
   -2.3867   -2.4245    1.4345 C   0  0  0  0  0  0  0  0  0  0  0  0
   -1.4585   -2.9057    2.0662 O   0  0  0  0  0  0  0  0  0  0  0  0
   -2.1783   -1.3487    0.5967 N   0  0  0  0  0  0  0  0  0  0  0  0
   -2.9962   -0.9133    0.1754 H   0  0  0  0  0  0  0  0  0  0  0  0
   -0.8829   -0.6844    0.3912 C   0  0  1  0  0  0  0  0  0  0  0  0
   -0.2299   -0.9326    1.2341 H   0  0  0  0  0  0  0  0  0  0  0  0
   -0.1212   -1.0781   -0.9110 C   0  0  0  0  0  0  0  0  0  0  0  0
    0.0755   -0.1720   -1.4938 H   0  0  0  0  0  0  0  0  0  0  0  0
    0.8541   -1.4621   -0.5955 H   0  0  0  0  0  0  0  0  0  0  0  0
   -0.7285   -2.0877   -1.8775 C   0  0  0  0  0  0  0  0  0  0  0  0
    0.1429   -2.8950   -2.6299 C   0  0  0  0  0  0  0  0  0  0  0  0
    1.2096   -2.8749   -2.4287 H   0  0  0  0  0  0  0  0  0  0  0  0
   -0.3367   -3.7545   -3.6240 C   0  0  0  0  0  0  0  0  0  0  0  0
    0.3528   -4.3943   -4.1667 H   0  0  0  0  0  0  0  0  0  0  0  0
   -1.6993   -3.7815   -3.9258 C   0  0  0  0  0  0  0  0  0  0  0  0
   -2.0744   -4.4452   -4.6992 H   0  0  0  0  0  0  0  0  0  0  0  0
   -2.5720   -2.9262   -3.2511 C   0  0  0  0  0  0  0  0  0  0  0  0
   -3.6255   -2.9089   -3.5136 H   0  0  0  0  0  0  0  0  0  0  0  0
   -2.0853   -2.0698   -2.2577 C   0  0  0  0  0  0  0  0  0  0  0  0
   -2.7765   -1.3635   -1.8129 H   0  0  0  0  0  0  0  0  0  0  0  0
   -1.0866    0.8428    0.4348 C   0  0  0  0  0  0  0  0  0  0  0  0
   -2.0463    1.3472   -0.1380 O   0  0  0  0  0  0  0  0  0  0  0  0
   -0.2212    1.6490    1.1517 N   0  0  0  0  0  0  0  0  0  0  0  0
    0.5237    1.1950    1.6730 H   0  0  0  0  0  0  0  0  0  0  0  0
   -0.3893    3.0920    1.2739 C   0  0  0  0  0  0  0  0  0  0  0  0
   -1.3468    3.3276    1.7503 H   0  0  0  0  0  0  0  0  0  0  0  0
    0.4140    3.5160    1.8840 H   0  0  0  0  0  0  0  0  0  0  0  0
   -0.3606    3.5660    0.2871 H   0  0  0  0  0  0  0  0  0  0  0  0
  1  2  1  0  0  0  0
  2  3  1  0  0  0  0
  2  4  1  0  0  0  0
  2  5  1  0  0  0  0
  5  6  2  0  0  0  0
  5  7  1  0  0  0  0
  7  8  1  0  0  0  0
  7  9  1  0  0  0  0
  9 10  1  0  0  0  0
  9 11  1  0  0  0  0
  9 25  1  0  0  0  0
 11 12  1  0  0  0  0
 11 13  1  0  0  0  0
 11 14  1  0  0  0  0
 14 15  1  0  0  0  0
 14 23  2  0  0  0  0
 15 16  1  0  0  0  0
 15 17  2  0  0  0  0
 17 18  1  0  0  0  0
 17 19  1  0  0  0  0
 19 20  1  0  0  0  0
 19 21  2  0  0  0  0
 21 22  1  0  0  0  0
 21 23  1  0  0  0  0
 23 24  1  0  0  0  0
 25 26  2  0  0  0  0
 25 27  1  0  0  0  0
 27 28  1  0  0  0  0
 27 29  1  0  0  0  0
 29 30  1  0  0  0  0
 29 31  1  0  0  0  0
 29 32  1  0  0  0  0
M  END
$$$$

  -OEChem-04042216033D

 32 32  0     1  0  0  0  0  0999 V2000
   -3.7557   -3.9024    2.0977 H   0  0  0  0  0  0  0  0  0  0  0  0
   -3.7427   -3.0727    1.3855 C   0  0  0  0  0  0  0  0  0  0  0  0
   -4.4948   -2.3388    1.6851 H   0  0  0  0  0  0  0  0  0  0  0  0
   -3.9919   -3.4569    0.3932 H   0  0  0  0  0  0  0  0  0  0  0  0
   -2.3696   -2.4279    1.3570 C   0  0  0  0  0  0  0  0  0  0  0  0
   -1.4728   -2.8690    2.0596 O   0  0  0  0  0  0  0  0  0  0  0  0
   -2.1431   -1.3435    0.5360 N   0  0  0  0  0  0  0  0  0  0  0  0
   -2.9318   -0.9774    0.0083 H   0  0  0  0  0  0  0  0  0  0  0  0
   -0.8495   -0.6590    0.3828 C   0  0  1  0  0  0  0  0  0  0  0  0
   -0.2124   -0.9107    1.2363 H   0  0  0  0  0  0  0  0  0  0  0  0
   -0.0711   -1.0401   -0.9104 C   0  0  0  0  0  0  0  0  0  0  0  0
    0.1287   -0.1361   -1.4958 H   0  0  0  0  0  0  0  0  0  0  0  0
    0.9027   -1.4305   -0.5987 H   0  0  0  0  0  0  0  0  0  0  0  0
   -0.7169   -2.0453   -1.8493 C   0  0  0  0  0  0  0  0  0  0  0  0
    0.0481   -3.0954   -2.3831 C   0  0  0  0  0  0  0  0  0  0  0  0
    1.0698   -3.2498   -2.0498 H   0  0  0  0  0  0  0  0  0  0  0  0
   -0.4945   -3.9698   -3.3312 C   0  0  0  0  0  0  0  0  0  0  0  0
    0.1022   -4.7926   -3.7135 H   0  0  0  0  0  0  0  0  0  0  0  0
   -1.7989   -3.7789   -3.7936 C   0  0  0  0  0  0  0  0  0  0  0  0
   -2.2194   -4.4552   -4.5318 H   0  0  0  0  0  0  0  0  0  0  0  0
   -2.5502   -2.6994   -3.3234 C   0  0  0  0  0  0  0  0  0  0  0  0
   -3.5514   -2.5266   -3.7069 H   0  0  0  0  0  0  0  0  0  0  0  0
   -2.0039   -1.8285   -2.3752 C   0  0  0  0  0  0  0  0  0  0  0  0
   -2.5800   -0.9633   -2.0606 H   0  0  0  0  0  0  0  0  0  0  0  0
   -1.0682    0.8654    0.4283 C   0  0  0  0  0  0  0  0  0  0  0  0
   -1.9930    1.3691   -0.2000 O   0  0  0  0  0  0  0  0  0  0  0  0
   -0.2366    1.6732    1.1820 N   0  0  0  0  0  0  0  0  0  0  0  0
    0.4826    1.2197    1.7385 H   0  0  0  0  0  0  0  0  0  0  0  0
   -0.4153    3.1151    1.3007 C   0  0  0  0  0  0  0  0  0  0  0  0
   -1.3935    3.3457    1.7361 H   0  0  0  0  0  0  0  0  0  0  0  0
    0.3596    3.5398    1.9459 H   0  0  0  0  0  0  0  0  0  0  0  0
   -0.3450    3.5919    0.3173 H   0  0  0  0  0  0  0  0  0  0  0  0
  1  2  1  0  0  0  0
  2  3  1  0  0  0  0
  2  4  1  0  0  0  0
  2  5  1  0  0  0  0
  5  6  2  0  0  0  0
  5  7  1  0  0  0  0
  7  8  1  0  0  0  0
  7  9  1  0  0  0  0
  9 10  1  0  0  0  0
  9 11  1  0  0  0  0
  9 25  1  0  0  0  0
 11 12  1  0  0  0  0
 11 13  1  0  0  0  0
 11 14  1  0  0  0  0
 14 15  1  0  0  0  0
 14 23  2  0  0  0  0
 15 16  1  0  0  0  0
 15 17  2  0  0  0  0
 17 18  1  0  0  0  0
 17 19  1  0  0  0  0
 19 20  1  0  0  0  0
 19 21  2  0  0  0  0
 21 22  1  0  0  0  0
 21 23  1  0  0  0  0
 23 24  1  0  0  0  0
 25 26  2  0  0  0  0
 25 27  1  0  0  0  0
 27 28  1  0  0  0  0
 27 29  1  0  0  0  0
 29 30  1  0  0  0  0
 29 31  1  0  0  0  0
 29 32  1  0  0  0  0
M  END
$$$$

  -OEChem-04042216033D

 32 32  0     1  0  0  0  0  0999 V2000
   -3.7207   -3.9841    1.8767 H   0  0  0  0  0  0  0  0  0  0  0  0
   -3.6990   -3.1314    1.1925 C   0  0  0  0  0  0  0  0  0  0  0  0
   -4.5042   -2.4431    1.4601 H   0  0  0  0  0  0  0  0  0  0  0  0
   -3.8601   -3.4931    0.1739 H   0  0  0  0  0  0  0  0  0  0  0  0
   -2.3611   -2.4225    1.2801 C   0  0  0  0  0  0  0  0  0  0  0  0
   -1.5036   -2.8269    2.0508 O   0  0  0  0  0  0  0  0  0  0  0  0
   -2.1191   -1.3281    0.4775 N   0  0  0  0  0  0  0  0  0  0  0  0
   -2.8600   -1.0371   -0.1557 H   0  0  0  0  0  0  0  0  0  0  0  0
   -0.8269   -0.6308    0.3722 C   0  0  1  0  0  0  0  0  0  0  0  0
   -0.2060   -0.8925    1.2347 H   0  0  0  0  0  0  0  0  0  0  0  0
   -0.0353   -1.0037   -0.9130 C   0  0  0  0  0  0  0  0  0  0  0  0
    0.1706   -0.1002   -1.4973 H   0  0  0  0  0  0  0  0  0  0  0  0
    0.9360   -1.4024   -0.6043 H   0  0  0  0  0  0  0  0  0  0  0  0
   -0.7093   -2.0021   -1.8344 C   0  0  0  0  0  0  0  0  0  0  0  0
   -0.0964   -3.2291   -2.1297 C   0  0  0  0  0  0  0  0  0  0  0  0
    0.8395   -3.5010   -1.6510 H   0  0  0  0  0  0  0  0  0  0  0  0
   -0.6903   -4.1241   -3.0263 C   0  0  0  0  0  0  0  0  0  0  0  0
   -0.2149   -5.0786   -3.2326 H   0  0  0  0  0  0  0  0  0  0  0  0
   -1.8906   -3.7887   -3.6596 C   0  0  0  0  0  0  0  0  0  0  0  0
   -2.3495   -4.4830   -4.3574 H   0  0  0  0  0  0  0  0  0  0  0  0
   -2.4898   -2.5519   -3.4050 C   0  0  0  0  0  0  0  0  0  0  0  0
   -3.4112   -2.2795   -3.9112 H   0  0  0  0  0  0  0  0  0  0  0  0
   -1.8944   -1.6592   -2.5078 C   0  0  0  0  0  0  0  0  0  0  0  0
   -2.3505   -0.6875   -2.3357 H   0  0  0  0  0  0  0  0  0  0  0  0
   -1.0491    0.8929    0.4249 C   0  0  0  0  0  0  0  0  0  0  0  0
   -1.9354    1.4054   -0.2500 O   0  0  0  0  0  0  0  0  0  0  0  0
   -0.2434    1.6951    1.2121 N   0  0  0  0  0  0  0  0  0  0  0  0
    0.4482    1.2373    1.7993 H   0  0  0  0  0  0  0  0  0  0  0  0
   -0.4147    3.1389    1.3183 C   0  0  0  0  0  0  0  0  0  0  0  0
   -1.4150    3.3798    1.6930 H   0  0  0  0  0  0  0  0  0  0  0  0
    0.3234    3.5578    2.0090 H   0  0  0  0  0  0  0  0  0  0  0  0
   -0.2809    3.6131    0.3404 H   0  0  0  0  0  0  0  0  0  0  0  0
  1  2  1  0  0  0  0
  2  3  1  0  0  0  0
  2  4  1  0  0  0  0
  2  5  1  0  0  0  0
  5  6  2  0  0  0  0
  5  7  1  0  0  0  0
  7  8  1  0  0  0  0
  7  9  1  0  0  0  0
  9 10  1  0  0  0  0
  9 11  1  0  0  0  0
  9 25  1  0  0  0  0
 11 12  1  0  0  0  0
 11 13  1  0  0  0  0
 11 14  1  0  0  0  0
 14 15  1  0  0  0  0
 14 23  2  0  0  0  0
 15 16  1  0  0  0  0
 15 17  2  0  0  0  0
 17 18  1  0  0  0  0
 17 19  1  0  0  0  0
 19 20  1  0  0  0  0
 19 21  2  0  0  0  0
 21 22  1  0  0  0  0
 21 23  1  0  0  0  0
 23 24  1  0  0  0  0
 25 26  2  0  0  0  0
 25 27  1  0  0  0  0
 27 28  1  0  0  0  0
 27 29  1  0  0  0  0
 29 30  1  0  0  0  0
 29 31  1  0  0  0  0
 29 32  1  0  0  0  0
M  END
$$$$

  -OEChem-04042216033D

 32 32  0     1  0  0  0  0  0999 V2000
   -3.7078   -4.0160    1.7507 H   0  0  0  0  0  0  0  0  0  0  0  0
   -3.6819   -3.1520    1.0807 C   0  0  0  0  0  0  0  0  0  0  0  0
   -4.5056   -2.4813    1.3368 H   0  0  0  0  0  0  0  0  0  0  0  0
   -3.8090   -3.4996    0.0523 H   0  0  0  0  0  0  0  0  0  0  0  0
   -2.3586   -2.4231    1.2163 C   0  0  0  0  0  0  0  0  0  0  0  0
   -1.5188   -2.8228    2.0089 O   0  0  0  0  0  0  0  0  0  0  0  0
   -2.1047   -1.3226    0.4256 N   0  0  0  0  0  0  0  0  0  0  0  0
   -2.8211   -1.0510   -0.2438 H   0  0  0  0  0  0  0  0  0  0  0  0
   -0.8130   -0.6184    0.3552 C   0  0  1  0  0  0  0  0  0  0  0  0
   -0.2071   -0.8851    1.2266 H   0  0  0  0  0  0  0  0  0  0  0  0
   -0.0036   -0.9829   -0.9190 C   0  0  0  0  0  0  0  0  0  0  0  0
    0.2134   -0.0786   -1.4982 H   0  0  0  0  0  0  0  0  0  0  0  0
    0.9625   -1.3915   -0.6065 H   0  0  0  0  0  0  0  0  0  0  0  0
   -0.6863   -1.9756   -1.8354 C   0  0  0  0  0  0  0  0  0  0  0  0
   -0.2653   -3.3120   -1.8939 C   0  0  0  0  0  0  0  0  0  0  0  0
    0.5467   -3.6561   -1.2601 H   0  0  0  0  0  0  0  0  0  0  0  0
   -0.8978   -4.2167   -2.7538 C   0  0  0  0  0  0  0  0  0  0  0  0
   -0.5707   -5.2518   -2.7862 H   0  0  0  0  0  0  0  0  0  0  0  0
   -1.9484   -3.7884   -3.5715 C   0  0  0  0  0  0  0  0  0  0  0  0
   -2.4375   -4.4902   -4.2406 H   0  0  0  0  0  0  0  0  0  0  0  0
   -2.3639   -2.4538   -3.5315 C   0  0  0  0  0  0  0  0  0  0  0  0
   -3.1736   -2.1153   -4.1716 H   0  0  0  0  0  0  0  0  0  0  0  0
   -1.7319   -1.5513   -2.6703 C   0  0  0  0  0  0  0  0  0  0  0  0
   -2.0539   -0.5131   -2.6456 H   0  0  0  0  0  0  0  0  0  0  0  0
   -1.0378    0.9050    0.4116 C   0  0  0  0  0  0  0  0  0  0  0  0
   -1.8973    1.4241   -0.2924 O   0  0  0  0  0  0  0  0  0  0  0  0
   -0.2508    1.7018    1.2228 N   0  0  0  0  0  0  0  0  0  0  0  0
    0.4161    1.2381    1.8333 H   0  0  0  0  0  0  0  0  0  0  0  0
   -0.4165    3.1464    1.3270 C   0  0  0  0  0  0  0  0  0  0  0  0
   -1.4225    3.3916    1.6835 H   0  0  0  0  0  0  0  0  0  0  0  0
    0.3110    3.5605    2.0315 H   0  0  0  0  0  0  0  0  0  0  0  0
   -0.2621    3.6211    0.3523 H   0  0  0  0  0  0  0  0  0  0  0  0
  1  2  1  0  0  0  0
  2  3  1  0  0  0  0
  2  4  1  0  0  0  0
  2  5  1  0  0  0  0
  5  6  2  0  0  0  0
  5  7  1  0  0  0  0
  7  8  1  0  0  0  0
  7  9  1  0  0  0  0
  9 10  1  0  0  0  0
  9 11  1  0  0  0  0
  9 25  1  0  0  0  0
 11 12  1  0  0  0  0
 11 13  1  0  0  0  0
 11 14  1  0  0  0  0
 14 15  1  0  0  0  0
 14 23  2  0  0  0  0
 15 16  1  0  0  0  0
 15 17  2  0  0  0  0
 17 18  1  0  0  0  0
 17 19  1  0  0  0  0
 19 20  1  0  0  0  0
 19 21  2  0  0  0  0
 21 22  1  0  0  0  0
 21 23  1  0  0  0  0
 23 24  1  0  0  0  0
 25 26  2  0  0  0  0
 25 27  1  0  0  0  0
 27 28  1  0  0  0  0
 27 29  1  0  0  0  0
 29 30  1  0  0  0  0
 29 31  1  0  0  0  0
 29 32  1  0  0  0  0
M  END
$$$$

  -OEChem-04042216033D

 32 32  0     1  0  0  0  0  0999 V2000
   -3.7177   -4.0123    1.6866 H   0  0  0  0  0  0  0  0  0  0  0  0
   -3.6871   -3.1413    1.0263 C   0  0  0  0  0  0  0  0  0  0  0  0
   -4.5062   -2.4685    1.2908 H   0  0  0  0  0  0  0  0  0  0  0  0
   -3.8182   -3.4763   -0.0057 H   0  0  0  0  0  0  0  0  0  0  0  0
   -2.3590   -2.4223    1.1684 C   0  0  0  0  0  0  0  0  0  0  0  0
   -1.5180   -2.8395    1.9508 O   0  0  0  0  0  0  0  0  0  0  0  0
   -2.0980   -1.3151    0.3899 N   0  0  0  0  0  0  0  0  0  0  0  0
   -2.8118   -1.0317   -0.2779 H   0  0  0  0  0  0  0  0  0  0  0  0
   -0.8067   -0.6089    0.3356 C   0  0  1  0  0  0  0  0  0  0  0  0
   -0.2092   -0.8823    1.2106 H   0  0  0  0  0  0  0  0  0  0  0  0
    0.0132   -0.9706   -0.9319 C   0  0  0  0  0  0  0  0  0  0  0  0
    0.2383   -0.0645   -1.5048 H   0  0  0  0  0  0  0  0  0  0  0  0
    0.9752   -1.3859   -0.6153 H   0  0  0  0  0  0  0  0  0  0  0  0
   -0.6665   -1.9630   -1.8500 C   0  0  0  0  0  0  0  0  0  0  0  0
   -0.4659   -3.3417   -1.6864 C   0  0  0  0  0  0  0  0  0  0  0  0
    0.1885   -3.7054   -0.8991 H   0  0  0  0  0  0  0  0  0  0  0  0
   -1.1171   -4.2559   -2.5212 C   0  0  0  0  0  0  0  0  0  0  0  0
   -0.9574   -5.3214   -2.3851 H   0  0  0  0  0  0  0  0  0  0  0  0
   -1.9737   -3.7977   -3.5272 C   0  0  0  0  0  0  0  0  0  0  0  0
   -2.4779   -4.5072   -4.1766 H   0  0  0  0  0  0  0  0  0  0  0  0
   -2.1803   -2.4249   -3.6958 C   0  0  0  0  0  0  0  0  0  0  0  0
   -2.8462   -2.0659   -4.4749 H   0  0  0  0  0  0  0  0  0  0  0  0
   -1.5297   -1.5118   -2.8593 C   0  0  0  0  0  0  0  0  0  0  0  0
   -1.7006   -0.4462   -2.9888 H   0  0  0  0  0  0  0  0  0  0  0  0
   -1.0277    0.9144    0.4023 C   0  0  0  0  0  0  0  0  0  0  0  0
   -1.8818    1.4423   -0.3012 O   0  0  0  0  0  0  0  0  0  0  0  0
   -0.2446    1.7021    1.2263 N   0  0  0  0  0  0  0  0  0  0  0  0
    0.4183    1.2319    1.8363 H   0  0  0  0  0  0  0  0  0  0  0  0
   -0.4149    3.1448    1.3490 C   0  0  0  0  0  0  0  0  0  0  0  0
   -1.4297    3.3845    1.6840 H   0  0  0  0  0  0  0  0  0  0  0  0
    0.2940    3.5488    2.0782 H   0  0  0  0  0  0  0  0  0  0  0  0
   -0.2368    3.6344    0.3857 H   0  0  0  0  0  0  0  0  0  0  0  0
  1  2  1  0  0  0  0
  2  3  1  0  0  0  0
  2  4  1  0  0  0  0
  2  5  1  0  0  0  0
  5  6  2  0  0  0  0
  5  7  1  0  0  0  0
  7  8  1  0  0  0  0
  7  9  1  0  0  0  0
  9 10  1  0  0  0  0
  9 11  1  0  0  0  0
  9 25  1  0  0  0  0
 11 12  1  0  0  0  0
 11 13  1  0  0  0  0
 11 14  1  0  0  0  0
 14 15  1  0  0  0  0
 14 23  2  0  0  0  0
 15 16  1  0  0  0  0
 15 17  2  0  0  0  0
 17 18  1  0  0  0  0
 17 19  1  0  0  0  0
 19 20  1  0  0  0  0
 19 21  2  0  0  0  0
 21 22  1  0  0  0  0
 21 23  1  0  0  0  0
 23 24  1  0  0  0  0
 25 26  2  0  0  0  0
 25 27  1  0  0  0  0
 27 28  1  0  0  0  0
 27 29  1  0  0  0  0
 29 30  1  0  0  0  0
 29 31  1  0  0  0  0
 29 32  1  0  0  0  0
M  END
$$$$

  -OEChem-04042216033D

 32 32  0     1  0  0  0  0  0999 V2000
   -3.7582   -3.9801    1.7386 H   0  0  0  0  0  0  0  0  0  0  0  0
   -3.7197   -3.1154    1.0703 C   0  0  0  0  0  0  0  0  0  0  0  0
   -4.5190   -2.4222    1.3430 H   0  0  0  0  0  0  0  0  0  0  0  0
   -3.8755   -3.4563    0.0437 H   0  0  0  0  0  0  0  0  0  0  0  0
   -2.3741   -2.4245    1.1837 C   0  0  0  0  0  0  0  0  0  0  0  0
   -1.5216   -2.8650    1.9404 O   0  0  0  0  0  0  0  0  0  0  0  0
   -2.1080   -1.3204    0.4025 N   0  0  0  0  0  0  0  0  0  0  0  0
   -2.8359   -1.0112   -0.2387 H   0  0  0  0  0  0  0  0  0  0  0  0
   -0.8156   -0.6175    0.3397 C   0  0  1  0  0  0  0  0  0  0  0  0
   -0.2174   -0.8888    1.2151 H   0  0  0  0  0  0  0  0  0  0  0  0
    0.0078   -0.9728   -0.9286 C   0  0  0  0  0  0  0  0  0  0  0  0
    0.2421   -0.0609   -1.4889 H   0  0  0  0  0  0  0  0  0  0  0  0
    0.9658   -1.3928   -0.6069 H   0  0  0  0  0  0  0  0  0  0  0  0
   -0.6497   -1.9646   -1.8654 C   0  0  0  0  0  0  0  0  0  0  0  0
   -0.6982   -3.3303   -1.5433 C   0  0  0  0  0  0  0  0  0  0  0  0
   -0.2385   -3.6855   -0.6248 H   0  0  0  0  0  0  0  0  0  0  0  0
   -1.3416   -4.2385   -2.3903 C   0  0  0  0  0  0  0  0  0  0  0  0
   -1.3698   -5.2931   -2.1322 H   0  0  0  0  0  0  0  0  0  0  0  0
   -1.9483   -3.7873   -3.5664 C   0  0  0  0  0  0  0  0  0  0  0  0
   -2.4476   -4.4913   -4.2257 H   0  0  0  0  0  0  0  0  0  0  0  0
   -1.9128   -2.4279   -3.8918 C   0  0  0  0  0  0  0  0  0  0  0  0
   -2.3874   -2.0736   -4.8022 H   0  0  0  0  0  0  0  0  0  0  0  0
   -1.2689   -1.5210   -3.0431 C   0  0  0  0  0  0  0  0  0  0  0  0
   -1.2595   -0.4650   -3.2976 H   0  0  0  0  0  0  0  0  0  0  0  0
   -1.0376    0.9059    0.4034 C   0  0  0  0  0  0  0  0  0  0  0  0
   -1.9015    1.4317   -0.2893 O   0  0  0  0  0  0  0  0  0  0  0  0
   -0.2501    1.6948    1.2218 N   0  0  0  0  0  0  0  0  0  0  0  0
    0.4232    1.2266    1.8217 H   0  0  0  0  0  0  0  0  0  0  0  0
   -0.4111    3.1390    1.3357 C   0  0  0  0  0  0  0  0  0  0  0  0
   -1.4179    3.3859    1.6886 H   0  0  0  0  0  0  0  0  0  0  0  0
    0.3144    3.5450    2.0470 H   0  0  0  0  0  0  0  0  0  0  0  0
   -0.2498    3.6200    0.3652 H   0  0  0  0  0  0  0  0  0  0  0  0
  1  2  1  0  0  0  0
  2  3  1  0  0  0  0
  2  4  1  0  0  0  0
  2  5  1  0  0  0  0
  5  6  2  0  0  0  0
  5  7  1  0  0  0  0
  7  8  1  0  0  0  0
  7  9  1  0  0  0  0
  9 10  1  0  0  0  0
  9 11  1  0  0  0  0
  9 25  1  0  0  0  0
 11 12  1  0  0  0  0
 11 13  1  0  0  0  0
 11 14  1  0  0  0  0
 14 15  1  0  0  0  0
 14 23  2  0  0  0  0
 15 16  1  0  0  0  0
 15 17  2  0  0  0  0
 17 18  1  0  0  0  0
 17 19  1  0  0  0  0
 19 20  1  0  0  0  0
 19 21  2  0  0  0  0
 21 22  1  0  0  0  0
 21 23  1  0  0  0  0
 23 24  1  0  0  0  0
 25 26  2  0  0  0  0
 25 27  1  0  0  0  0
 27 28  1  0  0  0  0
 27 29  1  0  0  0  0
 29 30  1  0  0  0  0
 29 31  1  0  0  0  0
 29 32  1  0  0  0  0
M  END
$$$$

  -OEChem-04042216033D

 32 32  0     1  0  0  0  0  0999 V2000
   -3.8165   -3.9193    1.9024 H   0  0  0  0  0  0  0  0  0  0  0  0
   -3.7748   -3.0680    1.2172 C   0  0  0  0  0  0  0  0  0  0  0  0
   -4.5413   -2.3450    1.5063 H   0  0  0  0  0  0  0  0  0  0  0  0
   -3.9798   -3.4201    0.2031 H   0  0  0  0  0  0  0  0  0  0  0  0
   -2.4047   -2.4193    1.2701 C   0  0  0  0  0  0  0  0  0  0  0  0
   -1.5413   -2.8720    2.0065 O   0  0  0  0  0  0  0  0  0  0  0  0
   -2.1324   -1.3339    0.4648 N   0  0  0  0  0  0  0  0  0  0  0  0
   -2.8785   -1.0001   -0.1427 H   0  0  0  0  0  0  0  0  0  0  0  0
   -0.8347   -0.6458    0.3662 C   0  0  1  0  0  0  0  0  0  0  0  0
   -0.2260   -0.9055    1.2380 H   0  0  0  0  0  0  0  0  0  0  0  0
   -0.0153   -0.9973   -0.9109 C   0  0  0  0  0  0  0  0  0  0  0  0
    0.2270   -0.0773   -1.4542 H   0  0  0  0  0  0  0  0  0  0  0  0
    0.9402   -1.4186   -0.5835 H   0  0  0  0  0  0  0  0  0  0  0  0
   -0.6297   -1.9867   -1.8849 C   0  0  0  0  0  0  0  0  0  0  0  0
   -0.9467   -3.2998   -1.4985 C   0  0  0  0  0  0  0  0  0  0  0  0
   -0.6905   -3.6469   -0.5017 H   0  0  0  0  0  0  0  0  0  0  0  0
   -1.5658   -4.1806   -2.3912 C   0  0  0  0  0  0  0  0  0  0  0  0
   -1.7934   -5.1958   -2.0798 H   0  0  0  0  0  0  0  0  0  0  0  0
   -1.8854   -3.7550   -3.6833 C   0  0  0  0  0  0  0  0  0  0  0  0
   -2.3680   -4.4363   -4.3780 H   0  0  0  0  0  0  0  0  0  0  0  0
   -1.5816   -2.4497   -4.0797 C   0  0  0  0  0  0  0  0  0  0  0  0
   -1.8313   -2.1139   -5.0818 H   0  0  0  0  0  0  0  0  0  0  0  0
   -0.9607   -1.5715   -3.1846 C   0  0  0  0  0  0  0  0  0  0  0  0
   -0.7471   -0.5553   -3.5034 H   0  0  0  0  0  0  0  0  0  0  0  0
   -1.0580    0.8793    0.4055 C   0  0  0  0  0  0  0  0  0  0  0  0
   -1.9418    1.3913   -0.2724 O   0  0  0  0  0  0  0  0  0  0  0  0
   -0.2577    1.6844    1.1955 N   0  0  0  0  0  0  0  0  0  0  0  0
    0.4331    1.2295    1.7856 H   0  0  0  0  0  0  0  0  0  0  0  0
   -0.4144    3.1313    1.2795 C   0  0  0  0  0  0  0  0  0  0  0  0
   -1.4142    3.3886    1.6448 H   0  0  0  0  0  0  0  0  0  0  0  0
    0.3243    3.5530    1.9678 H   0  0  0  0  0  0  0  0  0  0  0  0
   -0.2694    3.5888    0.2953 H   0  0  0  0  0  0  0  0  0  0  0  0
  1  2  1  0  0  0  0
  2  3  1  0  0  0  0
  2  4  1  0  0  0  0
  2  5  1  0  0  0  0
  5  6  2  0  0  0  0
  5  7  1  0  0  0  0
  7  8  1  0  0  0  0
  7  9  1  0  0  0  0
  9 10  1  0  0  0  0
  9 11  1  0  0  0  0
  9 25  1  0  0  0  0
 11 12  1  0  0  0  0
 11 13  1  0  0  0  0
 11 14  1  0  0  0  0
 14 15  1  0  0  0  0
 14 23  2  0  0  0  0
 15 16  1  0  0  0  0
 15 17  2  0  0  0  0
 17 18  1  0  0  0  0
 17 19  1  0  0  0  0
 19 20  1  0  0  0  0
 19 21  2  0  0  0  0
 21 22  1  0  0  0  0
 21 23  1  0  0  0  0
 23 24  1  0  0  0  0
 25 26  2  0  0  0  0
 25 27  1  0  0  0  0
 27 28  1  0  0  0  0
 27 29  1  0  0  0  0
 29 30  1  0  0  0  0
 29 31  1  0  0  0  0
 29 32  1  0  0  0  0
M  END
$$$$

  -OEChem-04042216033D

 32 32  0     1  0  0  0  0  0999 V2000
   -3.8743   -3.8099    2.1553 H   0  0  0  0  0  0  0  0  0  0  0  0
   -3.8364   -2.9780    1.4463 C   0  0  0  0  0  0  0  0  0  0  0  0
   -4.5465   -2.2108    1.7644 H   0  0  0  0  0  0  0  0  0  0  0  0
   -4.1240   -3.3435    0.4573 H   0  0  0  0  0  0  0  0  0  0  0  0
   -2.4362   -2.3965    1.3938 C   0  0  0  0  0  0  0  0  0  0  0  0
   -1.5498   -2.8706    2.0875 O   0  0  0  0  0  0  0  0  0  0  0  0
   -2.1668   -1.3399    0.5498 N   0  0  0  0  0  0  0  0  0  0  0  0
   -2.9396   -0.9680   -0.0003 H   0  0  0  0  0  0  0  0  0  0  0  0
   -0.8612   -0.6797    0.3891 C   0  0  1  0  0  0  0  0  0  0  0  0
   -0.2331   -0.9221    1.2523 H   0  0  0  0  0  0  0  0  0  0  0  0
   -0.0584   -1.0409   -0.9017 C   0  0  0  0  0  0  0  0  0  0  0  0
    0.1878   -0.1156   -1.4341 H   0  0  0  0  0  0  0  0  0  0  0  0
    0.8965   -1.4610   -0.5712 H   0  0  0  0  0  0  0  0  0  0  0  0
   -0.6280   -2.0288   -1.9124 C   0  0  0  0  0  0  0  0  0  0  0  0
   -1.2173   -3.2522   -1.5494 C   0  0  0  0  0  0  0  0  0  0  0  0
   -1.1888   -3.5869   -0.5196 H   0  0  0  0  0  0  0  0  0  0  0  0
   -1.7855   -4.0957   -2.5097 C   0  0  0  0  0  0  0  0  0  0  0  0
   -2.2194   -5.0447   -2.2089 H   0  0  0  0  0  0  0  0  0  0  0  0
   -1.7821   -3.7241   -3.8557 C   0  0  0  0  0  0  0  0  0  0  0  0
   -2.2220   -4.3777   -4.6031 H   0  0  0  0  0  0  0  0  0  0  0  0
   -1.2052   -2.5110   -4.2372 C   0  0  0  0  0  0  0  0  0  0  0  0
   -1.2019   -2.2153   -5.2823 H   0  0  0  0  0  0  0  0  0  0  0  0
   -0.6365   -1.6723   -3.2726 C   0  0  0  0  0  0  0  0  0  0  0  0
   -0.2085   -0.7269   -3.5921 H   0  0  0  0  0  0  0  0  0  0  0  0
   -1.0806    0.8475    0.3957 C   0  0  0  0  0  0  0  0  0  0  0  0
   -2.0011    1.3438   -0.2441 O   0  0  0  0  0  0  0  0  0  0  0  0
   -0.2517    1.6691    1.1380 N   0  0  0  0  0  0  0  0  0  0  0  0
    0.4613    1.2259    1.7104 H   0  0  0  0  0  0  0  0  0  0  0  0
   -0.4249    3.1141    1.2223 C   0  0  0  0  0  0  0  0  0  0  0  0
   -1.4075    3.3588    1.6394 H   0  0  0  0  0  0  0  0  0  0  0  0
    0.3432    3.5504    1.8681 H   0  0  0  0  0  0  0  0  0  0  0  0
   -0.3398    3.5682    0.2294 H   0  0  0  0  0  0  0  0  0  0  0  0
  1  2  1  0  0  0  0
  2  3  1  0  0  0  0
  2  4  1  0  0  0  0
  2  5  1  0  0  0  0
  5  6  2  0  0  0  0
  5  7  1  0  0  0  0
  7  8  1  0  0  0  0
  7  9  1  0  0  0  0
  9 10  1  0  0  0  0
  9 11  1  0  0  0  0
  9 25  1  0  0  0  0
 11 12  1  0  0  0  0
 11 13  1  0  0  0  0
 11 14  1  0  0  0  0
 14 15  1  0  0  0  0
 14 23  2  0  0  0  0
 15 16  1  0  0  0  0
 15 17  2  0  0  0  0
 17 18  1  0  0  0  0
 17 19  1  0  0  0  0
 19 20  1  0  0  0  0
 19 21  2  0  0  0  0
 21 22  1  0  0  0  0
 21 23  1  0  0  0  0
 23 24  1  0  0  0  0
 25 26  2  0  0  0  0
 25 27  1  0  0  0  0
 27 28  1  0  0  0  0
 27 29  1  0  0  0  0
 29 30  1  0  0  0  0
 29 31  1  0  0  0  0
 29 32  1  0  0  0  0
M  END
$$$$

  -OEChem-04042216033D

 32 32  0     1  0  0  0  0  0999 V2000
   -3.8851   -3.7175    2.4032 H   0  0  0  0  0  0  0  0  0  0  0  0
   -3.8718   -2.8895    1.6890 C   0  0  0  0  0  0  0  0  0  0  0  0
   -4.5100   -2.0871    2.0669 H   0  0  0  0  0  0  0  0  0  0  0  0
   -4.2683   -3.2414    0.7335 H   0  0  0  0  0  0  0  0  0  0  0  0
   -2.4550   -2.3790    1.5047 C   0  0  0  0  0  0  0  0  0  0  0  0
   -1.5349   -2.8890    2.1244 O   0  0  0  0  0  0  0  0  0  0  0  0
   -2.2119   -1.3396    0.6304 N   0  0  0  0  0  0  0  0  0  0  0  0
   -3.0134   -0.9150    0.1656 H   0  0  0  0  0  0  0  0  0  0  0  0
   -0.9035   -0.7079    0.4010 C   0  0  1  0  0  0  0  0  0  0  0  0
   -0.2502   -0.9435    1.2472 H   0  0  0  0  0  0  0  0  0  0  0  0
   -0.1292   -1.0795   -0.9075 C   0  0  0  0  0  0  0  0  0  0  0  0
    0.1055   -0.1493   -1.4367 H   0  0  0  0  0  0  0  0  0  0  0  0
    0.8312   -1.4928   -0.5843 H   0  0  0  0  0  0  0  0  0  0  0  0
   -0.6668   -2.0622   -1.9468 C   0  0  0  0  0  0  0  0  0  0  0  0
   -1.5052   -3.1591   -1.6762 C   0  0  0  0  0  0  0  0  0  0  0  0
   -1.7416   -3.4465   -0.6634 H   0  0  0  0  0  0  0  0  0  0  0  0
   -1.9976   -3.9705   -2.7042 C   0  0  0  0  0  0  0  0  0  0  0  0
   -2.6303   -4.8204   -2.4667 H   0  0  0  0  0  0  0  0  0  0  0  0
   -1.6645   -3.6994   -4.0319 C   0  0  0  0  0  0  0  0  0  0  0  0
   -2.0452   -4.3293   -4.8307 H   0  0  0  0  0  0  0  0  0  0  0  0
   -0.8311   -2.6197   -4.3259 C   0  0  0  0  0  0  0  0  0  0  0  0
   -0.5661   -2.4028   -5.3564 H   0  0  0  0  0  0  0  0  0  0  0  0
   -0.3404   -1.8137   -3.2935 C   0  0  0  0  0  0  0  0  0  0  0  0
    0.2982   -0.9748   -3.5530 H   0  0  0  0  0  0  0  0  0  0  0  0
   -1.1115    0.8218    0.3976 C   0  0  0  0  0  0  0  0  0  0  0  0
   -2.0693    1.3163   -0.1865 O   0  0  0  0  0  0  0  0  0  0  0  0
   -0.2430    1.6454    1.0906 N   0  0  0  0  0  0  0  0  0  0  0  0
    0.5031    1.2039    1.6205 H   0  0  0  0  0  0  0  0  0  0  0  0
   -0.4096    3.0911    1.1777 C   0  0  0  0  0  0  0  0  0  0  0  0
   -1.3661    3.3387    1.6501 H   0  0  0  0  0  0  0  0  0  0  0  0
    0.3954    3.5295    1.7753 H   0  0  0  0  0  0  0  0  0  0  0  0
   -0.3825    3.5407    0.1795 H   0  0  0  0  0  0  0  0  0  0  0  0
  1  2  1  0  0  0  0
  2  3  1  0  0  0  0
  2  4  1  0  0  0  0
  2  5  1  0  0  0  0
  5  6  2  0  0  0  0
  5  7  1  0  0  0  0
  7  8  1  0  0  0  0
  7  9  1  0  0  0  0
  9 10  1  0  0  0  0
  9 11  1  0  0  0  0
  9 25  1  0  0  0  0
 11 12  1  0  0  0  0
 11 13  1  0  0  0  0
 11 14  1  0  0  0  0
 14 15  1  0  0  0  0
 14 23  2  0  0  0  0
 15 16  1  0  0  0  0
 15 17  2  0  0  0  0
 17 18  1  0  0  0  0
 17 19  1  0  0  0  0
 19 20  1  0  0  0  0
 19 21  2  0  0  0  0
 21 22  1  0  0  0  0
 21 23  1  0  0  0  0
 23 24  1  0  0  0  0
 25 26  2  0  0  0  0
 25 27  1  0  0  0  0
 27 28  1  0  0  0  0
 27 29  1  0  0  0  0
 29 30  1  0  0  0  0
 29 31  1  0  0  0  0
 29 32  1  0  0  0  0
M  END
$$$$

  -OEChem-04042216033D

 32 32  0     1  0  0  0  0  0999 V2000
   -3.8420   -3.6953    2.5279 H   0  0  0  0  0  0  0  0  0  0  0  0
   -3.8620   -2.8506    1.8337 C   0  0  0  0  0  0  0  0  0  0  0  0
   -4.4462   -2.0419    2.2794 H   0  0  0  0  0  0  0  0  0  0  0  0
   -4.3427   -3.1687    0.9056 H   0  0  0  0  0  0  0  0  0  0  0  0
   -2.4501   -2.3733    1.5505 C   0  0  0  0  0  0  0  0  0  0  0  0
   -1.5022   -2.9144    2.0973 O   0  0  0  0  0  0  0  0  0  0  0  0
   -2.2461   -1.3222    0.6793 N   0  0  0  0  0  0  0  0  0  0  0  0
   -3.0678   -0.8552    0.2973 H   0  0  0  0  0  0  0  0  0  0  0  0
   -0.9425   -0.7084    0.3930 C   0  0  1  0  0  0  0  0  0  0  0  0
   -0.2598   -0.9604    1.2109 H   0  0  0  0  0  0  0  0  0  0  0  0
   -0.2154   -1.0851   -0.9408 C   0  0  0  0  0  0  0  0  0  0  0  0
   -0.0046   -0.1517   -1.4749 H   0  0  0  0  0  0  0  0  0  0  0  0
    0.7569   -1.4914   -0.6443 H   0  0  0  0  0  0  0  0  0  0  0  0
   -0.7553   -2.0567   -1.9928 C   0  0  0  0  0  0  0  0  0  0  0  0
   -1.8043   -2.9855   -1.8399 C   0  0  0  0  0  0  0  0  0  0  0  0
   -2.3126   -3.1371   -0.9032 H   0  0  0  0  0  0  0  0  0  0  0  0
   -2.2143   -3.8010   -2.9012 C   0  0  0  0  0  0  0  0  0  0  0  0
   -3.0207   -4.5135   -2.7555 H   0  0  0  0  0  0  0  0  0  0  0  0
   -1.5862   -3.7094   -4.1431 C   0  0  0  0  0  0  0  0  0  0  0  0
   -1.9049   -4.3432   -4.9653 H   0  0  0  0  0  0  0  0  0  0  0  0
   -0.5422   -2.8025   -4.3192 C   0  0  0  0  0  0  0  0  0  0  0  0
   -0.0458   -2.7256   -5.2819 H   0  0  0  0  0  0  0  0  0  0  0  0
   -0.1360   -1.9909   -3.2555 C   0  0  0  0  0  0  0  0  0  0  0  0
    0.6783   -1.2920   -3.4219 H   0  0  0  0  0  0  0  0  0  0  0  0
   -1.1219    0.8244    0.4235 C   0  0  0  0  0  0  0  0  0  0  0  0
   -2.1064    1.3425   -0.0918 O   0  0  0  0  0  0  0  0  0  0  0  0
   -0.2041    1.6217    1.0830 N   0  0  0  0  0  0  0  0  0  0  0  0
    0.5663    1.1600    1.5579 H   0  0  0  0  0  0  0  0  0  0  0  0
   -0.3368    3.0689    1.1977 C   0  0  0  0  0  0  0  0  0  0  0  0
   -1.2583    3.3287    1.7291 H   0  0  0  0  0  0  0  0  0  0  0  0
    0.5110    3.4832    1.7518 H   0  0  0  0  0  0  0  0  0  0  0  0
   -0.3596    3.5314    0.2054 H   0  0  0  0  0  0  0  0  0  0  0  0
  1  2  1  0  0  0  0
  2  3  1  0  0  0  0
  2  4  1  0  0  0  0
  2  5  1  0  0  0  0
  5  6  2  0  0  0  0
  5  7  1  0  0  0  0
  7  8  1  0  0  0  0
  7  9  1  0  0  0  0
  9 10  1  0  0  0  0
  9 11  1  0  0  0  0
  9 25  1  0  0  0  0
 11 12  1  0  0  0  0
 11 13  1  0  0  0  0
 11 14  1  0  0  0  0
 14 15  1  0  0  0  0
 14 23  2  0  0  0  0
 15 16  1  0  0  0  0
 15 17  2  0  0  0  0
 17 18  1  0  0  0  0
 17 19  1  0  0  0  0
 19 20  1  0  0  0  0
 19 21  2  0  0  0  0
 21 22  1  0  0  0  0
 21 23  1  0  0  0  0
 23 24  1  0  0  0  0
 25 26  2  0  0  0  0
 25 27  1  0  0  0  0
 27 28  1  0  0  0  0
 27 29  1  0  0  0  0
 29 30  1  0  0  0  0
 29 31  1  0  0  0  0
 29 32  1  0  0  0  0
M  END
$$$$

  -OEChem-04042216033D

 32 32  0     1  0  0  0  0  0999 V2000
   -3.8841   -3.6351    2.5109 H   0  0  0  0  0  0  0  0  0  0  0  0
   -3.8903   -2.8206    1.7811 C   0  0  0  0  0  0  0  0  0  0  0  0
   -4.4909   -1.9979    2.1767 H   0  0  0  0  0  0  0  0  0  0  0  0
   -4.3439   -3.1812    0.8547 H   0  0  0  0  0  0  0  0  0  0  0  0
   -2.4738   -2.3469    1.5138 C   0  0  0  0  0  0  0  0  0  0  0  0
   -1.5327   -2.9021    2.0582 O   0  0  0  0  0  0  0  0  0  0  0  0
   -2.2603   -1.2824    0.6614 N   0  0  0  0  0  0  0  0  0  0  0  0
   -3.0775   -0.7902    0.3026 H   0  0  0  0  0  0  0  0  0  0  0  0
   -0.9514   -0.6849    0.3760 C   0  0  1  0  0  0  0  0  0  0  0  0
   -0.2703   -0.9594    1.1879 H   0  0  0  0  0  0  0  0  0  0  0  0
   -0.2399   -1.0773   -0.9600 C   0  0  0  0  0  0  0  0  0  0  0  0
   -0.0229   -0.1503   -1.5024 H   0  0  0  0  0  0  0  0  0  0  0  0
    0.7289   -1.4922   -0.6630 H   0  0  0  0  0  0  0  0  0  0  0  0
   -0.7945   -2.0419   -2.0127 C   0  0  0  0  0  0  0  0  0  0  0  0
   -2.0179   -2.7456   -1.9888 C   0  0  0  0  0  0  0  0  0  0  0  0
   -2.7314   -2.6639   -1.1867 H   0  0  0  0  0  0  0  0  0  0  0  0
   -2.3834   -3.6022   -3.0337 C   0  0  0  0  0  0  0  0  0  0  0  0
   -3.3303   -4.1321   -2.9920 H   0  0  0  0  0  0  0  0  0  0  0  0
   -1.5394   -3.7781   -4.1297 C   0  0  0  0  0  0  0  0  0  0  0  0
   -1.8250   -4.4437   -4.9389 H   0  0  0  0  0  0  0  0  0  0  0  0
   -0.3266   -3.0929   -4.1790 C   0  0  0  0  0  0  0  0  0  0  0  0
    0.3366   -3.2219   -5.0292 H   0  0  0  0  0  0  0  0  0  0  0  0
    0.0354   -2.2392   -3.1327 C   0  0  0  0  0  0  0  0  0  0  0  0
    0.9861   -1.7183   -3.1965 H   0  0  0  0  0  0  0  0  0  0  0  0
   -1.0972    0.8500    0.4337 C   0  0  0  0  0  0  0  0  0  0  0  0
   -2.0781    1.3936   -0.0618 O   0  0  0  0  0  0  0  0  0  0  0  0
   -0.1595    1.6200    1.0978 N   0  0  0  0  0  0  0  0  0  0  0  0
    0.6014    1.1361    1.5663 H   0  0  0  0  0  0  0  0  0  0  0  0
   -0.2854    3.0629    1.2647 C   0  0  0  0  0  0  0  0  0  0  0  0
   -1.1847    3.3044    1.8411 H   0  0  0  0  0  0  0  0  0  0  0  0
    0.5843    3.4600    1.7971 H   0  0  0  0  0  0  0  0  0  0  0  0
   -0.3482    3.5581    0.2899 H   0  0  0  0  0  0  0  0  0  0  0  0
  1  2  1  0  0  0  0
  2  3  1  0  0  0  0
  2  4  1  0  0  0  0
  2  5  1  0  0  0  0
  5  6  2  0  0  0  0
  5  7  1  0  0  0  0
  7  8  1  0  0  0  0
  7  9  1  0  0  0  0
  9 10  1  0  0  0  0
  9 11  1  0  0  0  0
  9 25  1  0  0  0  0
 11 12  1  0  0  0  0
 11 13  1  0  0  0  0
 11 14  1  0  0  0  0
 14 15  1  0  0  0  0
 14 23  2  0  0  0  0
 15 16  1  0  0  0  0
 15 17  2  0  0  0  0
 17 18  1  0  0  0  0
 17 19  1  0  0  0  0
 19 20  1  0  0  0  0
 19 21  2  0  0  0  0
 21 22  1  0  0  0  0
 21 23  1  0  0  0  0
 23 24  1  0  0  0  0
 25 26  2  0  0  0  0
 25 27  1  0  0  0  0
 27 28  1  0  0  0  0
 27 29  1  0  0  0  0
 29 30  1  0  0  0  0
 29 31  1  0  0  0  0
 29 32  1  0  0  0  0
M  END
$$$$

  -OEChem-04042216033D

 32 32  0     1  0  0  0  0  0999 V2000
   -3.8796   -3.6639    2.4161 H   0  0  0  0  0  0  0  0  0  0  0  0
   -3.8781   -2.8714    1.6625 C   0  0  0  0  0  0  0  0  0  0  0  0
   -4.5150   -2.0544    2.0100 H   0  0  0  0  0  0  0  0  0  0  0  0
   -4.2841   -3.2706    0.7300 H   0  0  0  0  0  0  0  0  0  0  0  0
   -2.4650   -2.3683    1.4358 C   0  0  0  0  0  0  0  0  0  0  0  0
   -1.5262   -2.9201    1.9884 O   0  0  0  0  0  0  0  0  0  0  0  0
   -2.2527   -1.2787    0.6163 N   0  0  0  0  0  0  0  0  0  0  0  0
   -3.0707   -0.7811    0.2687 H   0  0  0  0  0  0  0  0  0  0  0  0
   -0.9453   -0.6652    0.3585 C   0  0  1  0  0  0  0  0  0  0  0  0
   -0.2708   -0.9580    1.1695 H   0  0  0  0  0  0  0  0  0  0  0  0
   -0.2247   -1.0339   -0.9780 C   0  0  0  0  0  0  0  0  0  0  0  0
   -0.0122   -0.1022   -1.5135 H   0  0  0  0  0  0  0  0  0  0  0  0
    0.7452   -1.4457   -0.6805 H   0  0  0  0  0  0  0  0  0  0  0  0
   -0.7916   -1.9865   -2.0340 C   0  0  0  0  0  0  0  0  0  0  0  0
   -2.1224   -2.4426   -2.1444 C   0  0  0  0  0  0  0  0  0  0  0  0
   -2.9143   -2.0893   -1.5023 H   0  0  0  0  0  0  0  0  0  0  0  0
   -2.4985   -3.3480   -3.1432 C   0  0  0  0  0  0  0  0  0  0  0  0
   -3.5302   -3.6790   -3.2128 H   0  0  0  0  0  0  0  0  0  0  0  0
   -1.5566   -3.8206   -4.0570 C   0  0  0  0  0  0  0  0  0  0  0  0
   -1.8503   -4.5237   -4.8308 H   0  0  0  0  0  0  0  0  0  0  0  0
   -0.2366   -3.3790   -3.9739 C   0  0  0  0  0  0  0  0  0  0  0  0
    0.5025   -3.7394   -4.6833 H   0  0  0  0  0  0  0  0  0  0  0  0
    0.1353   -2.4745   -2.9743 C   0  0  0  0  0  0  0  0  0  0  0  0
    1.1712   -2.1517   -2.9285 H   0  0  0  0  0  0  0  0  0  0  0  0
   -1.0907    0.8670    0.4559 C   0  0  0  0  0  0  0  0  0  0  0  0
   -2.0673    1.4233   -0.0339 O   0  0  0  0  0  0  0  0  0  0  0  0
   -0.1580    1.6185    1.1475 N   0  0  0  0  0  0  0  0  0  0  0  0
    0.6029    1.1230    1.6037 H   0  0  0  0  0  0  0  0  0  0  0  0
   -0.2700    3.0604    1.3311 C   0  0  0  0  0  0  0  0  0  0  0  0
   -1.1908    3.3079    1.8696 H   0  0  0  0  0  0  0  0  0  0  0  0
    0.5801    3.4354    1.9090 H   0  0  0  0  0  0  0  0  0  0  0  0
   -0.2803    3.5700    0.3619 H   0  0  0  0  0  0  0  0  0  0  0  0
  1  2  1  0  0  0  0
  2  3  1  0  0  0  0
  2  4  1  0  0  0  0
  2  5  1  0  0  0  0
  5  6  2  0  0  0  0
  5  7  1  0  0  0  0
  7  8  1  0  0  0  0
  7  9  1  0  0  0  0
  9 10  1  0  0  0  0
  9 11  1  0  0  0  0
  9 25  1  0  0  0  0
 11 12  1  0  0  0  0
 11 13  1  0  0  0  0
 11 14  1  0  0  0  0
 14 15  1  0  0  0  0
 14 23  2  0  0  0  0
 15 16  1  0  0  0  0
 15 17  2  0  0  0  0
 17 18  1  0  0  0  0
 17 19  1  0  0  0  0
 19 20  1  0  0  0  0
 19 21  2  0  0  0  0
 21 22  1  0  0  0  0
 21 23  1  0  0  0  0
 23 24  1  0  0  0  0
 25 26  2  0  0  0  0
 25 27  1  0  0  0  0
 27 28  1  0  0  0  0
 27 29  1  0  0  0  0
 29 30  1  0  0  0  0
 29 31  1  0  0  0  0
 29 32  1  0  0  0  0
M  END
$$$$

  -OEChem-04042216033D

 32 32  0     1  0  0  0  0  0999 V2000
   -3.8644   -3.7660    2.1883 H   0  0  0  0  0  0  0  0  0  0  0  0
   -3.8520   -2.9290    1.4845 C   0  0  0  0  0  0  0  0  0  0  0  0
   -4.5105   -2.1425    1.8607 H   0  0  0  0  0  0  0  0  0  0  0  0
   -4.2242   -3.2759    0.5176 H   0  0  0  0  0  0  0  0  0  0  0  0
   -2.4406   -2.3949    1.3305 C   0  0  0  0  0  0  0  0  0  0  0  0
   -1.5171   -2.9322    1.9221 O   0  0  0  0  0  0  0  0  0  0  0  0
   -2.2142   -1.2903    0.5361 N   0  0  0  0  0  0  0  0  0  0  0  0
   -3.0266   -0.8072    0.1579 H   0  0  0  0  0  0  0  0  0  0  0  0
   -0.9066   -0.6511    0.3386 C   0  0  1  0  0  0  0  0  0  0  0  0
   -0.2542   -0.9482    1.1660 H   0  0  0  0  0  0  0  0  0  0  0  0
   -0.1497   -0.9994   -0.9815 C   0  0  0  0  0  0  0  0  0  0  0  0
    0.0618   -0.0667   -1.5152 H   0  0  0  0  0  0  0  0  0  0  0  0
    0.8197   -1.4035   -0.6730 H   0  0  0  0  0  0  0  0  0  0  0  0
   -0.7304   -1.9514   -2.0260 C   0  0  0  0  0  0  0  0  0  0  0  0
   -2.1042   -2.1345   -2.2802 C   0  0  0  0  0  0  0  0  0  0  0  0
   -2.8522   -1.5220   -1.7935 H   0  0  0  0  0  0  0  0  0  0  0  0
   -2.5484   -3.0679   -3.2232 C   0  0  0  0  0  0  0  0  0  0  0  0
   -3.6114   -3.1844   -3.4118 H   0  0  0  0  0  0  0  0  0  0  0  0
   -1.6280   -3.8405   -3.9331 C   0  0  0  0  0  0  0  0  0  0  0  0
   -1.9723   -4.5652   -4.6649 H   0  0  0  0  0  0  0  0  0  0  0  0
   -0.2622   -3.6705   -3.7032 C   0  0  0  0  0  0  0  0  0  0  0  0
    0.4598   -4.2660   -4.2541 H   0  0  0  0  0  0  0  0  0  0  0  0
    0.1777   -2.7360   -2.7600 C   0  0  0  0  0  0  0  0  0  0  0  0
    1.2455   -2.6288   -2.5947 H   0  0  0  0  0  0  0  0  0  0  0  0
   -1.0763    0.8767    0.4507 C   0  0  0  0  0  0  0  0  0  0  0  0
   -2.0379    1.4255   -0.0759 O   0  0  0  0  0  0  0  0  0  0  0  0
   -0.1823    1.6314    1.1881 N   0  0  0  0  0  0  0  0  0  0  0  0
    0.5647    1.1398    1.6707 H   0  0  0  0  0  0  0  0  0  0  0  0
   -0.3205    3.0695    1.3825 C   0  0  0  0  0  0  0  0  0  0  0  0
   -1.2590    3.2980    1.8984 H   0  0  0  0  0  0  0  0  0  0  0  0
    0.5084    3.4509    1.9866 H   0  0  0  0  0  0  0  0  0  0  0  0
   -0.3122    3.5889    0.4183 H   0  0  0  0  0  0  0  0  0  0  0  0
  1  2  1  0  0  0  0
  2  3  1  0  0  0  0
  2  4  1  0  0  0  0
  2  5  1  0  0  0  0
  5  6  2  0  0  0  0
  5  7  1  0  0  0  0
  7  8  1  0  0  0  0
  7  9  1  0  0  0  0
  9 10  1  0  0  0  0
  9 11  1  0  0  0  0
  9 25  1  0  0  0  0
 11 12  1  0  0  0  0
 11 13  1  0  0  0  0
 11 14  1  0  0  0  0
 14 15  1  0  0  0  0
 14 23  2  0  0  0  0
 15 16  1  0  0  0  0
 15 17  2  0  0  0  0
 17 18  1  0  0  0  0
 17 19  1  0  0  0  0
 19 20  1  0  0  0  0
 19 21  2  0  0  0  0
 21 22  1  0  0  0  0
 21 23  1  0  0  0  0
 23 24  1  0  0  0  0
 25 26  2  0  0  0  0
 25 27  1  0  0  0  0
 27 28  1  0  0  0  0
 27 29  1  0  0  0  0
 29 30  1  0  0  0  0
 29 31  1  0  0  0  0
 29 32  1  0  0  0  0
M  END
$$$$

  -OEChem-04042216033D

 32 32  0     1  0  0  0  0  0999 V2000
   -3.8136   -3.8770    1.9626 H   0  0  0  0  0  0  0  0  0  0  0  0
   -3.7884   -3.0320    1.2689 C   0  0  0  0  0  0  0  0  0  0  0  0
   -4.5178   -2.2864    1.5940 H   0  0  0  0  0  0  0  0  0  0  0  0
   -4.0582   -3.3869    0.2712 H   0  0  0  0  0  0  0  0  0  0  0  0
   -2.4004   -2.4213    1.2384 C   0  0  0  0  0  0  0  0  0  0  0  0
   -1.5027   -2.9128    1.9054 O   0  0  0  0  0  0  0  0  0  0  0  0
   -2.1644   -1.3066    0.4613 N   0  0  0  0  0  0  0  0  0  0  0  0
   -2.9586   -0.8868   -0.0163 H   0  0  0  0  0  0  0  0  0  0  0  0
   -0.8634   -0.6332    0.3314 C   0  0  1  0  0  0  0  0  0  0  0  0
   -0.2355   -0.9254    1.1790 H   0  0  0  0  0  0  0  0  0  0  0  0
   -0.0687   -0.9701   -0.9659 C   0  0  0  0  0  0  0  0  0  0  0  0
    0.1378   -0.0410   -1.5081 H   0  0  0  0  0  0  0  0  0  0  0  0
    0.9017   -1.3644   -0.6490 H   0  0  0  0  0  0  0  0  0  0  0  0
   -0.6705   -1.9344   -1.9794 C   0  0  0  0  0  0  0  0  0  0  0  0
   -2.0121   -1.8599   -2.3974 C   0  0  0  0  0  0  0  0  0  0  0  0
   -2.6453   -1.0480   -2.0541 H   0  0  0  0  0  0  0  0  0  0  0  0
   -2.5404   -2.7939   -3.2946 C   0  0  0  0  0  0  0  0  0  0  0  0
   -3.5746   -2.7127   -3.6154 H   0  0  0  0  0  0  0  0  0  0  0  0
   -1.7351   -3.8240   -3.7859 C   0  0  0  0  0  0  0  0  0  0  0  0
   -2.1427   -4.5497   -4.4835 H   0  0  0  0  0  0  0  0  0  0  0  0
   -0.4014   -3.9146   -3.3808 C   0  0  0  0  0  0  0  0  0  0  0  0
    0.2278   -4.7147   -3.7594 H   0  0  0  0  0  0  0  0  0  0  0  0
    0.1239   -2.9776   -2.4844 C   0  0  0  0  0  0  0  0  0  0  0  0
    1.1598   -3.0735   -2.1741 H   0  0  0  0  0  0  0  0  0  0  0  0
   -1.0621    0.8910    0.4405 C   0  0  0  0  0  0  0  0  0  0  0  0
   -1.9891    1.4294   -0.1548 O   0  0  0  0  0  0  0  0  0  0  0  0
   -0.2180    1.6580    1.2230 N   0  0  0  0  0  0  0  0  0  0  0  0
    0.5037    1.1764    1.7521 H   0  0  0  0  0  0  0  0  0  0  0  0
   -0.3698    3.0986    1.3861 C   0  0  0  0  0  0  0  0  0  0  0  0
   -1.3397    3.3323    1.8374 H   0  0  0  0  0  0  0  0  0  0  0  0
    0.4179    3.4922    2.0357 H   0  0  0  0  0  0  0  0  0  0  0  0
   -0.3009    3.6024    0.4162 H   0  0  0  0  0  0  0  0  0  0  0  0
  1  2  1  0  0  0  0
  2  3  1  0  0  0  0
  2  4  1  0  0  0  0
  2  5  1  0  0  0  0
  5  6  2  0  0  0  0
  5  7  1  0  0  0  0
  7  8  1  0  0  0  0
  7  9  1  0  0  0  0
  9 10  1  0  0  0  0
  9 11  1  0  0  0  0
  9 25  1  0  0  0  0
 11 12  1  0  0  0  0
 11 13  1  0  0  0  0
 11 14  1  0  0  0  0
 14 15  1  0  0  0  0
 14 23  2  0  0  0  0
 15 16  1  0  0  0  0
 15 17  2  0  0  0  0
 17 18  1  0  0  0  0
 17 19  1  0  0  0  0
 19 20  1  0  0  0  0
 19 21  2  0  0  0  0
 21 22  1  0  0  0  0
 21 23  1  0  0  0  0
 23 24  1  0  0  0  0
 25 26  2  0  0  0  0
 25 27  1  0  0  0  0
 27 28  1  0  0  0  0
 27 29  1  0  0  0  0
 29 30  1  0  0  0  0
 29 31  1  0  0  0  0
 29 32  1  0  0  0  0
M  END
$$$$

  -OEChem-04042216033D

 32 32  0     1  0  0  0  0  0999 V2000
   -3.7273   -3.9995    1.7314 H   0  0  0  0  0  0  0  0  0  0  0  0
   -3.6989   -3.1304    1.0684 C   0  0  0  0  0  0  0  0  0  0  0  0
   -4.5037   -2.4464    1.3478 H   0  0  0  0  0  0  0  0  0  0  0  0
   -3.8550   -3.4663    0.0402 H   0  0  0  0  0  0  0  0  0  0  0  0
   -2.3590   -2.4286    1.1817 C   0  0  0  0  0  0  0  0  0  0  0  0
   -1.5082   -2.8546    1.9484 O   0  0  0  0  0  0  0  0  0  0  0  0
   -2.1066   -1.3170    0.4058 N   0  0  0  0  0  0  0  0  0  0  0  0
   -2.8461   -0.9995   -0.2162 H   0  0  0  0  0  0  0  0  0  0  0  0
   -0.8130   -0.6189    0.3327 C   0  0  1  0  0  0  0  0  0  0  0  0
   -0.2068   -0.8972    1.2005 H   0  0  0  0  0  0  0  0  0  0  0  0
    0.0066   -0.9595   -0.9451 C   0  0  0  0  0  0  0  0  0  0  0  0
    0.2194   -0.0401   -1.5011 H   0  0  0  0  0  0  0  0  0  0  0  0
    0.9739   -1.3578   -0.6235 H   0  0  0  0  0  0  0  0  0  0  0  0
   -0.6290   -1.9369   -1.9172 C   0  0  0  0  0  0  0  0  0  0  0  0
   -1.8634   -1.6474   -2.5245 C   0  0  0  0  0  0  0  0  0  0  0  0
   -2.3435   -0.6905   -2.3368 H   0  0  0  0  0  0  0  0  0  0  0  0
   -2.4716   -2.5678   -3.3838 C   0  0  0  0  0  0  0  0  0  0  0  0
   -3.4209   -2.3267   -3.8530 H   0  0  0  0  0  0  0  0  0  0  0  0
   -1.8538   -3.7945   -3.6419 C   0  0  0  0  0  0  0  0  0  0  0  0
   -2.3235   -4.5107   -4.3098 H   0  0  0  0  0  0  0  0  0  0  0  0
   -0.6290   -4.0972   -3.0398 C   0  0  0  0  0  0  0  0  0  0  0  0
   -0.1495   -5.0516   -3.2355 H   0  0  0  0  0  0  0  0  0  0  0  0
   -0.0216   -3.1743   -2.1811 C   0  0  0  0  0  0  0  0  0  0  0  0
    0.9235   -3.4308   -1.7119 H   0  0  0  0  0  0  0  0  0  0  0  0
   -1.0393    0.9027    0.4157 C   0  0  0  0  0  0  0  0  0  0  0  0
   -1.9183    1.4278   -0.2591 O   0  0  0  0  0  0  0  0  0  0  0  0
   -0.2458    1.6889    1.2309 N   0  0  0  0  0  0  0  0  0  0  0  0
    0.4344    1.2186    1.8216 H   0  0  0  0  0  0  0  0  0  0  0  0
   -0.4219    3.1296    1.3667 C   0  0  0  0  0  0  0  0  0  0  0  0
   -1.4286    3.3609    1.7303 H   0  0  0  0  0  0  0  0  0  0  0  0
    0.3040    3.5338    2.0786 H   0  0  0  0  0  0  0  0  0  0  0  0
   -0.2730    3.6257    0.4019 H   0  0  0  0  0  0  0  0  0  0  0  0
  1  2  1  0  0  0  0
  2  3  1  0  0  0  0
  2  4  1  0  0  0  0
  2  5  1  0  0  0  0
  5  6  2  0  0  0  0
  5  7  1  0  0  0  0
  7  8  1  0  0  0  0
  7  9  1  0  0  0  0
  9 10  1  0  0  0  0
  9 11  1  0  0  0  0
  9 25  1  0  0  0  0
 11 12  1  0  0  0  0
 11 13  1  0  0  0  0
 11 14  1  0  0  0  0
 14 15  1  0  0  0  0
 14 23  2  0  0  0  0
 15 16  1  0  0  0  0
 15 17  2  0  0  0  0
 17 18  1  0  0  0  0
 17 19  1  0  0  0  0
 19 20  1  0  0  0  0
 19 21  2  0  0  0  0
 21 22  1  0  0  0  0
 21 23  1  0  0  0  0
 23 24  1  0  0  0  0
 25 26  2  0  0  0  0
 25 27  1  0  0  0  0
 27 28  1  0  0  0  0
 27 29  1  0  0  0  0
 29 30  1  0  0  0  0
 29 31  1  0  0  0  0
 29 32  1  0  0  0  0
M  END
$$$$

  -OEChem-04042216033D

 32 32  0     1  0  0  0  0  0999 V2000
   -3.6855   -4.0396    1.6459 H   0  0  0  0  0  0  0  0  0  0  0  0
   -3.6594   -3.1621    0.9938 C   0  0  0  0  0  0  0  0  0  0  0  0
   -4.4798   -2.4940    1.2668 H   0  0  0  0  0  0  0  0  0  0  0  0
   -3.7914   -3.4878   -0.0412 H   0  0  0  0  0  0  0  0  0  0  0  0
   -2.3336   -2.4406    1.1409 C   0  0  0  0  0  0  0  0  0  0  0  0
   -1.4992   -2.8509    1.9337 O   0  0  0  0  0  0  0  0  0  0  0  0
   -2.0739   -1.3297    0.3674 N   0  0  0  0  0  0  0  0  0  0  0  0
   -2.7877   -1.0436   -0.2990 H   0  0  0  0  0  0  0  0  0  0  0  0
   -0.7865   -0.6161    0.3258 C   0  0  1  0  0  0  0  0  0  0  0  0
   -0.1933   -0.8875    1.2045 H   0  0  0  0  0  0  0  0  0  0  0  0
    0.0475   -0.9597   -0.9389 C   0  0  0  0  0  0  0  0  0  0  0  0
    0.2667   -0.0464   -1.5030 H   0  0  0  0  0  0  0  0  0  0  0  0
    1.0118   -1.3634   -0.6146 H   0  0  0  0  0  0  0  0  0  0  0  0
   -0.6090   -1.9470   -1.8810 C   0  0  0  0  0  0  0  0  0  0  0  0
   -1.6685   -1.5333   -2.7039 C   0  0  0  0  0  0  0  0  0  0  0  0
   -1.9922   -0.4956   -2.6856 H   0  0  0  0  0  0  0  0  0  0  0  0
   -2.3105   -2.4453   -3.5478 C   0  0  0  0  0  0  0  0  0  0  0  0
   -3.1254   -2.1137   -4.1847 H   0  0  0  0  0  0  0  0  0  0  0  0
   -1.9020   -3.7823   -3.5714 C   0  0  0  0  0  0  0  0  0  0  0  0
   -2.3987   -4.4911   -4.2275 H   0  0  0  0  0  0  0  0  0  0  0  0
   -0.8539   -4.2058   -2.7483 C   0  0  0  0  0  0  0  0  0  0  0  0
   -0.5388   -5.2451   -2.7609 H   0  0  0  0  0  0  0  0  0  0  0  0
   -0.2122   -3.2922   -1.9047 C   0  0  0  0  0  0  0  0  0  0  0  0
    0.5904   -3.6351   -1.2583 H   0  0  0  0  0  0  0  0  0  0  0  0
   -1.0275    0.9040    0.3958 C   0  0  0  0  0  0  0  0  0  0  0  0
   -1.8845    1.4213   -0.3126 O   0  0  0  0  0  0  0  0  0  0  0  0
   -0.2624    1.6999    1.2286 N   0  0  0  0  0  0  0  0  0  0  0  0
    0.3988    1.2366    1.8456 H   0  0  0  0  0  0  0  0  0  0  0  0
   -0.4519    3.1400    1.3515 C   0  0  0  0  0  0  0  0  0  0  0  0
   -1.4726    3.3654    1.6779 H   0  0  0  0  0  0  0  0  0  0  0  0
    0.2454    3.5519    2.0873 H   0  0  0  0  0  0  0  0  0  0  0  0
   -0.2712    3.6329    0.3905 H   0  0  0  0  0  0  0  0  0  0  0  0
  1  2  1  0  0  0  0
  2  3  1  0  0  0  0
  2  4  1  0  0  0  0
  2  5  1  0  0  0  0
  5  6  2  0  0  0  0
  5  7  1  0  0  0  0
  7  8  1  0  0  0  0
  7  9  1  0  0  0  0
  9 10  1  0  0  0  0
  9 11  1  0  0  0  0
  9 25  1  0  0  0  0
 11 12  1  0  0  0  0
 11 13  1  0  0  0  0
 11 14  1  0  0  0  0
 14 15  1  0  0  0  0
 14 23  2  0  0  0  0
 15 16  1  0  0  0  0
 15 17  2  0  0  0  0
 17 18  1  0  0  0  0
 17 19  1  0  0  0  0
 19 20  1  0  0  0  0
 19 21  2  0  0  0  0
 21 22  1  0  0  0  0
 21 23  1  0  0  0  0
 23 24  1  0  0  0  0
 25 26  2  0  0  0  0
 25 27  1  0  0  0  0
 27 28  1  0  0  0  0
 27 29  1  0  0  0  0
 29 30  1  0  0  0  0
 29 31  1  0  0  0  0
 29 32  1  0  0  0  0
M  END
$$$$

  -OEChem-04042216033D

 32 32  0     1  0  0  0  0  0999 V2000
   -3.6976   -4.0306    1.6489 H   0  0  0  0  0  0  0  0  0  0  0  0
   -3.6673   -3.1540    0.9960 C   0  0  0  0  0  0  0  0  0  0  0  0
   -4.4825   -2.4803    1.2705 H   0  0  0  0  0  0  0  0  0  0  0  0
   -3.8040   -3.4794   -0.0384 H   0  0  0  0  0  0  0  0  0  0  0  0
   -2.3361   -2.4413    1.1383 C   0  0  0  0  0  0  0  0  0  0  0  0
   -1.4956   -2.8638    1.9183 O   0  0  0  0  0  0  0  0  0  0  0  0
   -2.0743   -1.3303    0.3657 N   0  0  0  0  0  0  0  0  0  0  0  0
   -2.7906   -1.0380   -0.2955 H   0  0  0  0  0  0  0  0  0  0  0  0
   -0.7884   -0.6137    0.3250 C   0  0  1  0  0  0  0  0  0  0  0  0
   -0.1971   -0.8841    1.2054 H   0  0  0  0  0  0  0  0  0  0  0  0
    0.0463   -0.9639   -0.9363 C   0  0  0  0  0  0  0  0  0  0  0  0
    0.2706   -0.0537   -1.5032 H   0  0  0  0  0  0  0  0  0  0  0  0
    1.0080   -1.3731   -0.6120 H   0  0  0  0  0  0  0  0  0  0  0  0
   -0.6161   -1.9589   -1.8648 C   0  0  0  0  0  0  0  0  0  0  0  0
   -1.4512   -1.5104   -2.8986 C   0  0  0  0  0  0  0  0  0  0  0  0
   -1.6151   -0.4452   -3.0389 H   0  0  0  0  0  0  0  0  0  0  0  0
   -2.0846   -2.4260   -3.7458 C   0  0  0  0  0  0  0  0  0  0  0  0
   -2.7292   -2.0693   -4.5437 H   0  0  0  0  0  0  0  0  0  0  0  0
   -1.8882   -3.7986   -3.5645 C   0  0  0  0  0  0  0  0  0  0  0  0
   -2.3787   -4.5097   -4.2227 H   0  0  0  0  0  0  0  0  0  0  0  0
   -1.0597   -4.2546   -2.5344 C   0  0  0  0  0  0  0  0  0  0  0  0
   -0.9075   -5.3201   -2.3889 H   0  0  0  0  0  0  0  0  0  0  0  0
   -0.4269   -3.3379   -1.6879 C   0  0  0  0  0  0  0  0  0  0  0  0
    0.2046   -3.6998   -0.8813 H   0  0  0  0  0  0  0  0  0  0  0  0
   -1.0261    0.9071    0.3932 C   0  0  0  0  0  0  0  0  0  0  0  0
   -1.8795    1.4269   -0.3173 O   0  0  0  0  0  0  0  0  0  0  0  0
   -0.2599    1.7021    1.2261 N   0  0  0  0  0  0  0  0  0  0  0  0
    0.4014    1.2384    1.8426 H   0  0  0  0  0  0  0  0  0  0  0  0
   -0.4466    3.1428    1.3479 C   0  0  0  0  0  0  0  0  0  0  0  0
   -1.4682    3.3710    1.6697 H   0  0  0  0  0  0  0  0  0  0  0  0
    0.2483    3.5542    2.0865 H   0  0  0  0  0  0  0  0  0  0  0  0
   -0.2614    3.6348    0.3873 H   0  0  0  0  0  0  0  0  0  0  0  0
  1  2  1  0  0  0  0
  2  3  1  0  0  0  0
  2  4  1  0  0  0  0
  2  5  1  0  0  0  0
  5  6  2  0  0  0  0
  5  7  1  0  0  0  0
  7  8  1  0  0  0  0
  7  9  1  0  0  0  0
  9 10  1  0  0  0  0
  9 11  1  0  0  0  0
  9 25  1  0  0  0  0
 11 12  1  0  0  0  0
 11 13  1  0  0  0  0
 11 14  1  0  0  0  0
 14 15  1  0  0  0  0
 14 23  2  0  0  0  0
 15 16  1  0  0  0  0
 15 17  2  0  0  0  0
 17 18  1  0  0  0  0
 17 19  1  0  0  0  0
 19 20  1  0  0  0  0
 19 21  2  0  0  0  0
 21 22  1  0  0  0  0
 21 23  1  0  0  0  0
 23 24  1  0  0  0  0
 25 26  2  0  0  0  0
 25 27  1  0  0  0  0
 27 28  1  0  0  0  0
 27 29  1  0  0  0  0
 29 30  1  0  0  0  0
 29 31  1  0  0  0  0
 29 32  1  0  0  0  0
M  END
$$$$

  -OEChem-04042216033D

 32 32  0     1  0  0  0  0  0999 V2000
   -3.7438   -3.9904    1.7256 H   0  0  0  0  0  0  0  0  0  0  0  0
   -3.7111   -3.1215    1.0626 C   0  0  0  0  0  0  0  0  0  0  0  0
   -4.5137   -2.4345    1.3409 H   0  0  0  0  0  0  0  0  0  0  0  0
   -3.8676   -3.4567    0.0342 H   0  0  0  0  0  0  0  0  0  0  0  0
   -2.3686   -2.4255    1.1782 C   0  0  0  0  0  0  0  0  0  0  0  0
   -1.5173   -2.8632    1.9376 O   0  0  0  0  0  0  0  0  0  0  0  0
   -2.1030   -1.3212    0.3969 N   0  0  0  0  0  0  0  0  0  0  0  0
   -2.8303   -1.0123   -0.2449 H   0  0  0  0  0  0  0  0  0  0  0  0
   -0.8116   -0.6159    0.3376 C   0  0  1  0  0  0  0  0  0  0  0  0
   -0.2153   -0.8858    1.2148 H   0  0  0  0  0  0  0  0  0  0  0  0
    0.0147   -0.9759   -0.9276 C   0  0  0  0  0  0  0  0  0  0  0  0
    0.2474   -0.0663   -1.4919 H   0  0  0  0  0  0  0  0  0  0  0  0
    0.9739   -1.3927   -0.6042 H   0  0  0  0  0  0  0  0  0  0  0  0
   -0.6446   -1.9725   -1.8586 C   0  0  0  0  0  0  0  0  0  0  0  0
   -1.2153   -1.5449   -3.0663 C   0  0  0  0  0  0  0  0  0  0  0  0
   -1.2103   -0.4901   -3.3268 H   0  0  0  0  0  0  0  0  0  0  0  0
   -1.8081   -2.4661   -3.9367 C   0  0  0  0  0  0  0  0  0  0  0  0
   -2.2538   -2.1236   -4.8659 H   0  0  0  0  0  0  0  0  0  0  0  0
   -1.8253   -3.8260   -3.6114 C   0  0  0  0  0  0  0  0  0  0  0  0
   -2.2843   -4.5412   -4.2878 H   0  0  0  0  0  0  0  0  0  0  0  0
   -1.2462   -4.2639   -2.4166 C   0  0  0  0  0  0  0  0  0  0  0  0
   -1.2527   -5.3199   -2.1625 H   0  0  0  0  0  0  0  0  0  0  0  0
   -0.6537   -3.3416   -1.5479 C   0  0  0  0  0  0  0  0  0  0  0  0
   -0.2056   -3.6886   -0.6205 H   0  0  0  0  0  0  0  0  0  0  0  0
   -1.0350    0.9078    0.3995 C   0  0  0  0  0  0  0  0  0  0  0  0
   -1.8956    1.4322   -0.2984 O   0  0  0  0  0  0  0  0  0  0  0  0
   -0.2515    1.6999    1.2192 N   0  0  0  0  0  0  0  0  0  0  0  0
    0.4167    1.2334    1.8262 H   0  0  0  0  0  0  0  0  0  0  0  0
   -0.4218    3.1433    1.3353 C   0  0  0  0  0  0  0  0  0  0  0  0
   -1.4370    3.3846    1.6678 H   0  0  0  0  0  0  0  0  0  0  0  0
    0.2862    3.5508    2.0634 H   0  0  0  0  0  0  0  0  0  0  0  0
   -0.2425    3.6286    0.3701 H   0  0  0  0  0  0  0  0  0  0  0  0
  1  2  1  0  0  0  0
  2  3  1  0  0  0  0
  2  4  1  0  0  0  0
  2  5  1  0  0  0  0
  5  6  2  0  0  0  0
  5  7  1  0  0  0  0
  7  8  1  0  0  0  0
  7  9  1  0  0  0  0
  9 10  1  0  0  0  0
  9 11  1  0  0  0  0
  9 25  1  0  0  0  0
 11 12  1  0  0  0  0
 11 13  1  0  0  0  0
 11 14  1  0  0  0  0
 14 15  1  0  0  0  0
 14 23  2  0  0  0  0
 15 16  1  0  0  0  0
 15 17  2  0  0  0  0
 17 18  1  0  0  0  0
 17 19  1  0  0  0  0
 19 20  1  0  0  0  0
 19 21  2  0  0  0  0
 21 22  1  0  0  0  0
 21 23  1  0  0  0  0
 23 24  1  0  0  0  0
 25 26  2  0  0  0  0
 25 27  1  0  0  0  0
 27 28  1  0  0  0  0
 27 29  1  0  0  0  0
 29 30  1  0  0  0  0
 29 31  1  0  0  0  0
 29 32  1  0  0  0  0
M  END
$$$$

  -OEChem-04042216033D

 32 32  0     1  0  0  0  0  0999 V2000
   -3.8381   -3.9054    1.8700 H   0  0  0  0  0  0  0  0  0  0  0  0
   -3.7912   -3.0536    1.1858 C   0  0  0  0  0  0  0  0  0  0  0  0
   -4.5611   -2.3313    1.4675 H   0  0  0  0  0  0  0  0  0  0  0  0
   -3.9862   -3.4059    0.1697 H   0  0  0  0  0  0  0  0  0  0  0  0
   -2.4224   -2.4030    1.2517 C   0  0  0  0  0  0  0  0  0  0  0  0
   -1.5626   -2.8596    1.9901 O   0  0  0  0  0  0  0  0  0  0  0  0
   -2.1464   -1.3132    0.4536 N   0  0  0  0  0  0  0  0  0  0  0  0
   -2.8878   -0.9795   -0.1594 H   0  0  0  0  0  0  0  0  0  0  0  0
   -0.8451   -0.6302    0.3602 C   0  0  1  0  0  0  0  0  0  0  0  0
   -0.2377   -0.8995    1.2300 H   0  0  0  0  0  0  0  0  0  0  0  0
   -0.0356   -0.9939   -0.9174 C   0  0  0  0  0  0  0  0  0  0  0  0
    0.2056   -0.0800   -1.4714 H   0  0  0  0  0  0  0  0  0  0  0  0
    0.9204   -1.4217   -0.5993 H   0  0  0  0  0  0  0  0  0  0  0  0
   -0.6862   -1.9820   -1.8663 C   0  0  0  0  0  0  0  0  0  0  0  0
   -0.9693   -1.6099   -3.1898 C   0  0  0  0  0  0  0  0  0  0  0  0
   -0.7932   -0.5899   -3.5189 H   0  0  0  0  0  0  0  0  0  0  0  0
   -1.5010   -2.5363   -4.0939 C   0  0  0  0  0  0  0  0  0  0  0  0
   -1.7352   -2.2299   -5.1091 H   0  0  0  0  0  0  0  0  0  0  0  0
   -1.7262   -3.8561   -3.6927 C   0  0  0  0  0  0  0  0  0  0  0  0
   -2.1373   -4.5759   -4.3943 H   0  0  0  0  0  0  0  0  0  0  0  0
   -1.4054   -4.2511   -2.3912 C   0  0  0  0  0  0  0  0  0  0  0  0
   -1.5571   -5.2807   -2.0808 H   0  0  0  0  0  0  0  0  0  0  0  0
   -0.8744   -3.3226   -1.4904 C   0  0  0  0  0  0  0  0  0  0  0  0
   -0.5996   -3.6478   -0.4908 H   0  0  0  0  0  0  0  0  0  0  0  0
   -1.0512    0.8968    0.4084 C   0  0  0  0  0  0  0  0  0  0  0  0
   -1.9295    1.4218   -0.2665 O   0  0  0  0  0  0  0  0  0  0  0  0
   -0.2427    1.6888    1.2033 N   0  0  0  0  0  0  0  0  0  0  0  0
    0.4433    1.2231    1.7907 H   0  0  0  0  0  0  0  0  0  0  0  0
   -0.3921    3.1356    1.3043 C   0  0  0  0  0  0  0  0  0  0  0  0
   -1.3909    3.3937    1.6717 H   0  0  0  0  0  0  0  0  0  0  0  0
    0.3479    3.5449    1.9986 H   0  0  0  0  0  0  0  0  0  0  0  0
   -0.2443    3.6050    0.3260 H   0  0  0  0  0  0  0  0  0  0  0  0
  1  2  1  0  0  0  0
  2  3  1  0  0  0  0
  2  4  1  0  0  0  0
  2  5  1  0  0  0  0
  5  6  2  0  0  0  0
  5  7  1  0  0  0  0
  7  8  1  0  0  0  0
  7  9  1  0  0  0  0
  9 10  1  0  0  0  0
  9 11  1  0  0  0  0
  9 25  1  0  0  0  0
 11 12  1  0  0  0  0
 11 13  1  0  0  0  0
 11 14  1  0  0  0  0
 14 15  1  0  0  0  0
 14 23  2  0  0  0  0
 15 16  1  0  0  0  0
 15 17  2  0  0  0  0
 17 18  1  0  0  0  0
 17 19  1  0  0  0  0
 19 20  1  0  0  0  0
 19 21  2  0  0  0  0
 21 22  1  0  0  0  0
 21 23  1  0  0  0  0
 23 24  1  0  0  0  0
 25 26  2  0  0  0  0
 25 27  1  0  0  0  0
 27 28  1  0  0  0  0
 27 29  1  0  0  0  0
 29 30  1  0  0  0  0
 29 31  1  0  0  0  0
 29 32  1  0  0  0  0
M  END
$$$$

  -OEChem-04042216033D

 32 32  0     1  0  0  0  0  0999 V2000
   -3.9244   -3.7988    2.0432 H   0  0  0  0  0  0  0  0  0  0  0  0
   -3.8703   -2.9576    1.3469 C   0  0  0  0  0  0  0  0  0  0  0  0
   -4.5932   -2.1978    1.6536 H   0  0  0  0  0  0  0  0  0  0  0  0
   -4.1267   -3.3115    0.3453 H   0  0  0  0  0  0  0  0  0  0  0  0
   -2.4723   -2.3696    1.3430 C   0  0  0  0  0  0  0  0  0  0  0  0
   -1.6018   -2.8519    2.0514 O   0  0  0  0  0  0  0  0  0  0  0  0
   -2.1855   -1.3019    0.5194 N   0  0  0  0  0  0  0  0  0  0  0  0
   -2.9448   -0.9286   -0.0479 H   0  0  0  0  0  0  0  0  0  0  0  0
   -0.8719   -0.6519    0.3799 C   0  0  1  0  0  0  0  0  0  0  0  0
   -0.2488   -0.9181    1.2394 H   0  0  0  0  0  0  0  0  0  0  0  0
   -0.0862   -1.0222   -0.9154 C   0  0  0  0  0  0  0  0  0  0  0  0
    0.1625   -0.1038   -1.4584 H   0  0  0  0  0  0  0  0  0  0  0  0
    0.8671   -1.4616   -0.6051 H   0  0  0  0  0  0  0  0  0  0  0  0
   -0.7241   -1.9964   -1.8925 C   0  0  0  0  0  0  0  0  0  0  0  0
   -0.7024   -1.7067   -3.2675 C   0  0  0  0  0  0  0  0  0  0  0  0
   -0.3362   -0.7453   -3.6152 H   0  0  0  0  0  0  0  0  0  0  0  0
   -1.1765   -2.6280   -4.2077 C   0  0  0  0  0  0  0  0  0  0  0  0
   -1.1827   -2.3716   -5.2630 H   0  0  0  0  0  0  0  0  0  0  0  0
   -1.6319   -3.8806   -3.7904 C   0  0  0  0  0  0  0  0  0  0  0  0
   -1.9978   -4.5983   -4.5187 H   0  0  0  0  0  0  0  0  0  0  0  0
   -1.5852   -4.2170   -2.4358 C   0  0  0  0  0  0  0  0  0  0  0  0
   -1.8967   -5.2047   -2.1089 H   0  0  0  0  0  0  0  0  0  0  0  0
   -1.1107   -3.2907   -1.5016 C   0  0  0  0  0  0  0  0  0  0  0  0
   -1.0150   -3.5994   -0.4665 H   0  0  0  0  0  0  0  0  0  0  0  0
   -1.0652    0.8780    0.4085 C   0  0  0  0  0  0  0  0  0  0  0  0
   -1.9663    1.3991   -0.2390 O   0  0  0  0  0  0  0  0  0  0  0  0
   -0.2298    1.6754    1.1693 N   0  0  0  0  0  0  0  0  0  0  0  0
    0.4685    1.2126    1.7443 H   0  0  0  0  0  0  0  0  0  0  0  0
   -0.3779    3.1225    1.2676 C   0  0  0  0  0  0  0  0  0  0  0  0
   -1.3635    3.3808    1.6691 H   0  0  0  0  0  0  0  0  0  0  0  0
    0.3858    3.5367    1.9328 H   0  0  0  0  0  0  0  0  0  0  0  0
   -0.2664    3.5869    0.2822 H   0  0  0  0  0  0  0  0  0  0  0  0
  1  2  1  0  0  0  0
  2  3  1  0  0  0  0
  2  4  1  0  0  0  0
  2  5  1  0  0  0  0
  5  6  2  0  0  0  0
  5  7  1  0  0  0  0
  7  8  1  0  0  0  0
  7  9  1  0  0  0  0
  9 10  1  0  0  0  0
  9 11  1  0  0  0  0
  9 25  1  0  0  0  0
 11 12  1  0  0  0  0
 11 13  1  0  0  0  0
 11 14  1  0  0  0  0
 14 15  1  0  0  0  0
 14 23  2  0  0  0  0
 15 16  1  0  0  0  0
 15 17  2  0  0  0  0
 17 18  1  0  0  0  0
 17 19  1  0  0  0  0
 19 20  1  0  0  0  0
 19 21  2  0  0  0  0
 21 22  1  0  0  0  0
 21 23  1  0  0  0  0
 23 24  1  0  0  0  0
 25 26  2  0  0  0  0
 25 27  1  0  0  0  0
 27 28  1  0  0  0  0
 27 29  1  0  0  0  0
 29 30  1  0  0  0  0
 29 31  1  0  0  0  0
 29 32  1  0  0  0  0
M  END
$$$$

  -OEChem-04042216033D

 32 32  0     1  0  0  0  0  0999 V2000
   -3.9700   -3.7077    2.2660 H   0  0  0  0  0  0  0  0  0  0  0  0
   -3.9298   -2.8711    1.5630 C   0  0  0  0  0  0  0  0  0  0  0  0
   -4.5921   -2.0784    1.9193 H   0  0  0  0  0  0  0  0  0  0  0  0
   -4.2775   -3.2148    0.5857 H   0  0  0  0  0  0  0  0  0  0  0  0
   -2.5103   -2.3478    1.4511 C   0  0  0  0  0  0  0  0  0  0  0  0
   -1.6146   -2.8626    2.1024 O   0  0  0  0  0  0  0  0  0  0  0  0
   -2.2342   -1.2995    0.5983 N   0  0  0  0  0  0  0  0  0  0  0  0
   -3.0163   -0.8827    0.0952 H   0  0  0  0  0  0  0  0  0  0  0  0
   -0.9136   -0.6808    0.3975 C   0  0  1  0  0  0  0  0  0  0  0  0
   -0.2692   -0.9432    1.2428 H   0  0  0  0  0  0  0  0  0  0  0  0
   -0.1514   -1.0508   -0.9170 C   0  0  0  0  0  0  0  0  0  0  0  0
    0.0963   -0.1246   -1.4472 H   0  0  0  0  0  0  0  0  0  0  0  0
    0.8033   -1.4909   -0.6125 H   0  0  0  0  0  0  0  0  0  0  0  0
   -0.7532   -2.0107   -1.9365 C   0  0  0  0  0  0  0  0  0  0  0  0
   -0.4178   -1.8262   -3.2904 C   0  0  0  0  0  0  0  0  0  0  0  0
    0.1514   -0.9526   -3.5936 H   0  0  0  0  0  0  0  0  0  0  0  0
   -0.8299   -2.7301   -4.2755 C   0  0  0  0  0  0  0  0  0  0  0  0
   -0.5912   -2.5430   -5.3182 H   0  0  0  0  0  0  0  0  0  0  0  0
   -1.5372   -3.8782   -3.9166 C   0  0  0  0  0  0  0  0  0  0  0  0
   -1.8555   -4.5847   -4.6774 H   0  0  0  0  0  0  0  0  0  0  0  0
   -1.7984   -4.1317   -2.5696 C   0  0  0  0  0  0  0  0  0  0  0  0
   -2.3003   -5.0493   -2.2773 H   0  0  0  0  0  0  0  0  0  0  0  0
   -1.3829   -3.2213   -1.5922 C   0  0  0  0  0  0  0  0  0  0  0  0
   -1.5163   -3.5043   -0.5582 H   0  0  0  0  0  0  0  0  0  0  0  0
   -1.0926    0.8522    0.4123 C   0  0  0  0  0  0  0  0  0  0  0  0
   -2.0229    1.3728   -0.1931 O   0  0  0  0  0  0  0  0  0  0  0  0
   -0.2205    1.6516    1.1288 N   0  0  0  0  0  0  0  0  0  0  0  0
    0.5052    1.1909    1.6706 H   0  0  0  0  0  0  0  0  0  0  0  0
   -0.3503    3.1015    1.2118 C   0  0  0  0  0  0  0  0  0  0  0  0
   -1.3177    3.3764    1.6453 H   0  0  0  0  0  0  0  0  0  0  0  0
    0.4411    3.5174    1.8426 H   0  0  0  0  0  0  0  0  0  0  0  0
   -0.2697    3.5501    0.2160 H   0  0  0  0  0  0  0  0  0  0  0  0
  1  2  1  0  0  0  0
  2  3  1  0  0  0  0
  2  4  1  0  0  0  0
  2  5  1  0  0  0  0
  5  6  2  0  0  0  0
  5  7  1  0  0  0  0
  7  8  1  0  0  0  0
  7  9  1  0  0  0  0
  9 10  1  0  0  0  0
  9 11  1  0  0  0  0
  9 25  1  0  0  0  0
 11 12  1  0  0  0  0
 11 13  1  0  0  0  0
 11 14  1  0  0  0  0
 14 15  1  0  0  0  0
 14 23  2  0  0  0  0
 15 16  1  0  0  0  0
 15 17  2  0  0  0  0
 17 18  1  0  0  0  0
 17 19  1  0  0  0  0
 19 20  1  0  0  0  0
 19 21  2  0  0  0  0
 21 22  1  0  0  0  0
 21 23  1  0  0  0  0
 23 24  1  0  0  0  0
 25 26  2  0  0  0  0
 25 27  1  0  0  0  0
 27 28  1  0  0  0  0
 27 29  1  0  0  0  0
 29 30  1  0  0  0  0
 29 31  1  0  0  0  0
 29 32  1  0  0  0  0
M  END
$$$$

  -OEChem-04042216033D

 32 32  0     1  0  0  0  0  0999 V2000
   -3.9084   -3.6625    2.4994 H   0  0  0  0  0  0  0  0  0  0  0  0
   -3.9076   -2.8145    1.8090 C   0  0  0  0  0  0  0  0  0  0  0  0
   -4.4871   -1.9998    2.2501 H   0  0  0  0  0  0  0  0  0  0  0  0
   -4.3789   -3.1217    0.8723 H   0  0  0  0  0  0  0  0  0  0  0  0
   -2.4858   -2.3542    1.5477 C   0  0  0  0  0  0  0  0  0  0  0  0
   -1.5527   -2.9032    2.1120 O   0  0  0  0  0  0  0  0  0  0  0  0
   -2.2560   -1.3114    0.6728 N   0  0  0  0  0  0  0  0  0  0  0  0
   -3.0667   -0.8392    0.2740 H   0  0  0  0  0  0  0  0  0  0  0  0
   -0.9419   -0.7116    0.4017 C   0  0  1  0  0  0  0  0  0  0  0  0
   -0.2682   -0.9684    1.2253 H   0  0  0  0  0  0  0  0  0  0  0  0
   -0.2119   -1.0898   -0.9302 C   0  0  0  0  0  0  0  0  0  0  0  0
    0.0196   -0.1590   -1.4600 H   0  0  0  0  0  0  0  0  0  0  0  0
    0.7506   -1.5164   -0.6304 H   0  0  0  0  0  0  0  0  0  0  0  0
   -0.7704   -2.0485   -1.9821 C   0  0  0  0  0  0  0  0  0  0  0  0
   -0.1437   -2.0081   -3.2423 C   0  0  0  0  0  0  0  0  0  0  0  0
    0.6366   -1.2777   -3.4341 H   0  0  0  0  0  0  0  0  0  0  0  0
   -0.5117   -2.8738   -4.2768 C   0  0  0  0  0  0  0  0  0  0  0  0
   -0.0268   -2.7998   -5.2457 H   0  0  0  0  0  0  0  0  0  0  0  0
   -1.4974   -3.8360   -4.0611 C   0  0  0  0  0  0  0  0  0  0  0  0
   -1.7852   -4.5131   -4.8599 H   0  0  0  0  0  0  0  0  0  0  0  0
   -2.0938   -3.9379   -2.8043 C   0  0  0  0  0  0  0  0  0  0  0  0
   -2.8376   -4.7074   -2.6203 H   0  0  0  0  0  0  0  0  0  0  0  0
   -1.7217   -3.0670   -1.7736 C   0  0  0  0  0  0  0  0  0  0  0  0
   -2.1765   -3.2433   -0.8136 H   0  0  0  0  0  0  0  0  0  0  0  0
   -1.1126    0.8224    0.4206 C   0  0  0  0  0  0  0  0  0  0  0  0
   -2.0822    1.3435   -0.1194 O   0  0  0  0  0  0  0  0  0  0  0  0
   -0.2008    1.6197    1.0883 N   0  0  0  0  0  0  0  0  0  0  0  0
    0.5600    1.1585    1.5792 H   0  0  0  0  0  0  0  0  0  0  0  0
   -0.3209    3.0700    1.1762 C   0  0  0  0  0  0  0  0  0  0  0  0
   -1.2654    3.3484    1.6555 H   0  0  0  0  0  0  0  0  0  0  0  0
    0.5019    3.4828    1.7678 H   0  0  0  0  0  0  0  0  0  0  0  0
   -0.2875    3.5178    0.1773 H   0  0  0  0  0  0  0  0  0  0  0  0
  1  2  1  0  0  0  0
  2  3  1  0  0  0  0
  2  4  1  0  0  0  0
  2  5  1  0  0  0  0
  5  6  2  0  0  0  0
  5  7  1  0  0  0  0
  7  8  1  0  0  0  0
  7  9  1  0  0  0  0
  9 10  1  0  0  0  0
  9 11  1  0  0  0  0
  9 25  1  0  0  0  0
 11 12  1  0  0  0  0
 11 13  1  0  0  0  0
 11 14  1  0  0  0  0
 14 15  1  0  0  0  0
 14 23  2  0  0  0  0
 15 16  1  0  0  0  0
 15 17  2  0  0  0  0
 17 18  1  0  0  0  0
 17 19  1  0  0  0  0
 19 20  1  0  0  0  0
 19 21  2  0  0  0  0
 21 22  1  0  0  0  0
 21 23  1  0  0  0  0
 23 24  1  0  0  0  0
 25 26  2  0  0  0  0
 25 27  1  0  0  0  0
 27 28  1  0  0  0  0
 27 29  1  0  0  0  0
 29 30  1  0  0  0  0
 29 31  1  0  0  0  0
 29 32  1  0  0  0  0
M  END
$$$$

  -OEChem-04042216033D

 32 32  0     1  0  0  0  0  0999 V2000
   -3.7002   -3.7612    2.5271 H   0  0  0  0  0  0  0  0  0  0  0  0
   -3.7456   -2.9543    1.7904 C   0  0  0  0  0  0  0  0  0  0  0  0
   -4.3699   -2.1501    2.1870 H   0  0  0  0  0  0  0  0  0  0  0  0
   -4.1972   -3.3391    0.8730 H   0  0  0  0  0  0  0  0  0  0  0  0
   -2.3511   -2.4337    1.4986 C   0  0  0  0  0  0  0  0  0  0  0  0
   -1.3815   -2.9601    2.0222 O   0  0  0  0  0  0  0  0  0  0  0  0
   -2.1874   -1.3568    0.6525 N   0  0  0  0  0  0  0  0  0  0  0  0
   -3.0257   -0.8695    0.3395 H   0  0  0  0  0  0  0  0  0  0  0  0
   -0.9028   -0.7096    0.3654 C   0  0  1  0  0  0  0  0  0  0  0  0
   -0.1975   -0.9577    1.1654 H   0  0  0  0  0  0  0  0  0  0  0  0
   -0.2126   -1.0755   -0.9841 C   0  0  0  0  0  0  0  0  0  0  0  0
    0.2388   -0.1632   -1.3890 H   0  0  0  0  0  0  0  0  0  0  0  0
    0.6174   -1.7352   -0.7114 H   0  0  0  0  0  0  0  0  0  0  0  0
   -0.9103   -1.7749   -2.1528 C   0  0  0  0  0  0  0  0  0  0  0  0
   -0.1011   -2.0171   -3.2787 C   0  0  0  0  0  0  0  0  0  0  0  0
    0.9533   -1.7586   -3.2492 H   0  0  0  0  0  0  0  0  0  0  0  0
   -0.6115   -2.6019   -4.4417 C   0  0  0  0  0  0  0  0  0  0  0  0
    0.0435   -2.7930   -5.2866 H   0  0  0  0  0  0  0  0  0  0  0  0
   -1.9632   -2.9341   -4.5178 C   0  0  0  0  0  0  0  0  0  0  0  0
   -2.3657   -3.3865   -5.4193 H   0  0  0  0  0  0  0  0  0  0  0  0
   -2.7993   -2.6628   -3.4352 C   0  0  0  0  0  0  0  0  0  0  0  0
   -3.8580   -2.8945   -3.5014 H   0  0  0  0  0  0  0  0  0  0  0  0
   -2.2842   -2.0780   -2.2725 C   0  0  0  0  0  0  0  0  0  0  0  0
   -3.0044   -1.8547   -1.5015 H   0  0  0  0  0  0  0  0  0  0  0  0
   -1.1108    0.8171    0.4349 C   0  0  0  0  0  0  0  0  0  0  0  0
   -2.1257    1.3219   -0.0329 O   0  0  0  0  0  0  0  0  0  0  0  0
   -0.2014    1.6187    1.1008 N   0  0  0  0  0  0  0  0  0  0  0  0
    0.5889    1.1638    1.5490 H   0  0  0  0  0  0  0  0  0  0  0  0
   -0.3834    3.0539    1.2798 C   0  0  0  0  0  0  0  0  0  0  0  0
   -1.3009    3.2563    1.8421 H   0  0  0  0  0  0  0  0  0  0  0  0
    0.4613    3.4763    1.8322 H   0  0  0  0  0  0  0  0  0  0  0  0
   -0.4469    3.5560    0.3086 H   0  0  0  0  0  0  0  0  0  0  0  0
  1  2  1  0  0  0  0
  2  3  1  0  0  0  0
  2  4  1  0  0  0  0
  2  5  1  0  0  0  0
  5  6  2  0  0  0  0
  5  7  1  0  0  0  0
  7  8  1  0  0  0  0
  7  9  1  0  0  0  0
  9 10  1  0  0  0  0
  9 11  1  0  0  0  0
  9 25  1  0  0  0  0
 11 12  1  0  0  0  0
 11 13  1  0  0  0  0
 11 14  1  0  0  0  0
 14 15  1  0  0  0  0
 14 23  2  0  0  0  0
 15 16  1  0  0  0  0
 15 17  2  0  0  0  0
 17 18  1  0  0  0  0
 17 19  1  0  0  0  0
 19 20  1  0  0  0  0
 19 21  2  0  0  0  0
 21 22  1  0  0  0  0
 21 23  1  0  0  0  0
 23 24  1  0  0  0  0
 25 26  2  0  0  0  0
 25 27  1  0  0  0  0
 27 28  1  0  0  0  0
 27 29  1  0  0  0  0
 29 30  1  0  0  0  0
 29 31  1  0  0  0  0
 29 32  1  0  0  0  0
M  END
$$$$

  -OEChem-04042216033D

 32 32  0     1  0  0  0  0  0999 V2000
   -3.6920   -3.8526    2.3718 H   0  0  0  0  0  0  0  0  0  0  0  0
   -3.7242   -3.0273    1.6550 C   0  0  0  0  0  0  0  0  0  0  0  0
   -4.3851   -2.2489    2.0437 H   0  0  0  0  0  0  0  0  0  0  0  0
   -4.1252   -3.3977    0.7083 H   0  0  0  0  0  0  0  0  0  0  0  0
   -2.3314   -2.4661    1.4404 C   0  0  0  0  0  0  0  0  0  0  0  0
   -1.3770   -2.9617    2.0196 O   0  0  0  0  0  0  0  0  0  0  0  0
   -2.1541   -1.3856    0.6026 N   0  0  0  0  0  0  0  0  0  0  0  0
   -2.9887   -0.9322    0.2365 H   0  0  0  0  0  0  0  0  0  0  0  0
   -0.8697   -0.7095    0.3711 C   0  0  1  0  0  0  0  0  0  0  0  0
   -0.1862   -0.9489    1.1921 H   0  0  0  0  0  0  0  0  0  0  0  0
   -0.1491   -1.0776   -0.9590 C   0  0  0  0  0  0  0  0  0  0  0  0
    0.2967   -0.1704   -1.3807 H   0  0  0  0  0  0  0  0  0  0  0  0
    0.6827   -1.7306   -0.6753 H   0  0  0  0  0  0  0  0  0  0  0  0
   -0.8818   -1.7876   -2.0925 C   0  0  0  0  0  0  0  0  0  0  0  0
   -0.0917   -2.3705   -3.0991 C   0  0  0  0  0  0  0  0  0  0  0  0
    0.9880   -2.3998   -2.9870 H   0  0  0  0  0  0  0  0  0  0  0  0
   -0.6645   -2.9466   -4.2377 C   0  0  0  0  0  0  0  0  0  0  0  0
   -0.0330   -3.4233   -4.9813 H   0  0  0  0  0  0  0  0  0  0  0  0
   -2.0465   -2.8982   -4.4231 C   0  0  0  0  0  0  0  0  0  0  0  0
   -2.4955   -3.3410   -5.3072 H   0  0  0  0  0  0  0  0  0  0  0  0
   -2.8443   -2.2443   -3.4834 C   0  0  0  0  0  0  0  0  0  0  0  0
   -3.9141   -2.1572   -3.6480 H   0  0  0  0  0  0  0  0  0  0  0  0
   -2.2641   -1.6717   -2.3462 C   0  0  0  0  0  0  0  0  0  0  0  0
   -2.9122   -1.0987   -1.6959 H   0  0  0  0  0  0  0  0  0  0  0  0
   -1.1025    0.8135    0.4290 C   0  0  0  0  0  0  0  0  0  0  0  0
   -2.0984    1.3012   -0.0951 O   0  0  0  0  0  0  0  0  0  0  0  0
   -0.2361    1.6311    1.1318 N   0  0  0  0  0  0  0  0  0  0  0  0
    0.5435    1.1906    1.6123 H   0  0  0  0  0  0  0  0  0  0  0  0
   -0.4366    3.0673    1.2825 C   0  0  0  0  0  0  0  0  0  0  0  0
   -1.3865    3.2709    1.7878 H   0  0  0  0  0  0  0  0  0  0  0  0
    0.3723    3.5014    1.8781 H   0  0  0  0  0  0  0  0  0  0  0  0
   -0.4464    3.5579    0.3034 H   0  0  0  0  0  0  0  0  0  0  0  0
  1  2  1  0  0  0  0
  2  3  1  0  0  0  0
  2  4  1  0  0  0  0
  2  5  1  0  0  0  0
  5  6  2  0  0  0  0
  5  7  1  0  0  0  0
  7  8  1  0  0  0  0
  7  9  1  0  0  0  0
  9 10  1  0  0  0  0
  9 11  1  0  0  0  0
  9 25  1  0  0  0  0
 11 12  1  0  0  0  0
 11 13  1  0  0  0  0
 11 14  1  0  0  0  0
 14 15  1  0  0  0  0
 14 23  2  0  0  0  0
 15 16  1  0  0  0  0
 15 17  2  0  0  0  0
 17 18  1  0  0  0  0
 17 19  1  0  0  0  0
 19 20  1  0  0  0  0
 19 21  2  0  0  0  0
 21 22  1  0  0  0  0
 21 23  1  0  0  0  0
 23 24  1  0  0  0  0
 25 26  2  0  0  0  0
 25 27  1  0  0  0  0
 27 28  1  0  0  0  0
 27 29  1  0  0  0  0
 29 30  1  0  0  0  0
 29 31  1  0  0  0  0
 29 32  1  0  0  0  0
M  END
$$$$

  -OEChem-04042216033D

 32 32  0     1  0  0  0  0  0999 V2000
   -3.6921   -3.9345    2.1456 H   0  0  0  0  0  0  0  0  0  0  0  0
   -3.7040   -3.0993    1.4400 C   0  0  0  0  0  0  0  0  0  0  0  0
   -4.4363   -2.3622    1.7782 H   0  0  0  0  0  0  0  0  0  0  0  0
   -3.9995   -3.4729    0.4564 H   0  0  0  0  0  0  0  0  0  0  0  0
   -2.3288   -2.4647    1.3577 C   0  0  0  0  0  0  0  0  0  0  0  0
   -1.4045   -2.9213    2.0130 O   0  0  0  0  0  0  0  0  0  0  0  0
   -2.1320   -1.3701    0.5432 N   0  0  0  0  0  0  0  0  0  0  0  0
   -2.9429   -0.9888    0.0618 H   0  0  0  0  0  0  0  0  0  0  0  0
   -0.8489   -0.6714    0.3680 C   0  0  1  0  0  0  0  0  0  0  0  0
   -0.1863   -0.9194    1.2033 H   0  0  0  0  0  0  0  0  0  0  0  0
   -0.1056   -1.0367   -0.9482 C   0  0  0  0  0  0  0  0  0  0  0  0
    0.3357   -0.1317   -1.3792 H   0  0  0  0  0  0  0  0  0  0  0  0
    0.7283   -1.6854   -0.6617 H   0  0  0  0  0  0  0  0  0  0  0  0
   -0.8752   -1.7483   -2.0521 C   0  0  0  0  0  0  0  0  0  0  0  0
   -0.1811   -2.6259   -2.9021 C   0  0  0  0  0  0  0  0  0  0  0  0
    0.8592   -2.8646   -2.7022 H   0  0  0  0  0  0  0  0  0  0  0  0
   -0.8128   -3.2234   -3.9984 C   0  0  0  0  0  0  0  0  0  0  0  0
   -0.2663   -3.9218   -4.6253 H   0  0  0  0  0  0  0  0  0  0  0  0
   -2.1418   -2.9131   -4.2936 C   0  0  0  0  0  0  0  0  0  0  0  0
   -2.6323   -3.3732   -5.1462 H   0  0  0  0  0  0  0  0  0  0  0  0
   -2.8259   -1.9845   -3.5064 C   0  0  0  0  0  0  0  0  0  0  0  0
   -3.8459   -1.7072   -3.7560 H   0  0  0  0  0  0  0  0  0  0  0  0
   -2.1890   -1.3900   -2.4119 C   0  0  0  0  0  0  0  0  0  0  0  0
   -2.7210   -0.6207   -1.8618 H   0  0  0  0  0  0  0  0  0  0  0  0
   -1.0814    0.8515    0.4341 C   0  0  0  0  0  0  0  0  0  0  0  0
   -2.0391    1.3536   -0.1442 O   0  0  0  0  0  0  0  0  0  0  0  0
   -0.2394    1.6586    1.1776 N   0  0  0  0  0  0  0  0  0  0  0  0
    0.5057    1.2073    1.7006 H   0  0  0  0  0  0  0  0  0  0  0  0
   -0.4303    3.0969    1.3213 C   0  0  0  0  0  0  0  0  0  0  0  0
   -1.3999    3.3109    1.7833 H   0  0  0  0  0  0  0  0  0  0  0  0
    0.3554    3.5215    1.9535 H   0  0  0  0  0  0  0  0  0  0  0  0
   -0.3895    3.5886    0.3437 H   0  0  0  0  0  0  0  0  0  0  0  0
  1  2  1  0  0  0  0
  2  3  1  0  0  0  0
  2  4  1  0  0  0  0
  2  5  1  0  0  0  0
  5  6  2  0  0  0  0
  5  7  1  0  0  0  0
  7  8  1  0  0  0  0
  7  9  1  0  0  0  0
  9 10  1  0  0  0  0
  9 11  1  0  0  0  0
  9 25  1  0  0  0  0
 11 12  1  0  0  0  0
 11 13  1  0  0  0  0
 11 14  1  0  0  0  0
 14 15  1  0  0  0  0
 14 23  2  0  0  0  0
 15 16  1  0  0  0  0
 15 17  2  0  0  0  0
 17 18  1  0  0  0  0
 17 19  1  0  0  0  0
 19 20  1  0  0  0  0
 19 21  2  0  0  0  0
 21 22  1  0  0  0  0
 21 23  1  0  0  0  0
 23 24  1  0  0  0  0
 25 26  2  0  0  0  0
 25 27  1  0  0  0  0
 27 28  1  0  0  0  0
 27 29  1  0  0  0  0
 29 30  1  0  0  0  0
 29 31  1  0  0  0  0
 29 32  1  0  0  0  0
M  END
$$$$

  -OEChem-04042216033D

 32 32  0     1  0  0  0  0  0999 V2000
   -3.6850   -3.9881    1.9373 H   0  0  0  0  0  0  0  0  0  0  0  0
   -3.6857   -3.1376    1.2499 C   0  0  0  0  0  0  0  0  0  0  0  0
   -4.4730   -2.4421    1.5501 H   0  0  0  0  0  0  0  0  0  0  0  0
   -3.8946   -3.5007    0.2405 H   0  0  0  0  0  0  0  0  0  0  0  0
   -2.3386   -2.4404    1.2778 C   0  0  0  0  0  0  0  0  0  0  0  0
   -1.4467   -2.8632    1.9978 O   0  0  0  0  0  0  0  0  0  0  0  0
   -2.1260   -1.3349    0.4819 N   0  0  0  0  0  0  0  0  0  0  0  0
   -2.8942   -1.0250   -0.1087 H   0  0  0  0  0  0  0  0  0  0  0  0
   -0.8426   -0.6254    0.3534 C   0  0  1  0  0  0  0  0  0  0  0  0
   -0.2009   -0.8836    1.2019 H   0  0  0  0  0  0  0  0  0  0  0  0
   -0.0762   -0.9973   -0.9453 C   0  0  0  0  0  0  0  0  0  0  0  0
    0.3639   -0.0958   -1.3852 H   0  0  0  0  0  0  0  0  0  0  0  0
    0.7580   -1.6418   -0.6507 H   0  0  0  0  0  0  0  0  0  0  0  0
   -0.8674   -1.7123   -2.0285 C   0  0  0  0  0  0  0  0  0  0  0  0
   -0.3142   -2.8298   -2.6747 C   0  0  0  0  0  0  0  0  0  0  0  0
    0.6432   -3.2277   -2.3519 H   0  0  0  0  0  0  0  0  0  0  0  0
   -0.9900   -3.4578   -3.7265 C   0  0  0  0  0  0  0  0  0  0  0  0
   -0.5583   -4.3343   -4.2008 H   0  0  0  0  0  0  0  0  0  0  0  0
   -2.2153   -2.9541   -4.1708 C   0  0  0  0  0  0  0  0  0  0  0  0
   -2.7391   -3.4393   -4.9891 H   0  0  0  0  0  0  0  0  0  0  0  0
   -2.7537   -1.8118   -3.5731 C   0  0  0  0  0  0  0  0  0  0  0  0
   -3.6913   -1.3995   -3.9342 H   0  0  0  0  0  0  0  0  0  0  0  0
   -2.0759   -1.1869   -2.5212 C   0  0  0  0  0  0  0  0  0  0  0  0
   -2.4892   -0.2766   -2.0968 H   0  0  0  0  0  0  0  0  0  0  0  0
   -1.0632    0.8989    0.4277 C   0  0  0  0  0  0  0  0  0  0  0  0
   -1.9878    1.4223   -0.1839 O   0  0  0  0  0  0  0  0  0  0  0  0
   -0.2340    1.6870    1.2050 N   0  0  0  0  0  0  0  0  0  0  0  0
    0.4824    1.2188    1.7526 H   0  0  0  0  0  0  0  0  0  0  0  0
   -0.4107    3.1257    1.3606 C   0  0  0  0  0  0  0  0  0  0  0  0
   -1.3906    3.3470    1.7966 H   0  0  0  0  0  0  0  0  0  0  0  0
    0.3615    3.5315    2.0212 H   0  0  0  0  0  0  0  0  0  0  0  0
   -0.3341    3.6284    0.3907 H   0  0  0  0  0  0  0  0  0  0  0  0
  1  2  1  0  0  0  0
  2  3  1  0  0  0  0
  2  4  1  0  0  0  0
  2  5  1  0  0  0  0
  5  6  2  0  0  0  0
  5  7  1  0  0  0  0
  7  8  1  0  0  0  0
  7  9  1  0  0  0  0
  9 10  1  0  0  0  0
  9 11  1  0  0  0  0
  9 25  1  0  0  0  0
 11 12  1  0  0  0  0
 11 13  1  0  0  0  0
 11 14  1  0  0  0  0
 14 15  1  0  0  0  0
 14 23  2  0  0  0  0
 15 16  1  0  0  0  0
 15 17  2  0  0  0  0
 17 18  1  0  0  0  0
 17 19  1  0  0  0  0
 19 20  1  0  0  0  0
 19 21  2  0  0  0  0
 21 22  1  0  0  0  0
 21 23  1  0  0  0  0
 23 24  1  0  0  0  0
 25 26  2  0  0  0  0
 25 27  1  0  0  0  0
 27 28  1  0  0  0  0
 27 29  1  0  0  0  0
 29 30  1  0  0  0  0
 29 31  1  0  0  0  0
 29 32  1  0  0  0  0
M  END
$$$$

  -OEChem-04042216033D

 32 32  0     1  0  0  0  0  0999 V2000
   -3.6854   -4.0206    1.7777 H   0  0  0  0  0  0  0  0  0  0  0  0
   -3.6724   -3.1544    1.1103 C   0  0  0  0  0  0  0  0  0  0  0  0
   -4.4853   -2.4804    1.3903 H   0  0  0  0  0  0  0  0  0  0  0  0
   -3.8293   -3.4972    0.0845 H   0  0  0  0  0  0  0  0  0  0  0  0
   -2.3423   -2.4328    1.2145 C   0  0  0  0  0  0  0  0  0  0  0  0
   -1.4817   -2.8432    1.9785 O   0  0  0  0  0  0  0  0  0  0  0  0
   -2.1065   -1.3238    0.4308 N   0  0  0  0  0  0  0  0  0  0  0  0
   -2.8366   -1.0461   -0.2216 H   0  0  0  0  0  0  0  0  0  0  0  0
   -0.8212   -0.6108    0.3457 C   0  0  1  0  0  0  0  0  0  0  0  0
   -0.1995   -0.8740    1.2072 H   0  0  0  0  0  0  0  0  0  0  0  0
   -0.0331   -0.9799   -0.9392 C   0  0  0  0  0  0  0  0  0  0  0  0
    0.4149   -0.0803   -1.3746 H   0  0  0  0  0  0  0  0  0  0  0  0
    0.7960   -1.6301   -0.6429 H   0  0  0  0  0  0  0  0  0  0  0  0
   -0.8409   -1.6851   -2.0134 C   0  0  0  0  0  0  0  0  0  0  0  0
   -0.4804   -2.9705   -2.4476 C   0  0  0  0  0  0  0  0  0  0  0  0
    0.3584   -3.4862   -1.9894 H   0  0  0  0  0  0  0  0  0  0  0  0
   -1.2026   -3.6085   -3.4622 C   0  0  0  0  0  0  0  0  0  0  0  0
   -0.9214   -4.6076   -3.7817 H   0  0  0  0  0  0  0  0  0  0  0  0
   -2.2829   -2.9597   -4.0673 C   0  0  0  0  0  0  0  0  0  0  0  0
   -2.8424   -3.4539   -4.8563 H   0  0  0  0  0  0  0  0  0  0  0  0
   -2.6335   -1.6685   -3.6634 C   0  0  0  0  0  0  0  0  0  0  0  0
   -3.4620   -1.1544   -4.1418 H   0  0  0  0  0  0  0  0  0  0  0  0
   -1.9101   -1.0320   -2.6497 C   0  0  0  0  0  0  0  0  0  0  0  0
   -2.1810   -0.0202   -2.3607 H   0  0  0  0  0  0  0  0  0  0  0  0
   -1.0457    0.9130    0.4192 C   0  0  0  0  0  0  0  0  0  0  0  0
   -1.9391    1.4407   -0.2337 O   0  0  0  0  0  0  0  0  0  0  0  0
   -0.2433    1.7005    1.2248 N   0  0  0  0  0  0  0  0  0  0  0  0
    0.4480    1.2319    1.8036 H   0  0  0  0  0  0  0  0  0  0  0  0
   -0.4155    3.1419    1.3595 C   0  0  0  0  0  0  0  0  0  0  0  0
   -1.4146    3.3748    1.7426 H   0  0  0  0  0  0  0  0  0  0  0  0
    0.3250    3.5480    2.0553 H   0  0  0  0  0  0  0  0  0  0  0  0
   -0.2856    3.6350    0.3903 H   0  0  0  0  0  0  0  0  0  0  0  0
  1  2  1  0  0  0  0
  2  3  1  0  0  0  0
  2  4  1  0  0  0  0
  2  5  1  0  0  0  0
  5  6  2  0  0  0  0
  5  7  1  0  0  0  0
  7  8  1  0  0  0  0
  7  9  1  0  0  0  0
  9 10  1  0  0  0  0
  9 11  1  0  0  0  0
  9 25  1  0  0  0  0
 11 12  1  0  0  0  0
 11 13  1  0  0  0  0
 11 14  1  0  0  0  0
 14 15  1  0  0  0  0
 14 23  2  0  0  0  0
 15 16  1  0  0  0  0
 15 17  2  0  0  0  0
 17 18  1  0  0  0  0
 17 19  1  0  0  0  0
 19 20  1  0  0  0  0
 19 21  2  0  0  0  0
 21 22  1  0  0  0  0
 21 23  1  0  0  0  0
 23 24  1  0  0  0  0
 25 26  2  0  0  0  0
 25 27  1  0  0  0  0
 27 28  1  0  0  0  0
 27 29  1  0  0  0  0
 29 30  1  0  0  0  0
 29 31  1  0  0  0  0
 29 32  1  0  0  0  0
M  END
$$$$

  -OEChem-04042216033D

 32 32  0     1  0  0  0  0  0999 V2000
   -3.6986   -4.0246    1.6928 H   0  0  0  0  0  0  0  0  0  0  0  0
   -3.6731   -3.1514    1.0351 C   0  0  0  0  0  0  0  0  0  0  0  0
   -4.4898   -2.4790    1.3084 H   0  0  0  0  0  0  0  0  0  0  0  0
   -3.8126   -3.4834    0.0031 H   0  0  0  0  0  0  0  0  0  0  0  0
   -2.3442   -2.4327    1.1691 C   0  0  0  0  0  0  0  0  0  0  0  0
   -1.4973   -2.8501    1.9445 O   0  0  0  0  0  0  0  0  0  0  0  0
   -2.0893   -1.3248    0.3907 N   0  0  0  0  0  0  0  0  0  0  0  0
   -2.8045   -1.0446   -0.2776 H   0  0  0  0  0  0  0  0  0  0  0  0
   -0.8025   -0.6119    0.3351 C   0  0  1  0  0  0  0  0  0  0  0  0
   -0.1966   -0.8761    1.2074 H   0  0  0  0  0  0  0  0  0  0  0  0
    0.0052   -0.9750   -0.9377 C   0  0  0  0  0  0  0  0  0  0  0  0
    0.4619   -0.0755   -1.3644 H   0  0  0  0  0  0  0  0  0  0  0  0
    0.8279   -1.6329   -0.6402 H   0  0  0  0  0  0  0  0  0  0  0  0
   -0.8061   -1.6704   -2.0110 C   0  0  0  0  0  0  0  0  0  0  0  0
   -0.6691   -3.0489   -2.2349 C   0  0  0  0  0  0  0  0  0  0  0  0
    0.0213   -3.6331   -1.6334 H   0  0  0  0  0  0  0  0  0  0  0  0
   -1.4286   -3.6855   -3.2226 C   0  0  0  0  0  0  0  0  0  0  0  0
   -1.3203   -4.7538   -3.3852 H   0  0  0  0  0  0  0  0  0  0  0  0
   -2.3264   -2.9471   -3.9998 C   0  0  0  0  0  0  0  0  0  0  0  0
   -2.9150   -3.4399   -4.7680 H   0  0  0  0  0  0  0  0  0  0  0  0
   -2.4630   -1.5716   -3.7891 C   0  0  0  0  0  0  0  0  0  0  0  0
   -3.1571   -0.9933   -4.3920 H   0  0  0  0  0  0  0  0  0  0  0  0
   -1.7041   -0.9368   -2.8008 C   0  0  0  0  0  0  0  0  0  0  0  0
   -1.8171    0.1327   -2.6426 H   0  0  0  0  0  0  0  0  0  0  0  0
   -1.0330    0.9110    0.4016 C   0  0  0  0  0  0  0  0  0  0  0  0
   -1.8998    1.4366   -0.2881 O   0  0  0  0  0  0  0  0  0  0  0  0
   -0.2528    1.7024    1.2253 N   0  0  0  0  0  0  0  0  0  0  0  0
    0.4178    1.2354    1.8294 H   0  0  0  0  0  0  0  0  0  0  0  0
   -0.4279    3.1446    1.3485 C   0  0  0  0  0  0  0  0  0  0  0  0
   -1.4392    3.3801    1.6966 H   0  0  0  0  0  0  0  0  0  0  0  0
    0.2890    3.5526    2.0674 H   0  0  0  0  0  0  0  0  0  0  0  0
   -0.2647    3.6340    0.3825 H   0  0  0  0  0  0  0  0  0  0  0  0
  1  2  1  0  0  0  0
  2  3  1  0  0  0  0
  2  4  1  0  0  0  0
  2  5  1  0  0  0  0
  5  6  2  0  0  0  0
  5  7  1  0  0  0  0
  7  8  1  0  0  0  0
  7  9  1  0  0  0  0
  9 10  1  0  0  0  0
  9 11  1  0  0  0  0
  9 25  1  0  0  0  0
 11 12  1  0  0  0  0
 11 13  1  0  0  0  0
 11 14  1  0  0  0  0
 14 15  1  0  0  0  0
 14 23  2  0  0  0  0
 15 16  1  0  0  0  0
 15 17  2  0  0  0  0
 17 18  1  0  0  0  0
 17 19  1  0  0  0  0
 19 20  1  0  0  0  0
 19 21  2  0  0  0  0
 21 22  1  0  0  0  0
 21 23  1  0  0  0  0
 23 24  1  0  0  0  0
 25 26  2  0  0  0  0
 25 27  1  0  0  0  0
 27 28  1  0  0  0  0
 27 29  1  0  0  0  0
 29 30  1  0  0  0  0
 29 31  1  0  0  0  0
 29 32  1  0  0  0  0
M  END
$$$$

  -OEChem-04042216033D

 32 32  0     1  0  0  0  0  0999 V2000
   -3.7215   -4.0096    1.6797 H   0  0  0  0  0  0  0  0  0  0  0  0
   -3.6891   -3.1335    1.0261 C   0  0  0  0  0  0  0  0  0  0  0  0
   -4.4951   -2.4518    1.3083 H   0  0  0  0  0  0  0  0  0  0  0  0
   -3.8398   -3.4578   -0.0067 H   0  0  0  0  0  0  0  0  0  0  0  0
   -2.3502   -2.4328    1.1553 C   0  0  0  0  0  0  0  0  0  0  0  0
   -1.5064   -2.8608    1.9284 O   0  0  0  0  0  0  0  0  0  0  0  0
   -2.0828   -1.3290    0.3753 N   0  0  0  0  0  0  0  0  0  0  0  0
   -2.7958   -1.0385   -0.2914 H   0  0  0  0  0  0  0  0  0  0  0  0
   -0.7943   -0.6193    0.3291 C   0  0  1  0  0  0  0  0  0  0  0  0
   -0.1953   -0.8815    1.2066 H   0  0  0  0  0  0  0  0  0  0  0  0
    0.0245   -0.9761   -0.9380 C   0  0  0  0  0  0  0  0  0  0  0  0
    0.4942   -0.0774   -1.3523 H   0  0  0  0  0  0  0  0  0  0  0  0
    0.8390   -1.6436   -0.6384 H   0  0  0  0  0  0  0  0  0  0  0  0
   -0.7777   -1.6661   -2.0201 C   0  0  0  0  0  0  0  0  0  0  0  0
   -0.8814   -3.0654   -2.0537 C   0  0  0  0  0  0  0  0  0  0  0  0
   -0.3638   -3.6651   -1.3103 H   0  0  0  0  0  0  0  0  0  0  0  0
   -1.6540   -3.6957   -3.0350 C   0  0  0  0  0  0  0  0  0  0  0  0
   -1.7243   -4.7793   -3.0562 H   0  0  0  0  0  0  0  0  0  0  0  0
   -2.3363   -2.9302   -3.9860 C   0  0  0  0  0  0  0  0  0  0  0  0
   -2.9364   -3.4182   -4.7483 H   0  0  0  0  0  0  0  0  0  0  0  0
   -2.2475   -1.5350   -3.9522 C   0  0  0  0  0  0  0  0  0  0  0  0
   -2.7819   -0.9367   -4.6843 H   0  0  0  0  0  0  0  0  0  0  0  0
   -1.4732   -0.9063   -2.9714 C   0  0  0  0  0  0  0  0  0  0  0  0
   -1.4220    0.1792   -2.9407 H   0  0  0  0  0  0  0  0  0  0  0  0
   -1.0272    0.9033    0.3866 C   0  0  0  0  0  0  0  0  0  0  0  0
   -1.8797    1.4271   -0.3219 O   0  0  0  0  0  0  0  0  0  0  0  0
   -0.2547    1.6964    1.2156 N   0  0  0  0  0  0  0  0  0  0  0  0
    0.4062    1.2301    1.8306 H   0  0  0  0  0  0  0  0  0  0  0  0
   -0.4342    3.1378    1.3381 C   0  0  0  0  0  0  0  0  0  0  0  0
   -1.4533    3.3708    1.6642 H   0  0  0  0  0  0  0  0  0  0  0  0
    0.2658    3.5446    2.0742 H   0  0  0  0  0  0  0  0  0  0  0  0
   -0.2503    3.6297    0.3771 H   0  0  0  0  0  0  0  0  0  0  0  0
  1  2  1  0  0  0  0
  2  3  1  0  0  0  0
  2  4  1  0  0  0  0
  2  5  1  0  0  0  0
  5  6  2  0  0  0  0
  5  7  1  0  0  0  0
  7  8  1  0  0  0  0
  7  9  1  0  0  0  0
  9 10  1  0  0  0  0
  9 11  1  0  0  0  0
  9 25  1  0  0  0  0
 11 12  1  0  0  0  0
 11 13  1  0  0  0  0
 11 14  1  0  0  0  0
 14 15  1  0  0  0  0
 14 23  2  0  0  0  0
 15 16  1  0  0  0  0
 15 17  2  0  0  0  0
 17 18  1  0  0  0  0
 17 19  1  0  0  0  0
 19 20  1  0  0  0  0
 19 21  2  0  0  0  0
 21 22  1  0  0  0  0
 21 23  1  0  0  0  0
 23 24  1  0  0  0  0
 25 26  2  0  0  0  0
 25 27  1  0  0  0  0
 27 28  1  0  0  0  0
 27 29  1  0  0  0  0
 29 30  1  0  0  0  0
 29 31  1  0  0  0  0
 29 32  1  0  0  0  0
M  END
$$$$

  -OEChem-04042216033D

 32 32  0     1  0  0  0  0  0999 V2000
   -3.7565   -3.9746    1.7720 H   0  0  0  0  0  0  0  0  0  0  0  0
   -3.7221   -3.1054    1.1093 C   0  0  0  0  0  0  0  0  0  0  0  0
   -4.5007   -2.4006    1.4107 H   0  0  0  0  0  0  0  0  0  0  0  0
   -3.9148   -3.4344    0.0851 H   0  0  0  0  0  0  0  0  0  0  0  0
   -2.3620   -2.4389    1.1889 C   0  0  0  0  0  0  0  0  0  0  0  0
   -1.4979   -2.8945    1.9223 O   0  0  0  0  0  0  0  0  0  0  0  0
   -2.0961   -1.3391    0.4028 N   0  0  0  0  0  0  0  0  0  0  0  0
   -2.8330   -1.0134   -0.2205 H   0  0  0  0  0  0  0  0  0  0  0  0
   -0.8059   -0.6354    0.3359 C   0  0  1  0  0  0  0  0  0  0  0  0
   -0.1999   -0.8950    1.2096 H   0  0  0  0  0  0  0  0  0  0  0  0
    0.0122   -0.9817   -0.9367 C   0  0  0  0  0  0  0  0  0  0  0  0
    0.4889   -0.0792   -1.3342 H   0  0  0  0  0  0  0  0  0  0  0  0
    0.8232   -1.6537   -0.6383 H   0  0  0  0  0  0  0  0  0  0  0  0
   -0.7638   -1.6716   -2.0406 C   0  0  0  0  0  0  0  0  0  0  0  0
   -1.1165   -3.0275   -1.9375 C   0  0  0  0  0  0  0  0  0  0  0  0
   -0.7948   -3.6041   -1.0745 H   0  0  0  0  0  0  0  0  0  0  0  0
   -1.8749   -3.6447   -2.9378 C   0  0  0  0  0  0  0  0  0  0  0  0
   -2.1345   -4.6958   -2.8513 H   0  0  0  0  0  0  0  0  0  0  0  0
   -2.2977   -2.9075   -4.0481 C   0  0  0  0  0  0  0  0  0  0  0  0
   -2.8871   -3.3841   -4.8260 H   0  0  0  0  0  0  0  0  0  0  0  0
   -1.9640   -1.5538   -4.1535 C   0  0  0  0  0  0  0  0  0  0  0  0
   -2.2988   -0.9757   -5.0096 H   0  0  0  0  0  0  0  0  0  0  0  0
   -1.2038   -0.9394   -3.1527 C   0  0  0  0  0  0  0  0  0  0  0  0
   -0.9670    0.1176   -3.2353 H   0  0  0  0  0  0  0  0  0  0  0  0
   -1.0413    0.8871    0.3922 C   0  0  0  0  0  0  0  0  0  0  0  0
   -1.9146    1.4042   -0.2953 O   0  0  0  0  0  0  0  0  0  0  0  0
   -0.2600    1.6865    1.2069 N   0  0  0  0  0  0  0  0  0  0  0  0
    0.4197    1.2270    1.8063 H   0  0  0  0  0  0  0  0  0  0  0  0
   -0.4353    3.1296    1.3167 C   0  0  0  0  0  0  0  0  0  0  0  0
   -1.4466    3.3679    1.6629 H   0  0  0  0  0  0  0  0  0  0  0  0
    0.2818    3.5439    2.0318 H   0  0  0  0  0  0  0  0  0  0  0  0
   -0.2727    3.6103    0.3462 H   0  0  0  0  0  0  0  0  0  0  0  0
  1  2  1  0  0  0  0
  2  3  1  0  0  0  0
  2  4  1  0  0  0  0
  2  5  1  0  0  0  0
  5  6  2  0  0  0  0
  5  7  1  0  0  0  0
  7  8  1  0  0  0  0
  7  9  1  0  0  0  0
  9 10  1  0  0  0  0
  9 11  1  0  0  0  0
  9 25  1  0  0  0  0
 11 12  1  0  0  0  0
 11 13  1  0  0  0  0
 11 14  1  0  0  0  0
 14 15  1  0  0  0  0
 14 23  2  0  0  0  0
 15 16  1  0  0  0  0
 15 17  2  0  0  0  0
 17 18  1  0  0  0  0
 17 19  1  0  0  0  0
 19 20  1  0  0  0  0
 19 21  2  0  0  0  0
 21 22  1  0  0  0  0
 21 23  1  0  0  0  0
 23 24  1  0  0  0  0
 25 26  2  0  0  0  0
 25 27  1  0  0  0  0
 27 28  1  0  0  0  0
 27 29  1  0  0  0  0
 29 30  1  0  0  0  0
 29 31  1  0  0  0  0
 29 32  1  0  0  0  0
M  END
$$$$

  -OEChem-04042216033D

 32 32  0     1  0  0  0  0  0999 V2000
   -3.7957   -3.9007    1.9822 H   0  0  0  0  0  0  0  0  0  0  0  0
   -3.7679   -3.0482    1.2979 C   0  0  0  0  0  0  0  0  0  0  0  0
   -4.4948   -2.3040    1.6322 H   0  0  0  0  0  0  0  0  0  0  0  0
   -4.0414   -3.3895    0.2964 H   0  0  0  0  0  0  0  0  0  0  0  0
   -2.3784   -2.4401    1.2743 C   0  0  0  0  0  0  0  0  0  0  0  0
   -1.4850   -2.9259    1.9504 O   0  0  0  0  0  0  0  0  0  0  0  0
   -2.1229   -1.3543    0.4650 N   0  0  0  0  0  0  0  0  0  0  0  0
   -2.8942   -0.9834   -0.0881 H   0  0  0  0  0  0  0  0  0  0  0  0
   -0.8291   -0.6650    0.3470 C   0  0  1  0  0  0  0  0  0  0  0  0
   -0.2051   -0.9147    1.2110 H   0  0  0  0  0  0  0  0  0  0  0  0
   -0.0214   -1.0011   -0.9393 C   0  0  0  0  0  0  0  0  0  0  0  0
    0.4595   -0.0928   -1.3183 H   0  0  0  0  0  0  0  0  0  0  0  0
    0.7892   -1.6739   -0.6420 H   0  0  0  0  0  0  0  0  0  0  0  0
   -0.7557   -1.6924   -2.0757 C   0  0  0  0  0  0  0  0  0  0  0  0
   -1.3605   -2.9513   -1.9163 C   0  0  0  0  0  0  0  0  0  0  0  0
   -1.2460   -3.4909   -0.9814 H   0  0  0  0  0  0  0  0  0  0  0  0
   -2.0804   -3.5404   -2.9607 C   0  0  0  0  0  0  0  0  0  0  0  0
   -2.5288   -4.5201   -2.8255 H   0  0  0  0  0  0  0  0  0  0  0  0
   -2.2167   -2.8706   -4.1791 C   0  0  0  0  0  0  0  0  0  0  0  0
   -2.7766   -3.3252   -4.9909 H   0  0  0  0  0  0  0  0  0  0  0  0
   -1.6313   -1.6132   -4.3494 C   0  0  0  0  0  0  0  0  0  0  0  0
   -1.7413   -1.0854   -5.2921 H   0  0  0  0  0  0  0  0  0  0  0  0
   -0.9094   -1.0283   -3.3032 C   0  0  0  0  0  0  0  0  0  0  0  0
   -0.4781   -0.0420   -3.4471 H   0  0  0  0  0  0  0  0  0  0  0  0
   -1.0669    0.8578    0.3911 C   0  0  0  0  0  0  0  0  0  0  0  0
   -1.9778    1.3621   -0.2557 O   0  0  0  0  0  0  0  0  0  0  0  0
   -0.2614    1.6681    1.1704 N   0  0  0  0  0  0  0  0  0  0  0  0
    0.4468    1.2178    1.7432 H   0  0  0  0  0  0  0  0  0  0  0  0
   -0.4480    3.1097    1.2819 C   0  0  0  0  0  0  0  0  0  0  0  0
   -1.4404    3.3373    1.6852 H   0  0  0  0  0  0  0  0  0  0  0  0
    0.3045    3.5383    1.9508 H   0  0  0  0  0  0  0  0  0  0  0  0
   -0.3485    3.5854    0.3005 H   0  0  0  0  0  0  0  0  0  0  0  0
  1  2  1  0  0  0  0
  2  3  1  0  0  0  0
  2  4  1  0  0  0  0
  2  5  1  0  0  0  0
  5  6  2  0  0  0  0
  5  7  1  0  0  0  0
  7  8  1  0  0  0  0
  7  9  1  0  0  0  0
  9 10  1  0  0  0  0
  9 11  1  0  0  0  0
  9 25  1  0  0  0  0
 11 12  1  0  0  0  0
 11 13  1  0  0  0  0
 11 14  1  0  0  0  0
 14 15  1  0  0  0  0
 14 23  2  0  0  0  0
 15 16  1  0  0  0  0
 15 17  2  0  0  0  0
 17 18  1  0  0  0  0
 17 19  1  0  0  0  0
 19 20  1  0  0  0  0
 19 21  2  0  0  0  0
 21 22  1  0  0  0  0
 21 23  1  0  0  0  0
 23 24  1  0  0  0  0
 25 26  2  0  0  0  0
 25 27  1  0  0  0  0
 27 28  1  0  0  0  0
 27 29  1  0  0  0  0
 29 30  1  0  0  0  0
 29 31  1  0  0  0  0
 29 32  1  0  0  0  0
M  END
$$$$

  -OEChem-04042216033D

 32 32  0     1  0  0  0  0  0999 V2000
   -3.7983   -3.8288    2.2139 H   0  0  0  0  0  0  0  0  0  0  0  0
   -3.7923   -2.9841    1.5196 C   0  0  0  0  0  0  0  0  0  0  0  0
   -4.4624   -2.2095    1.9006 H   0  0  0  0  0  0  0  0  0  0  0  0
   -4.1562   -3.3240    0.5470 H   0  0  0  0  0  0  0  0  0  0  0  0
   -2.3871   -2.4295    1.3818 C   0  0  0  0  0  0  0  0  0  0  0  0
   -1.4653   -2.9343    2.0033 O   0  0  0  0  0  0  0  0  0  0  0  0
   -2.1553   -1.3609    0.5421 N   0  0  0  0  0  0  0  0  0  0  0  0
   -2.9560   -0.9501    0.0635 H   0  0  0  0  0  0  0  0  0  0  0  0
   -0.8595   -0.6927    0.3571 C   0  0  1  0  0  0  0  0  0  0  0  0
   -0.2101   -0.9311    1.2053 H   0  0  0  0  0  0  0  0  0  0  0  0
   -0.0764   -1.0308   -0.9483 C   0  0  0  0  0  0  0  0  0  0  0  0
    0.4053   -0.1187   -1.3165 H   0  0  0  0  0  0  0  0  0  0  0  0
    0.7360   -1.7021   -0.6526 H   0  0  0  0  0  0  0  0  0  0  0  0
   -0.7735   -1.7258   -2.1132 C   0  0  0  0  0  0  0  0  0  0  0  0
   -1.6231   -2.8379   -1.9698 C   0  0  0  0  0  0  0  0  0  0  0  0
   -1.7354   -3.3242   -1.0093 H   0  0  0  0  0  0  0  0  0  0  0  0
   -2.2881   -3.3894   -3.0698 C   0  0  0  0  0  0  0  0  0  0  0  0
   -2.9253   -4.2586   -2.9372 H   0  0  0  0  0  0  0  0  0  0  0  0
   -2.1243   -2.8301   -4.3382 C   0  0  0  0  0  0  0  0  0  0  0  0
   -2.6412   -3.2554   -5.1934 H   0  0  0  0  0  0  0  0  0  0  0  0
   -1.2894   -1.7232   -4.5026 C   0  0  0  0  0  0  0  0  0  0  0  0
   -1.1619   -1.2807   -5.4861 H   0  0  0  0  0  0  0  0  0  0  0  0
   -0.6234   -1.1782   -3.3996 C   0  0  0  0  0  0  0  0  0  0  0  0
    0.0069   -0.3075   -3.5518 H   0  0  0  0  0  0  0  0  0  0  0  0
   -1.0951    0.8317    0.3887 C   0  0  0  0  0  0  0  0  0  0  0  0
   -2.0512    1.3250   -0.1990 O   0  0  0  0  0  0  0  0  0  0  0  0
   -0.2555    1.6519    1.1210 N   0  0  0  0  0  0  0  0  0  0  0  0
    0.4852    1.2094    1.6576 H   0  0  0  0  0  0  0  0  0  0  0  0
   -0.4550    3.0902    1.2491 C   0  0  0  0  0  0  0  0  0  0  0  0
   -1.4239    3.3026    1.7130 H   0  0  0  0  0  0  0  0  0  0  0  0
    0.3305    3.5267    1.8732 H   0  0  0  0  0  0  0  0  0  0  0  0
   -0.4216    3.5708    0.2657 H   0  0  0  0  0  0  0  0  0  0  0  0
  1  2  1  0  0  0  0
  2  3  1  0  0  0  0
  2  4  1  0  0  0  0
  2  5  1  0  0  0  0
  5  6  2  0  0  0  0
  5  7  1  0  0  0  0
  7  8  1  0  0  0  0
  7  9  1  0  0  0  0
  9 10  1  0  0  0  0
  9 11  1  0  0  0  0
  9 25  1  0  0  0  0
 11 12  1  0  0  0  0
 11 13  1  0  0  0  0
 11 14  1  0  0  0  0
 14 15  1  0  0  0  0
 14 23  2  0  0  0  0
 15 16  1  0  0  0  0
 15 17  2  0  0  0  0
 17 18  1  0  0  0  0
 17 19  1  0  0  0  0
 19 20  1  0  0  0  0
 19 21  2  0  0  0  0
 21 22  1  0  0  0  0
 21 23  1  0  0  0  0
 23 24  1  0  0  0  0
 25 26  2  0  0  0  0
 25 27  1  0  0  0  0
 27 28  1  0  0  0  0
 27 29  1  0  0  0  0
 29 30  1  0  0  0  0
 29 31  1  0  0  0  0
 29 32  1  0  0  0  0
M  END
$$$$

  -OEChem-04042216033D

 32 32  0     1  0  0  0  0  0999 V2000
   -3.7625   -3.7823    2.4126 H   0  0  0  0  0  0  0  0  0  0  0  0
   -3.7899   -2.9399    1.7158 C   0  0  0  0  0  0  0  0  0  0  0  0
   -4.4100   -2.1486    2.1440 H   0  0  0  0  0  0  0  0  0  0  0  0
   -4.2358   -3.2741    0.7760 H   0  0  0  0  0  0  0  0  0  0  0  0
   -2.3860   -2.4205    1.4685 C   0  0  0  0  0  0  0  0  0  0  0  0
   -1.4346   -2.9440    2.0264 O   0  0  0  0  0  0  0  0  0  0  0  0
   -2.1908   -1.3549    0.6142 N   0  0  0  0  0  0  0  0  0  0  0  0
   -3.0147   -0.9044    0.2176 H   0  0  0  0  0  0  0  0  0  0  0  0
   -0.8977   -0.7058    0.3644 C   0  0  1  0  0  0  0  0  0  0  0  0
   -0.2164   -0.9453    1.1871 H   0  0  0  0  0  0  0  0  0  0  0  0
   -0.1583   -1.0474   -0.9676 C   0  0  0  0  0  0  0  0  0  0  0  0
    0.3144   -0.1304   -1.3355 H   0  0  0  0  0  0  0  0  0  0  0  0
    0.6600   -1.7181   -0.6873 H   0  0  0  0  0  0  0  0  0  0  0  0
   -0.8394   -1.7372   -2.1509 C   0  0  0  0  0  0  0  0  0  0  0  0
   -1.9043   -2.6571   -2.0740 C   0  0  0  0  0  0  0  0  0  0  0  0
   -2.2742   -3.0236   -1.1285 H   0  0  0  0  0  0  0  0  0  0  0  0
   -2.4891   -3.1900   -3.2285 C   0  0  0  0  0  0  0  0  0  0  0  0
   -3.3020   -3.9048   -3.1433 H   0  0  0  0  0  0  0  0  0  0  0  0
   -2.0240   -2.8147   -4.4892 C   0  0  0  0  0  0  0  0  0  0  0  0
   -2.4782   -3.2281   -5.3847 H   0  0  0  0  0  0  0  0  0  0  0  0
   -0.9672   -1.9104   -4.5916 C   0  0  0  0  0  0  0  0  0  0  0  0
   -0.5984   -1.6137   -5.5690 H   0  0  0  0  0  0  0  0  0  0  0  0
   -0.3852   -1.3816   -3.4351 C   0  0  0  0  0  0  0  0  0  0  0  0
    0.4302   -0.6735   -3.5464 H   0  0  0  0  0  0  0  0  0  0  0  0
   -1.1214    0.8206    0.4077 C   0  0  0  0  0  0  0  0  0  0  0  0
   -2.1115    1.3172   -0.1179 O   0  0  0  0  0  0  0  0  0  0  0  0
   -0.2423    1.6367    1.0965 N   0  0  0  0  0  0  0  0  0  0  0  0
    0.5294    1.1924    1.5858 H   0  0  0  0  0  0  0  0  0  0  0  0
   -0.4295    3.0760    1.2344 C   0  0  0  0  0  0  0  0  0  0  0  0
   -1.3668    3.2922    1.7577 H   0  0  0  0  0  0  0  0  0  0  0  0
    0.3950    3.5115    1.8068 H   0  0  0  0  0  0  0  0  0  0  0  0
   -0.4569    3.5547    0.2498 H   0  0  0  0  0  0  0  0  0  0  0  0
  1  2  1  0  0  0  0
  2  3  1  0  0  0  0
  2  4  1  0  0  0  0
  2  5  1  0  0  0  0
  5  6  2  0  0  0  0
  5  7  1  0  0  0  0
  7  8  1  0  0  0  0
  7  9  1  0  0  0  0
  9 10  1  0  0  0  0
  9 11  1  0  0  0  0
  9 25  1  0  0  0  0
 11 12  1  0  0  0  0
 11 13  1  0  0  0  0
 11 14  1  0  0  0  0
 14 15  1  0  0  0  0
 14 23  2  0  0  0  0
 15 16  1  0  0  0  0
 15 17  2  0  0  0  0
 17 18  1  0  0  0  0
 17 19  1  0  0  0  0
 19 20  1  0  0  0  0
 19 21  2  0  0  0  0
 21 22  1  0  0  0  0
 21 23  1  0  0  0  0
 23 24  1  0  0  0  0
 25 26  2  0  0  0  0
 25 27  1  0  0  0  0
 27 28  1  0  0  0  0
 27 29  1  0  0  0  0
 29 30  1  0  0  0  0
 29 31  1  0  0  0  0
 29 32  1  0  0  0  0
M  END
$$$$

  -OEChem-04042216033D

 32 32  0     1  0  0  0  0  0999 V2000
   -3.7374   -3.7506    2.4830 H   0  0  0  0  0  0  0  0  0  0  0  0
   -3.7761   -2.9152    1.7783 C   0  0  0  0  0  0  0  0  0  0  0  0
   -4.3775   -2.1142    2.2149 H   0  0  0  0  0  0  0  0  0  0  0  0
   -4.2499   -3.2552    0.8545 H   0  0  0  0  0  0  0  0  0  0  0  0
   -2.3755   -2.4108    1.4863 C   0  0  0  0  0  0  0  0  0  0  0  0
   -1.4106   -2.9540    2.0008 O   0  0  0  0  0  0  0  0  0  0  0  0
   -2.2016   -1.3318    0.6448 N   0  0  0  0  0  0  0  0  0  0  0  0
   -3.0354   -0.8498    0.3105 H   0  0  0  0  0  0  0  0  0  0  0  0
   -0.9130   -0.6951    0.3553 C   0  0  1  0  0  0  0  0  0  0  0  0
   -0.2068   -0.9545    1.1508 H   0  0  0  0  0  0  0  0  0  0  0  0
   -0.2225   -1.0395   -1.0015 C   0  0  0  0  0  0  0  0  0  0  0  0
    0.2395   -0.1212   -1.3801 H   0  0  0  0  0  0  0  0  0  0  0  0
    0.6020   -1.7115   -0.7426 H   0  0  0  0  0  0  0  0  0  0  0  0
   -0.9160   -1.7165   -2.1879 C   0  0  0  0  0  0  0  0  0  0  0  0
   -2.1515   -2.3995   -2.1882 C   0  0  0  0  0  0  0  0  0  0  0  0
   -2.7440   -2.5452   -1.3001 H   0  0  0  0  0  0  0  0  0  0  0  0
   -2.6718   -2.9581   -3.3615 C   0  0  0  0  0  0  0  0  0  0  0  0
   -3.6236   -3.4801   -3.3363 H   0  0  0  0  0  0  0  0  0  0  0  0
   -1.9726   -2.8524   -4.5634 C   0  0  0  0  0  0  0  0  0  0  0  0
   -2.3779   -3.2870   -5.4725 H   0  0  0  0  0  0  0  0  0  0  0  0
   -0.7473   -2.1882   -4.5890 C   0  0  0  0  0  0  0  0  0  0  0  0
   -0.1953   -2.1020   -5.5201 H   0  0  0  0  0  0  0  0  0  0  0  0
   -0.2307   -1.6315   -3.4151 C   0  0  0  0  0  0  0  0  0  0  0  0
    0.7255   -1.1192   -3.4656 H   0  0  0  0  0  0  0  0  0  0  0  0
   -1.1139    0.8330    0.4347 C   0  0  0  0  0  0  0  0  0  0  0  0
   -2.1240    1.3476   -0.0325 O   0  0  0  0  0  0  0  0  0  0  0  0
   -0.1985    1.6276    1.1014 N   0  0  0  0  0  0  0  0  0  0  0  0
    0.5868    1.1664    1.5520 H   0  0  0  0  0  0  0  0  0  0  0  0
   -0.3756    3.0627    1.2905 C   0  0  0  0  0  0  0  0  0  0  0  0
   -1.2651    3.2618    1.8975 H   0  0  0  0  0  0  0  0  0  0  0  0
    0.4942    3.4880    1.8005 H   0  0  0  0  0  0  0  0  0  0  0  0
   -0.4883    3.5661    0.3244 H   0  0  0  0  0  0  0  0  0  0  0  0
  1  2  1  0  0  0  0
  2  3  1  0  0  0  0
  2  4  1  0  0  0  0
  2  5  1  0  0  0  0
  5  6  2  0  0  0  0
  5  7  1  0  0  0  0
  7  8  1  0  0  0  0
  7  9  1  0  0  0  0
  9 10  1  0  0  0  0
  9 11  1  0  0  0  0
  9 25  1  0  0  0  0
 11 12  1  0  0  0  0
 11 13  1  0  0  0  0
 11 14  1  0  0  0  0
 14 15  1  0  0  0  0
 14 23  2  0  0  0  0
 15 16  1  0  0  0  0
 15 17  2  0  0  0  0
 17 18  1  0  0  0  0
 17 19  1  0  0  0  0
 19 20  1  0  0  0  0
 19 21  2  0  0  0  0
 21 22  1  0  0  0  0
 21 23  1  0  0  0  0
 23 24  1  0  0  0  0
 25 26  2  0  0  0  0
 25 27  1  0  0  0  0
 27 28  1  0  0  0  0
 27 29  1  0  0  0  0
 29 30  1  0  0  0  0
 29 31  1  0  0  0  0
 29 32  1  0  0  0  0
M  END
$$$$

  -OEChem-04042216033D

 32 32  0     1  0  0  0  0  0999 V2000
   -3.7332   -3.7633    2.4301 H   0  0  0  0  0  0  0  0  0  0  0  0
   -3.7731   -2.9300    1.7229 C   0  0  0  0  0  0  0  0  0  0  0  0
   -4.3847   -2.1326    2.1522 H   0  0  0  0  0  0  0  0  0  0  0  0
   -4.2361   -3.2763    0.7956 H   0  0  0  0  0  0  0  0  0  0  0  0
   -2.3737   -2.4168    1.4403 C   0  0  0  0  0  0  0  0  0  0  0  0
   -1.4073   -2.9722    1.9394 O   0  0  0  0  0  0  0  0  0  0  0  0
   -2.2021   -1.3183    0.6243 N   0  0  0  0  0  0  0  0  0  0  0  0
   -3.0367   -0.8135    0.3288 H   0  0  0  0  0  0  0  0  0  0  0  0
   -0.9124   -0.6794    0.3432 C   0  0  1  0  0  0  0  0  0  0  0  0
   -0.2036   -0.9595    1.1294 H   0  0  0  0  0  0  0  0  0  0  0  0
   -0.2361   -1.0101   -1.0226 C   0  0  0  0  0  0  0  0  0  0  0  0
    0.2261   -0.0914   -1.4002 H   0  0  0  0  0  0  0  0  0  0  0  0
    0.5868   -1.6888   -0.7748 H   0  0  0  0  0  0  0  0  0  0  0  0
   -0.9436   -1.6649   -2.2119 C   0  0  0  0  0  0  0  0  0  0  0  0
   -2.2919   -2.0754   -2.2954 C   0  0  0  0  0  0  0  0  0  0  0  0
   -3.0053   -1.9204   -1.5021 H   0  0  0  0  0  0  0  0  0  0  0  0
   -2.7927   -2.6870   -3.4507 C   0  0  0  0  0  0  0  0  0  0  0  0
   -3.8355   -2.9865   -3.4953 H   0  0  0  0  0  0  0  0  0  0  0  0
   -1.9619   -2.9077   -4.5489 C   0  0  0  0  0  0  0  0  0  0  0  0
   -2.3533   -3.3827   -5.4437 H   0  0  0  0  0  0  0  0  0  0  0  0
   -0.6264   -2.5118   -4.4906 C   0  0  0  0  0  0  0  0  0  0  0  0
    0.0275   -2.6797   -5.3411 H   0  0  0  0  0  0  0  0  0  0  0  0
   -0.1296   -1.9000   -3.3357 C   0  0  0  0  0  0  0  0  0  0  0  0
    0.9156   -1.6059   -3.3147 H   0  0  0  0  0  0  0  0  0  0  0  0
   -1.1008    0.8476    0.4586 C   0  0  0  0  0  0  0  0  0  0  0  0
   -2.1140    1.3771    0.0150 O   0  0  0  0  0  0  0  0  0  0  0  0
   -0.1764    1.6208    1.1378 N   0  0  0  0  0  0  0  0  0  0  0  0
    0.6165    1.1468    1.5610 H   0  0  0  0  0  0  0  0  0  0  0  0
   -0.3398    3.0533    1.3552 C   0  0  0  0  0  0  0  0  0  0  0  0
   -1.2428    3.2513    1.9422 H   0  0  0  0  0  0  0  0  0  0  0  0
    0.5208    3.4550    1.8984 H   0  0  0  0  0  0  0  0  0  0  0  0
   -0.4199    3.5795    0.3981 H   0  0  0  0  0  0  0  0  0  0  0  0
  1  2  1  0  0  0  0
  2  3  1  0  0  0  0
  2  4  1  0  0  0  0
  2  5  1  0  0  0  0
  5  6  2  0  0  0  0
  5  7  1  0  0  0  0
  7  8  1  0  0  0  0
  7  9  1  0  0  0  0
  9 10  1  0  0  0  0
  9 11  1  0  0  0  0
  9 25  1  0  0  0  0
 11 12  1  0  0  0  0
 11 13  1  0  0  0  0
 11 14  1  0  0  0  0
 14 15  1  0  0  0  0
 14 23  2  0  0  0  0
 15 16  1  0  0  0  0
 15 17  2  0  0  0  0
 17 18  1  0  0  0  0
 17 19  1  0  0  0  0
 19 20  1  0  0  0  0
 19 21  2  0  0  0  0
 21 22  1  0  0  0  0
 21 23  1  0  0  0  0
 23 24  1  0  0  0  0
 25 26  2  0  0  0  0
 25 27  1  0  0  0  0
 27 28  1  0  0  0  0
 27 29  1  0  0  0  0
 29 30  1  0  0  0  0
 29 31  1  0  0  0  0
 29 32  1  0  0  0  0
M  END
$$$$

  -OEChem-04042216033D

 32 32  0     1  0  0  0  0  0999 V2000
   -3.7661   -3.7999    2.2717 H   0  0  0  0  0  0  0  0  0  0  0  0
   -3.7855   -2.9559    1.5766 C   0  0  0  0  0  0  0  0  0  0  0  0
   -4.4156   -2.1683    1.9966 H   0  0  0  0  0  0  0  0  0  0  0  0
   -4.2137   -3.2890    0.6280 H   0  0  0  0  0  0  0  0  0  0  0  0
   -2.3801   -2.4315    1.3513 C   0  0  0  0  0  0  0  0  0  0  0  0
   -1.4295   -2.9820    1.8852 O   0  0  0  0  0  0  0  0  0  0  0  0
   -2.1873   -1.3200    0.5584 N   0  0  0  0  0  0  0  0  0  0  0  0
   -3.0148   -0.8212    0.2368 H   0  0  0  0  0  0  0  0  0  0  0  0
   -0.8909   -0.6685    0.3337 C   0  0  1  0  0  0  0  0  0  0  0  0
   -0.2051   -0.9588    1.1360 H   0  0  0  0  0  0  0  0  0  0  0  0
   -0.1836   -0.9845   -1.0186 C   0  0  0  0  0  0  0  0  0  0  0  0
    0.2831   -0.0656   -1.3888 H   0  0  0  0  0  0  0  0  0  0  0  0
    0.6350   -1.6644   -0.7609 H   0  0  0  0  0  0  0  0  0  0  0  0
   -0.8984   -1.6246   -2.2089 C   0  0  0  0  0  0  0  0  0  0  0  0
   -2.2934   -1.7362   -2.3821 C   0  0  0  0  0  0  0  0  0  0  0  0
   -2.9925   -1.2767   -1.6977 H   0  0  0  0  0  0  0  0  0  0  0  0
   -2.8349   -2.3899   -3.4948 C   0  0  0  0  0  0  0  0  0  0  0  0
   -3.9122   -2.4534   -3.6142 H   0  0  0  0  0  0  0  0  0  0  0  0
   -1.9951   -2.9481   -4.4595 C   0  0  0  0  0  0  0  0  0  0  0  0
   -2.4158   -3.4538   -5.3236 H   0  0  0  0  0  0  0  0  0  0  0  0
   -0.6117   -2.8448   -4.3124 C   0  0  0  0  0  0  0  0  0  0  0  0
    0.0481   -3.2743   -5.0606 H   0  0  0  0  0  0  0  0  0  0  0  0
   -0.0749   -2.1903   -3.1993 C   0  0  0  0  0  0  0  0  0  0  0  0
    1.0049   -2.1287   -3.1031 H   0  0  0  0  0  0  0  0  0  0  0  0
   -1.0872    0.8553    0.4633 C   0  0  0  0  0  0  0  0  0  0  0  0
   -2.0797    1.3893   -0.0200 O   0  0  0  0  0  0  0  0  0  0  0  0
   -0.1897    1.6200    1.1864 N   0  0  0  0  0  0  0  0  0  0  0  0
    0.5846    1.1397    1.6362 H   0  0  0  0  0  0  0  0  0  0  0  0
   -0.3501    3.0533    1.3997 C   0  0  0  0  0  0  0  0  0  0  0  0
   -1.2832    3.2596    1.9345 H   0  0  0  0  0  0  0  0  0  0  0  0
    0.4824    3.4426    1.9935 H   0  0  0  0  0  0  0  0  0  0  0  0
   -0.3681    3.5834    0.4415 H   0  0  0  0  0  0  0  0  0  0  0  0
  1  2  1  0  0  0  0
  2  3  1  0  0  0  0
  2  4  1  0  0  0  0
  2  5  1  0  0  0  0
  5  6  2  0  0  0  0
  5  7  1  0  0  0  0
  7  8  1  0  0  0  0
  7  9  1  0  0  0  0
  9 10  1  0  0  0  0
  9 11  1  0  0  0  0
  9 25  1  0  0  0  0
 11 12  1  0  0  0  0
 11 13  1  0  0  0  0
 11 14  1  0  0  0  0
 14 15  1  0  0  0  0
 14 23  2  0  0  0  0
 15 16  1  0  0  0  0
 15 17  2  0  0  0  0
 17 18  1  0  0  0  0
 17 19  1  0  0  0  0
 19 20  1  0  0  0  0
 19 21  2  0  0  0  0
 21 22  1  0  0  0  0
 21 23  1  0  0  0  0
 23 24  1  0  0  0  0
 25 26  2  0  0  0  0
 25 27  1  0  0  0  0
 27 28  1  0  0  0  0
 27 29  1  0  0  0  0
 29 30  1  0  0  0  0
 29 31  1  0  0  0  0
 29 32  1  0  0  0  0
M  END
$$$$

  -OEChem-04042216033D

 32 32  0     1  0  0  0  0  0999 V2000
   -3.7698   -3.8785    2.0325 H   0  0  0  0  0  0  0  0  0  0  0  0
   -3.7644   -3.0198    1.3552 C   0  0  0  0  0  0  0  0  0  0  0  0
   -4.4598   -2.2671    1.7343 H   0  0  0  0  0  0  0  0  0  0  0  0
   -4.0961   -3.3480    0.3670 H   0  0  0  0  0  0  0  0  0  0  0  0
   -2.3675   -2.4357    1.2620 C   0  0  0  0  0  0  0  0  0  0  0  0
   -1.4479   -2.9467    1.8829 O   0  0  0  0  0  0  0  0  0  0  0  0
   -2.1463   -1.3208    0.4820 N   0  0  0  0  0  0  0  0  0  0  0  0
   -2.9553   -0.8762    0.0540 H   0  0  0  0  0  0  0  0  0  0  0  0
   -0.8474   -0.6492    0.3284 C   0  0  1  0  0  0  0  0  0  0  0  0
   -0.1929   -0.9361    1.1576 H   0  0  0  0  0  0  0  0  0  0  0  0
   -0.0959   -0.9679   -0.9974 C   0  0  0  0  0  0  0  0  0  0  0  0
    0.3710   -0.0511   -1.3728 H   0  0  0  0  0  0  0  0  0  0  0  0
    0.7217   -1.6414   -0.7213 H   0  0  0  0  0  0  0  0  0  0  0  0
   -0.8279   -1.6148   -2.1691 C   0  0  0  0  0  0  0  0  0  0  0  0
   -2.1964   -1.4267   -2.4426 C   0  0  0  0  0  0  0  0  0  0  0  0
   -2.7834   -0.7205   -1.8663 H   0  0  0  0  0  0  0  0  0  0  0  0
   -2.8192   -2.0910   -3.5043 C   0  0  0  0  0  0  0  0  0  0  0  0
   -3.8726   -1.9212   -3.7061 H   0  0  0  0  0  0  0  0  0  0  0  0
   -2.0846   -2.9603   -4.3131 C   0  0  0  0  0  0  0  0  0  0  0  0
   -2.5668   -3.4767   -5.1379 H   0  0  0  0  0  0  0  0  0  0  0  0
   -0.7251   -3.1566   -4.0620 C   0  0  0  0  0  0  0  0  0  0  0  0
   -0.1486   -3.8299   -4.6896 H   0  0  0  0  0  0  0  0  0  0  0  0
   -0.1059   -2.4892   -2.9998 C   0  0  0  0  0  0  0  0  0  0  0  0
    0.9500   -2.6637   -2.8172 H   0  0  0  0  0  0  0  0  0  0  0  0
   -1.0623    0.8728    0.4462 C   0  0  0  0  0  0  0  0  0  0  0  0
   -2.0202    1.4014   -0.1079 O   0  0  0  0  0  0  0  0  0  0  0  0
   -0.2122    1.6456    1.2162 N   0  0  0  0  0  0  0  0  0  0  0  0
    0.5310    1.1701    1.7203 H   0  0  0  0  0  0  0  0  0  0  0  0
   -0.3940    3.0786    1.4143 C   0  0  0  0  0  0  0  0  0  0  0  0
   -1.3575    3.2805    1.8939 H   0  0  0  0  0  0  0  0  0  0  0  0
    0.4005    3.4759    2.0534 H   0  0  0  0  0  0  0  0  0  0  0  0
   -0.3609    3.6051    0.4545 H   0  0  0  0  0  0  0  0  0  0  0  0
  1  2  1  0  0  0  0
  2  3  1  0  0  0  0
  2  4  1  0  0  0  0
  2  5  1  0  0  0  0
  5  6  2  0  0  0  0
  5  7  1  0  0  0  0
  7  8  1  0  0  0  0
  7  9  1  0  0  0  0
  9 10  1  0  0  0  0
  9 11  1  0  0  0  0
  9 25  1  0  0  0  0
 11 12  1  0  0  0  0
 11 13  1  0  0  0  0
 11 14  1  0  0  0  0
 14 15  1  0  0  0  0
 14 23  2  0  0  0  0
 15 16  1  0  0  0  0
 15 17  2  0  0  0  0
 17 18  1  0  0  0  0
 17 19  1  0  0  0  0
 19 20  1  0  0  0  0
 19 21  2  0  0  0  0
 21 22  1  0  0  0  0
 21 23  1  0  0  0  0
 23 24  1  0  0  0  0
 25 26  2  0  0  0  0
 25 27  1  0  0  0  0
 27 28  1  0  0  0  0
 27 29  1  0  0  0  0
 29 30  1  0  0  0  0
 29 31  1  0  0  0  0
 29 32  1  0  0  0  0
M  END
$$$$

  -OEChem-04042216033D

 32 32  0     1  0  0  0  0  0999 V2000
   -3.7342   -3.9751    1.7898 H   0  0  0  0  0  0  0  0  0  0  0  0
   -3.7139   -3.1079    1.1240 C   0  0  0  0  0  0  0  0  0  0  0  0
   -4.4956   -2.4090    1.4310 H   0  0  0  0  0  0  0  0  0  0  0  0
   -3.9137   -3.4426    0.1031 H   0  0  0  0  0  0  0  0  0  0  0  0
   -2.3582   -2.4303    1.1875 C   0  0  0  0  0  0  0  0  0  0  0  0
   -1.4823   -2.8808    1.9104 O   0  0  0  0  0  0  0  0  0  0  0  0
   -2.1209   -1.3103    0.4195 N   0  0  0  0  0  0  0  0  0  0  0  0
   -2.8801   -0.9715   -0.1665 H   0  0  0  0  0  0  0  0  0  0  0  0
   -0.8289   -0.6119    0.3277 C   0  0  1  0  0  0  0  0  0  0  0  0
   -0.2039   -0.8930    1.1812 H   0  0  0  0  0  0  0  0  0  0  0  0
   -0.0386   -0.9489   -0.9675 C   0  0  0  0  0  0  0  0  0  0  0  0
    0.4200   -0.0370   -1.3643 H   0  0  0  0  0  0  0  0  0  0  0  0
    0.7839   -1.6068   -0.6700 H   0  0  0  0  0  0  0  0  0  0  0  0
   -0.7903   -1.6240   -2.1057 C   0  0  0  0  0  0  0  0  0  0  0  0
   -2.0607   -1.1886   -2.5265 C   0  0  0  0  0  0  0  0  0  0  0  0
   -2.5118   -0.3080   -2.0788 H   0  0  0  0  0  0  0  0  0  0  0  0
   -2.7463   -1.8533   -3.5483 C   0  0  0  0  0  0  0  0  0  0  0  0
   -3.7208   -1.4961   -3.8680 H   0  0  0  0  0  0  0  0  0  0  0  0
   -2.1730   -2.9688   -4.1635 C   0  0  0  0  0  0  0  0  0  0  0  0
   -2.7033   -3.4847   -4.9585 H   0  0  0  0  0  0  0  0  0  0  0  0
   -0.9128   -3.4145   -3.7567 C   0  0  0  0  0  0  0  0  0  0  0  0
   -0.4635   -4.2812   -4.2322 H   0  0  0  0  0  0  0  0  0  0  0  0
   -0.2284   -2.7466   -2.7354 C   0  0  0  0  0  0  0  0  0  0  0  0
    0.7462   -3.1138   -2.4284 H   0  0  0  0  0  0  0  0  0  0  0  0
   -1.0479    0.9106    0.4322 C   0  0  0  0  0  0  0  0  0  0  0  0
   -1.9584    1.4479   -0.1885 O   0  0  0  0  0  0  0  0  0  0  0  0
   -0.2317    1.6811    1.2402 N   0  0  0  0  0  0  0  0  0  0  0  0
    0.4775    1.2022    1.7877 H   0  0  0  0  0  0  0  0  0  0  0  0
   -0.3976    3.1197    1.4064 C   0  0  0  0  0  0  0  0  0  0  0  0
   -1.3819    3.3455    1.8296 H   0  0  0  0  0  0  0  0  0  0  0  0
    0.3683    3.5129    2.0818 H   0  0  0  0  0  0  0  0  0  0  0  0
   -0.3023    3.6303    0.4424 H   0  0  0  0  0  0  0  0  0  0  0  0
  1  2  1  0  0  0  0
  2  3  1  0  0  0  0
  2  4  1  0  0  0  0
  2  5  1  0  0  0  0
  5  6  2  0  0  0  0
  5  7  1  0  0  0  0
  7  8  1  0  0  0  0
  7  9  1  0  0  0  0
  9 10  1  0  0  0  0
  9 11  1  0  0  0  0
  9 25  1  0  0  0  0
 11 12  1  0  0  0  0
 11 13  1  0  0  0  0
 11 14  1  0  0  0  0
 14 15  1  0  0  0  0
 14 23  2  0  0  0  0
 15 16  1  0  0  0  0
 15 17  2  0  0  0  0
 17 18  1  0  0  0  0
 17 19  1  0  0  0  0
 19 20  1  0  0  0  0
 19 21  2  0  0  0  0
 21 22  1  0  0  0  0
 21 23  1  0  0  0  0
 23 24  1  0  0  0  0
 25 26  2  0  0  0  0
 25 27  1  0  0  0  0
 27 28  1  0  0  0  0
 27 29  1  0  0  0  0
 29 30  1  0  0  0  0
 29 31  1  0  0  0  0
 29 32  1  0  0  0  0
M  END
$$$$

  -OEChem-04042216033D

 32 32  0     1  0  0  0  0  0999 V2000
   -3.6981   -4.0248    1.6395 H   0  0  0  0  0  0  0  0  0  0  0  0
   -3.6724   -3.1456    0.9899 C   0  0  0  0  0  0  0  0  0  0  0  0
   -4.4879   -2.4749    1.2706 H   0  0  0  0  0  0  0  0  0  0  0  0
   -3.8141   -3.4673   -0.0449 H   0  0  0  0  0  0  0  0  0  0  0  0
   -2.3420   -2.4301    1.1292 C   0  0  0  0  0  0  0  0  0  0  0  0
   -1.4983   -2.8520    1.9056 O   0  0  0  0  0  0  0  0  0  0  0  0
   -2.0889   -1.3109    0.3658 N   0  0  0  0  0  0  0  0  0  0  0  0
   -2.8066   -1.0225   -0.2954 H   0  0  0  0  0  0  0  0  0  0  0  0
   -0.8025   -0.5972    0.3164 C   0  0  1  0  0  0  0  0  0  0  0  0
   -0.2002   -0.8713    1.1883 H   0  0  0  0  0  0  0  0  0  0  0  0
    0.0160   -0.9494   -0.9549 C   0  0  0  0  0  0  0  0  0  0  0  0
    0.4723   -0.0429   -1.3668 H   0  0  0  0  0  0  0  0  0  0  0  0
    0.8398   -1.6005   -0.6463 H   0  0  0  0  0  0  0  0  0  0  0  0
   -0.7575   -1.6422   -2.0627 C   0  0  0  0  0  0  0  0  0  0  0  0
   -1.8641   -1.0213   -2.6675 C   0  0  0  0  0  0  0  0  0  0  0  0
   -2.1528   -0.0159   -2.3736 H   0  0  0  0  0  0  0  0  0  0  0  0
   -2.5988   -1.6791   -3.6591 C   0  0  0  0  0  0  0  0  0  0  0  0
   -3.4472   -1.1840   -4.1222 H   0  0  0  0  0  0  0  0  0  0  0  0
   -2.2375   -2.9693   -4.0563 C   0  0  0  0  0  0  0  0  0  0  0  0
   -2.8066   -3.4810   -4.8268 H   0  0  0  0  0  0  0  0  0  0  0  0
   -1.1408   -3.5989   -3.4609 C   0  0  0  0  0  0  0  0  0  0  0  0
   -0.8584   -4.6017   -3.7675 H   0  0  0  0  0  0  0  0  0  0  0  0
   -0.4069   -2.9395   -2.4686 C   0  0  0  0  0  0  0  0  0  0  0  0
    0.4355   -3.4469   -2.0082 H   0  0  0  0  0  0  0  0  0  0  0  0
   -1.0301    0.9252    0.4054 C   0  0  0  0  0  0  0  0  0  0  0  0
   -1.9120    1.4608   -0.2566 O   0  0  0  0  0  0  0  0  0  0  0  0
   -0.2451    1.7022    1.2378 N   0  0  0  0  0  0  0  0  0  0  0  0
    0.4354    1.2259    1.8232 H   0  0  0  0  0  0  0  0  0  0  0  0
   -0.4287    3.1398    1.3969 C   0  0  0  0  0  0  0  0  0  0  0  0
   -1.4347    3.3590    1.7701 H   0  0  0  0  0  0  0  0  0  0  0  0
    0.2991    3.5378    2.1105 H   0  0  0  0  0  0  0  0  0  0  0  0
   -0.2884    3.6517    0.4389 H   0  0  0  0  0  0  0  0  0  0  0  0
  1  2  1  0  0  0  0
  2  3  1  0  0  0  0
  2  4  1  0  0  0  0
  2  5  1  0  0  0  0
  5  6  2  0  0  0  0
  5  7  1  0  0  0  0
  7  8  1  0  0  0  0
  7  9  1  0  0  0  0
  9 10  1  0  0  0  0
  9 11  1  0  0  0  0
  9 25  1  0  0  0  0
 11 12  1  0  0  0  0
 11 13  1  0  0  0  0
 11 14  1  0  0  0  0
 14 15  1  0  0  0  0
 14 23  2  0  0  0  0
 15 16  1  0  0  0  0
 15 17  2  0  0  0  0
 17 18  1  0  0  0  0
 17 19  1  0  0  0  0
 19 20  1  0  0  0  0
 19 21  2  0  0  0  0
 21 22  1  0  0  0  0
 21 23  1  0  0  0  0
 23 24  1  0  0  0  0
 25 26  2  0  0  0  0
 25 27  1  0  0  0  0
 27 28  1  0  0  0  0
 27 29  1  0  0  0  0
 29 30  1  0  0  0  0
 29 31  1  0  0  0  0
 29 32  1  0  0  0  0
M  END
$$$$

  -OEChem-04042216033D

 32 32  0     1  0  0  0  0  0999 V2000
   -3.6916   -4.0358    1.6181 H   0  0  0  0  0  0  0  0  0  0  0  0
   -3.6594   -3.1599    0.9642 C   0  0  0  0  0  0  0  0  0  0  0  0
   -4.4792   -2.4889    1.2321 H   0  0  0  0  0  0  0  0  0  0  0  0
   -3.7882   -3.4872   -0.0706 H   0  0  0  0  0  0  0  0  0  0  0  0
   -2.3321   -2.4417    1.1160 C   0  0  0  0  0  0  0  0  0  0  0  0
   -1.4980   -2.8578    1.9059 O   0  0  0  0  0  0  0  0  0  0  0  0
   -2.0682   -1.3294    0.3468 N   0  0  0  0  0  0  0  0  0  0  0  0
   -2.7712   -1.0518   -0.3353 H   0  0  0  0  0  0  0  0  0  0  0  0
   -0.7844   -0.6096    0.3172 C   0  0  1  0  0  0  0  0  0  0  0  0
   -0.1924   -0.8750    1.1987 H   0  0  0  0  0  0  0  0  0  0  0  0
    0.0480   -0.9622   -0.9430 C   0  0  0  0  0  0  0  0  0  0  0  0
    0.5073   -0.0583   -1.3574 H   0  0  0  0  0  0  0  0  0  0  0  0
    0.8688   -1.6171   -0.6344 H   0  0  0  0  0  0  0  0  0  0  0  0
   -0.7385   -1.6568   -2.0352 C   0  0  0  0  0  0  0  0  0  0  0  0
   -1.6308   -0.9276   -2.8357 C   0  0  0  0  0  0  0  0  0  0  0  0
   -1.7413    0.1437   -2.6876 H   0  0  0  0  0  0  0  0  0  0  0  0
   -2.3852   -1.5687   -3.8236 C   0  0  0  0  0  0  0  0  0  0  0  0
   -3.0705   -0.9931   -4.4390 H   0  0  0  0  0  0  0  0  0  0  0  0
   -2.2567   -2.9474   -4.0170 C   0  0  0  0  0  0  0  0  0  0  0  0
   -2.8404   -3.4453   -4.7857 H   0  0  0  0  0  0  0  0  0  0  0  0
   -1.3756   -3.6840   -3.2193 C   0  0  0  0  0  0  0  0  0  0  0  0
   -1.2763   -4.7558   -3.3647 H   0  0  0  0  0  0  0  0  0  0  0  0
   -0.6213   -3.0412   -2.2317 C   0  0  0  0  0  0  0  0  0  0  0  0
    0.0516   -3.6243   -1.6097 H   0  0  0  0  0  0  0  0  0  0  0  0
   -1.0249    0.9116    0.3855 C   0  0  0  0  0  0  0  0  0  0  0  0
   -1.8829    1.4355   -0.3163 O   0  0  0  0  0  0  0  0  0  0  0  0
   -0.2640    1.7032    1.2265 N   0  0  0  0  0  0  0  0  0  0  0  0
    0.3971    1.2371    1.8414 H   0  0  0  0  0  0  0  0  0  0  0  0
   -0.4552    3.1423    1.3587 C   0  0  0  0  0  0  0  0  0  0  0  0
   -1.4692    3.3637    1.7084 H   0  0  0  0  0  0  0  0  0  0  0  0
    0.2572    3.5542    2.0799 H   0  0  0  0  0  0  0  0  0  0  0  0
   -0.2975    3.6395    0.3957 H   0  0  0  0  0  0  0  0  0  0  0  0
  1  2  1  0  0  0  0
  2  3  1  0  0  0  0
  2  4  1  0  0  0  0
  2  5  1  0  0  0  0
  5  6  2  0  0  0  0
  5  7  1  0  0  0  0
  7  8  1  0  0  0  0
  7  9  1  0  0  0  0
  9 10  1  0  0  0  0
  9 11  1  0  0  0  0
  9 25  1  0  0  0  0
 11 12  1  0  0  0  0
 11 13  1  0  0  0  0
 11 14  1  0  0  0  0
 14 15  1  0  0  0  0
 14 23  2  0  0  0  0
 15 16  1  0  0  0  0
 15 17  2  0  0  0  0
 17 18  1  0  0  0  0
 17 19  1  0  0  0  0
 19 20  1  0  0  0  0
 19 21  2  0  0  0  0
 21 22  1  0  0  0  0
 21 23  1  0  0  0  0
 23 24  1  0  0  0  0
 25 26  2  0  0  0  0
 25 27  1  0  0  0  0
 27 28  1  0  0  0  0
 27 29  1  0  0  0  0
 29 30  1  0  0  0  0
 29 31  1  0  0  0  0
 29 32  1  0  0  0  0
M  END
$$$$

  -OEChem-04042216033D

 32 32  0     1  0  0  0  0  0999 V2000
   -3.7160   -4.0194    1.6632 H   0  0  0  0  0  0  0  0  0  0  0  0
   -3.6803   -3.1414    1.0124 C   0  0  0  0  0  0  0  0  0  0  0  0
   -4.4842   -2.4580    1.2967 H   0  0  0  0  0  0  0  0  0  0  0  0
   -3.8326   -3.4614   -0.0214 H   0  0  0  0  0  0  0  0  0  0  0  0
   -2.3386   -2.4458    1.1430 C   0  0  0  0  0  0  0  0  0  0  0  0
   -1.4959   -2.8771    1.9154 O   0  0  0  0  0  0  0  0  0  0  0  0
   -2.0686   -1.3416    0.3650 N   0  0  0  0  0  0  0  0  0  0  0  0
   -2.7832   -1.0457   -0.2975 H   0  0  0  0  0  0  0  0  0  0  0  0
   -0.7835   -0.6253    0.3265 C   0  0  1  0  0  0  0  0  0  0  0  0
   -0.1894   -0.8849    1.2084 H   0  0  0  0  0  0  0  0  0  0  0  0
    0.0450   -0.9768   -0.9356 C   0  0  0  0  0  0  0  0  0  0  0  0
    0.5108   -0.0746   -1.3468 H   0  0  0  0  0  0  0  0  0  0  0  0
    0.8622   -1.6392   -0.6327 H   0  0  0  0  0  0  0  0  0  0  0  0
   -0.7484   -1.6707   -2.0217 C   0  0  0  0  0  0  0  0  0  0  0  0
   -1.3982   -0.9172   -3.0092 C   0  0  0  0  0  0  0  0  0  0  0  0
   -1.3403    0.1680   -2.9883 H   0  0  0  0  0  0  0  0  0  0  0  0
   -2.1395   -1.5514   -4.0117 C   0  0  0  0  0  0  0  0  0  0  0  0
   -2.6449   -0.9577   -4.7679 H   0  0  0  0  0  0  0  0  0  0  0  0
   -2.2309   -2.9466   -4.0378 C   0  0  0  0  0  0  0  0  0  0  0  0
   -2.8047   -3.4386   -4.8175 H   0  0  0  0  0  0  0  0  0  0  0  0
   -1.5815   -3.7065   -3.0599 C   0  0  0  0  0  0  0  0  0  0  0  0
   -1.6500   -4.7901   -3.0788 H   0  0  0  0  0  0  0  0  0  0  0  0
   -0.8423   -3.0707   -2.0568 C   0  0  0  0  0  0  0  0  0  0  0  0
   -0.3449   -3.6668   -1.2967 H   0  0  0  0  0  0  0  0  0  0  0  0
   -1.0266    0.8958    0.3810 C   0  0  0  0  0  0  0  0  0  0  0  0
   -1.8797    1.4108   -0.3331 O   0  0  0  0  0  0  0  0  0  0  0  0
   -0.2665    1.6977    1.2131 N   0  0  0  0  0  0  0  0  0  0  0  0
    0.3931    1.2389    1.8350 H   0  0  0  0  0  0  0  0  0  0  0  0
   -0.4580    3.1385    1.3275 C   0  0  0  0  0  0  0  0  0  0  0  0
   -1.4806    3.3653    1.6472 H   0  0  0  0  0  0  0  0  0  0  0  0
    0.2348    3.5551    2.0650 H   0  0  0  0  0  0  0  0  0  0  0  0
   -0.2728    3.6272    0.3652 H   0  0  0  0  0  0  0  0  0  0  0  0
  1  2  1  0  0  0  0
  2  3  1  0  0  0  0
  2  4  1  0  0  0  0
  2  5  1  0  0  0  0
  5  6  2  0  0  0  0
  5  7  1  0  0  0  0
  7  8  1  0  0  0  0
  7  9  1  0  0  0  0
  9 10  1  0  0  0  0
  9 11  1  0  0  0  0
  9 25  1  0  0  0  0
 11 12  1  0  0  0  0
 11 13  1  0  0  0  0
 11 14  1  0  0  0  0
 14 15  1  0  0  0  0
 14 23  2  0  0  0  0
 15 16  1  0  0  0  0
 15 17  2  0  0  0  0
 17 18  1  0  0  0  0
 17 19  1  0  0  0  0
 19 20  1  0  0  0  0
 19 21  2  0  0  0  0
 21 22  1  0  0  0  0
 21 23  1  0  0  0  0
 23 24  1  0  0  0  0
 25 26  2  0  0  0  0
 25 27  1  0  0  0  0
 27 28  1  0  0  0  0
 27 29  1  0  0  0  0
 29 30  1  0  0  0  0
 29 31  1  0  0  0  0
 29 32  1  0  0  0  0
M  END
$$$$

  -OEChem-04042216033D

 32 32  0     1  0  0  0  0  0999 V2000
   -3.7552   -3.9751    1.7706 H   0  0  0  0  0  0  0  0  0  0  0  0
   -3.7219   -3.1057    1.1081 C   0  0  0  0  0  0  0  0  0  0  0  0
   -4.5024   -2.4026    1.4084 H   0  0  0  0  0  0  0  0  0  0  0  0
   -3.9131   -3.4349    0.0836 H   0  0  0  0  0  0  0  0  0  0  0  0
   -2.3636   -2.4359    1.1892 C   0  0  0  0  0  0  0  0  0  0  0  0
   -1.4994   -2.8892    1.9241 O   0  0  0  0  0  0  0  0  0  0  0  0
   -2.0994   -1.3361    0.4027 N   0  0  0  0  0  0  0  0  0  0  0  0
   -2.8371   -1.0117   -0.2204 H   0  0  0  0  0  0  0  0  0  0  0  0
   -0.8098   -0.6306    0.3361 C   0  0  1  0  0  0  0  0  0  0  0  0
   -0.2043   -0.8901    1.2101 H   0  0  0  0  0  0  0  0  0  0  0  0
    0.0061   -0.9824   -0.9354 C   0  0  0  0  0  0  0  0  0  0  0  0
    0.4788   -0.0810   -1.3400 H   0  0  0  0  0  0  0  0  0  0  0  0
    0.8196   -1.6517   -0.6379 H   0  0  0  0  0  0  0  0  0  0  0  0
   -0.7815   -1.6757   -2.0281 C   0  0  0  0  0  0  0  0  0  0  0  0
   -1.1673   -0.9705   -3.1771 C   0  0  0  0  0  0  0  0  0  0  0  0
   -0.9408    0.0883   -3.2660 H   0  0  0  0  0  0  0  0  0  0  0  0
   -1.8651   -1.6138   -4.2050 C   0  0  0  0  0  0  0  0  0  0  0  0
   -2.1716   -1.0537   -5.0834 H   0  0  0  0  0  0  0  0  0  0  0  0
   -2.1676   -2.9749   -4.1011 C   0  0  0  0  0  0  0  0  0  0  0  0
   -2.7091   -3.4738   -4.8993 H   0  0  0  0  0  0  0  0  0  0  0  0
   -1.7654   -3.6936   -2.9713 C   0  0  0  0  0  0  0  0  0  0  0  0
   -1.9892   -4.7533   -2.8922 H   0  0  0  0  0  0  0  0  0  0  0  0
   -1.0686   -3.0482   -1.9445 C   0  0  0  0  0  0  0  0  0  0  0  0
   -0.7496   -3.6143   -1.0734 H   0  0  0  0  0  0  0  0  0  0  0  0
   -1.0424    0.8922    0.3912 C   0  0  0  0  0  0  0  0  0  0  0  0
   -1.9122    1.4110   -0.2993 O   0  0  0  0  0  0  0  0  0  0  0  0
   -0.2595    1.6897    1.2062 N   0  0  0  0  0  0  0  0  0  0  0  0
    0.4181    1.2281    1.8063 H   0  0  0  0  0  0  0  0  0  0  0  0
   -0.4336    3.1328    1.3189 C   0  0  0  0  0  0  0  0  0  0  0  0
   -1.4473    3.3720    1.6575 H   0  0  0  0  0  0  0  0  0  0  0  0
    0.2779    3.5438    2.0414 H   0  0  0  0  0  0  0  0  0  0  0  0
   -0.2614    3.6159    0.3513 H   0  0  0  0  0  0  0  0  0  0  0  0
  1  2  1  0  0  0  0
  2  3  1  0  0  0  0
  2  4  1  0  0  0  0
  2  5  1  0  0  0  0
  5  6  2  0  0  0  0
  5  7  1  0  0  0  0
  7  8  1  0  0  0  0
  7  9  1  0  0  0  0
  9 10  1  0  0  0  0
  9 11  1  0  0  0  0
  9 25  1  0  0  0  0
 11 12  1  0  0  0  0
 11 13  1  0  0  0  0
 11 14  1  0  0  0  0
 14 15  1  0  0  0  0
 14 23  2  0  0  0  0
 15 16  1  0  0  0  0
 15 17  2  0  0  0  0
 17 18  1  0  0  0  0
 17 19  1  0  0  0  0
 19 20  1  0  0  0  0
 19 21  2  0  0  0  0
 21 22  1  0  0  0  0
 21 23  1  0  0  0  0
 23 24  1  0  0  0  0
 25 26  2  0  0  0  0
 25 27  1  0  0  0  0
 27 28  1  0  0  0  0
 27 29  1  0  0  0  0
 29 30  1  0  0  0  0
 29 31  1  0  0  0  0
 29 32  1  0  0  0  0
M  END
$$$$

  -OEChem-04042216033D

 32 32  0     1  0  0  0  0  0999 V2000
   -3.8177   -3.8978    1.9405 H   0  0  0  0  0  0  0  0  0  0  0  0
   -3.7851   -3.0423    1.2604 C   0  0  0  0  0  0  0  0  0  0  0  0
   -4.5241   -2.3056    1.5845 H   0  0  0  0  0  0  0  0  0  0  0  0
   -4.0371   -3.3822    0.2529 H   0  0  0  0  0  0  0  0  0  0  0  0
   -2.4006   -2.4227    1.2633 C   0  0  0  0  0  0  0  0  0  0  0  0
   -1.5134   -2.9075    1.9486 O   0  0  0  0  0  0  0  0  0  0  0  0
   -2.1411   -1.3314    0.4629 N   0  0  0  0  0  0  0  0  0  0  0  0
   -2.9054   -0.9674   -0.1039 H   0  0  0  0  0  0  0  0  0  0  0  0
   -0.8441   -0.6459    0.3505 C   0  0  1  0  0  0  0  0  0  0  0  0
   -0.2195   -0.9075    1.2106 H   0  0  0  0  0  0  0  0  0  0  0  0
   -0.0502   -0.9896   -0.9399 C   0  0  0  0  0  0  0  0  0  0  0  0
    0.4274   -0.0849   -1.3313 H   0  0  0  0  0  0  0  0  0  0  0  0
    0.7612   -1.6668   -0.6548 H   0  0  0  0  0  0  0  0  0  0  0  0
   -0.8261   -1.6730   -2.0503 C   0  0  0  0  0  0  0  0  0  0  0  0
   -0.9369   -1.0594   -3.3080 C   0  0  0  0  0  0  0  0  0  0  0  0
   -0.5429   -0.0591   -3.4621 H   0  0  0  0  0  0  0  0  0  0  0  0
   -1.5758   -1.7113   -4.3685 C   0  0  0  0  0  0  0  0  0  0  0  0
   -1.6759   -1.2139   -5.3285 H   0  0  0  0  0  0  0  0  0  0  0  0
   -2.0786   -3.0035   -4.1950 C   0  0  0  0  0  0  0  0  0  0  0  0
   -2.5712   -3.5103   -5.0194 H   0  0  0  0  0  0  0  0  0  0  0  0
   -1.9265   -3.6484   -2.9648 C   0  0  0  0  0  0  0  0  0  0  0  0
   -2.2894   -4.6635   -2.8335 H   0  0  0  0  0  0  0  0  0  0  0  0
   -1.2899   -2.9920   -1.9066 C   0  0  0  0  0  0  0  0  0  0  0  0
   -1.1419   -3.5179   -0.9681 H   0  0  0  0  0  0  0  0  0  0  0  0
   -1.0657    0.8787    0.4057 C   0  0  0  0  0  0  0  0  0  0  0  0
   -1.9684    1.3978   -0.2409 O   0  0  0  0  0  0  0  0  0  0  0  0
   -0.2513    1.6744    1.1910 N   0  0  0  0  0  0  0  0  0  0  0  0
    0.4594    1.2136    1.7522 H   0  0  0  0  0  0  0  0  0  0  0  0
   -0.4061    3.1199    1.2972 C   0  0  0  0  0  0  0  0  0  0  0  0
   -1.4038    3.3722    1.6717 H   0  0  0  0  0  0  0  0  0  0  0  0
    0.3366    3.5298    1.9884 H   0  0  0  0  0  0  0  0  0  0  0  0
   -0.2662    3.5928    0.3194 H   0  0  0  0  0  0  0  0  0  0  0  0
  1  2  1  0  0  0  0
  2  3  1  0  0  0  0
  2  4  1  0  0  0  0
  2  5  1  0  0  0  0
  5  6  2  0  0  0  0
  5  7  1  0  0  0  0
  7  8  1  0  0  0  0
  7  9  1  0  0  0  0
  9 10  1  0  0  0  0
  9 11  1  0  0  0  0
  9 25  1  0  0  0  0
 11 12  1  0  0  0  0
 11 13  1  0  0  0  0
 11 14  1  0  0  0  0
 14 15  1  0  0  0  0
 14 23  2  0  0  0  0
 15 16  1  0  0  0  0
 15 17  2  0  0  0  0
 17 18  1  0  0  0  0
 17 19  1  0  0  0  0
 19 20  1  0  0  0  0
 19 21  2  0  0  0  0
 21 22  1  0  0  0  0
 21 23  1  0  0  0  0
 23 24  1  0  0  0  0
 25 26  2  0  0  0  0
 25 27  1  0  0  0  0
 27 28  1  0  0  0  0
 27 29  1  0  0  0  0
 29 30  1  0  0  0  0
 29 31  1  0  0  0  0
 29 32  1  0  0  0  0
M  END
$$$$

  -OEChem-04042216033D

 32 32  0     1  0  0  0  0  0999 V2000
   -3.8542   -3.8143    2.1356 H   0  0  0  0  0  0  0  0  0  0  0  0
   -3.8323   -2.9663    1.4454 C   0  0  0  0  0  0  0  0  0  0  0  0
   -4.5169   -2.1966    1.8102 H   0  0  0  0  0  0  0  0  0  0  0  0
   -4.1662   -3.3034    0.4610 H   0  0  0  0  0  0  0  0  0  0  0  0
   -2.4262   -2.4051    1.3498 C   0  0  0  0  0  0  0  0  0  0  0  0
   -1.5165   -2.9204    1.9807 O   0  0  0  0  0  0  0  0  0  0  0  0
   -2.1770   -1.3266    0.5283 N   0  0  0  0  0  0  0  0  0  0  0  0
   -2.9666   -0.9163    0.0317 H   0  0  0  0  0  0  0  0  0  0  0  0
   -0.8730   -0.6674    0.3605 C   0  0  1  0  0  0  0  0  0  0  0  0
   -0.2252   -0.9287    1.2032 H   0  0  0  0  0  0  0  0  0  0  0  0
   -0.1073   -1.0054   -0.9529 C   0  0  0  0  0  0  0  0  0  0  0  0
    0.3765   -0.0980   -1.3301 H   0  0  0  0  0  0  0  0  0  0  0  0
    0.7013   -1.6913   -0.6811 H   0  0  0  0  0  0  0  0  0  0  0  0
   -0.8647   -1.6750   -2.0899 C   0  0  0  0  0  0  0  0  0  0  0  0
   -0.6910   -1.1924   -3.3984 C   0  0  0  0  0  0  0  0  0  0  0  0
   -0.1167   -0.2874   -3.5717 H   0  0  0  0  0  0  0  0  0  0  0  0
   -1.2741   -1.8395   -4.4931 C   0  0  0  0  0  0  0  0  0  0  0  0
   -1.1564   -1.4288   -5.4916 H   0  0  0  0  0  0  0  0  0  0  0  0
   -1.9995   -3.0172   -4.3029 C   0  0  0  0  0  0  0  0  0  0  0  0
   -2.4506   -3.5225   -5.1518 H   0  0  0  0  0  0  0  0  0  0  0  0
   -2.1155   -3.5576   -3.0206 C   0  0  0  0  0  0  0  0  0  0  0  0
   -2.6403   -4.4967   -2.8722 H   0  0  0  0  0  0  0  0  0  0  0  0
   -1.5313   -2.9040   -1.9306 C   0  0  0  0  0  0  0  0  0  0  0  0
   -1.5727   -3.3840   -0.9600 H   0  0  0  0  0  0  0  0  0  0  0  0
   -1.0837    0.8599    0.4116 C   0  0  0  0  0  0  0  0  0  0  0  0
   -2.0189    1.3769   -0.1888 O   0  0  0  0  0  0  0  0  0  0  0  0
   -0.2366    1.6584    1.1590 N   0  0  0  0  0  0  0  0  0  0  0  0
    0.4973    1.1997    1.6914 H   0  0  0  0  0  0  0  0  0  0  0  0
   -0.3939    3.1033    1.2742 C   0  0  0  0  0  0  0  0  0  0  0  0
   -1.3736    3.3503    1.6966 H   0  0  0  0  0  0  0  0  0  0  0  0
    0.3789    3.5174    1.9291 H   0  0  0  0  0  0  0  0  0  0  0  0
   -0.3046    3.5772    0.2910 H   0  0  0  0  0  0  0  0  0  0  0  0
  1  2  1  0  0  0  0
  2  3  1  0  0  0  0
  2  4  1  0  0  0  0
  2  5  1  0  0  0  0
  5  6  2  0  0  0  0
  5  7  1  0  0  0  0
  7  8  1  0  0  0  0
  7  9  1  0  0  0  0
  9 10  1  0  0  0  0
  9 11  1  0  0  0  0
  9 25  1  0  0  0  0
 11 12  1  0  0  0  0
 11 13  1  0  0  0  0
 11 14  1  0  0  0  0
 14 15  1  0  0  0  0
 14 23  2  0  0  0  0
 15 16  1  0  0  0  0
 15 17  2  0  0  0  0
 17 18  1  0  0  0  0
 17 19  1  0  0  0  0
 19 20  1  0  0  0  0
 19 21  2  0  0  0  0
 21 22  1  0  0  0  0
 21 23  1  0  0  0  0
 23 24  1  0  0  0  0
 25 26  2  0  0  0  0
 25 27  1  0  0  0  0
 27 28  1  0  0  0  0
 27 29  1  0  0  0  0
 29 30  1  0  0  0  0
 29 31  1  0  0  0  0
 29 32  1  0  0  0  0
M  END
$$$$

  -OEChem-04042216033D

 32 32  0     1  0  0  0  0  0999 V2000
   -3.8385   -3.7497    2.3352 H   0  0  0  0  0  0  0  0  0  0  0  0
   -3.8426   -2.8962    1.6515 C   0  0  0  0  0  0  0  0  0  0  0  0
   -4.4610   -2.1038    2.0802 H   0  0  0  0  0  0  0  0  0  0  0  0
   -4.2748   -3.2102    0.6984 H   0  0  0  0  0  0  0  0  0  0  0  0
   -2.4288   -2.3900    1.4376 C   0  0  0  0  0  0  0  0  0  0  0  0
   -1.4935   -2.9264    2.0102 O   0  0  0  0  0  0  0  0  0  0  0  0
   -2.2063   -1.3226    0.5928 N   0  0  0  0  0  0  0  0  0  0  0  0
   -3.0177   -0.8701    0.1733 H   0  0  0  0  0  0  0  0  0  0  0  0
   -0.9014   -0.6886    0.3614 C   0  0  1  0  0  0  0  0  0  0  0  0
   -0.2278   -0.9457    1.1852 H   0  0  0  0  0  0  0  0  0  0  0  0
   -0.1658   -1.0286   -0.9725 C   0  0  0  0  0  0  0  0  0  0  0  0
    0.3183   -0.1179   -1.3413 H   0  0  0  0  0  0  0  0  0  0  0  0
    0.6430   -1.7156   -0.7046 H   0  0  0  0  0  0  0  0  0  0  0  0
   -0.8876   -1.6936   -2.1420 C   0  0  0  0  0  0  0  0  0  0  0  0
   -0.4303   -1.3901   -3.4379 C   0  0  0  0  0  0  0  0  0  0  0  0
    0.3374   -0.6357   -3.5796 H   0  0  0  0  0  0  0  0  0  0  0  0
   -0.9624   -2.0184   -4.5687 C   0  0  0  0  0  0  0  0  0  0  0  0
   -0.6151   -1.7395   -5.5591 H   0  0  0  0  0  0  0  0  0  0  0  0
   -1.9344   -3.0084   -4.4237 C   0  0  0  0  0  0  0  0  0  0  0  0
   -2.3499   -3.4997   -5.2985 H   0  0  0  0  0  0  0  0  0  0  0  0
   -2.3465   -3.3853   -3.1455 C   0  0  0  0  0  0  0  0  0  0  0  0
   -3.0693   -4.1864   -3.0242 H   0  0  0  0  0  0  0  0  0  0  0  0
   -1.8089   -2.7528   -2.0193 C   0  0  0  0  0  0  0  0  0  0  0  0
   -2.0991   -3.1405   -1.0540 H   0  0  0  0  0  0  0  0  0  0  0  0
   -1.1054    0.8401    0.4115 C   0  0  0  0  0  0  0  0  0  0  0  0
   -2.0775    1.3550   -0.1300 O   0  0  0  0  0  0  0  0  0  0  0  0
   -0.2226    1.6388    1.1158 N   0  0  0  0  0  0  0  0  0  0  0  0
    0.5334    1.1791    1.6153 H   0  0  0  0  0  0  0  0  0  0  0  0
   -0.3892    3.0798    1.2598 C   0  0  0  0  0  0  0  0  0  0  0  0
   -1.3343    3.3079    1.7635 H   0  0  0  0  0  0  0  0  0  0  0  0
    0.4290    3.4976    1.8540 H   0  0  0  0  0  0  0  0  0  0  0  0
   -0.3870    3.5655    0.2784 H   0  0  0  0  0  0  0  0  0  0  0  0
  1  2  1  0  0  0  0
  2  3  1  0  0  0  0
  2  4  1  0  0  0  0
  2  5  1  0  0  0  0
  5  6  2  0  0  0  0
  5  7  1  0  0  0  0
  7  8  1  0  0  0  0
  7  9  1  0  0  0  0
  9 10  1  0  0  0  0
  9 11  1  0  0  0  0
  9 25  1  0  0  0  0
 11 12  1  0  0  0  0
 11 13  1  0  0  0  0
 11 14  1  0  0  0  0
 14 15  1  0  0  0  0
 14 23  2  0  0  0  0
 15 16  1  0  0  0  0
 15 17  2  0  0  0  0
 17 18  1  0  0  0  0
 17 19  1  0  0  0  0
 19 20  1  0  0  0  0
 19 21  2  0  0  0  0
 21 22  1  0  0  0  0
 21 23  1  0  0  0  0
 23 24  1  0  0  0  0
 25 26  2  0  0  0  0
 25 27  1  0  0  0  0
 27 28  1  0  0  0  0
 27 29  1  0  0  0  0
 29 30  1  0  0  0  0
 29 31  1  0  0  0  0
 29 32  1  0  0  0  0
M  END
$$$$

  -OEChem-04042216033D

 32 32  0     1  0  0  0  0  0999 V2000
   -3.7722   -3.7008    2.5280 H   0  0  0  0  0  0  0  0  0  0  0  0
   -3.8013   -2.8974    1.7867 C   0  0  0  0  0  0  0  0  0  0  0  0
   -4.4151   -2.0816    2.1763 H   0  0  0  0  0  0  0  0  0  0  0  0
   -4.2553   -3.2801    0.8694 H   0  0  0  0  0  0  0  0  0  0  0  0
   -2.3972   -2.3985    1.5011 C   0  0  0  0  0  0  0  0  0  0  0  0
   -1.4384   -2.9402    2.0283 O   0  0  0  0  0  0  0  0  0  0  0  0
   -2.2121   -1.3282    0.6504 N   0  0  0  0  0  0  0  0  0  0  0  0
   -3.0410   -0.8470    0.3032 H   0  0  0  0  0  0  0  0  0  0  0  0
   -0.9176   -0.7007    0.3648 C   0  0  1  0  0  0  0  0  0  0  0  0
   -0.2183   -0.9559    1.1678 H   0  0  0  0  0  0  0  0  0  0  0  0
   -0.2193   -1.0547   -0.9856 C   0  0  0  0  0  0  0  0  0  0  0  0
    0.2512   -0.1415   -1.3663 H   0  0  0  0  0  0  0  0  0  0  0  0
    0.5992   -1.7308   -0.7185 H   0  0  0  0  0  0  0  0  0  0  0  0
   -0.9134   -1.7331   -2.1698 C   0  0  0  0  0  0  0  0  0  0  0  0
   -0.2226   -1.6673   -3.3949 C   0  0  0  0  0  0  0  0  0  0  0  0
    0.7197   -1.1310   -3.4554 H   0  0  0  0  0  0  0  0  0  0  0  0
   -0.7199   -2.2668   -4.5561 C   0  0  0  0  0  0  0  0  0  0  0  0
   -0.1700   -2.1848   -5.4890 H   0  0  0  0  0  0  0  0  0  0  0  0
   -1.9218   -2.9717   -4.5148 C   0  0  0  0  0  0  0  0  0  0  0  0
   -2.3135   -3.4376   -5.4141 H   0  0  0  0  0  0  0  0  0  0  0  0
   -2.6103   -3.0853   -3.3073 C   0  0  0  0  0  0  0  0  0  0  0  0
   -3.5367   -3.6506   -3.2660 H   0  0  0  0  0  0  0  0  0  0  0  0
   -2.1077   -2.4849   -2.1470 C   0  0  0  0  0  0  0  0  0  0  0  0
   -2.6793   -2.6516   -1.2489 H   0  0  0  0  0  0  0  0  0  0  0  0
   -1.1125    0.8287    0.4286 C   0  0  0  0  0  0  0  0  0  0  0  0
   -2.1162    1.3441   -0.0516 O   0  0  0  0  0  0  0  0  0  0  0  0
   -0.1983    1.6245    1.0951 N   0  0  0  0  0  0  0  0  0  0  0  0
    0.5877    1.1651    1.5463 H   0  0  0  0  0  0  0  0  0  0  0  0
   -0.3615    3.0643    1.2565 C   0  0  0  0  0  0  0  0  0  0  0  0
   -1.2762    3.2861    1.8165 H   0  0  0  0  0  0  0  0  0  0  0  0
    0.4890    3.4832    1.8029 H   0  0  0  0  0  0  0  0  0  0  0  0
   -0.4190    3.5549    0.2791 H   0  0  0  0  0  0  0  0  0  0  0  0
  1  2  1  0  0  0  0
  2  3  1  0  0  0  0
  2  4  1  0  0  0  0
  2  5  1  0  0  0  0
  5  6  2  0  0  0  0
  5  7  1  0  0  0  0
  7  8  1  0  0  0  0
  7  9  1  0  0  0  0
  9 10  1  0  0  0  0
  9 11  1  0  0  0  0
  9 25  1  0  0  0  0
 11 12  1  0  0  0  0
 11 13  1  0  0  0  0
 11 14  1  0  0  0  0
 14 15  1  0  0  0  0
 14 23  2  0  0  0  0
 15 16  1  0  0  0  0
 15 17  2  0  0  0  0
 17 18  1  0  0  0  0
 17 19  1  0  0  0  0
 19 20  1  0  0  0  0
 19 21  2  0  0  0  0
 21 22  1  0  0  0  0
 21 23  1  0  0  0  0
 23 24  1  0  0  0  0
 25 26  2  0  0  0  0
 25 27  1  0  0  0  0
 27 28  1  0  0  0  0
 27 29  1  0  0  0  0
 29 30  1  0  0  0  0
 29 31  1  0  0  0  0
 29 32  1  0  0  0  0
M  END
$$$$

  -OEChem-04042216033D

 32 32  0     1  0  0  0  0  0999 V2000
   -3.6371   -3.8802    2.3506 H   0  0  0  0  0  0  0  0  0  0  0  0
   -3.6879   -3.0438    1.6479 C   0  0  0  0  0  0  0  0  0  0  0  0
   -4.3302   -2.2673    2.0701 H   0  0  0  0  0  0  0  0  0  0  0  0
   -4.1230   -3.3970    0.7099 H   0  0  0  0  0  0  0  0  0  0  0  0
   -2.2994   -2.4881    1.3936 C   0  0  0  0  0  0  0  0  0  0  0  0
   -1.3272   -3.0050    1.9220 O   0  0  0  0  0  0  0  0  0  0  0  0
   -2.1440   -1.3923    0.5716 N   0  0  0  0  0  0  0  0  0  0  0  0
   -2.9887   -0.9165    0.2607 H   0  0  0  0  0  0  0  0  0  0  0  0
   -0.8690   -0.7011    0.3354 C   0  0  1  0  0  0  0  0  0  0  0  0
   -0.1694   -0.9491    1.1402 H   0  0  0  0  0  0  0  0  0  0  0  0
   -0.1722   -1.0445   -1.0092 C   0  0  0  0  0  0  0  0  0  0  0  0
    0.4858   -0.2099   -1.2732 H   0  0  0  0  0  0  0  0  0  0  0  0
    0.4767   -1.9000   -0.7949 H   0  0  0  0  0  0  0  0  0  0  0  0
   -0.9540   -1.4273   -2.2635 C   0  0  0  0  0  0  0  0  0  0  0  0
   -0.1888   -1.7194   -3.4069 C   0  0  0  0  0  0  0  0  0  0  0  0
    0.8945   -1.7449   -3.3366 H   0  0  0  0  0  0  0  0  0  0  0  0
   -0.7883   -2.0049   -4.6378 C   0  0  0  0  0  0  0  0  0  0  0  0
   -0.1733   -2.2533   -5.4977 H   0  0  0  0  0  0  0  0  0  0  0  0
   -2.1769   -1.9610   -4.7626 C   0  0  0  0  0  0  0  0  0  0  0  0
   -2.6471   -2.1783   -5.7171 H   0  0  0  0  0  0  0  0  0  0  0  0
   -2.9560   -1.6071   -3.6606 C   0  0  0  0  0  0  0  0  0  0  0  0
   -4.0344   -1.5295   -3.7626 H   0  0  0  0  0  0  0  0  0  0  0  0
   -2.3506   -1.3230   -2.4313 C   0  0  0  0  0  0  0  0  0  0  0  0
   -3.0018   -0.9815   -1.6395 H   0  0  0  0  0  0  0  0  0  0  0  0
   -1.1105    0.8194    0.4210 C   0  0  0  0  0  0  0  0  0  0  0  0
   -2.1299    1.3075   -0.0552 O   0  0  0  0  0  0  0  0  0  0  0  0
   -0.2392    1.6296    1.1261 N   0  0  0  0  0  0  0  0  0  0  0  0
    0.5621    1.1895    1.5694 H   0  0  0  0  0  0  0  0  0  0  0  0
   -0.4491    3.0607    1.3089 C   0  0  0  0  0  0  0  0  0  0  0  0
   -1.3936    3.2466    1.8311 H   0  0  0  0  0  0  0  0  0  0  0  0
    0.3639    3.4899    1.9023 H   0  0  0  0  0  0  0  0  0  0  0  0
   -0.4756    3.5701    0.3398 H   0  0  0  0  0  0  0  0  0  0  0  0
  1  2  1  0  0  0  0
  2  3  1  0  0  0  0
  2  4  1  0  0  0  0
  2  5  1  0  0  0  0
  5  6  2  0  0  0  0
  5  7  1  0  0  0  0
  7  8  1  0  0  0  0
  7  9  1  0  0  0  0
  9 10  1  0  0  0  0
  9 11  1  0  0  0  0
  9 25  1  0  0  0  0
 11 12  1  0  0  0  0
 11 13  1  0  0  0  0
 11 14  1  0  0  0  0
 14 15  1  0  0  0  0
 14 23  2  0  0  0  0
 15 16  1  0  0  0  0
 15 17  2  0  0  0  0
 17 18  1  0  0  0  0
 17 19  1  0  0  0  0
 19 20  1  0  0  0  0
 19 21  2  0  0  0  0
 21 22  1  0  0  0  0
 21 23  1  0  0  0  0
 23 24  1  0  0  0  0
 25 26  2  0  0  0  0
 25 27  1  0  0  0  0
 27 28  1  0  0  0  0
 27 29  1  0  0  0  0
 29 30  1  0  0  0  0
 29 31  1  0  0  0  0
 29 32  1  0  0  0  0
M  END
$$$$

  -OEChem-04042216033D

 32 32  0     1  0  0  0  0  0999 V2000
   -3.6341   -3.9550    2.1488 H   0  0  0  0  0  0  0  0  0  0  0  0
   -3.6773   -3.1050    1.4620 C   0  0  0  0  0  0  0  0  0  0  0  0
   -4.3715   -2.3627    1.8634 H   0  0  0  0  0  0  0  0  0  0  0  0
   -4.0454   -3.4521    0.4934 H   0  0  0  0  0  0  0  0  0  0  0  0
   -2.2986   -2.4924    1.3009 C   0  0  0  0  0  0  0  0  0  0  0  0
   -1.3395   -2.9855    1.8744 O   0  0  0  0  0  0  0  0  0  0  0  0
   -2.1371   -1.3721    0.5136 N   0  0  0  0  0  0  0  0  0  0  0  0
   -2.9745   -0.9494    0.1198 H   0  0  0  0  0  0  0  0  0  0  0  0
   -0.8668   -0.6538    0.3262 C   0  0  1  0  0  0  0  0  0  0  0  0
   -0.1847   -0.9162    1.1410 H   0  0  0  0  0  0  0  0  0  0  0  0
   -0.1486   -0.9999   -1.0040 C   0  0  0  0  0  0  0  0  0  0  0  0
    0.4996   -0.1622   -1.2817 H   0  0  0  0  0  0  0  0  0  0  0  0
    0.5078   -1.8475   -0.7812 H   0  0  0  0  0  0  0  0  0  0  0  0
   -0.9579   -1.3923   -2.2339 C   0  0  0  0  0  0  0  0  0  0  0  0
   -0.2659   -2.0048   -3.2925 C   0  0  0  0  0  0  0  0  0  0  0  0
    0.7845   -2.2542   -3.1774 H   0  0  0  0  0  0  0  0  0  0  0  0
   -0.9067   -2.3211   -4.4947 C   0  0  0  0  0  0  0  0  0  0  0  0
   -0.3570   -2.8165   -5.2893 H   0  0  0  0  0  0  0  0  0  0  0  0
   -2.2507   -1.9915   -4.6766 C   0  0  0  0  0  0  0  0  0  0  0  0
   -2.7499   -2.2327   -5.6105 H   0  0  0  0  0  0  0  0  0  0  0  0
   -2.9413   -1.3258   -3.6623 C   0  0  0  0  0  0  0  0  0  0  0  0
   -3.9763   -1.0338   -3.8125 H   0  0  0  0  0  0  0  0  0  0  0  0
   -2.2952   -1.0107   -2.4618 C   0  0  0  0  0  0  0  0  0  0  0  0
   -2.8494   -0.4357   -1.7300 H   0  0  0  0  0  0  0  0  0  0  0  0
   -1.0956    0.8674    0.4403 C   0  0  0  0  0  0  0  0  0  0  0  0
   -2.0957    1.3824   -0.0470 O   0  0  0  0  0  0  0  0  0  0  0  0
   -0.2298    1.6491    1.1839 N   0  0  0  0  0  0  0  0  0  0  0  0
    0.5493    1.1853    1.6427 H   0  0  0  0  0  0  0  0  0  0  0  0
   -0.4230    3.0785    1.3968 C   0  0  0  0  0  0  0  0  0  0  0  0
   -1.3664    3.2644    1.9210 H   0  0  0  0  0  0  0  0  0  0  0  0
    0.3943    3.4846    2.0007 H   0  0  0  0  0  0  0  0  0  0  0  0
   -0.4412    3.6093    0.4390 H   0  0  0  0  0  0  0  0  0  0  0  0
  1  2  1  0  0  0  0
  2  3  1  0  0  0  0
  2  4  1  0  0  0  0
  2  5  1  0  0  0  0
  5  6  2  0  0  0  0
  5  7  1  0  0  0  0
  7  8  1  0  0  0  0
  7  9  1  0  0  0  0
  9 10  1  0  0  0  0
  9 11  1  0  0  0  0
  9 25  1  0  0  0  0
 11 12  1  0  0  0  0
 11 13  1  0  0  0  0
 11 14  1  0  0  0  0
 14 15  1  0  0  0  0
 14 23  2  0  0  0  0
 15 16  1  0  0  0  0
 15 17  2  0  0  0  0
 17 18  1  0  0  0  0
 17 19  1  0  0  0  0
 19 20  1  0  0  0  0
 19 21  2  0  0  0  0
 21 22  1  0  0  0  0
 21 23  1  0  0  0  0
 23 24  1  0  0  0  0
 25 26  2  0  0  0  0
 25 27  1  0  0  0  0
 27 28  1  0  0  0  0
 27 29  1  0  0  0  0
 29 30  1  0  0  0  0
 29 31  1  0  0  0  0
 29 32  1  0  0  0  0
M  END
$$$$

  -OEChem-04042216033D

 32 32  0     1  0  0  0  0  0999 V2000
   -3.6483   -3.9875    1.9220 H   0  0  0  0  0  0  0  0  0  0  0  0
   -3.6755   -3.1192    1.2579 C   0  0  0  0  0  0  0  0  0  0  0  0
   -4.4254   -2.4157    1.6276 H   0  0  0  0  0  0  0  0  0  0  0  0
   -3.9588   -3.4503    0.2557 H   0  0  0  0  0  0  0  0  0  0  0  0
   -2.3147   -2.4508    1.2147 C   0  0  0  0  0  0  0  0  0  0  0  0
   -1.3813   -2.9218    1.8464 O   0  0  0  0  0  0  0  0  0  0  0  0
   -2.1391   -1.3130    0.4568 N   0  0  0  0  0  0  0  0  0  0  0  0
   -2.9496   -0.9457   -0.0363 H   0  0  0  0  0  0  0  0  0  0  0  0
   -0.8696   -0.5836    0.3117 C   0  0  1  0  0  0  0  0  0  0  0  0
   -0.2100   -0.8609    1.1400 H   0  0  0  0  0  0  0  0  0  0  0  0
   -0.1269   -0.9523   -0.9973 C   0  0  0  0  0  0  0  0  0  0  0  0
    0.5177   -0.1175   -1.2906 H   0  0  0  0  0  0  0  0  0  0  0  0
    0.5317   -1.7922   -0.7527 H   0  0  0  0  0  0  0  0  0  0  0  0
   -0.9536   -1.3619   -2.2088 C   0  0  0  0  0  0  0  0  0  0  0  0
   -0.3917   -2.2689   -3.1231 C   0  0  0  0  0  0  0  0  0  0  0  0
    0.5846   -2.7019   -2.9270 H   0  0  0  0  0  0  0  0  0  0  0  0
   -1.0752   -2.6413   -4.2854 C   0  0  0  0  0  0  0  0  0  0  0  0
   -0.6308   -3.3576   -4.9699 H   0  0  0  0  0  0  0  0  0  0  0  0
   -2.3254   -2.0874   -4.5684 C   0  0  0  0  0  0  0  0  0  0  0  0
   -2.8566   -2.3730   -5.4716 H   0  0  0  0  0  0  0  0  0  0  0  0
   -2.8805   -1.1499   -3.6950 C   0  0  0  0  0  0  0  0  0  0  0  0
   -3.8405   -0.6962   -3.9229 H   0  0  0  0  0  0  0  0  0  0  0  0
   -2.1938   -0.7800   -2.5338 C   0  0  0  0  0  0  0  0  0  0  0  0
   -2.6384   -0.0215   -1.9006 H   0  0  0  0  0  0  0  0  0  0  0  0
   -1.0718    0.9402    0.4483 C   0  0  0  0  0  0  0  0  0  0  0  0
   -2.0490    1.4918   -0.0441 O   0  0  0  0  0  0  0  0  0  0  0  0
   -0.2030    1.6870    1.2236 N   0  0  0  0  0  0  0  0  0  0  0  0
    0.5519    1.1945    1.6923 H   0  0  0  0  0  0  0  0  0  0  0  0
   -0.3735    3.1135    1.4717 C   0  0  0  0  0  0  0  0  0  0  0  0
   -1.3199    3.3028    1.9892 H   0  0  0  0  0  0  0  0  0  0  0  0
    0.4433    3.4893    2.0956 H   0  0  0  0  0  0  0  0  0  0  0  0
   -0.3704    3.6692    0.5280 H   0  0  0  0  0  0  0  0  0  0  0  0
  1  2  1  0  0  0  0
  2  3  1  0  0  0  0
  2  4  1  0  0  0  0
  2  5  1  0  0  0  0
  5  6  2  0  0  0  0
  5  7  1  0  0  0  0
  7  8  1  0  0  0  0
  7  9  1  0  0  0  0
  9 10  1  0  0  0  0
  9 11  1  0  0  0  0
  9 25  1  0  0  0  0
 11 12  1  0  0  0  0
 11 13  1  0  0  0  0
 11 14  1  0  0  0  0
 14 15  1  0  0  0  0
 14 23  2  0  0  0  0
 15 16  1  0  0  0  0
 15 17  2  0  0  0  0
 17 18  1  0  0  0  0
 17 19  1  0  0  0  0
 19 20  1  0  0  0  0
 19 21  2  0  0  0  0
 21 22  1  0  0  0  0
 21 23  1  0  0  0  0
 23 24  1  0  0  0  0
 25 26  2  0  0  0  0
 25 27  1  0  0  0  0
 27 28  1  0  0  0  0
 27 29  1  0  0  0  0
 29 30  1  0  0  0  0
 29 31  1  0  0  0  0
 29 32  1  0  0  0  0
M  END
$$$$

  -OEChem-04042216033D

 32 32  0     1  0  0  0  0  0999 V2000
   -3.6602   -3.9932    1.7850 H   0  0  0  0  0  0  0  0  0  0  0  0
   -3.6752   -3.1129    1.1365 C   0  0  0  0  0  0  0  0  0  0  0  0
   -4.4452   -2.4250    1.4938 H   0  0  0  0  0  0  0  0  0  0  0  0
   -3.9211   -3.4280    0.1195 H   0  0  0  0  0  0  0  0  0  0  0  0
   -2.3215   -2.4280    1.1505 C   0  0  0  0  0  0  0  0  0  0  0  0
   -1.4071   -2.8933    1.8140 O   0  0  0  0  0  0  0  0  0  0  0  0
   -2.1299   -1.2834    0.4067 N   0  0  0  0  0  0  0  0  0  0  0  0
   -2.9160   -0.9395   -0.1407 H   0  0  0  0  0  0  0  0  0  0  0  0
   -0.8586   -0.5515    0.2949 C   0  0  1  0  0  0  0  0  0  0  0  0
   -0.2191   -0.8352    1.1368 H   0  0  0  0  0  0  0  0  0  0  0  0
   -0.0931   -0.9352   -0.9949 C   0  0  0  0  0  0  0  0  0  0  0  0
    0.5514   -0.1027   -1.2950 H   0  0  0  0  0  0  0  0  0  0  0  0
    0.5670   -1.7697   -0.7368 H   0  0  0  0  0  0  0  0  0  0  0  0
   -0.9346   -1.3494   -2.1929 C   0  0  0  0  0  0  0  0  0  0  0  0
   -0.5617   -2.4855   -2.9307 C   0  0  0  0  0  0  0  0  0  0  0  0
    0.2911   -3.0818   -2.6202 H   0  0  0  0  0  0  0  0  0  0  0  0
   -1.2833   -2.8772   -4.0636 C   0  0  0  0  0  0  0  0  0  0  0  0
   -0.9890   -3.7663   -4.6136 H   0  0  0  0  0  0  0  0  0  0  0  0
   -2.3787   -2.1226   -4.4900 C   0  0  0  0  0  0  0  0  0  0  0  0
   -2.9392   -2.4238   -5.3703 H   0  0  0  0  0  0  0  0  0  0  0  0
   -2.7414   -0.9706   -3.7887 C   0  0  0  0  0  0  0  0  0  0  0  0
   -3.5794   -0.3685   -4.1272 H   0  0  0  0  0  0  0  0  0  0  0  0
   -2.0183   -0.5819   -2.6563 C   0  0  0  0  0  0  0  0  0  0  0  0
   -2.3083    0.3324   -2.1527 H   0  0  0  0  0  0  0  0  0  0  0  0
   -1.0535    0.9729    0.4391 C   0  0  0  0  0  0  0  0  0  0  0  0
   -2.0242    1.5349   -0.0542 O   0  0  0  0  0  0  0  0  0  0  0  0
   -0.1949    1.7067    1.2381 N   0  0  0  0  0  0  0  0  0  0  0  0
    0.5426    1.2030    1.7224 H   0  0  0  0  0  0  0  0  0  0  0  0
   -0.3727    3.1277    1.5118 C   0  0  0  0  0  0  0  0  0  0  0  0
   -1.3172    3.3012    2.0378 H   0  0  0  0  0  0  0  0  0  0  0  0
    0.4456    3.4971    2.1371 H   0  0  0  0  0  0  0  0  0  0  0  0
   -0.3784    3.7002    0.5783 H   0  0  0  0  0  0  0  0  0  0  0  0
  1  2  1  0  0  0  0
  2  3  1  0  0  0  0
  2  4  1  0  0  0  0
  2  5  1  0  0  0  0
  5  6  2  0  0  0  0
  5  7  1  0  0  0  0
  7  8  1  0  0  0  0
  7  9  1  0  0  0  0
  9 10  1  0  0  0  0
  9 11  1  0  0  0  0
  9 25  1  0  0  0  0
 11 12  1  0  0  0  0
 11 13  1  0  0  0  0
 11 14  1  0  0  0  0
 14 15  1  0  0  0  0
 14 23  2  0  0  0  0
 15 16  1  0  0  0  0
 15 17  2  0  0  0  0
 17 18  1  0  0  0  0
 17 19  1  0  0  0  0
 19 20  1  0  0  0  0
 19 21  2  0  0  0  0
 21 22  1  0  0  0  0
 21 23  1  0  0  0  0
 23 24  1  0  0  0  0
 25 26  2  0  0  0  0
 25 27  1  0  0  0  0
 27 28  1  0  0  0  0
 27 29  1  0  0  0  0
 29 30  1  0  0  0  0
 29 31  1  0  0  0  0
 29 32  1  0  0  0  0
M  END
$$$$

  -OEChem-04042216033D

 32 32  0     1  0  0  0  0  0999 V2000
   -3.6677   -4.0051    1.7093 H   0  0  0  0  0  0  0  0  0  0  0  0
   -3.6703   -3.1226    1.0635 C   0  0  0  0  0  0  0  0  0  0  0  0
   -4.4588   -2.4437    1.3971 H   0  0  0  0  0  0  0  0  0  0  0  0
   -3.8789   -3.4373    0.0380 H   0  0  0  0  0  0  0  0  0  0  0  0
   -2.3249   -2.4245    1.1257 C   0  0  0  0  0  0  0  0  0  0  0  0
   -1.4310   -2.8816    1.8220 O   0  0  0  0  0  0  0  0  0  0  0  0
   -2.1110   -1.2862    0.3785 N   0  0  0  0  0  0  0  0  0  0  0  0
   -2.8743   -0.9552   -0.2084 H   0  0  0  0  0  0  0  0  0  0  0  0
   -0.8356   -0.5573    0.2969 C   0  0  1  0  0  0  0  0  0  0  0  0
   -0.2114   -0.8373    1.1512 H   0  0  0  0  0  0  0  0  0  0  0  0
   -0.0544   -0.9424   -0.9818 C   0  0  0  0  0  0  0  0  0  0  0  0
    0.5972   -0.1141   -1.2780 H   0  0  0  0  0  0  0  0  0  0  0  0
    0.5989   -1.7827   -0.7268 H   0  0  0  0  0  0  0  0  0  0  0  0
   -0.9113   -1.3412   -2.1705 C   0  0  0  0  0  0  0  0  0  0  0  0
   -0.7789   -2.6234   -2.7280 C   0  0  0  0  0  0  0  0  0  0  0  0
   -0.0930   -3.3411   -2.2878 H   0  0  0  0  0  0  0  0  0  0  0  0
   -1.5336   -3.0005   -3.8439 C   0  0  0  0  0  0  0  0  0  0  0  0
   -1.4274   -3.9990   -4.2573 H   0  0  0  0  0  0  0  0  0  0  0  0
   -2.4196   -2.0916   -4.4282 C   0  0  0  0  0  0  0  0  0  0  0  0
   -3.0044   -2.3817   -5.2962 H   0  0  0  0  0  0  0  0  0  0  0  0
   -2.5426   -0.8041   -3.8995 C   0  0  0  0  0  0  0  0  0  0  0  0
   -3.2192   -0.0888   -4.3581 H   0  0  0  0  0  0  0  0  0  0  0  0
   -1.7867   -0.4297   -2.7838 C   0  0  0  0  0  0  0  0  0  0  0  0
   -1.8825    0.5832   -2.4075 H   0  0  0  0  0  0  0  0  0  0  0  0
   -1.0410    0.9666    0.4242 C   0  0  0  0  0  0  0  0  0  0  0  0
   -1.9893    1.5210   -0.1186 O   0  0  0  0  0  0  0  0  0  0  0  0
   -0.2106    1.7126    1.2415 N   0  0  0  0  0  0  0  0  0  0  0  0
    0.5131    1.2174    1.7546 H   0  0  0  0  0  0  0  0  0  0  0  0
   -0.3979    3.1376    1.4871 C   0  0  0  0  0  0  0  0  0  0  0  0
   -1.3621    3.3196    1.9732 H   0  0  0  0  0  0  0  0  0  0  0  0
    0.3953    3.5165    2.1385 H   0  0  0  0  0  0  0  0  0  0  0  0
   -0.3668    3.6961    0.5456 H   0  0  0  0  0  0  0  0  0  0  0  0
  1  2  1  0  0  0  0
  2  3  1  0  0  0  0
  2  4  1  0  0  0  0
  2  5  1  0  0  0  0
  5  6  2  0  0  0  0
  5  7  1  0  0  0  0
  7  8  1  0  0  0  0
  7  9  1  0  0  0  0
  9 10  1  0  0  0  0
  9 11  1  0  0  0  0
  9 25  1  0  0  0  0
 11 12  1  0  0  0  0
 11 13  1  0  0  0  0
 11 14  1  0  0  0  0
 14 15  1  0  0  0  0
 14 23  2  0  0  0  0
 15 16  1  0  0  0  0
 15 17  2  0  0  0  0
 17 18  1  0  0  0  0
 17 19  1  0  0  0  0
 19 20  1  0  0  0  0
 19 21  2  0  0  0  0
 21 22  1  0  0  0  0
 21 23  1  0  0  0  0
 23 24  1  0  0  0  0
 25 26  2  0  0  0  0
 25 27  1  0  0  0  0
 27 28  1  0  0  0  0
 27 29  1  0  0  0  0
 29 30  1  0  0  0  0
 29 31  1  0  0  0  0
 29 32  1  0  0  0  0
M  END
$$$$

  -OEChem-04042216033D

 32 32  0     1  0  0  0  0  0999 V2000
   -3.6953   -4.0052    1.6624 H   0  0  0  0  0  0  0  0  0  0  0  0
   -3.6765   -3.1242    1.0147 C   0  0  0  0  0  0  0  0  0  0  0  0
   -4.4691   -2.4397    1.3260 H   0  0  0  0  0  0  0  0  0  0  0  0
   -3.8607   -3.4389   -0.0154 H   0  0  0  0  0  0  0  0  0  0  0  0
   -2.3295   -2.4331    1.1091 C   0  0  0  0  0  0  0  0  0  0  0  0
   -1.4566   -2.8887    1.8324 O   0  0  0  0  0  0  0  0  0  0  0  0
   -2.0885   -1.3058    0.3544 N   0  0  0  0  0  0  0  0  0  0  0  0
   -2.8314   -0.9802   -0.2617 H   0  0  0  0  0  0  0  0  0  0  0  0
   -0.8099   -0.5803    0.3025 C   0  0  1  0  0  0  0  0  0  0  0  0
   -0.2013   -0.8538    1.1702 H   0  0  0  0  0  0  0  0  0  0  0  0
   -0.0086   -0.9540   -0.9662 C   0  0  0  0  0  0  0  0  0  0  0  0
    0.6522   -0.1271   -1.2460 H   0  0  0  0  0  0  0  0  0  0  0  0
    0.6359   -1.8035   -0.7186 H   0  0  0  0  0  0  0  0  0  0  0  0
   -0.8685   -1.3320   -2.1557 C   0  0  0  0  0  0  0  0  0  0  0  0
   -0.9943   -2.6763   -2.5409 C   0  0  0  0  0  0  0  0  0  0  0  0
   -0.4812   -3.4531   -1.9815 H   0  0  0  0  0  0  0  0  0  0  0  0
   -1.7864   -3.0313   -3.6385 C   0  0  0  0  0  0  0  0  0  0  0  0
   -1.8799   -4.0746   -3.9253 H   0  0  0  0  0  0  0  0  0  0  0  0
   -2.4561   -2.0431   -4.3662 C   0  0  0  0  0  0  0  0  0  0  0  0
   -3.0705   -2.3162   -5.2190 H   0  0  0  0  0  0  0  0  0  0  0  0
   -2.3306   -0.7010   -3.9960 C   0  0  0  0  0  0  0  0  0  0  0  0
   -2.8467    0.0714   -4.5587 H   0  0  0  0  0  0  0  0  0  0  0  0
   -1.5383   -0.3482   -2.8987 C   0  0  0  0  0  0  0  0  0  0  0  0
   -1.4491    0.6992   -2.6246 H   0  0  0  0  0  0  0  0  0  0  0  0
   -1.0312    0.9429    0.4035 C   0  0  0  0  0  0  0  0  0  0  0  0
   -1.9401    1.4868   -0.2131 O   0  0  0  0  0  0  0  0  0  0  0  0
   -0.2348    1.7080    1.2366 N   0  0  0  0  0  0  0  0  0  0  0  0
    0.4600    1.2243    1.7986 H   0  0  0  0  0  0  0  0  0  0  0  0
   -0.4207    3.1414    1.4275 C   0  0  0  0  0  0  0  0  0  0  0  0
   -1.4134    3.3479    1.8412 H   0  0  0  0  0  0  0  0  0  0  0  0
    0.3309    3.5312    2.1206 H   0  0  0  0  0  0  0  0  0  0  0  0
   -0.3187    3.6711    0.4745 H   0  0  0  0  0  0  0  0  0  0  0  0
  1  2  1  0  0  0  0
  2  3  1  0  0  0  0
  2  4  1  0  0  0  0
  2  5  1  0  0  0  0
  5  6  2  0  0  0  0
  5  7  1  0  0  0  0
  7  8  1  0  0  0  0
  7  9  1  0  0  0  0
  9 10  1  0  0  0  0
  9 11  1  0  0  0  0
  9 25  1  0  0  0  0
 11 12  1  0  0  0  0
 11 13  1  0  0  0  0
 11 14  1  0  0  0  0
 14 15  1  0  0  0  0
 14 23  2  0  0  0  0
 15 16  1  0  0  0  0
 15 17  2  0  0  0  0
 17 18  1  0  0  0  0
 17 19  1  0  0  0  0
 19 20  1  0  0  0  0
 19 21  2  0  0  0  0
 21 22  1  0  0  0  0
 21 23  1  0  0  0  0
 23 24  1  0  0  0  0
 25 26  2  0  0  0  0
 25 27  1  0  0  0  0
 27 28  1  0  0  0  0
 27 29  1  0  0  0  0
 29 30  1  0  0  0  0
 29 31  1  0  0  0  0
 29 32  1  0  0  0  0
M  END
$$$$

  -OEChem-04042216033D

 32 32  0     1  0  0  0  0  0999 V2000
   -3.7160   -4.0051    1.6672 H   0  0  0  0  0  0  0  0  0  0  0  0
   -3.6892   -3.1245    1.0194 C   0  0  0  0  0  0  0  0  0  0  0  0
   -4.4801   -2.4360    1.3263 H   0  0  0  0  0  0  0  0  0  0  0  0
   -3.8701   -3.4394   -0.0114 H   0  0  0  0  0  0  0  0  0  0  0  0
   -2.3388   -2.4407    1.1220 C   0  0  0  0  0  0  0  0  0  0  0  0
   -1.4783   -2.8927    1.8619 O   0  0  0  0  0  0  0  0  0  0  0  0
   -2.0778   -1.3269    0.3542 N   0  0  0  0  0  0  0  0  0  0  0  0
   -2.8098   -1.0031   -0.2761 H   0  0  0  0  0  0  0  0  0  0  0  0
   -0.7954   -0.6076    0.3116 C   0  0  1  0  0  0  0  0  0  0  0  0
   -0.1930   -0.8738    1.1859 H   0  0  0  0  0  0  0  0  0  0  0  0
    0.0169   -0.9672   -0.9543 C   0  0  0  0  0  0  0  0  0  0  0  0
    0.6883   -0.1424   -1.2158 H   0  0  0  0  0  0  0  0  0  0  0  0
    0.6519   -1.8265   -0.7158 H   0  0  0  0  0  0  0  0  0  0  0  0
   -0.8356   -1.3293   -2.1529 C   0  0  0  0  0  0  0  0  0  0  0  0
   -1.2211   -2.6603   -2.3800 C   0  0  0  0  0  0  0  0  0  0  0  0
   -0.8914   -3.4421   -1.7018 H   0  0  0  0  0  0  0  0  0  0  0  0
   -2.0301   -2.9896   -3.4730 C   0  0  0  0  0  0  0  0  0  0  0  0
   -2.3194   -4.0224   -3.6427 H   0  0  0  0  0  0  0  0  0  0  0  0
   -2.4656   -1.9886   -4.3466 C   0  0  0  0  0  0  0  0  0  0  0  0
   -3.0937   -2.2414   -5.1957 H   0  0  0  0  0  0  0  0  0  0  0  0
   -2.0948   -0.6592   -4.1230 C   0  0  0  0  0  0  0  0  0  0  0  0
   -2.4380    0.1231   -4.7935 H   0  0  0  0  0  0  0  0  0  0  0  0
   -1.2851   -0.3321   -3.0303 C   0  0  0  0  0  0  0  0  0  0  0  0
   -1.0176    0.7065   -2.8554 H   0  0  0  0  0  0  0  0  0  0  0  0
   -1.0252    0.9156    0.3848 C   0  0  0  0  0  0  0  0  0  0  0  0
   -1.9040    1.4476   -0.2836 O   0  0  0  0  0  0  0  0  0  0  0  0
   -0.2478    1.6988    1.2188 N   0  0  0  0  0  0  0  0  0  0  0  0
    0.4306    1.2271    1.8101 H   0  0  0  0  0  0  0  0  0  0  0  0
   -0.4339    3.1372    1.3677 C   0  0  0  0  0  0  0  0  0  0  0  0
   -1.4542    3.3602    1.6973 H   0  0  0  0  0  0  0  0  0  0  0  0
    0.2635    3.5341    2.1115 H   0  0  0  0  0  0  0  0  0  0  0  0
   -0.2517    3.6472    0.4160 H   0  0  0  0  0  0  0  0  0  0  0  0
  1  2  1  0  0  0  0
  2  3  1  0  0  0  0
  2  4  1  0  0  0  0
  2  5  1  0  0  0  0
  5  6  2  0  0  0  0
  5  7  1  0  0  0  0
  7  8  1  0  0  0  0
  7  9  1  0  0  0  0
  9 10  1  0  0  0  0
  9 11  1  0  0  0  0
  9 25  1  0  0  0  0
 11 12  1  0  0  0  0
 11 13  1  0  0  0  0
 11 14  1  0  0  0  0
 14 15  1  0  0  0  0
 14 23  2  0  0  0  0
 15 16  1  0  0  0  0
 15 17  2  0  0  0  0
 17 18  1  0  0  0  0
 17 19  1  0  0  0  0
 19 20  1  0  0  0  0
 19 21  2  0  0  0  0
 21 22  1  0  0  0  0
 21 23  1  0  0  0  0
 23 24  1  0  0  0  0
 25 26  2  0  0  0  0
 25 27  1  0  0  0  0
 27 28  1  0  0  0  0
 27 29  1  0  0  0  0
 29 30  1  0  0  0  0
 29 31  1  0  0  0  0
 29 32  1  0  0  0  0
M  END
$$$$

  -OEChem-04042216033D

 32 32  0     1  0  0  0  0  0999 V2000
   -3.7493   -3.9685    1.7852 H   0  0  0  0  0  0  0  0  0  0  0  0
   -3.7197   -3.0987    1.1230 C   0  0  0  0  0  0  0  0  0  0  0  0
   -4.4801   -2.3834    1.4459 H   0  0  0  0  0  0  0  0  0  0  0  0
   -3.9442   -3.4226    0.1038 H   0  0  0  0  0  0  0  0  0  0  0  0
   -2.3483   -2.4517    1.1686 C   0  0  0  0  0  0  0  0  0  0  0  0
   -1.4720   -2.9206    1.8786 O   0  0  0  0  0  0  0  0  0  0  0  0
   -2.0902   -1.3476    0.3860 N   0  0  0  0  0  0  0  0  0  0  0  0
   -2.8426   -0.9975   -0.2054 H   0  0  0  0  0  0  0  0  0  0  0  0
   -0.8057   -0.6361    0.3170 C   0  0  1  0  0  0  0  0  0  0  0  0
   -0.1955   -0.8955    1.1879 H   0  0  0  0  0  0  0  0  0  0  0  0
    0.0088   -0.9763   -0.9553 C   0  0  0  0  0  0  0  0  0  0  0  0
    0.6857   -0.1494   -1.1951 H   0  0  0  0  0  0  0  0  0  0  0  0
    0.6406   -1.8395   -0.7227 H   0  0  0  0  0  0  0  0  0  0  0  0
   -0.8142   -1.3363   -2.1764 C   0  0  0  0  0  0  0  0  0  0  0  0
   -1.4431   -2.5878   -2.2870 C   0  0  0  0  0  0  0  0  0  0  0  0
   -1.3029   -3.3326   -1.5091 H   0  0  0  0  0  0  0  0  0  0  0  0
   -2.2367   -2.8925   -3.3979 C   0  0  0  0  0  0  0  0  0  0  0  0
   -2.7073   -3.8679   -3.4783 H   0  0  0  0  0  0  0  0  0  0  0  0
   -2.4225   -1.9412   -4.4050 C   0  0  0  0  0  0  0  0  0  0  0  0
   -3.0411   -2.1738   -5.2668 H   0  0  0  0  0  0  0  0  0  0  0  0
   -1.8150   -0.6869   -4.2980 C   0  0  0  0  0  0  0  0  0  0  0  0
   -1.9666    0.0590   -5.0726 H   0  0  0  0  0  0  0  0  0  0  0  0
   -1.0181   -0.3864   -3.1880 C   0  0  0  0  0  0  0  0  0  0  0  0
   -0.5702    0.5997   -3.1065 H   0  0  0  0  0  0  0  0  0  0  0  0
   -1.0429    0.8862    0.3788 C   0  0  0  0  0  0  0  0  0  0  0  0
   -1.9382    1.4055   -0.2776 O   0  0  0  0  0  0  0  0  0  0  0  0
   -0.2571    1.6808    1.1943 N   0  0  0  0  0  0  0  0  0  0  0  0
    0.4393    1.2195    1.7726 H   0  0  0  0  0  0  0  0  0  0  0  0
   -0.4461    3.1199    1.3319 C   0  0  0  0  0  0  0  0  0  0  0  0
   -1.4548    3.3418    1.6960 H   0  0  0  0  0  0  0  0  0  0  0  0
    0.2761    3.5303    2.0443 H   0  0  0  0  0  0  0  0  0  0  0  0
   -0.3014    3.6182    0.3676 H   0  0  0  0  0  0  0  0  0  0  0  0
  1  2  1  0  0  0  0
  2  3  1  0  0  0  0
  2  4  1  0  0  0  0
  2  5  1  0  0  0  0
  5  6  2  0  0  0  0
  5  7  1  0  0  0  0
  7  8  1  0  0  0  0
  7  9  1  0  0  0  0
  9 10  1  0  0  0  0
  9 11  1  0  0  0  0
  9 25  1  0  0  0  0
 11 12  1  0  0  0  0
 11 13  1  0  0  0  0
 11 14  1  0  0  0  0
 14 15  1  0  0  0  0
 14 23  2  0  0  0  0
 15 16  1  0  0  0  0
 15 17  2  0  0  0  0
 17 18  1  0  0  0  0
 17 19  1  0  0  0  0
 19 20  1  0  0  0  0
 19 21  2  0  0  0  0
 21 22  1  0  0  0  0
 21 23  1  0  0  0  0
 23 24  1  0  0  0  0
 25 26  2  0  0  0  0
 25 27  1  0  0  0  0
 27 28  1  0  0  0  0
 27 29  1  0  0  0  0
 29 30  1  0  0  0  0
 29 31  1  0  0  0  0
 29 32  1  0  0  0  0
M  END
$$$$

  -OEChem-04042216033D

 32 32  0     1  0  0  0  0  0999 V2000
   -3.7533   -3.9109    1.9961 H   0  0  0  0  0  0  0  0  0  0  0  0
   -3.7429   -3.0527    1.3186 C   0  0  0  0  0  0  0  0  0  0  0  0
   -4.4489   -2.3045    1.6871 H   0  0  0  0  0  0  0  0  0  0  0  0
   -4.0577   -3.3825    0.3258 H   0  0  0  0  0  0  0  0  0  0  0  0
   -2.3493   -2.4580    1.2486 C   0  0  0  0  0  0  0  0  0  0  0  0
   -1.4390   -2.9523    1.8953 O   0  0  0  0  0  0  0  0  0  0  0  0
   -2.1134   -1.3647    0.4433 N   0  0  0  0  0  0  0  0  0  0  0  0
   -2.9024   -0.9681   -0.0658 H   0  0  0  0  0  0  0  0  0  0  0  0
   -0.8260   -0.6673    0.3181 C   0  0  1  0  0  0  0  0  0  0  0  0
   -0.1926   -0.9179    1.1751 H   0  0  0  0  0  0  0  0  0  0  0  0
   -0.0268   -0.9929   -0.9717 C   0  0  0  0  0  0  0  0  0  0  0  0
    0.6547   -0.1647   -1.1925 H   0  0  0  0  0  0  0  0  0  0  0  0
    0.6037   -1.8587   -0.7450 H   0  0  0  0  0  0  0  0  0  0  0  0
   -0.8154   -1.3552   -2.2200 C   0  0  0  0  0  0  0  0  0  0  0  0
   -1.6789   -2.4636   -2.2743 C   0  0  0  0  0  0  0  0  0  0  0  0
   -1.7440   -3.1437   -1.4317 H   0  0  0  0  0  0  0  0  0  0  0  0
   -2.4321   -2.7335   -3.4218 C   0  0  0  0  0  0  0  0  0  0  0  0
   -3.0838   -3.6013   -3.4520 H   0  0  0  0  0  0  0  0  0  0  0  0
   -2.3417   -1.8896   -4.5314 C   0  0  0  0  0  0  0  0  0  0  0  0
   -2.9262   -2.0958   -5.4232 H   0  0  0  0  0  0  0  0  0  0  0  0
   -1.4975   -0.7774   -4.4896 C   0  0  0  0  0  0  0  0  0  0  0  0
   -1.4308   -0.1134   -5.3463 H   0  0  0  0  0  0  0  0  0  0  0  0
   -0.7442   -0.5122   -3.3410 C   0  0  0  0  0  0  0  0  0  0  0  0
   -0.1103    0.3689   -3.3209 H   0  0  0  0  0  0  0  0  0  0  0  0
   -1.0690    0.8545    0.3751 C   0  0  0  0  0  0  0  0  0  0  0  0
   -2.0115    1.3580   -0.2253 O   0  0  0  0  0  0  0  0  0  0  0  0
   -0.2573    1.6604    1.1530 N   0  0  0  0  0  0  0  0  0  0  0  0
    0.4693    1.2082    1.7006 H   0  0  0  0  0  0  0  0  0  0  0  0
   -0.4716    3.0935    1.3126 C   0  0  0  0  0  0  0  0  0  0  0  0
   -1.4535    3.2869    1.7570 H   0  0  0  0  0  0  0  0  0  0  0  0
    0.2947    3.5202    1.9669 H   0  0  0  0  0  0  0  0  0  0  0  0
   -0.4178    3.5990    0.3428 H   0  0  0  0  0  0  0  0  0  0  0  0
  1  2  1  0  0  0  0
  2  3  1  0  0  0  0
  2  4  1  0  0  0  0
  2  5  1  0  0  0  0
  5  6  2  0  0  0  0
  5  7  1  0  0  0  0
  7  8  1  0  0  0  0
  7  9  1  0  0  0  0
  9 10  1  0  0  0  0
  9 11  1  0  0  0  0
  9 25  1  0  0  0  0
 11 12  1  0  0  0  0
 11 13  1  0  0  0  0
 11 14  1  0  0  0  0
 14 15  1  0  0  0  0
 14 23  2  0  0  0  0
 15 16  1  0  0  0  0
 15 17  2  0  0  0  0
 17 18  1  0  0  0  0
 17 19  1  0  0  0  0
 19 20  1  0  0  0  0
 19 21  2  0  0  0  0
 21 22  1  0  0  0  0
 21 23  1  0  0  0  0
 23 24  1  0  0  0  0
 25 26  2  0  0  0  0
 25 27  1  0  0  0  0
 27 28  1  0  0  0  0
 27 29  1  0  0  0  0
 29 30  1  0  0  0  0
 29 31  1  0  0  0  0
 29 32  1  0  0  0  0
M  END
$$$$

  -OEChem-04042216033D

 32 32  0     1  0  0  0  0  0999 V2000
   -3.7197   -3.8746    2.2001 H   0  0  0  0  0  0  0  0  0  0  0  0
   -3.7380   -3.0272    1.5090 C   0  0  0  0  0  0  0  0  0  0  0  0
   -4.4039   -2.2595    1.9107 H   0  0  0  0  0  0  0  0  0  0  0  0
   -4.1245   -3.3667    0.5450 H   0  0  0  0  0  0  0  0  0  0  0  0
   -2.3407   -2.4619    1.3370 C   0  0  0  0  0  0  0  0  0  0  0  0
   -1.3982   -2.9729    1.9214 O   0  0  0  0  0  0  0  0  0  0  0  0
   -2.1405   -1.3721    0.5161 N   0  0  0  0  0  0  0  0  0  0  0  0
   -2.9590   -0.9385    0.0899 H   0  0  0  0  0  0  0  0  0  0  0  0
   -0.8561   -0.6866    0.3250 C   0  0  1  0  0  0  0  0  0  0  0  0
   -0.1899   -0.9341    1.1577 H   0  0  0  0  0  0  0  0  0  0  0  0
   -0.0920   -1.0016   -0.9924 C   0  0  0  0  0  0  0  0  0  0  0  0
    0.5852   -0.1681   -1.2057 H   0  0  0  0  0  0  0  0  0  0  0  0
    0.5444   -1.8659   -0.7776 H   0  0  0  0  0  0  0  0  0  0  0  0
   -0.8573   -1.3663   -2.2614 C   0  0  0  0  0  0  0  0  0  0  0  0
   -1.9296   -2.2776   -2.3103 C   0  0  0  0  0  0  0  0  0  0  0  0
   -2.2153   -2.8513   -1.4385 H   0  0  0  0  0  0  0  0  0  0  0  0
   -2.6217   -2.5179   -3.5022 C   0  0  0  0  0  0  0  0  0  0  0  0
   -3.4382   -3.2333   -3.5206 H   0  0  0  0  0  0  0  0  0  0  0  0
   -2.2586   -1.8470   -4.6710 C   0  0  0  0  0  0  0  0  0  0  0  0
   -2.7970   -2.0315   -5.5960 H   0  0  0  0  0  0  0  0  0  0  0  0
   -1.1977   -0.9408   -4.6456 C   0  0  0  0  0  0  0  0  0  0  0  0
   -0.9112   -0.4145   -5.5510 H   0  0  0  0  0  0  0  0  0  0  0  0
   -0.5078   -0.7043   -3.4522 C   0  0  0  0  0  0  0  0  0  0  0  0
    0.3048    0.0155   -3.4586 H   0  0  0  0  0  0  0  0  0  0  0  0
   -1.1007    0.8349    0.3926 C   0  0  0  0  0  0  0  0  0  0  0  0
   -2.0849    1.3307   -0.1444 O   0  0  0  0  0  0  0  0  0  0  0  0
   -0.2545    1.6453    1.1279 N   0  0  0  0  0  0  0  0  0  0  0  0
    0.5083    1.1989    1.6291 H   0  0  0  0  0  0  0  0  0  0  0  0
   -0.4692    3.0770    1.3013 C   0  0  0  0  0  0  0  0  0  0  0  0
   -1.4275    3.2636    1.7973 H   0  0  0  0  0  0  0  0  0  0  0  0
    0.3278    3.5072    1.9154 H   0  0  0  0  0  0  0  0  0  0  0  0
   -0.4693    3.5847    0.3310 H   0  0  0  0  0  0  0  0  0  0  0  0
  1  2  1  0  0  0  0
  2  3  1  0  0  0  0
  2  4  1  0  0  0  0
  2  5  1  0  0  0  0
  5  6  2  0  0  0  0
  5  7  1  0  0  0  0
  7  8  1  0  0  0  0
  7  9  1  0  0  0  0
  9 10  1  0  0  0  0
  9 11  1  0  0  0  0
  9 25  1  0  0  0  0
 11 12  1  0  0  0  0
 11 13  1  0  0  0  0
 11 14  1  0  0  0  0
 14 15  1  0  0  0  0
 14 23  2  0  0  0  0
 15 16  1  0  0  0  0
 15 17  2  0  0  0  0
 17 18  1  0  0  0  0
 17 19  1  0  0  0  0
 19 20  1  0  0  0  0
 19 21  2  0  0  0  0
 21 22  1  0  0  0  0
 21 23  1  0  0  0  0
 23 24  1  0  0  0  0
 25 26  2  0  0  0  0
 25 27  1  0  0  0  0
 27 28  1  0  0  0  0
 27 29  1  0  0  0  0
 29 30  1  0  0  0  0
 29 31  1  0  0  0  0
 29 32  1  0  0  0  0
M  END
$$$$

  -OEChem-04042216033D

 32 32  0     1  0  0  0  0  0999 V2000
   -3.6735   -3.8377    2.3570 H   0  0  0  0  0  0  0  0  0  0  0  0
   -3.7150   -3.0091    1.6447 C   0  0  0  0  0  0  0  0  0  0  0  0
   -4.3523   -2.2224    2.0560 H   0  0  0  0  0  0  0  0  0  0  0  0
   -4.1507   -3.3691    0.7095 H   0  0  0  0  0  0  0  0  0  0  0  0
   -2.3213   -2.4666    1.3905 C   0  0  0  0  0  0  0  0  0  0  0  0
   -1.3525   -2.9989    1.9093 O   0  0  0  0  0  0  0  0  0  0  0  0
   -2.1568   -1.3692    0.5722 N   0  0  0  0  0  0  0  0  0  0  0  0
   -2.9957   -0.8980    0.2351 H   0  0  0  0  0  0  0  0  0  0  0  0
   -0.8805   -0.6902    0.3253 C   0  0  1  0  0  0  0  0  0  0  0  0
   -0.1814   -0.9459    1.1282 H   0  0  0  0  0  0  0  0  0  0  0  0
   -0.1655   -0.9950   -1.0227 C   0  0  0  0  0  0  0  0  0  0  0  0
    0.5013   -0.1538   -1.2406 H   0  0  0  0  0  0  0  0  0  0  0  0
    0.4803   -1.8568   -0.8273 H   0  0  0  0  0  0  0  0  0  0  0  0
   -0.9265   -1.3542   -2.3008 C   0  0  0  0  0  0  0  0  0  0  0  0
   -2.1657   -2.0241   -2.3747 C   0  0  0  0  0  0  0  0  0  0  0  0
   -2.6677   -2.4103   -1.5006 H   0  0  0  0  0  0  0  0  0  0  0  0
   -2.7866   -2.2668   -3.6055 C   0  0  0  0  0  0  0  0  0  0  0  0
   -3.7379   -2.7893   -3.6379 H   0  0  0  0  0  0  0  0  0  0  0  0
   -2.1856   -1.8462   -4.7922 C   0  0  0  0  0  0  0  0  0  0  0  0
   -2.6688   -2.0338   -5.7466 H   0  0  0  0  0  0  0  0  0  0  0  0
   -0.9576   -1.1871   -4.7454 C   0  0  0  0  0  0  0  0  0  0  0  0
   -0.4827   -0.8574   -5.6646 H   0  0  0  0  0  0  0  0  0  0  0  0
   -0.3399   -0.9471   -3.5140 C   0  0  0  0  0  0  0  0  0  0  0  0
    0.6127   -0.4263   -3.5093 H   0  0  0  0  0  0  0  0  0  0  0  0
   -1.1180    0.8308    0.4220 C   0  0  0  0  0  0  0  0  0  0  0  0
   -2.1371    1.3289   -0.0434 O   0  0  0  0  0  0  0  0  0  0  0  0
   -0.2354    1.6327    1.1232 N   0  0  0  0  0  0  0  0  0  0  0  0
    0.5600    1.1834    1.5677 H   0  0  0  0  0  0  0  0  0  0  0  0
   -0.4437    3.0610    1.3283 C   0  0  0  0  0  0  0  0  0  0  0  0
   -1.3698    3.2377    1.8856 H   0  0  0  0  0  0  0  0  0  0  0  0
    0.3886    3.4870    1.8968 H   0  0  0  0  0  0  0  0  0  0  0  0
   -0.5065    3.5804    0.3661 H   0  0  0  0  0  0  0  0  0  0  0  0
  1  2  1  0  0  0  0
  2  3  1  0  0  0  0
  2  4  1  0  0  0  0
  2  5  1  0  0  0  0
  5  6  2  0  0  0  0
  5  7  1  0  0  0  0
  7  8  1  0  0  0  0
  7  9  1  0  0  0  0
  9 10  1  0  0  0  0
  9 11  1  0  0  0  0
  9 25  1  0  0  0  0
 11 12  1  0  0  0  0
 11 13  1  0  0  0  0
 11 14  1  0  0  0  0
 14 15  1  0  0  0  0
 14 23  2  0  0  0  0
 15 16  1  0  0  0  0
 15 17  2  0  0  0  0
 17 18  1  0  0  0  0
 17 19  1  0  0  0  0
 19 20  1  0  0  0  0
 19 21  2  0  0  0  0
 21 22  1  0  0  0  0
 21 23  1  0  0  0  0
 23 24  1  0  0  0  0
 25 26  2  0  0  0  0
 25 27  1  0  0  0  0
 27 28  1  0  0  0  0
 27 29  1  0  0  0  0
 29 30  1  0  0  0  0
 29 31  1  0  0  0  0
 29 32  1  0  0  0  0
M  END
$$$$

  -OEChem-04042216033D

 32 32  0     1  0  0  0  0  0999 V2000
   -3.6379   -3.8557    2.3555 H   0  0  0  0  0  0  0  0  0  0  0  0
   -3.6964   -3.0082    1.6669 C   0  0  0  0  0  0  0  0  0  0  0  0
   -4.3144   -2.2288    2.1194 H   0  0  0  0  0  0  0  0  0  0  0  0
   -4.1638   -3.3410    0.7370 H   0  0  0  0  0  0  0  0  0  0  0  0
   -2.3076   -2.4691    1.3814 C   0  0  0  0  0  0  0  0  0  0  0  0
   -1.3283   -3.0175    1.8625 O   0  0  0  0  0  0  0  0  0  0  0  0
   -2.1595   -1.3561    0.5810 N   0  0  0  0  0  0  0  0  0  0  0  0
   -3.0044   -0.8582    0.3038 H   0  0  0  0  0  0  0  0  0  0  0  0
   -0.8851   -0.6798    0.3178 C   0  0  1  0  0  0  0  0  0  0  0  0
   -0.1685   -0.9541    1.0986 H   0  0  0  0  0  0  0  0  0  0  0  0
   -0.2083   -0.9714   -1.0513 C   0  0  0  0  0  0  0  0  0  0  0  0
    0.4550   -0.1294   -1.2768 H   0  0  0  0  0  0  0  0  0  0  0  0
    0.4379   -1.8380   -0.8773 H   0  0  0  0  0  0  0  0  0  0  0  0
   -0.9810   -1.3068   -2.3291 C   0  0  0  0  0  0  0  0  0  0  0  0
   -2.3352   -1.6910   -2.4345 C   0  0  0  0  0  0  0  0  0  0  0  0
   -2.9895   -1.7808   -1.5826 H   0  0  0  0  0  0  0  0  0  0  0  0
   -2.9123   -1.9759   -3.6772 C   0  0  0  0  0  0  0  0  0  0  0  0
   -3.9575   -2.2641   -3.7342 H   0  0  0  0  0  0  0  0  0  0  0  0
   -2.1532   -1.8902   -4.8441 C   0  0  0  0  0  0  0  0  0  0  0  0
   -2.6043   -2.1120   -5.8068 H   0  0  0  0  0  0  0  0  0  0  0  0
   -0.8116   -1.5193   -4.7654 C   0  0  0  0  0  0  0  0  0  0  0  0
   -0.2129   -1.4518   -5.6688 H   0  0  0  0  0  0  0  0  0  0  0  0
   -0.2380   -1.2347   -3.5225 C   0  0  0  0  0  0  0  0  0  0  0  0
    0.8100   -0.9523   -3.4898 H   0  0  0  0  0  0  0  0  0  0  0  0
   -1.1113    0.8400    0.4505 C   0  0  0  0  0  0  0  0  0  0  0  0
   -2.1436    1.3488    0.0272 O   0  0  0  0  0  0  0  0  0  0  0  0
   -0.2088    1.6240    1.1463 N   0  0  0  0  0  0  0  0  0  0  0  0
    0.6008    1.1642    1.5529 H   0  0  0  0  0  0  0  0  0  0  0  0
   -0.4097    3.0467    1.3929 C   0  0  0  0  0  0  0  0  0  0  0  0
   -1.3172    3.2086    1.9841 H   0  0  0  0  0  0  0  0  0  0  0  0
    0.4407    3.4587    1.9446 H   0  0  0  0  0  0  0  0  0  0  0  0
   -0.5034    3.5899    0.4466 H   0  0  0  0  0  0  0  0  0  0  0  0
  1  2  1  0  0  0  0
  2  3  1  0  0  0  0
  2  4  1  0  0  0  0
  2  5  1  0  0  0  0
  5  6  2  0  0  0  0
  5  7  1  0  0  0  0
  7  8  1  0  0  0  0
  7  9  1  0  0  0  0
  9 10  1  0  0  0  0
  9 11  1  0  0  0  0
  9 25  1  0  0  0  0
 11 12  1  0  0  0  0
 11 13  1  0  0  0  0
 11 14  1  0  0  0  0
 14 15  1  0  0  0  0
 14 23  2  0  0  0  0
 15 16  1  0  0  0  0
 15 17  2  0  0  0  0
 17 18  1  0  0  0  0
 17 19  1  0  0  0  0
 19 20  1  0  0  0  0
 19 21  2  0  0  0  0
 21 22  1  0  0  0  0
 21 23  1  0  0  0  0
 23 24  1  0  0  0  0
 25 26  2  0  0  0  0
 25 27  1  0  0  0  0
 27 28  1  0  0  0  0
 27 29  1  0  0  0  0
 29 30  1  0  0  0  0
 29 31  1  0  0  0  0
 29 32  1  0  0  0  0
M  END
$$$$

  -OEChem-04042216033D

 32 32  0     1  0  0  0  0  0999 V2000
   -3.6703   -3.8645    2.2494 H   0  0  0  0  0  0  0  0  0  0  0  0
   -3.7159   -3.0150    1.5624 C   0  0  0  0  0  0  0  0  0  0  0  0
   -4.3461   -2.2390    2.0038 H   0  0  0  0  0  0  0  0  0  0  0  0
   -4.1623   -3.3462    0.6215 H   0  0  0  0  0  0  0  0  0  0  0  0
   -2.3222   -2.4709    1.3097 C   0  0  0  0  0  0  0  0  0  0  0  0
   -1.3516   -3.0253    1.8017 O   0  0  0  0  0  0  0  0  0  0  0  0
   -2.1589   -1.3426    0.5337 N   0  0  0  0  0  0  0  0  0  0  0  0
   -2.9991   -0.8374    0.2576 H   0  0  0  0  0  0  0  0  0  0  0  0
   -0.8762   -0.6621    0.3128 C   0  0  1  0  0  0  0  0  0  0  0  0
   -0.1735   -0.9538    1.0999 H   0  0  0  0  0  0  0  0  0  0  0  0
   -0.1893   -0.9462   -1.0516 C   0  0  0  0  0  0  0  0  0  0  0  0
    0.4814   -0.1093   -1.2728 H   0  0  0  0  0  0  0  0  0  0  0  0
    0.4474   -1.8201   -0.8782 H   0  0  0  0  0  0  0  0  0  0  0  0
   -0.9654   -1.2589   -2.3304 C   0  0  0  0  0  0  0  0  0  0  0  0
   -2.3668   -1.3310   -2.4706 C   0  0  0  0  0  0  0  0  0  0  0  0
   -3.0427   -1.0813   -1.6665 H   0  0  0  0  0  0  0  0  0  0  0  0
   -2.9547   -1.6744   -3.6933 C   0  0  0  0  0  0  0  0  0  0  0  0
   -4.0364   -1.7093   -3.7819 H   0  0  0  0  0  0  0  0  0  0  0  0
   -2.1575   -1.9608   -4.8022 C   0  0  0  0  0  0  0  0  0  0  0  0
   -2.6154   -2.2255   -5.7507 H   0  0  0  0  0  0  0  0  0  0  0  0
   -0.7689   -1.8987   -4.6863 C   0  0  0  0  0  0  0  0  0  0  0  0
   -0.1413   -2.1210   -5.5443 H   0  0  0  0  0  0  0  0  0  0  0  0
   -0.1854   -1.5523   -3.4636 C   0  0  0  0  0  0  0  0  0  0  0  0
    0.8978   -1.5180   -3.3951 H   0  0  0  0  0  0  0  0  0  0  0  0
   -1.0968    0.8565    0.4679 C   0  0  0  0  0  0  0  0  0  0  0  0
   -2.1133    1.3782    0.0223 O   0  0  0  0  0  0  0  0  0  0  0  0
   -0.2072    1.6241    1.1980 N   0  0  0  0  0  0  0  0  0  0  0  0
    0.5908    1.1534    1.6149 H   0  0  0  0  0  0  0  0  0  0  0  0
   -0.3916    3.0498    1.4426 C   0  0  0  0  0  0  0  0  0  0  0  0
   -1.3361    3.2310    1.9664 H   0  0  0  0  0  0  0  0  0  0  0  0
    0.4250    3.4359    2.0602 H   0  0  0  0  0  0  0  0  0  0  0  0
   -0.4009    3.6025    0.4973 H   0  0  0  0  0  0  0  0  0  0  0  0
  1  2  1  0  0  0  0
  2  3  1  0  0  0  0
  2  4  1  0  0  0  0
  2  5  1  0  0  0  0
  5  6  2  0  0  0  0
  5  7  1  0  0  0  0
  7  8  1  0  0  0  0
  7  9  1  0  0  0  0
  9 10  1  0  0  0  0
  9 11  1  0  0  0  0
  9 25  1  0  0  0  0
 11 12  1  0  0  0  0
 11 13  1  0  0  0  0
 11 14  1  0  0  0  0
 14 15  1  0  0  0  0
 14 23  2  0  0  0  0
 15 16  1  0  0  0  0
 15 17  2  0  0  0  0
 17 18  1  0  0  0  0
 17 19  1  0  0  0  0
 19 20  1  0  0  0  0
 19 21  2  0  0  0  0
 21 22  1  0  0  0  0
 21 23  1  0  0  0  0
 23 24  1  0  0  0  0
 25 26  2  0  0  0  0
 25 27  1  0  0  0  0
 27 28  1  0  0  0  0
 27 29  1  0  0  0  0
 29 30  1  0  0  0  0
 29 31  1  0  0  0  0
 29 32  1  0  0  0  0
M  END
$$$$

  -OEChem-04042216033D

 32 32  0     1  0  0  0  0  0999 V2000
   -3.6996   -3.8982    2.0669 H   0  0  0  0  0  0  0  0  0  0  0  0
   -3.7240   -3.0359    1.3949 C   0  0  0  0  0  0  0  0  0  0  0  0
   -4.3897   -2.2790    1.8171 H   0  0  0  0  0  0  0  0  0  0  0  0
   -4.1135   -3.3551    0.4251 H   0  0  0  0  0  0  0  0  0  0  0  0
   -2.3287   -2.4651    1.2268 C   0  0  0  0  0  0  0  0  0  0  0  0
   -1.3783   -3.0041    1.7729 O   0  0  0  0  0  0  0  0  0  0  0  0
   -2.1419   -1.3297    0.4672 N   0  0  0  0  0  0  0  0  0  0  0  0
   -2.9723   -0.8548    0.1199 H   0  0  0  0  0  0  0  0  0  0  0  0
   -0.8549   -0.6371    0.3042 C   0  0  1  0  0  0  0  0  0  0  0  0
   -0.1804   -0.9339    1.1137 H   0  0  0  0  0  0  0  0  0  0  0  0
   -0.1318   -0.9324   -1.0367 C   0  0  0  0  0  0  0  0  0  0  0  0
    0.5391   -0.0970   -1.2625 H   0  0  0  0  0  0  0  0  0  0  0  0
    0.5033   -1.8031   -0.8426 H   0  0  0  0  0  0  0  0  0  0  0  0
   -0.9148   -1.2507   -2.3065 C   0  0  0  0  0  0  0  0  0  0  0  0
   -2.2920   -1.0176   -2.4914 C   0  0  0  0  0  0  0  0  0  0  0  0
   -2.8803   -0.4979   -1.7454 H   0  0  0  0  0  0  0  0  0  0  0  0
   -2.9342   -1.3886   -3.6778 C   0  0  0  0  0  0  0  0  0  0  0  0
   -3.9934   -1.1854   -3.8053 H   0  0  0  0  0  0  0  0  0  0  0  0
   -2.2137   -2.0048   -4.7025 C   0  0  0  0  0  0  0  0  0  0  0  0
   -2.7117   -2.2922   -5.6239 H   0  0  0  0  0  0  0  0  0  0  0  0
   -0.8476   -2.2415   -4.5405 C   0  0  0  0  0  0  0  0  0  0  0  0
   -0.2815   -2.7183   -5.3352 H   0  0  0  0  0  0  0  0  0  0  0  0
   -0.2087   -1.8665   -3.3541 C   0  0  0  0  0  0  0  0  0  0  0  0
    0.8532   -2.0655   -3.2459 H   0  0  0  0  0  0  0  0  0  0  0  0
   -1.0724    0.8814    0.4586 C   0  0  0  0  0  0  0  0  0  0  0  0
   -2.0630    1.4154   -0.0285 O   0  0  0  0  0  0  0  0  0  0  0  0
   -0.2073    1.6380    1.2281 N   0  0  0  0  0  0  0  0  0  0  0  0
    0.5643    1.1575    1.6823 H   0  0  0  0  0  0  0  0  0  0  0  0
   -0.3942    3.0626    1.4748 C   0  0  0  0  0  0  0  0  0  0  0  0
   -1.3419    3.2410    1.9934 H   0  0  0  0  0  0  0  0  0  0  0  0
    0.4188    3.4489    2.0968 H   0  0  0  0  0  0  0  0  0  0  0  0
   -0.3996    3.6171    0.5305 H   0  0  0  0  0  0  0  0  0  0  0  0
  1  2  1  0  0  0  0
  2  3  1  0  0  0  0
  2  4  1  0  0  0  0
  2  5  1  0  0  0  0
  5  6  2  0  0  0  0
  5  7  1  0  0  0  0
  7  8  1  0  0  0  0
  7  9  1  0  0  0  0
  9 10  1  0  0  0  0
  9 11  1  0  0  0  0
  9 25  1  0  0  0  0
 11 12  1  0  0  0  0
 11 13  1  0  0  0  0
 11 14  1  0  0  0  0
 14 15  1  0  0  0  0
 14 23  2  0  0  0  0
 15 16  1  0  0  0  0
 15 17  2  0  0  0  0
 17 18  1  0  0  0  0
 17 19  1  0  0  0  0
 19 20  1  0  0  0  0
 19 21  2  0  0  0  0
 21 22  1  0  0  0  0
 21 23  1  0  0  0  0
 23 24  1  0  0  0  0
 25 26  2  0  0  0  0
 25 27  1  0  0  0  0
 27 28  1  0  0  0  0
 27 29  1  0  0  0  0
 29 30  1  0  0  0  0
 29 31  1  0  0  0  0
 29 32  1  0  0  0  0
M  END
$$$$

  -OEChem-04042216033D

 32 32  0     1  0  0  0  0  0999 V2000
   -3.7072   -3.9554    1.8206 H   0  0  0  0  0  0  0  0  0  0  0  0
   -3.7120   -3.0777    1.1683 C   0  0  0  0  0  0  0  0  0  0  0  0
   -4.4511   -2.3648    1.5414 H   0  0  0  0  0  0  0  0  0  0  0  0
   -3.9931   -3.3893    0.1593 H   0  0  0  0  0  0  0  0  0  0  0  0
   -2.3378   -2.4357    1.1453 C   0  0  0  0  0  0  0  0  0  0  0  0
   -1.4175   -2.9367    1.7734 O   0  0  0  0  0  0  0  0  0  0  0  0
   -2.1347   -1.2885    0.4088 N   0  0  0  0  0  0  0  0  0  0  0  0
   -2.9380   -0.8883   -0.0700 H   0  0  0  0  0  0  0  0  0  0  0  0
   -0.8540   -0.5733    0.2966 C   0  0  1  0  0  0  0  0  0  0  0  0
   -0.2098   -0.8719    1.1299 H   0  0  0  0  0  0  0  0  0  0  0  0
   -0.0921   -0.9090   -1.0111 C   0  0  0  0  0  0  0  0  0  0  0  0
    0.5678   -0.0724   -1.2629 H   0  0  0  0  0  0  0  0  0  0  0  0
    0.5537   -1.7615   -0.7769 H   0  0  0  0  0  0  0  0  0  0  0  0
   -0.8862   -1.2738   -2.2601 C   0  0  0  0  0  0  0  0  0  0  0  0
   -2.1734   -0.7775   -2.5426 C   0  0  0  0  0  0  0  0  0  0  0  0
   -2.6482   -0.0545   -1.8897 H   0  0  0  0  0  0  0  0  0  0  0  0
   -2.8625   -1.1753   -3.6930 C   0  0  0  0  0  0  0  0  0  0  0  0
   -3.8511   -0.7741   -3.8965 H   0  0  0  0  0  0  0  0  0  0  0  0
   -2.2772   -2.0781   -4.5833 C   0  0  0  0  0  0  0  0  0  0  0  0
   -2.8123   -2.3867   -5.4767 H   0  0  0  0  0  0  0  0  0  0  0  0
   -0.9990   -2.5767   -4.3230 C   0  0  0  0  0  0  0  0  0  0  0  0
   -0.5383   -3.2764   -5.0140 H   0  0  0  0  0  0  0  0  0  0  0  0
   -0.3122   -2.1761   -3.1720 C   0  0  0  0  0  0  0  0  0  0  0  0
    0.6788   -2.5789   -2.9862 H   0  0  0  0  0  0  0  0  0  0  0  0
   -1.0532    0.9484    0.4555 C   0  0  0  0  0  0  0  0  0  0  0  0
   -2.0183    1.5094   -0.0501 O   0  0  0  0  0  0  0  0  0  0  0  0
   -0.1973    1.6814    1.2577 N   0  0  0  0  0  0  0  0  0  0  0  0
    0.5507    1.1814    1.7298 H   0  0  0  0  0  0  0  0  0  0  0  0
   -0.3616    3.1075    1.5128 C   0  0  0  0  0  0  0  0  0  0  0  0
   -1.3064    3.2978    2.0327 H   0  0  0  0  0  0  0  0  0  0  0  0
    0.4580    3.4767    2.1367 H   0  0  0  0  0  0  0  0  0  0  0  0
   -0.3580    3.6680    0.5719 H   0  0  0  0  0  0  0  0  0  0  0  0
  1  2  1  0  0  0  0
  2  3  1  0  0  0  0
  2  4  1  0  0  0  0
  2  5  1  0  0  0  0
  5  6  2  0  0  0  0
  5  7  1  0  0  0  0
  7  8  1  0  0  0  0
  7  9  1  0  0  0  0
  9 10  1  0  0  0  0
  9 11  1  0  0  0  0
  9 25  1  0  0  0  0
 11 12  1  0  0  0  0
 11 13  1  0  0  0  0
 11 14  1  0  0  0  0
 14 15  1  0  0  0  0
 14 23  2  0  0  0  0
 15 16  1  0  0  0  0
 15 17  2  0  0  0  0
 17 18  1  0  0  0  0
 17 19  1  0  0  0  0
 19 20  1  0  0  0  0
 19 21  2  0  0  0  0
 21 22  1  0  0  0  0
 21 23  1  0  0  0  0
 23 24  1  0  0  0  0
 25 26  2  0  0  0  0
 25 27  1  0  0  0  0
 27 28  1  0  0  0  0
 27 29  1  0  0  0  0
 29 30  1  0  0  0  0
 29 31  1  0  0  0  0
 29 32  1  0  0  0  0
M  END
$$$$

  -OEChem-04042216033D

 32 32  0     1  0  0  0  0  0999 V2000
   -3.6890   -3.9889    1.6343 H   0  0  0  0  0  0  0  0  0  0  0  0
   -3.6853   -3.0959    1.0034 C   0  0  0  0  0  0  0  0  0  0  0  0
   -4.4674   -2.4159    1.3493 H   0  0  0  0  0  0  0  0  0  0  0  0
   -3.8982   -3.3912   -0.0271 H   0  0  0  0  0  0  0  0  0  0  0  0
   -2.3343   -2.4097    1.0747 C   0  0  0  0  0  0  0  0  0  0  0  0
   -1.4414   -2.8852    1.7598 O   0  0  0  0  0  0  0  0  0  0  0  0
   -2.1185   -1.2566    0.3511 N   0  0  0  0  0  0  0  0  0  0  0  0
   -2.8865   -0.9074   -0.2180 H   0  0  0  0  0  0  0  0  0  0  0  0
   -0.8409   -0.5308    0.2780 C   0  0  1  0  0  0  0  0  0  0  0  0
   -0.2218   -0.8286    1.1303 H   0  0  0  0  0  0  0  0  0  0  0  0
   -0.0488   -0.9001   -1.0005 C   0  0  0  0  0  0  0  0  0  0  0  0
    0.6076   -0.0670   -1.2717 H   0  0  0  0  0  0  0  0  0  0  0  0
    0.6005   -1.7414   -0.7378 H   0  0  0  0  0  0  0  0  0  0  0  0
   -0.8567   -1.2932   -2.2296 C   0  0  0  0  0  0  0  0  0  0  0  0
   -1.9868   -0.5745   -2.6600 C   0  0  0  0  0  0  0  0  0  0  0  0
   -2.3020    0.3257   -2.1463 H   0  0  0  0  0  0  0  0  0  0  0  0
   -2.7211   -0.9897   -3.7754 C   0  0  0  0  0  0  0  0  0  0  0  0
   -3.5878   -0.4182   -4.0944 H   0  0  0  0  0  0  0  0  0  0  0  0
   -2.3367   -2.1319   -4.4811 C   0  0  0  0  0  0  0  0  0  0  0  0
   -2.9058   -2.4533   -5.3484 H   0  0  0  0  0  0  0  0  0  0  0  0
   -1.2156   -2.8561   -4.0694 C   0  0  0  0  0  0  0  0  0  0  0  0
   -0.9124   -3.7450   -4.6147 H   0  0  0  0  0  0  0  0  0  0  0  0
   -0.4835   -2.4387   -2.9527 C   0  0  0  0  0  0  0  0  0  0  0  0
    0.3810   -3.0199   -2.6463 H   0  0  0  0  0  0  0  0  0  0  0  0
   -1.0313    0.9925    0.4378 C   0  0  0  0  0  0  0  0  0  0  0  0
   -1.9852    1.5663   -0.0740 O   0  0  0  0  0  0  0  0  0  0  0  0
   -0.1887    1.7131    1.2653 N   0  0  0  0  0  0  0  0  0  0  0  0
    0.5414    1.2029    1.7542 H   0  0  0  0  0  0  0  0  0  0  0  0
   -0.3664    3.1324    1.5487 C   0  0  0  0  0  0  0  0  0  0  0  0
   -1.3347    3.3095    2.0286 H   0  0  0  0  0  0  0  0  0  0  0  0
    0.4222    3.4854    2.2200 H   0  0  0  0  0  0  0  0  0  0  0  0
   -0.3193    3.7165    0.6235 H   0  0  0  0  0  0  0  0  0  0  0  0
  1  2  1  0  0  0  0
  2  3  1  0  0  0  0
  2  4  1  0  0  0  0
  2  5  1  0  0  0  0
  5  6  2  0  0  0  0
  5  7  1  0  0  0  0
  7  8  1  0  0  0  0
  7  9  1  0  0  0  0
  9 10  1  0  0  0  0
  9 11  1  0  0  0  0
  9 25  1  0  0  0  0
 11 12  1  0  0  0  0
 11 13  1  0  0  0  0
 11 14  1  0  0  0  0
 14 15  1  0  0  0  0
 14 23  2  0  0  0  0
 15 16  1  0  0  0  0
 15 17  2  0  0  0  0
 17 18  1  0  0  0  0
 17 19  1  0  0  0  0
 19 20  1  0  0  0  0
 19 21  2  0  0  0  0
 21 22  1  0  0  0  0
 21 23  1  0  0  0  0
 23 24  1  0  0  0  0
 25 26  2  0  0  0  0
 25 27  1  0  0  0  0
 27 28  1  0  0  0  0
 27 29  1  0  0  0  0
 29 30  1  0  0  0  0
 29 31  1  0  0  0  0
 29 32  1  0  0  0  0
M  END
$$$$

  -OEChem-04042216033D

 32 32  0     1  0  0  0  0  0999 V2000
   -3.6861   -4.0000    1.5667 H   0  0  0  0  0  0  0  0  0  0  0  0
   -3.6712   -3.1074    0.9353 C   0  0  0  0  0  0  0  0  0  0  0  0
   -4.4640   -2.4303    1.2622 H   0  0  0  0  0  0  0  0  0  0  0  0
   -3.8584   -3.4044   -0.0997 H   0  0  0  0  0  0  0  0  0  0  0  0
   -2.3252   -2.4152    1.0385 C   0  0  0  0  0  0  0  0  0  0  0  0
   -1.4503   -2.8816    1.7525 O   0  0  0  0  0  0  0  0  0  0  0  0
   -2.0910   -1.2689    0.3103 N   0  0  0  0  0  0  0  0  0  0  0  0
   -2.8378   -0.9333   -0.2950 H   0  0  0  0  0  0  0  0  0  0  0  0
   -0.8145   -0.5384    0.2705 C   0  0  1  0  0  0  0  0  0  0  0  0
   -0.2157   -0.8263    1.1402 H   0  0  0  0  0  0  0  0  0  0  0  0
    0.0042   -0.9161   -0.9871 C   0  0  0  0  0  0  0  0  0  0  0  0
    0.6612   -0.0837   -1.2593 H   0  0  0  0  0  0  0  0  0  0  0  0
    0.6531   -1.7551   -0.7168 H   0  0  0  0  0  0  0  0  0  0  0  0
   -0.8135   -1.3104   -2.2052 C   0  0  0  0  0  0  0  0  0  0  0  0
   -1.7298   -0.4262   -2.7987 C   0  0  0  0  0  0  0  0  0  0  0  0
   -1.8417    0.5860   -2.4250 H   0  0  0  0  0  0  0  0  0  0  0  0
   -2.5023   -0.8253   -3.8944 C   0  0  0  0  0  0  0  0  0  0  0  0
   -3.2004   -0.1266   -4.3461 H   0  0  0  0  0  0  0  0  0  0  0  0
   -2.3734   -2.1182   -4.4082 C   0  0  0  0  0  0  0  0  0  0  0  0
   -2.9719   -2.4278   -5.2599 H   0  0  0  0  0  0  0  0  0  0  0  0
   -1.4714   -3.0108   -3.8234 C   0  0  0  0  0  0  0  0  0  0  0  0
   -1.3707   -4.0181   -4.2167 H   0  0  0  0  0  0  0  0  0  0  0  0
   -0.6987   -2.6086   -2.7288 C   0  0  0  0  0  0  0  0  0  0  0  0
   -0.0103   -3.3188   -2.2806 H   0  0  0  0  0  0  0  0  0  0  0  0
   -1.0222    0.9842    0.4084 C   0  0  0  0  0  0  0  0  0  0  0  0
   -1.9585    1.5452   -0.1484 O   0  0  0  0  0  0  0  0  0  0  0  0
   -0.2125    1.7196    1.2556 N   0  0  0  0  0  0  0  0  0  0  0  0
    0.5027    1.2189    1.7754 H   0  0  0  0  0  0  0  0  0  0  0  0
   -0.4096    3.1399    1.5199 C   0  0  0  0  0  0  0  0  0  0  0  0
   -1.3984    3.3153    1.9567 H   0  0  0  0  0  0  0  0  0  0  0  0
    0.3475    3.5025    2.2218 H   0  0  0  0  0  0  0  0  0  0  0  0
   -0.3261    3.7168    0.5930 H   0  0  0  0  0  0  0  0  0  0  0  0
  1  2  1  0  0  0  0
  2  3  1  0  0  0  0
  2  4  1  0  0  0  0
  2  5  1  0  0  0  0
  5  6  2  0  0  0  0
  5  7  1  0  0  0  0
  7  8  1  0  0  0  0
  7  9  1  0  0  0  0
  9 10  1  0  0  0  0
  9 11  1  0  0  0  0
  9 25  1  0  0  0  0
 11 12  1  0  0  0  0
 11 13  1  0  0  0  0
 11 14  1  0  0  0  0
 14 15  1  0  0  0  0
 14 23  2  0  0  0  0
 15 16  1  0  0  0  0
 15 17  2  0  0  0  0
 17 18  1  0  0  0  0
 17 19  1  0  0  0  0
 19 20  1  0  0  0  0
 19 21  2  0  0  0  0
 21 22  1  0  0  0  0
 21 23  1  0  0  0  0
 23 24  1  0  0  0  0
 25 26  2  0  0  0  0
 25 27  1  0  0  0  0
 27 28  1  0  0  0  0
 27 29  1  0  0  0  0
 29 30  1  0  0  0  0
 29 31  1  0  0  0  0
 29 32  1  0  0  0  0
M  END
$$$$

  -OEChem-04042216033D

 32 32  0     1  0  0  0  0  0999 V2000
   -3.7012   -4.0085    1.5819 H   0  0  0  0  0  0  0  0  0  0  0  0
   -3.6724   -3.1222    0.9421 C   0  0  0  0  0  0  0  0  0  0  0  0
   -4.4687   -2.4395    1.2481 H   0  0  0  0  0  0  0  0  0  0  0  0
   -3.8419   -3.4281   -0.0931 H   0  0  0  0  0  0  0  0  0  0  0  0
   -2.3265   -2.4330    1.0620 C   0  0  0  0  0  0  0  0  0  0  0  0
   -1.4704   -2.8859    1.8068 O   0  0  0  0  0  0  0  0  0  0  0  0
   -2.0694   -1.3063    0.3119 N   0  0  0  0  0  0  0  0  0  0  0  0
   -2.7983   -0.9823   -0.3217 H   0  0  0  0  0  0  0  0  0  0  0  0
   -0.7914   -0.5786    0.2871 C   0  0  1  0  0  0  0  0  0  0  0  0
   -0.2022   -0.8508    1.1683 H   0  0  0  0  0  0  0  0  0  0  0  0
    0.0395   -0.9506   -0.9631 C   0  0  0  0  0  0  0  0  0  0  0  0
    0.7039   -0.1217   -1.2283 H   0  0  0  0  0  0  0  0  0  0  0  0
    0.6811   -1.7982   -0.7015 H   0  0  0  0  0  0  0  0  0  0  0  0
   -0.7930   -1.3311   -2.1711 C   0  0  0  0  0  0  0  0  0  0  0  0
   -1.4624   -0.3527   -2.9218 C   0  0  0  0  0  0  0  0  0  0  0  0
   -1.3746    0.6969   -2.6554 H   0  0  0  0  0  0  0  0  0  0  0  0
   -2.2524   -0.7140   -4.0181 C   0  0  0  0  0  0  0  0  0  0  0  0
   -2.7650    0.0537   -4.5902 H   0  0  0  0  0  0  0  0  0  0  0  0
   -2.3821   -2.0593   -4.3748 C   0  0  0  0  0  0  0  0  0  0  0  0
   -2.9953   -2.3392   -5.2265 H   0  0  0  0  0  0  0  0  0  0  0  0
   -1.7208   -3.0426   -3.6332 C   0  0  0  0  0  0  0  0  0  0  0  0
   -1.8196   -4.0887   -3.9077 H   0  0  0  0  0  0  0  0  0  0  0  0
   -0.9321   -2.6795   -2.5362 C   0  0  0  0  0  0  0  0  0  0  0  0
   -0.4309   -3.4528   -1.9614 H   0  0  0  0  0  0  0  0  0  0  0  0
   -1.0194    0.9437    0.3813 C   0  0  0  0  0  0  0  0  0  0  0  0
   -1.9200    1.4835   -0.2509 O   0  0  0  0  0  0  0  0  0  0  0  0
   -0.2433    1.7111    1.2310 N   0  0  0  0  0  0  0  0  0  0  0  0
    0.4442    1.2300    1.8040 H   0  0  0  0  0  0  0  0  0  0  0  0
   -0.4475    3.1412    1.4276 C   0  0  0  0  0  0  0  0  0  0  0  0
   -1.4544    3.3355    1.8119 H   0  0  0  0  0  0  0  0  0  0  0  0
    0.2787    3.5316    2.1470 H   0  0  0  0  0  0  0  0  0  0  0  0
   -0.3210    3.6799    0.4826 H   0  0  0  0  0  0  0  0  0  0  0  0
  1  2  1  0  0  0  0
  2  3  1  0  0  0  0
  2  4  1  0  0  0  0
  2  5  1  0  0  0  0
  5  6  2  0  0  0  0
  5  7  1  0  0  0  0
  7  8  1  0  0  0  0
  7  9  1  0  0  0  0
  9 10  1  0  0  0  0
  9 11  1  0  0  0  0
  9 25  1  0  0  0  0
 11 12  1  0  0  0  0
 11 13  1  0  0  0  0
 11 14  1  0  0  0  0
 14 15  1  0  0  0  0
 14 23  2  0  0  0  0
 15 16  1  0  0  0  0
 15 17  2  0  0  0  0
 17 18  1  0  0  0  0
 17 19  1  0  0  0  0
 19 20  1  0  0  0  0
 19 21  2  0  0  0  0
 21 22  1  0  0  0  0
 21 23  1  0  0  0  0
 23 24  1  0  0  0  0
 25 26  2  0  0  0  0
 25 27  1  0  0  0  0
 27 28  1  0  0  0  0
 27 29  1  0  0  0  0
 29 30  1  0  0  0  0
 29 31  1  0  0  0  0
 29 32  1  0  0  0  0
M  END
$$$$

  -OEChem-04042216033D

 32 32  0     1  0  0  0  0  0999 V2000
   -3.7194   -4.0049    1.6600 H   0  0  0  0  0  0  0  0  0  0  0  0
   -3.6877   -3.1253    1.0115 C   0  0  0  0  0  0  0  0  0  0  0  0
   -4.4759   -2.4330    1.3168 H   0  0  0  0  0  0  0  0  0  0  0  0
   -3.8675   -3.4398   -0.0195 H   0  0  0  0  0  0  0  0  0  0  0  0
   -2.3349   -2.4473    1.1147 C   0  0  0  0  0  0  0  0  0  0  0  0
   -1.4778   -2.8990    1.8588 O   0  0  0  0  0  0  0  0  0  0  0  0
   -2.0695   -1.3367    0.3440 N   0  0  0  0  0  0  0  0  0  0  0  0
   -2.8010   -1.0094   -0.2852 H   0  0  0  0  0  0  0  0  0  0  0  0
   -0.7889   -0.6143    0.3099 C   0  0  1  0  0  0  0  0  0  0  0  0
   -0.1943   -0.8752    1.1909 H   0  0  0  0  0  0  0  0  0  0  0  0
    0.0352   -0.9748   -0.9476 C   0  0  0  0  0  0  0  0  0  0  0  0
    0.7072   -0.1492   -1.2053 H   0  0  0  0  0  0  0  0  0  0  0  0
    0.6701   -1.8321   -0.7017 H   0  0  0  0  0  0  0  0  0  0  0  0
   -0.8088   -1.3420   -2.1505 C   0  0  0  0  0  0  0  0  0  0  0  0
   -1.2207   -0.3529   -3.0548 C   0  0  0  0  0  0  0  0  0  0  0  0
   -0.9557    0.6865   -2.8810 H   0  0  0  0  0  0  0  0  0  0  0  0
   -1.9941   -0.6881   -4.1711 C   0  0  0  0  0  0  0  0  0  0  0  0
   -2.3156    0.0888   -4.8583 H   0  0  0  0  0  0  0  0  0  0  0  0
   -2.3551   -2.0194   -4.3985 C   0  0  0  0  0  0  0  0  0  0  0  0
   -2.9537   -2.2788   -5.2665 H   0  0  0  0  0  0  0  0  0  0  0  0
   -1.9424   -3.0150   -3.5079 C   0  0  0  0  0  0  0  0  0  0  0  0
   -2.2183   -4.0503   -3.6849 H   0  0  0  0  0  0  0  0  0  0  0  0
   -1.1709   -2.6774   -2.3905 C   0  0  0  0  0  0  0  0  0  0  0  0
   -0.8539   -3.4563   -1.7029 H   0  0  0  0  0  0  0  0  0  0  0  0
   -1.0260    0.9082    0.3736 C   0  0  0  0  0  0  0  0  0  0  0  0
   -1.9017    1.4323   -0.3053 O   0  0  0  0  0  0  0  0  0  0  0  0
   -0.2602    1.6995    1.2110 N   0  0  0  0  0  0  0  0  0  0  0  0
    0.4153    1.2349    1.8111 H   0  0  0  0  0  0  0  0  0  0  0  0
   -0.4544    3.1377    1.3499 C   0  0  0  0  0  0  0  0  0  0  0  0
   -1.4748    3.3563    1.6817 H   0  0  0  0  0  0  0  0  0  0  0  0
    0.2435    3.5449    2.0878 H   0  0  0  0  0  0  0  0  0  0  0  0
   -0.2788    3.6412    0.3935 H   0  0  0  0  0  0  0  0  0  0  0  0
  1  2  1  0  0  0  0
  2  3  1  0  0  0  0
  2  4  1  0  0  0  0
  2  5  1  0  0  0  0
  5  6  2  0  0  0  0
  5  7  1  0  0  0  0
  7  8  1  0  0  0  0
  7  9  1  0  0  0  0
  9 10  1  0  0  0  0
  9 11  1  0  0  0  0
  9 25  1  0  0  0  0
 11 12  1  0  0  0  0
 11 13  1  0  0  0  0
 11 14  1  0  0  0  0
 14 15  1  0  0  0  0
 14 23  2  0  0  0  0
 15 16  1  0  0  0  0
 15 17  2  0  0  0  0
 17 18  1  0  0  0  0
 17 19  1  0  0  0  0
 19 20  1  0  0  0  0
 19 21  2  0  0  0  0
 21 22  1  0  0  0  0
 21 23  1  0  0  0  0
 23 24  1  0  0  0  0
 25 26  2  0  0  0  0
 25 27  1  0  0  0  0
 27 28  1  0  0  0  0
 27 29  1  0  0  0  0
 29 30  1  0  0  0  0
 29 31  1  0  0  0  0
 29 32  1  0  0  0  0
M  END
$$$$

  -OEChem-04042216033D

 32 32  0     1  0  0  0  0  0999 V2000
   -3.7543   -3.9649    1.7934 H   0  0  0  0  0  0  0  0  0  0  0  0
   -3.7239   -3.0970    1.1288 C   0  0  0  0  0  0  0  0  0  0  0  0
   -4.4825   -2.3794    1.4503 H   0  0  0  0  0  0  0  0  0  0  0  0
   -3.9503   -3.4237    0.1110 H   0  0  0  0  0  0  0  0  0  0  0  0
   -2.3521   -2.4513    1.1713 C   0  0  0  0  0  0  0  0  0  0  0  0
   -1.4743   -2.9215    1.8785 O   0  0  0  0  0  0  0  0  0  0  0  0
   -2.0948   -1.3470    0.3889 N   0  0  0  0  0  0  0  0  0  0  0  0
   -2.8491   -0.9937   -0.1980 H   0  0  0  0  0  0  0  0  0  0  0  0
   -0.8101   -0.6344    0.3215 C   0  0  1  0  0  0  0  0  0  0  0  0
   -0.1987   -0.8940    1.1914 H   0  0  0  0  0  0  0  0  0  0  0  0
   -0.0003   -0.9778   -0.9518 C   0  0  0  0  0  0  0  0  0  0  0  0
    0.6744   -0.1508   -1.1972 H   0  0  0  0  0  0  0  0  0  0  0  0
    0.6331   -1.8406   -0.7226 H   0  0  0  0  0  0  0  0  0  0  0  0
   -0.8401   -1.3355   -2.1614 C   0  0  0  0  0  0  0  0  0  0  0  0
   -0.9951   -0.4160   -3.2091 C   0  0  0  0  0  0  0  0  0  0  0  0
   -0.5613    0.5767   -3.1299 H   0  0  0  0  0  0  0  0  0  0  0  0
   -1.7297   -0.7541   -4.3507 C   0  0  0  0  0  0  0  0  0  0  0  0
   -1.8576   -0.0262   -5.1464 H   0  0  0  0  0  0  0  0  0  0  0  0
   -2.2991   -2.0257   -4.4658 C   0  0  0  0  0  0  0  0  0  0  0  0
   -2.8692   -2.2874   -5.3524 H   0  0  0  0  0  0  0  0  0  0  0  0
   -2.1262   -2.9609   -3.4413 C   0  0  0  0  0  0  0  0  0  0  0  0
   -2.5549   -3.9542   -3.5342 H   0  0  0  0  0  0  0  0  0  0  0  0
   -1.3927   -2.6195   -2.3002 C   0  0  0  0  0  0  0  0  0  0  0  0
   -1.2473   -3.3565   -1.5159 H   0  0  0  0  0  0  0  0  0  0  0  0
   -1.0457    0.8880    0.3829 C   0  0  0  0  0  0  0  0  0  0  0  0
   -1.9379    1.4075   -0.2775 O   0  0  0  0  0  0  0  0  0  0  0  0
   -0.2605    1.6822    1.1989 N   0  0  0  0  0  0  0  0  0  0  0  0
    0.4339    1.2203    1.7793 H   0  0  0  0  0  0  0  0  0  0  0  0
   -0.4402    3.1233    1.3253 C   0  0  0  0  0  0  0  0  0  0  0  0
   -1.4472    3.3542    1.6883 H   0  0  0  0  0  0  0  0  0  0  0  0
    0.2854    3.5340    2.0338 H   0  0  0  0  0  0  0  0  0  0  0  0
   -0.2939    3.6137    0.3571 H   0  0  0  0  0  0  0  0  0  0  0  0
  1  2  1  0  0  0  0
  2  3  1  0  0  0  0
  2  4  1  0  0  0  0
  2  5  1  0  0  0  0
  5  6  2  0  0  0  0
  5  7  1  0  0  0  0
  7  8  1  0  0  0  0
  7  9  1  0  0  0  0
  9 10  1  0  0  0  0
  9 11  1  0  0  0  0
  9 25  1  0  0  0  0
 11 12  1  0  0  0  0
 11 13  1  0  0  0  0
 11 14  1  0  0  0  0
 14 15  1  0  0  0  0
 14 23  2  0  0  0  0
 15 16  1  0  0  0  0
 15 17  2  0  0  0  0
 17 18  1  0  0  0  0
 17 19  1  0  0  0  0
 19 20  1  0  0  0  0
 19 21  2  0  0  0  0
 21 22  1  0  0  0  0
 21 23  1  0  0  0  0
 23 24  1  0  0  0  0
 25 26  2  0  0  0  0
 25 27  1  0  0  0  0
 27 28  1  0  0  0  0
 27 29  1  0  0  0  0
 29 30  1  0  0  0  0
 29 31  1  0  0  0  0
 29 32  1  0  0  0  0
M  END
$$$$

  -OEChem-04042216033D

 32 32  0     1  0  0  0  0  0999 V2000
   -3.7768   -3.9007    1.9573 H   0  0  0  0  0  0  0  0  0  0  0  0
   -3.7581   -3.0404    1.2825 C   0  0  0  0  0  0  0  0  0  0  0  0
   -4.4716   -2.2950    1.6422 H   0  0  0  0  0  0  0  0  0  0  0  0
   -4.0570   -3.3679    0.2837 H   0  0  0  0  0  0  0  0  0  0  0  0
   -2.3651   -2.4417    1.2349 C   0  0  0  0  0  0  0  0  0  0  0  0
   -1.4601   -2.9424    1.8841 O   0  0  0  0  0  0  0  0  0  0  0  0
   -2.1222   -1.3424    0.4402 N   0  0  0  0  0  0  0  0  0  0  0  0
   -2.9049   -0.9481   -0.0801 H   0  0  0  0  0  0  0  0  0  0  0  0
   -0.8315   -0.6486    0.3240 C   0  0  1  0  0  0  0  0  0  0  0  0
   -0.1972   -0.9113    1.1765 H   0  0  0  0  0  0  0  0  0  0  0  0
   -0.0483   -0.9808   -0.9719 C   0  0  0  0  0  0  0  0  0  0  0  0
    0.6314   -0.1552   -1.2075 H   0  0  0  0  0  0  0  0  0  0  0  0
    0.5813   -1.8506   -0.7594 H   0  0  0  0  0  0  0  0  0  0  0  0
   -0.8792   -1.3285   -2.1944 C   0  0  0  0  0  0  0  0  0  0  0  0
   -0.7750   -0.5397   -3.3512 C   0  0  0  0  0  0  0  0  0  0  0  0
   -0.1730    0.3638   -3.3408 H   0  0  0  0  0  0  0  0  0  0  0  0
   -1.4618   -0.8848   -4.5202 C   0  0  0  0  0  0  0  0  0  0  0  0
   -1.3901   -0.2494   -5.3979 H   0  0  0  0  0  0  0  0  0  0  0  0
   -2.2355   -2.0475   -4.5596 C   0  0  0  0  0  0  0  0  0  0  0  0
   -2.7681   -2.3165   -5.4668 H   0  0  0  0  0  0  0  0  0  0  0  0
   -2.3063   -2.8721   -3.4341 C   0  0  0  0  0  0  0  0  0  0  0  0
   -2.8837   -3.7911   -3.4693 H   0  0  0  0  0  0  0  0  0  0  0  0
   -1.6187   -2.5225   -2.2672 C   0  0  0  0  0  0  0  0  0  0  0  0
   -1.6481   -3.1958   -1.4166 H   0  0  0  0  0  0  0  0  0  0  0  0
   -1.0604    0.8747    0.3926 C   0  0  0  0  0  0  0  0  0  0  0  0
   -1.9883    1.3926   -0.2180 O   0  0  0  0  0  0  0  0  0  0  0  0
   -0.2442    1.6685    1.1781 N   0  0  0  0  0  0  0  0  0  0  0  0
    0.4726    1.2063    1.7303 H   0  0  0  0  0  0  0  0  0  0  0  0
   -0.4347    3.1060    1.3317 C   0  0  0  0  0  0  0  0  0  0  0  0
   -1.4245    3.3194    1.7489 H   0  0  0  0  0  0  0  0  0  0  0  0
    0.3215    3.5178    2.0068 H   0  0  0  0  0  0  0  0  0  0  0  0
   -0.3439    3.6104    0.3639 H   0  0  0  0  0  0  0  0  0  0  0  0
  1  2  1  0  0  0  0
  2  3  1  0  0  0  0
  2  4  1  0  0  0  0
  2  5  1  0  0  0  0
  5  6  2  0  0  0  0
  5  7  1  0  0  0  0
  7  8  1  0  0  0  0
  7  9  1  0  0  0  0
  9 10  1  0  0  0  0
  9 11  1  0  0  0  0
  9 25  1  0  0  0  0
 11 12  1  0  0  0  0
 11 13  1  0  0  0  0
 11 14  1  0  0  0  0
 14 15  1  0  0  0  0
 14 23  2  0  0  0  0
 15 16  1  0  0  0  0
 15 17  2  0  0  0  0
 17 18  1  0  0  0  0
 17 19  1  0  0  0  0
 19 20  1  0  0  0  0
 19 21  2  0  0  0  0
 21 22  1  0  0  0  0
 21 23  1  0  0  0  0
 23 24  1  0  0  0  0
 25 26  2  0  0  0  0
 25 27  1  0  0  0  0
 27 28  1  0  0  0  0
 27 29  1  0  0  0  0
 29 30  1  0  0  0  0
 29 31  1  0  0  0  0
 29 32  1  0  0  0  0
M  END
$$$$

  -OEChem-04042216033D

 32 32  0     1  0  0  0  0  0999 V2000
   -3.7712   -3.8427    2.1512 H   0  0  0  0  0  0  0  0  0  0  0  0
   -3.7756   -2.9911    1.4652 C   0  0  0  0  0  0  0  0  0  0  0  0
   -4.4371   -2.2195    1.8664 H   0  0  0  0  0  0  0  0  0  0  0  0
   -4.1579   -3.3205    0.4960 H   0  0  0  0  0  0  0  0  0  0  0  0
   -2.3715   -2.4382    1.3080 C   0  0  0  0  0  0  0  0  0  0  0  0
   -1.4373   -2.9664    1.8905 O   0  0  0  0  0  0  0  0  0  0  0  0
   -2.1541   -1.3420    0.5004 N   0  0  0  0  0  0  0  0  0  0  0  0
   -2.9648   -0.8998    0.0686 H   0  0  0  0  0  0  0  0  0  0  0  0
   -0.8611   -0.6666    0.3249 C   0  0  1  0  0  0  0  0  0  0  0  0
   -0.1996   -0.9320    1.1557 H   0  0  0  0  0  0  0  0  0  0  0  0
   -0.1058   -0.9825   -0.9959 C   0  0  0  0  0  0  0  0  0  0  0  0
    0.5762   -0.1548   -1.2171 H   0  0  0  0  0  0  0  0  0  0  0  0
    0.5232   -1.8563   -0.7968 H   0  0  0  0  0  0  0  0  0  0  0  0
   -0.9135   -1.3218   -2.2417 C   0  0  0  0  0  0  0  0  0  0  0  0
   -0.5561   -0.7141   -3.4582 C   0  0  0  0  0  0  0  0  0  0  0  0
    0.2127    0.0522   -3.4788 H   0  0  0  0  0  0  0  0  0  0  0  0
   -1.1949   -1.0543   -4.6553 C   0  0  0  0  0  0  0  0  0  0  0  0
   -0.9257   -0.5477   -5.5772 H   0  0  0  0  0  0  0  0  0  0  0  0
   -2.1743   -2.0488   -4.6662 C   0  0  0  0  0  0  0  0  0  0  0  0
   -2.6711   -2.3145   -5.5946 H   0  0  0  0  0  0  0  0  0  0  0  0
   -2.4919   -2.7176   -3.4827 C   0  0  0  0  0  0  0  0  0  0  0  0
   -3.2249   -3.5186   -3.4930 H   0  0  0  0  0  0  0  0  0  0  0  0
   -1.8502   -2.3721   -2.2885 C   0  0  0  0  0  0  0  0  0  0  0  0
   -2.0704   -2.9587   -1.4053 H   0  0  0  0  0  0  0  0  0  0  0  0
   -1.0855    0.8574    0.4059 C   0  0  0  0  0  0  0  0  0  0  0  0
   -2.0556    1.3721   -0.1389 O   0  0  0  0  0  0  0  0  0  0  0  0
   -0.2343    1.6506    1.1543 N   0  0  0  0  0  0  0  0  0  0  0  0
    0.5159    1.1902    1.6617 H   0  0  0  0  0  0  0  0  0  0  0  0
   -0.4260    3.0857    1.3275 C   0  0  0  0  0  0  0  0  0  0  0  0
   -1.3910    3.2890    1.8039 H   0  0  0  0  0  0  0  0  0  0  0  0
    0.3657    3.5004    1.9590 H   0  0  0  0  0  0  0  0  0  0  0  0
   -0.3969    3.5953    0.3585 H   0  0  0  0  0  0  0  0  0  0  0  0
  1  2  1  0  0  0  0
  2  3  1  0  0  0  0
  2  4  1  0  0  0  0
  2  5  1  0  0  0  0
  5  6  2  0  0  0  0
  5  7  1  0  0  0  0
  7  8  1  0  0  0  0
  7  9  1  0  0  0  0
  9 10  1  0  0  0  0
  9 11  1  0  0  0  0
  9 25  1  0  0  0  0
 11 12  1  0  0  0  0
 11 13  1  0  0  0  0
 11 14  1  0  0  0  0
 14 15  1  0  0  0  0
 14 23  2  0  0  0  0
 15 16  1  0  0  0  0
 15 17  2  0  0  0  0
 17 18  1  0  0  0  0
 17 19  1  0  0  0  0
 19 20  1  0  0  0  0
 19 21  2  0  0  0  0
 21 22  1  0  0  0  0
 21 23  1  0  0  0  0
 23 24  1  0  0  0  0
 25 26  2  0  0  0  0
 25 27  1  0  0  0  0
 27 28  1  0  0  0  0
 27 29  1  0  0  0  0
 29 30  1  0  0  0  0
 29 31  1  0  0  0  0
 29 32  1  0  0  0  0
M  END
$$$$

  -OEChem-04042216033D

 32 32  0     1  0  0  0  0  0999 V2000
   -3.7230   -3.7919    2.3516 H   0  0  0  0  0  0  0  0  0  0  0  0
   -3.7520   -2.9683    1.6328 C   0  0  0  0  0  0  0  0  0  0  0  0
   -4.3803   -2.1708    2.0371 H   0  0  0  0  0  0  0  0  0  0  0  0
   -4.1904   -3.3295    0.6994 H   0  0  0  0  0  0  0  0  0  0  0  0
   -2.3505   -2.4457    1.3789 C   0  0  0  0  0  0  0  0  0  0  0  0
   -1.3907   -2.9891    1.9025 O   0  0  0  0  0  0  0  0  0  0  0  0
   -2.1684   -1.3503    0.5614 N   0  0  0  0  0  0  0  0  0  0  0  0
   -2.9993   -0.8743    0.2115 H   0  0  0  0  0  0  0  0  0  0  0  0
   -0.8824   -0.6847    0.3252 C   0  0  1  0  0  0  0  0  0  0  0  0
   -0.1905   -0.9491    1.1312 H   0  0  0  0  0  0  0  0  0  0  0  0
   -0.1652   -0.9912   -1.0212 C   0  0  0  0  0  0  0  0  0  0  0  0
    0.5110   -0.1577   -1.2394 H   0  0  0  0  0  0  0  0  0  0  0  0
    0.4700   -1.8623   -0.8316 H   0  0  0  0  0  0  0  0  0  0  0  0
   -0.9454   -1.3324   -2.2900 C   0  0  0  0  0  0  0  0  0  0  0  0
   -0.3596   -0.9606   -3.5145 C   0  0  0  0  0  0  0  0  0  0  0  0
    0.5663   -0.3939   -3.5235 H   0  0  0  0  0  0  0  0  0  0  0  0
   -0.9534   -1.2817   -4.7393 C   0  0  0  0  0  0  0  0  0  0  0  0
   -0.4929   -0.9572   -5.6678 H   0  0  0  0  0  0  0  0  0  0  0  0
   -2.1346   -2.0226   -4.7684 C   0  0  0  0  0  0  0  0  0  0  0  0
   -2.5992   -2.2733   -5.7174 H   0  0  0  0  0  0  0  0  0  0  0  0
   -2.7018   -2.4591   -3.5711 C   0  0  0  0  0  0  0  0  0  0  0  0
   -3.6030   -3.0646   -3.5892 H   0  0  0  0  0  0  0  0  0  0  0  0
   -2.1023   -2.1365   -2.3484 C   0  0  0  0  0  0  0  0  0  0  0  0
   -2.5523   -2.5609   -1.4635 H   0  0  0  0  0  0  0  0  0  0  0  0
   -1.1067    0.8387    0.4202 C   0  0  0  0  0  0  0  0  0  0  0  0
   -2.1141    1.3473   -0.0592 O   0  0  0  0  0  0  0  0  0  0  0  0
   -0.2236    1.6335    1.1289 N   0  0  0  0  0  0  0  0  0  0  0  0
    0.5599    1.1767    1.5869 H   0  0  0  0  0  0  0  0  0  0  0  0
   -0.4207    3.0642    1.3281 C   0  0  0  0  0  0  0  0  0  0  0  0
   -1.3509    3.2505    1.8751 H   0  0  0  0  0  0  0  0  0  0  0  0
    0.4095    3.4843    1.9037 H   0  0  0  0  0  0  0  0  0  0  0  0
   -0.4691    3.5816    0.3640 H   0  0  0  0  0  0  0  0  0  0  0  0
  1  2  1  0  0  0  0
  2  3  1  0  0  0  0
  2  4  1  0  0  0  0
  2  5  1  0  0  0  0
  5  6  2  0  0  0  0
  5  7  1  0  0  0  0
  7  8  1  0  0  0  0
  7  9  1  0  0  0  0
  9 10  1  0  0  0  0
  9 11  1  0  0  0  0
  9 25  1  0  0  0  0
 11 12  1  0  0  0  0
 11 13  1  0  0  0  0
 11 14  1  0  0  0  0
 14 15  1  0  0  0  0
 14 23  2  0  0  0  0
 15 16  1  0  0  0  0
 15 17  2  0  0  0  0
 17 18  1  0  0  0  0
 17 19  1  0  0  0  0
 19 20  1  0  0  0  0
 19 21  2  0  0  0  0
 21 22  1  0  0  0  0
 21 23  1  0  0  0  0
 23 24  1  0  0  0  0
 25 26  2  0  0  0  0
 25 27  1  0  0  0  0
 27 28  1  0  0  0  0
 27 29  1  0  0  0  0
 29 30  1  0  0  0  0
 29 31  1  0  0  0  0
 29 32  1  0  0  0  0
M  END
$$$$

  -OEChem-04042216033D

 32 32  0     1  0  0  0  0  0999 V2000
   -3.6413   -3.8142    2.4486 H   0  0  0  0  0  0  0  0  0  0  0  0
   -3.6958   -3.0081    1.7114 C   0  0  0  0  0  0  0  0  0  0  0  0
   -4.3271   -2.2097    2.1093 H   0  0  0  0  0  0  0  0  0  0  0  0
   -4.1461   -3.3976    0.7951 H   0  0  0  0  0  0  0  0  0  0  0  0
   -2.3071   -2.4734    1.4171 C   0  0  0  0  0  0  0  0  0  0  0  0
   -1.3283   -3.0087    1.9137 O   0  0  0  0  0  0  0  0  0  0  0  0
   -2.1589   -1.3743    0.5980 N   0  0  0  0  0  0  0  0  0  0  0  0
   -3.0037   -0.8841    0.3071 H   0  0  0  0  0  0  0  0  0  0  0  0
   -0.8850   -0.7002    0.3282 C   0  0  1  0  0  0  0  0  0  0  0  0
   -0.1706   -0.9596    1.1162 H   0  0  0  0  0  0  0  0  0  0  0  0
   -0.2024   -1.0133   -1.0336 C   0  0  0  0  0  0  0  0  0  0  0  0
    0.4605   -0.1737   -1.2693 H   0  0  0  0  0  0  0  0  0  0  0  0
    0.4444   -1.8758   -0.8431 H   0  0  0  0  0  0  0  0  0  0  0  0
   -0.9687   -1.3714   -2.3089 C   0  0  0  0  0  0  0  0  0  0  0  0
   -0.2257   -1.3001   -3.5023 C   0  0  0  0  0  0  0  0  0  0  0  0
    0.8204   -1.0106   -3.4703 H   0  0  0  0  0  0  0  0  0  0  0  0
   -0.7965   -1.5955   -4.7440 C   0  0  0  0  0  0  0  0  0  0  0  0
   -0.1970   -1.5301   -5.6471 H   0  0  0  0  0  0  0  0  0  0  0  0
   -2.1363   -1.9733   -4.8214 C   0  0  0  0  0  0  0  0  0  0  0  0
   -2.5845   -2.2018   -5.7839 H   0  0  0  0  0  0  0  0  0  0  0  0
   -2.8967   -2.0545   -3.6547 C   0  0  0  0  0  0  0  0  0  0  0  0
   -3.9408   -2.3473   -3.7101 H   0  0  0  0  0  0  0  0  0  0  0  0
   -2.3220   -1.7582   -2.4134 C   0  0  0  0  0  0  0  0  0  0  0  0
   -2.9771   -1.8428   -1.5616 H   0  0  0  0  0  0  0  0  0  0  0  0
   -1.1162    0.8208    0.4341 C   0  0  0  0  0  0  0  0  0  0  0  0
   -2.1468    1.3202   -0.0043 O   0  0  0  0  0  0  0  0  0  0  0  0
   -0.2189    1.6194    1.1199 N   0  0  0  0  0  0  0  0  0  0  0  0
    0.5877    1.1686    1.5423 H   0  0  0  0  0  0  0  0  0  0  0  0
   -0.4213    3.0473    1.3336 C   0  0  0  0  0  0  0  0  0  0  0  0
   -1.3468    3.2241    1.8916 H   0  0  0  0  0  0  0  0  0  0  0  0
    0.4125    3.4662    1.9051 H   0  0  0  0  0  0  0  0  0  0  0  0
   -0.4819    3.5726    0.3747 H   0  0  0  0  0  0  0  0  0  0  0  0
  1  2  1  0  0  0  0
  2  3  1  0  0  0  0
  2  4  1  0  0  0  0
  2  5  1  0  0  0  0
  5  6  2  0  0  0  0
  5  7  1  0  0  0  0
  7  8  1  0  0  0  0
  7  9  1  0  0  0  0
  9 10  1  0  0  0  0
  9 11  1  0  0  0  0
  9 25  1  0  0  0  0
 11 12  1  0  0  0  0
 11 13  1  0  0  0  0
 11 14  1  0  0  0  0
 14 15  1  0  0  0  0
 14 23  2  0  0  0  0
 15 16  1  0  0  0  0
 15 17  2  0  0  0  0
 17 18  1  0  0  0  0
 17 19  1  0  0  0  0
 19 20  1  0  0  0  0
 19 21  2  0  0  0  0
 21 22  1  0  0  0  0
 21 23  1  0  0  0  0
 23 24  1  0  0  0  0
 25 26  2  0  0  0  0
 25 27  1  0  0  0  0
 27 28  1  0  0  0  0
 27 29  1  0  0  0  0
 29 30  1  0  0  0  0
 29 31  1  0  0  0  0
 29 32  1  0  0  0  0
M  END
$$$$

  -OEChem-04042216033D

 32 32  0     1  0  0  0  0  0999 V2000
   -3.5943   -3.9775    2.0619 H   0  0  0  0  0  0  0  0  0  0  0  0
   -3.6537   -3.0980    1.4147 C   0  0  0  0  0  0  0  0  0  0  0  0
   -4.3182   -2.3641    1.8773 H   0  0  0  0  0  0  0  0  0  0  0  0
   -4.0687   -3.3979    0.4493 H   0  0  0  0  0  0  0  0  0  0  0  0
   -2.2744   -2.4975    1.2193 C   0  0  0  0  0  0  0  0  0  0  0  0
   -1.3000   -3.0199    1.7383 O   0  0  0  0  0  0  0  0  0  0  0  0
   -2.1307   -1.3540    0.4627 N   0  0  0  0  0  0  0  0  0  0  0  0
   -2.9811   -0.8961    0.1420 H   0  0  0  0  0  0  0  0  0  0  0  0
   -0.8685   -0.6203    0.2845 C   0  0  1  0  0  0  0  0  0  0  0  0
   -0.1834   -0.9018    1.0907 H   0  0  0  0  0  0  0  0  0  0  0  0
   -0.1551   -0.9491   -1.0487 C   0  0  0  0  0  0  0  0  0  0  0  0
    0.6632   -0.2334   -1.1777 H   0  0  0  0  0  0  0  0  0  0  0  0
    0.3017   -1.9355   -0.9171 H   0  0  0  0  0  0  0  0  0  0  0  0
   -0.9333   -1.0073   -2.3585 C   0  0  0  0  0  0  0  0  0  0  0  0
   -0.1991   -1.3177   -3.5162 C   0  0  0  0  0  0  0  0  0  0  0  0
    0.8597   -1.5456   -3.4375 H   0  0  0  0  0  0  0  0  0  0  0  0
   -0.8054   -1.3541   -4.7763 C   0  0  0  0  0  0  0  0  0  0  0  0
   -0.2198   -1.6102   -5.6543 H   0  0  0  0  0  0  0  0  0  0  0  0
   -2.1625   -1.0554   -4.9056 C   0  0  0  0  0  0  0  0  0  0  0  0
   -2.6366   -1.0801   -5.8822 H   0  0  0  0  0  0  0  0  0  0  0  0
   -2.9030   -0.7060   -3.7752 C   0  0  0  0  0  0  0  0  0  0  0  0
   -3.9530   -0.4469   -3.8729 H   0  0  0  0  0  0  0  0  0  0  0  0
   -2.2922   -0.6694   -2.5170 C   0  0  0  0  0  0  0  0  0  0  0  0
   -2.9009   -0.3456   -1.6836 H   0  0  0  0  0  0  0  0  0  0  0  0
   -1.0940    0.8977    0.4415 C   0  0  0  0  0  0  0  0  0  0  0  0
   -2.1229    1.4199    0.0268 O   0  0  0  0  0  0  0  0  0  0  0  0
   -0.2175    1.6550    1.1977 N   0  0  0  0  0  0  0  0  0  0  0  0
    0.5784    1.1800    1.6137 H   0  0  0  0  0  0  0  0  0  0  0  0
   -0.4324    3.0651    1.4991 C   0  0  0  0  0  0  0  0  0  0  0  0
   -1.3608    3.1993    2.0642 H   0  0  0  0  0  0  0  0  0  0  0  0
    0.3966    3.4541    2.0981 H   0  0  0  0  0  0  0  0  0  0  0  0
   -0.4944    3.6492    0.5749 H   0  0  0  0  0  0  0  0  0  0  0  0
  1  2  1  0  0  0  0
  2  3  1  0  0  0  0
  2  4  1  0  0  0  0
  2  5  1  0  0  0  0
  5  6  2  0  0  0  0
  5  7  1  0  0  0  0
  7  8  1  0  0  0  0
  7  9  1  0  0  0  0
  9 10  1  0  0  0  0
  9 11  1  0  0  0  0
  9 25  1  0  0  0  0
 11 12  1  0  0  0  0
 11 13  1  0  0  0  0
 11 14  1  0  0  0  0
 14 15  1  0  0  0  0
 14 23  2  0  0  0  0
 15 16  1  0  0  0  0
 15 17  2  0  0  0  0
 17 18  1  0  0  0  0
 17 19  1  0  0  0  0
 19 20  1  0  0  0  0
 19 21  2  0  0  0  0
 21 22  1  0  0  0  0
 21 23  1  0  0  0  0
 23 24  1  0  0  0  0
 25 26  2  0  0  0  0
 25 27  1  0  0  0  0
 27 28  1  0  0  0  0
 27 29  1  0  0  0  0
 29 30  1  0  0  0  0
 29 31  1  0  0  0  0
 29 32  1  0  0  0  0
M  END
$$$$

  -OEChem-04042216033D

 32 32  0     1  0  0  0  0  0999 V2000
   -3.5994   -3.9926    1.8986 H   0  0  0  0  0  0  0  0  0  0  0  0
   -3.6562   -3.1050    1.2625 C   0  0  0  0  0  0  0  0  0  0  0  0
   -4.3669   -2.4013    1.7025 H   0  0  0  0  0  0  0  0  0  0  0  0
   -4.0124   -3.4021    0.2731 H   0  0  0  0  0  0  0  0  0  0  0  0
   -2.2896   -2.4570    1.1450 C   0  0  0  0  0  0  0  0  0  0  0  0
   -1.3211   -2.9703    1.6843 O   0  0  0  0  0  0  0  0  0  0  0  0
   -2.1481   -1.2887    0.4265 N   0  0  0  0  0  0  0  0  0  0  0  0
   -2.9907   -0.8695    0.0402 H   0  0  0  0  0  0  0  0  0  0  0  0
   -0.8909   -0.5401    0.2755 C   0  0  1  0  0  0  0  0  0  0  0  0
   -0.2202   -0.8405    1.0867 H   0  0  0  0  0  0  0  0  0  0  0  0
   -0.1600   -0.8934   -1.0402 C   0  0  0  0  0  0  0  0  0  0  0  0
    0.6536   -0.1756   -1.1856 H   0  0  0  0  0  0  0  0  0  0  0  0
    0.3024   -1.8734   -0.8823 H   0  0  0  0  0  0  0  0  0  0  0  0
   -0.9457   -0.9796   -2.3426 C   0  0  0  0  0  0  0  0  0  0  0  0
   -0.3182   -1.6108   -3.4300 C   0  0  0  0  0  0  0  0  0  0  0  0
    0.6740   -2.0351   -3.3090 H   0  0  0  0  0  0  0  0  0  0  0  0
   -0.9498   -1.7136   -4.6736 C   0  0  0  0  0  0  0  0  0  0  0  0
   -0.4495   -2.2145   -5.4970 H   0  0  0  0  0  0  0  0  0  0  0  0
   -2.2218   -1.1690   -4.8570 C   0  0  0  0  0  0  0  0  0  0  0  0
   -2.7146   -1.2449   -5.8218 H   0  0  0  0  0  0  0  0  0  0  0  0
   -2.8535   -0.5167   -3.7964 C   0  0  0  0  0  0  0  0  0  0  0  0
   -3.8367   -0.0778   -3.9376 H   0  0  0  0  0  0  0  0  0  0  0  0
   -2.2194   -0.4172   -2.5532 C   0  0  0  0  0  0  0  0  0  0  0  0
   -2.7411    0.1153   -1.7691 H   0  0  0  0  0  0  0  0  0  0  0  0
   -1.0787    0.9798    0.4719 C   0  0  0  0  0  0  0  0  0  0  0  0
   -2.0984    1.5434    0.0928 O   0  0  0  0  0  0  0  0  0  0  0  0
   -0.1798    1.6898    1.2481 N   0  0  0  0  0  0  0  0  0  0  0  0
    0.6058    1.1808    1.6431 H   0  0  0  0  0  0  0  0  0  0  0  0
   -0.3510    3.0966    1.5921 C   0  0  0  0  0  0  0  0  0  0  0  0
   -1.2710    3.2421    2.1683 H   0  0  0  0  0  0  0  0  0  0  0  0
    0.4934    3.4437    2.1953 H   0  0  0  0  0  0  0  0  0  0  0  0
   -0.4016    3.7092    0.6858 H   0  0  0  0  0  0  0  0  0  0  0  0
  1  2  1  0  0  0  0
  2  3  1  0  0  0  0
  2  4  1  0  0  0  0
  2  5  1  0  0  0  0
  5  6  2  0  0  0  0
  5  7  1  0  0  0  0
  7  8  1  0  0  0  0
  7  9  1  0  0  0  0
  9 10  1  0  0  0  0
  9 11  1  0  0  0  0
  9 25  1  0  0  0  0
 11 12  1  0  0  0  0
 11 13  1  0  0  0  0
 11 14  1  0  0  0  0
 14 15  1  0  0  0  0
 14 23  2  0  0  0  0
 15 16  1  0  0  0  0
 15 17  2  0  0  0  0
 17 18  1  0  0  0  0
 17 19  1  0  0  0  0
 19 20  1  0  0  0  0
 19 21  2  0  0  0  0
 21 22  1  0  0  0  0
 21 23  1  0  0  0  0
 23 24  1  0  0  0  0
 25 26  2  0  0  0  0
 25 27  1  0  0  0  0
 27 28  1  0  0  0  0
 27 29  1  0  0  0  0
 29 30  1  0  0  0  0
 29 31  1  0  0  0  0
 29 32  1  0  0  0  0
M  END
$$$$

  -OEChem-04042216033D

 32 32  0     1  0  0  0  0  0999 V2000
   -3.6069   -3.9852    1.7731 H   0  0  0  0  0  0  0  0  0  0  0  0
   -3.6579   -3.0841    1.1556 C   0  0  0  0  0  0  0  0  0  0  0  0
   -4.3841   -2.3960    1.5953 H   0  0  0  0  0  0  0  0  0  0  0  0
   -3.9904   -3.3623    0.1524 H   0  0  0  0  0  0  0  0  0  0  0  0
   -2.2952   -2.4213    1.0830 C   0  0  0  0  0  0  0  0  0  0  0  0
   -1.3345   -2.9363    1.6347 O   0  0  0  0  0  0  0  0  0  0  0  0
   -2.1485   -1.2389    0.3893 N   0  0  0  0  0  0  0  0  0  0  0  0
   -2.9809   -0.8358   -0.0356 H   0  0  0  0  0  0  0  0  0  0  0  0
   -0.8923   -0.4863    0.2563 C   0  0  1  0  0  0  0  0  0  0  0  0
   -0.2362   -0.7960    1.0761 H   0  0  0  0  0  0  0  0  0  0  0  0
   -0.1454   -0.8686   -1.0415 C   0  0  0  0  0  0  0  0  0  0  0  0
    0.6648   -0.1506   -1.2020 H   0  0  0  0  0  0  0  0  0  0  0  0
    0.3217   -1.8417   -0.8564 H   0  0  0  0  0  0  0  0  0  0  0  0
   -0.9404   -0.9772   -2.3361 C   0  0  0  0  0  0  0  0  0  0  0  0
   -0.4908   -1.8884   -3.3076 C   0  0  0  0  0  0  0  0  0  0  0  0
    0.3810   -2.5051   -3.1104 H   0  0  0  0  0  0  0  0  0  0  0  0
   -1.1507   -2.0270   -4.5332 C   0  0  0  0  0  0  0  0  0  0  0  0
   -0.7920   -2.7442   -5.2654 H   0  0  0  0  0  0  0  0  0  0  0  0
   -2.2691   -1.2409   -4.8163 C   0  0  0  0  0  0  0  0  0  0  0  0
   -2.7825   -1.3435   -5.7679 H   0  0  0  0  0  0  0  0  0  0  0  0
   -2.7183   -0.3142   -3.8738 C   0  0  0  0  0  0  0  0  0  0  0  0
   -3.5797    0.3100   -4.0929 H   0  0  0  0  0  0  0  0  0  0  0  0
   -2.0567   -0.1796   -2.6487 C   0  0  0  0  0  0  0  0  0  0  0  0
   -2.4327    0.5639   -1.9603 H   0  0  0  0  0  0  0  0  0  0  0  0
   -1.0616    1.0332    0.4789 C   0  0  0  0  0  0  0  0  0  0  0  0
   -2.0909    1.6102    0.1491 O   0  0  0  0  0  0  0  0  0  0  0  0
   -0.1532    1.7168    1.2681 N   0  0  0  0  0  0  0  0  0  0  0  0
    0.6338    1.1931    1.6402 H   0  0  0  0  0  0  0  0  0  0  0  0
   -0.3296    3.1051    1.6791 C   0  0  0  0  0  0  0  0  0  0  0  0
   -1.2349    3.2136    2.2856 H   0  0  0  0  0  0  0  0  0  0  0  0
    0.5272    3.4347    2.2745 H   0  0  0  0  0  0  0  0  0  0  0  0
   -0.4116    3.7571    0.8030 H   0  0  0  0  0  0  0  0  0  0  0  0
  1  2  1  0  0  0  0
  2  3  1  0  0  0  0
  2  4  1  0  0  0  0
  2  5  1  0  0  0  0
  5  6  2  0  0  0  0
  5  7  1  0  0  0  0
  7  8  1  0  0  0  0
  7  9  1  0  0  0  0
  9 10  1  0  0  0  0
  9 11  1  0  0  0  0
  9 25  1  0  0  0  0
 11 12  1  0  0  0  0
 11 13  1  0  0  0  0
 11 14  1  0  0  0  0
 14 15  1  0  0  0  0
 14 23  2  0  0  0  0
 15 16  1  0  0  0  0
 15 17  2  0  0  0  0
 17 18  1  0  0  0  0
 17 19  1  0  0  0  0
 19 20  1  0  0  0  0
 19 21  2  0  0  0  0
 21 22  1  0  0  0  0
 21 23  1  0  0  0  0
 23 24  1  0  0  0  0
 25 26  2  0  0  0  0
 25 27  1  0  0  0  0
 27 28  1  0  0  0  0
 27 29  1  0  0  0  0
 29 30  1  0  0  0  0
 29 31  1  0  0  0  0
 29 32  1  0  0  0  0
M  END
$$$$

  -OEChem-04042216033D

 32 32  0     1  0  0  0  0  0999 V2000
   -3.6292   -3.9747    1.7080 H   0  0  0  0  0  0  0  0  0  0  0  0
   -3.6623   -3.0717    1.0920 C   0  0  0  0  0  0  0  0  0  0  0  0
   -4.3968   -2.3824    1.5155 H   0  0  0  0  0  0  0  0  0  0  0  0
   -3.9706   -3.3453    0.0800 H   0  0  0  0  0  0  0  0  0  0  0  0
   -2.2966   -2.4125    1.0535 C   0  0  0  0  0  0  0  0  0  0  0  0
   -1.3506   -2.9294    1.6290 O   0  0  0  0  0  0  0  0  0  0  0  0
   -2.1292   -1.2334    0.3594 N   0  0  0  0  0  0  0  0  0  0  0  0
   -2.9483   -0.8297   -0.0912 H   0  0  0  0  0  0  0  0  0  0  0  0
   -0.8688   -0.4851    0.2512 C   0  0  1  0  0  0  0  0  0  0  0  0
   -0.2273   -0.7924    1.0829 H   0  0  0  0  0  0  0  0  0  0  0  0
   -0.1078   -0.8815   -1.0336 C   0  0  0  0  0  0  0  0  0  0  0  0
    0.7047   -0.1666   -1.1973 H   0  0  0  0  0  0  0  0  0  0  0  0
    0.3578   -1.8537   -0.8418 H   0  0  0  0  0  0  0  0  0  0  0  0
   -0.9201   -0.9818   -2.3159 C   0  0  0  0  0  0  0  0  0  0  0  0
   -0.7184   -2.0925   -3.1537 C   0  0  0  0  0  0  0  0  0  0  0  0
   -0.0242   -2.8753   -2.8627 H   0  0  0  0  0  0  0  0  0  0  0  0
   -1.4111   -2.2218   -4.3621 C   0  0  0  0  0  0  0  0  0  0  0  0
   -1.2524   -3.0950   -4.9878 H   0  0  0  0  0  0  0  0  0  0  0  0
   -2.3041   -1.2270   -4.7651 C   0  0  0  0  0  0  0  0  0  0  0  0
   -2.8425   -1.3239   -5.7033 H   0  0  0  0  0  0  0  0  0  0  0  0
   -2.4908   -0.0996   -3.9626 C   0  0  0  0  0  0  0  0  0  0  0  0
   -3.1698    0.6869   -4.2789 H   0  0  0  0  0  0  0  0  0  0  0  0
   -1.7956    0.0269   -2.7552 C   0  0  0  0  0  0  0  0  0  0  0  0
   -1.9441    0.9325   -2.1823 H   0  0  0  0  0  0  0  0  0  0  0  0
   -1.0528    1.0324    0.4661 C   0  0  0  0  0  0  0  0  0  0  0  0
   -2.0807    1.5993    0.1144 O   0  0  0  0  0  0  0  0  0  0  0  0
   -0.1663    1.7221    1.2746 N   0  0  0  0  0  0  0  0  0  0  0  0
    0.6108    1.2009    1.6705 H   0  0  0  0  0  0  0  0  0  0  0  0
   -0.3649    3.1065    1.6870 C   0  0  0  0  0  0  0  0  0  0  0  0
   -1.2884    3.2051    2.2671 H   0  0  0  0  0  0  0  0  0  0  0  0
    0.4716    3.4395    2.3089 H   0  0  0  0  0  0  0  0  0  0  0  0
   -0.4262    3.7617    0.8118 H   0  0  0  0  0  0  0  0  0  0  0  0
  1  2  1  0  0  0  0
  2  3  1  0  0  0  0
  2  4  1  0  0  0  0
  2  5  1  0  0  0  0
  5  6  2  0  0  0  0
  5  7  1  0  0  0  0
  7  8  1  0  0  0  0
  7  9  1  0  0  0  0
  9 10  1  0  0  0  0
  9 11  1  0  0  0  0
  9 25  1  0  0  0  0
 11 12  1  0  0  0  0
 11 13  1  0  0  0  0
 11 14  1  0  0  0  0
 14 15  1  0  0  0  0
 14 23  2  0  0  0  0
 15 16  1  0  0  0  0
 15 17  2  0  0  0  0
 17 18  1  0  0  0  0
 17 19  1  0  0  0  0
 19 20  1  0  0  0  0
 19 21  2  0  0  0  0
 21 22  1  0  0  0  0
 21 23  1  0  0  0  0
 23 24  1  0  0  0  0
 25 26  2  0  0  0  0
 25 27  1  0  0  0  0
 27 28  1  0  0  0  0
 27 29  1  0  0  0  0
 29 30  1  0  0  0  0
 29 31  1  0  0  0  0
 29 32  1  0  0  0  0
M  END
$$$$

  -OEChem-04042216033D

 32 32  0     1  0  0  0  0  0999 V2000
   -3.6588   -3.9696    1.6743 H   0  0  0  0  0  0  0  0  0  0  0  0
   -3.6688   -3.0719    1.0498 C   0  0  0  0  0  0  0  0  0  0  0  0
   -4.4136   -2.3763    1.4442 H   0  0  0  0  0  0  0  0  0  0  0  0
   -3.9467   -3.3535    0.0312 H   0  0  0  0  0  0  0  0  0  0  0  0
   -2.2999   -2.4182    1.0486 C   0  0  0  0  0  0  0  0  0  0  0  0
   -1.3766   -2.9287    1.6647 O   0  0  0  0  0  0  0  0  0  0  0  0
   -2.1012   -1.2549    0.3370 N   0  0  0  0  0  0  0  0  0  0  0  0
   -2.9000   -0.8569   -0.1540 H   0  0  0  0  0  0  0  0  0  0  0  0
   -0.8342   -0.5140    0.2594 C   0  0  1  0  0  0  0  0  0  0  0  0
   -0.2079   -0.8119    1.1062 H   0  0  0  0  0  0  0  0  0  0  0  0
   -0.0590   -0.9093   -1.0163 C   0  0  0  0  0  0  0  0  0  0  0  0
    0.7606   -0.2006   -1.1722 H   0  0  0  0  0  0  0  0  0  0  0  0
    0.3972   -1.8881   -0.8352 H   0  0  0  0  0  0  0  0  0  0  0  0
   -0.8868   -0.9817   -2.2874 C   0  0  0  0  0  0  0  0  0  0  0  0
   -0.9704   -2.1980   -2.9859 C   0  0  0  0  0  0  0  0  0  0  0  0
   -0.4783   -3.0846   -2.5973 H   0  0  0  0  0  0  0  0  0  0  0  0
   -1.6939   -2.2931   -4.1795 C   0  0  0  0  0  0  0  0  0  0  0  0
   -1.7578   -3.2432   -4.7014 H   0  0  0  0  0  0  0  0  0  0  0  0
   -2.3312   -1.1651   -4.7016 C   0  0  0  0  0  0  0  0  0  0  0  0
   -2.8932   -1.2356   -5.6283 H   0  0  0  0  0  0  0  0  0  0  0  0
   -2.2327    0.0580   -4.0336 C   0  0  0  0  0  0  0  0  0  0  0  0
   -2.7149    0.9416   -4.4413 H   0  0  0  0  0  0  0  0  0  0  0  0
   -1.5061    0.1507   -2.8417 C   0  0  0  0  0  0  0  0  0  0  0  0
   -1.4243    1.1197   -2.3618 H   0  0  0  0  0  0  0  0  0  0  0  0
   -1.0375    1.0051    0.4374 C   0  0  0  0  0  0  0  0  0  0  0  0
   -2.0358    1.5621   -0.0042 O   0  0  0  0  0  0  0  0  0  0  0  0
   -0.1906    1.7212    1.2647 N   0  0  0  0  0  0  0  0  0  0  0  0
    0.5597    1.2113    1.7223 H   0  0  0  0  0  0  0  0  0  0  0  0
   -0.4131    3.1161    1.6266 C   0  0  0  0  0  0  0  0  0  0  0  0
   -1.3602    3.2259    2.1651 H   0  0  0  0  0  0  0  0  0  0  0  0
    0.3954    3.4732    2.2718 H   0  0  0  0  0  0  0  0  0  0  0  0
   -0.4420    3.7447    0.7304 H   0  0  0  0  0  0  0  0  0  0  0  0
  1  2  1  0  0  0  0
  2  3  1  0  0  0  0
  2  4  1  0  0  0  0
  2  5  1  0  0  0  0
  5  6  2  0  0  0  0
  5  7  1  0  0  0  0
  7  8  1  0  0  0  0
  7  9  1  0  0  0  0
  9 10  1  0  0  0  0
  9 11  1  0  0  0  0
  9 25  1  0  0  0  0
 11 12  1  0  0  0  0
 11 13  1  0  0  0  0
 11 14  1  0  0  0  0
 14 15  1  0  0  0  0
 14 23  2  0  0  0  0
 15 16  1  0  0  0  0
 15 17  2  0  0  0  0
 17 18  1  0  0  0  0
 17 19  1  0  0  0  0
 19 20  1  0  0  0  0
 19 21  2  0  0  0  0
 21 22  1  0  0  0  0
 21 23  1  0  0  0  0
 23 24  1  0  0  0  0
 25 26  2  0  0  0  0
 25 27  1  0  0  0  0
 27 28  1  0  0  0  0
 27 29  1  0  0  0  0
 29 30  1  0  0  0  0
 29 31  1  0  0  0  0
 29 32  1  0  0  0  0
M  END
$$$$

  -OEChem-04042216033D

 32 32  0     1  0  0  0  0  0999 V2000
   -3.6948   -3.9739    1.6412 H   0  0  0  0  0  0  0  0  0  0  0  0
   -3.6824   -3.0830    1.0072 C   0  0  0  0  0  0  0  0  0  0  0  0
   -4.4395   -2.3828    1.3682 H   0  0  0  0  0  0  0  0  0  0  0  0
   -3.9251   -3.3749   -0.0175 H   0  0  0  0  0  0  0  0  0  0  0  0
   -2.3133   -2.4310    1.0475 C   0  0  0  0  0  0  0  0  0  0  0  0
   -1.4175   -2.9282    1.7128 O   0  0  0  0  0  0  0  0  0  0  0  0
   -2.0822   -1.2851    0.3181 N   0  0  0  0  0  0  0  0  0  0  0  0
   -2.8562   -0.9014   -0.2221 H   0  0  0  0  0  0  0  0  0  0  0  0
   -0.8101   -0.5495    0.2716 C   0  0  1  0  0  0  0  0  0  0  0  0
   -0.2033   -0.8385    1.1352 H   0  0  0  0  0  0  0  0  0  0  0  0
   -0.0110   -0.9325   -0.9916 C   0  0  0  0  0  0  0  0  0  0  0  0
    0.8147   -0.2269   -1.1280 H   0  0  0  0  0  0  0  0  0  0  0  0
    0.4366   -1.9179   -0.8259 H   0  0  0  0  0  0  0  0  0  0  0  0
   -0.8407   -0.9771   -2.2588 C   0  0  0  0  0  0  0  0  0  0  0  0
   -1.2053   -2.2147   -2.8130 C   0  0  0  0  0  0  0  0  0  0  0  0
   -0.9050   -3.1374   -2.3254 H   0  0  0  0  0  0  0  0  0  0  0  0
   -1.9624   -2.2757   -3.9878 C   0  0  0  0  0  0  0  0  0  0  0  0
   -2.2414   -3.2388   -4.4044 H   0  0  0  0  0  0  0  0  0  0  0  0
   -2.3588   -1.0968   -4.6253 C   0  0  0  0  0  0  0  0  0  0  0  0
   -2.9490   -1.1414   -5.5358 H   0  0  0  0  0  0  0  0  0  0  0  0
   -1.9910    0.1407   -4.0898 C   0  0  0  0  0  0  0  0  0  0  0  0
   -2.2954    1.0597   -4.5817 H   0  0  0  0  0  0  0  0  0  0  0  0
   -1.2304    0.1993   -2.9173 C   0  0  0  0  0  0  0  0  0  0  0  0
   -0.9513    1.1702   -2.5184 H   0  0  0  0  0  0  0  0  0  0  0  0
   -1.0262    0.9720    0.4081 C   0  0  0  0  0  0  0  0  0  0  0  0
   -1.9807    1.5225   -0.1284 O   0  0  0  0  0  0  0  0  0  0  0  0
   -0.2170    1.7133    1.2507 N   0  0  0  0  0  0  0  0  0  0  0  0
    0.5072    1.2181    1.7630 H   0  0  0  0  0  0  0  0  0  0  0  0
   -0.4317    3.1286    1.5281 C   0  0  0  0  0  0  0  0  0  0  0  0
   -1.4090    3.2834    1.9972 H   0  0  0  0  0  0  0  0  0  0  0  0
    0.3411    3.5028    2.2065 H   0  0  0  0  0  0  0  0  0  0  0  0
   -0.3892    3.7117    0.6021 H   0  0  0  0  0  0  0  0  0  0  0  0
  1  2  1  0  0  0  0
  2  3  1  0  0  0  0
  2  4  1  0  0  0  0
  2  5  1  0  0  0  0
  5  6  2  0  0  0  0
  5  7  1  0  0  0  0
  7  8  1  0  0  0  0
  7  9  1  0  0  0  0
  9 10  1  0  0  0  0
  9 11  1  0  0  0  0
  9 25  1  0  0  0  0
 11 12  1  0  0  0  0
 11 13  1  0  0  0  0
 11 14  1  0  0  0  0
 14 15  1  0  0  0  0
 14 23  2  0  0  0  0
 15 16  1  0  0  0  0
 15 17  2  0  0  0  0
 17 18  1  0  0  0  0
 17 19  1  0  0  0  0
 19 20  1  0  0  0  0
 19 21  2  0  0  0  0
 21 22  1  0  0  0  0
 21 23  1  0  0  0  0
 23 24  1  0  0  0  0
 25 26  2  0  0  0  0
 25 27  1  0  0  0  0
 27 28  1  0  0  0  0
 27 29  1  0  0  0  0
 29 30  1  0  0  0  0
 29 31  1  0  0  0  0
 29 32  1  0  0  0  0
M  END
$$$$

  -OEChem-04042216033D

 32 32  0     1  0  0  0  0  0999 V2000
   -3.7243   -3.9673    1.6669 H   0  0  0  0  0  0  0  0  0  0  0  0
   -3.6994   -3.0838    1.0229 C   0  0  0  0  0  0  0  0  0  0  0  0
   -4.4526   -2.3726    1.3706 H   0  0  0  0  0  0  0  0  0  0  0  0
   -3.9383   -3.3851    0.0001 H   0  0  0  0  0  0  0  0  0  0  0  0
   -2.3249   -2.4436    1.0653 C   0  0  0  0  0  0  0  0  0  0  0  0
   -1.4397   -2.9378    1.7464 O   0  0  0  0  0  0  0  0  0  0  0  0
   -2.0759   -1.3133    0.3180 N   0  0  0  0  0  0  0  0  0  0  0  0
   -2.8416   -0.9300   -0.2347 H   0  0  0  0  0  0  0  0  0  0  0  0
   -0.8003   -0.5839    0.2795 C   0  0  1  0  0  0  0  0  0  0  0  0
   -0.2012   -0.8628    1.1521 H   0  0  0  0  0  0  0  0  0  0  0  0
    0.0143   -0.9502   -0.9786 C   0  0  0  0  0  0  0  0  0  0  0  0
    0.8458   -0.2475   -1.0937 H   0  0  0  0  0  0  0  0  0  0  0  0
    0.4546   -1.9410   -0.8257 H   0  0  0  0  0  0  0  0  0  0  0  0
   -0.8043   -0.9782   -2.2520 C   0  0  0  0  0  0  0  0  0  0  0  0
   -1.4313   -2.1641   -2.6663 C   0  0  0  0  0  0  0  0  0  0  0  0
   -1.3183   -3.0696   -2.0774 H   0  0  0  0  0  0  0  0  0  0  0  0
   -2.2015   -2.1925   -3.8336 C   0  0  0  0  0  0  0  0  0  0  0  0
   -2.6796   -3.1156   -4.1470 H   0  0  0  0  0  0  0  0  0  0  0  0
   -2.3562   -1.0314   -4.5966 C   0  0  0  0  0  0  0  0  0  0  0  0
   -2.9568   -1.0496   -5.5012 H   0  0  0  0  0  0  0  0  0  0  0  0
   -1.7397    0.1559   -4.1904 C   0  0  0  0  0  0  0  0  0  0  0  0
   -1.8651    1.0623   -4.7752 H   0  0  0  0  0  0  0  0  0  0  0  0
   -0.9674    0.1812   -3.0243 C   0  0  0  0  0  0  0  0  0  0  0  0
   -0.5075    1.1139   -2.7110 H   0  0  0  0  0  0  0  0  0  0  0  0
   -1.0245    0.9385    0.3832 C   0  0  0  0  0  0  0  0  0  0  0  0
   -1.9507    1.4785   -0.2104 O   0  0  0  0  0  0  0  0  0  0  0  0
   -0.2346    1.7001    1.2258 N   0  0  0  0  0  0  0  0  0  0  0  0
    0.4693    1.2161    1.7759 H   0  0  0  0  0  0  0  0  0  0  0  0
   -0.4445    3.1256    1.4483 C   0  0  0  0  0  0  0  0  0  0  0  0
   -1.4322    3.3037    1.8861 H   0  0  0  0  0  0  0  0  0  0  0  0
    0.3138    3.5171    2.1333 H   0  0  0  0  0  0  0  0  0  0  0  0
   -0.3731    3.6752    0.5038 H   0  0  0  0  0  0  0  0  0  0  0  0
  1  2  1  0  0  0  0
  2  3  1  0  0  0  0
  2  4  1  0  0  0  0
  2  5  1  0  0  0  0
  5  6  2  0  0  0  0
  5  7  1  0  0  0  0
  7  8  1  0  0  0  0
  7  9  1  0  0  0  0
  9 10  1  0  0  0  0
  9 11  1  0  0  0  0
  9 25  1  0  0  0  0
 11 12  1  0  0  0  0
 11 13  1  0  0  0  0
 11 14  1  0  0  0  0
 14 15  1  0  0  0  0
 14 23  2  0  0  0  0
 15 16  1  0  0  0  0
 15 17  2  0  0  0  0
 17 18  1  0  0  0  0
 17 19  1  0  0  0  0
 19 20  1  0  0  0  0
 19 21  2  0  0  0  0
 21 22  1  0  0  0  0
 21 23  1  0  0  0  0
 23 24  1  0  0  0  0
 25 26  2  0  0  0  0
 25 27  1  0  0  0  0
 27 28  1  0  0  0  0
 27 29  1  0  0  0  0
 29 30  1  0  0  0  0
 29 31  1  0  0  0  0
 29 32  1  0  0  0  0
M  END
$$$$

  -OEChem-04042216033D

 32 32  0     1  0  0  0  0  0999 V2000
   -3.7413   -3.9429    1.7886 H   0  0  0  0  0  0  0  0  0  0  0  0
   -3.7185   -3.0737    1.1256 C   0  0  0  0  0  0  0  0  0  0  0  0
   -4.4447   -2.3393    1.4824 H   0  0  0  0  0  0  0  0  0  0  0  0
   -3.9971   -3.3908    0.1178 H   0  0  0  0  0  0  0  0  0  0  0  0
   -2.3301   -2.4628    1.1113 C   0  0  0  0  0  0  0  0  0  0  0  0
   -1.4318   -2.9670    1.7672 O   0  0  0  0  0  0  0  0  0  0  0  0
   -2.0852   -1.3436    0.3459 N   0  0  0  0  0  0  0  0  0  0  0  0
   -2.8660   -0.9376   -0.1685 H   0  0  0  0  0  0  0  0  0  0  0  0
   -0.8066   -0.6216    0.2835 C   0  0  1  0  0  0  0  0  0  0  0  0
   -0.1989   -0.8914    1.1530 H   0  0  0  0  0  0  0  0  0  0  0  0
    0.0115   -0.9636   -0.9816 C   0  0  0  0  0  0  0  0  0  0  0  0
    0.8464   -0.2613   -1.0740 H   0  0  0  0  0  0  0  0  0  0  0  0
    0.4490   -1.9576   -0.8420 H   0  0  0  0  0  0  0  0  0  0  0  0
   -0.7843   -0.9849   -2.2717 C   0  0  0  0  0  0  0  0  0  0  0  0
   -1.6472   -2.0504   -2.5769 C   0  0  0  0  0  0  0  0  0  0  0  0
   -1.7204   -2.8965   -1.9007 H   0  0  0  0  0  0  0  0  0  0  0  0
   -2.4049   -2.0426   -3.7527 C   0  0  0  0  0  0  0  0  0  0  0  0
   -3.0628   -2.8757   -3.9811 H   0  0  0  0  0  0  0  0  0  0  0  0
   -2.3147   -0.9614   -4.6337 C   0  0  0  0  0  0  0  0  0  0  0  0
   -2.9044   -0.9509   -5.5453 H   0  0  0  0  0  0  0  0  0  0  0  0
   -1.4681    0.1102   -4.3361 C   0  0  0  0  0  0  0  0  0  0  0  0
   -1.4045    0.9575   -5.0124 H   0  0  0  0  0  0  0  0  0  0  0  0
   -0.7095    0.0981   -3.1607 C   0  0  0  0  0  0  0  0  0  0  0  0
   -0.0716    0.9469   -2.9332 H   0  0  0  0  0  0  0  0  0  0  0  0
   -1.0417    0.8999    0.3713 C   0  0  0  0  0  0  0  0  0  0  0  0
   -1.9802    1.4219   -0.2190 O   0  0  0  0  0  0  0  0  0  0  0  0
   -0.2501    1.6798    1.1954 N   0  0  0  0  0  0  0  0  0  0  0  0
    0.4703    1.2120    1.7380 H   0  0  0  0  0  0  0  0  0  0  0  0
   -0.4644    3.1085    1.3920 C   0  0  0  0  0  0  0  0  0  0  0  0
   -1.4544    3.2922    1.8226 H   0  0  0  0  0  0  0  0  0  0  0  0
    0.2900    3.5136    2.0732 H   0  0  0  0  0  0  0  0  0  0  0  0
   -0.3905    3.6419    0.4384 H   0  0  0  0  0  0  0  0  0  0  0  0
  1  2  1  0  0  0  0
  2  3  1  0  0  0  0
  2  4  1  0  0  0  0
  2  5  1  0  0  0  0
  5  6  2  0  0  0  0
  5  7  1  0  0  0  0
  7  8  1  0  0  0  0
  7  9  1  0  0  0  0
  9 10  1  0  0  0  0
  9 11  1  0  0  0  0
  9 25  1  0  0  0  0
 11 12  1  0  0  0  0
 11 13  1  0  0  0  0
 11 14  1  0  0  0  0
 14 15  1  0  0  0  0
 14 23  2  0  0  0  0
 15 16  1  0  0  0  0
 15 17  2  0  0  0  0
 17 18  1  0  0  0  0
 17 19  1  0  0  0  0
 19 20  1  0  0  0  0
 19 21  2  0  0  0  0
 21 22  1  0  0  0  0
 21 23  1  0  0  0  0
 23 24  1  0  0  0  0
 25 26  2  0  0  0  0
 25 27  1  0  0  0  0
 27 28  1  0  0  0  0
 27 29  1  0  0  0  0
 29 30  1  0  0  0  0
 29 31  1  0  0  0  0
 29 32  1  0  0  0  0
M  END
$$$$

  -OEChem-04042216033D

 32 32  0     1  0  0  0  0  0999 V2000
   -3.7261   -3.9163    1.9598 H   0  0  0  0  0  0  0  0  0  0  0  0
   -3.7212   -3.0615    1.2775 C   0  0  0  0  0  0  0  0  0  0  0  0
   -4.4158   -2.3064    1.6540 H   0  0  0  0  0  0  0  0  0  0  0  0
   -4.0555   -3.3946    0.2920 H   0  0  0  0  0  0  0  0  0  0  0  0
   -2.3246   -2.4770    1.1804 C   0  0  0  0  0  0  0  0  0  0  0  0
   -1.4006   -2.9944    1.7884 O   0  0  0  0  0  0  0  0  0  0  0  0
   -2.1041   -1.3638    0.3983 N   0  0  0  0  0  0  0  0  0  0  0  0
   -2.9103   -0.9282   -0.0486 H   0  0  0  0  0  0  0  0  0  0  0  0
   -0.8256   -0.6499    0.2861 C   0  0  1  0  0  0  0  0  0  0  0  0
   -0.1945   -0.9145    1.1402 H   0  0  0  0  0  0  0  0  0  0  0  0
   -0.0235   -0.9697   -0.9986 C   0  0  0  0  0  0  0  0  0  0  0  0
    0.8125   -0.2671   -1.0757 H   0  0  0  0  0  0  0  0  0  0  0  0
    0.4146   -1.9646   -0.8697 H   0  0  0  0  0  0  0  0  0  0  0  0
   -0.7946   -0.9933   -2.3088 C   0  0  0  0  0  0  0  0  0  0  0  0
   -1.8640   -1.8762   -2.5430 C   0  0  0  0  0  0  0  0  0  0  0  0
   -2.1259   -2.6266   -1.8056 H   0  0  0  0  0  0  0  0  0  0  0  0
   -2.5836   -1.8334   -3.7418 C   0  0  0  0  0  0  0  0  0  0  0  0
   -3.4006   -2.5285   -3.9104 H   0  0  0  0  0  0  0  0  0  0  0  0
   -2.2494   -0.8985   -4.7242 C   0  0  0  0  0  0  0  0  0  0  0  0
   -2.8095   -0.8608   -5.6539 H   0  0  0  0  0  0  0  0  0  0  0  0
   -1.1942   -0.0097   -4.5051 C   0  0  0  0  0  0  0  0  0  0  0  0
   -0.9359    0.7240   -5.2626 H   0  0  0  0  0  0  0  0  0  0  0  0
   -0.4756   -0.0566   -3.3058 C   0  0  0  0  0  0  0  0  0  0  0  0
    0.3289    0.6553   -3.1496 H   0  0  0  0  0  0  0  0  0  0  0  0
   -1.0694    0.8700    0.3746 C   0  0  0  0  0  0  0  0  0  0  0  0
   -2.0399    1.3778   -0.1755 O   0  0  0  0  0  0  0  0  0  0  0  0
   -0.2558    1.6601    1.1668 N   0  0  0  0  0  0  0  0  0  0  0  0
    0.4897    1.2016    1.6826 H   0  0  0  0  0  0  0  0  0  0  0  0
   -0.4794    3.0863    1.3687 C   0  0  0  0  0  0  0  0  0  0  0  0
   -1.4611    3.2598    1.8218 H   0  0  0  0  0  0  0  0  0  0  0  0
    0.2861    3.4990    2.0327 H   0  0  0  0  0  0  0  0  0  0  0  0
   -0.4331    3.6198    0.4133 H   0  0  0  0  0  0  0  0  0  0  0  0
  1  2  1  0  0  0  0
  2  3  1  0  0  0  0
  2  4  1  0  0  0  0
  2  5  1  0  0  0  0
  5  6  2  0  0  0  0
  5  7  1  0  0  0  0
  7  8  1  0  0  0  0
  7  9  1  0  0  0  0
  9 10  1  0  0  0  0
  9 11  1  0  0  0  0
  9 25  1  0  0  0  0
 11 12  1  0  0  0  0
 11 13  1  0  0  0  0
 11 14  1  0  0  0  0
 14 15  1  0  0  0  0
 14 23  2  0  0  0  0
 15 16  1  0  0  0  0
 15 17  2  0  0  0  0
 17 18  1  0  0  0  0
 17 19  1  0  0  0  0
 19 20  1  0  0  0  0
 19 21  2  0  0  0  0
 21 22  1  0  0  0  0
 21 23  1  0  0  0  0
 23 24  1  0  0  0  0
 25 26  2  0  0  0  0
 25 27  1  0  0  0  0
 27 28  1  0  0  0  0
 27 29  1  0  0  0  0
 29 30  1  0  0  0  0
 29 31  1  0  0  0  0
 29 32  1  0  0  0  0
M  END
$$$$

  -OEChem-04042216033D

 32 32  0     1  0  0  0  0  0999 V2000
   -3.6761   -3.9031    2.1189 H   0  0  0  0  0  0  0  0  0  0  0  0
   -3.7029   -3.0499    1.4356 C   0  0  0  0  0  0  0  0  0  0  0  0
   -4.3610   -2.2843    1.8536 H   0  0  0  0  0  0  0  0  0  0  0  0
   -4.1047   -3.3802    0.4748 H   0  0  0  0  0  0  0  0  0  0  0  0
   -2.3071   -2.4868    1.2467 C   0  0  0  0  0  0  0  0  0  0  0  0
   -1.3530   -3.0193    1.7920 O   0  0  0  0  0  0  0  0  0  0  0  0
   -2.1226   -1.3725    0.4562 N   0  0  0  0  0  0  0  0  0  0  0  0
   -2.9530   -0.9039    0.0950 H   0  0  0  0  0  0  0  0  0  0  0  0
   -0.8474   -0.6658    0.2859 C   0  0  1  0  0  0  0  0  0  0  0  0
   -0.1836   -0.9309    1.1149 H   0  0  0  0  0  0  0  0  0  0  0  0
   -0.0825   -0.9681   -1.0278 C   0  0  0  0  0  0  0  0  0  0  0  0
    0.7516   -0.2627   -1.1015 H   0  0  0  0  0  0  0  0  0  0  0  0
    0.3596   -1.9626   -0.9116 H   0  0  0  0  0  0  0  0  0  0  0  0
   -0.8400   -0.9930   -2.3520 C   0  0  0  0  0  0  0  0  0  0  0  0
   -2.0774   -1.6356   -2.5512 C   0  0  0  0  0  0  0  0  0  0  0  0
   -2.5368   -2.2299   -1.7733 H   0  0  0  0  0  0  0  0  0  0  0  0
   -2.7352   -1.5707   -3.7843 C   0  0  0  0  0  0  0  0  0  0  0  0
   -3.6850   -2.0790   -3.9194 H   0  0  0  0  0  0  0  0  0  0  0  0
   -2.1712   -0.8583   -4.8436 C   0  0  0  0  0  0  0  0  0  0  0  0
   -2.6833   -0.8049   -5.7997 H   0  0  0  0  0  0  0  0  0  0  0  0
   -0.9450   -0.2160   -4.6686 C   0  0  0  0  0  0  0  0  0  0  0  0
   -0.5023    0.3412   -5.4887 H   0  0  0  0  0  0  0  0  0  0  0  0
   -0.2900   -0.2833   -3.4348 C   0  0  0  0  0  0  0  0  0  0  0  0
    0.6569    0.2355   -3.3232 H   0  0  0  0  0  0  0  0  0  0  0  0
   -1.0940    0.8526    0.3917 C   0  0  0  0  0  0  0  0  0  0  0  0
   -2.1042    1.3511   -0.0920 O   0  0  0  0  0  0  0  0  0  0  0  0
   -0.2494    1.6455    1.1476 N   0  0  0  0  0  0  0  0  0  0  0  0
    0.5317    1.1929    1.6134 H   0  0  0  0  0  0  0  0  0  0  0  0
   -0.4875    3.0639    1.3863 C   0  0  0  0  0  0  0  0  0  0  0  0
   -1.4354    3.2095    1.9150 H   0  0  0  0  0  0  0  0  0  0  0  0
    0.3173    3.4856    1.9961 H   0  0  0  0  0  0  0  0  0  0  0  0
   -0.5255    3.6102    0.4379 H   0  0  0  0  0  0  0  0  0  0  0  0
  1  2  1  0  0  0  0
  2  3  1  0  0  0  0
  2  4  1  0  0  0  0
  2  5  1  0  0  0  0
  5  6  2  0  0  0  0
  5  7  1  0  0  0  0
  7  8  1  0  0  0  0
  7  9  1  0  0  0  0
  9 10  1  0  0  0  0
  9 11  1  0  0  0  0
  9 25  1  0  0  0  0
 11 12  1  0  0  0  0
 11 13  1  0  0  0  0
 11 14  1  0  0  0  0
 14 15  1  0  0  0  0
 14 23  2  0  0  0  0
 15 16  1  0  0  0  0
 15 17  2  0  0  0  0
 17 18  1  0  0  0  0
 17 19  1  0  0  0  0
 19 20  1  0  0  0  0
 19 21  2  0  0  0  0
 21 22  1  0  0  0  0
 21 23  1  0  0  0  0
 23 24  1  0  0  0  0
 25 26  2  0  0  0  0
 25 27  1  0  0  0  0
 27 28  1  0  0  0  0
 27 29  1  0  0  0  0
 29 30  1  0  0  0  0
 29 31  1  0  0  0  0
 29 32  1  0  0  0  0
M  END
$$$$

  -OEChem-04042216033D

 32 32  0     1  0  0  0  0  0999 V2000
   -3.6161   -3.9230    2.1872 H   0  0  0  0  0  0  0  0  0  0  0  0
   -3.6723   -3.0564    1.5226 C   0  0  0  0  0  0  0  0  0  0  0  0
   -4.2993   -2.2938    1.9908 H   0  0  0  0  0  0  0  0  0  0  0  0
   -4.1283   -3.3647    0.5787 H   0  0  0  0  0  0  0  0  0  0  0  0
   -2.2837   -2.5006    1.2691 C   0  0  0  0  0  0  0  0  0  0  0  0
   -1.3073   -3.0480    1.7573 O   0  0  0  0  0  0  0  0  0  0  0  0
   -2.1321   -1.3715    0.4924 N   0  0  0  0  0  0  0  0  0  0  0  0
   -2.9778   -0.8764    0.2116 H   0  0  0  0  0  0  0  0  0  0  0  0
   -0.8634   -0.6627    0.2870 C   0  0  1  0  0  0  0  0  0  0  0  0
   -0.1699   -0.9413    1.0870 H   0  0  0  0  0  0  0  0  0  0  0  0
   -0.1451   -0.9410   -1.0583 C   0  0  0  0  0  0  0  0  0  0  0  0
    0.6822   -0.2283   -1.1374 H   0  0  0  0  0  0  0  0  0  0  0  0
    0.3047   -1.9346   -0.9658 H   0  0  0  0  0  0  0  0  0  0  0  0
   -0.9038   -0.9511   -2.3853 C   0  0  0  0  0  0  0  0  0  0  0  0
   -2.2549   -1.3119   -2.5661 C   0  0  0  0  0  0  0  0  0  0  0  0
   -2.8800   -1.6460   -1.7525 H   0  0  0  0  0  0  0  0  0  0  0  0
   -2.8512   -1.2714   -3.8314 C   0  0  0  0  0  0  0  0  0  0  0  0
   -3.8938   -1.5517   -3.9468 H   0  0  0  0  0  0  0  0  0  0  0  0
   -2.1118   -0.8746   -4.9461 C   0  0  0  0  0  0  0  0  0  0  0  0
   -2.5759   -0.8429   -5.9275 H   0  0  0  0  0  0  0  0  0  0  0  0
   -0.7714   -0.5213   -4.7928 C   0  0  0  0  0  0  0  0  0  0  0  0
   -0.1889   -0.2132   -5.6558 H   0  0  0  0  0  0  0  0  0  0  0  0
   -0.1786   -0.5624   -3.5271 C   0  0  0  0  0  0  0  0  0  0  0  0
    0.8666   -0.2832   -3.4371 H   0  0  0  0  0  0  0  0  0  0  0  0
   -1.1092    0.8527    0.4316 C   0  0  0  0  0  0  0  0  0  0  0  0
   -2.1447    1.3525    0.0056 O   0  0  0  0  0  0  0  0  0  0  0  0
   -0.2394    1.6351    1.1698 N   0  0  0  0  0  0  0  0  0  0  0  0
    0.5692    1.1808    1.5843 H   0  0  0  0  0  0  0  0  0  0  0  0
   -0.4688    3.0495    1.4390 C   0  0  0  0  0  0  0  0  0  0  0  0
   -1.3910    3.1857    2.0137 H   0  0  0  0  0  0  0  0  0  0  0  0
    0.3629    3.4648    2.0160 H   0  0  0  0  0  0  0  0  0  0  0  0
   -0.5518    3.6093    0.5014 H   0  0  0  0  0  0  0  0  0  0  0  0
  1  2  1  0  0  0  0
  2  3  1  0  0  0  0
  2  4  1  0  0  0  0
  2  5  1  0  0  0  0
  5  6  2  0  0  0  0
  5  7  1  0  0  0  0
  7  8  1  0  0  0  0
  7  9  1  0  0  0  0
  9 10  1  0  0  0  0
  9 11  1  0  0  0  0
  9 25  1  0  0  0  0
 11 12  1  0  0  0  0
 11 13  1  0  0  0  0
 11 14  1  0  0  0  0
 14 15  1  0  0  0  0
 14 23  2  0  0  0  0
 15 16  1  0  0  0  0
 15 17  2  0  0  0  0
 17 18  1  0  0  0  0
 17 19  1  0  0  0  0
 19 20  1  0  0  0  0
 19 21  2  0  0  0  0
 21 22  1  0  0  0  0
 21 23  1  0  0  0  0
 23 24  1  0  0  0  0
 25 26  2  0  0  0  0
 25 27  1  0  0  0  0
 27 28  1  0  0  0  0
 27 29  1  0  0  0  0
 29 30  1  0  0  0  0
 29 31  1  0  0  0  0
 29 32  1  0  0  0  0
M  END
$$$$

  -OEChem-04042216033D

 32 32  0     1  0  0  0  0  0999 V2000
   -3.6086   -3.9436    2.1174 H   0  0  0  0  0  0  0  0  0  0  0  0
   -3.6671   -3.0562    1.4809 C   0  0  0  0  0  0  0  0  0  0  0  0
   -4.2868   -2.3060    1.9782 H   0  0  0  0  0  0  0  0  0  0  0  0
   -4.1331   -3.3330    0.5321 H   0  0  0  0  0  0  0  0  0  0  0  0
   -2.2784   -2.4991    1.2313 C   0  0  0  0  0  0  0  0  0  0  0  0
   -1.3007   -3.0580    1.7038 O   0  0  0  0  0  0  0  0  0  0  0  0
   -2.1289   -1.3547    0.4772 N   0  0  0  0  0  0  0  0  0  0  0  0
   -2.9760   -0.8495    0.2230 H   0  0  0  0  0  0  0  0  0  0  0  0
   -0.8586   -0.6432    0.2840 C   0  0  1  0  0  0  0  0  0  0  0  0
   -0.1608   -0.9401    1.0735 H   0  0  0  0  0  0  0  0  0  0  0  0
   -0.1599   -0.9118   -1.0719 C   0  0  0  0  0  0  0  0  0  0  0  0
    0.6683   -0.2005   -1.1588 H   0  0  0  0  0  0  0  0  0  0  0  0
    0.2857   -1.9084   -0.9917 H   0  0  0  0  0  0  0  0  0  0  0  0
   -0.9237   -0.9022   -2.3942 C   0  0  0  0  0  0  0  0  0  0  0  0
   -2.3237   -0.9530   -2.5541 C   0  0  0  0  0  0  0  0  0  0  0  0
   -3.0035   -0.9535   -1.7158 H   0  0  0  0  0  0  0  0  0  0  0  0
   -2.9051   -0.9690   -3.8272 C   0  0  0  0  0  0  0  0  0  0  0  0
   -3.9862   -0.9963   -3.9271 H   0  0  0  0  0  0  0  0  0  0  0  0
   -2.1022   -0.9421   -4.9682 C   0  0  0  0  0  0  0  0  0  0  0  0
   -2.5553   -0.9528   -5.9551 H   0  0  0  0  0  0  0  0  0  0  0  0
   -0.7146   -0.8987   -4.8334 C   0  0  0  0  0  0  0  0  0  0  0  0
   -0.0830   -0.8801   -5.7165 H   0  0  0  0  0  0  0  0  0  0  0  0
   -0.1374   -0.8806   -3.5599 C   0  0  0  0  0  0  0  0  0  0  0  0
    0.9452   -0.8527   -3.4800 H   0  0  0  0  0  0  0  0  0  0  0  0
   -1.0964    0.8700    0.4587 C   0  0  0  0  0  0  0  0  0  0  0  0
   -2.1328    1.3806    0.0472 O   0  0  0  0  0  0  0  0  0  0  0  0
   -0.2217    1.6342    1.2101 N   0  0  0  0  0  0  0  0  0  0  0  0
    0.5873    1.1694    1.6122 H   0  0  0  0  0  0  0  0  0  0  0  0
   -0.4451    3.0440    1.5068 C   0  0  0  0  0  0  0  0  0  0  0  0
   -1.3672    3.1725    2.0833 H   0  0  0  0  0  0  0  0  0  0  0  0
    0.3880    3.4442    2.0925 H   0  0  0  0  0  0  0  0  0  0  0  0
   -0.5252    3.6229    0.5805 H   0  0  0  0  0  0  0  0  0  0  0  0
  1  2  1  0  0  0  0
  2  3  1  0  0  0  0
  2  4  1  0  0  0  0
  2  5  1  0  0  0  0
  5  6  2  0  0  0  0
  5  7  1  0  0  0  0
  7  8  1  0  0  0  0
  7  9  1  0  0  0  0
  9 10  1  0  0  0  0
  9 11  1  0  0  0  0
  9 25  1  0  0  0  0
 11 12  1  0  0  0  0
 11 13  1  0  0  0  0
 11 14  1  0  0  0  0
 14 15  1  0  0  0  0
 14 23  2  0  0  0  0
 15 16  1  0  0  0  0
 15 17  2  0  0  0  0
 17 18  1  0  0  0  0
 17 19  1  0  0  0  0
 19 20  1  0  0  0  0
 19 21  2  0  0  0  0
 21 22  1  0  0  0  0
 21 23  1  0  0  0  0
 23 24  1  0  0  0  0
 25 26  2  0  0  0  0
 25 27  1  0  0  0  0
 27 28  1  0  0  0  0
 27 29  1  0  0  0  0
 29 30  1  0  0  0  0
 29 31  1  0  0  0  0
 29 32  1  0  0  0  0
M  END
$$$$

  -OEChem-04042216033D

 32 32  0     1  0  0  0  0  0999 V2000
   -3.6288   -3.9448    1.9949 H   0  0  0  0  0  0  0  0  0  0  0  0
   -3.6742   -3.0688    1.3418 C   0  0  0  0  0  0  0  0  0  0  0  0
   -4.3403   -2.3285    1.7918 H   0  0  0  0  0  0  0  0  0  0  0  0
   -4.0782   -3.3721    0.3728 H   0  0  0  0  0  0  0  0  0  0  0  0
   -2.2880   -2.4787    1.1612 C   0  0  0  0  0  0  0  0  0  0  0  0
   -1.3207   -3.0254    1.6686 O   0  0  0  0  0  0  0  0  0  0  0  0
   -2.1285   -1.3196    0.4315 N   0  0  0  0  0  0  0  0  0  0  0  0
   -2.9723   -0.8401    0.1251 H   0  0  0  0  0  0  0  0  0  0  0  0
   -0.8564   -0.5968    0.2797 C   0  0  1  0  0  0  0  0  0  0  0  0
   -0.1767   -0.9058    1.0801 H   0  0  0  0  0  0  0  0  0  0  0  0
   -0.1400   -0.8837   -1.0617 C   0  0  0  0  0  0  0  0  0  0  0  0
    0.6886   -0.1746   -1.1588 H   0  0  0  0  0  0  0  0  0  0  0  0
    0.3034   -1.8799   -0.9623 H   0  0  0  0  0  0  0  0  0  0  0  0
   -0.9046   -0.8848   -2.3815 C   0  0  0  0  0  0  0  0  0  0  0  0
   -2.2828   -0.6338   -2.5342 C   0  0  0  0  0  0  0  0  0  0  0  0
   -2.9047   -0.3405   -1.6996 H   0  0  0  0  0  0  0  0  0  0  0  0
   -2.8938   -0.7016   -3.7912 C   0  0  0  0  0  0  0  0  0  0  0  0
   -3.9542   -0.4890   -3.8882 H   0  0  0  0  0  0  0  0  0  0  0  0
   -2.1426   -1.0304   -4.9208 C   0  0  0  0  0  0  0  0  0  0  0  0
   -2.6176   -1.0831   -5.8960 H   0  0  0  0  0  0  0  0  0  0  0  0
   -0.7765   -1.2849   -4.7907 C   0  0  0  0  0  0  0  0  0  0  0  0
   -0.1862   -1.5408   -5.6654 H   0  0  0  0  0  0  0  0  0  0  0  0
   -0.1686   -1.2121   -3.5333 C   0  0  0  0  0  0  0  0  0  0  0  0
    0.8940   -1.4206   -3.4522 H   0  0  0  0  0  0  0  0  0  0  0  0
   -1.0757    0.9175    0.4720 C   0  0  0  0  0  0  0  0  0  0  0  0
   -2.0934    1.4549    0.0489 O   0  0  0  0  0  0  0  0  0  0  0  0
   -0.2031    1.6534    1.2532 N   0  0  0  0  0  0  0  0  0  0  0  0
    0.5891    1.1666    1.6628 H   0  0  0  0  0  0  0  0  0  0  0  0
   -0.4029    3.0631    1.5670 C   0  0  0  0  0  0  0  0  0  0  0  0
   -1.3563    3.2096    2.0854 H   0  0  0  0  0  0  0  0  0  0  0  0
    0.4015    3.4239    2.2152 H   0  0  0  0  0  0  0  0  0  0  0  0
   -0.4043    3.6627    0.6506 H   0  0  0  0  0  0  0  0  0  0  0  0
  1  2  1  0  0  0  0
  2  3  1  0  0  0  0
  2  4  1  0  0  0  0
  2  5  1  0  0  0  0
  5  6  2  0  0  0  0
  5  7  1  0  0  0  0
  7  8  1  0  0  0  0
  7  9  1  0  0  0  0
  9 10  1  0  0  0  0
  9 11  1  0  0  0  0
  9 25  1  0  0  0  0
 11 12  1  0  0  0  0
 11 13  1  0  0  0  0
 11 14  1  0  0  0  0
 14 15  1  0  0  0  0
 14 23  2  0  0  0  0
 15 16  1  0  0  0  0
 15 17  2  0  0  0  0
 17 18  1  0  0  0  0
 17 19  1  0  0  0  0
 19 20  1  0  0  0  0
 19 21  2  0  0  0  0
 21 22  1  0  0  0  0
 21 23  1  0  0  0  0
 23 24  1  0  0  0  0
 25 26  2  0  0  0  0
 25 27  1  0  0  0  0
 27 28  1  0  0  0  0
 27 29  1  0  0  0  0
 29 30  1  0  0  0  0
 29 31  1  0  0  0  0
 29 32  1  0  0  0  0
M  END
$$$$

  -OEChem-04042216033D

 32 32  0     1  0  0  0  0  0999 V2000
   -3.6326   -3.9752    1.8031 H   0  0  0  0  0  0  0  0  0  0  0  0
   -3.6736   -3.0761    1.1819 C   0  0  0  0  0  0  0  0  0  0  0  0
   -4.3868   -2.3754    1.6227 H   0  0  0  0  0  0  0  0  0  0  0  0
   -4.0156   -3.3535    0.1818 H   0  0  0  0  0  0  0  0  0  0  0  0
   -2.3010   -2.4355    1.0980 C   0  0  0  0  0  0  0  0  0  0  0  0
   -1.3465   -2.9608    1.6505 O   0  0  0  0  0  0  0  0  0  0  0  0
   -2.1378   -1.2615    0.3934 N   0  0  0  0  0  0  0  0  0  0  0  0
   -2.9706   -0.8310   -0.0017 H   0  0  0  0  0  0  0  0  0  0  0  0
   -0.8712   -0.5235    0.2683 C   0  0  1  0  0  0  0  0  0  0  0  0
   -0.2119   -0.8387    1.0831 H   0  0  0  0  0  0  0  0  0  0  0  0
   -0.1290   -0.8593   -1.0462 C   0  0  0  0  0  0  0  0  0  0  0  0
    0.6936   -0.1476   -1.1680 H   0  0  0  0  0  0  0  0  0  0  0  0
    0.3214   -1.8470   -0.9006 H   0  0  0  0  0  0  0  0  0  0  0  0
   -0.8974   -0.9133   -2.3611 C   0  0  0  0  0  0  0  0  0  0  0  0
   -2.1905   -0.3926   -2.5616 C   0  0  0  0  0  0  0  0  0  0  0  0
   -2.7247    0.1186   -1.7718 H   0  0  0  0  0  0  0  0  0  0  0  0
   -2.8250   -0.4989   -3.8038 C   0  0  0  0  0  0  0  0  0  0  0  0
   -3.8195   -0.0839   -3.9387 H   0  0  0  0  0  0  0  0  0  0  0  0
   -2.1804   -1.1293   -4.8698 C   0  0  0  0  0  0  0  0  0  0  0  0
   -2.6733   -1.2098   -5.8342 H   0  0  0  0  0  0  0  0  0  0  0  0
   -0.8978   -1.6506   -4.6913 C   0  0  0  0  0  0  0  0  0  0  0  0
   -0.3910   -2.1410   -5.5173 H   0  0  0  0  0  0  0  0  0  0  0  0
   -0.2654   -1.5403   -3.4485 C   0  0  0  0  0  0  0  0  0  0  0  0
    0.7321   -1.9526   -3.3290 H   0  0  0  0  0  0  0  0  0  0  0  0
   -1.0557    0.9951    0.4784 C   0  0  0  0  0  0  0  0  0  0  0  0
   -2.0641    1.5677    0.0823 O   0  0  0  0  0  0  0  0  0  0  0  0
   -0.1671    1.6944    1.2758 N   0  0  0  0  0  0  0  0  0  0  0  0
    0.6067    1.1778    1.6839 H   0  0  0  0  0  0  0  0  0  0  0  0
   -0.3464    3.0953    1.6390 C   0  0  0  0  0  0  0  0  0  0  0  0
   -1.2805    3.2307    2.1944 H   0  0  0  0  0  0  0  0  0  0  0  0
    0.4824    3.4315    2.2693 H   0  0  0  0  0  0  0  0  0  0  0  0
   -0.3748    3.7230    0.7419 H   0  0  0  0  0  0  0  0  0  0  0  0
  1  2  1  0  0  0  0
  2  3  1  0  0  0  0
  2  4  1  0  0  0  0
  2  5  1  0  0  0  0
  5  6  2  0  0  0  0
  5  7  1  0  0  0  0
  7  8  1  0  0  0  0
  7  9  1  0  0  0  0
  9 10  1  0  0  0  0
  9 11  1  0  0  0  0
  9 25  1  0  0  0  0
 11 12  1  0  0  0  0
 11 13  1  0  0  0  0
 11 14  1  0  0  0  0
 14 15  1  0  0  0  0
 14 23  2  0  0  0  0
 15 16  1  0  0  0  0
 15 17  2  0  0  0  0
 17 18  1  0  0  0  0
 17 19  1  0  0  0  0
 19 20  1  0  0  0  0
 19 21  2  0  0  0  0
 21 22  1  0  0  0  0
 21 23  1  0  0  0  0
 23 24  1  0  0  0  0
 25 26  2  0  0  0  0
 25 27  1  0  0  0  0
 27 28  1  0  0  0  0
 27 29  1  0  0  0  0
 29 30  1  0  0  0  0
 29 31  1  0  0  0  0
 29 32  1  0  0  0  0
M  END
$$$$

  -OEChem-04042216033D

 32 32  0     1  0  0  0  0  0999 V2000
   -3.6382   -3.9670    1.6715 H   0  0  0  0  0  0  0  0  0  0  0  0
   -3.6719   -3.0589    1.0633 C   0  0  0  0  0  0  0  0  0  0  0  0
   -4.4046   -2.3728    1.4950 H   0  0  0  0  0  0  0  0  0  0  0  0
   -3.9832   -3.3243    0.0499 H   0  0  0  0  0  0  0  0  0  0  0  0
   -2.3051   -2.4017    1.0272 C   0  0  0  0  0  0  0  0  0  0  0  0
   -1.3579   -2.9275    1.5920 O   0  0  0  0  0  0  0  0  0  0  0  0
   -2.1392   -1.2134    0.3482 N   0  0  0  0  0  0  0  0  0  0  0  0
   -2.9622   -0.7999   -0.0847 H   0  0  0  0  0  0  0  0  0  0  0  0
   -0.8770   -0.4663    0.2456 C   0  0  1  0  0  0  0  0  0  0  0  0
   -0.2374   -0.7886    1.0734 H   0  0  0  0  0  0  0  0  0  0  0  0
   -0.1094   -0.8363   -1.0431 C   0  0  0  0  0  0  0  0  0  0  0  0
    0.7066   -0.1199   -1.1801 H   0  0  0  0  0  0  0  0  0  0  0  0
    0.3503   -1.8135   -0.8608 H   0  0  0  0  0  0  0  0  0  0  0  0
   -0.8793   -0.9257   -2.3546 C   0  0  0  0  0  0  0  0  0  0  0  0
   -2.0248   -0.1661   -2.6568 C   0  0  0  0  0  0  0  0  0  0  0  0
   -2.4242    0.5583   -1.9607 H   0  0  0  0  0  0  0  0  0  0  0  0
   -2.6843   -0.3139   -3.8817 C   0  0  0  0  0  0  0  0  0  0  0  0
   -3.5642    0.2855   -4.0963 H   0  0  0  0  0  0  0  0  0  0  0  0
   -2.2118   -1.2248   -4.8283 C   0  0  0  0  0  0  0  0  0  0  0  0
   -2.7242   -1.3385   -5.7793 H   0  0  0  0  0  0  0  0  0  0  0  0
   -1.0754   -1.9855   -4.5479 C   0  0  0  0  0  0  0  0  0  0  0  0
   -0.7024   -2.6945   -5.2808 H   0  0  0  0  0  0  0  0  0  0  0  0
   -0.4173   -1.8338   -3.3230 C   0  0  0  0  0  0  0  0  0  0  0  0
    0.4643   -2.4362   -3.1249 H   0  0  0  0  0  0  0  0  0  0  0  0
   -1.0419    1.0514    0.4800 C   0  0  0  0  0  0  0  0  0  0  0  0
   -2.0589    1.6389    0.1313 O   0  0  0  0  0  0  0  0  0  0  0  0
   -0.1437    1.7209    1.2924 N   0  0  0  0  0  0  0  0  0  0  0  0
    0.6327    1.1880    1.6740 H   0  0  0  0  0  0  0  0  0  0  0  0
   -0.3234    3.1037    1.7190 C   0  0  0  0  0  0  0  0  0  0  0  0
   -1.2475    3.2091    2.2970 H   0  0  0  0  0  0  0  0  0  0  0  0
    0.5153    3.4180    2.3474 H   0  0  0  0  0  0  0  0  0  0  0  0
   -0.3728    3.7690    0.8507 H   0  0  0  0  0  0  0  0  0  0  0  0
  1  2  1  0  0  0  0
  2  3  1  0  0  0  0
  2  4  1  0  0  0  0
  2  5  1  0  0  0  0
  5  6  2  0  0  0  0
  5  7  1  0  0  0  0
  7  8  1  0  0  0  0
  7  9  1  0  0  0  0
  9 10  1  0  0  0  0
  9 11  1  0  0  0  0
  9 25  1  0  0  0  0
 11 12  1  0  0  0  0
 11 13  1  0  0  0  0
 11 14  1  0  0  0  0
 14 15  1  0  0  0  0
 14 23  2  0  0  0  0
 15 16  1  0  0  0  0
 15 17  2  0  0  0  0
 17 18  1  0  0  0  0
 17 19  1  0  0  0  0
 19 20  1  0  0  0  0
 19 21  2  0  0  0  0
 21 22  1  0  0  0  0
 21 23  1  0  0  0  0
 23 24  1  0  0  0  0
 25 26  2  0  0  0  0
 25 27  1  0  0  0  0
 27 28  1  0  0  0  0
 27 29  1  0  0  0  0
 29 30  1  0  0  0  0
 29 31  1  0  0  0  0
 29 32  1  0  0  0  0
M  END
$$$$

  -OEChem-04042216033D

 32 32  0     1  0  0  0  0  0999 V2000
   -3.6578   -3.9601    1.5718 H   0  0  0  0  0  0  0  0  0  0  0  0
   -3.6732   -3.0465    0.9712 C   0  0  0  0  0  0  0  0  0  0  0  0
   -4.4192   -2.3642    1.3855 H   0  0  0  0  0  0  0  0  0  0  0  0
   -3.9524   -3.3025   -0.0538 H   0  0  0  0  0  0  0  0  0  0  0  0
   -2.3070   -2.3880    0.9834 C   0  0  0  0  0  0  0  0  0  0  0  0
   -1.3802   -2.9119    1.5829 O   0  0  0  0  0  0  0  0  0  0  0  0
   -2.1167   -1.2033    0.3052 N   0  0  0  0  0  0  0  0  0  0  0  0
   -2.9205   -0.7949   -0.1678 H   0  0  0  0  0  0  0  0  0  0  0  0
   -0.8500   -0.4613    0.2366 C   0  0  1  0  0  0  0  0  0  0  0  0
   -0.2329   -0.7798    1.0828 H   0  0  0  0  0  0  0  0  0  0  0  0
   -0.0567   -0.8521   -1.0305 C   0  0  0  0  0  0  0  0  0  0  0  0
    0.7630   -0.1394   -1.1651 H   0  0  0  0  0  0  0  0  0  0  0  0
    0.3995   -1.8273   -0.8315 H   0  0  0  0  0  0  0  0  0  0  0  0
   -0.8260   -0.9406   -2.3411 C   0  0  0  0  0  0  0  0  0  0  0  0
   -1.7541    0.0279   -2.7624 C   0  0  0  0  0  0  0  0  0  0  0  0
   -1.9322    0.9255   -2.1859 H   0  0  0  0  0  0  0  0  0  0  0  0
   -2.4585   -0.1230   -3.9616 C   0  0  0  0  0  0  0  0  0  0  0  0
   -3.1648    0.6416   -4.2718 H   0  0  0  0  0  0  0  0  0  0  0  0
   -2.2506   -1.2487   -4.7607 C   0  0  0  0  0  0  0  0  0  0  0  0
   -2.7976   -1.3651   -5.6915 H   0  0  0  0  0  0  0  0  0  0  0  0
   -1.3332   -2.2212   -4.3587 C   0  0  0  0  0  0  0  0  0  0  0  0
   -1.1668   -3.0986   -4.9764 H   0  0  0  0  0  0  0  0  0  0  0  0
   -0.6291   -2.0666   -3.1597 C   0  0  0  0  0  0  0  0  0  0  0  0
    0.0740   -2.8395   -2.8635 H   0  0  0  0  0  0  0  0  0  0  0  0
   -1.0281    1.0556    0.4612 C   0  0  0  0  0  0  0  0  0  0  0  0
   -2.0439    1.6333    0.0925 O   0  0  0  0  0  0  0  0  0  0  0  0
   -0.1575    1.7311    1.2981 N   0  0  0  0  0  0  0  0  0  0  0  0
    0.6073    1.2014    1.7064 H   0  0  0  0  0  0  0  0  0  0  0  0
   -0.3599    3.1113    1.7225 C   0  0  0  0  0  0  0  0  0  0  0  0
   -1.3000    3.2090    2.2757 H   0  0  0  0  0  0  0  0  0  0  0  0
    0.4594    3.4297    2.3740 H   0  0  0  0  0  0  0  0  0  0  0  0
   -0.3904    3.7781    0.8544 H   0  0  0  0  0  0  0  0  0  0  0  0
  1  2  1  0  0  0  0
  2  3  1  0  0  0  0
  2  4  1  0  0  0  0
  2  5  1  0  0  0  0
  5  6  2  0  0  0  0
  5  7  1  0  0  0  0
  7  8  1  0  0  0  0
  7  9  1  0  0  0  0
  9 10  1  0  0  0  0
  9 11  1  0  0  0  0
  9 25  1  0  0  0  0
 11 12  1  0  0  0  0
 11 13  1  0  0  0  0
 11 14  1  0  0  0  0
 14 15  1  0  0  0  0
 14 23  2  0  0  0  0
 15 16  1  0  0  0  0
 15 17  2  0  0  0  0
 17 18  1  0  0  0  0
 17 19  1  0  0  0  0
 19 20  1  0  0  0  0
 19 21  2  0  0  0  0
 21 22  1  0  0  0  0
 21 23  1  0  0  0  0
 23 24  1  0  0  0  0
 25 26  2  0  0  0  0
 25 27  1  0  0  0  0
 27 28  1  0  0  0  0
 27 29  1  0  0  0  0
 29 30  1  0  0  0  0
 29 31  1  0  0  0  0
 29 32  1  0  0  0  0
M  END
$$$$

  -OEChem-04042216033D

 32 32  0     1  0  0  0  0  0999 V2000
   -3.6832   -3.9632    1.5321 H   0  0  0  0  0  0  0  0  0  0  0  0
   -3.6749   -3.0553    0.9227 C   0  0  0  0  0  0  0  0  0  0  0  0
   -4.4337   -2.3676    1.3038 H   0  0  0  0  0  0  0  0  0  0  0  0
   -3.9184   -3.3202   -0.1091 H   0  0  0  0  0  0  0  0  0  0  0  0
   -2.3083   -2.3993    0.9774 C   0  0  0  0  0  0  0  0  0  0  0  0
   -1.4087   -2.9113    1.6267 O   0  0  0  0  0  0  0  0  0  0  0  0
   -2.0834   -1.2339    0.2770 N   0  0  0  0  0  0  0  0  0  0  0  0
   -2.8618   -0.8379   -0.2472 H   0  0  0  0  0  0  0  0  0  0  0  0
   -0.8121   -0.4970    0.2428 C   0  0  1  0  0  0  0  0  0  0  0  0
   -0.2163   -0.7994    1.1096 H   0  0  0  0  0  0  0  0  0  0  0  0
    0.0045   -0.8969   -1.0056 C   0  0  0  0  0  0  0  0  0  0  0  0
    0.8302   -0.1900   -1.1336 H   0  0  0  0  0  0  0  0  0  0  0  0
    0.4527   -1.8758   -0.8070 H   0  0  0  0  0  0  0  0  0  0  0  0
   -0.7742   -0.9695   -2.3076 C   0  0  0  0  0  0  0  0  0  0  0  0
   -1.4415    0.1429   -2.8457 C   0  0  0  0  0  0  0  0  0  0  0  0
   -1.3750    1.1148   -2.3700 H   0  0  0  0  0  0  0  0  0  0  0  0
   -2.1875    0.0306   -4.0234 C   0  0  0  0  0  0  0  0  0  0  0  0
   -2.6926    0.9035   -4.4263 H   0  0  0  0  0  0  0  0  0  0  0  0
   -2.2801   -1.1989   -4.6799 C   0  0  0  0  0  0  0  0  0  0  0  0
   -2.8584   -1.2850   -5.5951 H   0  0  0  0  0  0  0  0  0  0  0  0
   -1.6252   -2.3158   -4.1555 C   0  0  0  0  0  0  0  0  0  0  0  0
   -1.6963   -3.2739   -4.6616 H   0  0  0  0  0  0  0  0  0  0  0  0
   -0.8807   -2.2006   -2.9766 C   0  0  0  0  0  0  0  0  0  0  0  0
   -0.3885   -3.0821   -2.5769 H   0  0  0  0  0  0  0  0  0  0  0  0
   -1.0146    1.0225    0.4202 C   0  0  0  0  0  0  0  0  0  0  0  0
   -2.0012    1.5842   -0.0418 O   0  0  0  0  0  0  0  0  0  0  0  0
   -0.1913    1.7316    1.2766 N   0  0  0  0  0  0  0  0  0  0  0  0
    0.5463    1.2185    1.7509 H   0  0  0  0  0  0  0  0  0  0  0  0
   -0.4202    3.1260    1.6364 C   0  0  0  0  0  0  0  0  0  0  0  0
   -1.3868    3.2380    2.1388 H   0  0  0  0  0  0  0  0  0  0  0  0
    0.3646    3.4759    2.3140 H   0  0  0  0  0  0  0  0  0  0  0  0
   -0.4116    3.7588    0.7426 H   0  0  0  0  0  0  0  0  0  0  0  0
  1  2  1  0  0  0  0
  2  3  1  0  0  0  0
  2  4  1  0  0  0  0
  2  5  1  0  0  0  0
  5  6  2  0  0  0  0
  5  7  1  0  0  0  0
  7  8  1  0  0  0  0
  7  9  1  0  0  0  0
  9 10  1  0  0  0  0
  9 11  1  0  0  0  0
  9 25  1  0  0  0  0
 11 12  1  0  0  0  0
 11 13  1  0  0  0  0
 11 14  1  0  0  0  0
 14 15  1  0  0  0  0
 14 23  2  0  0  0  0
 15 16  1  0  0  0  0
 15 17  2  0  0  0  0
 17 18  1  0  0  0  0
 17 19  1  0  0  0  0
 19 20  1  0  0  0  0
 19 21  2  0  0  0  0
 21 22  1  0  0  0  0
 21 23  1  0  0  0  0
 23 24  1  0  0  0  0
 25 26  2  0  0  0  0
 25 27  1  0  0  0  0
 27 28  1  0  0  0  0
 27 29  1  0  0  0  0
 29 30  1  0  0  0  0
 29 31  1  0  0  0  0
 29 32  1  0  0  0  0
M  END
$$$$

  -OEChem-04042216033D

 32 32  0     1  0  0  0  0  0999 V2000
   -3.7092   -3.9716    1.5588 H   0  0  0  0  0  0  0  0  0  0  0  0
   -3.6834   -3.0758    0.9322 C   0  0  0  0  0  0  0  0  0  0  0  0
   -4.4517   -2.3805    1.2791 H   0  0  0  0  0  0  0  0  0  0  0  0
   -3.8992   -3.3606   -0.1005 H   0  0  0  0  0  0  0  0  0  0  0  0
   -2.3180   -2.4198    1.0113 C   0  0  0  0  0  0  0  0  0  0  0  0
   -1.4408   -2.9119    1.7046 O   0  0  0  0  0  0  0  0  0  0  0  0
   -2.0687   -1.2776    0.2824 N   0  0  0  0  0  0  0  0  0  0  0  0
   -2.8274   -0.9003   -0.2835 H   0  0  0  0  0  0  0  0  0  0  0  0
   -0.7956   -0.5433    0.2610 C   0  0  1  0  0  0  0  0  0  0  0  0
   -0.2096   -0.8277    1.1408 H   0  0  0  0  0  0  0  0  0  0  0  0
    0.0320   -0.9366   -0.9805 C   0  0  0  0  0  0  0  0  0  0  0  0
    0.8619   -0.2331   -1.1021 H   0  0  0  0  0  0  0  0  0  0  0  0
    0.4742   -1.9210   -0.7958 H   0  0  0  0  0  0  0  0  0  0  0  0
   -0.7648   -0.9909   -2.2686 C   0  0  0  0  0  0  0  0  0  0  0  0
   -1.1661    0.1794   -2.9312 C   0  0  0  0  0  0  0  0  0  0  0  0
   -0.8994    1.1544   -2.5345 H   0  0  0  0  0  0  0  0  0  0  0  0
   -1.9204    0.1094   -4.1071 C   0  0  0  0  0  0  0  0  0  0  0  0
   -2.2289    1.0236   -4.6055 H   0  0  0  0  0  0  0  0  0  0  0  0
   -2.2795   -1.1335   -4.6362 C   0  0  0  0  0  0  0  0  0  0  0  0
   -2.8645   -1.1873   -5.5495 H   0  0  0  0  0  0  0  0  0  0  0  0
   -1.8856   -2.3060   -3.9856 C   0  0  0  0  0  0  0  0  0  0  0  0
   -2.1640   -3.2735   -4.3925 H   0  0  0  0  0  0  0  0  0  0  0  0
   -1.1338   -2.2337   -2.8083 C   0  0  0  0  0  0  0  0  0  0  0  0
   -0.8393   -3.1517   -2.3082 H   0  0  0  0  0  0  0  0  0  0  0  0
   -1.0112    0.9790    0.3854 C   0  0  0  0  0  0  0  0  0  0  0  0
   -1.9562    1.5279   -0.1692 O   0  0  0  0  0  0  0  0  0  0  0  0
   -0.2188    1.7216    1.2424 N   0  0  0  0  0  0  0  0  0  0  0  0
    0.4946    1.2271    1.7704 H   0  0  0  0  0  0  0  0  0  0  0  0
   -0.4462    3.1346    1.5206 C   0  0  0  0  0  0  0  0  0  0  0  0
   -1.4360    3.2832    1.9651 H   0  0  0  0  0  0  0  0  0  0  0  0
    0.3071    3.5082    2.2207 H   0  0  0  0  0  0  0  0  0  0  0  0
   -0.3821    3.7218    0.5986 H   0  0  0  0  0  0  0  0  0  0  0  0
  1  2  1  0  0  0  0
  2  3  1  0  0  0  0
  2  4  1  0  0  0  0
  2  5  1  0  0  0  0
  5  6  2  0  0  0  0
  5  7  1  0  0  0  0
  7  8  1  0  0  0  0
  7  9  1  0  0  0  0
  9 10  1  0  0  0  0
  9 11  1  0  0  0  0
  9 25  1  0  0  0  0
 11 12  1  0  0  0  0
 11 13  1  0  0  0  0
 11 14  1  0  0  0  0
 14 15  1  0  0  0  0
 14 23  2  0  0  0  0
 15 16  1  0  0  0  0
 15 17  2  0  0  0  0
 17 18  1  0  0  0  0
 17 19  1  0  0  0  0
 19 20  1  0  0  0  0
 19 21  2  0  0  0  0
 21 22  1  0  0  0  0
 21 23  1  0  0  0  0
 23 24  1  0  0  0  0
 25 26  2  0  0  0  0
 25 27  1  0  0  0  0
 27 28  1  0  0  0  0
 27 29  1  0  0  0  0
 29 30  1  0  0  0  0
 29 31  1  0  0  0  0
 29 32  1  0  0  0  0
M  END
$$$$

  -OEChem-04042216033D

 32 32  0     1  0  0  0  0  0999 V2000
   -3.7290   -3.9714    1.6548 H   0  0  0  0  0  0  0  0  0  0  0  0
   -3.6996   -3.0897    1.0088 C   0  0  0  0  0  0  0  0  0  0  0  0
   -4.4589   -2.3801    1.3460 H   0  0  0  0  0  0  0  0  0  0  0  0
   -3.9262   -3.3949   -0.0155 H   0  0  0  0  0  0  0  0  0  0  0  0
   -2.3275   -2.4450    1.0644 C   0  0  0  0  0  0  0  0  0  0  0  0
   -1.4502   -2.9304    1.7619 O   0  0  0  0  0  0  0  0  0  0  0  0
   -2.0713   -1.3204    0.3107 N   0  0  0  0  0  0  0  0  0  0  0  0
   -2.8303   -0.9437   -0.2555 H   0  0  0  0  0  0  0  0  0  0  0  0
   -0.7955   -0.5903    0.2806 C   0  0  1  0  0  0  0  0  0  0  0  0
   -0.2034   -0.8621    1.1602 H   0  0  0  0  0  0  0  0  0  0  0  0
    0.0297   -0.9632   -0.9680 C   0  0  0  0  0  0  0  0  0  0  0  0
    0.8634   -0.2625   -1.0792 H   0  0  0  0  0  0  0  0  0  0  0  0
    0.4664   -1.9539   -0.8061 H   0  0  0  0  0  0  0  0  0  0  0  0
   -0.7794   -0.9972   -2.2471 C   0  0  0  0  0  0  0  0  0  0  0  0
   -0.9170    0.1541   -3.0363 C   0  0  0  0  0  0  0  0  0  0  0  0
   -0.4658    1.0893   -2.7179 H   0  0  0  0  0  0  0  0  0  0  0  0
   -1.6541    0.1183   -4.2245 C   0  0  0  0  0  0  0  0  0  0  0  0
   -1.7631    1.0202   -4.8193 H   0  0  0  0  0  0  0  0  0  0  0  0
   -2.2528   -1.0743   -4.6410 C   0  0  0  0  0  0  0  0  0  0  0  0
   -2.8251   -1.1008   -5.5635 H   0  0  0  0  0  0  0  0  0  0  0  0
   -2.1125   -2.2309   -3.8682 C   0  0  0  0  0  0  0  0  0  0  0  0
   -2.5719   -3.1598   -4.1927 H   0  0  0  0  0  0  0  0  0  0  0  0
   -1.3775   -2.1919   -2.6785 C   0  0  0  0  0  0  0  0  0  0  0  0
   -1.2699   -3.0951   -2.0851 H   0  0  0  0  0  0  0  0  0  0  0  0
   -1.0230    0.9327    0.3696 C   0  0  0  0  0  0  0  0  0  0  0  0
   -1.9416    1.4667   -0.2410 O   0  0  0  0  0  0  0  0  0  0  0  0
   -0.2444    1.7033    1.2144 N   0  0  0  0  0  0  0  0  0  0  0  0
    0.4516    1.2256    1.7796 H   0  0  0  0  0  0  0  0  0  0  0  0
   -0.4562    3.1314    1.4167 C   0  0  0  0  0  0  0  0  0  0  0  0
   -1.4477    3.3151    1.8438 H   0  0  0  0  0  0  0  0  0  0  0  0
    0.2962    3.5322    2.1028 H   0  0  0  0  0  0  0  0  0  0  0  0
   -0.3766    3.6684    0.4656 H   0  0  0  0  0  0  0  0  0  0  0  0
  1  2  1  0  0  0  0
  2  3  1  0  0  0  0
  2  4  1  0  0  0  0
  2  5  1  0  0  0  0
  5  6  2  0  0  0  0
  5  7  1  0  0  0  0
  7  8  1  0  0  0  0
  7  9  1  0  0  0  0
  9 10  1  0  0  0  0
  9 11  1  0  0  0  0
  9 25  1  0  0  0  0
 11 12  1  0  0  0  0
 11 13  1  0  0  0  0
 11 14  1  0  0  0  0
 14 15  1  0  0  0  0
 14 23  2  0  0  0  0
 15 16  1  0  0  0  0
 15 17  2  0  0  0  0
 17 18  1  0  0  0  0
 17 19  1  0  0  0  0
 19 20  1  0  0  0  0
 19 21  2  0  0  0  0
 21 22  1  0  0  0  0
 21 23  1  0  0  0  0
 23 24  1  0  0  0  0
 25 26  2  0  0  0  0
 25 27  1  0  0  0  0
 27 28  1  0  0  0  0
 27 29  1  0  0  0  0
 29 30  1  0  0  0  0
 29 31  1  0  0  0  0
 29 32  1  0  0  0  0
M  END
$$$$

  -OEChem-04042216033D

 32 32  0     1  0  0  0  0  0999 V2000
   -3.7444   -3.9447    1.7857 H   0  0  0  0  0  0  0  0  0  0  0  0
   -3.7206   -3.0774    1.1198 C   0  0  0  0  0  0  0  0  0  0  0  0
   -4.4539   -2.3457    1.4677 H   0  0  0  0  0  0  0  0  0  0  0  0
   -3.9884   -3.3996    0.1107 H   0  0  0  0  0  0  0  0  0  0  0  0
   -2.3353   -2.4589    1.1149 C   0  0  0  0  0  0  0  0  0  0  0  0
   -1.4394   -2.9594    1.7769 O   0  0  0  0  0  0  0  0  0  0  0  0
   -2.0891   -1.3403    0.3488 N   0  0  0  0  0  0  0  0  0  0  0  0
   -2.8662   -0.9407   -0.1761 H   0  0  0  0  0  0  0  0  0  0  0  0
   -0.8105   -0.6178    0.2899 C   0  0  1  0  0  0  0  0  0  0  0  0
   -0.2027   -0.8885    1.1590 H   0  0  0  0  0  0  0  0  0  0  0  0
    0.0027   -0.9648   -0.9756 C   0  0  0  0  0  0  0  0  0  0  0  0
    0.8391   -0.2652   -1.0751 H   0  0  0  0  0  0  0  0  0  0  0  0
    0.4376   -1.9597   -0.8367 H   0  0  0  0  0  0  0  0  0  0  0  0
   -0.8082   -0.9829   -2.2551 C   0  0  0  0  0  0  0  0  0  0  0  0
   -0.7003    0.0707   -3.1753 C   0  0  0  0  0  0  0  0  0  0  0  0
   -0.0804    0.9325   -2.9470 H   0  0  0  0  0  0  0  0  0  0  0  0
   -1.4075    0.0379   -4.3821 C   0  0  0  0  0  0  0  0  0  0  0  0
   -1.3304    0.8683   -5.0776 H   0  0  0  0  0  0  0  0  0  0  0  0
   -2.2139   -1.0610   -4.6919 C   0  0  0  0  0  0  0  0  0  0  0  0
   -2.7622   -1.0860   -5.6290 H   0  0  0  0  0  0  0  0  0  0  0  0
   -2.3068   -2.1298   -3.7961 C   0  0  0  0  0  0  0  0  0  0  0  0
   -2.9211   -2.9911   -4.0404 H   0  0  0  0  0  0  0  0  0  0  0  0
   -1.6014   -2.0931   -2.5888 C   0  0  0  0  0  0  0  0  0  0  0  0
   -1.6645   -2.9362   -1.9075 H   0  0  0  0  0  0  0  0  0  0  0  0
   -1.0430    0.9040    0.3752 C   0  0  0  0  0  0  0  0  0  0  0  0
   -1.9745    1.4289   -0.2235 O   0  0  0  0  0  0  0  0  0  0  0  0
   -0.2522    1.6823    1.2012 N   0  0  0  0  0  0  0  0  0  0  0  0
    0.4645    1.2129    1.7471 H   0  0  0  0  0  0  0  0  0  0  0  0
   -0.4504    3.1154    1.3803 C   0  0  0  0  0  0  0  0  0  0  0  0
   -1.4467    3.3172    1.7873 H   0  0  0  0  0  0  0  0  0  0  0  0
    0.2944    3.5166    2.0740 H   0  0  0  0  0  0  0  0  0  0  0  0
   -0.3479    3.6378    0.4234 H   0  0  0  0  0  0  0  0  0  0  0  0
  1  2  1  0  0  0  0
  2  3  1  0  0  0  0
  2  4  1  0  0  0  0
  2  5  1  0  0  0  0
  5  6  2  0  0  0  0
  5  7  1  0  0  0  0
  7  8  1  0  0  0  0
  7  9  1  0  0  0  0
  9 10  1  0  0  0  0
  9 11  1  0  0  0  0
  9 25  1  0  0  0  0
 11 12  1  0  0  0  0
 11 13  1  0  0  0  0
 11 14  1  0  0  0  0
 14 15  1  0  0  0  0
 14 23  2  0  0  0  0
 15 16  1  0  0  0  0
 15 17  2  0  0  0  0
 17 18  1  0  0  0  0
 17 19  1  0  0  0  0
 19 20  1  0  0  0  0
 19 21  2  0  0  0  0
 21 22  1  0  0  0  0
 21 23  1  0  0  0  0
 23 24  1  0  0  0  0
 25 26  2  0  0  0  0
 25 27  1  0  0  0  0
 27 28  1  0  0  0  0
 27 29  1  0  0  0  0
 29 30  1  0  0  0  0
 29 31  1  0  0  0  0
 29 32  1  0  0  0  0
M  END
$$$$

  -OEChem-04042216033D

 32 32  0     1  0  0  0  0  0999 V2000
   -3.7426   -3.9037    1.9344 H   0  0  0  0  0  0  0  0  0  0  0  0
   -3.7352   -3.0410    1.2622 C   0  0  0  0  0  0  0  0  0  0  0  0
   -4.4290   -2.2892    1.6464 H   0  0  0  0  0  0  0  0  0  0  0  0
   -4.0683   -3.3619    0.2723 H   0  0  0  0  0  0  0  0  0  0  0  0
   -2.3374   -2.4579    1.1744 C   0  0  0  0  0  0  0  0  0  0  0  0
   -1.4179   -2.9776    1.7872 O   0  0  0  0  0  0  0  0  0  0  0  0
   -2.1094   -1.3428    0.3973 N   0  0  0  0  0  0  0  0  0  0  0  0
   -2.9108   -0.9071   -0.0577 H   0  0  0  0  0  0  0  0  0  0  0  0
   -0.8261   -0.6354    0.2892 C   0  0  1  0  0  0  0  0  0  0  0  0
   -0.1932   -0.9083    1.1394 H   0  0  0  0  0  0  0  0  0  0  0  0
   -0.0378   -0.9626   -1.0010 C   0  0  0  0  0  0  0  0  0  0  0  0
    0.8013   -0.2652   -1.0909 H   0  0  0  0  0  0  0  0  0  0  0  0
    0.3949   -1.9610   -0.8805 H   0  0  0  0  0  0  0  0  0  0  0  0
   -0.8393   -0.9714   -2.2910 C   0  0  0  0  0  0  0  0  0  0  0  0
   -0.4960   -0.0842   -3.3244 C   0  0  0  0  0  0  0  0  0  0  0  0
    0.2844    0.6550   -3.1719 H   0  0  0  0  0  0  0  0  0  0  0  0
   -1.1661   -0.1168   -4.5520 C   0  0  0  0  0  0  0  0  0  0  0  0
   -0.9054    0.5933   -5.3309 H   0  0  0  0  0  0  0  0  0  0  0  0
   -2.1690   -1.0628   -4.7768 C   0  0  0  0  0  0  0  0  0  0  0  0
   -2.6898   -1.0881   -5.7295 H   0  0  0  0  0  0  0  0  0  0  0  0
   -2.4880   -1.9855   -3.7776 C   0  0  0  0  0  0  0  0  0  0  0  0
   -3.2497   -2.7379   -3.9583 H   0  0  0  0  0  0  0  0  0  0  0  0
   -1.8163   -1.9489   -2.5508 C   0  0  0  0  0  0  0  0  0  0  0  0
   -2.0480   -2.7015   -1.8049 H   0  0  0  0  0  0  0  0  0  0  0  0
   -1.0579    0.8862    0.3836 C   0  0  0  0  0  0  0  0  0  0  0  0
   -2.0248    1.4036   -0.1638 O   0  0  0  0  0  0  0  0  0  0  0  0
   -0.2391    1.6673    1.1793 N   0  0  0  0  0  0  0  0  0  0  0  0
    0.5022    1.2008    1.6942 H   0  0  0  0  0  0  0  0  0  0  0  0
   -0.4573    3.0928    1.3933 C   0  0  0  0  0  0  0  0  0  0  0  0
   -1.4336    3.2654    1.8583 H   0  0  0  0  0  0  0  0  0  0  0  0
    0.3165    3.4999    2.0513 H   0  0  0  0  0  0  0  0  0  0  0  0
   -0.4200    3.6330    0.4413 H   0  0  0  0  0  0  0  0  0  0  0  0
  1  2  1  0  0  0  0
  2  3  1  0  0  0  0
  2  4  1  0  0  0  0
  2  5  1  0  0  0  0
  5  6  2  0  0  0  0
  5  7  1  0  0  0  0
  7  8  1  0  0  0  0
  7  9  1  0  0  0  0
  9 10  1  0  0  0  0
  9 11  1  0  0  0  0
  9 25  1  0  0  0  0
 11 12  1  0  0  0  0
 11 13  1  0  0  0  0
 11 14  1  0  0  0  0
 14 15  1  0  0  0  0
 14 23  2  0  0  0  0
 15 16  1  0  0  0  0
 15 17  2  0  0  0  0
 17 18  1  0  0  0  0
 17 19  1  0  0  0  0
 19 20  1  0  0  0  0
 19 21  2  0  0  0  0
 21 22  1  0  0  0  0
 21 23  1  0  0  0  0
 23 24  1  0  0  0  0
 25 26  2  0  0  0  0
 25 27  1  0  0  0  0
 27 28  1  0  0  0  0
 27 29  1  0  0  0  0
 29 30  1  0  0  0  0
 29 31  1  0  0  0  0
 29 32  1  0  0  0  0
M  END
$$$$

  -OEChem-04042216033D

 32 32  0     1  0  0  0  0  0999 V2000
   -3.7037   -3.8860    2.0845 H   0  0  0  0  0  0  0  0  0  0  0  0
   -3.7229   -3.0318    1.4019 C   0  0  0  0  0  0  0  0  0  0  0  0
   -4.3908   -2.2696    1.8106 H   0  0  0  0  0  0  0  0  0  0  0  0
   -4.1069   -3.3625    0.4339 H   0  0  0  0  0  0  0  0  0  0  0  0
   -2.3266   -2.4623    1.2368 C   0  0  0  0  0  0  0  0  0  0  0  0
   -1.3786   -2.9984    1.7891 O   0  0  0  0  0  0  0  0  0  0  0  0
   -2.1328   -1.3433    0.4550 N   0  0  0  0  0  0  0  0  0  0  0  0
   -2.9576   -0.8772    0.0783 H   0  0  0  0  0  0  0  0  0  0  0  0
   -0.8518   -0.6448    0.2914 C   0  0  1  0  0  0  0  0  0  0  0  0
   -0.1885   -0.9221    1.1169 H   0  0  0  0  0  0  0  0  0  0  0  0
   -0.0971   -0.9514   -1.0267 C   0  0  0  0  0  0  0  0  0  0  0  0
    0.7404   -0.2513   -1.1092 H   0  0  0  0  0  0  0  0  0  0  0  0
    0.3383   -1.9502   -0.9207 H   0  0  0  0  0  0  0  0  0  0  0  0
   -0.8802   -0.9588   -2.3338 C   0  0  0  0  0  0  0  0  0  0  0  0
   -0.3255   -0.2981   -3.4445 C   0  0  0  0  0  0  0  0  0  0  0  0
    0.5967    0.2652   -3.3394 H   0  0  0  0  0  0  0  0  0  0  0  0
   -0.9502   -0.3294   -4.6957 C   0  0  0  0  0  0  0  0  0  0  0  0
   -0.5163    0.2103   -5.5322 H   0  0  0  0  0  0  0  0  0  0  0  0
   -2.1281   -1.0573   -4.8698 C   0  0  0  0  0  0  0  0  0  0  0  0
   -2.6157   -1.0828   -5.8397 H   0  0  0  0  0  0  0  0  0  0  0  0
   -2.6653   -1.7685   -3.7957 C   0  0  0  0  0  0  0  0  0  0  0  0
   -3.5651   -2.3602   -3.9348 H   0  0  0  0  0  0  0  0  0  0  0  0
   -2.0365   -1.7346   -2.5459 C   0  0  0  0  0  0  0  0  0  0  0  0
   -2.4533   -2.3481   -1.7578 H   0  0  0  0  0  0  0  0  0  0  0  0
   -1.0816    0.8757    0.4078 C   0  0  0  0  0  0  0  0  0  0  0  0
   -2.0811    1.3907   -0.0807 O   0  0  0  0  0  0  0  0  0  0  0  0
   -0.2293    1.6545    1.1701 N   0  0  0  0  0  0  0  0  0  0  0  0
    0.5423    1.1894    1.6394 H   0  0  0  0  0  0  0  0  0  0  0  0
   -0.4452    3.0767    1.4080 C   0  0  0  0  0  0  0  0  0  0  0  0
   -1.4014    3.2394    1.9164 H   0  0  0  0  0  0  0  0  0  0  0  0
    0.3541    3.4813    2.0363 H   0  0  0  0  0  0  0  0  0  0  0  0
   -0.4515    3.6267    0.4611 H   0  0  0  0  0  0  0  0  0  0  0  0
  1  2  1  0  0  0  0
  2  3  1  0  0  0  0
  2  4  1  0  0  0  0
  2  5  1  0  0  0  0
  5  6  2  0  0  0  0
  5  7  1  0  0  0  0
  7  8  1  0  0  0  0
  7  9  1  0  0  0  0
  9 10  1  0  0  0  0
  9 11  1  0  0  0  0
  9 25  1  0  0  0  0
 11 12  1  0  0  0  0
 11 13  1  0  0  0  0
 11 14  1  0  0  0  0
 14 15  1  0  0  0  0
 14 23  2  0  0  0  0
 15 16  1  0  0  0  0
 15 17  2  0  0  0  0
 17 18  1  0  0  0  0
 17 19  1  0  0  0  0
 19 20  1  0  0  0  0
 19 21  2  0  0  0  0
 21 22  1  0  0  0  0
 21 23  1  0  0  0  0
 23 24  1  0  0  0  0
 25 26  2  0  0  0  0
 25 27  1  0  0  0  0
 27 28  1  0  0  0  0
 27 29  1  0  0  0  0
 29 30  1  0  0  0  0
 29 31  1  0  0  0  0
 29 32  1  0  0  0  0
M  END
$$$$

  -OEChem-04042216033D

 32 32  0     1  0  0  0  0  0999 V2000
   -3.6385   -3.8903    2.2155 H   0  0  0  0  0  0  0  0  0  0  0  0
   -3.6864   -3.0433    1.5253 C   0  0  0  0  0  0  0  0  0  0  0  0
   -4.3277   -2.2720    1.9584 H   0  0  0  0  0  0  0  0  0  0  0  0
   -4.1201   -3.3812    0.5811 H   0  0  0  0  0  0  0  0  0  0  0  0
   -2.2965   -2.4865    1.2842 C   0  0  0  0  0  0  0  0  0  0  0  0
   -1.3247   -3.0303    1.7853 O   0  0  0  0  0  0  0  0  0  0  0  0
   -2.1373   -1.3641    0.4994 N   0  0  0  0  0  0  0  0  0  0  0  0
   -2.9793   -0.8745    0.1988 H   0  0  0  0  0  0  0  0  0  0  0  0
   -0.8650   -0.6632    0.2913 C   0  0  1  0  0  0  0  0  0  0  0  0
   -0.1743   -0.9394    1.0945 H   0  0  0  0  0  0  0  0  0  0  0  0
   -0.1453   -0.9556   -1.0504 C   0  0  0  0  0  0  0  0  0  0  0  0
    0.6848   -0.2467   -1.1360 H   0  0  0  0  0  0  0  0  0  0  0  0
    0.3005   -1.9504   -0.9511 H   0  0  0  0  0  0  0  0  0  0  0  0
   -0.9088   -0.9710   -2.3738 C   0  0  0  0  0  0  0  0  0  0  0  0
   -0.1893   -0.5942   -3.5231 C   0  0  0  0  0  0  0  0  0  0  0  0
    0.8453   -0.2764   -3.4368 H   0  0  0  0  0  0  0  0  0  0  0  0
   -0.7769   -0.6066   -4.7921 C   0  0  0  0  0  0  0  0  0  0  0  0
   -0.2021   -0.2980   -5.6601 H   0  0  0  0  0  0  0  0  0  0  0  0
   -2.1010   -1.0175   -4.9433 C   0  0  0  0  0  0  0  0  0  0  0  0
   -2.5621   -1.0263   -5.9264 H   0  0  0  0  0  0  0  0  0  0  0  0
   -2.8261   -1.4280   -3.8245 C   0  0  0  0  0  0  0  0  0  0  0  0
   -3.8521   -1.7642   -3.9397 H   0  0  0  0  0  0  0  0  0  0  0  0
   -2.2341   -1.4169   -2.5564 C   0  0  0  0  0  0  0  0  0  0  0  0
   -2.8404   -1.7799   -1.7406 H   0  0  0  0  0  0  0  0  0  0  0  0
   -1.1031    0.8544    0.4238 C   0  0  0  0  0  0  0  0  0  0  0  0
   -2.1316    1.3583   -0.0141 O   0  0  0  0  0  0  0  0  0  0  0  0
   -0.2305    1.6374    1.1580 N   0  0  0  0  0  0  0  0  0  0  0  0
    0.5699    1.1800    1.5850 H   0  0  0  0  0  0  0  0  0  0  0  0
   -0.4514    3.0557    1.4127 C   0  0  0  0  0  0  0  0  0  0  0  0
   -1.3922    3.2060    1.9525 H   0  0  0  0  0  0  0  0  0  0  0  0
    0.3638    3.4629    2.0184 H   0  0  0  0  0  0  0  0  0  0  0  0
   -0.4932    3.6122    0.4704 H   0  0  0  0  0  0  0  0  0  0  0  0
  1  2  1  0  0  0  0
  2  3  1  0  0  0  0
  2  4  1  0  0  0  0
  2  5  1  0  0  0  0
  5  6  2  0  0  0  0
  5  7  1  0  0  0  0
  7  8  1  0  0  0  0
  7  9  1  0  0  0  0
  9 10  1  0  0  0  0
  9 11  1  0  0  0  0
  9 25  1  0  0  0  0
 11 12  1  0  0  0  0
 11 13  1  0  0  0  0
 11 14  1  0  0  0  0
 14 15  1  0  0  0  0
 14 23  2  0  0  0  0
 15 16  1  0  0  0  0
 15 17  2  0  0  0  0
 17 18  1  0  0  0  0
 17 19  1  0  0  0  0
 19 20  1  0  0  0  0
 19 21  2  0  0  0  0
 21 22  1  0  0  0  0
 21 23  1  0  0  0  0
 23 24  1  0  0  0  0
 25 26  2  0  0  0  0
 25 27  1  0  0  0  0
 27 28  1  0  0  0  0
 27 29  1  0  0  0  0
 29 30  1  0  0  0  0
 29 31  1  0  0  0  0
 29 32  1  0  0  0  0
M  END
$$$$

  -OEChem-04042216033D

 32 32  0     1  0  0  0  0  0999 V2000
   -3.5807   -3.9498    2.2094 H   0  0  0  0  0  0  0  0  0  0  0  0
   -3.6494   -3.0859    1.5424 C   0  0  0  0  0  0  0  0  0  0  0  0
   -4.2853   -2.3300    2.0093 H   0  0  0  0  0  0  0  0  0  0  0  0
   -4.1034   -3.4028    0.6003 H   0  0  0  0  0  0  0  0  0  0  0  0
   -2.2681   -2.5149    1.2839 C   0  0  0  0  0  0  0  0  0  0  0  0
   -1.2856   -3.0466    1.7775 O   0  0  0  0  0  0  0  0  0  0  0  0
   -2.1290   -1.3897    0.4992 N   0  0  0  0  0  0  0  0  0  0  0  0
   -2.9802   -0.8998    0.2292 H   0  0  0  0  0  0  0  0  0  0  0  0
   -0.8633   -0.6730    0.2911 C   0  0  1  0  0  0  0  0  0  0  0  0
   -0.1652   -0.9423    1.0904 H   0  0  0  0  0  0  0  0  0  0  0  0
   -0.1606   -0.9787   -1.0551 C   0  0  0  0  0  0  0  0  0  0  0  0
    0.6631   -0.2651   -1.1623 H   0  0  0  0  0  0  0  0  0  0  0  0
    0.2914   -1.9695   -0.9436 H   0  0  0  0  0  0  0  0  0  0  0  0
   -0.9227   -1.0145   -2.3782 C   0  0  0  0  0  0  0  0  0  0  0  0
   -0.1386   -0.9802   -3.5455 C   0  0  0  0  0  0  0  0  0  0  0  0
    0.9445   -0.9693   -3.4679 H   0  0  0  0  0  0  0  0  0  0  0  0
   -0.7184   -0.9728   -4.8182 C   0  0  0  0  0  0  0  0  0  0  0  0
   -0.0884   -0.9579   -5.7026 H   0  0  0  0  0  0  0  0  0  0  0  0
   -2.1069   -0.9798   -4.9509 C   0  0  0  0  0  0  0  0  0  0  0  0
   -2.5622   -0.9700   -5.9370 H   0  0  0  0  0  0  0  0  0  0  0  0
   -2.9075   -0.9846   -3.8079 C   0  0  0  0  0  0  0  0  0  0  0  0
   -3.9887   -0.9692   -3.9054 H   0  0  0  0  0  0  0  0  0  0  0  0
   -2.3237   -0.9936   -2.5358 C   0  0  0  0  0  0  0  0  0  0  0  0
   -3.0003   -0.9578   -1.6953 H   0  0  0  0  0  0  0  0  0  0  0  0
   -1.1114    0.8430    0.4244 C   0  0  0  0  0  0  0  0  0  0  0  0
   -2.1496    1.3366   -0.0031 O   0  0  0  0  0  0  0  0  0  0  0  0
   -0.2435    1.6317    1.1581 N   0  0  0  0  0  0  0  0  0  0  0  0
    0.5653    1.1813    1.5764 H   0  0  0  0  0  0  0  0  0  0  0  0
   -0.4750    3.0474    1.4180 C   0  0  0  0  0  0  0  0  0  0  0  0
   -1.4123    3.1880    1.9666 H   0  0  0  0  0  0  0  0  0  0  0  0
    0.3417    3.4608    2.0176 H   0  0  0  0  0  0  0  0  0  0  0  0
   -0.5297    3.6050    0.4771 H   0  0  0  0  0  0  0  0  0  0  0  0
  1  2  1  0  0  0  0
  2  3  1  0  0  0  0
  2  4  1  0  0  0  0
  2  5  1  0  0  0  0
  5  6  2  0  0  0  0
  5  7  1  0  0  0  0
  7  8  1  0  0  0  0
  7  9  1  0  0  0  0
  9 10  1  0  0  0  0
  9 11  1  0  0  0  0
  9 25  1  0  0  0  0
 11 12  1  0  0  0  0
 11 13  1  0  0  0  0
 11 14  1  0  0  0  0
 14 15  1  0  0  0  0
 14 23  2  0  0  0  0
 15 16  1  0  0  0  0
 15 17  2  0  0  0  0
 17 18  1  0  0  0  0
 17 19  1  0  0  0  0
 19 20  1  0  0  0  0
 19 21  2  0  0  0  0
 21 22  1  0  0  0  0
 21 23  1  0  0  0  0
 23 24  1  0  0  0  0
 25 26  2  0  0  0  0
 25 27  1  0  0  0  0
 27 28  1  0  0  0  0
 27 29  1  0  0  0  0
 29 30  1  0  0  0  0
 29 31  1  0  0  0  0
 29 32  1  0  0  0  0
M  END
$$$$

  -OEChem-04042216033D

 32 32  0     1  0  0  0  0  0999 V2000
   -3.5712   -3.9723    1.8831 H   0  0  0  0  0  0  0  0  0  0  0  0
   -3.6404   -3.0846    1.2481 C   0  0  0  0  0  0  0  0  0  0  0  0
   -4.3185   -2.3678    1.7177 H   0  0  0  0  0  0  0  0  0  0  0  0
   -4.0452   -3.3763    0.2759 H   0  0  0  0  0  0  0  0  0  0  0  0
   -2.2691   -2.4611    1.0702 C   0  0  0  0  0  0  0  0  0  0  0  0
   -1.2837   -3.0089    1.5401 O   0  0  0  0  0  0  0  0  0  0  0  0
   -2.1438   -1.2714    0.3841 N   0  0  0  0  0  0  0  0  0  0  0  0
   -3.0021   -0.8061    0.0963 H   0  0  0  0  0  0  0  0  0  0  0  0
   -0.8928   -0.5096    0.2468 C   0  0  1  0  0  0  0  0  0  0  0  0
   -0.2270   -0.8296    1.0547 H   0  0  0  0  0  0  0  0  0  0  0  0
   -0.1495   -0.8442   -1.0646 C   0  0  0  0  0  0  0  0  0  0  0  0
    0.7908   -0.2840   -1.0632 H   0  0  0  0  0  0  0  0  0  0  0  0
    0.1105   -1.9072   -1.0216 H   0  0  0  0  0  0  0  0  0  0  0  0
   -0.8251   -0.6019   -2.4072 C   0  0  0  0  0  0  0  0  0  0  0  0
   -0.0884   -0.9293   -3.5579 C   0  0  0  0  0  0  0  0  0  0  0  0
    0.9165   -1.3285   -3.4587 H   0  0  0  0  0  0  0  0  0  0  0  0
   -0.6228   -0.7524   -4.8384 C   0  0  0  0  0  0  0  0  0  0  0  0
   -0.0343   -1.0107   -5.7138 H   0  0  0  0  0  0  0  0  0  0  0  0
   -1.9139   -0.2441   -4.9905 C   0  0  0  0  0  0  0  0  0  0  0  0
   -2.3320   -0.1041   -5.9831 H   0  0  0  0  0  0  0  0  0  0  0  0
   -2.6652    0.0833   -3.8600 C   0  0  0  0  0  0  0  0  0  0  0  0
   -3.6696    0.4808   -3.9725 H   0  0  0  0  0  0  0  0  0  0  0  0
   -2.1276   -0.0962   -2.5805 C   0  0  0  0  0  0  0  0  0  0  0  0
   -2.7513    0.1699   -1.7378 H   0  0  0  0  0  0  0  0  0  0  0  0
   -1.0825    1.0037    0.4871 C   0  0  0  0  0  0  0  0  0  0  0  0
   -2.1306    1.5600    0.1802 O   0  0  0  0  0  0  0  0  0  0  0  0
   -0.1781    1.6921    1.2764 N   0  0  0  0  0  0  0  0  0  0  0  0
    0.6315    1.1828    1.6187 H   0  0  0  0  0  0  0  0  0  0  0  0
   -0.3706    3.0737    1.7010 C   0  0  0  0  0  0  0  0  0  0  0  0
   -1.2937    3.1716    2.2820 H   0  0  0  0  0  0  0  0  0  0  0  0
    0.4665    3.3974    2.3268 H   0  0  0  0  0  0  0  0  0  0  0  0
   -0.4285    3.7366    0.8313 H   0  0  0  0  0  0  0  0  0  0  0  0
  1  2  1  0  0  0  0
  2  3  1  0  0  0  0
  2  4  1  0  0  0  0
  2  5  1  0  0  0  0
  5  6  2  0  0  0  0
  5  7  1  0  0  0  0
  7  8  1  0  0  0  0
  7  9  1  0  0  0  0
  9 10  1  0  0  0  0
  9 11  1  0  0  0  0
  9 25  1  0  0  0  0
 11 12  1  0  0  0  0
 11 13  1  0  0  0  0
 11 14  1  0  0  0  0
 14 15  1  0  0  0  0
 14 23  2  0  0  0  0
 15 16  1  0  0  0  0
 15 17  2  0  0  0  0
 17 18  1  0  0  0  0
 17 19  1  0  0  0  0
 19 20  1  0  0  0  0
 19 21  2  0  0  0  0
 21 22  1  0  0  0  0
 21 23  1  0  0  0  0
 23 24  1  0  0  0  0
 25 26  2  0  0  0  0
 25 27  1  0  0  0  0
 27 28  1  0  0  0  0
 27 29  1  0  0  0  0
 29 30  1  0  0  0  0
 29 31  1  0  0  0  0
 29 32  1  0  0  0  0
M  END
$$$$

  -OEChem-04042216033D

 32 32  0     1  0  0  0  0  0999 V2000
   -3.5541   -4.0022    1.7299 H   0  0  0  0  0  0  0  0  0  0  0  0
   -3.6336   -3.0800    1.1474 C   0  0  0  0  0  0  0  0  0  0  0  0
   -4.3278   -2.4037    1.6519 H   0  0  0  0  0  0  0  0  0  0  0  0
   -4.0250   -3.3207    0.1559 H   0  0  0  0  0  0  0  0  0  0  0  0
   -2.2720   -2.4237    1.0182 C   0  0  0  0  0  0  0  0  0  0  0  0
   -1.2836   -2.9729    1.4805 O   0  0  0  0  0  0  0  0  0  0  0  0
   -2.1576   -1.2103    0.3726 N   0  0  0  0  0  0  0  0  0  0  0  0
   -3.0166   -0.7638    0.0584 H   0  0  0  0  0  0  0  0  0  0  0  0
   -0.9136   -0.4377    0.2394 C   0  0  1  0  0  0  0  0  0  0  0  0
   -0.2521   -0.7741    1.0443 H   0  0  0  0  0  0  0  0  0  0  0  0
   -0.1628   -0.7932   -1.0622 C   0  0  0  0  0  0  0  0  0  0  0  0
    0.7740   -0.2277   -1.0732 H   0  0  0  0  0  0  0  0  0  0  0  0
    0.1051   -1.8530   -0.9911 H   0  0  0  0  0  0  0  0  0  0  0  0
   -0.8364   -0.5835   -2.4114 C   0  0  0  0  0  0  0  0  0  0  0  0
   -0.2483   -1.2139   -3.5216 C   0  0  0  0  0  0  0  0  0  0  0  0
    0.6527   -1.8061   -3.3918 H   0  0  0  0  0  0  0  0  0  0  0  0
   -0.7986   -1.0949   -4.8020 C   0  0  0  0  0  0  0  0  0  0  0  0
   -0.3248   -1.5886   -5.6451 H   0  0  0  0  0  0  0  0  0  0  0  0
   -1.9578   -0.3421   -4.9951 C   0  0  0  0  0  0  0  0  0  0  0  0
   -2.3882   -0.2460   -5.9875 H   0  0  0  0  0  0  0  0  0  0  0  0
   -2.5639    0.2840   -3.9046 C   0  0  0  0  0  0  0  0  0  0  0  0
   -3.4689    0.8672   -4.0473 H   0  0  0  0  0  0  0  0  0  0  0  0
   -2.0109    0.1618   -2.6251 C   0  0  0  0  0  0  0  0  0  0  0  0
   -2.5297    0.6554   -1.8166 H   0  0  0  0  0  0  0  0  0  0  0  0
   -1.0738    1.0719    0.5285 C   0  0  0  0  0  0  0  0  0  0  0  0
   -2.1298    1.6490    0.2973 O   0  0  0  0  0  0  0  0  0  0  0  0
   -0.1399    1.7194    1.3186 N   0  0  0  0  0  0  0  0  0  0  0  0
    0.6734    1.1885    1.6165 H   0  0  0  0  0  0  0  0  0  0  0  0
   -0.3098    3.0800    1.8152 C   0  0  0  0  0  0  0  0  0  0  0  0
   -1.1935    3.1460    2.4585 H   0  0  0  0  0  0  0  0  0  0  0  0
    0.5654    3.3816    2.3985 H   0  0  0  0  0  0  0  0  0  0  0  0
   -0.4268    3.7803    0.9816 H   0  0  0  0  0  0  0  0  0  0  0  0
  1  2  1  0  0  0  0
  2  3  1  0  0  0  0
  2  4  1  0  0  0  0
  2  5  1  0  0  0  0
  5  6  2  0  0  0  0
  5  7  1  0  0  0  0
  7  8  1  0  0  0  0
  7  9  1  0  0  0  0
  9 10  1  0  0  0  0
  9 11  1  0  0  0  0
  9 25  1  0  0  0  0
 11 12  1  0  0  0  0
 11 13  1  0  0  0  0
 11 14  1  0  0  0  0
 14 15  1  0  0  0  0
 14 23  2  0  0  0  0
 15 16  1  0  0  0  0
 15 17  2  0  0  0  0
 17 18  1  0  0  0  0
 17 19  1  0  0  0  0
 19 20  1  0  0  0  0
 19 21  2  0  0  0  0
 21 22  1  0  0  0  0
 21 23  1  0  0  0  0
 23 24  1  0  0  0  0
 25 26  2  0  0  0  0
 25 27  1  0  0  0  0
 27 28  1  0  0  0  0
 27 29  1  0  0  0  0
 29 30  1  0  0  0  0
 29 31  1  0  0  0  0
 29 32  1  0  0  0  0
M  END
$$$$

  -OEChem-04042216033D

 32 32  0     1  0  0  0  0  0999 V2000
   -3.5855   -3.9523    1.7247 H   0  0  0  0  0  0  0  0  0  0  0  0
   -3.6535   -3.0194    1.1582 C   0  0  0  0  0  0  0  0  0  0  0  0
   -4.3251   -2.3362    1.6836 H   0  0  0  0  0  0  0  0  0  0  0  0
   -4.0654   -3.2360    0.1695 H   0  0  0  0  0  0  0  0  0  0  0  0
   -2.2804   -2.3895    1.0185 C   0  0  0  0  0  0  0  0  0  0  0  0
   -1.2981   -2.9564    1.4727 O   0  0  0  0  0  0  0  0  0  0  0  0
   -2.1490   -1.1784    0.3724 N   0  0  0  0  0  0  0  0  0  0  0  0
   -3.0015   -0.7194    0.0569 H   0  0  0  0  0  0  0  0  0  0  0  0
   -0.8956   -0.4245    0.2287 C   0  0  1  0  0  0  0  0  0  0  0  0
   -0.2349   -0.7637    1.0328 H   0  0  0  0  0  0  0  0  0  0  0  0
   -0.1623   -0.8206   -1.0723 C   0  0  0  0  0  0  0  0  0  0  0  0
    0.7816   -0.2680   -1.1072 H   0  0  0  0  0  0  0  0  0  0  0  0
    0.0933   -1.8815   -0.9779 H   0  0  0  0  0  0  0  0  0  0  0  0
   -0.8538   -0.6209   -2.4145 C   0  0  0  0  0  0  0  0  0  0  0  0
   -0.5202   -1.5122   -3.4500 C   0  0  0  0  0  0  0  0  0  0  0  0
    0.1858   -2.3170   -3.2672 H   0  0  0  0  0  0  0  0  0  0  0  0
   -1.0863   -1.3938   -4.7235 C   0  0  0  0  0  0  0  0  0  0  0  0
   -0.8188   -2.0992   -5.5046 H   0  0  0  0  0  0  0  0  0  0  0  0
   -1.9940   -0.3682   -4.9902 C   0  0  0  0  0  0  0  0  0  0  0  0
   -2.4367   -0.2726   -5.9773 H   0  0  0  0  0  0  0  0  0  0  0  0
   -2.3230    0.5400   -3.9829 C   0  0  0  0  0  0  0  0  0  0  0  0
   -3.0202    1.3474   -4.1864 H   0  0  0  0  0  0  0  0  0  0  0  0
   -1.7531    0.4196   -2.7110 C   0  0  0  0  0  0  0  0  0  0  0  0
   -2.0298    1.1644   -1.9806 H   0  0  0  0  0  0  0  0  0  0  0  0
   -1.0471    1.0843    0.5213 C   0  0  0  0  0  0  0  0  0  0  0  0
   -2.1163    1.6523    0.3280 O   0  0  0  0  0  0  0  0  0  0  0  0
   -0.1065    1.7293    1.3056 N   0  0  0  0  0  0  0  0  0  0  0  0
    0.7098    1.1977    1.5940 H   0  0  0  0  0  0  0  0  0  0  0  0
   -0.2916    3.0741    1.8390 C   0  0  0  0  0  0  0  0  0  0  0  0
   -1.1455    3.0999    2.5242 H   0  0  0  0  0  0  0  0  0  0  0  0
    0.6014    3.3908    2.3865 H   0  0  0  0  0  0  0  0  0  0  0  0
   -0.4690    3.7877    1.0272 H   0  0  0  0  0  0  0  0  0  0  0  0
  1  2  1  0  0  0  0
  2  3  1  0  0  0  0
  2  4  1  0  0  0  0
  2  5  1  0  0  0  0
  5  6  2  0  0  0  0
  5  7  1  0  0  0  0
  7  8  1  0  0  0  0
  7  9  1  0  0  0  0
  9 10  1  0  0  0  0
  9 11  1  0  0  0  0
  9 25  1  0  0  0  0
 11 12  1  0  0  0  0
 11 13  1  0  0  0  0
 11 14  1  0  0  0  0
 14 15  1  0  0  0  0
 14 23  2  0  0  0  0
 15 16  1  0  0  0  0
 15 17  2  0  0  0  0
 17 18  1  0  0  0  0
 17 19  1  0  0  0  0
 19 20  1  0  0  0  0
 19 21  2  0  0  0  0
 21 22  1  0  0  0  0
 21 23  1  0  0  0  0
 23 24  1  0  0  0  0
 25 26  2  0  0  0  0
 25 27  1  0  0  0  0
 27 28  1  0  0  0  0
 27 29  1  0  0  0  0
 29 30  1  0  0  0  0
 29 31  1  0  0  0  0
 29 32  1  0  0  0  0
M  END
$$$$

  -OEChem-04042216033D

 32 32  0     1  0  0  0  0  0999 V2000
   -3.5943   -3.9779    1.6852 H   0  0  0  0  0  0  0  0  0  0  0  0
   -3.6458   -3.0554    1.1006 C   0  0  0  0  0  0  0  0  0  0  0  0
   -4.3487   -2.3714    1.5824 H   0  0  0  0  0  0  0  0  0  0  0  0
   -4.0085   -3.2924    0.0975 H   0  0  0  0  0  0  0  0  0  0  0  0
   -2.2743   -2.4132    1.0145 C   0  0  0  0  0  0  0  0  0  0  0  0
   -1.3082   -2.9618    1.5230 O   0  0  0  0  0  0  0  0  0  0  0  0
   -2.1228   -1.2140    0.3518 N   0  0  0  0  0  0  0  0  0  0  0  0
   -2.9615   -0.7688   -0.0172 H   0  0  0  0  0  0  0  0  0  0  0  0
   -0.8673   -0.4581    0.2442 C   0  0  1  0  0  0  0  0  0  0  0  0
   -0.2182   -0.7841    1.0633 H   0  0  0  0  0  0  0  0  0  0  0  0
   -0.1225   -0.8539   -1.0504 C   0  0  0  0  0  0  0  0  0  0  0  0
    0.8221   -0.3020   -1.0830 H   0  0  0  0  0  0  0  0  0  0  0  0
    0.1336   -1.9151   -0.9646 H   0  0  0  0  0  0  0  0  0  0  0  0
   -0.8332   -0.6256   -2.3758 C   0  0  0  0  0  0  0  0  0  0  0  0
   -0.8001   -1.6546   -3.3337 C   0  0  0  0  0  0  0  0  0  0  0  0
   -0.3271   -2.6031   -3.0974 H   0  0  0  0  0  0  0  0  0  0  0  0
   -1.3845   -1.4917   -4.5940 C   0  0  0  0  0  0  0  0  0  0  0  0
   -1.3652   -2.3071   -5.3108 H   0  0  0  0  0  0  0  0  0  0  0  0
   -1.9880   -0.2791   -4.9315 C   0  0  0  0  0  0  0  0  0  0  0  0
   -2.4419   -0.1479   -5.9092 H   0  0  0  0  0  0  0  0  0  0  0  0
   -1.9899    0.7707   -4.0114 C   0  0  0  0  0  0  0  0  0  0  0  0
   -2.4368    1.7249   -4.2753 H   0  0  0  0  0  0  0  0  0  0  0  0
   -1.4047    0.6034   -2.7517 C   0  0  0  0  0  0  0  0  0  0  0  0
   -1.3919    1.4608   -2.0920 H   0  0  0  0  0  0  0  0  0  0  0  0
   -1.0614    1.0497    0.5067 C   0  0  0  0  0  0  0  0  0  0  0  0
   -2.1170    1.6020    0.2161 O   0  0  0  0  0  0  0  0  0  0  0  0
   -0.1697    1.7266    1.3202 N   0  0  0  0  0  0  0  0  0  0  0  0
    0.6354    1.2120    1.6656 H   0  0  0  0  0  0  0  0  0  0  0  0
   -0.3913    3.0862    1.7984 C   0  0  0  0  0  0  0  0  0  0  0  0
   -1.2944    3.1335    2.4159 H   0  0  0  0  0  0  0  0  0  0  0  0
    0.4584    3.4176    2.4028 H   0  0  0  0  0  0  0  0  0  0  0  0
   -0.5037    3.7754    0.9551 H   0  0  0  0  0  0  0  0  0  0  0  0
  1  2  1  0  0  0  0
  2  3  1  0  0  0  0
  2  4  1  0  0  0  0
  2  5  1  0  0  0  0
  5  6  2  0  0  0  0
  5  7  1  0  0  0  0
  7  8  1  0  0  0  0
  7  9  1  0  0  0  0
  9 10  1  0  0  0  0
  9 11  1  0  0  0  0
  9 25  1  0  0  0  0
 11 12  1  0  0  0  0
 11 13  1  0  0  0  0
 11 14  1  0  0  0  0
 14 15  1  0  0  0  0
 14 23  2  0  0  0  0
 15 16  1  0  0  0  0
 15 17  2  0  0  0  0
 17 18  1  0  0  0  0
 17 19  1  0  0  0  0
 19 20  1  0  0  0  0
 19 21  2  0  0  0  0
 21 22  1  0  0  0  0
 21 23  1  0  0  0  0
 23 24  1  0  0  0  0
 25 26  2  0  0  0  0
 25 27  1  0  0  0  0
 27 28  1  0  0  0  0
 27 29  1  0  0  0  0
 29 30  1  0  0  0  0
 29 31  1  0  0  0  0
 29 32  1  0  0  0  0
M  END
$$$$

  -OEChem-04042216033D

 32 32  0     1  0  0  0  0  0999 V2000
   -3.6318   -3.9845    1.6423 H   0  0  0  0  0  0  0  0  0  0  0  0
   -3.6574   -3.0705    1.0425 C   0  0  0  0  0  0  0  0  0  0  0  0
   -4.3812   -2.3803    1.4824 H   0  0  0  0  0  0  0  0  0  0  0  0
   -3.9750   -3.3228    0.0280 H   0  0  0  0  0  0  0  0  0  0  0  0
   -2.2837   -2.4279    1.0084 C   0  0  0  0  0  0  0  0  0  0  0  0
   -1.3438   -2.9629    1.5764 O   0  0  0  0  0  0  0  0  0  0  0  0
   -2.0988   -1.2459    0.3237 N   0  0  0  0  0  0  0  0  0  0  0  0
   -2.9145   -0.8164   -0.1101 H   0  0  0  0  0  0  0  0  0  0  0  0
   -0.8379   -0.4939    0.2556 C   0  0  1  0  0  0  0  0  0  0  0  0
   -0.2110   -0.8085    1.0959 H   0  0  0  0  0  0  0  0  0  0  0  0
   -0.0687   -0.8845   -1.0239 C   0  0  0  0  0  0  0  0  0  0  0  0
    0.8789   -0.3373   -1.0419 H   0  0  0  0  0  0  0  0  0  0  0  0
    0.1813   -1.9482   -0.9541 H   0  0  0  0  0  0  0  0  0  0  0  0
   -0.7887   -0.6224   -2.3340 C   0  0  0  0  0  0  0  0  0  0  0  0
   -1.0629   -1.7013   -3.1913 C   0  0  0  0  0  0  0  0  0  0  0  0
   -0.8086   -2.7132   -2.8908 H   0  0  0  0  0  0  0  0  0  0  0  0
   -1.6764   -1.4971   -4.4318 C   0  0  0  0  0  0  0  0  0  0  0  0
   -1.8948   -2.3439   -5.0757 H   0  0  0  0  0  0  0  0  0  0  0  0
   -2.0043   -0.2033   -4.8437 C   0  0  0  0  0  0  0  0  0  0  0  0
   -2.4818   -0.0409   -5.8054 H   0  0  0  0  0  0  0  0  0  0  0  0
   -1.7046    0.8836   -4.0188 C   0  0  0  0  0  0  0  0  0  0  0  0
   -1.9438    1.8932   -4.3396 H   0  0  0  0  0  0  0  0  0  0  0  0
   -1.0896    0.6759   -2.7798 C   0  0  0  0  0  0  0  0  0  0  0  0
   -0.8450    1.5434   -2.1762 H   0  0  0  0  0  0  0  0  0  0  0  0
   -1.0498    1.0187    0.4717 C   0  0  0  0  0  0  0  0  0  0  0  0
   -2.0663    1.5720    0.0675 O   0  0  0  0  0  0  0  0  0  0  0  0
   -0.2027    1.7224    1.3093 N   0  0  0  0  0  0  0  0  0  0  0  0
    0.5652    1.2129    1.7372 H   0  0  0  0  0  0  0  0  0  0  0  0
   -0.4371    3.1050    1.7089 C   0  0  0  0  0  0  0  0  0  0  0  0
   -1.3800    3.1893    2.2594 H   0  0  0  0  0  0  0  0  0  0  0  0
    0.3736    3.4549    2.3552 H   0  0  0  0  0  0  0  0  0  0  0  0
   -0.4822    3.7560    0.8295 H   0  0  0  0  0  0  0  0  0  0  0  0
  1  2  1  0  0  0  0
  2  3  1  0  0  0  0
  2  4  1  0  0  0  0
  2  5  1  0  0  0  0
  5  6  2  0  0  0  0
  5  7  1  0  0  0  0
  7  8  1  0  0  0  0
  7  9  1  0  0  0  0
  9 10  1  0  0  0  0
  9 11  1  0  0  0  0
  9 25  1  0  0  0  0
 11 12  1  0  0  0  0
 11 13  1  0  0  0  0
 11 14  1  0  0  0  0
 14 15  1  0  0  0  0
 14 23  2  0  0  0  0
 15 16  1  0  0  0  0
 15 17  2  0  0  0  0
 17 18  1  0  0  0  0
 17 19  1  0  0  0  0
 19 20  1  0  0  0  0
 19 21  2  0  0  0  0
 21 22  1  0  0  0  0
 21 23  1  0  0  0  0
 23 24  1  0  0  0  0
 25 26  2  0  0  0  0
 25 27  1  0  0  0  0
 27 28  1  0  0  0  0
 27 29  1  0  0  0  0
 29 30  1  0  0  0  0
 29 31  1  0  0  0  0
 29 32  1  0  0  0  0
M  END
$$$$

  -OEChem-04042216033D

 32 32  0     1  0  0  0  0  0999 V2000
   -3.6802   -3.9592    1.6259 H   0  0  0  0  0  0  0  0  0  0  0  0
   -3.6768   -3.0570    1.0079 C   0  0  0  0  0  0  0  0  0  0  0  0
   -4.4045   -2.3491    1.4122 H   0  0  0  0  0  0  0  0  0  0  0  0
   -3.9673   -3.3255   -0.0107 H   0  0  0  0  0  0  0  0  0  0  0  0
   -2.2956   -2.4306    1.0035 C   0  0  0  0  0  0  0  0  0  0  0  0
   -1.3804   -2.9593    1.6157 O   0  0  0  0  0  0  0  0  0  0  0  0
   -2.0783   -1.2676    0.2974 N   0  0  0  0  0  0  0  0  0  0  0  0
   -2.8763   -0.8412   -0.1717 H   0  0  0  0  0  0  0  0  0  0  0  0
   -0.8127   -0.5227    0.2559 C   0  0  1  0  0  0  0  0  0  0  0  0
   -0.2064   -0.8262    1.1152 H   0  0  0  0  0  0  0  0  0  0  0  0
   -0.0179   -0.9108   -1.0060 C   0  0  0  0  0  0  0  0  0  0  0  0
    0.9325   -0.3684   -1.0073 H   0  0  0  0  0  0  0  0  0  0  0  0
    0.2250   -1.9768   -0.9490 H   0  0  0  0  0  0  0  0  0  0  0  0
   -0.7375   -0.6272   -2.3080 C   0  0  0  0  0  0  0  0  0  0  0  0
   -1.3010   -1.6872   -3.0361 C   0  0  0  0  0  0  0  0  0  0  0  0
   -1.2427   -2.7011   -2.6519 H   0  0  0  0  0  0  0  0  0  0  0  0
   -1.9469   -1.4534   -4.2547 C   0  0  0  0  0  0  0  0  0  0  0  0
   -2.3840   -2.2811   -4.8052 H   0  0  0  0  0  0  0  0  0  0  0  0
   -2.0289   -0.1545   -4.7639 C   0  0  0  0  0  0  0  0  0  0  0  0
   -2.5330    0.0306   -5.7078 H   0  0  0  0  0  0  0  0  0  0  0  0
   -1.4592    0.9071   -4.0554 C   0  0  0  0  0  0  0  0  0  0  0  0
   -1.5209    1.9182   -4.4464 H   0  0  0  0  0  0  0  0  0  0  0  0
   -0.8111    0.6704   -2.8384 C   0  0  0  0  0  0  0  0  0  0  0  0
   -0.3743    1.5075   -2.3025 H   0  0  0  0  0  0  0  0  0  0  0  0
   -1.0299    0.9947    0.4267 C   0  0  0  0  0  0  0  0  0  0  0  0
   -2.0135    1.5454   -0.0543 O   0  0  0  0  0  0  0  0  0  0  0  0
   -0.2125    1.7174    1.2775 N   0  0  0  0  0  0  0  0  0  0  0  0
    0.5251    1.2132    1.7612 H   0  0  0  0  0  0  0  0  0  0  0  0
   -0.4507    3.1138    1.6216 C   0  0  0  0  0  0  0  0  0  0  0  0
   -1.4166    3.2252    2.1255 H   0  0  0  0  0  0  0  0  0  0  0  0
    0.3336    3.4766    2.2928 H   0  0  0  0  0  0  0  0  0  0  0  0
   -0.4492    3.7365    0.7207 H   0  0  0  0  0  0  0  0  0  0  0  0
  1  2  1  0  0  0  0
  2  3  1  0  0  0  0
  2  4  1  0  0  0  0
  2  5  1  0  0  0  0
  5  6  2  0  0  0  0
  5  7  1  0  0  0  0
  7  8  1  0  0  0  0
  7  9  1  0  0  0  0
  9 10  1  0  0  0  0
  9 11  1  0  0  0  0
  9 25  1  0  0  0  0
 11 12  1  0  0  0  0
 11 13  1  0  0  0  0
 11 14  1  0  0  0  0
 14 15  1  0  0  0  0
 14 23  2  0  0  0  0
 15 16  1  0  0  0  0
 15 17  2  0  0  0  0
 17 18  1  0  0  0  0
 17 19  1  0  0  0  0
 19 20  1  0  0  0  0
 19 21  2  0  0  0  0
 21 22  1  0  0  0  0
 21 23  1  0  0  0  0
 23 24  1  0  0  0  0
 25 26  2  0  0  0  0
 25 27  1  0  0  0  0
 27 28  1  0  0  0  0
 27 29  1  0  0  0  0
 29 30  1  0  0  0  0
 29 31  1  0  0  0  0
 29 32  1  0  0  0  0
M  END
$$$$

  -OEChem-04042216033D

 32 32  0     1  0  0  0  0  0999 V2000
   -3.7134   -3.9420    1.6566 H   0  0  0  0  0  0  0  0  0  0  0  0
   -3.6968   -3.0511    1.0226 C   0  0  0  0  0  0  0  0  0  0  0  0
   -4.4209   -2.3299    1.4094 H   0  0  0  0  0  0  0  0  0  0  0  0
   -3.9831   -3.3349    0.0071 H   0  0  0  0  0  0  0  0  0  0  0  0
   -2.3088   -2.4388    1.0164 C   0  0  0  0  0  0  0  0  0  0  0  0
   -1.4051   -2.9633    1.6488 O   0  0  0  0  0  0  0  0  0  0  0  0
   -2.0716   -1.2933    0.2880 N   0  0  0  0  0  0  0  0  0  0  0  0
   -2.8614   -0.8630   -0.1915 H   0  0  0  0  0  0  0  0  0  0  0  0
   -0.8002   -0.5570    0.2546 C   0  0  1  0  0  0  0  0  0  0  0  0
   -0.2048   -0.8493    1.1254 H   0  0  0  0  0  0  0  0  0  0  0  0
    0.0145   -0.9350   -0.9975 C   0  0  0  0  0  0  0  0  0  0  0  0
    0.9689   -0.3996   -0.9785 H   0  0  0  0  0  0  0  0  0  0  0  0
    0.2482   -2.0039   -0.9545 H   0  0  0  0  0  0  0  0  0  0  0  0
   -0.6961   -0.6349   -2.2988 C   0  0  0  0  0  0  0  0  0  0  0  0
   -1.5203   -1.6037   -2.8920 C   0  0  0  0  0  0  0  0  0  0  0  0
   -1.6458   -2.5715   -2.4160 H   0  0  0  0  0  0  0  0  0  0  0  0
   -2.1840   -1.3357   -4.0940 C   0  0  0  0  0  0  0  0  0  0  0  0
   -2.8198   -2.0920   -4.5441 H   0  0  0  0  0  0  0  0  0  0  0  0
   -2.0293   -0.0931   -4.7149 C   0  0  0  0  0  0  0  0  0  0  0  0
   -2.5470    0.1190   -5.6456 H   0  0  0  0  0  0  0  0  0  0  0  0
   -1.2099    0.8789   -4.1333 C   0  0  0  0  0  0  0  0  0  0  0  0
   -1.0938    1.8481   -4.6091 H   0  0  0  0  0  0  0  0  0  0  0  0
   -0.5453    0.6079   -2.9324 C   0  0  0  0  0  0  0  0  0  0  0  0
    0.0780    1.3764   -2.4856 H   0  0  0  0  0  0  0  0  0  0  0  0
   -1.0223    0.9638    0.3878 C   0  0  0  0  0  0  0  0  0  0  0  0
   -1.9914    1.5030   -0.1339 O   0  0  0  0  0  0  0  0  0  0  0  0
   -0.2237    1.7072    1.2387 N   0  0  0  0  0  0  0  0  0  0  0  0
    0.5034    1.2153    1.7500 H   0  0  0  0  0  0  0  0  0  0  0  0
   -0.4663    3.1129    1.5403 C   0  0  0  0  0  0  0  0  0  0  0  0
   -1.4417    3.2389    2.0221 H   0  0  0  0  0  0  0  0  0  0  0  0
    0.3055    3.4927    2.2166 H   0  0  0  0  0  0  0  0  0  0  0  0
   -0.4461    3.7111    0.6232 H   0  0  0  0  0  0  0  0  0  0  0  0
  1  2  1  0  0  0  0
  2  3  1  0  0  0  0
  2  4  1  0  0  0  0
  2  5  1  0  0  0  0
  5  6  2  0  0  0  0
  5  7  1  0  0  0  0
  7  8  1  0  0  0  0
  7  9  1  0  0  0  0
  9 10  1  0  0  0  0
  9 11  1  0  0  0  0
  9 25  1  0  0  0  0
 11 12  1  0  0  0  0
 11 13  1  0  0  0  0
 11 14  1  0  0  0  0
 14 15  1  0  0  0  0
 14 23  2  0  0  0  0
 15 16  1  0  0  0  0
 15 17  2  0  0  0  0
 17 18  1  0  0  0  0
 17 19  1  0  0  0  0
 19 20  1  0  0  0  0
 19 21  2  0  0  0  0
 21 22  1  0  0  0  0
 21 23  1  0  0  0  0
 23 24  1  0  0  0  0
 25 26  2  0  0  0  0
 25 27  1  0  0  0  0
 27 28  1  0  0  0  0
 27 29  1  0  0  0  0
 29 30  1  0  0  0  0
 29 31  1  0  0  0  0
 29 32  1  0  0  0  0
M  END
$$$$

  -OEChem-04042216033D

 32 32  0     1  0  0  0  0  0999 V2000
   -3.7227   -3.9272    1.7588 H   0  0  0  0  0  0  0  0  0  0  0  0
   -3.7090   -3.0536    1.1011 C   0  0  0  0  0  0  0  0  0  0  0  0
   -4.4142   -2.3126    1.4855 H   0  0  0  0  0  0  0  0  0  0  0  0
   -4.0230   -3.3602    0.1005 H   0  0  0  0  0  0  0  0  0  0  0  0
   -2.3134   -2.4613    1.0472 C   0  0  0  0  0  0  0  0  0  0  0  0
   -1.3988   -2.9938    1.6566 O   0  0  0  0  0  0  0  0  0  0  0  0
   -2.0814   -1.3243    0.3035 N   0  0  0  0  0  0  0  0  0  0  0  0
   -2.8826   -0.8735   -0.1371 H   0  0  0  0  0  0  0  0  0  0  0  0
   -0.8081   -0.5920    0.2551 C   0  0  1  0  0  0  0  0  0  0  0  0
   -0.2081   -0.8771    1.1251 H   0  0  0  0  0  0  0  0  0  0  0  0
    0.0146   -0.9461   -1.0003 C   0  0  0  0  0  0  0  0  0  0  0  0
    0.9697   -0.4130   -0.9604 H   0  0  0  0  0  0  0  0  0  0  0  0
    0.2463   -2.0159   -0.9723 H   0  0  0  0  0  0  0  0  0  0  0  0
   -0.6793   -0.6386   -2.3109 C   0  0  0  0  0  0  0  0  0  0  0  0
   -1.7207   -1.4519   -2.7857 C   0  0  0  0  0  0  0  0  0  0  0  0
   -2.0200   -2.3315   -2.2248 H   0  0  0  0  0  0  0  0  0  0  0  0
   -2.3731   -1.1486   -3.9855 C   0  0  0  0  0  0  0  0  0  0  0  0
   -3.1757   -1.7860   -4.3441 H   0  0  0  0  0  0  0  0  0  0  0  0
   -1.9923   -0.0241   -4.7228 C   0  0  0  0  0  0  0  0  0  0  0  0
   -2.4996    0.2152   -5.6526 H   0  0  0  0  0  0  0  0  0  0  0  0
   -0.9605    0.7962   -4.2579 C   0  0  0  0  0  0  0  0  0  0  0  0
   -0.6682    1.6757   -4.8239 H   0  0  0  0  0  0  0  0  0  0  0  0
   -0.3095    0.4907   -3.0578 C   0  0  0  0  0  0  0  0  0  0  0  0
    0.4796    1.1460   -2.7024 H   0  0  0  0  0  0  0  0  0  0  0  0
   -1.0397    0.9282    0.3739 C   0  0  0  0  0  0  0  0  0  0  0  0
   -2.0150    1.4530   -0.1510 O   0  0  0  0  0  0  0  0  0  0  0  0
   -0.2434    1.6875    1.2126 N   0  0  0  0  0  0  0  0  0  0  0  0
    0.4983    1.2111    1.7174 H   0  0  0  0  0  0  0  0  0  0  0  0
   -0.4789    3.1020    1.4761 C   0  0  0  0  0  0  0  0  0  0  0  0
   -1.4609    3.2475    1.9382 H   0  0  0  0  0  0  0  0  0  0  0  0
    0.2848    3.4919    2.1557 H   0  0  0  0  0  0  0  0  0  0  0  0
   -0.4385    3.6767    0.5448 H   0  0  0  0  0  0  0  0  0  0  0  0
  1  2  1  0  0  0  0
  2  3  1  0  0  0  0
  2  4  1  0  0  0  0
  2  5  1  0  0  0  0
  5  6  2  0  0  0  0
  5  7  1  0  0  0  0
  7  8  1  0  0  0  0
  7  9  1  0  0  0  0
  9 10  1  0  0  0  0
  9 11  1  0  0  0  0
  9 25  1  0  0  0  0
 11 12  1  0  0  0  0
 11 13  1  0  0  0  0
 11 14  1  0  0  0  0
 14 15  1  0  0  0  0
 14 23  2  0  0  0  0
 15 16  1  0  0  0  0
 15 17  2  0  0  0  0
 17 18  1  0  0  0  0
 17 19  1  0  0  0  0
 19 20  1  0  0  0  0
 19 21  2  0  0  0  0
 21 22  1  0  0  0  0
 21 23  1  0  0  0  0
 23 24  1  0  0  0  0
 25 26  2  0  0  0  0
 25 27  1  0  0  0  0
 27 28  1  0  0  0  0
 27 29  1  0  0  0  0
 29 30  1  0  0  0  0
 29 31  1  0  0  0  0
 29 32  1  0  0  0  0
M  END
$$$$

  -OEChem-04042216033D

 32 32  0     1  0  0  0  0  0999 V2000
   -3.7064   -3.9169    1.8928 H   0  0  0  0  0  0  0  0  0  0  0  0
   -3.7088   -3.0530    1.2223 C   0  0  0  0  0  0  0  0  0  0  0  0
   -4.3860   -2.2962    1.6258 H   0  0  0  0  0  0  0  0  0  0  0  0
   -4.0695   -3.3690    0.2406 H   0  0  0  0  0  0  0  0  0  0  0  0
   -2.3086   -2.4821    1.0991 C   0  0  0  0  0  0  0  0  0  0  0  0
   -1.3743   -3.0236    1.6693 O   0  0  0  0  0  0  0  0  0  0  0  0
   -2.0979   -1.3488    0.3430 N   0  0  0  0  0  0  0  0  0  0  0  0
   -2.9169   -0.8753   -0.0368 H   0  0  0  0  0  0  0  0  0  0  0  0
   -0.8247   -0.6207    0.2543 C   0  0  1  0  0  0  0  0  0  0  0  0
   -0.2041   -0.9018    1.1110 H   0  0  0  0  0  0  0  0  0  0  0  0
   -0.0125   -0.9478   -1.0183 C   0  0  0  0  0  0  0  0  0  0  0  0
    0.9409   -0.4129   -0.9641 H   0  0  0  0  0  0  0  0  0  0  0  0
    0.2234   -2.0168   -1.0034 H   0  0  0  0  0  0  0  0  0  0  0  0
   -0.6883   -0.6418   -2.3438 C   0  0  0  0  0  0  0  0  0  0  0  0
   -1.9012   -1.2408   -2.7258 C   0  0  0  0  0  0  0  0  0  0  0  0
   -2.3653   -1.9919   -2.0975 H   0  0  0  0  0  0  0  0  0  0  0  0
   -2.5172   -0.9057   -3.9366 C   0  0  0  0  0  0  0  0  0  0  0  0
   -3.4513   -1.3813   -4.2202 H   0  0  0  0  0  0  0  0  0  0  0  0
   -1.9312    0.0398   -4.7817 C   0  0  0  0  0  0  0  0  0  0  0  0
   -2.4102    0.3038   -5.7198 H   0  0  0  0  0  0  0  0  0  0  0  0
   -0.7281    0.6471   -4.4145 C   0  0  0  0  0  0  0  0  0  0  0  0
   -0.2724    1.3865   -5.0661 H   0  0  0  0  0  0  0  0  0  0  0  0
   -0.1139    0.3090   -3.2040 C   0  0  0  0  0  0  0  0  0  0  0  0
    0.8136    0.8030   -2.9317 H   0  0  0  0  0  0  0  0  0  0  0  0
   -1.0651    0.8978    0.3749 C   0  0  0  0  0  0  0  0  0  0  0  0
   -2.0648    1.4089   -0.1173 O   0  0  0  0  0  0  0  0  0  0  0  0
   -0.2522    1.6674    1.1878 N   0  0  0  0  0  0  0  0  0  0  0  0
    0.5156    1.2030    1.6641 H   0  0  0  0  0  0  0  0  0  0  0  0
   -0.4939    3.0805    1.4520 C   0  0  0  0  0  0  0  0  0  0  0  0
   -1.4697    3.2204    1.9290 H   0  0  0  0  0  0  0  0  0  0  0  0
    0.2773    3.4773    2.1191 H   0  0  0  0  0  0  0  0  0  0  0  0
   -0.4726    3.6536    0.5190 H   0  0  0  0  0  0  0  0  0  0  0  0
  1  2  1  0  0  0  0
  2  3  1  0  0  0  0
  2  4  1  0  0  0  0
  2  5  1  0  0  0  0
  5  6  2  0  0  0  0
  5  7  1  0  0  0  0
  7  8  1  0  0  0  0
  7  9  1  0  0  0  0
  9 10  1  0  0  0  0
  9 11  1  0  0  0  0
  9 25  1  0  0  0  0
 11 12  1  0  0  0  0
 11 13  1  0  0  0  0
 11 14  1  0  0  0  0
 14 15  1  0  0  0  0
 14 23  2  0  0  0  0
 15 16  1  0  0  0  0
 15 17  2  0  0  0  0
 17 18  1  0  0  0  0
 17 19  1  0  0  0  0
 19 20  1  0  0  0  0
 19 21  2  0  0  0  0
 21 22  1  0  0  0  0
 21 23  1  0  0  0  0
 23 24  1  0  0  0  0
 25 26  2  0  0  0  0
 25 27  1  0  0  0  0
 27 28  1  0  0  0  0
 27 29  1  0  0  0  0
 29 30  1  0  0  0  0
 29 31  1  0  0  0  0
 29 32  1  0  0  0  0
M  END
$$$$

  -OEChem-04042216033D

 32 32  0     1  0  0  0  0  0999 V2000
   -3.6437   -3.9434    1.9809 H   0  0  0  0  0  0  0  0  0  0  0  0
   -3.6818   -3.0655    1.3300 C   0  0  0  0  0  0  0  0  0  0  0  0
   -4.3318   -2.3158    1.7876 H   0  0  0  0  0  0  0  0  0  0  0  0
   -4.0998   -3.3602    0.3646 H   0  0  0  0  0  0  0  0  0  0  0  0
   -2.2887   -2.4972    1.1377 C   0  0  0  0  0  0  0  0  0  0  0  0
   -1.3280   -3.0481    1.6522 O   0  0  0  0  0  0  0  0  0  0  0  0
   -2.1137   -1.3556    0.3846 N   0  0  0  0  0  0  0  0  0  0  0  0
   -2.9514   -0.8619    0.0788 H   0  0  0  0  0  0  0  0  0  0  0  0
   -0.8448   -0.6265    0.2566 C   0  0  1  0  0  0  0  0  0  0  0  0
   -0.1952   -0.9137    1.0896 H   0  0  0  0  0  0  0  0  0  0  0  0
   -0.0662   -0.9279   -1.0448 C   0  0  0  0  0  0  0  0  0  0  0  0
    0.8852   -0.3894   -0.9908 H   0  0  0  0  0  0  0  0  0  0  0  0
    0.1747   -1.9958   -1.0432 H   0  0  0  0  0  0  0  0  0  0  0  0
   -0.7341   -0.6199   -2.3793 C   0  0  0  0  0  0  0  0  0  0  0  0
   -2.0672   -0.9500   -2.6882 C   0  0  0  0  0  0  0  0  0  0  0  0
   -2.6908   -1.4910   -1.9897 H   0  0  0  0  0  0  0  0  0  0  0  0
   -2.6252   -0.6101   -3.9256 C   0  0  0  0  0  0  0  0  0  0  0  0
   -3.6563   -0.8705   -4.1448 H   0  0  0  0  0  0  0  0  0  0  0  0
   -1.8596    0.0618   -4.8803 C   0  0  0  0  0  0  0  0  0  0  0  0
   -2.2937    0.3262   -5.8399 H   0  0  0  0  0  0  0  0  0  0  0  0
   -0.5337    0.3913   -4.5955 C   0  0  0  0  0  0  0  0  0  0  0  0
    0.0666    0.9137   -5.3342 H   0  0  0  0  0  0  0  0  0  0  0  0
    0.0202    0.0536   -3.3566 C   0  0  0  0  0  0  0  0  0  0  0  0
    1.0517    0.3272   -3.1577 H   0  0  0  0  0  0  0  0  0  0  0  0
   -1.0904    0.8889    0.4039 C   0  0  0  0  0  0  0  0  0  0  0  0
   -2.1162    1.3938   -0.0392 O   0  0  0  0  0  0  0  0  0  0  0  0
   -0.2543    1.6562    1.1951 N   0  0  0  0  0  0  0  0  0  0  0  0
    0.5374    1.1940    1.6325 H   0  0  0  0  0  0  0  0  0  0  0  0
   -0.5000    3.0630    1.4880 C   0  0  0  0  0  0  0  0  0  0  0  0
   -1.4470    3.1834    2.0247 H   0  0  0  0  0  0  0  0  0  0  0  0
    0.3044    3.4661    2.1106 H   0  0  0  0  0  0  0  0  0  0  0  0
   -0.5437    3.6448    0.5613 H   0  0  0  0  0  0  0  0  0  0  0  0
  1  2  1  0  0  0  0
  2  3  1  0  0  0  0
  2  4  1  0  0  0  0
  2  5  1  0  0  0  0
  5  6  2  0  0  0  0
  5  7  1  0  0  0  0
  7  8  1  0  0  0  0
  7  9  1  0  0  0  0
  9 10  1  0  0  0  0
  9 11  1  0  0  0  0
  9 25  1  0  0  0  0
 11 12  1  0  0  0  0
 11 13  1  0  0  0  0
 11 14  1  0  0  0  0
 14 15  1  0  0  0  0
 14 23  2  0  0  0  0
 15 16  1  0  0  0  0
 15 17  2  0  0  0  0
 17 18  1  0  0  0  0
 17 19  1  0  0  0  0
 19 20  1  0  0  0  0
 19 21  2  0  0  0  0
 21 22  1  0  0  0  0
 21 23  1  0  0  0  0
 23 24  1  0  0  0  0
 25 26  2  0  0  0  0
 25 27  1  0  0  0  0
 27 28  1  0  0  0  0
 27 29  1  0  0  0  0
 29 30  1  0  0  0  0
 29 31  1  0  0  0  0
 29 32  1  0  0  0  0
M  END
$$$$

  -OEChem-04042216033D

 32 32  0     1  0  0  0  0  0999 V2000
   -3.6081   -3.9620    1.9816 H   0  0  0  0  0  0  0  0  0  0  0  0
   -3.6591   -3.0718    1.3486 C   0  0  0  0  0  0  0  0  0  0  0  0
   -4.2947   -2.3291    1.8367 H   0  0  0  0  0  0  0  0  0  0  0  0
   -4.1020   -3.3463    0.3881 H   0  0  0  0  0  0  0  0  0  0  0  0
   -2.2696   -2.5029    1.1328 C   0  0  0  0  0  0  0  0  0  0  0  0
   -1.2970   -3.0638    1.6134 O   0  0  0  0  0  0  0  0  0  0  0  0
   -2.1137   -1.3458    0.3995 N   0  0  0  0  0  0  0  0  0  0  0  0
   -2.9603   -0.8415    0.1408 H   0  0  0  0  0  0  0  0  0  0  0  0
   -0.8485   -0.6115    0.2596 C   0  0  1  0  0  0  0  0  0  0  0  0
   -0.1809   -0.9134    1.0727 H   0  0  0  0  0  0  0  0  0  0  0  0
   -0.1018   -0.8942   -1.0644 C   0  0  0  0  0  0  0  0  0  0  0  0
    0.8476   -0.3513   -1.0200 H   0  0  0  0  0  0  0  0  0  0  0  0
    0.1424   -1.9612   -1.0766 H   0  0  0  0  0  0  0  0  0  0  0  0
   -0.7700   -0.5774   -2.3981 C   0  0  0  0  0  0  0  0  0  0  0  0
   -2.1579   -0.6097   -2.6363 C   0  0  0  0  0  0  0  0  0  0  0  0
   -2.8659   -0.8577   -1.8592 H   0  0  0  0  0  0  0  0  0  0  0  0
   -2.6805   -0.3094   -3.8990 C   0  0  0  0  0  0  0  0  0  0  0  0
   -3.7545   -0.3297   -4.0579 H   0  0  0  0  0  0  0  0  0  0  0  0
   -1.8270    0.0198   -4.9530 C   0  0  0  0  0  0  0  0  0  0  0  0
   -2.2347    0.2537   -5.9320 H   0  0  0  0  0  0  0  0  0  0  0  0
   -0.4481    0.0478   -4.7411 C   0  0  0  0  0  0  0  0  0  0  0  0
    0.2213    0.3007   -5.5578 H   0  0  0  0  0  0  0  0  0  0  0  0
    0.0709   -0.2492   -3.4767 C   0  0  0  0  0  0  0  0  0  0  0  0
    1.1475   -0.2238   -3.3383 H   0  0  0  0  0  0  0  0  0  0  0  0
   -1.0941    0.8998    0.4432 C   0  0  0  0  0  0  0  0  0  0  0  0
   -2.1366    1.4063    0.0420 O   0  0  0  0  0  0  0  0  0  0  0  0
   -0.2440    1.6544    1.2316 N   0  0  0  0  0  0  0  0  0  0  0  0
    0.5649    1.1897    1.6336 H   0  0  0  0  0  0  0  0  0  0  0  0
   -0.4884    3.0542    1.5579 C   0  0  0  0  0  0  0  0  0  0  0  0
   -1.4301    3.1611    2.1066 H   0  0  0  0  0  0  0  0  0  0  0  0
    0.3216    3.4443    2.1813 H   0  0  0  0  0  0  0  0  0  0  0  0
   -0.5421    3.6562    0.6447 H   0  0  0  0  0  0  0  0  0  0  0  0
  1  2  1  0  0  0  0
  2  3  1  0  0  0  0
  2  4  1  0  0  0  0
  2  5  1  0  0  0  0
  5  6  2  0  0  0  0
  5  7  1  0  0  0  0
  7  8  1  0  0  0  0
  7  9  1  0  0  0  0
  9 10  1  0  0  0  0
  9 11  1  0  0  0  0
  9 25  1  0  0  0  0
 11 12  1  0  0  0  0
 11 13  1  0  0  0  0
 11 14  1  0  0  0  0
 14 15  1  0  0  0  0
 14 23  2  0  0  0  0
 15 16  1  0  0  0  0
 15 17  2  0  0  0  0
 17 18  1  0  0  0  0
 17 19  1  0  0  0  0
 19 20  1  0  0  0  0
 19 21  2  0  0  0  0
 21 22  1  0  0  0  0
 21 23  1  0  0  0  0
 23 24  1  0  0  0  0
 25 26  2  0  0  0  0
 25 27  1  0  0  0  0
 27 28  1  0  0  0  0
 27 29  1  0  0  0  0
 29 30  1  0  0  0  0
 29 31  1  0  0  0  0
 29 32  1  0  0  0  0
M  END
$$$$

  -OEChem-04042216033D

 32 32  0     1  0  0  0  0  0999 V2000
   -3.5944   -3.9861    1.8769 H   0  0  0  0  0  0  0  0  0  0  0  0
   -3.6514   -3.0777    1.2711 C   0  0  0  0  0  0  0  0  0  0  0  0
   -4.3029   -2.3590    1.7741 H   0  0  0  0  0  0  0  0  0  0  0  0
   -4.0798   -3.3293    0.2979 H   0  0  0  0  0  0  0  0  0  0  0  0
   -2.2677   -2.4833    1.0880 C   0  0  0  0  0  0  0  0  0  0  0  0
   -1.2937   -3.0411    1.5696 O   0  0  0  0  0  0  0  0  0  0  0  0
   -2.1185   -1.3077    0.3830 N   0  0  0  0  0  0  0  0  0  0  0  0
   -2.9687   -0.8195    0.1088 H   0  0  0  0  0  0  0  0  0  0  0  0
   -0.8568   -0.5616    0.2584 C   0  0  1  0  0  0  0  0  0  0  0  0
   -0.1916   -0.8790    1.0678 H   0  0  0  0  0  0  0  0  0  0  0  0
   -0.1148   -0.8561   -1.0640 C   0  0  0  0  0  0  0  0  0  0  0  0
    0.8317   -0.3070   -1.0337 H   0  0  0  0  0  0  0  0  0  0  0  0
    0.1338   -1.9223   -1.0626 H   0  0  0  0  0  0  0  0  0  0  0  0
   -0.7824   -0.5549   -2.4002 C   0  0  0  0  0  0  0  0  0  0  0  0
   -2.1544   -0.2940   -2.5841 C   0  0  0  0  0  0  0  0  0  0  0  0
   -2.8431   -0.2490   -1.7515 H   0  0  0  0  0  0  0  0  0  0  0  0
   -2.6765   -0.0501   -3.8590 C   0  0  0  0  0  0  0  0  0  0  0  0
   -3.7349    0.1618   -3.9776 H   0  0  0  0  0  0  0  0  0  0  0  0
   -1.8400   -0.0706   -4.9765 C   0  0  0  0  0  0  0  0  0  0  0  0
   -2.2465    0.1206   -5.9652 H   0  0  0  0  0  0  0  0  0  0  0  0
   -0.4792   -0.3360   -4.8162 C   0  0  0  0  0  0  0  0  0  0  0  0
    0.1760   -0.3560   -5.6820 H   0  0  0  0  0  0  0  0  0  0  0  0
    0.0397   -0.5768   -3.5399 C   0  0  0  0  0  0  0  0  0  0  0  0
    1.1001   -0.7872   -3.4371 H   0  0  0  0  0  0  0  0  0  0  0  0
   -1.0803    0.9495    0.4745 C   0  0  0  0  0  0  0  0  0  0  0  0
   -2.1209    1.4803    0.1016 O   0  0  0  0  0  0  0  0  0  0  0  0
   -0.2142    1.6724    1.2752 N   0  0  0  0  0  0  0  0  0  0  0  0
    0.5939    1.1878    1.6549 H   0  0  0  0  0  0  0  0  0  0  0  0
   -0.4411    3.0639    1.6469 C   0  0  0  0  0  0  0  0  0  0  0  0
   -1.3696    3.1608    2.2194 H   0  0  0  0  0  0  0  0  0  0  0  0
    0.3851    3.4307    2.2632 H   0  0  0  0  0  0  0  0  0  0  0  0
   -0.5108    3.6925    0.7528 H   0  0  0  0  0  0  0  0  0  0  0  0
  1  2  1  0  0  0  0
  2  3  1  0  0  0  0
  2  4  1  0  0  0  0
  2  5  1  0  0  0  0
  5  6  2  0  0  0  0
  5  7  1  0  0  0  0
  7  8  1  0  0  0  0
  7  9  1  0  0  0  0
  9 10  1  0  0  0  0
  9 11  1  0  0  0  0
  9 25  1  0  0  0  0
 11 12  1  0  0  0  0
 11 13  1  0  0  0  0
 11 14  1  0  0  0  0
 14 15  1  0  0  0  0
 14 23  2  0  0  0  0
 15 16  1  0  0  0  0
 15 17  2  0  0  0  0
 17 18  1  0  0  0  0
 17 19  1  0  0  0  0
 19 20  1  0  0  0  0
 19 21  2  0  0  0  0
 21 22  1  0  0  0  0
 21 23  1  0  0  0  0
 23 24  1  0  0  0  0
 25 26  2  0  0  0  0
 25 27  1  0  0  0  0
 27 28  1  0  0  0  0
 27 29  1  0  0  0  0
 29 30  1  0  0  0  0
 29 31  1  0  0  0  0
 29 32  1  0  0  0  0
M  END
$$$$

  -OEChem-04042216033D

 32 32  0     1  0  0  0  0  0999 V2000
   -3.5777   -4.0028    1.7738 H   0  0  0  0  0  0  0  0  0  0  0  0
   -3.6433   -3.0901    1.1754 C   0  0  0  0  0  0  0  0  0  0  0  0
   -4.3336   -2.3981    1.6635 H   0  0  0  0  0  0  0  0  0  0  0  0
   -4.0315   -3.3442    0.1861 H   0  0  0  0  0  0  0  0  0  0  0  0
   -2.2740   -2.4506    1.0437 C   0  0  0  0  0  0  0  0  0  0  0  0
   -1.2954   -2.9975    1.5286 O   0  0  0  0  0  0  0  0  0  0  0  0
   -2.1411   -1.2535    0.3717 N   0  0  0  0  0  0  0  0  0  0  0  0
   -2.9951   -0.7940    0.0629 H   0  0  0  0  0  0  0  0  0  0  0  0
   -0.8891   -0.4894    0.2530 C   0  0  1  0  0  0  0  0  0  0  0  0
   -0.2307   -0.8177    1.0635 H   0  0  0  0  0  0  0  0  0  0  0  0
   -0.1347   -0.8160   -1.0542 C   0  0  0  0  0  0  0  0  0  0  0  0
    0.8053   -0.2552   -1.0419 H   0  0  0  0  0  0  0  0  0  0  0  0
    0.1253   -1.8792   -1.0156 H   0  0  0  0  0  0  0  0  0  0  0  0
   -0.7990   -0.5654   -2.4009 C   0  0  0  0  0  0  0  0  0  0  0  0
   -2.0933   -0.0415   -2.5814 C   0  0  0  0  0  0  0  0  0  0  0  0
   -2.7218    0.2247   -1.7421 H   0  0  0  0  0  0  0  0  0  0  0  0
   -2.6174    0.1559   -3.8635 C   0  0  0  0  0  0  0  0  0  0  0  0
   -3.6157    0.5669   -3.9806 H   0  0  0  0  0  0  0  0  0  0  0  0
   -1.8602   -0.1699   -4.9902 C   0  0  0  0  0  0  0  0  0  0  0  0
   -2.2686   -0.0157   -5.9846 H   0  0  0  0  0  0  0  0  0  0  0  0
   -0.5762   -0.6937   -4.8314 C   0  0  0  0  0  0  0  0  0  0  0  0
    0.0179   -0.9503   -5.7035 H   0  0  0  0  0  0  0  0  0  0  0  0
   -0.0545   -0.8874   -3.5482 C   0  0  0  0  0  0  0  0  0  0  0  0
    0.9460   -1.2966   -3.4449 H   0  0  0  0  0  0  0  0  0  0  0  0
   -1.0749    1.0227    0.5062 C   0  0  0  0  0  0  0  0  0  0  0  0
   -2.1151    1.5885    0.1907 O   0  0  0  0  0  0  0  0  0  0  0  0
   -0.1747    1.7012    1.3089 N   0  0  0  0  0  0  0  0  0  0  0  0
    0.6325    1.1876    1.6506 H   0  0  0  0  0  0  0  0  0  0  0  0
   -0.3596    3.0841    1.7328 C   0  0  0  0  0  0  0  0  0  0  0  0
   -1.2808    3.1869    2.3159 H   0  0  0  0  0  0  0  0  0  0  0  0
    0.4810    3.4045    2.3557 H   0  0  0  0  0  0  0  0  0  0  0  0
   -0.4174    3.7466    0.8629 H   0  0  0  0  0  0  0  0  0  0  0  0
  1  2  1  0  0  0  0
  2  3  1  0  0  0  0
  2  4  1  0  0  0  0
  2  5  1  0  0  0  0
  5  6  2  0  0  0  0
  5  7  1  0  0  0  0
  7  8  1  0  0  0  0
  7  9  1  0  0  0  0
  9 10  1  0  0  0  0
  9 11  1  0  0  0  0
  9 25  1  0  0  0  0
 11 12  1  0  0  0  0
 11 13  1  0  0  0  0
 11 14  1  0  0  0  0
 14 15  1  0  0  0  0
 14 23  2  0  0  0  0
 15 16  1  0  0  0  0
 15 17  2  0  0  0  0
 17 18  1  0  0  0  0
 17 19  1  0  0  0  0
 19 20  1  0  0  0  0
 19 21  2  0  0  0  0
 21 22  1  0  0  0  0
 21 23  1  0  0  0  0
 23 24  1  0  0  0  0
 25 26  2  0  0  0  0
 25 27  1  0  0  0  0
 27 28  1  0  0  0  0
 27 29  1  0  0  0  0
 29 30  1  0  0  0  0
 29 31  1  0  0  0  0
 29 32  1  0  0  0  0
M  END
$$$$

  -OEChem-04042216033D

 32 32  0     1  0  0  0  0  0999 V2000
   -3.5618   -4.0074    1.6737 H   0  0  0  0  0  0  0  0  0  0  0  0
   -3.6391   -3.0713    1.1138 C   0  0  0  0  0  0  0  0  0  0  0  0
   -4.3294   -2.4045    1.6361 H   0  0  0  0  0  0  0  0  0  0  0  0
   -4.0347   -3.2874    0.1183 H   0  0  0  0  0  0  0  0  0  0  0  0
   -2.2752   -2.4176    0.9966 C   0  0  0  0  0  0  0  0  0  0  0  0
   -1.2911   -2.9692    1.4653 O   0  0  0  0  0  0  0  0  0  0  0  0
   -2.1541   -1.2022    0.3561 N   0  0  0  0  0  0  0  0  0  0  0  0
   -3.0103   -0.7532    0.0379 H   0  0  0  0  0  0  0  0  0  0  0  0
   -0.9087   -0.4298    0.2356 C   0  0  1  0  0  0  0  0  0  0  0  0
   -0.2545   -0.7691    1.0453 H   0  0  0  0  0  0  0  0  0  0  0  0
   -0.1452   -0.7820   -1.0596 C   0  0  0  0  0  0  0  0  0  0  0  0
    0.7905   -0.2141   -1.0597 H   0  0  0  0  0  0  0  0  0  0  0  0
    0.1237   -1.8416   -0.9890 H   0  0  0  0  0  0  0  0  0  0  0  0
   -0.8060   -0.5689   -2.4143 C   0  0  0  0  0  0  0  0  0  0  0  0
   -1.9611    0.2020   -2.6413 C   0  0  0  0  0  0  0  0  0  0  0  0
   -2.4877    0.6931   -1.8363 H   0  0  0  0  0  0  0  0  0  0  0  0
   -2.4860    0.3506   -3.9297 C   0  0  0  0  0  0  0  0  0  0  0  0
   -3.3797    0.9487   -4.0818 H   0  0  0  0  0  0  0  0  0  0  0  0
   -1.8650   -0.2662   -5.0174 C   0  0  0  0  0  0  0  0  0  0  0  0
   -2.2738   -0.1500   -6.0168 H   0  0  0  0  0  0  0  0  0  0  0  0
   -0.7161   -1.0319   -4.8133 C   0  0  0  0  0  0  0  0  0  0  0  0
   -0.2270   -1.5130   -5.6552 H   0  0  0  0  0  0  0  0  0  0  0  0
   -0.1950   -1.1783   -3.5236 C   0  0  0  0  0  0  0  0  0  0  0  0
    0.7005   -1.7769   -3.3857 H   0  0  0  0  0  0  0  0  0  0  0  0
   -1.0699    1.0787    0.5282 C   0  0  0  0  0  0  0  0  0  0  0  0
   -2.1261    1.6555    0.2969 O   0  0  0  0  0  0  0  0  0  0  0  0
   -0.1415    1.7225    1.3278 N   0  0  0  0  0  0  0  0  0  0  0  0
    0.6705    1.1907    1.6281 H   0  0  0  0  0  0  0  0  0  0  0  0
   -0.3225    3.0763    1.8390 C   0  0  0  0  0  0  0  0  0  0  0  0
   -1.1969    3.1236    2.4965 H   0  0  0  0  0  0  0  0  0  0  0  0
    0.5578    3.3862    2.4105 H   0  0  0  0  0  0  0  0  0  0  0  0
   -0.4644    3.7815    1.0133 H   0  0  0  0  0  0  0  0  0  0  0  0
  1  2  1  0  0  0  0
  2  3  1  0  0  0  0
  2  4  1  0  0  0  0
  2  5  1  0  0  0  0
  5  6  2  0  0  0  0
  5  7  1  0  0  0  0
  7  8  1  0  0  0  0
  7  9  1  0  0  0  0
  9 10  1  0  0  0  0
  9 11  1  0  0  0  0
  9 25  1  0  0  0  0
 11 12  1  0  0  0  0
 11 13  1  0  0  0  0
 11 14  1  0  0  0  0
 14 15  1  0  0  0  0
 14 23  2  0  0  0  0
 15 16  1  0  0  0  0
 15 17  2  0  0  0  0
 17 18  1  0  0  0  0
 17 19  1  0  0  0  0
 19 20  1  0  0  0  0
 19 21  2  0  0  0  0
 21 22  1  0  0  0  0
 21 23  1  0  0  0  0
 23 24  1  0  0  0  0
 25 26  2  0  0  0  0
 25 27  1  0  0  0  0
 27 28  1  0  0  0  0
 27 29  1  0  0  0  0
 29 30  1  0  0  0  0
 29 31  1  0  0  0  0
 29 32  1  0  0  0  0
M  END
$$$$

  -OEChem-04042216033D

 32 32  0     1  0  0  0  0  0999 V2000
   -3.6150   -3.9322    1.6485 H   0  0  0  0  0  0  0  0  0  0  0  0
   -3.6688   -3.0001    1.0793 C   0  0  0  0  0  0  0  0  0  0  0  0
   -4.3519   -2.3155    1.5880 H   0  0  0  0  0  0  0  0  0  0  0  0
   -4.0574   -3.2176    0.0814 H   0  0  0  0  0  0  0  0  0  0  0  0
   -2.2924   -2.3720    0.9710 C   0  0  0  0  0  0  0  0  0  0  0  0
   -1.3201   -2.9458    1.4379 O   0  0  0  0  0  0  0  0  0  0  0  0
   -2.1458   -1.1555    0.3381 N   0  0  0  0  0  0  0  0  0  0  0  0
   -2.9905   -0.6915    0.0094 H   0  0  0  0  0  0  0  0  0  0  0  0
   -0.8866   -0.4061    0.2247 C   0  0  1  0  0  0  0  0  0  0  0  0
   -0.2444   -0.7558    1.0393 H   0  0  0  0  0  0  0  0  0  0  0  0
   -0.1275   -0.7947   -1.0635 C   0  0  0  0  0  0  0  0  0  0  0  0
    0.8189   -0.2456   -1.0733 H   0  0  0  0  0  0  0  0  0  0  0  0
    0.1223   -1.8571   -0.9712 H   0  0  0  0  0  0  0  0  0  0  0  0
   -0.7866   -0.5838   -2.4205 C   0  0  0  0  0  0  0  0  0  0  0  0
   -1.7204    0.4261   -2.7164 C   0  0  0  0  0  0  0  0  0  0  0  0
   -2.0314    1.1527   -1.9817 H   0  0  0  0  0  0  0  0  0  0  0  0
   -2.2807    0.5391   -3.9933 C   0  0  0  0  0  0  0  0  0  0  0  0
   -2.9971    1.3289   -4.1991 H   0  0  0  0  0  0  0  0  0  0  0  0
   -1.9195   -0.3559   -5.0016 C   0  0  0  0  0  0  0  0  0  0  0  0
   -2.3565   -0.2673   -5.9920 H   0  0  0  0  0  0  0  0  0  0  0  0
   -0.9929   -1.3634   -4.7300 C   0  0  0  0  0  0  0  0  0  0  0  0
   -0.7061   -2.0628   -5.5100 H   0  0  0  0  0  0  0  0  0  0  0  0
   -0.4334   -1.4716   -3.4526 C   0  0  0  0  0  0  0  0  0  0  0  0
    0.2856   -2.2636   -3.2647 H   0  0  0  0  0  0  0  0  0  0  0  0
   -1.0306    1.1019    0.5272 C   0  0  0  0  0  0  0  0  0  0  0  0
   -2.0893    1.6831    0.3170 O   0  0  0  0  0  0  0  0  0  0  0  0
   -0.0979    1.7307    1.3338 N   0  0  0  0  0  0  0  0  0  0  0  0
    0.7095    1.1895    1.6290 H   0  0  0  0  0  0  0  0  0  0  0  0
   -0.2708    3.0780    1.8652 C   0  0  0  0  0  0  0  0  0  0  0  0
   -1.1468    3.1222    2.5209 H   0  0  0  0  0  0  0  0  0  0  0  0
    0.6099    3.3719    2.4442 H   0  0  0  0  0  0  0  0  0  0  0  0
   -0.4034    3.7977    1.0505 H   0  0  0  0  0  0  0  0  0  0  0  0
  1  2  1  0  0  0  0
  2  3  1  0  0  0  0
  2  4  1  0  0  0  0
  2  5  1  0  0  0  0
  5  6  2  0  0  0  0
  5  7  1  0  0  0  0
  7  8  1  0  0  0  0
  7  9  1  0  0  0  0
  9 10  1  0  0  0  0
  9 11  1  0  0  0  0
  9 25  1  0  0  0  0
 11 12  1  0  0  0  0
 11 13  1  0  0  0  0
 11 14  1  0  0  0  0
 14 15  1  0  0  0  0
 14 23  2  0  0  0  0
 15 16  1  0  0  0  0
 15 17  2  0  0  0  0
 17 18  1  0  0  0  0
 17 19  1  0  0  0  0
 19 20  1  0  0  0  0
 19 21  2  0  0  0  0
 21 22  1  0  0  0  0
 21 23  1  0  0  0  0
 23 24  1  0  0  0  0
 25 26  2  0  0  0  0
 25 27  1  0  0  0  0
 27 28  1  0  0  0  0
 27 29  1  0  0  0  0
 29 30  1  0  0  0  0
 29 31  1  0  0  0  0
 29 32  1  0  0  0  0
M  END
$$$$

  -OEChem-04042216033D

 32 32  0     1  0  0  0  0  0999 V2000
   -3.6447   -3.9430    1.5442 H   0  0  0  0  0  0  0  0  0  0  0  0
   -3.6728   -3.0096    0.9752 C   0  0  0  0  0  0  0  0  0  0  0  0
   -4.3787   -2.3264    1.4536 H   0  0  0  0  0  0  0  0  0  0  0  0
   -4.0156   -3.2250   -0.0398 H   0  0  0  0  0  0  0  0  0  0  0  0
   -2.2931   -2.3808    0.9314 C   0  0  0  0  0  0  0  0  0  0  0  0
   -1.3463   -2.9471    1.4561 O   0  0  0  0  0  0  0  0  0  0  0  0
   -2.1133   -1.1737    0.2904 N   0  0  0  0  0  0  0  0  0  0  0  0
   -2.9370   -0.7183   -0.0993 H   0  0  0  0  0  0  0  0  0  0  0  0
   -0.8497   -0.4260    0.2295 C   0  0  1  0  0  0  0  0  0  0  0  0
   -0.2343   -0.7668    1.0682 H   0  0  0  0  0  0  0  0  0  0  0  0
   -0.0586   -0.8221   -1.0371 C   0  0  0  0  0  0  0  0  0  0  0  0
    0.8886   -0.2742   -1.0298 H   0  0  0  0  0  0  0  0  0  0  0  0
    0.1901   -1.8840   -0.9402 H   0  0  0  0  0  0  0  0  0  0  0  0
   -0.7067   -0.5917   -2.3952 C   0  0  0  0  0  0  0  0  0  0  0  0
   -1.3772    0.5897   -2.7597 C   0  0  0  0  0  0  0  0  0  0  0  0
   -1.4193    1.4455   -2.0999 H   0  0  0  0  0  0  0  0  0  0  0  0
   -1.9869    0.7150   -4.0127 C   0  0  0  0  0  0  0  0  0  0  0  0
   -2.4962    1.6381   -4.2738 H   0  0  0  0  0  0  0  0  0  0  0  0
   -1.9385   -0.3395   -4.9263 C   0  0  0  0  0  0  0  0  0  0  0  0
   -2.4117   -0.2409   -5.8988 H   0  0  0  0  0  0  0  0  0  0  0  0
   -1.2756   -1.5193   -4.5844 C   0  0  0  0  0  0  0  0  0  0  0  0
   -1.2335   -2.3435   -5.2904 H   0  0  0  0  0  0  0  0  0  0  0  0
   -0.6679   -1.6413   -3.3306 C   0  0  0  0  0  0  0  0  0  0  0  0
   -0.1654   -2.5722   -3.0847 H   0  0  0  0  0  0  0  0  0  0  0  0
   -1.0296    1.0814    0.5062 C   0  0  0  0  0  0  0  0  0  0  0  0
   -2.0735    1.6503    0.2060 O   0  0  0  0  0  0  0  0  0  0  0  0
   -0.1506    1.7340    1.3528 N   0  0  0  0  0  0  0  0  0  0  0  0
    0.6356    1.2019    1.7151 H   0  0  0  0  0  0  0  0  0  0  0  0
   -0.3654    3.0903    1.8436 C   0  0  0  0  0  0  0  0  0  0  0  0
   -1.2764    3.1389    2.4496 H   0  0  0  0  0  0  0  0  0  0  0  0
    0.4799    3.4066    2.4624 H   0  0  0  0  0  0  0  0  0  0  0  0
   -0.4609    3.7901    1.0066 H   0  0  0  0  0  0  0  0  0  0  0  0
  1  2  1  0  0  0  0
  2  3  1  0  0  0  0
  2  4  1  0  0  0  0
  2  5  1  0  0  0  0
  5  6  2  0  0  0  0
  5  7  1  0  0  0  0
  7  8  1  0  0  0  0
  7  9  1  0  0  0  0
  9 10  1  0  0  0  0
  9 11  1  0  0  0  0
  9 25  1  0  0  0  0
 11 12  1  0  0  0  0
 11 13  1  0  0  0  0
 11 14  1  0  0  0  0
 14 15  1  0  0  0  0
 14 23  2  0  0  0  0
 15 16  1  0  0  0  0
 15 17  2  0  0  0  0
 17 18  1  0  0  0  0
 17 19  1  0  0  0  0
 19 20  1  0  0  0  0
 19 21  2  0  0  0  0
 21 22  1  0  0  0  0
 21 23  1  0  0  0  0
 23 24  1  0  0  0  0
 25 26  2  0  0  0  0
 25 27  1  0  0  0  0
 27 28  1  0  0  0  0
 27 29  1  0  0  0  0
 29 30  1  0  0  0  0
 29 31  1  0  0  0  0
 29 32  1  0  0  0  0
M  END
$$$$

  -OEChem-04042216033D

 32 32  0     1  0  0  0  0  0999 V2000
   -3.6784   -3.9503    1.5262 H   0  0  0  0  0  0  0  0  0  0  0  0
   -3.6785   -3.0343    0.9289 C   0  0  0  0  0  0  0  0  0  0  0  0
   -4.4117   -2.3405    1.3475 H   0  0  0  0  0  0  0  0  0  0  0  0
   -3.9652   -3.2815   -0.0963 H   0  0  0  0  0  0  0  0  0  0  0  0
   -2.2997   -2.4017    0.9415 C   0  0  0  0  0  0  0  0  0  0  0  0
   -1.3812   -2.9474    1.5340 O   0  0  0  0  0  0  0  0  0  0  0  0
   -2.0851   -1.2186    0.2677 N   0  0  0  0  0  0  0  0  0  0  0  0
   -2.8859   -0.7780   -0.1826 H   0  0  0  0  0  0  0  0  0  0  0  0
   -0.8176   -0.4753    0.2406 C   0  0  1  0  0  0  0  0  0  0  0  0
   -0.2243   -0.7941    1.1033 H   0  0  0  0  0  0  0  0  0  0  0  0
   -0.0014   -0.8784   -1.0064 C   0  0  0  0  0  0  0  0  0  0  0  0
    0.9480   -0.3347   -0.9888 H   0  0  0  0  0  0  0  0  0  0  0  0
    0.2424   -1.9421   -0.9170 H   0  0  0  0  0  0  0  0  0  0  0  0
   -0.6584   -0.6265   -2.3522 C   0  0  0  0  0  0  0  0  0  0  0  0
   -1.0417    0.6547   -2.7839 C   0  0  0  0  0  0  0  0  0  0  0  0
   -0.8330    1.5324   -2.1822 H   0  0  0  0  0  0  0  0  0  0  0  0
   -1.6845    0.8349   -4.0131 C   0  0  0  0  0  0  0  0  0  0  0  0
   -1.9731    1.8333   -4.3284 H   0  0  0  0  0  0  0  0  0  0  0  0
   -1.9549   -0.2644   -4.8312 C   0  0  0  0  0  0  0  0  0  0  0  0
   -2.4557   -0.1236   -5.7843 H   0  0  0  0  0  0  0  0  0  0  0  0
   -1.5792   -1.5444   -4.4176 C   0  0  0  0  0  0  0  0  0  0  0  0
   -1.7879   -2.4027   -5.0492 H   0  0  0  0  0  0  0  0  0  0  0  0
   -0.9386   -1.7219   -3.1867 C   0  0  0  0  0  0  0  0  0  0  0  0
   -0.6643   -2.7261   -2.8777 H   0  0  0  0  0  0  0  0  0  0  0  0
   -1.0235    1.0383    0.4560 C   0  0  0  0  0  0  0  0  0  0  0  0
   -2.0300    1.5983    0.0360 O   0  0  0  0  0  0  0  0  0  0  0  0
   -0.1957    1.7315    1.3213 N   0  0  0  0  0  0  0  0  0  0  0  0
    0.5633    1.2174    1.7592 H   0  0  0  0  0  0  0  0  0  0  0  0
   -0.4285    3.1149    1.7191 C   0  0  0  0  0  0  0  0  0  0  0  0
   -1.3903    3.2092    2.2342 H   0  0  0  0  0  0  0  0  0  0  0  0
    0.3616    3.4514    2.3973 H   0  0  0  0  0  0  0  0  0  0  0  0
   -0.4327    3.7702    0.8418 H   0  0  0  0  0  0  0  0  0  0  0  0
  1  2  1  0  0  0  0
  2  3  1  0  0  0  0
  2  4  1  0  0  0  0
  2  5  1  0  0  0  0
  5  6  2  0  0  0  0
  5  7  1  0  0  0  0
  7  8  1  0  0  0  0
  7  9  1  0  0  0  0
  9 10  1  0  0  0  0
  9 11  1  0  0  0  0
  9 25  1  0  0  0  0
 11 12  1  0  0  0  0
 11 13  1  0  0  0  0
 11 14  1  0  0  0  0
 14 15  1  0  0  0  0
 14 23  2  0  0  0  0
 15 16  1  0  0  0  0
 15 17  2  0  0  0  0
 17 18  1  0  0  0  0
 17 19  1  0  0  0  0
 19 20  1  0  0  0  0
 19 21  2  0  0  0  0
 21 22  1  0  0  0  0
 21 23  1  0  0  0  0
 23 24  1  0  0  0  0
 25 26  2  0  0  0  0
 25 27  1  0  0  0  0
 27 28  1  0  0  0  0
 27 29  1  0  0  0  0
 29 30  1  0  0  0  0
 29 31  1  0  0  0  0
 29 32  1  0  0  0  0
M  END
$$$$

  -OEChem-04042216033D

 32 32  0     1  0  0  0  0  0999 V2000
   -3.7032   -3.9501    1.5608 H   0  0  0  0  0  0  0  0  0  0  0  0
   -3.6863   -3.0467    0.9448 C   0  0  0  0  0  0  0  0  0  0  0  0
   -4.4265   -2.3422    1.3316 H   0  0  0  0  0  0  0  0  0  0  0  0
   -3.9496   -3.3139   -0.0815 H   0  0  0  0  0  0  0  0  0  0  0  0
   -2.3065   -2.4171    0.9762 C   0  0  0  0  0  0  0  0  0  0  0  0
   -1.4085   -2.9406    1.6178 O   0  0  0  0  0  0  0  0  0  0  0  0
   -2.0691   -1.2599    0.2664 N   0  0  0  0  0  0  0  0  0  0  0  0
   -2.8529   -0.8382   -0.2297 H   0  0  0  0  0  0  0  0  0  0  0  0
   -0.8000   -0.5196    0.2486 C   0  0  1  0  0  0  0  0  0  0  0  0
   -0.2160   -0.8179    1.1249 H   0  0  0  0  0  0  0  0  0  0  0  0
    0.0245   -0.9249   -0.9893 C   0  0  0  0  0  0  0  0  0  0  0  0
    0.9763   -0.3852   -0.9712 H   0  0  0  0  0  0  0  0  0  0  0  0
    0.2629   -1.9907   -0.9125 H   0  0  0  0  0  0  0  0  0  0  0  0
   -0.6549   -0.6564   -2.3165 C   0  0  0  0  0  0  0  0  0  0  0  0
   -0.7553    0.6412   -2.8428 C   0  0  0  0  0  0  0  0  0  0  0  0
   -0.3378    1.4863   -2.3043 H   0  0  0  0  0  0  0  0  0  0  0  0
   -1.3994    0.8677   -4.0636 C   0  0  0  0  0  0  0  0  0  0  0  0
   -1.4731    1.8775   -4.4560 H   0  0  0  0  0  0  0  0  0  0  0  0
   -1.9516   -0.2021   -4.7733 C   0  0  0  0  0  0  0  0  0  0  0  0
   -2.4521   -0.0251   -5.7207 H   0  0  0  0  0  0  0  0  0  0  0  0
   -1.8608   -1.4985   -4.2592 C   0  0  0  0  0  0  0  0  0  0  0  0
   -2.2908   -2.3313   -4.8077 H   0  0  0  0  0  0  0  0  0  0  0  0
   -1.2173   -1.7222   -3.0373 C   0  0  0  0  0  0  0  0  0  0  0  0
   -1.1579   -2.7333   -2.6458 H   0  0  0  0  0  0  0  0  0  0  0  0
   -1.0152    1.0003    0.4029 C   0  0  0  0  0  0  0  0  0  0  0  0
   -1.9869    1.5510   -0.1018 O   0  0  0  0  0  0  0  0  0  0  0  0
   -0.2151    1.7267    1.2668 N   0  0  0  0  0  0  0  0  0  0  0  0
    0.5129    1.2245    1.7668 H   0  0  0  0  0  0  0  0  0  0  0  0
   -0.4561    3.1265    1.5963 C   0  0  0  0  0  0  0  0  0  0  0  0
   -1.4315    3.2434    2.0804 H   0  0  0  0  0  0  0  0  0  0  0  0
    0.3158    3.4923    2.2802 H   0  0  0  0  0  0  0  0  0  0  0  0
   -0.4351    3.7429    0.6914 H   0  0  0  0  0  0  0  0  0  0  0  0
  1  2  1  0  0  0  0
  2  3  1  0  0  0  0
  2  4  1  0  0  0  0
  2  5  1  0  0  0  0
  5  6  2  0  0  0  0
  5  7  1  0  0  0  0
  7  8  1  0  0  0  0
  7  9  1  0  0  0  0
  9 10  1  0  0  0  0
  9 11  1  0  0  0  0
  9 25  1  0  0  0  0
 11 12  1  0  0  0  0
 11 13  1  0  0  0  0
 11 14  1  0  0  0  0
 14 15  1  0  0  0  0
 14 23  2  0  0  0  0
 15 16  1  0  0  0  0
 15 17  2  0  0  0  0
 17 18  1  0  0  0  0
 17 19  1  0  0  0  0
 19 20  1  0  0  0  0
 19 21  2  0  0  0  0
 21 22  1  0  0  0  0
 21 23  1  0  0  0  0
 23 24  1  0  0  0  0
 25 26  2  0  0  0  0
 25 27  1  0  0  0  0
 27 28  1  0  0  0  0
 27 29  1  0  0  0  0
 29 30  1  0  0  0  0
 29 31  1  0  0  0  0
 29 32  1  0  0  0  0
M  END
$$$$

  -OEChem-04042216033D

 32 32  0     1  0  0  0  0  0999 V2000
   -3.7215   -3.9349    1.6482 H   0  0  0  0  0  0  0  0  0  0  0  0
   -3.6990   -3.0526    1.0026 C   0  0  0  0  0  0  0  0  0  0  0  0
   -4.4308   -2.3287    1.3696 H   0  0  0  0  0  0  0  0  0  0  0  0
   -3.9697   -3.3512   -0.0130 H   0  0  0  0  0  0  0  0  0  0  0  0
   -2.3131   -2.4360    1.0083 C   0  0  0  0  0  0  0  0  0  0  0  0
   -1.4143   -2.9568    1.6506 O   0  0  0  0  0  0  0  0  0  0  0  0
   -2.0712   -1.2938    0.2763 N   0  0  0  0  0  0  0  0  0  0  0  0
   -2.8571   -0.8674   -0.2127 H   0  0  0  0  0  0  0  0  0  0  0  0
   -0.8006   -0.5558    0.2523 C   0  0  1  0  0  0  0  0  0  0  0  0
   -0.2149   -0.8435    1.1309 H   0  0  0  0  0  0  0  0  0  0  0  0
    0.0271   -0.9458   -0.9869 C   0  0  0  0  0  0  0  0  0  0  0  0
    0.9814   -0.4105   -0.9628 H   0  0  0  0  0  0  0  0  0  0  0  0
    0.2603   -2.0142   -0.9303 H   0  0  0  0  0  0  0  0  0  0  0  0
   -0.6687   -0.6596   -2.2996 C   0  0  0  0  0  0  0  0  0  0  0  0
   -0.5124    0.5764   -2.9453 C   0  0  0  0  0  0  0  0  0  0  0  0
    0.0922    1.3562   -2.4926 H   0  0  0  0  0  0  0  0  0  0  0  0
   -1.1466    0.8253   -4.1673 C   0  0  0  0  0  0  0  0  0  0  0  0
   -1.0270    1.7892   -4.6528 H   0  0  0  0  0  0  0  0  0  0  0  0
   -1.9378   -0.1632   -4.7599 C   0  0  0  0  0  0  0  0  0  0  0  0
   -2.4295    0.0305   -5.7085 H   0  0  0  0  0  0  0  0  0  0  0  0
   -2.0955   -1.4001   -4.1285 C   0  0  0  0  0  0  0  0  0  0  0  0
   -2.7076   -2.1702   -4.5882 H   0  0  0  0  0  0  0  0  0  0  0  0
   -1.4630   -1.6459   -2.9051 C   0  0  0  0  0  0  0  0  0  0  0  0
   -1.5883   -2.6107   -2.4230 H   0  0  0  0  0  0  0  0  0  0  0  0
   -1.0201    0.9664    0.3751 C   0  0  0  0  0  0  0  0  0  0  0  0
   -1.9781    1.5068   -0.1651 O   0  0  0  0  0  0  0  0  0  0  0  0
   -0.2278    1.7120    1.2302 N   0  0  0  0  0  0  0  0  0  0  0  0
    0.4902    1.2197    1.7539 H   0  0  0  0  0  0  0  0  0  0  0  0
   -0.4640    3.1222    1.5158 C   0  0  0  0  0  0  0  0  0  0  0  0
   -1.4510    3.2614    1.9695 H   0  0  0  0  0  0  0  0  0  0  0  0
    0.2921    3.4998    2.2108 H   0  0  0  0  0  0  0  0  0  0  0  0
   -0.4123    3.7132    0.5954 H   0  0  0  0  0  0  0  0  0  0  0  0
  1  2  1  0  0  0  0
  2  3  1  0  0  0  0
  2  4  1  0  0  0  0
  2  5  1  0  0  0  0
  5  6  2  0  0  0  0
  5  7  1  0  0  0  0
  7  8  1  0  0  0  0
  7  9  1  0  0  0  0
  9 10  1  0  0  0  0
  9 11  1  0  0  0  0
  9 25  1  0  0  0  0
 11 12  1  0  0  0  0
 11 13  1  0  0  0  0
 11 14  1  0  0  0  0
 14 15  1  0  0  0  0
 14 23  2  0  0  0  0
 15 16  1  0  0  0  0
 15 17  2  0  0  0  0
 17 18  1  0  0  0  0
 17 19  1  0  0  0  0
 19 20  1  0  0  0  0
 19 21  2  0  0  0  0
 21 22  1  0  0  0  0
 21 23  1  0  0  0  0
 23 24  1  0  0  0  0
 25 26  2  0  0  0  0
 25 27  1  0  0  0  0
 27 28  1  0  0  0  0
 27 29  1  0  0  0  0
 29 30  1  0  0  0  0
 29 31  1  0  0  0  0
 29 32  1  0  0  0  0
M  END
$$$$

  -OEChem-04042216033D

 32 32  0     1  0  0  0  0  0999 V2000
   -3.7334   -3.9248    1.7417 H   0  0  0  0  0  0  0  0  0  0  0  0
   -3.7136   -3.0486    1.0876 C   0  0  0  0  0  0  0  0  0  0  0  0
   -4.4223   -2.3088    1.4676 H   0  0  0  0  0  0  0  0  0  0  0  0
   -4.0178   -3.3511    0.0828 H   0  0  0  0  0  0  0  0  0  0  0  0
   -2.3179   -2.4552    1.0494 C   0  0  0  0  0  0  0  0  0  0  0  0
   -1.4100   -2.9846    1.6712 O   0  0  0  0  0  0  0  0  0  0  0  0
   -2.0788   -1.3223    0.3019 N   0  0  0  0  0  0  0  0  0  0  0  0
   -2.8753   -0.8765   -0.1520 H   0  0  0  0  0  0  0  0  0  0  0  0
   -0.8050   -0.5908    0.2561 C   0  0  1  0  0  0  0  0  0  0  0  0
   -0.2081   -0.8730    1.1288 H   0  0  0  0  0  0  0  0  0  0  0  0
    0.0186   -0.9558   -0.9945 C   0  0  0  0  0  0  0  0  0  0  0  0
    0.9744   -0.4235   -0.9597 H   0  0  0  0  0  0  0  0  0  0  0  0
    0.2489   -2.0257   -0.9599 H   0  0  0  0  0  0  0  0  0  0  0  0
   -0.6820   -0.6520   -2.3015 C   0  0  0  0  0  0  0  0  0  0  0  0
   -0.2943    0.4539   -3.0735 C   0  0  0  0  0  0  0  0  0  0  0  0
    0.4820    1.1235   -2.7168 H   0  0  0  0  0  0  0  0  0  0  0  0
   -0.9156    0.7202   -4.2982 C   0  0  0  0  0  0  0  0  0  0  0  0
   -0.6187    1.5885   -4.8784 H   0  0  0  0  0  0  0  0  0  0  0  0
   -1.9196   -0.1285   -4.7732 C   0  0  0  0  0  0  0  0  0  0  0  0
   -2.4025    0.0801   -5.7233 H   0  0  0  0  0  0  0  0  0  0  0  0
   -2.2976   -1.2466   -4.0245 C   0  0  0  0  0  0  0  0  0  0  0  0
   -3.0714   -1.9119   -4.3958 H   0  0  0  0  0  0  0  0  0  0  0  0
   -1.6765   -1.5093   -2.7988 C   0  0  0  0  0  0  0  0  0  0  0  0
   -1.9653   -2.3890   -2.2324 H   0  0  0  0  0  0  0  0  0  0  0  0
   -1.0334    0.9308    0.3653 C   0  0  0  0  0  0  0  0  0  0  0  0
   -2.0040    1.4553   -0.1684 O   0  0  0  0  0  0  0  0  0  0  0  0
   -0.2396    1.6931    1.2036 N   0  0  0  0  0  0  0  0  0  0  0  0
    0.4981    1.2174    1.7149 H   0  0  0  0  0  0  0  0  0  0  0  0
   -0.4763    3.1087    1.4612 C   0  0  0  0  0  0  0  0  0  0  0  0
   -1.4604    3.2550    1.9188 H   0  0  0  0  0  0  0  0  0  0  0  0
    0.2843    3.5020    2.1424 H   0  0  0  0  0  0  0  0  0  0  0  0
   -0.4329    3.6808    0.5283 H   0  0  0  0  0  0  0  0  0  0  0  0
  1  2  1  0  0  0  0
  2  3  1  0  0  0  0
  2  4  1  0  0  0  0
  2  5  1  0  0  0  0
  5  6  2  0  0  0  0
  5  7  1  0  0  0  0
  7  8  1  0  0  0  0
  7  9  1  0  0  0  0
  9 10  1  0  0  0  0
  9 11  1  0  0  0  0
  9 25  1  0  0  0  0
 11 12  1  0  0  0  0
 11 13  1  0  0  0  0
 11 14  1  0  0  0  0
 14 15  1  0  0  0  0
 14 23  2  0  0  0  0
 15 16  1  0  0  0  0
 15 17  2  0  0  0  0
 17 18  1  0  0  0  0
 17 19  1  0  0  0  0
 19 20  1  0  0  0  0
 19 21  2  0  0  0  0
 21 22  1  0  0  0  0
 21 23  1  0  0  0  0
 23 24  1  0  0  0  0
 25 26  2  0  0  0  0
 25 27  1  0  0  0  0
 27 28  1  0  0  0  0
 27 29  1  0  0  0  0
 29 30  1  0  0  0  0
 29 31  1  0  0  0  0
 29 32  1  0  0  0  0
M  END
$$$$

  -OEChem-04042216033D

 32 32  0     1  0  0  0  0  0999 V2000
   -3.7160   -3.9087    1.8734 H   0  0  0  0  0  0  0  0  0  0  0  0
   -3.7151   -3.0396    1.2096 C   0  0  0  0  0  0  0  0  0  0  0  0
   -4.3935   -2.2856    1.6163 H   0  0  0  0  0  0  0  0  0  0  0  0
   -4.0722   -3.3474    0.2240 H   0  0  0  0  0  0  0  0  0  0  0  0
   -2.3144   -2.4685    1.0961 C   0  0  0  0  0  0  0  0  0  0  0  0
   -1.3833   -3.0121    1.6696 O   0  0  0  0  0  0  0  0  0  0  0  0
   -2.0992   -1.3345    0.3426 N   0  0  0  0  0  0  0  0  0  0  0  0
   -2.9151   -0.8643   -0.0479 H   0  0  0  0  0  0  0  0  0  0  0  0
   -0.8239   -0.6098    0.2577 C   0  0  1  0  0  0  0  0  0  0  0  0
   -0.2041   -0.8955    1.1136 H   0  0  0  0  0  0  0  0  0  0  0  0
   -0.0198   -0.9447   -1.0169 C   0  0  0  0  0  0  0  0  0  0  0  0
    0.9353   -0.4122   -0.9725 H   0  0  0  0  0  0  0  0  0  0  0  0
    0.2123   -2.0145   -1.0028 H   0  0  0  0  0  0  0  0  0  0  0  0
   -0.7125   -0.6315   -2.3306 C   0  0  0  0  0  0  0  0  0  0  0  0
   -0.1246    0.2783   -3.2250 C   0  0  0  0  0  0  0  0  0  0  0  0
    0.7891    0.7982   -2.9539 H   0  0  0  0  0  0  0  0  0  0  0  0
   -0.7119    0.5458   -4.4663 C   0  0  0  0  0  0  0  0  0  0  0  0
   -0.2562    1.2670   -5.1378 H   0  0  0  0  0  0  0  0  0  0  0  0
   -1.8839   -0.1146   -4.8427 C   0  0  0  0  0  0  0  0  0  0  0  0
   -2.3414    0.0937   -5.8052 H   0  0  0  0  0  0  0  0  0  0  0  0
   -2.4592   -1.0516   -3.9810 C   0  0  0  0  0  0  0  0  0  0  0  0
   -3.3602   -1.5799   -4.2779 H   0  0  0  0  0  0  0  0  0  0  0  0
   -1.8700   -1.3160   -2.7398 C   0  0  0  0  0  0  0  0  0  0  0  0
   -2.3144   -2.0723   -2.1029 H   0  0  0  0  0  0  0  0  0  0  0  0
   -1.0563    0.9096    0.3804 C   0  0  0  0  0  0  0  0  0  0  0  0
   -2.0511    1.4270   -0.1150 O   0  0  0  0  0  0  0  0  0  0  0  0
   -0.2408    1.6738    1.1959 N   0  0  0  0  0  0  0  0  0  0  0  0
    0.5204    1.2032    1.6766 H   0  0  0  0  0  0  0  0  0  0  0  0
   -0.4778    3.0869    1.4646 C   0  0  0  0  0  0  0  0  0  0  0  0
   -1.4491    3.2264    1.9508 H   0  0  0  0  0  0  0  0  0  0  0  0
    0.2999    3.4824    2.1250 H   0  0  0  0  0  0  0  0  0  0  0  0
   -0.4640    3.6613    0.5323 H   0  0  0  0  0  0  0  0  0  0  0  0
  1  2  1  0  0  0  0
  2  3  1  0  0  0  0
  2  4  1  0  0  0  0
  2  5  1  0  0  0  0
  5  6  2  0  0  0  0
  5  7  1  0  0  0  0
  7  8  1  0  0  0  0
  7  9  1  0  0  0  0
  9 10  1  0  0  0  0
  9 11  1  0  0  0  0
  9 25  1  0  0  0  0
 11 12  1  0  0  0  0
 11 13  1  0  0  0  0
 11 14  1  0  0  0  0
 14 15  1  0  0  0  0
 14 23  2  0  0  0  0
 15 16  1  0  0  0  0
 15 17  2  0  0  0  0
 17 18  1  0  0  0  0
 17 19  1  0  0  0  0
 19 20  1  0  0  0  0
 19 21  2  0  0  0  0
 21 22  1  0  0  0  0
 21 23  1  0  0  0  0
 23 24  1  0  0  0  0
 25 26  2  0  0  0  0
 25 27  1  0  0  0  0
 27 28  1  0  0  0  0
 27 29  1  0  0  0  0
 29 30  1  0  0  0  0
 29 31  1  0  0  0  0
 29 32  1  0  0  0  0
M  END
$$$$

  -OEChem-04042216033D

 32 32  0     1  0  0  0  0  0999 V2000
   -3.6664   -3.9180    1.9885 H   0  0  0  0  0  0  0  0  0  0  0  0
   -3.6956   -3.0494    1.3248 C   0  0  0  0  0  0  0  0  0  0  0  0
   -4.3499   -2.2925    1.7641 H   0  0  0  0  0  0  0  0  0  0  0  0
   -4.1026   -3.3572    0.3588 H   0  0  0  0  0  0  0  0  0  0  0  0
   -2.2996   -2.4846    1.1408 C   0  0  0  0  0  0  0  0  0  0  0  0
   -1.3433   -3.0373    1.6617 O   0  0  0  0  0  0  0  0  0  0  0  0
   -2.1166   -1.3451    0.3862 N   0  0  0  0  0  0  0  0  0  0  0  0
   -2.9502   -0.8520    0.0684 H   0  0  0  0  0  0  0  0  0  0  0  0
   -0.8444   -0.6216    0.2586 C   0  0  1  0  0  0  0  0  0  0  0  0
   -0.1967   -0.9099    1.0926 H   0  0  0  0  0  0  0  0  0  0  0  0
   -0.0675   -0.9313   -1.0420 C   0  0  0  0  0  0  0  0  0  0  0  0
    0.8859   -0.3958   -0.9946 H   0  0  0  0  0  0  0  0  0  0  0  0
    0.1697   -2.0002   -1.0397 H   0  0  0  0  0  0  0  0  0  0  0  0
   -0.7465   -0.6199   -2.3687 C   0  0  0  0  0  0  0  0  0  0  0  0
    0.0025    0.0320   -3.3644 C   0  0  0  0  0  0  0  0  0  0  0  0
    1.0223    0.3451   -3.1637 H   0  0  0  0  0  0  0  0  0  0  0  0
   -0.5459    0.3056   -4.6216 C   0  0  0  0  0  0  0  0  0  0  0  0
    0.0434    0.8273   -5.3696 H   0  0  0  0  0  0  0  0  0  0  0  0
   -1.8508   -0.0930   -4.9156 C   0  0  0  0  0  0  0  0  0  0  0  0
   -2.2806    0.1212   -5.8895 H   0  0  0  0  0  0  0  0  0  0  0  0
   -2.5967   -0.7793   -3.9558 C   0  0  0  0  0  0  0  0  0  0  0  0
   -3.6053   -1.1072   -4.1882 H   0  0  0  0  0  0  0  0  0  0  0  0
   -2.0443   -1.0528   -2.6995 C   0  0  0  0  0  0  0  0  0  0  0  0
   -2.6428   -1.6214   -2.0005 H   0  0  0  0  0  0  0  0  0  0  0  0
   -1.0825    0.8952    0.4025 C   0  0  0  0  0  0  0  0  0  0  0  0
   -2.1048    1.4049   -0.0431 O   0  0  0  0  0  0  0  0  0  0  0  0
   -0.2431    1.6592    1.1933 N   0  0  0  0  0  0  0  0  0  0  0  0
    0.5465    1.1934    1.6308 H   0  0  0  0  0  0  0  0  0  0  0  0
   -0.4774    3.0692    1.4803 C   0  0  0  0  0  0  0  0  0  0  0  0
   -1.4347    3.2023    1.9955 H   0  0  0  0  0  0  0  0  0  0  0  0
    0.3175    3.4617    2.1215 H   0  0  0  0  0  0  0  0  0  0  0  0
   -0.4919    3.6514    0.5529 H   0  0  0  0  0  0  0  0  0  0  0  0
  1  2  1  0  0  0  0
  2  3  1  0  0  0  0
  2  4  1  0  0  0  0
  2  5  1  0  0  0  0
  5  6  2  0  0  0  0
  5  7  1  0  0  0  0
  7  8  1  0  0  0  0
  7  9  1  0  0  0  0
  9 10  1  0  0  0  0
  9 11  1  0  0  0  0
  9 25  1  0  0  0  0
 11 12  1  0  0  0  0
 11 13  1  0  0  0  0
 11 14  1  0  0  0  0
 14 15  1  0  0  0  0
 14 23  2  0  0  0  0
 15 16  1  0  0  0  0
 15 17  2  0  0  0  0
 17 18  1  0  0  0  0
 17 19  1  0  0  0  0
 19 20  1  0  0  0  0
 19 21  2  0  0  0  0
 21 22  1  0  0  0  0
 21 23  1  0  0  0  0
 23 24  1  0  0  0  0
 25 26  2  0  0  0  0
 25 27  1  0  0  0  0
 27 28  1  0  0  0  0
 27 29  1  0  0  0  0
 29 30  1  0  0  0  0
 29 31  1  0  0  0  0
 29 32  1  0  0  0  0
M  END
$$$$

  -OEChem-04042216033D

 32 32  0     1  0  0  0  0  0999 V2000
   -3.6036   -3.9549    2.0411 H   0  0  0  0  0  0  0  0  0  0  0  0
   -3.6606   -3.0752    1.3941 C   0  0  0  0  0  0  0  0  0  0  0  0
   -4.2957   -2.3265    1.8737 H   0  0  0  0  0  0  0  0  0  0  0  0
   -4.1081   -3.3667    0.4409 H   0  0  0  0  0  0  0  0  0  0  0  0
   -2.2733   -2.5070    1.1609 C   0  0  0  0  0  0  0  0  0  0  0  0
   -1.2980   -3.0591    1.6463 O   0  0  0  0  0  0  0  0  0  0  0  0
   -2.1207   -1.3611    0.4089 N   0  0  0  0  0  0  0  0  0  0  0  0
   -2.9681   -0.8611    0.1446 H   0  0  0  0  0  0  0  0  0  0  0  0
   -0.8557   -0.6280    0.2568 C   0  0  1  0  0  0  0  0  0  0  0  0
   -0.1874   -0.9168    1.0742 H   0  0  0  0  0  0  0  0  0  0  0  0
   -0.1075   -0.9291   -1.0622 C   0  0  0  0  0  0  0  0  0  0  0  0
    0.8417   -0.3852   -1.0247 H   0  0  0  0  0  0  0  0  0  0  0  0
    0.1374   -1.9960   -1.0578 H   0  0  0  0  0  0  0  0  0  0  0  0
   -0.7751   -0.6328   -2.4010 C   0  0  0  0  0  0  0  0  0  0  0  0
    0.0650   -0.2962   -3.4778 C   0  0  0  0  0  0  0  0  0  0  0  0
    1.1403   -0.2511   -3.3344 H   0  0  0  0  0  0  0  0  0  0  0  0
   -0.4533   -0.0144   -4.7459 C   0  0  0  0  0  0  0  0  0  0  0  0
    0.2148    0.2485   -5.5606 H   0  0  0  0  0  0  0  0  0  0  0  0
   -1.8301   -0.0702   -4.9645 C   0  0  0  0  0  0  0  0  0  0  0  0
   -2.2361    0.1507   -5.9473 H   0  0  0  0  0  0  0  0  0  0  0  0
   -2.6824   -0.4116   -3.9131 C   0  0  0  0  0  0  0  0  0  0  0  0
   -3.7549   -0.4546   -4.0777 H   0  0  0  0  0  0  0  0  0  0  0  0
   -2.1607   -0.6950   -2.6458 C   0  0  0  0  0  0  0  0  0  0  0  0
   -2.8666   -0.9543   -1.8703 H   0  0  0  0  0  0  0  0  0  0  0  0
   -1.1011    0.8858    0.4171 C   0  0  0  0  0  0  0  0  0  0  0  0
   -2.1423    1.3879    0.0073 O   0  0  0  0  0  0  0  0  0  0  0  0
   -0.2490    1.6500    1.1936 N   0  0  0  0  0  0  0  0  0  0  0  0
    0.5603    1.1896    1.5996 H   0  0  0  0  0  0  0  0  0  0  0  0
   -0.4905    3.0542    1.5019 C   0  0  0  0  0  0  0  0  0  0  0  0
   -1.4305    3.1701    2.0516 H   0  0  0  0  0  0  0  0  0  0  0  0
    0.3218    3.4512    2.1182 H   0  0  0  0  0  0  0  0  0  0  0  0
   -0.5457    3.6441    0.5810 H   0  0  0  0  0  0  0  0  0  0  0  0
  1  2  1  0  0  0  0
  2  3  1  0  0  0  0
  2  4  1  0  0  0  0
  2  5  1  0  0  0  0
  5  6  2  0  0  0  0
  5  7  1  0  0  0  0
  7  8  1  0  0  0  0
  7  9  1  0  0  0  0
  9 10  1  0  0  0  0
  9 11  1  0  0  0  0
  9 25  1  0  0  0  0
 11 12  1  0  0  0  0
 11 13  1  0  0  0  0
 11 14  1  0  0  0  0
 14 15  1  0  0  0  0
 14 23  2  0  0  0  0
 15 16  1  0  0  0  0
 15 17  2  0  0  0  0
 17 18  1  0  0  0  0
 17 19  1  0  0  0  0
 19 20  1  0  0  0  0
 19 21  2  0  0  0  0
 21 22  1  0  0  0  0
 21 23  1  0  0  0  0
 23 24  1  0  0  0  0
 25 26  2  0  0  0  0
 25 27  1  0  0  0  0
 27 28  1  0  0  0  0
 27 29  1  0  0  0  0
 29 30  1  0  0  0  0
 29 31  1  0  0  0  0
 29 32  1  0  0  0  0
M  END
$$$$

  -OEChem-04042216033D

 32 32  0     1  0  0  0  0  0999 V2000
   -3.5763   -3.9992    1.9431 H   0  0  0  0  0  0  0  0  0  0  0  0
   -3.6425   -3.0970    1.3286 C   0  0  0  0  0  0  0  0  0  0  0  0
   -4.2957   -2.3775    1.8281 H   0  0  0  0  0  0  0  0  0  0  0  0
   -4.0744   -3.3609    0.3603 H   0  0  0  0  0  0  0  0  0  0  0  0
   -2.2642   -2.4952    1.1319 C   0  0  0  0  0  0  0  0  0  0  0  0
   -1.2851   -3.0384    1.6200 O   0  0  0  0  0  0  0  0  0  0  0  0
   -2.1249   -1.3325    0.4036 N   0  0  0  0  0  0  0  0  0  0  0  0
   -2.9787   -0.8525    0.1260 H   0  0  0  0  0  0  0  0  0  0  0  0
   -0.8668   -0.5842    0.2578 C   0  0  1  0  0  0  0  0  0  0  0  0
   -0.1958   -0.8828    1.0695 H   0  0  0  0  0  0  0  0  0  0  0  0
   -0.1312   -0.9056   -1.0619 C   0  0  0  0  0  0  0  0  0  0  0  0
    0.8149   -0.3552   -1.0482 H   0  0  0  0  0  0  0  0  0  0  0  0
    0.1191   -1.9713   -1.0385 H   0  0  0  0  0  0  0  0  0  0  0  0
   -0.8059   -0.6365   -2.4015 C   0  0  0  0  0  0  0  0  0  0  0  0
    0.0173   -0.6429   -3.5407 C   0  0  0  0  0  0  0  0  0  0  0  0
    1.0786   -0.8492   -3.4394 H   0  0  0  0  0  0  0  0  0  0  0  0
   -0.5023   -0.3960   -4.8154 C   0  0  0  0  0  0  0  0  0  0  0  0
    0.1527   -0.4106   -5.6812 H   0  0  0  0  0  0  0  0  0  0  0  0
   -1.8626   -0.1278   -4.9740 C   0  0  0  0  0  0  0  0  0  0  0  0
   -2.2691    0.0693   -5.9615 H   0  0  0  0  0  0  0  0  0  0  0  0
   -2.6970   -0.1061   -3.8552 C   0  0  0  0  0  0  0  0  0  0  0  0
   -3.7538    0.1148   -3.9718 H   0  0  0  0  0  0  0  0  0  0  0  0
   -2.1746   -0.3569   -2.5816 C   0  0  0  0  0  0  0  0  0  0  0  0
   -2.8608   -0.3058   -1.7473 H   0  0  0  0  0  0  0  0  0  0  0  0
   -1.0938    0.9299    0.4464 C   0  0  0  0  0  0  0  0  0  0  0  0
   -2.1394    1.4504    0.0729 O   0  0  0  0  0  0  0  0  0  0  0  0
   -0.2248    1.6694    1.2285 N   0  0  0  0  0  0  0  0  0  0  0  0
    0.5855    1.1929    1.6137 H   0  0  0  0  0  0  0  0  0  0  0  0
   -0.4528    3.0665    1.5776 C   0  0  0  0  0  0  0  0  0  0  0  0
   -1.3753    3.1703    2.1585 H   0  0  0  0  0  0  0  0  0  0  0  0
    0.3791    3.4474    2.1779 H   0  0  0  0  0  0  0  0  0  0  0  0
   -0.5347    3.6788    0.6733 H   0  0  0  0  0  0  0  0  0  0  0  0
  1  2  1  0  0  0  0
  2  3  1  0  0  0  0
  2  4  1  0  0  0  0
  2  5  1  0  0  0  0
  5  6  2  0  0  0  0
  5  7  1  0  0  0  0
  7  8  1  0  0  0  0
  7  9  1  0  0  0  0
  9 10  1  0  0  0  0
  9 11  1  0  0  0  0
  9 25  1  0  0  0  0
 11 12  1  0  0  0  0
 11 13  1  0  0  0  0
 11 14  1  0  0  0  0
 14 15  1  0  0  0  0
 14 23  2  0  0  0  0
 15 16  1  0  0  0  0
 15 17  2  0  0  0  0
 17 18  1  0  0  0  0
 17 19  1  0  0  0  0
 19 20  1  0  0  0  0
 19 21  2  0  0  0  0
 21 22  1  0  0  0  0
 21 23  1  0  0  0  0
 23 24  1  0  0  0  0
 25 26  2  0  0  0  0
 25 27  1  0  0  0  0
 27 28  1  0  0  0  0
 27 29  1  0  0  0  0
 29 30  1  0  0  0  0
 29 31  1  0  0  0  0
 29 32  1  0  0  0  0
M  END
$$$$

  -OEChem-04042216033D

 32 32  0     1  0  0  0  0  0999 V2000
   -3.5338   -4.0230    1.6713 H   0  0  0  0  0  0  0  0  0  0  0  0
   -3.6236   -3.0798    1.1251 C   0  0  0  0  0  0  0  0  0  0  0  0
   -4.2917   -2.4151    1.6782 H   0  0  0  0  0  0  0  0  0  0  0  0
   -4.0540   -3.2817    0.1411 H   0  0  0  0  0  0  0  0  0  0  0  0
   -2.2599   -2.4332    0.9691 C   0  0  0  0  0  0  0  0  0  0  0  0
   -1.2627   -3.0029    1.3851 O   0  0  0  0  0  0  0  0  0  0  0  0
   -2.1539   -1.2040    0.3519 N   0  0  0  0  0  0  0  0  0  0  0  0
   -3.0210   -0.7325    0.1021 H   0  0  0  0  0  0  0  0  0  0  0  0
   -0.9150   -0.4194    0.2384 C   0  0  1  0  0  0  0  0  0  0  0  0
   -0.2643   -0.7711    1.0456 H   0  0  0  0  0  0  0  0  0  0  0  0
   -0.1379   -0.7539   -1.0544 C   0  0  0  0  0  0  0  0  0  0  0  0
    0.8818   -0.3785   -0.9230 H   0  0  0  0  0  0  0  0  0  0  0  0
   -0.0687   -1.8447   -1.1230 H   0  0  0  0  0  0  0  0  0  0  0  0
   -0.6305   -0.2382   -2.3978 C   0  0  0  0  0  0  0  0  0  0  0  0
    0.1295   -0.5789   -3.5298 C   0  0  0  0  0  0  0  0  0  0  0  0
    1.0476   -1.1465   -3.4121 H   0  0  0  0  0  0  0  0  0  0  0  0
   -0.2650   -0.1919   -4.8148 C   0  0  0  0  0  0  0  0  0  0  0  0
    0.3464   -0.4534   -5.6736 H   0  0  0  0  0  0  0  0  0  0  0  0
   -1.4479    0.5271   -4.9933 C   0  0  0  0  0  0  0  0  0  0  0  0
   -1.7582    0.8309   -5.9887 H   0  0  0  0  0  0  0  0  0  0  0  0
   -2.2381    0.8410   -3.8861 C   0  0  0  0  0  0  0  0  0  0  0  0
   -3.1690    1.3836   -4.0201 H   0  0  0  0  0  0  0  0  0  0  0  0
   -1.8408    0.4497   -2.6030 C   0  0  0  0  0  0  0  0  0  0  0  0
   -2.5105    0.6807   -1.7864 H   0  0  0  0  0  0  0  0  0  0  0  0
   -1.0845    1.0822    0.5621 C   0  0  0  0  0  0  0  0  0  0  0  0
   -2.1556    1.6455    0.3671 O   0  0  0  0  0  0  0  0  0  0  0  0
   -0.1565    1.7195    1.3672 N   0  0  0  0  0  0  0  0  0  0  0  0
    0.6762    1.1999    1.6290 H   0  0  0  0  0  0  0  0  0  0  0  0
   -0.3381    3.0677    1.8930 C   0  0  0  0  0  0  0  0  0  0  0  0
   -1.2048    3.1048    2.5614 H   0  0  0  0  0  0  0  0  0  0  0  0
    0.5475    3.3762    2.4568 H   0  0  0  0  0  0  0  0  0  0  0  0
   -0.4918    3.7803    1.0756 H   0  0  0  0  0  0  0  0  0  0  0  0
  1  2  1  0  0  0  0
  2  3  1  0  0  0  0
  2  4  1  0  0  0  0
  2  5  1  0  0  0  0
  5  6  2  0  0  0  0
  5  7  1  0  0  0  0
  7  8  1  0  0  0  0
  7  9  1  0  0  0  0
  9 10  1  0  0  0  0
  9 11  1  0  0  0  0
  9 25  1  0  0  0  0
 11 12  1  0  0  0  0
 11 13  1  0  0  0  0
 11 14  1  0  0  0  0
 14 15  1  0  0  0  0
 14 23  2  0  0  0  0
 15 16  1  0  0  0  0
 15 17  2  0  0  0  0
 17 18  1  0  0  0  0
 17 19  1  0  0  0  0
 19 20  1  0  0  0  0
 19 21  2  0  0  0  0
 21 22  1  0  0  0  0
 21 23  1  0  0  0  0
 23 24  1  0  0  0  0
 25 26  2  0  0  0  0
 25 27  1  0  0  0  0
 27 28  1  0  0  0  0
 27 29  1  0  0  0  0
 29 30  1  0  0  0  0
 29 31  1  0  0  0  0
 29 32  1  0  0  0  0
M  END
$$$$

  -OEChem-04042216033D

 32 32  0     1  0  0  0  0  0999 V2000
   -3.4623   -4.1085    1.5420 H   0  0  0  0  0  0  0  0  0  0  0  0
   -3.5784   -3.1608    1.0089 C   0  0  0  0  0  0  0  0  0  0  0  0
   -4.2967   -2.5390    1.5489 H   0  0  0  0  0  0  0  0  0  0  0  0
   -3.9641   -3.3645    0.0070 H   0  0  0  0  0  0  0  0  0  0  0  0
   -2.2433   -2.4464    0.9131 C   0  0  0  0  0  0  0  0  0  0  0  0
   -1.2335   -2.9769    1.3507 O   0  0  0  0  0  0  0  0  0  0  0  0
   -2.1770   -1.2009    0.3240 N   0  0  0  0  0  0  0  0  0  0  0  0
   -3.0556   -0.7712    0.0402 H   0  0  0  0  0  0  0  0  0  0  0  0
   -0.9746   -0.3578    0.2541 C   0  0  1  0  0  0  0  0  0  0  0  0
   -0.3420   -0.6881    1.0845 H   0  0  0  0  0  0  0  0  0  0  0  0
   -0.1284   -0.6739   -1.0004 C   0  0  0  0  0  0  0  0  0  0  0  0
    0.8652   -0.2465   -0.8327 H   0  0  0  0  0  0  0  0  0  0  0  0
   -0.0032   -1.7617   -1.0346 H   0  0  0  0  0  0  0  0  0  0  0  0
   -0.5666   -0.2138   -2.3844 C   0  0  0  0  0  0  0  0  0  0  0  0
    0.0814   -0.8151   -3.4777 C   0  0  0  0  0  0  0  0  0  0  0  0
    0.8639   -1.5481   -3.3042 H   0  0  0  0  0  0  0  0  0  0  0  0
   -0.2533   -0.4873   -4.7954 C   0  0  0  0  0  0  0  0  0  0  0  0
    0.2677   -0.9611   -5.6220 H   0  0  0  0  0  0  0  0  0  0  0  0
   -1.2589    0.4466   -5.0470 C   0  0  0  0  0  0  0  0  0  0  0  0
   -1.5239    0.7032   -6.0687 H   0  0  0  0  0  0  0  0  0  0  0  0
   -1.9282    1.0430   -3.9772 C   0  0  0  0  0  0  0  0  0  0  0  0
   -2.7194    1.7629   -4.1653 H   0  0  0  0  0  0  0  0  0  0  0  0
   -1.5897    0.7127   -2.6602 C   0  0  0  0  0  0  0  0  0  0  0  0
   -2.1608    1.1925   -1.8810 H   0  0  0  0  0  0  0  0  0  0  0  0
   -1.2169    1.1271    0.6026 C   0  0  0  0  0  0  0  0  0  0  0  0
   -2.3197    1.6329    0.4250 O   0  0  0  0  0  0  0  0  0  0  0  0
   -0.3341    1.7873    1.4399 N   0  0  0  0  0  0  0  0  0  0  0  0
    0.5250    1.3069    1.6918 H   0  0  0  0  0  0  0  0  0  0  0  0
   -0.5983    3.1020    2.0135 C   0  0  0  0  0  0  0  0  0  0  0  0
   -1.4936    3.0724    2.6436 H   0  0  0  0  0  0  0  0  0  0  0  0
    0.2469    3.4234    2.6297 H   0  0  0  0  0  0  0  0  0  0  0  0
   -0.7492    3.8423    1.2207 H   0  0  0  0  0  0  0  0  0  0  0  0
  1  2  1  0  0  0  0
  2  3  1  0  0  0  0
  2  4  1  0  0  0  0
  2  5  1  0  0  0  0
  5  6  2  0  0  0  0
  5  7  1  0  0  0  0
  7  8  1  0  0  0  0
  7  9  1  0  0  0  0
  9 10  1  0  0  0  0
  9 11  1  0  0  0  0
  9 25  1  0  0  0  0
 11 12  1  0  0  0  0
 11 13  1  0  0  0  0
 11 14  1  0  0  0  0
 14 15  1  0  0  0  0
 14 23  2  0  0  0  0
 15 16  1  0  0  0  0
 15 17  2  0  0  0  0
 17 18  1  0  0  0  0
 17 19  1  0  0  0  0
 19 20  1  0  0  0  0
 19 21  2  0  0  0  0
 21 22  1  0  0  0  0
 21 23  1  0  0  0  0
 23 24  1  0  0  0  0
 25 26  2  0  0  0  0
 25 27  1  0  0  0  0
 27 28  1  0  0  0  0
 27 29  1  0  0  0  0
 29 30  1  0  0  0  0
 29 31  1  0  0  0  0
 29 32  1  0  0  0  0
M  END
$$$$

  -OEChem-04042216033D

 32 32  0     1  0  0  0  0  0999 V2000
   -3.5721   -3.9982    1.6279 H   0  0  0  0  0  0  0  0  0  0  0  0
   -3.6507   -3.0451    1.0976 C   0  0  0  0  0  0  0  0  0  0  0  0
   -4.3139   -2.3828    1.6594 H   0  0  0  0  0  0  0  0  0  0  0  0
   -4.0795   -3.2257    0.1090 H   0  0  0  0  0  0  0  0  0  0  0  0
   -2.2804   -2.4093    0.9583 C   0  0  0  0  0  0  0  0  0  0  0  0
   -1.2909   -2.9929    1.3740 O   0  0  0  0  0  0  0  0  0  0  0  0
   -2.1585   -1.1735    0.3585 N   0  0  0  0  0  0  0  0  0  0  0  0
   -3.0170   -0.6958    0.0890 H   0  0  0  0  0  0  0  0  0  0  0  0
   -0.9106   -0.4045    0.2446 C   0  0  1  0  0  0  0  0  0  0  0  0
   -0.2541   -0.7673    1.0421 H   0  0  0  0  0  0  0  0  0  0  0  0
   -0.1684   -0.7744   -1.0627 C   0  0  0  0  0  0  0  0  0  0  0  0
    0.8603   -0.4156   -0.9600 H   0  0  0  0  0  0  0  0  0  0  0  0
   -0.1165   -1.8678   -1.1006 H   0  0  0  0  0  0  0  0  0  0  0  0
   -0.6636   -0.2688   -2.4130 C   0  0  0  0  0  0  0  0  0  0  0  0
   -0.4132   -1.0903   -3.5274 C   0  0  0  0  0  0  0  0  0  0  0  0
    0.0749   -2.0512   -3.3941 H   0  0  0  0  0  0  0  0  0  0  0  0
   -0.7911   -0.7075   -4.8181 C   0  0  0  0  0  0  0  0  0  0  0  0
   -0.6007   -1.3686   -5.6583 H   0  0  0  0  0  0  0  0  0  0  0  0
   -1.4105    0.5248   -5.0256 C   0  0  0  0  0  0  0  0  0  0  0  0
   -1.7068    0.8267   -6.0258 H   0  0  0  0  0  0  0  0  0  0  0  0
   -1.6360    1.3732   -3.9410 C   0  0  0  0  0  0  0  0  0  0  0  0
   -2.1021    2.3416   -4.0974 H   0  0  0  0  0  0  0  0  0  0  0  0
   -1.2559    0.9868   -2.6509 C   0  0  0  0  0  0  0  0  0  0  0  0
   -1.4276    1.7066   -1.8649 H   0  0  0  0  0  0  0  0  0  0  0  0
   -1.0921    1.0859    0.5970 C   0  0  0  0  0  0  0  0  0  0  0  0
   -2.1734    1.6349    0.4124 O   0  0  0  0  0  0  0  0  0  0  0  0
   -0.1688    1.7204    1.4096 N   0  0  0  0  0  0  0  0  0  0  0  0
    0.6580    1.1956    1.6803 H   0  0  0  0  0  0  0  0  0  0  0  0
   -0.3851    3.0385    1.9947 C   0  0  0  0  0  0  0  0  0  0  0  0
   -1.2478    3.0211    2.6688 H   0  0  0  0  0  0  0  0  0  0  0  0
    0.4950    3.3476    2.5668 H   0  0  0  0  0  0  0  0  0  0  0  0
   -0.5646    3.7818    1.2107 H   0  0  0  0  0  0  0  0  0  0  0  0
  1  2  1  0  0  0  0
  2  3  1  0  0  0  0
  2  4  1  0  0  0  0
  2  5  1  0  0  0  0
  5  6  2  0  0  0  0
  5  7  1  0  0  0  0
  7  8  1  0  0  0  0
  7  9  1  0  0  0  0
  9 10  1  0  0  0  0
  9 11  1  0  0  0  0
  9 25  1  0  0  0  0
 11 12  1  0  0  0  0
 11 13  1  0  0  0  0
 11 14  1  0  0  0  0
 14 15  1  0  0  0  0
 14 23  2  0  0  0  0
 15 16  1  0  0  0  0
 15 17  2  0  0  0  0
 17 18  1  0  0  0  0
 17 19  1  0  0  0  0
 19 20  1  0  0  0  0
 19 21  2  0  0  0  0
 21 22  1  0  0  0  0
 21 23  1  0  0  0  0
 23 24  1  0  0  0  0
 25 26  2  0  0  0  0
 25 27  1  0  0  0  0
 27 28  1  0  0  0  0
 27 29  1  0  0  0  0
 29 30  1  0  0  0  0
 29 31  1  0  0  0  0
 29 32  1  0  0  0  0
M  END
$$$$

  -OEChem-04042216033D

 32 32  0     1  0  0  0  0  0999 V2000
   -3.5748   -4.0201    1.6197 H   0  0  0  0  0  0  0  0  0  0  0  0
   -3.6324   -3.0837    1.0577 C   0  0  0  0  0  0  0  0  0  0  0  0
   -4.3296   -2.4117    1.5637 H   0  0  0  0  0  0  0  0  0  0  0  0
   -4.0064   -3.2968    0.0535 H   0  0  0  0  0  0  0  0  0  0  0  0
   -2.2621   -2.4388    0.9716 C   0  0  0  0  0  0  0  0  0  0  0  0
   -1.2899   -3.0011    1.4521 O   0  0  0  0  0  0  0  0  0  0  0  0
   -2.1189   -1.2200    0.3431 N   0  0  0  0  0  0  0  0  0  0  0  0
   -2.9637   -0.7605    0.0059 H   0  0  0  0  0  0  0  0  0  0  0  0
   -0.8695   -0.4504    0.2593 C   0  0  1  0  0  0  0  0  0  0  0  0
   -0.2216   -0.7958    1.0711 H   0  0  0  0  0  0  0  0  0  0  0  0
   -0.1251   -0.8190   -1.0462 C   0  0  0  0  0  0  0  0  0  0  0  0
    0.9051   -0.4635   -0.9482 H   0  0  0  0  0  0  0  0  0  0  0  0
   -0.0743   -1.9115   -1.1001 H   0  0  0  0  0  0  0  0  0  0  0  0
   -0.6508   -0.2750   -2.3669 C   0  0  0  0  0  0  0  0  0  0  0  0
   -0.7443   -1.1620   -3.4544 C   0  0  0  0  0  0  0  0  0  0  0  0
   -0.5145   -2.2146   -3.3194 H   0  0  0  0  0  0  0  0  0  0  0  0
   -1.1474   -0.7219   -4.7193 C   0  0  0  0  0  0  0  0  0  0  0  0
   -1.2321   -1.4294   -5.5386 H   0  0  0  0  0  0  0  0  0  0  0  0
   -1.4355    0.6272   -4.9293 C   0  0  0  0  0  0  0  0  0  0  0  0
   -1.7493    0.9730   -5.9097 H   0  0  0  0  0  0  0  0  0  0  0  0
   -1.3007    1.5331   -3.8762 C   0  0  0  0  0  0  0  0  0  0  0  0
   -1.5020    2.5878   -4.0377 H   0  0  0  0  0  0  0  0  0  0  0  0
   -0.8946    1.0897   -2.6131 C   0  0  0  0  0  0  0  0  0  0  0  0
   -0.7597    1.8412   -1.8454 H   0  0  0  0  0  0  0  0  0  0  0  0
   -1.0906    1.0440    0.5654 C   0  0  0  0  0  0  0  0  0  0  0  0
   -2.1429    1.5915    0.2544 O   0  0  0  0  0  0  0  0  0  0  0  0
   -0.2174    1.7171    1.4013 N   0  0  0  0  0  0  0  0  0  0  0  0
    0.5863    1.2046    1.7528 H   0  0  0  0  0  0  0  0  0  0  0  0
   -0.4580    3.0690    1.8920 C   0  0  0  0  0  0  0  0  0  0  0  0
   -1.3771    3.1030    2.4862 H   0  0  0  0  0  0  0  0  0  0  0  0
    0.3740    3.3959    2.5231 H   0  0  0  0  0  0  0  0  0  0  0  0
   -0.5525    3.7693    1.0555 H   0  0  0  0  0  0  0  0  0  0  0  0
  1  2  1  0  0  0  0
  2  3  1  0  0  0  0
  2  4  1  0  0  0  0
  2  5  1  0  0  0  0
  5  6  2  0  0  0  0
  5  7  1  0  0  0  0
  7  8  1  0  0  0  0
  7  9  1  0  0  0  0
  9 10  1  0  0  0  0
  9 11  1  0  0  0  0
  9 25  1  0  0  0  0
 11 12  1  0  0  0  0
 11 13  1  0  0  0  0
 11 14  1  0  0  0  0
 14 15  1  0  0  0  0
 14 23  2  0  0  0  0
 15 16  1  0  0  0  0
 15 17  2  0  0  0  0
 17 18  1  0  0  0  0
 17 19  1  0  0  0  0
 19 20  1  0  0  0  0
 19 21  2  0  0  0  0
 21 22  1  0  0  0  0
 21 23  1  0  0  0  0
 23 24  1  0  0  0  0
 25 26  2  0  0  0  0
 25 27  1  0  0  0  0
 27 28  1  0  0  0  0
 27 29  1  0  0  0  0
 29 30  1  0  0  0  0
 29 31  1  0  0  0  0
 29 32  1  0  0  0  0
M  END
$$$$

  -OEChem-04042216033D

 32 32  0     1  0  0  0  0  0999 V2000
   -3.6169   -3.9960    1.6157 H   0  0  0  0  0  0  0  0  0  0  0  0
   -3.6508   -3.0711    1.0330 C   0  0  0  0  0  0  0  0  0  0  0  0
   -4.3588   -2.3843    1.5030 H   0  0  0  0  0  0  0  0  0  0  0  0
   -3.9954   -3.3029    0.0223 H   0  0  0  0  0  0  0  0  0  0  0  0
   -2.2739   -2.4371    0.9768 C   0  0  0  0  0  0  0  0  0  0  0  0
   -1.3245   -2.9898    1.5109 O   0  0  0  0  0  0  0  0  0  0  0  0
   -2.0977   -1.2407    0.3147 N   0  0  0  0  0  0  0  0  0  0  0  0
   -2.9248   -0.7858   -0.0695 H   0  0  0  0  0  0  0  0  0  0  0  0
   -0.8411   -0.4811    0.2579 C   0  0  1  0  0  0  0  0  0  0  0  0
   -0.2159   -0.8105    1.0938 H   0  0  0  0  0  0  0  0  0  0  0  0
   -0.0704   -0.8592   -1.0266 C   0  0  0  0  0  0  0  0  0  0  0  0
    0.9609   -0.5102   -0.9165 H   0  0  0  0  0  0  0  0  0  0  0  0
   -0.0254   -1.9514   -1.0922 H   0  0  0  0  0  0  0  0  0  0  0  0
   -0.6036   -0.2888   -2.3278 C   0  0  0  0  0  0  0  0  0  0  0  0
   -1.0179   -1.1715   -3.3392 C   0  0  0  0  0  0  0  0  0  0  0  0
   -1.0108   -2.2428   -3.1624 H   0  0  0  0  0  0  0  0  0  0  0  0
   -1.4569   -0.6923   -4.5778 C   0  0  0  0  0  0  0  0  0  0  0  0
   -1.7893   -1.3883   -5.3421 H   0  0  0  0  0  0  0  0  0  0  0  0
   -1.4647    0.6811   -4.8322 C   0  0  0  0  0  0  0  0  0  0  0  0
   -1.8081    1.0565   -5.7915 H   0  0  0  0  0  0  0  0  0  0  0  0
   -1.0182    1.5701   -3.8516 C   0  0  0  0  0  0  0  0  0  0  0  0
   -1.0091    2.6380   -4.0488 H   0  0  0  0  0  0  0  0  0  0  0  0
   -0.5773    1.0873   -2.6150 C   0  0  0  0  0  0  0  0  0  0  0  0
   -0.2133    1.8017   -1.8844 H   0  0  0  0  0  0  0  0  0  0  0  0
   -1.0682    1.0238    0.5057 C   0  0  0  0  0  0  0  0  0  0  0  0
   -2.0900    1.5729    0.1093 O   0  0  0  0  0  0  0  0  0  0  0  0
   -0.2275    1.7202    1.3558 N   0  0  0  0  0  0  0  0  0  0  0  0
    0.5469    1.2110    1.7720 H   0  0  0  0  0  0  0  0  0  0  0  0
   -0.4784    3.0910    1.7852 C   0  0  0  0  0  0  0  0  0  0  0  0
   -1.4209    3.1523    2.3394 H   0  0  0  0  0  0  0  0  0  0  0  0
    0.3294    3.4369    2.4372 H   0  0  0  0  0  0  0  0  0  0  0  0
   -0.5341    3.7601    0.9201 H   0  0  0  0  0  0  0  0  0  0  0  0
  1  2  1  0  0  0  0
  2  3  1  0  0  0  0
  2  4  1  0  0  0  0
  2  5  1  0  0  0  0
  5  6  2  0  0  0  0
  5  7  1  0  0  0  0
  7  8  1  0  0  0  0
  7  9  1  0  0  0  0
  9 10  1  0  0  0  0
  9 11  1  0  0  0  0
  9 25  1  0  0  0  0
 11 12  1  0  0  0  0
 11 13  1  0  0  0  0
 11 14  1  0  0  0  0
 14 15  1  0  0  0  0
 14 23  2  0  0  0  0
 15 16  1  0  0  0  0
 15 17  2  0  0  0  0
 17 18  1  0  0  0  0
 17 19  1  0  0  0  0
 19 20  1  0  0  0  0
 19 21  2  0  0  0  0
 21 22  1  0  0  0  0
 21 23  1  0  0  0  0
 23 24  1  0  0  0  0
 25 26  2  0  0  0  0
 25 27  1  0  0  0  0
 27 28  1  0  0  0  0
 27 29  1  0  0  0  0
 29 30  1  0  0  0  0
 29 31  1  0  0  0  0
 29 32  1  0  0  0  0
M  END
$$$$

  -OEChem-04042216033D

 32 32  0     1  0  0  0  0  0999 V2000
   -3.6661   -3.9623    1.6245 H   0  0  0  0  0  0  0  0  0  0  0  0
   -3.6719   -3.0564    1.0121 C   0  0  0  0  0  0  0  0  0  0  0  0
   -4.3863   -2.3482    1.4392 H   0  0  0  0  0  0  0  0  0  0  0  0
   -3.9883   -3.3170   -0.0008 H   0  0  0  0  0  0  0  0  0  0  0  0
   -2.2867   -2.4384    0.9783 C   0  0  0  0  0  0  0  0  0  0  0  0
   -1.3590   -2.9837    1.5559 O   0  0  0  0  0  0  0  0  0  0  0  0
   -2.0801   -1.2624    0.2894 N   0  0  0  0  0  0  0  0  0  0  0  0
   -2.8922   -0.8098   -0.1280 H   0  0  0  0  0  0  0  0  0  0  0  0
   -0.8179   -0.5104    0.2537 C   0  0  1  0  0  0  0  0  0  0  0  0
   -0.2129   -0.8262    1.1096 H   0  0  0  0  0  0  0  0  0  0  0  0
   -0.0205   -0.8933   -1.0098 C   0  0  0  0  0  0  0  0  0  0  0  0
    1.0110   -0.5504   -0.8834 H   0  0  0  0  0  0  0  0  0  0  0  0
    0.0186   -1.9846   -1.0880 H   0  0  0  0  0  0  0  0  0  0  0  0
   -0.5541   -0.3040   -2.2979 C   0  0  0  0  0  0  0  0  0  0  0  0
   -1.2576   -1.1204   -3.1972 C   0  0  0  0  0  0  0  0  0  0  0  0
   -1.4461   -2.1612   -2.9523 H   0  0  0  0  0  0  0  0  0  0  0  0
   -1.7296   -0.6065   -4.4098 C   0  0  0  0  0  0  0  0  0  0  0  0
   -2.2809   -1.2459   -5.0928 H   0  0  0  0  0  0  0  0  0  0  0  0
   -1.4915    0.7299   -4.7422 C   0  0  0  0  0  0  0  0  0  0  0  0
   -1.8598    1.1321   -5.6812 H   0  0  0  0  0  0  0  0  0  0  0  0
   -0.7753    1.5480   -3.8640 C   0  0  0  0  0  0  0  0  0  0  0  0
   -0.5877    2.5867   -4.1190 H   0  0  0  0  0  0  0  0  0  0  0  0
   -0.3019    1.0311   -2.6532 C   0  0  0  0  0  0  0  0  0  0  0  0
    0.2560    1.6798   -1.9854 H   0  0  0  0  0  0  0  0  0  0  0  0
   -1.0459    1.0026    0.4510 C   0  0  0  0  0  0  0  0  0  0  0  0
   -2.0478    1.5463    0.0004 O   0  0  0  0  0  0  0  0  0  0  0  0
   -0.2300    1.7181    1.3095 N   0  0  0  0  0  0  0  0  0  0  0  0
    0.5204    1.2142    1.7733 H   0  0  0  0  0  0  0  0  0  0  0  0
   -0.4790    3.1060    1.6806 C   0  0  0  0  0  0  0  0  0  0  0  0
   -1.4505    3.2017    2.1770 H   0  0  0  0  0  0  0  0  0  0  0  0
    0.2966    3.4590    2.3671 H   0  0  0  0  0  0  0  0  0  0  0  0
   -0.4717    3.7472    0.7928 H   0  0  0  0  0  0  0  0  0  0  0  0
  1  2  1  0  0  0  0
  2  3  1  0  0  0  0
  2  4  1  0  0  0  0
  2  5  1  0  0  0  0
  5  6  2  0  0  0  0
  5  7  1  0  0  0  0
  7  8  1  0  0  0  0
  7  9  1  0  0  0  0
  9 10  1  0  0  0  0
  9 11  1  0  0  0  0
  9 25  1  0  0  0  0
 11 12  1  0  0  0  0
 11 13  1  0  0  0  0
 11 14  1  0  0  0  0
 14 15  1  0  0  0  0
 14 23  2  0  0  0  0
 15 16  1  0  0  0  0
 15 17  2  0  0  0  0
 17 18  1  0  0  0  0
 17 19  1  0  0  0  0
 19 20  1  0  0  0  0
 19 21  2  0  0  0  0
 21 22  1  0  0  0  0
 21 23  1  0  0  0  0
 23 24  1  0  0  0  0
 25 26  2  0  0  0  0
 25 27  1  0  0  0  0
 27 28  1  0  0  0  0
 27 29  1  0  0  0  0
 29 30  1  0  0  0  0
 29 31  1  0  0  0  0
 29 32  1  0  0  0  0
M  END
$$$$

  -OEChem-04042216033D

 32 32  0     1  0  0  0  0  0999 V2000
   -3.6987   -3.9330    1.6471 H   0  0  0  0  0  0  0  0  0  0  0  0
   -3.6904   -3.0376    1.0194 C   0  0  0  0  0  0  0  0  0  0  0  0
   -4.3975   -2.3131    1.4309 H   0  0  0  0  0  0  0  0  0  0  0  0
   -4.0057   -3.3117    0.0098 H   0  0  0  0  0  0  0  0  0  0  0  0
   -2.2973   -2.4381    0.9814 C   0  0  0  0  0  0  0  0  0  0  0  0
   -1.3801   -2.9833    1.5756 O   0  0  0  0  0  0  0  0  0  0  0  0
   -2.0719   -1.2788    0.2705 N   0  0  0  0  0  0  0  0  0  0  0  0
   -2.8783   -0.8161   -0.1472 H   0  0  0  0  0  0  0  0  0  0  0  0
   -0.8038   -0.5360    0.2435 C   0  0  1  0  0  0  0  0  0  0  0  0
   -0.2132   -0.8409    1.1132 H   0  0  0  0  0  0  0  0  0  0  0  0
    0.0140   -0.9195   -1.0049 C   0  0  0  0  0  0  0  0  0  0  0  0
    1.0468   -0.5865   -0.8626 H   0  0  0  0  0  0  0  0  0  0  0  0
    0.0427   -2.0104   -1.0952 H   0  0  0  0  0  0  0  0  0  0  0  0
   -0.5142   -0.3175   -2.2869 C   0  0  0  0  0  0  0  0  0  0  0  0
   -1.4677   -1.0111   -3.0467 C   0  0  0  0  0  0  0  0  0  0  0  0
   -1.8320   -1.9757   -2.7073 H   0  0  0  0  0  0  0  0  0  0  0  0
   -1.9578   -0.4698   -4.2399 C   0  0  0  0  0  0  0  0  0  0  0  0
   -2.6974   -1.0136   -4.8196 H   0  0  0  0  0  0  0  0  0  0  0  0
   -1.4963    0.7724   -4.6848 C   0  0  0  0  0  0  0  0  0  0  0  0
   -1.8790    1.1959   -5.6085 H   0  0  0  0  0  0  0  0  0  0  0  0
   -0.5442    1.4710   -3.9365 C   0  0  0  0  0  0  0  0  0  0  0  0
   -0.1891    2.4389   -4.2772 H   0  0  0  0  0  0  0  0  0  0  0  0
   -0.0535    0.9269   -2.7447 C   0  0  0  0  0  0  0  0  0  0  0  0
    0.6806    1.4832   -2.1703 H   0  0  0  0  0  0  0  0  0  0  0  0
   -1.0293    0.9820    0.4038 C   0  0  0  0  0  0  0  0  0  0  0  0
   -2.0266    1.5156   -0.0689 O   0  0  0  0  0  0  0  0  0  0  0  0
   -0.2277    1.7124    1.2630 N   0  0  0  0  0  0  0  0  0  0  0  0
    0.5206    1.2193    1.7411 H   0  0  0  0  0  0  0  0  0  0  0  0
   -0.4890    3.1034    1.6123 C   0  0  0  0  0  0  0  0  0  0  0  0
   -1.4673    3.1999    2.0950 H   0  0  0  0  0  0  0  0  0  0  0  0
    0.2755    3.4694    2.3042 H   0  0  0  0  0  0  0  0  0  0  0  0
   -0.4741    3.7328    0.7163 H   0  0  0  0  0  0  0  0  0  0  0  0
  1  2  1  0  0  0  0
  2  3  1  0  0  0  0
  2  4  1  0  0  0  0
  2  5  1  0  0  0  0
  5  6  2  0  0  0  0
  5  7  1  0  0  0  0
  7  8  1  0  0  0  0
  7  9  1  0  0  0  0
  9 10  1  0  0  0  0
  9 11  1  0  0  0  0
  9 25  1  0  0  0  0
 11 12  1  0  0  0  0
 11 13  1  0  0  0  0
 11 14  1  0  0  0  0
 14 15  1  0  0  0  0
 14 23  2  0  0  0  0
 15 16  1  0  0  0  0
 15 17  2  0  0  0  0
 17 18  1  0  0  0  0
 17 19  1  0  0  0  0
 19 20  1  0  0  0  0
 19 21  2  0  0  0  0
 21 22  1  0  0  0  0
 21 23  1  0  0  0  0
 23 24  1  0  0  0  0
 25 26  2  0  0  0  0
 25 27  1  0  0  0  0
 27 28  1  0  0  0  0
 27 29  1  0  0  0  0
 29 30  1  0  0  0  0
 29 31  1  0  0  0  0
 29 32  1  0  0  0  0
M  END
$$$$

  -OEChem-04042216033D

 32 32  0     1  0  0  0  0  0999 V2000
   -3.7054   -3.9186    1.7208 H   0  0  0  0  0  0  0  0  0  0  0  0
   -3.7010   -3.0361    1.0750 C   0  0  0  0  0  0  0  0  0  0  0  0
   -4.3878   -2.2941    1.4896 H   0  0  0  0  0  0  0  0  0  0  0  0
   -4.0454   -3.3259    0.0794 H   0  0  0  0  0  0  0  0  0  0  0  0
   -2.3013   -2.4572    0.9903 C   0  0  0  0  0  0  0  0  0  0  0  0
   -1.3745   -3.0138    1.5584 O   0  0  0  0  0  0  0  0  0  0  0  0
   -2.0811   -1.3027    0.2695 N   0  0  0  0  0  0  0  0  0  0  0  0
   -2.8961   -0.8201   -0.1074 H   0  0  0  0  0  0  0  0  0  0  0  0
   -0.8121   -0.5611    0.2367 C   0  0  1  0  0  0  0  0  0  0  0  0
   -0.2227   -0.8610    1.1089 H   0  0  0  0  0  0  0  0  0  0  0  0
    0.0188   -0.9273   -1.0087 C   0  0  0  0  0  0  0  0  0  0  0  0
    1.0498   -0.5970   -0.8485 H   0  0  0  0  0  0  0  0  0  0  0  0
    0.0479   -2.0169   -1.1117 H   0  0  0  0  0  0  0  0  0  0  0  0
   -0.4972   -0.3206   -2.2946 C   0  0  0  0  0  0  0  0  0  0  0  0
   -1.6444   -0.8354   -2.9174 C   0  0  0  0  0  0  0  0  0  0  0  0
   -2.1631   -1.6832   -2.4820 H   0  0  0  0  0  0  0  0  0  0  0  0
   -2.1265   -0.2690   -4.1021 C   0  0  0  0  0  0  0  0  0  0  0  0
   -3.0152   -0.6747   -4.5758 H   0  0  0  0  0  0  0  0  0  0  0  0
   -1.4657    0.8214   -4.6750 C   0  0  0  0  0  0  0  0  0  0  0  0
   -1.8411    1.2640   -5.5927 H   0  0  0  0  0  0  0  0  0  0  0  0
   -0.3234    1.3442   -4.0619 C   0  0  0  0  0  0  0  0  0  0  0  0
    0.1878    2.1951   -4.5021 H   0  0  0  0  0  0  0  0  0  0  0  0
    0.1575    0.7759   -2.8774 C   0  0  0  0  0  0  0  0  0  0  0  0
    1.0408    1.1981   -2.4087 H   0  0  0  0  0  0  0  0  0  0  0  0
   -1.0430    0.9570    0.3876 C   0  0  0  0  0  0  0  0  0  0  0  0
   -2.0477    1.4800   -0.0817 O   0  0  0  0  0  0  0  0  0  0  0  0
   -0.2443    1.6968    1.2414 N   0  0  0  0  0  0  0  0  0  0  0  0
    0.5223    1.2174    1.7041 H   0  0  0  0  0  0  0  0  0  0  0  0
   -0.4968    3.0961    1.5630 C   0  0  0  0  0  0  0  0  0  0  0  0
   -1.4738    3.2088    2.0448 H   0  0  0  0  0  0  0  0  0  0  0  0
    0.2711    3.4713    2.2462 H   0  0  0  0  0  0  0  0  0  0  0  0
   -0.4795    3.7068    0.6543 H   0  0  0  0  0  0  0  0  0  0  0  0
  1  2  1  0  0  0  0
  2  3  1  0  0  0  0
  2  4  1  0  0  0  0
  2  5  1  0  0  0  0
  5  6  2  0  0  0  0
  5  7  1  0  0  0  0
  7  8  1  0  0  0  0
  7  9  1  0  0  0  0
  9 10  1  0  0  0  0
  9 11  1  0  0  0  0
  9 25  1  0  0  0  0
 11 12  1  0  0  0  0
 11 13  1  0  0  0  0
 11 14  1  0  0  0  0
 14 15  1  0  0  0  0
 14 23  2  0  0  0  0
 15 16  1  0  0  0  0
 15 17  2  0  0  0  0
 17 18  1  0  0  0  0
 17 19  1  0  0  0  0
 19 20  1  0  0  0  0
 19 21  2  0  0  0  0
 21 22  1  0  0  0  0
 21 23  1  0  0  0  0
 23 24  1  0  0  0  0
 25 26  2  0  0  0  0
 25 27  1  0  0  0  0
 27 28  1  0  0  0  0
 27 29  1  0  0  0  0
 29 30  1  0  0  0  0
 29 31  1  0  0  0  0
 29 32  1  0  0  0  0
M  END
$$$$

  -OEChem-04042216033D

 32 32  0     1  0  0  0  0  0999 V2000
   -3.6855   -3.9368    1.7709 H   0  0  0  0  0  0  0  0  0  0  0  0
   -3.6965   -3.0436    1.1400 C   0  0  0  0  0  0  0  0  0  0  0  0
   -4.3649   -2.3044    1.5879 H   0  0  0  0  0  0  0  0  0  0  0  0
   -4.0745   -3.3144    0.1513 H   0  0  0  0  0  0  0  0  0  0  0  0
   -2.2970   -2.4704    1.0201 C   0  0  0  0  0  0  0  0  0  0  0  0
   -1.3586   -3.0273    1.5688 O   0  0  0  0  0  0  0  0  0  0  0  0
   -2.0920   -1.3169    0.2928 N   0  0  0  0  0  0  0  0  0  0  0  0
   -2.9176   -0.8234   -0.0446 H   0  0  0  0  0  0  0  0  0  0  0  0
   -0.8234   -0.5760    0.2362 C   0  0  1  0  0  0  0  0  0  0  0  0
   -0.2208   -0.8737    1.1001 H   0  0  0  0  0  0  0  0  0  0  0  0
    0.0010   -0.9241   -1.0207 C   0  0  0  0  0  0  0  0  0  0  0  0
    1.0313   -0.5958   -0.8518 H   0  0  0  0  0  0  0  0  0  0  0  0
    0.0296   -2.0131   -1.1314 H   0  0  0  0  0  0  0  0  0  0  0  0
   -0.5044   -0.3209   -2.3172 C   0  0  0  0  0  0  0  0  0  0  0  0
   -1.7892   -0.6013   -2.8108 C   0  0  0  0  0  0  0  0  0  0  0  0
   -2.4430   -1.2847   -2.2818 H   0  0  0  0  0  0  0  0  0  0  0  0
   -2.2432   -0.0155   -3.9972 C   0  0  0  0  0  0  0  0  0  0  0  0
   -3.2392   -0.2403   -4.3666 H   0  0  0  0  0  0  0  0  0  0  0  0
   -1.4175    0.8609   -4.7060 C   0  0  0  0  0  0  0  0  0  0  0  0
   -1.7712    1.3188   -5.6250 H   0  0  0  0  0  0  0  0  0  0  0  0
   -0.1372    1.1490   -4.2269 C   0  0  0  0  0  0  0  0  0  0  0  0
    0.5050    1.8327   -4.7738 H   0  0  0  0  0  0  0  0  0  0  0  0
    0.3148    0.5618   -3.0403 C   0  0  0  0  0  0  0  0  0  0  0  0
    1.3104    0.8032   -2.6815 H   0  0  0  0  0  0  0  0  0  0  0  0
   -1.0595    0.9409    0.3898 C   0  0  0  0  0  0  0  0  0  0  0  0
   -2.0811    1.4536   -0.0544 O   0  0  0  0  0  0  0  0  0  0  0  0
   -0.2508    1.6872    1.2286 N   0  0  0  0  0  0  0  0  0  0  0  0
    0.5354    1.2176    1.6679 H   0  0  0  0  0  0  0  0  0  0  0  0
   -0.5084    3.0848    1.5540 C   0  0  0  0  0  0  0  0  0  0  0  0
   -1.4705    3.1874    2.0668 H   0  0  0  0  0  0  0  0  0  0  0  0
    0.2770    3.4709    2.2109 H   0  0  0  0  0  0  0  0  0  0  0  0
   -0.5273    3.6929    0.6434 H   0  0  0  0  0  0  0  0  0  0  0  0
  1  2  1  0  0  0  0
  2  3  1  0  0  0  0
  2  4  1  0  0  0  0
  2  5  1  0  0  0  0
  5  6  2  0  0  0  0
  5  7  1  0  0  0  0
  7  8  1  0  0  0  0
  7  9  1  0  0  0  0
  9 10  1  0  0  0  0
  9 11  1  0  0  0  0
  9 25  1  0  0  0  0
 11 12  1  0  0  0  0
 11 13  1  0  0  0  0
 11 14  1  0  0  0  0
 14 15  1  0  0  0  0
 14 23  2  0  0  0  0
 15 16  1  0  0  0  0
 15 17  2  0  0  0  0
 17 18  1  0  0  0  0
 17 19  1  0  0  0  0
 19 20  1  0  0  0  0
 19 21  2  0  0  0  0
 21 22  1  0  0  0  0
 21 23  1  0  0  0  0
 23 24  1  0  0  0  0
 25 26  2  0  0  0  0
 25 27  1  0  0  0  0
 27 28  1  0  0  0  0
 27 29  1  0  0  0  0
 29 30  1  0  0  0  0
 29 31  1  0  0  0  0
 29 32  1  0  0  0  0
M  END
$$$$

  -OEChem-04042216033D

 32 32  0     1  0  0  0  0  0999 V2000
   -3.6366   -3.9705    1.8008 H   0  0  0  0  0  0  0  0  0  0  0  0
   -3.6737   -3.0645    1.1893 C   0  0  0  0  0  0  0  0  0  0  0  0
   -4.3301   -2.3383    1.6750 H   0  0  0  0  0  0  0  0  0  0  0  0
   -4.0831   -3.3181    0.2085 H   0  0  0  0  0  0  0  0  0  0  0  0
   -2.2818   -2.4814    1.0334 C   0  0  0  0  0  0  0  0  0  0  0  0
   -1.3241   -3.0442    1.5409 O   0  0  0  0  0  0  0  0  0  0  0  0
   -2.1046   -1.3152    0.3188 N   0  0  0  0  0  0  0  0  0  0  0  0
   -2.9439   -0.8134    0.0323 H   0  0  0  0  0  0  0  0  0  0  0  0
   -0.8404   -0.5675    0.2414 C   0  0  1  0  0  0  0  0  0  0  0  0
   -0.2169   -0.8746    1.0871 H   0  0  0  0  0  0  0  0  0  0  0  0
   -0.0373   -0.8927   -1.0370 C   0  0  0  0  0  0  0  0  0  0  0  0
    0.9912   -0.5578   -0.8702 H   0  0  0  0  0  0  0  0  0  0  0  0
   -0.0013   -1.9807   -1.1538 H   0  0  0  0  0  0  0  0  0  0  0  0
   -0.5359   -0.2938   -2.3419 C   0  0  0  0  0  0  0  0  0  0  0  0
   -1.8903   -0.3004   -2.7192 C   0  0  0  0  0  0  0  0  0  0  0  0
   -2.6439   -0.7471   -2.0835 H   0  0  0  0  0  0  0  0  0  0  0  0
   -2.3019    0.2719   -3.9276 C   0  0  0  0  0  0  0  0  0  0  0  0
   -3.3534    0.2655   -4.1986 H   0  0  0  0  0  0  0  0  0  0  0  0
   -1.3643    0.8550   -4.7827 C   0  0  0  0  0  0  0  0  0  0  0  0
   -1.6858    1.3016   -5.7189 H   0  0  0  0  0  0  0  0  0  0  0  0
   -0.0138    0.8623   -4.4278 C   0  0  0  0  0  0  0  0  0  0  0  0
    0.7192    1.3133   -5.0898 H   0  0  0  0  0  0  0  0  0  0  0  0
    0.3948    0.2914   -3.2178 C   0  0  0  0  0  0  0  0  0  0  0  0
    1.4499    0.3086   -2.9628 H   0  0  0  0  0  0  0  0  0  0  0  0
   -1.0796    0.9456    0.4260 C   0  0  0  0  0  0  0  0  0  0  0  0
   -2.1185    1.4570    0.0217 O   0  0  0  0  0  0  0  0  0  0  0  0
   -0.2540    1.6839    1.2552 N   0  0  0  0  0  0  0  0  0  0  0  0
    0.5474    1.2130    1.6648 H   0  0  0  0  0  0  0  0  0  0  0  0
   -0.5082    3.0765    1.6045 C   0  0  0  0  0  0  0  0  0  0  0  0
   -1.4548    3.1687    2.1474 H   0  0  0  0  0  0  0  0  0  0  0  0
    0.2947    3.4600    2.2414 H   0  0  0  0  0  0  0  0  0  0  0  0
   -0.5575    3.6950    0.7020 H   0  0  0  0  0  0  0  0  0  0  0  0
  1  2  1  0  0  0  0
  2  3  1  0  0  0  0
  2  4  1  0  0  0  0
  2  5  1  0  0  0  0
  5  6  2  0  0  0  0
  5  7  1  0  0  0  0
  7  8  1  0  0  0  0
  7  9  1  0  0  0  0
  9 10  1  0  0  0  0
  9 11  1  0  0  0  0
  9 25  1  0  0  0  0
 11 12  1  0  0  0  0
 11 13  1  0  0  0  0
 11 14  1  0  0  0  0
 14 15  1  0  0  0  0
 14 23  2  0  0  0  0
 15 16  1  0  0  0  0
 15 17  2  0  0  0  0
 17 18  1  0  0  0  0
 17 19  1  0  0  0  0
 19 20  1  0  0  0  0
 19 21  2  0  0  0  0
 21 22  1  0  0  0  0
 21 23  1  0  0  0  0
 23 24  1  0  0  0  0
 25 26  2  0  0  0  0
 25 27  1  0  0  0  0
 27 28  1  0  0  0  0
 27 29  1  0  0  0  0
 29 30  1  0  0  0  0
 29 31  1  0  0  0  0
 29 32  1  0  0  0  0
M  END
$$$$

  -OEChem-04042216033D

 32 32  0     1  0  0  0  0  0999 V2000
   -3.5950   -3.9762    1.8051 H   0  0  0  0  0  0  0  0  0  0  0  0
   -3.6485   -3.0761    1.1863 C   0  0  0  0  0  0  0  0  0  0  0  0
   -4.3121   -2.3552    1.6699 H   0  0  0  0  0  0  0  0  0  0  0  0
   -4.0604   -3.3429    0.2101 H   0  0  0  0  0  0  0  0  0  0  0  0
   -2.2655   -2.4758    1.0166 C   0  0  0  0  0  0  0  0  0  0  0  0
   -1.2921   -3.0408    1.4911 O   0  0  0  0  0  0  0  0  0  0  0  0
   -2.1144   -1.2899    0.3287 N   0  0  0  0  0  0  0  0  0  0  0  0
   -2.9650   -0.7922    0.0718 H   0  0  0  0  0  0  0  0  0  0  0  0
   -0.8574   -0.5298    0.2424 C   0  0  1  0  0  0  0  0  0  0  0  0
   -0.2212   -0.8507    1.0735 H   0  0  0  0  0  0  0  0  0  0  0  0
   -0.0702   -0.8475   -1.0478 C   0  0  0  0  0  0  0  0  0  0  0  0
    0.9559   -0.5005   -0.8899 H   0  0  0  0  0  0  0  0  0  0  0  0
   -0.0252   -1.9359   -1.1590 H   0  0  0  0  0  0  0  0  0  0  0  0
   -0.5640   -0.2658   -2.3636 C   0  0  0  0  0  0  0  0  0  0  0  0
   -1.9155    0.0073   -2.6419 C   0  0  0  0  0  0  0  0  0  0  0  0
   -2.6875   -0.1765   -1.9054 H   0  0  0  0  0  0  0  0  0  0  0  0
   -2.3026    0.5376   -3.8772 C   0  0  0  0  0  0  0  0  0  0  0  0
   -3.3499    0.7519   -4.0680 H   0  0  0  0  0  0  0  0  0  0  0  0
   -1.3458    0.7957   -4.8609 C   0  0  0  0  0  0  0  0  0  0  0  0
   -1.6476    1.2090   -5.8188 H   0  0  0  0  0  0  0  0  0  0  0  0
   -0.0007    0.5206   -4.6065 C   0  0  0  0  0  0  0  0  0  0  0  0
    0.7471    0.7156   -5.3693 H   0  0  0  0  0  0  0  0  0  0  0  0
    0.3834   -0.0062   -3.3687 C   0  0  0  0  0  0  0  0  0  0  0  0
    1.4341   -0.2158   -3.1929 H   0  0  0  0  0  0  0  0  0  0  0  0
   -1.0862    0.9793    0.4697 C   0  0  0  0  0  0  0  0  0  0  0  0
   -2.1394    1.5019    0.1203 O   0  0  0  0  0  0  0  0  0  0  0  0
   -0.2362    1.6911    1.2972 N   0  0  0  0  0  0  0  0  0  0  0  0
    0.5784    1.2085    1.6650 H   0  0  0  0  0  0  0  0  0  0  0  0
   -0.4803    3.0705    1.7013 C   0  0  0  0  0  0  0  0  0  0  0  0
   -1.4339    3.1515    2.2336 H   0  0  0  0  0  0  0  0  0  0  0  0
    0.3167    3.4162    2.3665 H   0  0  0  0  0  0  0  0  0  0  0  0
   -0.5088    3.7262    0.8247 H   0  0  0  0  0  0  0  0  0  0  0  0
  1  2  1  0  0  0  0
  2  3  1  0  0  0  0
  2  4  1  0  0  0  0
  2  5  1  0  0  0  0
  5  6  2  0  0  0  0
  5  7  1  0  0  0  0
  7  8  1  0  0  0  0
  7  9  1  0  0  0  0
  9 10  1  0  0  0  0
  9 11  1  0  0  0  0
  9 25  1  0  0  0  0
 11 12  1  0  0  0  0
 11 13  1  0  0  0  0
 11 14  1  0  0  0  0
 14 15  1  0  0  0  0
 14 23  2  0  0  0  0
 15 16  1  0  0  0  0
 15 17  2  0  0  0  0
 17 18  1  0  0  0  0
 17 19  1  0  0  0  0
 19 20  1  0  0  0  0
 19 21  2  0  0  0  0
 21 22  1  0  0  0  0
 21 23  1  0  0  0  0
 23 24  1  0  0  0  0
 25 26  2  0  0  0  0
 25 27  1  0  0  0  0
 27 28  1  0  0  0  0
 27 29  1  0  0  0  0
 29 30  1  0  0  0  0
 29 31  1  0  0  0  0
 29 32  1  0  0  0  0
M  END
$$$$

  -OEChem-04042216033D

 32 32  0     1  0  0  0  0  0999 V2000
   -3.5553   -4.0189    1.7142 H   0  0  0  0  0  0  0  0  0  0  0  0
   -3.6319   -3.0895    1.1431 C   0  0  0  0  0  0  0  0  0  0  0  0
   -4.3011   -2.4059    1.6712 H   0  0  0  0  0  0  0  0  0  0  0  0
   -4.0526   -3.3133    0.1597 H   0  0  0  0  0  0  0  0  0  0  0  0
   -2.2616   -2.4570    0.9873 C   0  0  0  0  0  0  0  0  0  0  0  0
   -1.2747   -3.0202    1.4353 O   0  0  0  0  0  0  0  0  0  0  0  0
   -2.1378   -1.2471    0.3364 N   0  0  0  0  0  0  0  0  0  0  0  0
   -2.9989   -0.7716    0.0743 H   0  0  0  0  0  0  0  0  0  0  0  0
   -0.8938   -0.4670    0.2408 C   0  0  1  0  0  0  0  0  0  0  0  0
   -0.2542   -0.8011    1.0638 H   0  0  0  0  0  0  0  0  0  0  0  0
   -0.1037   -0.7978   -1.0443 C   0  0  0  0  0  0  0  0  0  0  0  0
    0.9161   -0.4281   -0.8975 H   0  0  0  0  0  0  0  0  0  0  0  0
   -0.0387   -1.8876   -1.1267 H   0  0  0  0  0  0  0  0  0  0  0  0
   -0.5936   -0.2615   -2.3800 C   0  0  0  0  0  0  0  0  0  0  0  0
   -1.8781    0.2676   -2.6021 C   0  0  0  0  0  0  0  0  0  0  0  0
   -2.6178    0.3047   -1.8123 H   0  0  0  0  0  0  0  0  0  0  0  0
   -2.2479    0.7523   -3.8611 C   0  0  0  0  0  0  0  0  0  0  0  0
   -3.2431    1.1606   -4.0106 H   0  0  0  0  0  0  0  0  0  0  0  0
   -1.3419    0.7117   -4.9228 C   0  0  0  0  0  0  0  0  0  0  0  0
   -1.6303    1.0884   -5.8995 H   0  0  0  0  0  0  0  0  0  0  0  0
   -0.0655    0.1822   -4.7233 C   0  0  0  0  0  0  0  0  0  0  0  0
    0.6418    0.1445   -5.5465 H   0  0  0  0  0  0  0  0  0  0  0  0
    0.3017   -0.2990   -3.4621 C   0  0  0  0  0  0  0  0  0  0  0  0
    1.2989   -0.7066   -3.3252 H   0  0  0  0  0  0  0  0  0  0  0  0
   -1.0919    1.0400    0.5169 C   0  0  0  0  0  0  0  0  0  0  0  0
   -2.1551    1.5871    0.2454 O   0  0  0  0  0  0  0  0  0  0  0  0
   -0.2018    1.7115    1.3366 N   0  0  0  0  0  0  0  0  0  0  0  0
    0.6258    1.2101    1.6456 H   0  0  0  0  0  0  0  0  0  0  0  0
   -0.4120    3.0770    1.8028 C   0  0  0  0  0  0  0  0  0  0  0  0
   -1.3175    3.1376    2.4154 H   0  0  0  0  0  0  0  0  0  0  0  0
    0.4381    3.4046    2.4086 H   0  0  0  0  0  0  0  0  0  0  0  0
   -0.5142    3.7607    0.9534 H   0  0  0  0  0  0  0  0  0  0  0  0
  1  2  1  0  0  0  0
  2  3  1  0  0  0  0
  2  4  1  0  0  0  0
  2  5  1  0  0  0  0
  5  6  2  0  0  0  0
  5  7  1  0  0  0  0
  7  8  1  0  0  0  0
  7  9  1  0  0  0  0
  9 10  1  0  0  0  0
  9 11  1  0  0  0  0
  9 25  1  0  0  0  0
 11 12  1  0  0  0  0
 11 13  1  0  0  0  0
 11 14  1  0  0  0  0
 14 15  1  0  0  0  0
 14 23  2  0  0  0  0
 15 16  1  0  0  0  0
 15 17  2  0  0  0  0
 17 18  1  0  0  0  0
 17 19  1  0  0  0  0
 19 20  1  0  0  0  0
 19 21  2  0  0  0  0
 21 22  1  0  0  0  0
 21 23  1  0  0  0  0
 23 24  1  0  0  0  0
 25 26  2  0  0  0  0
 25 27  1  0  0  0  0
 27 28  1  0  0  0  0
 27 29  1  0  0  0  0
 29 30  1  0  0  0  0
 29 31  1  0  0  0  0
 29 32  1  0  0  0  0
M  END
$$$$

  -OEChem-04042216033D

 32 32  0     1  0  0  0  0  0999 V2000
   -3.5125   -4.0410    1.6627 H   0  0  0  0  0  0  0  0  0  0  0  0
   -3.6110   -3.0985    1.1170 C   0  0  0  0  0  0  0  0  0  0  0  0
   -4.2822   -2.4387    1.6721 H   0  0  0  0  0  0  0  0  0  0  0  0
   -4.0428   -3.3032    0.1343 H   0  0  0  0  0  0  0  0  0  0  0  0
   -2.2532   -2.4408    0.9584 C   0  0  0  0  0  0  0  0  0  0  0  0
   -1.2504   -3.0038    1.3702 O   0  0  0  0  0  0  0  0  0  0  0  0
   -2.1596   -1.2073    0.3479 N   0  0  0  0  0  0  0  0  0  0  0  0
   -3.0313   -0.7450    0.0967 H   0  0  0  0  0  0  0  0  0  0  0  0
   -0.9286   -0.4107    0.2343 C   0  0  1  0  0  0  0  0  0  0  0  0
   -0.2791   -0.7590    1.0438 H   0  0  0  0  0  0  0  0  0  0  0  0
   -0.1413   -0.7466   -1.0517 C   0  0  0  0  0  0  0  0  0  0  0  0
    0.8726   -0.3567   -0.9172 H   0  0  0  0  0  0  0  0  0  0  0  0
   -0.0575   -1.8370   -1.1108 H   0  0  0  0  0  0  0  0  0  0  0  0
   -0.6288   -0.2497   -2.4038 C   0  0  0  0  0  0  0  0  0  0  0  0
   -1.7855    0.5224   -2.6165 C   0  0  0  0  0  0  0  0  0  0  0  0
   -2.4577    0.7774   -1.8097 H   0  0  0  0  0  0  0  0  0  0  0  0
   -2.1322    0.9608   -3.8990 C   0  0  0  0  0  0  0  0  0  0  0  0
   -3.0307    1.5542   -4.0410 H   0  0  0  0  0  0  0  0  0  0  0  0
   -1.3304    0.6340   -4.9943 C   0  0  0  0  0  0  0  0  0  0  0  0
   -1.6010    0.9746   -5.9893 H   0  0  0  0  0  0  0  0  0  0  0  0
   -0.1809   -0.1343   -4.8037 C   0  0  0  0  0  0  0  0  0  0  0  0
    0.4469   -0.3923   -5.6513 H   0  0  0  0  0  0  0  0  0  0  0  0
    0.1639   -0.5679   -3.5196 C   0  0  0  0  0  0  0  0  0  0  0  0
    1.0653   -1.1595   -3.3900 H   0  0  0  0  0  0  0  0  0  0  0  0
   -1.1021    1.0887    0.5653 C   0  0  0  0  0  0  0  0  0  0  0  0
   -2.1791    1.6464    0.3869 O   0  0  0  0  0  0  0  0  0  0  0  0
   -0.1708    1.7233    1.3691 N   0  0  0  0  0  0  0  0  0  0  0  0
    0.6648    1.2038    1.6217 H   0  0  0  0  0  0  0  0  0  0  0  0
   -0.3553    3.0639    1.9128 C   0  0  0  0  0  0  0  0  0  0  0  0
   -1.2252    3.0918    2.5772 H   0  0  0  0  0  0  0  0  0  0  0  0
    0.5271    3.3645    2.4860 H   0  0  0  0  0  0  0  0  0  0  0  0
   -0.5052    3.7876    1.1047 H   0  0  0  0  0  0  0  0  0  0  0  0
  1  2  1  0  0  0  0
  2  3  1  0  0  0  0
  2  4  1  0  0  0  0
  2  5  1  0  0  0  0
  5  6  2  0  0  0  0
  5  7  1  0  0  0  0
  7  8  1  0  0  0  0
  7  9  1  0  0  0  0
  9 10  1  0  0  0  0
  9 11  1  0  0  0  0
  9 25  1  0  0  0  0
 11 12  1  0  0  0  0
 11 13  1  0  0  0  0
 11 14  1  0  0  0  0
 14 15  1  0  0  0  0
 14 23  2  0  0  0  0
 15 16  1  0  0  0  0
 15 17  2  0  0  0  0
 17 18  1  0  0  0  0
 17 19  1  0  0  0  0
 19 20  1  0  0  0  0
 19 21  2  0  0  0  0
 21 22  1  0  0  0  0
 21 23  1  0  0  0  0
 23 24  1  0  0  0  0
 25 26  2  0  0  0  0
 25 27  1  0  0  0  0
 27 28  1  0  0  0  0
 27 29  1  0  0  0  0
 29 30  1  0  0  0  0
 29 31  1  0  0  0  0
 29 32  1  0  0  0  0
M  END
$$$$

  -OEChem-04042216033D

 32 32  0     1  0  0  0  0  0999 V2000
   -3.4766   -4.1107    1.5036 H   0  0  0  0  0  0  0  0  0  0  0  0
   -3.5918   -3.1544    0.9861 C   0  0  0  0  0  0  0  0  0  0  0  0
   -4.3125   -2.5422    1.5337 H   0  0  0  0  0  0  0  0  0  0  0  0
   -3.9738   -3.3421   -0.0203 H   0  0  0  0  0  0  0  0  0  0  0  0
   -2.2565   -2.4381    0.9066 C   0  0  0  0  0  0  0  0  0  0  0  0
   -1.2521   -2.9664    1.3589 O   0  0  0  0  0  0  0  0  0  0  0  0
   -2.1826   -1.1944    0.3143 N   0  0  0  0  0  0  0  0  0  0  0  0
   -3.0579   -0.7640    0.0213 H   0  0  0  0  0  0  0  0  0  0  0  0
   -0.9783   -0.3523    0.2569 C   0  0  1  0  0  0  0  0  0  0  0  0
   -0.3563   -0.6793    1.0964 H   0  0  0  0  0  0  0  0  0  0  0  0
   -0.1163   -0.6743   -0.9861 C   0  0  0  0  0  0  0  0  0  0  0  0
    0.8754   -0.2475   -0.8061 H   0  0  0  0  0  0  0  0  0  0  0  0
    0.0083   -1.7624   -1.0152 H   0  0  0  0  0  0  0  0  0  0  0  0
   -0.5335   -0.2202   -2.3785 C   0  0  0  0  0  0  0  0  0  0  0  0
   -1.5144    0.7452   -2.6727 C   0  0  0  0  0  0  0  0  0  0  0  0
   -2.0909    1.2366   -1.9048 H   0  0  0  0  0  0  0  0  0  0  0  0
   -1.8019    1.1016   -3.9950 C   0  0  0  0  0  0  0  0  0  0  0  0
   -2.5660    1.8463   -4.1976 H   0  0  0  0  0  0  0  0  0  0  0  0
   -1.1138    0.5029   -5.0513 C   0  0  0  0  0  0  0  0  0  0  0  0
   -1.3391    0.7803   -6.0769 H   0  0  0  0  0  0  0  0  0  0  0  0
   -0.1358   -0.4547   -4.7815 C   0  0  0  0  0  0  0  0  0  0  0  0
    0.4038   -0.9249   -5.5983 H   0  0  0  0  0  0  0  0  0  0  0  0
    0.1489   -0.8076   -3.4585 C   0  0  0  0  0  0  0  0  0  0  0  0
    0.9164   -1.5524   -3.2702 H   0  0  0  0  0  0  0  0  0  0  0  0
   -1.2283    1.1328    0.5984 C   0  0  0  0  0  0  0  0  0  0  0  0
   -2.3296    1.6361    0.4046 O   0  0  0  0  0  0  0  0  0  0  0  0
   -0.3577    1.7965    1.4454 N   0  0  0  0  0  0  0  0  0  0  0  0
    0.4958    1.3153    1.7139 H   0  0  0  0  0  0  0  0  0  0  0  0
   -0.6255    3.1164    2.0049 C   0  0  0  0  0  0  0  0  0  0  0  0
   -1.5063    3.0861    2.6547 H   0  0  0  0  0  0  0  0  0  0  0  0
    0.2298    3.4564    2.5967 H   0  0  0  0  0  0  0  0  0  0  0  0
   -0.8019    3.8435    1.2053 H   0  0  0  0  0  0  0  0  0  0  0  0
  1  2  1  0  0  0  0
  2  3  1  0  0  0  0
  2  4  1  0  0  0  0
  2  5  1  0  0  0  0
  5  6  2  0  0  0  0
  5  7  1  0  0  0  0
  7  8  1  0  0  0  0
  7  9  1  0  0  0  0
  9 10  1  0  0  0  0
  9 11  1  0  0  0  0
  9 25  1  0  0  0  0
 11 12  1  0  0  0  0
 11 13  1  0  0  0  0
 11 14  1  0  0  0  0
 14 15  1  0  0  0  0
 14 23  2  0  0  0  0
 15 16  1  0  0  0  0
 15 17  2  0  0  0  0
 17 18  1  0  0  0  0
 17 19  1  0  0  0  0
 19 20  1  0  0  0  0
 19 21  2  0  0  0  0
 21 22  1  0  0  0  0
 21 23  1  0  0  0  0
 23 24  1  0  0  0  0
 25 26  2  0  0  0  0
 25 27  1  0  0  0  0
 27 28  1  0  0  0  0
 27 29  1  0  0  0  0
 29 30  1  0  0  0  0
 29 31  1  0  0  0  0
 29 32  1  0  0  0  0
M  END
$$$$

  -OEChem-04042216033D

 32 32  0     1  0  0  0  0  0999 V2000
   -3.6284   -3.9481    1.5578 H   0  0  0  0  0  0  0  0  0  0  0  0
   -3.6835   -2.9952    1.0244 C   0  0  0  0  0  0  0  0  0  0  0  0
   -4.3486   -2.3230    1.5718 H   0  0  0  0  0  0  0  0  0  0  0  0
   -4.0949   -3.1716    0.0276 H   0  0  0  0  0  0  0  0  0  0  0  0
   -2.3025   -2.3778    0.9116 C   0  0  0  0  0  0  0  0  0  0  0  0
   -1.3281   -2.9772    1.3402 O   0  0  0  0  0  0  0  0  0  0  0  0
   -2.1542   -1.1396    0.3227 N   0  0  0  0  0  0  0  0  0  0  0  0
   -3.0018   -0.6485    0.0430 H   0  0  0  0  0  0  0  0  0  0  0  0
   -0.8959   -0.3841    0.2417 C   0  0  1  0  0  0  0  0  0  0  0  0
   -0.2653   -0.7579    1.0546 H   0  0  0  0  0  0  0  0  0  0  0  0
   -0.1193   -0.7562   -1.0446 C   0  0  0  0  0  0  0  0  0  0  0  0
    0.9092   -0.4077   -0.9090 H   0  0  0  0  0  0  0  0  0  0  0  0
   -0.0760   -1.8500   -1.0828 H   0  0  0  0  0  0  0  0  0  0  0  0
   -0.5649   -0.2459   -2.4109 C   0  0  0  0  0  0  0  0  0  0  0  0
   -1.2288    0.9711   -2.6577 C   0  0  0  0  0  0  0  0  0  0  0  0
   -1.4558    1.6781   -1.8748 H   0  0  0  0  0  0  0  0  0  0  0  0
   -1.6077    1.3379   -3.9538 C   0  0  0  0  0  0  0  0  0  0  0  0
   -2.1166    2.2832   -4.1185 H   0  0  0  0  0  0  0  0  0  0  0  0
   -1.3305    0.4979   -5.0329 C   0  0  0  0  0  0  0  0  0  0  0  0
   -1.6256    0.7851   -6.0378 H   0  0  0  0  0  0  0  0  0  0  0  0
   -0.6694   -0.7105   -4.8123 C   0  0  0  0  0  0  0  0  0  0  0  0
   -0.4485   -1.3690   -5.6470 H   0  0  0  0  0  0  0  0  0  0  0  0
   -0.2926   -1.0739   -3.5154 C   0  0  0  0  0  0  0  0  0  0  0  0
    0.2187   -2.0210   -3.3703 H   0  0  0  0  0  0  0  0  0  0  0  0
   -1.0649    1.1068    0.5994 C   0  0  0  0  0  0  0  0  0  0  0  0
   -2.1389    1.6679    0.4081 O   0  0  0  0  0  0  0  0  0  0  0  0
   -0.1505    1.7231    1.4355 N   0  0  0  0  0  0  0  0  0  0  0  0
    0.6695    1.1898    1.7103 H   0  0  0  0  0  0  0  0  0  0  0  0
   -0.3571    3.0437    2.0188 C   0  0  0  0  0  0  0  0  0  0  0  0
   -1.2318    3.0391    2.6776 H   0  0  0  0  0  0  0  0  0  0  0  0
    0.5174    3.3386    2.6065 H   0  0  0  0  0  0  0  0  0  0  0  0
   -0.5118    3.7901    1.2325 H   0  0  0  0  0  0  0  0  0  0  0  0
  1  2  1  0  0  0  0
  2  3  1  0  0  0  0
  2  4  1  0  0  0  0
  2  5  1  0  0  0  0
  5  6  2  0  0  0  0
  5  7  1  0  0  0  0
  7  8  1  0  0  0  0
  7  9  1  0  0  0  0
  9 10  1  0  0  0  0
  9 11  1  0  0  0  0
  9 25  1  0  0  0  0
 11 12  1  0  0  0  0
 11 13  1  0  0  0  0
 11 14  1  0  0  0  0
 14 15  1  0  0  0  0
 14 23  2  0  0  0  0
 15 16  1  0  0  0  0
 15 17  2  0  0  0  0
 17 18  1  0  0  0  0
 17 19  1  0  0  0  0
 19 20  1  0  0  0  0
 19 21  2  0  0  0  0
 21 22  1  0  0  0  0
 21 23  1  0  0  0  0
 23 24  1  0  0  0  0
 25 26  2  0  0  0  0
 25 27  1  0  0  0  0
 27 28  1  0  0  0  0
 27 29  1  0  0  0  0
 29 30  1  0  0  0  0
 29 31  1  0  0  0  0
 29 32  1  0  0  0  0
M  END
$$$$

  -OEChem-04042216033D

 32 32  0     1  0  0  0  0  0999 V2000
   -3.6340   -3.9618    1.4893 H   0  0  0  0  0  0  0  0  0  0  0  0
   -3.6647   -3.0126    0.9473 C   0  0  0  0  0  0  0  0  0  0  0  0
   -4.3569   -2.3381    1.4570 H   0  0  0  0  0  0  0  0  0  0  0  0
   -4.0269   -3.1967   -0.0669 H   0  0  0  0  0  0  0  0  0  0  0  0
   -2.2811   -2.3927    0.8970 C   0  0  0  0  0  0  0  0  0  0  0  0
   -1.3299   -2.9772    1.3928 O   0  0  0  0  0  0  0  0  0  0  0  0
   -2.1030   -1.1702    0.2849 N   0  0  0  0  0  0  0  0  0  0  0  0
   -2.9324   -0.6923   -0.0645 H   0  0  0  0  0  0  0  0  0  0  0  0
   -0.8416   -0.4168    0.2455 C   0  0  1  0  0  0  0  0  0  0  0  0
   -0.2306   -0.7748    1.0803 H   0  0  0  0  0  0  0  0  0  0  0  0
   -0.0483   -0.8003   -1.0270 C   0  0  0  0  0  0  0  0  0  0  0  0
    0.9798   -0.4540   -0.8850 H   0  0  0  0  0  0  0  0  0  0  0  0
   -0.0050   -1.8937   -1.0678 H   0  0  0  0  0  0  0  0  0  0  0  0
   -0.4988   -0.2667   -2.3810 C   0  0  0  0  0  0  0  0  0  0  0  0
   -0.8719    1.0673   -2.6308 C   0  0  0  0  0  0  0  0  0  0  0  0
   -0.8008    1.8335   -1.8702 H   0  0  0  0  0  0  0  0  0  0  0  0
   -1.3172    1.4668   -3.8953 C   0  0  0  0  0  0  0  0  0  0  0  0
   -1.5971    2.5023   -4.0647 H   0  0  0  0  0  0  0  0  0  0  0  0
   -1.3996    0.5415   -4.9371 C   0  0  0  0  0  0  0  0  0  0  0  0
   -1.7473    0.8538   -5.9174 H   0  0  0  0  0  0  0  0  0  0  0  0
   -1.0308   -0.7854   -4.7117 C   0  0  0  0  0  0  0  0  0  0  0  0
   -1.0928   -1.5103   -5.5178 H   0  0  0  0  0  0  0  0  0  0  0  0
   -0.5862   -1.1817   -3.4461 C   0  0  0  0  0  0  0  0  0  0  0  0
   -0.3129   -2.2217   -3.2943 H   0  0  0  0  0  0  0  0  0  0  0  0
   -1.0461    1.0787    0.5587 C   0  0  0  0  0  0  0  0  0  0  0  0
   -2.0907    1.6395    0.2445 O   0  0  0  0  0  0  0  0  0  0  0  0
   -0.1848    1.7275    1.4258 N   0  0  0  0  0  0  0  0  0  0  0  0
    0.6042    1.1992    1.7876 H   0  0  0  0  0  0  0  0  0  0  0  0
   -0.4337    3.0646    1.9513 C   0  0  0  0  0  0  0  0  0  0  0  0
   -1.3482    3.0748    2.5537 H   0  0  0  0  0  0  0  0  0  0  0  0
    0.4011    3.3838    2.5825 H   0  0  0  0  0  0  0  0  0  0  0  0
   -0.5421    3.7843    1.1330 H   0  0  0  0  0  0  0  0  0  0  0  0
  1  2  1  0  0  0  0
  2  3  1  0  0  0  0
  2  4  1  0  0  0  0
  2  5  1  0  0  0  0
  5  6  2  0  0  0  0
  5  7  1  0  0  0  0
  7  8  1  0  0  0  0
  7  9  1  0  0  0  0
  9 10  1  0  0  0  0
  9 11  1  0  0  0  0
  9 25  1  0  0  0  0
 11 12  1  0  0  0  0
 11 13  1  0  0  0  0
 11 14  1  0  0  0  0
 14 15  1  0  0  0  0
 14 23  2  0  0  0  0
 15 16  1  0  0  0  0
 15 17  2  0  0  0  0
 17 18  1  0  0  0  0
 17 19  1  0  0  0  0
 19 20  1  0  0  0  0
 19 21  2  0  0  0  0
 21 22  1  0  0  0  0
 21 23  1  0  0  0  0
 23 24  1  0  0  0  0
 25 26  2  0  0  0  0
 25 27  1  0  0  0  0
 27 28  1  0  0  0  0
 27 29  1  0  0  0  0
 29 30  1  0  0  0  0
 29 31  1  0  0  0  0
 29 32  1  0  0  0  0
M  END
$$$$

  -OEChem-04042216033D

 32 32  0     1  0  0  0  0  0999 V2000
   -3.6693   -3.9508    1.5144 H   0  0  0  0  0  0  0  0  0  0  0  0
   -3.6759   -3.0214    0.9385 C   0  0  0  0  0  0  0  0  0  0  0  0
   -4.3894   -2.3300    1.3931 H   0  0  0  0  0  0  0  0  0  0  0  0
   -3.9934   -3.2420   -0.0834 H   0  0  0  0  0  0  0  0  0  0  0  0
   -2.2909   -2.4026    0.9266 C   0  0  0  0  0  0  0  0  0  0  0  0
   -1.3643   -2.9652    1.4897 O   0  0  0  0  0  0  0  0  0  0  0  0
   -2.0821   -1.2084    0.2701 N   0  0  0  0  0  0  0  0  0  0  0  0
   -2.8930   -0.7451   -0.1377 H   0  0  0  0  0  0  0  0  0  0  0  0
   -0.8161   -0.4625    0.2478 C   0  0  1  0  0  0  0  0  0  0  0  0
   -0.2231   -0.7954    1.1055 H   0  0  0  0  0  0  0  0  0  0  0  0
   -0.0051   -0.8652   -1.0057 C   0  0  0  0  0  0  0  0  0  0  0  0
    1.0242   -0.5231   -0.8603 H   0  0  0  0  0  0  0  0  0  0  0  0
    0.0337   -1.9586   -1.0505 H   0  0  0  0  0  0  0  0  0  0  0  0
   -0.4713   -0.3160   -2.3434 C   0  0  0  0  0  0  0  0  0  0  0  0
   -0.5434    1.0599   -2.6239 C   0  0  0  0  0  0  0  0  0  0  0  0
   -0.2257    1.7963   -1.8940 H   0  0  0  0  0  0  0  0  0  0  0  0
   -1.0130    1.5167   -3.8600 C   0  0  0  0  0  0  0  0  0  0  0  0
   -1.0639    2.5835   -4.0570 H   0  0  0  0  0  0  0  0  0  0  0  0
   -1.4183    0.6046   -4.8370 C   0  0  0  0  0  0  0  0  0  0  0  0
   -1.7849    0.9603   -5.7953 H   0  0  0  0  0  0  0  0  0  0  0  0
   -1.3527   -0.7656   -4.5753 C   0  0  0  0  0  0  0  0  0  0  0  0
   -1.6683   -1.4781   -5.3316 H   0  0  0  0  0  0  0  0  0  0  0  0
   -0.8846   -1.2196   -3.3375 C   0  0  0  0  0  0  0  0  0  0  0  0
   -0.8496   -2.2886   -3.1502 H   0  0  0  0  0  0  0  0  0  0  0  0
   -1.0327    1.0449    0.4891 C   0  0  0  0  0  0  0  0  0  0  0  0
   -2.0413    1.6037    0.0726 O   0  0  0  0  0  0  0  0  0  0  0  0
   -0.2068    1.7310    1.3619 N   0  0  0  0  0  0  0  0  0  0  0  0
    0.5482    1.2110    1.7999 H   0  0  0  0  0  0  0  0  0  0  0  0
   -0.4622    3.0987    1.7976 C   0  0  0  0  0  0  0  0  0  0  0  0
   -1.4131    3.1573    2.3377 H   0  0  0  0  0  0  0  0  0  0  0  0
    0.3361    3.4387    2.4643 H   0  0  0  0  0  0  0  0  0  0  0  0
   -0.5035    3.7741    0.9366 H   0  0  0  0  0  0  0  0  0  0  0  0
  1  2  1  0  0  0  0
  2  3  1  0  0  0  0
  2  4  1  0  0  0  0
  2  5  1  0  0  0  0
  5  6  2  0  0  0  0
  5  7  1  0  0  0  0
  7  8  1  0  0  0  0
  7  9  1  0  0  0  0
  9 10  1  0  0  0  0
  9 11  1  0  0  0  0
  9 25  1  0  0  0  0
 11 12  1  0  0  0  0
 11 13  1  0  0  0  0
 11 14  1  0  0  0  0
 14 15  1  0  0  0  0
 14 23  2  0  0  0  0
 15 16  1  0  0  0  0
 15 17  2  0  0  0  0
 17 18  1  0  0  0  0
 17 19  1  0  0  0  0
 19 20  1  0  0  0  0
 19 21  2  0  0  0  0
 21 22  1  0  0  0  0
 21 23  1  0  0  0  0
 23 24  1  0  0  0  0
 25 26  2  0  0  0  0
 25 27  1  0  0  0  0
 27 28  1  0  0  0  0
 27 29  1  0  0  0  0
 29 30  1  0  0  0  0
 29 31  1  0  0  0  0
 29 32  1  0  0  0  0
M  END
$$$$

  -OEChem-04042216033D

 32 32  0     1  0  0  0  0  0999 V2000
   -3.6944   -3.9399    1.5732 H   0  0  0  0  0  0  0  0  0  0  0  0
   -3.6860   -3.0323    0.9631 C   0  0  0  0  0  0  0  0  0  0  0  0
   -4.4047   -2.3214    1.3782 H   0  0  0  0  0  0  0  0  0  0  0  0
   -3.9850   -3.2893   -0.0559 H   0  0  0  0  0  0  0  0  0  0  0  0
   -2.2982   -2.4200    0.9556 C   0  0  0  0  0  0  0  0  0  0  0  0
   -1.3853   -2.9666    1.5554 O   0  0  0  0  0  0  0  0  0  0  0  0
   -2.0707   -1.2521    0.2596 N   0  0  0  0  0  0  0  0  0  0  0  0
   -2.8725   -0.7951   -0.1730 H   0  0  0  0  0  0  0  0  0  0  0  0
   -0.8033   -0.5089    0.2442 C   0  0  1  0  0  0  0  0  0  0  0  0
   -0.2224   -0.8180    1.1189 H   0  0  0  0  0  0  0  0  0  0  0  0
    0.0218   -0.9170   -0.9939 C   0  0  0  0  0  0  0  0  0  0  0  0
    1.0519   -0.5782   -0.8463 H   0  0  0  0  0  0  0  0  0  0  0  0
    0.0559   -2.0101   -1.0519 H   0  0  0  0  0  0  0  0  0  0  0  0
   -0.4679   -0.3492   -2.3091 C   0  0  0  0  0  0  0  0  0  0  0  0
   -0.2565    0.9953   -2.6556 C   0  0  0  0  0  0  0  0  0  0  0  0
    0.2744    1.6594   -1.9810 H   0  0  0  0  0  0  0  0  0  0  0  0
   -0.7285    1.5010   -3.8712 C   0  0  0  0  0  0  0  0  0  0  0  0
   -0.5616    2.5436   -4.1245 H   0  0  0  0  0  0  0  0  0  0  0  0
   -1.4194    0.6678   -4.7551 C   0  0  0  0  0  0  0  0  0  0  0  0
   -1.7874    1.0618   -5.6977 H   0  0  0  0  0  0  0  0  0  0  0  0
   -1.6402   -0.6709   -4.4202 C   0  0  0  0  0  0  0  0  0  0  0  0
   -2.1808   -1.3190   -5.1036 H   0  0  0  0  0  0  0  0  0  0  0  0
   -1.1682   -1.1742   -3.2031 C   0  0  0  0  0  0  0  0  0  0  0  0
   -1.3517   -2.2143   -2.9518 H   0  0  0  0  0  0  0  0  0  0  0  0
   -1.0263    1.0068    0.4220 C   0  0  0  0  0  0  0  0  0  0  0  0
   -2.0191    1.5495   -0.0496 O   0  0  0  0  0  0  0  0  0  0  0  0
   -0.2256    1.7267    1.2908 N   0  0  0  0  0  0  0  0  0  0  0  0
    0.5187    1.2265    1.7684 H   0  0  0  0  0  0  0  0  0  0  0  0
   -0.4817    3.1166    1.6492 C   0  0  0  0  0  0  0  0  0  0  0  0
   -1.4518    3.2108    2.1488 H   0  0  0  0  0  0  0  0  0  0  0  0
    0.2943    3.4812    2.3290 H   0  0  0  0  0  0  0  0  0  0  0  0
   -0.4822    3.7494    0.7553 H   0  0  0  0  0  0  0  0  0  0  0  0
  1  2  1  0  0  0  0
  2  3  1  0  0  0  0
  2  4  1  0  0  0  0
  2  5  1  0  0  0  0
  5  6  2  0  0  0  0
  5  7  1  0  0  0  0
  7  8  1  0  0  0  0
  7  9  1  0  0  0  0
  9 10  1  0  0  0  0
  9 11  1  0  0  0  0
  9 25  1  0  0  0  0
 11 12  1  0  0  0  0
 11 13  1  0  0  0  0
 11 14  1  0  0  0  0
 14 15  1  0  0  0  0
 14 23  2  0  0  0  0
 15 16  1  0  0  0  0
 15 17  2  0  0  0  0
 17 18  1  0  0  0  0
 17 19  1  0  0  0  0
 19 20  1  0  0  0  0
 19 21  2  0  0  0  0
 21 22  1  0  0  0  0
 21 23  1  0  0  0  0
 23 24  1  0  0  0  0
 25 26  2  0  0  0  0
 25 27  1  0  0  0  0
 27 28  1  0  0  0  0
 27 29  1  0  0  0  0
 29 30  1  0  0  0  0
 29 31  1  0  0  0  0
 29 32  1  0  0  0  0
M  END
$$$$

  -OEChem-04042216033D

 32 32  0     1  0  0  0  0  0999 V2000
   -3.7112   -3.9295    1.6353 H   0  0  0  0  0  0  0  0  0  0  0  0
   -3.6974   -3.0357    1.0053 C   0  0  0  0  0  0  0  0  0  0  0  0
   -4.4078   -2.3099    1.4084 H   0  0  0  0  0  0  0  0  0  0  0  0
   -4.0040   -3.3125   -0.0063 H   0  0  0  0  0  0  0  0  0  0  0  0
   -2.3041   -2.4362    0.9777 C   0  0  0  0  0  0  0  0  0  0  0  0
   -1.3942   -2.9768    1.5871 O   0  0  0  0  0  0  0  0  0  0  0  0
   -2.0685   -1.2854    0.2562 N   0  0  0  0  0  0  0  0  0  0  0  0
   -2.8695   -0.8250   -0.1743 H   0  0  0  0  0  0  0  0  0  0  0  0
   -0.7995   -0.5440    0.2382 C   0  0  1  0  0  0  0  0  0  0  0  0
   -0.2211   -0.8389    1.1195 H   0  0  0  0  0  0  0  0  0  0  0  0
    0.0354   -0.9441   -0.9930 C   0  0  0  0  0  0  0  0  0  0  0  0
    1.0665   -0.6110   -0.8392 H   0  0  0  0  0  0  0  0  0  0  0  0
    0.0639   -2.0362   -1.0680 H   0  0  0  0  0  0  0  0  0  0  0  0
   -0.4713   -0.3590   -2.2915 C   0  0  0  0  0  0  0  0  0  0  0  0
   -0.0120    0.8856   -2.7500 C   0  0  0  0  0  0  0  0  0  0  0  0
    0.7098    1.4498   -2.1680 H   0  0  0  0  0  0  0  0  0  0  0  0
   -0.4857    1.4177   -3.9538 C   0  0  0  0  0  0  0  0  0  0  0  0
   -0.1295    2.3846   -4.2962 H   0  0  0  0  0  0  0  0  0  0  0  0
   -1.4213    0.7083   -4.7126 C   0  0  0  0  0  0  0  0  0  0  0  0
   -1.7899    1.1227   -5.6462 H   0  0  0  0  0  0  0  0  0  0  0  0
   -1.8844   -0.5324   -4.2651 C   0  0  0  0  0  0  0  0  0  0  0  0
   -2.6131   -1.0834   -4.8519 H   0  0  0  0  0  0  0  0  0  0  0  0
   -1.4109   -1.0622   -3.0599 C   0  0  0  0  0  0  0  0  0  0  0  0
   -1.7766   -2.0258   -2.7187 H   0  0  0  0  0  0  0  0  0  0  0  0
   -1.0258    0.9761    0.3777 C   0  0  0  0  0  0  0  0  0  0  0  0
   -2.0154    1.5050   -0.1161 O   0  0  0  0  0  0  0  0  0  0  0  0
   -0.2359    1.7168    1.2390 N   0  0  0  0  0  0  0  0  0  0  0  0
    0.5096    1.2311    1.7292 H   0  0  0  0  0  0  0  0  0  0  0  0
   -0.4948    3.1156    1.5587 C   0  0  0  0  0  0  0  0  0  0  0  0
   -1.4690    3.2223    2.0472 H   0  0  0  0  0  0  0  0  0  0  0  0
    0.2756    3.4986    2.2347 H   0  0  0  0  0  0  0  0  0  0  0  0
   -0.4887    3.7245    0.6485 H   0  0  0  0  0  0  0  0  0  0  0  0
  1  2  1  0  0  0  0
  2  3  1  0  0  0  0
  2  4  1  0  0  0  0
  2  5  1  0  0  0  0
  5  6  2  0  0  0  0
  5  7  1  0  0  0  0
  7  8  1  0  0  0  0
  7  9  1  0  0  0  0
  9 10  1  0  0  0  0
  9 11  1  0  0  0  0
  9 25  1  0  0  0  0
 11 12  1  0  0  0  0
 11 13  1  0  0  0  0
 11 14  1  0  0  0  0
 14 15  1  0  0  0  0
 14 23  2  0  0  0  0
 15 16  1  0  0  0  0
 15 17  2  0  0  0  0
 17 18  1  0  0  0  0
 17 19  1  0  0  0  0
 19 20  1  0  0  0  0
 19 21  2  0  0  0  0
 21 22  1  0  0  0  0
 21 23  1  0  0  0  0
 23 24  1  0  0  0  0
 25 26  2  0  0  0  0
 25 27  1  0  0  0  0
 27 28  1  0  0  0  0
 27 29  1  0  0  0  0
 29 30  1  0  0  0  0
 29 31  1  0  0  0  0
 29 32  1  0  0  0  0
M  END
$$$$

  -OEChem-04042216033D

 32 32  0     1  0  0  0  0  0999 V2000
   -3.7185   -3.9172    1.7039 H   0  0  0  0  0  0  0  0  0  0  0  0
   -3.7052   -3.0318    1.0623 C   0  0  0  0  0  0  0  0  0  0  0  0
   -4.3955   -2.2901    1.4717 H   0  0  0  0  0  0  0  0  0  0  0  0
   -4.0385   -3.3161    0.0612 H   0  0  0  0  0  0  0  0  0  0  0  0
   -2.3041   -2.4536    0.9960 C   0  0  0  0  0  0  0  0  0  0  0  0
   -1.3866   -3.0025    1.5860 O   0  0  0  0  0  0  0  0  0  0  0  0
   -2.0734   -1.3076    0.2655 N   0  0  0  0  0  0  0  0  0  0  0  0
   -2.8828   -0.8317   -0.1311 H   0  0  0  0  0  0  0  0  0  0  0  0
   -0.8039   -0.5673    0.2350 C   0  0  1  0  0  0  0  0  0  0  0  0
   -0.2190   -0.8584    1.1132 H   0  0  0  0  0  0  0  0  0  0  0  0
    0.0318   -0.9491   -1.0019 C   0  0  0  0  0  0  0  0  0  0  0  0
    1.0626   -0.6185   -0.8418 H   0  0  0  0  0  0  0  0  0  0  0  0
    0.0595   -2.0398   -1.0936 H   0  0  0  0  0  0  0  0  0  0  0  0
   -0.4828   -0.3519   -2.2925 C   0  0  0  0  0  0  0  0  0  0  0  0
    0.1794    0.7306   -2.8925 C   0  0  0  0  0  0  0  0  0  0  0  0
    1.0563    1.1643   -2.4223 H   0  0  0  0  0  0  0  0  0  0  0  0
   -0.2883    1.2718   -4.0947 C   0  0  0  0  0  0  0  0  0  0  0  0
    0.2249    2.1157   -4.5454 H   0  0  0  0  0  0  0  0  0  0  0  0
   -1.4180    0.7296   -4.7138 C   0  0  0  0  0  0  0  0  0  0  0  0
   -1.7826    1.1516   -5.6455 H   0  0  0  0  0  0  0  0  0  0  0  0
   -2.0773   -0.3566   -4.1314 C   0  0  0  0  0  0  0  0  0  0  0  0
   -2.9536   -0.7807   -4.6121 H   0  0  0  0  0  0  0  0  0  0  0  0
   -1.6083   -0.8963   -2.9291 C   0  0  0  0  0  0  0  0  0  0  0  0
   -2.1223   -1.7446   -2.4889 H   0  0  0  0  0  0  0  0  0  0  0  0
   -1.0356    0.9526    0.3666 C   0  0  0  0  0  0  0  0  0  0  0  0
   -2.0341    1.4715   -0.1203 O   0  0  0  0  0  0  0  0  0  0  0  0
   -0.2443    1.7023    1.2187 N   0  0  0  0  0  0  0  0  0  0  0  0
    0.5121    1.2257    1.7008 H   0  0  0  0  0  0  0  0  0  0  0  0
   -0.5014    3.1049    1.5224 C   0  0  0  0  0  0  0  0  0  0  0  0
   -1.4785    3.2197    2.0033 H   0  0  0  0  0  0  0  0  0  0  0  0
    0.2656    3.4925    2.1998 H   0  0  0  0  0  0  0  0  0  0  0  0
   -0.4872    3.7040    0.6058 H   0  0  0  0  0  0  0  0  0  0  0  0
  1  2  1  0  0  0  0
  2  3  1  0  0  0  0
  2  4  1  0  0  0  0
  2  5  1  0  0  0  0
  5  6  2  0  0  0  0
  5  7  1  0  0  0  0
  7  8  1  0  0  0  0
  7  9  1  0  0  0  0
  9 10  1  0  0  0  0
  9 11  1  0  0  0  0
  9 25  1  0  0  0  0
 11 12  1  0  0  0  0
 11 13  1  0  0  0  0
 11 14  1  0  0  0  0
 14 15  1  0  0  0  0
 14 23  2  0  0  0  0
 15 16  1  0  0  0  0
 15 17  2  0  0  0  0
 17 18  1  0  0  0  0
 17 19  1  0  0  0  0
 19 20  1  0  0  0  0
 19 21  2  0  0  0  0
 21 22  1  0  0  0  0
 21 23  1  0  0  0  0
 23 24  1  0  0  0  0
 25 26  2  0  0  0  0
 25 27  1  0  0  0  0
 27 28  1  0  0  0  0
 27 29  1  0  0  0  0
 29 30  1  0  0  0  0
 29 31  1  0  0  0  0
 29 32  1  0  0  0  0
M  END
$$$$

  -OEChem-04042216033D

 32 32  0     1  0  0  0  0  0999 V2000
   -3.6929   -3.9254    1.7886 H   0  0  0  0  0  0  0  0  0  0  0  0
   -3.7003   -3.0415    1.1446 C   0  0  0  0  0  0  0  0  0  0  0  0
   -4.3740   -2.2971    1.5758 H   0  0  0  0  0  0  0  0  0  0  0  0
   -4.0688   -3.3276    0.1566 H   0  0  0  0  0  0  0  0  0  0  0  0
   -2.3008   -2.4678    1.0278 C   0  0  0  0  0  0  0  0  0  0  0  0
   -1.3640   -3.0238    1.5798 O   0  0  0  0  0  0  0  0  0  0  0  0
   -2.0927   -1.3176    0.2962 N   0  0  0  0  0  0  0  0  0  0  0  0
   -2.9162   -0.8251   -0.0475 H   0  0  0  0  0  0  0  0  0  0  0  0
   -0.8225   -0.5794    0.2370 C   0  0  1  0  0  0  0  0  0  0  0  0
   -0.2187   -0.8754    1.1007 H   0  0  0  0  0  0  0  0  0  0  0  0
   -0.0016   -0.9340   -1.0202 C   0  0  0  0  0  0  0  0  0  0  0  0
    1.0296   -0.6063   -0.8564 H   0  0  0  0  0  0  0  0  0  0  0  0
    0.0253   -2.0231   -1.1283 H   0  0  0  0  0  0  0  0  0  0  0  0
   -0.5131   -0.3307   -2.3132 C   0  0  0  0  0  0  0  0  0  0  0  0
    0.3103    0.5306   -3.0568 C   0  0  0  0  0  0  0  0  0  0  0  0
    1.2980    0.7944   -2.6921 H   0  0  0  0  0  0  0  0  0  0  0  0
   -0.1292    1.0703   -4.2703 C   0  0  0  0  0  0  0  0  0  0  0  0
    0.5129    1.7452   -4.8285 H   0  0  0  0  0  0  0  0  0  0  0  0
   -1.3942    0.7414   -4.7642 C   0  0  0  0  0  0  0  0  0  0  0  0
   -1.7382    1.1620   -5.7044 H   0  0  0  0  0  0  0  0  0  0  0  0
   -2.2137   -0.1341   -4.0471 C   0  0  0  0  0  0  0  0  0  0  0  0
   -3.1936   -0.3985   -4.4328 H   0  0  0  0  0  0  0  0  0  0  0  0
   -1.7718   -0.6724   -2.8339 C   0  0  0  0  0  0  0  0  0  0  0  0
   -2.4147   -1.3643   -2.3017 H   0  0  0  0  0  0  0  0  0  0  0  0
   -1.0571    0.9386    0.3847 C   0  0  0  0  0  0  0  0  0  0  0  0
   -2.0758    1.4512   -0.0666 O   0  0  0  0  0  0  0  0  0  0  0  0
   -0.2483    1.6881    1.2207 N   0  0  0  0  0  0  0  0  0  0  0  0
    0.5367    1.2196    1.6635 H   0  0  0  0  0  0  0  0  0  0  0  0
   -0.4984    3.0908    1.5299 C   0  0  0  0  0  0  0  0  0  0  0  0
   -1.4707    3.2078    2.0199 H   0  0  0  0  0  0  0  0  0  0  0  0
    0.2754    3.4742    2.2016 H   0  0  0  0  0  0  0  0  0  0  0  0
   -0.4904    3.6920    0.6147 H   0  0  0  0  0  0  0  0  0  0  0  0
  1  2  1  0  0  0  0
  2  3  1  0  0  0  0
  2  4  1  0  0  0  0
  2  5  1  0  0  0  0
  5  6  2  0  0  0  0
  5  7  1  0  0  0  0
  7  8  1  0  0  0  0
  7  9  1  0  0  0  0
  9 10  1  0  0  0  0
  9 11  1  0  0  0  0
  9 25  1  0  0  0  0
 11 12  1  0  0  0  0
 11 13  1  0  0  0  0
 11 14  1  0  0  0  0
 14 15  1  0  0  0  0
 14 23  2  0  0  0  0
 15 16  1  0  0  0  0
 15 17  2  0  0  0  0
 17 18  1  0  0  0  0
 17 19  1  0  0  0  0
 19 20  1  0  0  0  0
 19 21  2  0  0  0  0
 21 22  1  0  0  0  0
 21 23  1  0  0  0  0
 23 24  1  0  0  0  0
 25 26  2  0  0  0  0
 25 27  1  0  0  0  0
 27 28  1  0  0  0  0
 27 29  1  0  0  0  0
 29 30  1  0  0  0  0
 29 31  1  0  0  0  0
 29 32  1  0  0  0  0
M  END
$$$$

  -OEChem-04042216033D

 32 32  0     1  0  0  0  0  0999 V2000
   -3.6507   -3.9432    1.8555 H   0  0  0  0  0  0  0  0  0  0  0  0
   -3.6812   -3.0600    1.2114 C   0  0  0  0  0  0  0  0  0  0  0  0
   -4.3400   -2.3159    1.6656 H   0  0  0  0  0  0  0  0  0  0  0  0
   -4.0837   -3.3478    0.2373 H   0  0  0  0  0  0  0  0  0  0  0  0
   -2.2872   -2.4850    1.0457 C   0  0  0  0  0  0  0  0  0  0  0  0
   -1.3303   -3.0467    1.5560 O   0  0  0  0  0  0  0  0  0  0  0  0
   -2.1081   -1.3247    0.3222 N   0  0  0  0  0  0  0  0  0  0  0  0
   -2.9466   -0.8238    0.0316 H   0  0  0  0  0  0  0  0  0  0  0  0
   -0.8429   -0.5795    0.2393 C   0  0  1  0  0  0  0  0  0  0  0  0
   -0.2193   -0.8815    1.0866 H   0  0  0  0  0  0  0  0  0  0  0  0
   -0.0401   -0.9106   -1.0375 C   0  0  0  0  0  0  0  0  0  0  0  0
    0.9890   -0.5760   -0.8740 H   0  0  0  0  0  0  0  0  0  0  0  0
   -0.0061   -1.9989   -1.1511 H   0  0  0  0  0  0  0  0  0  0  0  0
   -0.5435   -0.3140   -2.3411 C   0  0  0  0  0  0  0  0  0  0  0  0
    0.3806    0.2746   -3.2216 C   0  0  0  0  0  0  0  0  0  0  0  0
    1.4319    0.3274   -2.9557 H   0  0  0  0  0  0  0  0  0  0  0  0
   -0.0309    0.8068   -4.4479 C   0  0  0  0  0  0  0  0  0  0  0  0
    0.6947    1.2674   -5.1114 H   0  0  0  0  0  0  0  0  0  0  0  0
   -1.3752    0.7449   -4.8204 C   0  0  0  0  0  0  0  0  0  0  0  0
   -1.6974    1.1601   -5.7708 H   0  0  0  0  0  0  0  0  0  0  0  0
   -2.3031    0.1424   -3.9679 C   0  0  0  0  0  0  0  0  0  0  0  0
   -3.3484    0.0876   -4.2564 H   0  0  0  0  0  0  0  0  0  0  0  0
   -1.8884   -0.3911   -2.7430 C   0  0  0  0  0  0  0  0  0  0  0  0
   -2.6304   -0.8644   -2.1129 H   0  0  0  0  0  0  0  0  0  0  0  0
   -1.0811    0.9349    0.4123 C   0  0  0  0  0  0  0  0  0  0  0  0
   -2.1160    1.4465   -0.0016 O   0  0  0  0  0  0  0  0  0  0  0  0
   -0.2543    1.6770    1.2365 N   0  0  0  0  0  0  0  0  0  0  0  0
    0.5518    1.2096    1.6407 H   0  0  0  0  0  0  0  0  0  0  0  0
   -0.4919    3.0789    1.5586 C   0  0  0  0  0  0  0  0  0  0  0  0
   -1.4596    3.2001    2.0567 H   0  0  0  0  0  0  0  0  0  0  0  0
    0.2898    3.4507    2.2280 H   0  0  0  0  0  0  0  0  0  0  0  0
   -0.4855    3.6869    0.6478 H   0  0  0  0  0  0  0  0  0  0  0  0
  1  2  1  0  0  0  0
  2  3  1  0  0  0  0
  2  4  1  0  0  0  0
  2  5  1  0  0  0  0
  5  6  2  0  0  0  0
  5  7  1  0  0  0  0
  7  8  1  0  0  0  0
  7  9  1  0  0  0  0
  9 10  1  0  0  0  0
  9 11  1  0  0  0  0
  9 25  1  0  0  0  0
 11 12  1  0  0  0  0
 11 13  1  0  0  0  0
 11 14  1  0  0  0  0
 14 15  1  0  0  0  0
 14 23  2  0  0  0  0
 15 16  1  0  0  0  0
 15 17  2  0  0  0  0
 17 18  1  0  0  0  0
 17 19  1  0  0  0  0
 19 20  1  0  0  0  0
 19 21  2  0  0  0  0
 21 22  1  0  0  0  0
 21 23  1  0  0  0  0
 23 24  1  0  0  0  0
 25 26  2  0  0  0  0
 25 27  1  0  0  0  0
 27 28  1  0  0  0  0
 27 29  1  0  0  0  0
 29 30  1  0  0  0  0
 29 31  1  0  0  0  0
 29 32  1  0  0  0  0
M  END
$$$$

  -OEChem-04042216033D

 32 32  0     1  0  0  0  0  0999 V2000
   -3.6080   -3.9664    1.8470 H   0  0  0  0  0  0  0  0  0  0  0  0
   -3.6582   -3.0656    1.2289 C   0  0  0  0  0  0  0  0  0  0  0  0
   -4.3069   -2.3367    1.7210 H   0  0  0  0  0  0  0  0  0  0  0  0
   -4.0862   -3.3273    0.2581 H   0  0  0  0  0  0  0  0  0  0  0  0
   -2.2707   -2.4817    1.0415 C   0  0  0  0  0  0  0  0  0  0  0  0
   -1.2999   -3.0470    1.5207 O   0  0  0  0  0  0  0  0  0  0  0  0
   -2.1142   -1.3074    0.3356 N   0  0  0  0  0  0  0  0  0  0  0  0
   -2.9627   -0.8072    0.0764 H   0  0  0  0  0  0  0  0  0  0  0  0
   -0.8545   -0.5540    0.2360 C   0  0  1  0  0  0  0  0  0  0  0  0
   -0.2162   -0.8658    1.0688 H   0  0  0  0  0  0  0  0  0  0  0  0
   -0.0728   -0.8837   -1.0547 C   0  0  0  0  0  0  0  0  0  0  0  0
    0.9549   -0.5379   -0.9044 H   0  0  0  0  0  0  0  0  0  0  0  0
   -0.0300   -1.9727   -1.1587 H   0  0  0  0  0  0  0  0  0  0  0  0
   -0.5740   -0.3069   -2.3698 C   0  0  0  0  0  0  0  0  0  0  0  0
    0.3688   -0.0326   -3.3755 C   0  0  0  0  0  0  0  0  0  0  0  0
    1.4239   -0.2152   -3.1961 H   0  0  0  0  0  0  0  0  0  0  0  0
   -0.0256    0.4767   -4.6172 C   0  0  0  0  0  0  0  0  0  0  0  0
    0.7187    0.6886   -5.3791 H   0  0  0  0  0  0  0  0  0  0  0  0
   -1.3772    0.7119   -4.8775 C   0  0  0  0  0  0  0  0  0  0  0  0
   -1.6867    1.1114   -5.8388 H   0  0  0  0  0  0  0  0  0  0  0  0
   -2.3302    0.4292   -3.8969 C   0  0  0  0  0  0  0  0  0  0  0  0
   -3.3826    0.6094   -4.0945 H   0  0  0  0  0  0  0  0  0  0  0  0
   -1.9327   -0.0828   -2.6573 C   0  0  0  0  0  0  0  0  0  0  0  0
   -2.7023   -0.2886   -1.9242 H   0  0  0  0  0  0  0  0  0  0  0  0
   -1.0849    0.9582    0.4411 C   0  0  0  0  0  0  0  0  0  0  0  0
   -2.1394    1.4733    0.0843 O   0  0  0  0  0  0  0  0  0  0  0  0
   -0.2361    1.6846    1.2571 N   0  0  0  0  0  0  0  0  0  0  0  0
    0.5812    1.2103    1.6295 H   0  0  0  0  0  0  0  0  0  0  0  0
   -0.4848    3.0689    1.6418 C   0  0  0  0  0  0  0  0  0  0  0  0
   -1.4247    3.1490    2.1979 H   0  0  0  0  0  0  0  0  0  0  0  0
    0.3257    3.4361    2.2783 H   0  0  0  0  0  0  0  0  0  0  0  0
   -0.5444    3.7082    0.7547 H   0  0  0  0  0  0  0  0  0  0  0  0
  1  2  1  0  0  0  0
  2  3  1  0  0  0  0
  2  4  1  0  0  0  0
  2  5  1  0  0  0  0
  5  6  2  0  0  0  0
  5  7  1  0  0  0  0
  7  8  1  0  0  0  0
  7  9  1  0  0  0  0
  9 10  1  0  0  0  0
  9 11  1  0  0  0  0
  9 25  1  0  0  0  0
 11 12  1  0  0  0  0
 11 13  1  0  0  0  0
 11 14  1  0  0  0  0
 14 15  1  0  0  0  0
 14 23  2  0  0  0  0
 15 16  1  0  0  0  0
 15 17  2  0  0  0  0
 17 18  1  0  0  0  0
 17 19  1  0  0  0  0
 19 20  1  0  0  0  0
 19 21  2  0  0  0  0
 21 22  1  0  0  0  0
 21 23  1  0  0  0  0
 23 24  1  0  0  0  0
 25 26  2  0  0  0  0
 25 27  1  0  0  0  0
 27 28  1  0  0  0  0
 27 29  1  0  0  0  0
 29 30  1  0  0  0  0
 29 31  1  0  0  0  0
 29 32  1  0  0  0  0
M  END
$$$$

  -OEChem-04042216033D

 32 32  0     1  0  0  0  0  0999 V2000
   -3.5722   -3.9950    1.7677 H   0  0  0  0  0  0  0  0  0  0  0  0
   -3.6399   -3.0801    1.1725 C   0  0  0  0  0  0  0  0  0  0  0  0
   -4.3102   -2.3804    1.6777 H   0  0  0  0  0  0  0  0  0  0  0  0
   -4.0534   -3.3268    0.1916 H   0  0  0  0  0  0  0  0  0  0  0  0
   -2.2656   -2.4581    1.0118 C   0  0  0  0  0  0  0  0  0  0  0  0
   -1.2832   -3.0203    1.4707 O   0  0  0  0  0  0  0  0  0  0  0  0
   -2.1338   -1.2572    0.3461 N   0  0  0  0  0  0  0  0  0  0  0  0
   -2.9915   -0.7771    0.0805 H   0  0  0  0  0  0  0  0  0  0  0  0
   -0.8842   -0.4875    0.2416 C   0  0  1  0  0  0  0  0  0  0  0  0
   -0.2395   -0.8184    1.0620 H   0  0  0  0  0  0  0  0  0  0  0  0
   -0.1083   -0.8212   -1.0516 C   0  0  0  0  0  0  0  0  0  0  0  0
    0.9160   -0.4604   -0.9139 H   0  0  0  0  0  0  0  0  0  0  0  0
   -0.0536   -1.9114   -1.1393 H   0  0  0  0  0  0  0  0  0  0  0  0
   -0.6089   -0.2736   -2.3785 C   0  0  0  0  0  0  0  0  0  0  0  0
    0.2724   -0.3134   -3.4721 C   0  0  0  0  0  0  0  0  0  0  0  0
    1.2809   -0.6943   -3.3410 H   0  0  0  0  0  0  0  0  0  0  0  0
   -0.1221    0.1351   -4.7370 C   0  0  0  0  0  0  0  0  0  0  0  0
    0.5773    0.1053   -5.5671 H   0  0  0  0  0  0  0  0  0  0  0  0
   -1.4170    0.6189   -4.9327 C   0  0  0  0  0  0  0  0  0  0  0  0
   -1.7264    0.9706   -5.9124 H   0  0  0  0  0  0  0  0  0  0  0  0
   -2.3162    0.6404   -3.8647 C   0  0  0  0  0  0  0  0  0  0  0  0
   -3.3276    1.0073   -4.0125 H   0  0  0  0  0  0  0  0  0  0  0  0
   -1.9191    0.1876   -2.6022 C   0  0  0  0  0  0  0  0  0  0  0  0
   -2.6546    0.2038   -1.8079 H   0  0  0  0  0  0  0  0  0  0  0  0
   -1.0829    1.0219    0.5013 C   0  0  0  0  0  0  0  0  0  0  0  0
   -2.1423    1.5678    0.2129 O   0  0  0  0  0  0  0  0  0  0  0  0
   -0.1951    1.7032    1.3149 N   0  0  0  0  0  0  0  0  0  0  0  0
    0.6282    1.2034    1.6378 H   0  0  0  0  0  0  0  0  0  0  0  0
   -0.4048    3.0763    1.7584 C   0  0  0  0  0  0  0  0  0  0  0  0
   -1.3270    3.1530    2.3441 H   0  0  0  0  0  0  0  0  0  0  0  0
    0.4305    3.4039    2.3847 H   0  0  0  0  0  0  0  0  0  0  0  0
   -0.4763    3.7497    0.8975 H   0  0  0  0  0  0  0  0  0  0  0  0
  1  2  1  0  0  0  0
  2  3  1  0  0  0  0
  2  4  1  0  0  0  0
  2  5  1  0  0  0  0
  5  6  2  0  0  0  0
  5  7  1  0  0  0  0
  7  8  1  0  0  0  0
  7  9  1  0  0  0  0
  9 10  1  0  0  0  0
  9 11  1  0  0  0  0
  9 25  1  0  0  0  0
 11 12  1  0  0  0  0
 11 13  1  0  0  0  0
 11 14  1  0  0  0  0
 14 15  1  0  0  0  0
 14 23  2  0  0  0  0
 15 16  1  0  0  0  0
 15 17  2  0  0  0  0
 17 18  1  0  0  0  0
 17 19  1  0  0  0  0
 19 20  1  0  0  0  0
 19 21  2  0  0  0  0
 21 22  1  0  0  0  0
 21 23  1  0  0  0  0
 23 24  1  0  0  0  0
 25 26  2  0  0  0  0
 25 27  1  0  0  0  0
 27 28  1  0  0  0  0
 27 29  1  0  0  0  0
 29 30  1  0  0  0  0
 29 31  1  0  0  0  0
 29 32  1  0  0  0  0
M  END
$$$$

  -OEChem-04042216033D

 32 32  0     1  0  0  0  0  0999 V2000
   -3.4275   -4.0963    1.5564 H   0  0  0  0  0  0  0  0  0  0  0  0
   -3.5560   -3.1394    1.0428 C   0  0  0  0  0  0  0  0  0  0  0  0
   -4.2529   -2.5233    1.6161 H   0  0  0  0  0  0  0  0  0  0  0  0
   -3.9754   -3.3251    0.0511 H   0  0  0  0  0  0  0  0  0  0  0  0
   -2.2204   -2.4307    0.9150 C   0  0  0  0  0  0  0  0  0  0  0  0
   -1.2030   -2.9685    1.3247 O   0  0  0  0  0  0  0  0  0  0  0  0
   -2.1615   -1.1820    0.3307 N   0  0  0  0  0  0  0  0  0  0  0  0
   -3.0464   -0.7393    0.0897 H   0  0  0  0  0  0  0  0  0  0  0  0
   -0.9594   -0.3369    0.2594 C   0  0  1  0  0  0  0  0  0  0  0  0
   -0.3356   -0.6710    1.0950 H   0  0  0  0  0  0  0  0  0  0  0  0
   -0.0953   -0.6558   -0.9851 C   0  0  0  0  0  0  0  0  0  0  0  0
    0.9426   -0.4529   -0.7019 H   0  0  0  0  0  0  0  0  0  0  0  0
   -0.1644   -1.7330   -1.1709 H   0  0  0  0  0  0  0  0  0  0  0  0
   -0.3187    0.0575   -2.3107 C   0  0  0  0  0  0  0  0  0  0  0  0
    0.5287   -0.3088   -3.3708 C   0  0  0  0  0  0  0  0  0  0  0  0
    1.3275   -1.0243   -3.1995 H   0  0  0  0  0  0  0  0  0  0  0  0
    0.3795    0.2405   -4.6483 C   0  0  0  0  0  0  0  0  0  0  0  0
    1.0603   -0.0437   -5.4452 H   0  0  0  0  0  0  0  0  0  0  0  0
   -0.6485    1.1502   -4.8992 C   0  0  0  0  0  0  0  0  0  0  0  0
   -0.7700    1.5803   -5.8892 H   0  0  0  0  0  0  0  0  0  0  0  0
   -1.5341    1.4884   -3.8749 C   0  0  0  0  0  0  0  0  0  0  0  0
   -2.3538    2.1738   -4.0700 H   0  0  0  0  0  0  0  0  0  0  0  0
   -1.3819    0.9339   -2.5993 C   0  0  0  0  0  0  0  0  0  0  0  0
   -2.1326    1.1890   -1.8663 H   0  0  0  0  0  0  0  0  0  0  0  0
   -1.1992    1.1465    0.6160 C   0  0  0  0  0  0  0  0  0  0  0  0
   -2.3058    1.6486    0.4500 O   0  0  0  0  0  0  0  0  0  0  0  0
   -0.3123    1.8024    1.4518 N   0  0  0  0  0  0  0  0  0  0  0  0
    0.5524    1.3247    1.6885 H   0  0  0  0  0  0  0  0  0  0  0  0
   -0.5706    3.1158    2.0303 C   0  0  0  0  0  0  0  0  0  0  0  0
   -1.4498    3.0811    2.6824 H   0  0  0  0  0  0  0  0  0  0  0  0
    0.2880    3.4427    2.6246 H   0  0  0  0  0  0  0  0  0  0  0  0
   -0.7454    3.8546    1.2411 H   0  0  0  0  0  0  0  0  0  0  0  0
  1  2  1  0  0  0  0
  2  3  1  0  0  0  0
  2  4  1  0  0  0  0
  2  5  1  0  0  0  0
  5  6  2  0  0  0  0
  5  7  1  0  0  0  0
  7  8  1  0  0  0  0
  7  9  1  0  0  0  0
  9 10  1  0  0  0  0
  9 11  1  0  0  0  0
  9 25  1  0  0  0  0
 11 12  1  0  0  0  0
 11 13  1  0  0  0  0
 11 14  1  0  0  0  0
 14 15  1  0  0  0  0
 14 23  2  0  0  0  0
 15 16  1  0  0  0  0
 15 17  2  0  0  0  0
 17 18  1  0  0  0  0
 17 19  1  0  0  0  0
 19 20  1  0  0  0  0
 19 21  2  0  0  0  0
 21 22  1  0  0  0  0
 21 23  1  0  0  0  0
 23 24  1  0  0  0  0
 25 26  2  0  0  0  0
 25 27  1  0  0  0  0
 27 28  1  0  0  0  0
 27 29  1  0  0  0  0
 29 30  1  0  0  0  0
 29 31  1  0  0  0  0
 29 32  1  0  0  0  0
M  END
$$$$

  -OEChem-04042216033D

 32 32  0     1  0  0  0  0  0999 V2000
   -3.6271   -4.0162    1.4794 H   0  0  0  0  0  0  0  0  0  0  0  0
   -3.7062   -3.0402    0.9927 C   0  0  0  0  0  0  0  0  0  0  0  0
   -4.3671   -2.4034    1.5857 H   0  0  0  0  0  0  0  0  0  0  0  0
   -4.1382   -3.1764   -0.0017 H   0  0  0  0  0  0  0  0  0  0  0  0
   -2.3359   -2.3996    0.8780 C   0  0  0  0  0  0  0  0  0  0  0  0
   -1.3452   -3.0045    1.2587 O   0  0  0  0  0  0  0  0  0  0  0  0
   -2.2147   -1.1376    0.3339 N   0  0  0  0  0  0  0  0  0  0  0  0
   -3.0751   -0.6417    0.1066 H   0  0  0  0  0  0  0  0  0  0  0  0
   -0.9682   -0.3601    0.2624 C   0  0  1  0  0  0  0  0  0  0  0  0
   -0.3386   -0.7528    1.0676 H   0  0  0  0  0  0  0  0  0  0  0  0
   -0.1750   -0.7021   -1.0257 C   0  0  0  0  0  0  0  0  0  0  0  0
    0.8826   -0.5747   -0.7742 H   0  0  0  0  0  0  0  0  0  0  0  0
   -0.3206   -1.7704   -1.2181 H   0  0  0  0  0  0  0  0  0  0  0  0
   -0.3691    0.0386   -2.3456 C   0  0  0  0  0  0  0  0  0  0  0  0
    0.1700   -0.5893   -3.4834 C   0  0  0  0  0  0  0  0  0  0  0  0
    0.6823   -1.5416   -3.3819 H   0  0  0  0  0  0  0  0  0  0  0  0
    0.0647   -0.0196   -4.7559 C   0  0  0  0  0  0  0  0  0  0  0  0
    0.4903   -0.5285   -5.6157 H   0  0  0  0  0  0  0  0  0  0  0  0
   -0.5883    1.2017   -4.9193 C   0  0  0  0  0  0  0  0  0  0  0  0
   -0.6746    1.6487   -5.9053 H   0  0  0  0  0  0  0  0  0  0  0  0
   -1.1323    1.8449   -3.8069 C   0  0  0  0  0  0  0  0  0  0  0  0
   -1.6453    2.7949   -3.9269 H   0  0  0  0  0  0  0  0  0  0  0  0
   -1.0246    1.2718   -2.5345 C   0  0  0  0  0  0  0  0  0  0  0  0
   -1.4740    1.8291   -1.7282 H   0  0  0  0  0  0  0  0  0  0  0  0
   -1.1461    1.1143    0.6770 C   0  0  0  0  0  0  0  0  0  0  0  0
   -2.2320    1.6650    0.5256 O   0  0  0  0  0  0  0  0  0  0  0  0
   -0.2246    1.7101    1.5201 N   0  0  0  0  0  0  0  0  0  0  0  0
    0.6169    1.1861    1.7425 H   0  0  0  0  0  0  0  0  0  0  0  0
   -0.4321    3.0076    2.1528 C   0  0  0  0  0  0  0  0  0  0  0  0
   -1.3015    2.9751    2.8180 H   0  0  0  0  0  0  0  0  0  0  0  0
    0.4456    3.2841    2.7447 H   0  0  0  0  0  0  0  0  0  0  0  0
   -0.5954    3.7821    1.3960 H   0  0  0  0  0  0  0  0  0  0  0  0
  1  2  1  0  0  0  0
  2  3  1  0  0  0  0
  2  4  1  0  0  0  0
  2  5  1  0  0  0  0
  5  6  2  0  0  0  0
  5  7  1  0  0  0  0
  7  8  1  0  0  0  0
  7  9  1  0  0  0  0
  9 10  1  0  0  0  0
  9 11  1  0  0  0  0
  9 25  1  0  0  0  0
 11 12  1  0  0  0  0
 11 13  1  0  0  0  0
 11 14  1  0  0  0  0
 14 15  1  0  0  0  0
 14 23  2  0  0  0  0
 15 16  1  0  0  0  0
 15 17  2  0  0  0  0
 17 18  1  0  0  0  0
 17 19  1  0  0  0  0
 19 20  1  0  0  0  0
 19 21  2  0  0  0  0
 21 22  1  0  0  0  0
 21 23  1  0  0  0  0
 23 24  1  0  0  0  0
 25 26  2  0  0  0  0
 25 27  1  0  0  0  0
 27 28  1  0  0  0  0
 27 29  1  0  0  0  0
 29 30  1  0  0  0  0
 29 31  1  0  0  0  0
 29 32  1  0  0  0  0
M  END
$$$$

  -OEChem-04042216033D

 32 32  0     1  0  0  0  0  0999 V2000
   -3.5324   -4.0789    1.5136 H   0  0  0  0  0  0  0  0  0  0  0  0
   -3.6178   -3.1066    1.0204 C   0  0  0  0  0  0  0  0  0  0  0  0
   -4.2904   -2.4733    1.6041 H   0  0  0  0  0  0  0  0  0  0  0  0
   -4.0403   -3.2531    0.0233 H   0  0  0  0  0  0  0  0  0  0  0  0
   -2.2533   -2.4517    0.9130 C   0  0  0  0  0  0  0  0  0  0  0  0
   -1.2616   -3.0334    1.3256 O   0  0  0  0  0  0  0  0  0  0  0  0
   -2.1375   -1.2005    0.3442 N   0  0  0  0  0  0  0  0  0  0  0  0
   -2.9978   -0.7232    0.0786 H   0  0  0  0  0  0  0  0  0  0  0  0
   -0.8980   -0.4120    0.2716 C   0  0  1  0  0  0  0  0  0  0  0  0
   -0.2429   -0.7851    1.0653 H   0  0  0  0  0  0  0  0  0  0  0  0
   -0.1526   -0.7394   -1.0504 C   0  0  0  0  0  0  0  0  0  0  0  0
    0.9142   -0.6115   -0.8426 H   0  0  0  0  0  0  0  0  0  0  0  0
   -0.3005   -1.8059   -1.2514 H   0  0  0  0  0  0  0  0  0  0  0  0
   -0.4100    0.0401   -2.3377 C   0  0  0  0  0  0  0  0  0  0  0  0
   -0.2429   -0.6666   -3.5436 C   0  0  0  0  0  0  0  0  0  0  0  0
   -0.0030   -1.7255   -3.5229 H   0  0  0  0  0  0  0  0  0  0  0  0
   -0.3935   -0.0437   -4.7866 C   0  0  0  0  0  0  0  0  0  0  0  0
   -0.2785   -0.6192   -5.7003 H   0  0  0  0  0  0  0  0  0  0  0  0
   -0.6863    1.3181   -4.8517 C   0  0  0  0  0  0  0  0  0  0  0  0
   -0.8066    1.8062   -5.8143 H   0  0  0  0  0  0  0  0  0  0  0  0
   -0.8065    2.0528   -3.6718 C   0  0  0  0  0  0  0  0  0  0  0  0
   -1.0114    3.1184   -3.7156 H   0  0  0  0  0  0  0  0  0  0  0  0
   -0.6531    1.4262   -2.4298 C   0  0  0  0  0  0  0  0  0  0  0  0
   -0.7135    2.0689   -1.5633 H   0  0  0  0  0  0  0  0  0  0  0  0
   -1.1385    1.0588    0.6595 C   0  0  0  0  0  0  0  0  0  0  0  0
   -2.2097    1.5965    0.3989 O   0  0  0  0  0  0  0  0  0  0  0  0
   -0.2610    1.7067    1.5107 N   0  0  0  0  0  0  0  0  0  0  0  0
    0.5682    1.1999    1.8074 H   0  0  0  0  0  0  0  0  0  0  0  0
   -0.5177    3.0263    2.0754 C   0  0  0  0  0  0  0  0  0  0  0  0
   -1.4060    3.0026    2.7154 H   0  0  0  0  0  0  0  0  0  0  0  0
    0.3349    3.3517    2.6791 H   0  0  0  0  0  0  0  0  0  0  0  0
   -0.6760    3.7607    1.2787 H   0  0  0  0  0  0  0  0  0  0  0  0
  1  2  1  0  0  0  0
  2  3  1  0  0  0  0
  2  4  1  0  0  0  0
  2  5  1  0  0  0  0
  5  6  2  0  0  0  0
  5  7  1  0  0  0  0
  7  8  1  0  0  0  0
  7  9  1  0  0  0  0
  9 10  1  0  0  0  0
  9 11  1  0  0  0  0
  9 25  1  0  0  0  0
 11 12  1  0  0  0  0
 11 13  1  0  0  0  0
 11 14  1  0  0  0  0
 14 15  1  0  0  0  0
 14 23  2  0  0  0  0
 15 16  1  0  0  0  0
 15 17  2  0  0  0  0
 17 18  1  0  0  0  0
 17 19  1  0  0  0  0
 19 20  1  0  0  0  0
 19 21  2  0  0  0  0
 21 22  1  0  0  0  0
 21 23  1  0  0  0  0
 23 24  1  0  0  0  0
 25 26  2  0  0  0  0
 25 27  1  0  0  0  0
 27 28  1  0  0  0  0
 27 29  1  0  0  0  0
 29 30  1  0  0  0  0
 29 31  1  0  0  0  0
 29 32  1  0  0  0  0
M  END
$$$$

  -OEChem-04042216033D

 32 32  0     1  0  0  0  0  0999 V2000
   -3.5703   -4.0461    1.5676 H   0  0  0  0  0  0  0  0  0  0  0  0
   -3.6264   -3.0972    1.0270 C   0  0  0  0  0  0  0  0  0  0  0  0
   -4.3186   -2.4337    1.5510 H   0  0  0  0  0  0  0  0  0  0  0  0
   -4.0065   -3.2866    0.0203 H   0  0  0  0  0  0  0  0  0  0  0  0
   -2.2535   -2.4566    0.9484 C   0  0  0  0  0  0  0  0  0  0  0  0
   -1.2834   -3.0258    1.4247 O   0  0  0  0  0  0  0  0  0  0  0  0
   -2.1066   -1.2315    0.3330 N   0  0  0  0  0  0  0  0  0  0  0  0
   -2.9519   -0.7598    0.0141 H   0  0  0  0  0  0  0  0  0  0  0  0
   -0.8593   -0.4556    0.2746 C   0  0  1  0  0  0  0  0  0  0  0  0
   -0.2169   -0.8070    1.0883 H   0  0  0  0  0  0  0  0  0  0  0  0
   -0.1082   -0.8001   -1.0381 C   0  0  0  0  0  0  0  0  0  0  0  0
    0.9604   -0.6816   -0.8347 H   0  0  0  0  0  0  0  0  0  0  0  0
   -0.2636   -1.8633   -1.2488 H   0  0  0  0  0  0  0  0  0  0  0  0
   -0.3898    0.0130   -2.2942 C   0  0  0  0  0  0  0  0  0  0  0  0
   -0.5783   -0.6821   -3.5021 C   0  0  0  0  0  0  0  0  0  0  0  0
   -0.6005   -1.7677   -3.5074 H   0  0  0  0  0  0  0  0  0  0  0  0
   -0.7591   -0.0032   -4.7117 C   0  0  0  0  0  0  0  0  0  0  0  0
   -0.9267   -0.5613   -5.6281 H   0  0  0  0  0  0  0  0  0  0  0  0
   -0.7189    1.3916   -4.7416 C   0  0  0  0  0  0  0  0  0  0  0  0
   -0.8619    1.9227   -5.6781 H   0  0  0  0  0  0  0  0  0  0  0  0
   -0.4752    2.1001   -3.5640 C   0  0  0  0  0  0  0  0  0  0  0  0
   -0.4192    3.1844   -3.5847 H   0  0  0  0  0  0  0  0  0  0  0  0
   -0.2907    1.4169   -2.3572 C   0  0  0  0  0  0  0  0  0  0  0  0
   -0.0550    2.0099   -1.4820 H   0  0  0  0  0  0  0  0  0  0  0  0
   -1.1205    1.0288    0.5945 C   0  0  0  0  0  0  0  0  0  0  0  0
   -2.1636    1.5656    0.2378 O   0  0  0  0  0  0  0  0  0  0  0  0
   -0.2795    1.7126    1.4544 N   0  0  0  0  0  0  0  0  0  0  0  0
    0.5243    1.2125    1.8234 H   0  0  0  0  0  0  0  0  0  0  0  0
   -0.5469    3.0644    1.9302 C   0  0  0  0  0  0  0  0  0  0  0  0
   -1.4728    3.0889    2.5146 H   0  0  0  0  0  0  0  0  0  0  0  0
    0.2735    3.4105    2.5661 H   0  0  0  0  0  0  0  0  0  0  0  0
   -0.6440    3.7555    1.0863 H   0  0  0  0  0  0  0  0  0  0  0  0
  1  2  1  0  0  0  0
  2  3  1  0  0  0  0
  2  4  1  0  0  0  0
  2  5  1  0  0  0  0
  5  6  2  0  0  0  0
  5  7  1  0  0  0  0
  7  8  1  0  0  0  0
  7  9  1  0  0  0  0
  9 10  1  0  0  0  0
  9 11  1  0  0  0  0
  9 25  1  0  0  0  0
 11 12  1  0  0  0  0
 11 13  1  0  0  0  0
 11 14  1  0  0  0  0
 14 15  1  0  0  0  0
 14 23  2  0  0  0  0
 15 16  1  0  0  0  0
 15 17  2  0  0  0  0
 17 18  1  0  0  0  0
 17 19  1  0  0  0  0
 19 20  1  0  0  0  0
 19 21  2  0  0  0  0
 21 22  1  0  0  0  0
 21 23  1  0  0  0  0
 23 24  1  0  0  0  0
 25 26  2  0  0  0  0
 25 27  1  0  0  0  0
 27 28  1  0  0  0  0
 27 29  1  0  0  0  0
 29 30  1  0  0  0  0
 29 31  1  0  0  0  0
 29 32  1  0  0  0  0
M  END
$$$$

  -OEChem-04042216033D

 32 32  0     1  0  0  0  0  0999 V2000
   -3.6153   -4.0048    1.6013 H   0  0  0  0  0  0  0  0  0  0  0  0
   -3.6484   -3.0776    1.0224 C   0  0  0  0  0  0  0  0  0  0  0  0
   -4.3484   -2.3884    1.5008 H   0  0  0  0  0  0  0  0  0  0  0  0
   -4.0026   -3.3038    0.0138 H   0  0  0  0  0  0  0  0  0  0  0  0
   -2.2678   -2.4521    0.9578 C   0  0  0  0  0  0  0  0  0  0  0  0
   -1.3170   -3.0142    1.4791 O   0  0  0  0  0  0  0  0  0  0  0  0
   -2.0904   -1.2504    0.3054 N   0  0  0  0  0  0  0  0  0  0  0  0
   -2.9214   -0.7798   -0.0512 H   0  0  0  0  0  0  0  0  0  0  0  0
   -0.8347   -0.4866    0.2659 C   0  0  1  0  0  0  0  0  0  0  0  0
   -0.2149   -0.8209    1.1040 H   0  0  0  0  0  0  0  0  0  0  0  0
   -0.0567   -0.8492   -1.0226 C   0  0  0  0  0  0  0  0  0  0  0  0
    1.0105   -0.7386   -0.8065 H   0  0  0  0  0  0  0  0  0  0  0  0
   -0.2165   -1.9094   -1.2454 H   0  0  0  0  0  0  0  0  0  0  0  0
   -0.3444   -0.0121   -2.2549 C   0  0  0  0  0  0  0  0  0  0  0  0
   -0.8471   -0.6396   -3.4062 C   0  0  0  0  0  0  0  0  0  0  0  0
   -1.0879   -1.6980   -3.3872 H   0  0  0  0  0  0  0  0  0  0  0  0
   -1.0608    0.0836   -4.5845 C   0  0  0  0  0  0  0  0  0  0  0  0
   -1.4690   -0.4131   -5.4596 H   0  0  0  0  0  0  0  0  0  0  0  0
   -0.7472    1.4438   -4.6365 C   0  0  0  0  0  0  0  0  0  0  0  0
   -0.9164    2.0080   -5.5489 H   0  0  0  0  0  0  0  0  0  0  0  0
   -0.2058    2.0737   -3.5133 C   0  0  0  0  0  0  0  0  0  0  0  0
    0.0515    3.1280   -3.5532 H   0  0  0  0  0  0  0  0  0  0  0  0
    0.0088    1.3471   -2.3374 C   0  0  0  0  0  0  0  0  0  0  0  0
    0.4554    1.8561   -1.4899 H   0  0  0  0  0  0  0  0  0  0  0  0
   -1.0917    1.0118    0.5247 C   0  0  0  0  0  0  0  0  0  0  0  0
   -2.1165    1.5443    0.1133 O   0  0  0  0  0  0  0  0  0  0  0  0
   -0.2753    1.7182    1.3903 N   0  0  0  0  0  0  0  0  0  0  0  0
    0.5025    1.2215    1.8152 H   0  0  0  0  0  0  0  0  0  0  0  0
   -0.5470    3.0890    1.8066 C   0  0  0  0  0  0  0  0  0  0  0  0
   -1.4989    3.1444    2.3449 H   0  0  0  0  0  0  0  0  0  0  0  0
    0.2469    3.4479    2.4686 H   0  0  0  0  0  0  0  0  0  0  0  0
   -0.5955    3.7514    0.9360 H   0  0  0  0  0  0  0  0  0  0  0  0
  1  2  1  0  0  0  0
  2  3  1  0  0  0  0
  2  4  1  0  0  0  0
  2  5  1  0  0  0  0
  5  6  2  0  0  0  0
  5  7  1  0  0  0  0
  7  8  1  0  0  0  0
  7  9  1  0  0  0  0
  9 10  1  0  0  0  0
  9 11  1  0  0  0  0
  9 25  1  0  0  0  0
 11 12  1  0  0  0  0
 11 13  1  0  0  0  0
 11 14  1  0  0  0  0
 14 15  1  0  0  0  0
 14 23  2  0  0  0  0
 15 16  1  0  0  0  0
 15 17  2  0  0  0  0
 17 18  1  0  0  0  0
 17 19  1  0  0  0  0
 19 20  1  0  0  0  0
 19 21  2  0  0  0  0
 21 22  1  0  0  0  0
 21 23  1  0  0  0  0
 23 24  1  0  0  0  0
 25 26  2  0  0  0  0
 25 27  1  0  0  0  0
 27 28  1  0  0  0  0
 27 29  1  0  0  0  0
 29 30  1  0  0  0  0
 29 31  1  0  0  0  0
 29 32  1  0  0  0  0
M  END
$$$$

  -OEChem-04042216033D

 32 32  0     1  0  0  0  0  0999 V2000
   -3.6555   -3.9689    1.6137 H   0  0  0  0  0  0  0  0  0  0  0  0
   -3.6687   -3.0515    1.0186 C   0  0  0  0  0  0  0  0  0  0  0  0
   -4.3624   -2.3431    1.4781 H   0  0  0  0  0  0  0  0  0  0  0  0
   -4.0164   -3.2892    0.0104 H   0  0  0  0  0  0  0  0  0  0  0  0
   -2.2785   -2.4477    0.9569 C   0  0  0  0  0  0  0  0  0  0  0  0
   -1.3426   -3.0087    1.5057 O   0  0  0  0  0  0  0  0  0  0  0  0
   -2.0773   -1.2647    0.2780 N   0  0  0  0  0  0  0  0  0  0  0  0
   -2.8989   -0.7890   -0.0936 H   0  0  0  0  0  0  0  0  0  0  0  0
   -0.8163   -0.5096    0.2531 C   0  0  1  0  0  0  0  0  0  0  0  0
   -0.2169   -0.8302    1.1111 H   0  0  0  0  0  0  0  0  0  0  0  0
   -0.0122   -0.8857   -1.0117 C   0  0  0  0  0  0  0  0  0  0  0  0
    1.0523   -0.7818   -0.7801 H   0  0  0  0  0  0  0  0  0  0  0  0
   -0.1761   -1.9430   -1.2455 H   0  0  0  0  0  0  0  0  0  0  0  0
   -0.2993   -0.0355   -2.2299 C   0  0  0  0  0  0  0  0  0  0  0  0
   -1.0763   -0.5556   -3.2759 C   0  0  0  0  0  0  0  0  0  0  0  0
   -1.5035   -1.5501   -3.1925 H   0  0  0  0  0  0  0  0  0  0  0  0
   -1.3186    0.1995   -4.4284 C   0  0  0  0  0  0  0  0  0  0  0  0
   -1.9315   -0.2084   -5.2264 H   0  0  0  0  0  0  0  0  0  0  0  0
   -0.7731    1.4801   -4.5528 C   0  0  0  0  0  0  0  0  0  0  0  0
   -0.9641    2.0687   -5.4451 H   0  0  0  0  0  0  0  0  0  0  0  0
    0.0205    2.0008   -3.5271 C   0  0  0  0  0  0  0  0  0  0  0  0
    0.4475    2.9943   -3.6231 H   0  0  0  0  0  0  0  0  0  0  0  0
    0.2631    1.2437   -2.3760 C   0  0  0  0  0  0  0  0  0  0  0  0
    0.8876    1.6608   -1.5922 H   0  0  0  0  0  0  0  0  0  0  0  0
   -1.0646    0.9988    0.4651 C   0  0  0  0  0  0  0  0  0  0  0  0
   -2.0811    1.5255    0.0260 O   0  0  0  0  0  0  0  0  0  0  0  0
   -0.2632    1.7186    1.3339 N   0  0  0  0  0  0  0  0  0  0  0  0
    0.4997    1.2254    1.7886 H   0  0  0  0  0  0  0  0  0  0  0  0
   -0.5371    3.0986    1.7163 C   0  0  0  0  0  0  0  0  0  0  0  0
   -1.4937    3.1674    2.2447 H   0  0  0  0  0  0  0  0  0  0  0  0
    0.2510    3.4720    2.3773 H   0  0  0  0  0  0  0  0  0  0  0  0
   -0.5768    3.7406    0.8300 H   0  0  0  0  0  0  0  0  0  0  0  0
  1  2  1  0  0  0  0
  2  3  1  0  0  0  0
  2  4  1  0  0  0  0
  2  5  1  0  0  0  0
  5  6  2  0  0  0  0
  5  7  1  0  0  0  0
  7  8  1  0  0  0  0
  7  9  1  0  0  0  0
  9 10  1  0  0  0  0
  9 11  1  0  0  0  0
  9 25  1  0  0  0  0
 11 12  1  0  0  0  0
 11 13  1  0  0  0  0
 11 14  1  0  0  0  0
 14 15  1  0  0  0  0
 14 23  2  0  0  0  0
 15 16  1  0  0  0  0
 15 17  2  0  0  0  0
 17 18  1  0  0  0  0
 17 19  1  0  0  0  0
 19 20  1  0  0  0  0
 19 21  2  0  0  0  0
 21 22  1  0  0  0  0
 21 23  1  0  0  0  0
 23 24  1  0  0  0  0
 25 26  2  0  0  0  0
 25 27  1  0  0  0  0
 27 28  1  0  0  0  0
 27 29  1  0  0  0  0
 29 30  1  0  0  0  0
 29 31  1  0  0  0  0
 29 32  1  0  0  0  0
M  END
$$$$

  -OEChem-04042216033D

 32 32  0     1  0  0  0  0  0999 V2000
   -3.6856   -3.9374    1.6401 H   0  0  0  0  0  0  0  0  0  0  0  0
   -3.6852   -3.0353    1.0219 C   0  0  0  0  0  0  0  0  0  0  0  0
   -4.3756   -2.3091    1.4579 H   0  0  0  0  0  0  0  0  0  0  0  0
   -4.0275   -3.2955    0.0174 H   0  0  0  0  0  0  0  0  0  0  0  0
   -2.2885   -2.4467    0.9559 C   0  0  0  0  0  0  0  0  0  0  0  0
   -1.3609   -3.0081    1.5181 O   0  0  0  0  0  0  0  0  0  0  0  0
   -2.0727   -1.2767    0.2591 N   0  0  0  0  0  0  0  0  0  0  0  0
   -2.8903   -0.7916   -0.1088 H   0  0  0  0  0  0  0  0  0  0  0  0
   -0.8074   -0.5281    0.2410 C   0  0  1  0  0  0  0  0  0  0  0  0
   -0.2216   -0.8395    1.1115 H   0  0  0  0  0  0  0  0  0  0  0  0
    0.0176   -0.9093   -1.0061 C   0  0  0  0  0  0  0  0  0  0  0  0
    1.0792   -0.8116   -0.7584 H   0  0  0  0  0  0  0  0  0  0  0  0
   -0.1501   -1.9636   -1.2500 H   0  0  0  0  0  0  0  0  0  0  0  0
   -0.2645   -0.0517   -2.2176 C   0  0  0  0  0  0  0  0  0  0  0  0
   -1.2696   -0.4251   -3.1209 C   0  0  0  0  0  0  0  0  0  0  0  0
   -1.8545   -1.3215   -2.9395 H   0  0  0  0  0  0  0  0  0  0  0  0
   -1.5327    0.3531   -4.2532 C   0  0  0  0  0  0  0  0  0  0  0  0
   -2.3179    0.0590   -4.9429 H   0  0  0  0  0  0  0  0  0  0  0  0
   -0.7884    1.5117   -4.4941 C   0  0  0  0  0  0  0  0  0  0  0  0
   -0.9960    2.1191   -5.3701 H   0  0  0  0  0  0  0  0  0  0  0  0
    0.2202    1.8892   -3.6027 C   0  0  0  0  0  0  0  0  0  0  0  0
    0.7973    2.7902   -3.7870 H   0  0  0  0  0  0  0  0  0  0  0  0
    0.4825    1.1097   -2.4709 C   0  0  0  0  0  0  0  0  0  0  0  0
    1.2666    1.4160   -1.7857 H   0  0  0  0  0  0  0  0  0  0  0  0
   -1.0478    0.9856    0.4229 C   0  0  0  0  0  0  0  0  0  0  0  0
   -2.0627    1.5073   -0.0265 O   0  0  0  0  0  0  0  0  0  0  0  0
   -0.2535    1.7129    1.2917 N   0  0  0  0  0  0  0  0  0  0  0  0
    0.5105    1.2263    1.7514 H   0  0  0  0  0  0  0  0  0  0  0  0
   -0.5233    3.0998    1.6508 C   0  0  0  0  0  0  0  0  0  0  0  0
   -1.4990    3.1860    2.1403 H   0  0  0  0  0  0  0  0  0  0  0  0
    0.2430    3.4679    2.3395 H   0  0  0  0  0  0  0  0  0  0  0  0
   -0.5192    3.7338    0.7579 H   0  0  0  0  0  0  0  0  0  0  0  0
  1  2  1  0  0  0  0
  2  3  1  0  0  0  0
  2  4  1  0  0  0  0
  2  5  1  0  0  0  0
  5  6  2  0  0  0  0
  5  7  1  0  0  0  0
  7  8  1  0  0  0  0
  7  9  1  0  0  0  0
  9 10  1  0  0  0  0
  9 11  1  0  0  0  0
  9 25  1  0  0  0  0
 11 12  1  0  0  0  0
 11 13  1  0  0  0  0
 11 14  1  0  0  0  0
 14 15  1  0  0  0  0
 14 23  2  0  0  0  0
 15 16  1  0  0  0  0
 15 17  2  0  0  0  0
 17 18  1  0  0  0  0
 17 19  1  0  0  0  0
 19 20  1  0  0  0  0
 19 21  2  0  0  0  0
 21 22  1  0  0  0  0
 21 23  1  0  0  0  0
 23 24  1  0  0  0  0
 25 26  2  0  0  0  0
 25 27  1  0  0  0  0
 27 28  1  0  0  0  0
 27 29  1  0  0  0  0
 29 30  1  0  0  0  0
 29 31  1  0  0  0  0
 29 32  1  0  0  0  0
M  END
$$$$

  -OEChem-04042216033D

 32 32  0     1  0  0  0  0  0999 V2000
   -3.6920   -3.9298    1.6670 H   0  0  0  0  0  0  0  0  0  0  0  0
   -3.6925   -3.0323    1.0421 C   0  0  0  0  0  0  0  0  0  0  0  0
   -4.3740   -2.2988    1.4798 H   0  0  0  0  0  0  0  0  0  0  0  0
   -4.0468   -3.2975    0.0432 H   0  0  0  0  0  0  0  0  0  0  0  0
   -2.2928   -2.4535    0.9576 C   0  0  0  0  0  0  0  0  0  0  0  0
   -1.3632   -3.0185    1.5125 O   0  0  0  0  0  0  0  0  0  0  0  0
   -2.0765   -1.2884    0.2526 N   0  0  0  0  0  0  0  0  0  0  0  0
   -2.8968   -0.7930   -0.0952 H   0  0  0  0  0  0  0  0  0  0  0  0
   -0.8095   -0.5424    0.2342 C   0  0  1  0  0  0  0  0  0  0  0  0
   -0.2281   -0.8494    1.1093 H   0  0  0  0  0  0  0  0  0  0  0  0
    0.0272   -0.9203   -1.0060 C   0  0  0  0  0  0  0  0  0  0  0  0
    1.0862   -0.8301   -0.7455 H   0  0  0  0  0  0  0  0  0  0  0  0
   -0.1451   -1.9719   -1.2580 H   0  0  0  0  0  0  0  0  0  0  0  0
   -0.2473   -0.0613   -2.2187 C   0  0  0  0  0  0  0  0  0  0  0  0
   -1.4241   -0.2411   -2.9599 C   0  0  0  0  0  0  0  0  0  0  0  0
   -2.1401   -1.0005   -2.6624 H   0  0  0  0  0  0  0  0  0  0  0  0
   -1.6888    0.5562   -4.0783 C   0  0  0  0  0  0  0  0  0  0  0  0
   -2.6057    0.4125   -4.6416 H   0  0  0  0  0  0  0  0  0  0  0  0
   -0.7763    1.5415   -4.4664 C   0  0  0  0  0  0  0  0  0  0  0  0
   -0.9838    2.1635   -5.3321 H   0  0  0  0  0  0  0  0  0  0  0  0
    0.4003    1.7283   -3.7349 C   0  0  0  0  0  0  0  0  0  0  0  0
    1.1082    2.4957   -4.0332 H   0  0  0  0  0  0  0  0  0  0  0  0
    0.6634    0.9304   -2.6161 C   0  0  0  0  0  0  0  0  0  0  0  0
    1.5790    1.0898   -2.0555 H   0  0  0  0  0  0  0  0  0  0  0  0
   -1.0494    0.9731    0.4058 C   0  0  0  0  0  0  0  0  0  0  0  0
   -2.0689    1.4886   -0.0409 O   0  0  0  0  0  0  0  0  0  0  0  0
   -0.2581    1.7059    1.2724 N   0  0  0  0  0  0  0  0  0  0  0  0
    0.5212    1.2298    1.7168 H   0  0  0  0  0  0  0  0  0  0  0  0
   -0.5196    3.0996    1.6101 C   0  0  0  0  0  0  0  0  0  0  0  0
   -1.4994    3.2007    2.0887 H   0  0  0  0  0  0  0  0  0  0  0  0
    0.2429    3.4712    2.3014 H   0  0  0  0  0  0  0  0  0  0  0  0
   -0.5018    3.7210    0.7086 H   0  0  0  0  0  0  0  0  0  0  0  0
  1  2  1  0  0  0  0
  2  3  1  0  0  0  0
  2  4  1  0  0  0  0
  2  5  1  0  0  0  0
  5  6  2  0  0  0  0
  5  7  1  0  0  0  0
  7  8  1  0  0  0  0
  7  9  1  0  0  0  0
  9 10  1  0  0  0  0
  9 11  1  0  0  0  0
  9 25  1  0  0  0  0
 11 12  1  0  0  0  0
 11 13  1  0  0  0  0
 11 14  1  0  0  0  0
 14 15  1  0  0  0  0
 14 23  2  0  0  0  0
 15 16  1  0  0  0  0
 15 17  2  0  0  0  0
 17 18  1  0  0  0  0
 17 19  1  0  0  0  0
 19 20  1  0  0  0  0
 19 21  2  0  0  0  0
 21 22  1  0  0  0  0
 21 23  1  0  0  0  0
 23 24  1  0  0  0  0
 25 26  2  0  0  0  0
 25 27  1  0  0  0  0
 27 28  1  0  0  0  0
 27 29  1  0  0  0  0
 29 30  1  0  0  0  0
 29 31  1  0  0  0  0
 29 32  1  0  0  0  0
M  END
$$$$

  -OEChem-04042216033D

 32 32  0     1  0  0  0  0  0999 V2000
   -3.6753   -3.9328    1.7129 H   0  0  0  0  0  0  0  0  0  0  0  0
   -3.6866   -3.0407    1.0804 C   0  0  0  0  0  0  0  0  0  0  0  0
   -4.3587   -2.3030    1.5256 H   0  0  0  0  0  0  0  0  0  0  0  0
   -4.0610   -3.3145    0.0911 H   0  0  0  0  0  0  0  0  0  0  0  0
   -2.2879   -2.4644    0.9628 C   0  0  0  0  0  0  0  0  0  0  0  0
   -1.3451   -3.0365    1.4876 O   0  0  0  0  0  0  0  0  0  0  0  0
   -2.0880   -1.2932    0.2628 N   0  0  0  0  0  0  0  0  0  0  0  0
   -2.9183   -0.7894   -0.0460 H   0  0  0  0  0  0  0  0  0  0  0  0
   -0.8235   -0.5423    0.2320 C   0  0  1  0  0  0  0  0  0  0  0  0
   -0.2347   -0.8522    1.1013 H   0  0  0  0  0  0  0  0  0  0  0  0
    0.0137   -0.9046   -1.0139 C   0  0  0  0  0  0  0  0  0  0  0  0
    1.0705   -0.8114   -0.7457 H   0  0  0  0  0  0  0  0  0  0  0  0
   -0.1534   -1.9559   -1.2694 H   0  0  0  0  0  0  0  0  0  0  0  0
   -0.2536   -0.0524   -2.2365 C   0  0  0  0  0  0  0  0  0  0  0  0
   -1.5308    0.0000   -2.8159 C   0  0  0  0  0  0  0  0  0  0  0  0
   -2.3458   -0.5752   -2.3897 H   0  0  0  0  0  0  0  0  0  0  0  0
   -1.7725    0.7977   -3.9390 C   0  0  0  0  0  0  0  0  0  0  0  0
   -2.7675    0.8361   -4.3719 H   0  0  0  0  0  0  0  0  0  0  0  0
   -0.7363    1.5496   -4.4992 C   0  0  0  0  0  0  0  0  0  0  0  0
   -0.9250    2.1709   -5.3696 H   0  0  0  0  0  0  0  0  0  0  0  0
    0.5410    1.5030   -3.9341 C   0  0  0  0  0  0  0  0  0  0  0  0
    1.3473    2.0873   -4.3672 H   0  0  0  0  0  0  0  0  0  0  0  0
    0.7800    0.7064   -2.8090 C   0  0  0  0  0  0  0  0  0  0  0  0
    1.7779    0.6835   -2.3822 H   0  0  0  0  0  0  0  0  0  0  0  0
   -1.0641    0.9714    0.4180 C   0  0  0  0  0  0  0  0  0  0  0  0
   -2.1006    1.4817    0.0048 O   0  0  0  0  0  0  0  0  0  0  0  0
   -0.2629    1.7013    1.2779 N   0  0  0  0  0  0  0  0  0  0  0  0
    0.5442    1.2355    1.6818 H   0  0  0  0  0  0  0  0  0  0  0  0
   -0.5250    3.0915    1.6299 C   0  0  0  0  0  0  0  0  0  0  0  0
   -1.5100    3.1900    2.0983 H   0  0  0  0  0  0  0  0  0  0  0  0
    0.2296    3.4522    2.3353 H   0  0  0  0  0  0  0  0  0  0  0  0
   -0.4949    3.7239    0.7364 H   0  0  0  0  0  0  0  0  0  0  0  0
  1  2  1  0  0  0  0
  2  3  1  0  0  0  0
  2  4  1  0  0  0  0
  2  5  1  0  0  0  0
  5  6  2  0  0  0  0
  5  7  1  0  0  0  0
  7  8  1  0  0  0  0
  7  9  1  0  0  0  0
  9 10  1  0  0  0  0
  9 11  1  0  0  0  0
  9 25  1  0  0  0  0
 11 12  1  0  0  0  0
 11 13  1  0  0  0  0
 11 14  1  0  0  0  0
 14 15  1  0  0  0  0
 14 23  2  0  0  0  0
 15 16  1  0  0  0  0
 15 17  2  0  0  0  0
 17 18  1  0  0  0  0
 17 19  1  0  0  0  0
 19 20  1  0  0  0  0
 19 21  2  0  0  0  0
 21 22  1  0  0  0  0
 21 23  1  0  0  0  0
 23 24  1  0  0  0  0
 25 26  2  0  0  0  0
 25 27  1  0  0  0  0
 27 28  1  0  0  0  0
 27 29  1  0  0  0  0
 29 30  1  0  0  0  0
 29 31  1  0  0  0  0
 29 32  1  0  0  0  0
M  END
$$$$

  -OEChem-04042216033D

 32 32  0     1  0  0  0  0  0999 V2000
   -3.6253   -3.9765    1.7008 H   0  0  0  0  0  0  0  0  0  0  0  0
   -3.6632   -3.0678    1.0935 C   0  0  0  0  0  0  0  0  0  0  0  0
   -4.3361   -2.3525    1.5726 H   0  0  0  0  0  0  0  0  0  0  0  0
   -4.0547   -3.3202    0.1051 H   0  0  0  0  0  0  0  0  0  0  0  0
   -2.2763   -2.4669    0.9624 C   0  0  0  0  0  0  0  0  0  0  0  0
   -1.3154   -3.0367    1.4561 O   0  0  0  0  0  0  0  0  0  0  0  0
   -2.1076   -1.2775    0.2843 N   0  0  0  0  0  0  0  0  0  0  0  0
   -2.9517   -0.7809    0.0041 H   0  0  0  0  0  0  0  0  0  0  0  0
   -0.8521   -0.5113    0.2386 C   0  0  1  0  0  0  0  0  0  0  0  0
   -0.2500   -0.8312    1.0951 H   0  0  0  0  0  0  0  0  0  0  0  0
   -0.0206   -0.8582   -1.0168 C   0  0  0  0  0  0  0  0  0  0  0  0
    1.0343   -0.7490   -0.7470 H   0  0  0  0  0  0  0  0  0  0  0  0
   -0.1737   -1.9136   -1.2643 H   0  0  0  0  0  0  0  0  0  0  0  0
   -0.2797   -0.0292   -2.2605 C   0  0  0  0  0  0  0  0  0  0  0  0
   -1.5793    0.2750   -2.6983 C   0  0  0  0  0  0  0  0  0  0  0  0
   -2.4421   -0.0769   -2.1433 H   0  0  0  0  0  0  0  0  0  0  0  0
   -1.7862    1.0440   -3.8483 C   0  0  0  0  0  0  0  0  0  0  0  0
   -2.7975    1.2789   -4.1669 H   0  0  0  0  0  0  0  0  0  0  0  0
   -0.6942    1.5136   -4.5824 C   0  0  0  0  0  0  0  0  0  0  0  0
   -0.8548    2.1117   -5.4744 H   0  0  0  0  0  0  0  0  0  0  0  0
    0.6044    1.2123   -4.1644 C   0  0  0  0  0  0  0  0  0  0  0  0
    1.4556    1.5738   -4.7338 H   0  0  0  0  0  0  0  0  0  0  0  0
    0.8081    0.4458   -3.0119 C   0  0  0  0  0  0  0  0  0  0  0  0
    1.8248    0.2207   -2.7047 H   0  0  0  0  0  0  0  0  0  0  0  0
   -1.0873    0.9981    0.4637 C   0  0  0  0  0  0  0  0  0  0  0  0
   -2.1419    1.5138    0.1069 O   0  0  0  0  0  0  0  0  0  0  0  0
   -0.2609    1.7067    1.3177 N   0  0  0  0  0  0  0  0  0  0  0  0
    0.5641    1.2343    1.6752 H   0  0  0  0  0  0  0  0  0  0  0  0
   -0.5083    3.0885    1.7117 C   0  0  0  0  0  0  0  0  0  0  0  0
   -1.4706    3.1739    2.2274 H   0  0  0  0  0  0  0  0  0  0  0  0
    0.2779    3.4356    2.3892 H   0  0  0  0  0  0  0  0  0  0  0  0
   -0.5200    3.7412    0.8323 H   0  0  0  0  0  0  0  0  0  0  0  0
  1  2  1  0  0  0  0
  2  3  1  0  0  0  0
  2  4  1  0  0  0  0
  2  5  1  0  0  0  0
  5  6  2  0  0  0  0
  5  7  1  0  0  0  0
  7  8  1  0  0  0  0
  7  9  1  0  0  0  0
  9 10  1  0  0  0  0
  9 11  1  0  0  0  0
  9 25  1  0  0  0  0
 11 12  1  0  0  0  0
 11 13  1  0  0  0  0
 11 14  1  0  0  0  0
 14 15  1  0  0  0  0
 14 23  2  0  0  0  0
 15 16  1  0  0  0  0
 15 17  2  0  0  0  0
 17 18  1  0  0  0  0
 17 19  1  0  0  0  0
 19 20  1  0  0  0  0
 19 21  2  0  0  0  0
 21 22  1  0  0  0  0
 21 23  1  0  0  0  0
 23 24  1  0  0  0  0
 25 26  2  0  0  0  0
 25 27  1  0  0  0  0
 27 28  1  0  0  0  0
 27 29  1  0  0  0  0
 29 30  1  0  0  0  0
 29 31  1  0  0  0  0
 29 32  1  0  0  0  0
M  END
$$$$

  -OEChem-04042216033D

 32 32  0     1  0  0  0  0  0999 V2000
   -3.5649   -4.0258    1.6505 H   0  0  0  0  0  0  0  0  0  0  0  0
   -3.6364   -3.0903    1.0885 C   0  0  0  0  0  0  0  0  0  0  0  0
   -4.3091   -2.4116    1.6184 H   0  0  0  0  0  0  0  0  0  0  0  0
   -4.0496   -3.3036    0.0998 H   0  0  0  0  0  0  0  0  0  0  0  0
   -2.2644   -2.4580    0.9500 C   0  0  0  0  0  0  0  0  0  0  0  0
   -1.2828   -3.0246    1.4055 O   0  0  0  0  0  0  0  0  0  0  0  0
   -2.1320   -1.2459    0.3048 N   0  0  0  0  0  0  0  0  0  0  0  0
   -2.9903   -0.7632    0.0447 H   0  0  0  0  0  0  0  0  0  0  0  0
   -0.8890   -0.4612    0.2398 C   0  0  1  0  0  0  0  0  0  0  0  0
   -0.2758   -0.7929    1.0838 H   0  0  0  0  0  0  0  0  0  0  0  0
   -0.0592   -0.8071   -1.0184 C   0  0  0  0  0  0  0  0  0  0  0  0
    0.9935   -0.6724   -0.7509 H   0  0  0  0  0  0  0  0  0  0  0  0
   -0.1930   -1.8699   -1.2442 H   0  0  0  0  0  0  0  0  0  0  0  0
   -0.3134   -0.0179   -2.2906 C   0  0  0  0  0  0  0  0  0  0  0  0
   -1.5643    0.5330   -2.6186 C   0  0  0  0  0  0  0  0  0  0  0  0
   -2.4219    0.3898   -1.9708 H   0  0  0  0  0  0  0  0  0  0  0  0
   -1.7388    1.2681   -3.7955 C   0  0  0  0  0  0  0  0  0  0  0  0
   -2.7118    1.6907   -4.0278 H   0  0  0  0  0  0  0  0  0  0  0  0
   -0.6656    1.4580   -4.6689 C   0  0  0  0  0  0  0  0  0  0  0  0
   -0.8017    2.0292   -5.5825 H   0  0  0  0  0  0  0  0  0  0  0  0
    0.5814    0.9080   -4.3639 C   0  0  0  0  0  0  0  0  0  0  0  0
    1.4173    1.0499   -5.0422 H   0  0  0  0  0  0  0  0  0  0  0  0
    0.7532    0.1758   -3.1844 C   0  0  0  0  0  0  0  0  0  0  0  0
    1.7300   -0.2443   -2.9645 H   0  0  0  0  0  0  0  0  0  0  0  0
   -1.1047    1.0435    0.5161 C   0  0  0  0  0  0  0  0  0  0  0  0
   -2.1763    1.5727    0.2393 O   0  0  0  0  0  0  0  0  0  0  0  0
   -0.2397    1.7201    1.3581 N   0  0  0  0  0  0  0  0  0  0  0  0
    0.6007    1.2355    1.6591 H   0  0  0  0  0  0  0  0  0  0  0  0
   -0.4679    3.0848    1.8178 C   0  0  0  0  0  0  0  0  0  0  0  0
   -1.3874    3.1411    2.4096 H   0  0  0  0  0  0  0  0  0  0  0  0
    0.3665    3.4173    2.4428 H   0  0  0  0  0  0  0  0  0  0  0  0
   -0.5543    3.7668    0.9653 H   0  0  0  0  0  0  0  0  0  0  0  0
  1  2  1  0  0  0  0
  2  3  1  0  0  0  0
  2  4  1  0  0  0  0
  2  5  1  0  0  0  0
  5  6  2  0  0  0  0
  5  7  1  0  0  0  0
  7  8  1  0  0  0  0
  7  9  1  0  0  0  0
  9 10  1  0  0  0  0
  9 11  1  0  0  0  0
  9 25  1  0  0  0  0
 11 12  1  0  0  0  0
 11 13  1  0  0  0  0
 11 14  1  0  0  0  0
 14 15  1  0  0  0  0
 14 23  2  0  0  0  0
 15 16  1  0  0  0  0
 15 17  2  0  0  0  0
 17 18  1  0  0  0  0
 17 19  1  0  0  0  0
 19 20  1  0  0  0  0
 19 21  2  0  0  0  0
 21 22  1  0  0  0  0
 21 23  1  0  0  0  0
 23 24  1  0  0  0  0
 25 26  2  0  0  0  0
 25 27  1  0  0  0  0
 27 28  1  0  0  0  0
 27 29  1  0  0  0  0
 29 30  1  0  0  0  0
 29 31  1  0  0  0  0
 29 32  1  0  0  0  0
M  END
$$$$

  -OEChem-04042216033D

 32 32  0     1  0  0  0  0  0999 V2000
   -3.4981   -4.0660    1.6175 H   0  0  0  0  0  0  0  0  0  0  0  0
   -3.6033   -3.1138    1.0898 C   0  0  0  0  0  0  0  0  0  0  0  0
   -4.2706   -2.4656    1.6630 H   0  0  0  0  0  0  0  0  0  0  0  0
   -4.0438   -3.3016    0.1074 H   0  0  0  0  0  0  0  0  0  0  0  0
   -2.2475   -2.4516    0.9313 C   0  0  0  0  0  0  0  0  0  0  0  0
   -1.2424   -3.0161    1.3351 O   0  0  0  0  0  0  0  0  0  0  0  0
   -2.1564   -1.2138    0.3281 N   0  0  0  0  0  0  0  0  0  0  0  0
   -3.0301   -0.7435    0.0986 H   0  0  0  0  0  0  0  0  0  0  0  0
   -0.9289   -0.4079    0.2370 C   0  0  1  0  0  0  0  0  0  0  0  0
   -0.2990   -0.7545    1.0624 H   0  0  0  0  0  0  0  0  0  0  0  0
   -0.1053   -0.7458   -1.0286 C   0  0  0  0  0  0  0  0  0  0  0  0
    0.9453   -0.5816   -0.7686 H   0  0  0  0  0  0  0  0  0  0  0  0
   -0.2147   -1.8163   -1.2321 H   0  0  0  0  0  0  0  0  0  0  0  0
   -0.3586    0.0033   -2.3272 C   0  0  0  0  0  0  0  0  0  0  0  0
   -1.4948    0.7904   -2.5867 C   0  0  0  0  0  0  0  0  0  0  0  0
   -2.3116    0.8538   -1.8796 H   0  0  0  0  0  0  0  0  0  0  0  0
   -1.6302    1.4835   -3.7941 C   0  0  0  0  0  0  0  0  0  0  0  0
   -2.5170    2.0844   -3.9734 H   0  0  0  0  0  0  0  0  0  0  0  0
   -0.6337    1.3979   -4.7682 C   0  0  0  0  0  0  0  0  0  0  0  0
   -0.7404    1.9359   -5.7056 H   0  0  0  0  0  0  0  0  0  0  0  0
    0.4966    0.6127   -4.5333 C   0  0  0  0  0  0  0  0  0  0  0  0
    1.2727    0.5383   -5.2893 H   0  0  0  0  0  0  0  0  0  0  0  0
    0.6295   -0.0761   -3.3230 C   0  0  0  0  0  0  0  0  0  0  0  0
    1.5177   -0.6782   -3.1566 H   0  0  0  0  0  0  0  0  0  0  0  0
   -1.1249    1.0868    0.5749 C   0  0  0  0  0  0  0  0  0  0  0  0
   -2.2136    1.6223    0.3956 O   0  0  0  0  0  0  0  0  0  0  0  0
   -0.2149    1.7287    1.3966 N   0  0  0  0  0  0  0  0  0  0  0  0
    0.6379    1.2308    1.6348 H   0  0  0  0  0  0  0  0  0  0  0  0
   -0.4255    3.0646    1.9420 C   0  0  0  0  0  0  0  0  0  0  0  0
   -1.2992    3.0756    2.6020 H   0  0  0  0  0  0  0  0  0  0  0  0
    0.4485    3.3789    2.5204 H   0  0  0  0  0  0  0  0  0  0  0  0
   -0.5831    3.7878    1.1349 H   0  0  0  0  0  0  0  0  0  0  0  0
  1  2  1  0  0  0  0
  2  3  1  0  0  0  0
  2  4  1  0  0  0  0
  2  5  1  0  0  0  0
  5  6  2  0  0  0  0
  5  7  1  0  0  0  0
  7  8  1  0  0  0  0
  7  9  1  0  0  0  0
  9 10  1  0  0  0  0
  9 11  1  0  0  0  0
  9 25  1  0  0  0  0
 11 12  1  0  0  0  0
 11 13  1  0  0  0  0
 11 14  1  0  0  0  0
 14 15  1  0  0  0  0
 14 23  2  0  0  0  0
 15 16  1  0  0  0  0
 15 17  2  0  0  0  0
 17 18  1  0  0  0  0
 17 19  1  0  0  0  0
 19 20  1  0  0  0  0
 19 21  2  0  0  0  0
 21 22  1  0  0  0  0
 21 23  1  0  0  0  0
 23 24  1  0  0  0  0
 25 26  2  0  0  0  0
 25 27  1  0  0  0  0
 27 28  1  0  0  0  0
 27 29  1  0  0  0  0
 29 30  1  0  0  0  0
 29 31  1  0  0  0  0
 29 32  1  0  0  0  0
M  END
$$$$

  -OEChem-04042216033D

 32 32  0     1  0  0  0  0  0999 V2000
   -3.4031   -4.1249    1.5448 H   0  0  0  0  0  0  0  0  0  0  0  0
   -3.5411   -3.1636    1.0419 C   0  0  0  0  0  0  0  0  0  0  0  0
   -4.2413   -2.5590    1.6236 H   0  0  0  0  0  0  0  0  0  0  0  0
   -3.9619   -3.3422    0.0494 H   0  0  0  0  0  0  0  0  0  0  0  0
   -2.2123   -2.4423    0.9175 C   0  0  0  0  0  0  0  0  0  0  0  0
   -1.1908   -2.9692    1.3310 O   0  0  0  0  0  0  0  0  0  0  0  0
   -2.1644   -1.1946    0.3305 N   0  0  0  0  0  0  0  0  0  0  0  0
   -3.0533   -0.7608    0.0873 H   0  0  0  0  0  0  0  0  0  0  0  0
   -0.9712   -0.3375    0.2597 C   0  0  1  0  0  0  0  0  0  0  0  0
   -0.3473   -0.6606    1.0996 H   0  0  0  0  0  0  0  0  0  0  0  0
   -0.1003   -0.6604   -0.9803 C   0  0  0  0  0  0  0  0  0  0  0  0
    0.9342   -0.4464   -0.6928 H   0  0  0  0  0  0  0  0  0  0  0  0
   -0.1594   -1.7403   -1.1537 H   0  0  0  0  0  0  0  0  0  0  0  0
   -0.3143    0.0311   -2.3201 C   0  0  0  0  0  0  0  0  0  0  0  0
   -1.2880    1.0077   -2.6019 C   0  0  0  0  0  0  0  0  0  0  0  0
   -2.0304    1.3085   -1.8784 H   0  0  0  0  0  0  0  0  0  0  0  0
   -1.3659    1.6049   -3.8649 C   0  0  0  0  0  0  0  0  0  0  0  0
   -2.1303    2.3509   -4.0614 H   0  0  0  0  0  0  0  0  0  0  0  0
   -0.4722    1.2399   -4.8729 C   0  0  0  0  0  0  0  0  0  0  0  0
   -0.5359    1.7034   -5.8530 H   0  0  0  0  0  0  0  0  0  0  0  0
    0.4992    0.2720   -4.6152 C   0  0  0  0  0  0  0  0  0  0  0  0
    1.1970   -0.0187   -5.3950 H   0  0  0  0  0  0  0  0  0  0  0  0
    0.5738   -0.3220   -3.3513 C   0  0  0  0  0  0  0  0  0  0  0  0
    1.3401   -1.0697   -3.1695 H   0  0  0  0  0  0  0  0  0  0  0  0
   -1.2344    1.1422    0.6130 C   0  0  0  0  0  0  0  0  0  0  0  0
   -2.3499    1.6240    0.4456 O   0  0  0  0  0  0  0  0  0  0  0  0
   -0.3610    1.8141    1.4504 N   0  0  0  0  0  0  0  0  0  0  0  0
    0.5128    1.3530    1.6869 H   0  0  0  0  0  0  0  0  0  0  0  0
   -0.6419    3.1245    2.0256 C   0  0  0  0  0  0  0  0  0  0  0  0
   -1.5133    3.0743    2.6869 H   0  0  0  0  0  0  0  0  0  0  0  0
    0.2157    3.4726    2.6093 H   0  0  0  0  0  0  0  0  0  0  0  0
   -0.8404    3.8557    1.2350 H   0  0  0  0  0  0  0  0  0  0  0  0
  1  2  1  0  0  0  0
  2  3  1  0  0  0  0
  2  4  1  0  0  0  0
  2  5  1  0  0  0  0
  5  6  2  0  0  0  0
  5  7  1  0  0  0  0
  7  8  1  0  0  0  0
  7  9  1  0  0  0  0
  9 10  1  0  0  0  0
  9 11  1  0  0  0  0
  9 25  1  0  0  0  0
 11 12  1  0  0  0  0
 11 13  1  0  0  0  0
 11 14  1  0  0  0  0
 14 15  1  0  0  0  0
 14 23  2  0  0  0  0
 15 16  1  0  0  0  0
 15 17  2  0  0  0  0
 17 18  1  0  0  0  0
 17 19  1  0  0  0  0
 19 20  1  0  0  0  0
 19 21  2  0  0  0  0
 21 22  1  0  0  0  0
 21 23  1  0  0  0  0
 23 24  1  0  0  0  0
 25 26  2  0  0  0  0
 25 27  1  0  0  0  0
 27 28  1  0  0  0  0
 27 29  1  0  0  0  0
 29 30  1  0  0  0  0
 29 31  1  0  0  0  0
 29 32  1  0  0  0  0
M  END
$$$$

  -OEChem-04042216033D

 32 32  0     1  0  0  0  0  0999 V2000
   -3.6881   -3.9470    1.5273 H   0  0  0  0  0  0  0  0  0  0  0  0
   -3.7474   -2.9880    1.0052 C   0  0  0  0  0  0  0  0  0  0  0  0
   -4.3983   -2.3182    1.5726 H   0  0  0  0  0  0  0  0  0  0  0  0
   -4.1787   -3.1514    0.0146 H   0  0  0  0  0  0  0  0  0  0  0  0
   -2.3648   -2.3777    0.8723 C   0  0  0  0  0  0  0  0  0  0  0  0
   -1.3840   -2.9987    1.2526 O   0  0  0  0  0  0  0  0  0  0  0  0
   -2.2223   -1.1208    0.3219 N   0  0  0  0  0  0  0  0  0  0  0  0
   -3.0751   -0.6089    0.1010 H   0  0  0  0  0  0  0  0  0  0  0  0
   -0.9648   -0.3601    0.2609 C   0  0  1  0  0  0  0  0  0  0  0  0
   -0.3499   -0.7558    1.0759 H   0  0  0  0  0  0  0  0  0  0  0  0
   -0.1558   -0.7125   -1.0149 C   0  0  0  0  0  0  0  0  0  0  0  0
    0.8994   -0.5967   -0.7482 H   0  0  0  0  0  0  0  0  0  0  0  0
   -0.3107   -1.7792   -1.2080 H   0  0  0  0  0  0  0  0  0  0  0  0
   -0.3221    0.0282   -2.3387 C   0  0  0  0  0  0  0  0  0  0  0  0
   -0.9626    1.2674   -2.5389 C   0  0  0  0  0  0  0  0  0  0  0  0
   -1.4332    1.8222   -1.7434 H   0  0  0  0  0  0  0  0  0  0  0  0
   -1.0281    1.8500   -3.8096 C   0  0  0  0  0  0  0  0  0  0  0  0
   -1.5305    2.8043   -3.9387 H   0  0  0  0  0  0  0  0  0  0  0  0
   -0.4530    1.2120   -4.9089 C   0  0  0  0  0  0  0  0  0  0  0  0
   -0.5060    1.6671   -5.8936 H   0  0  0  0  0  0  0  0  0  0  0  0
    0.1894   -0.0133   -4.7342 C   0  0  0  0  0  0  0  0  0  0  0  0
    0.6410   -0.5159   -5.5842 H   0  0  0  0  0  0  0  0  0  0  0  0
    0.2522   -0.5928   -3.4631 C   0  0  0  0  0  0  0  0  0  0  0  0
    0.7608   -1.5461   -3.3515 H   0  0  0  0  0  0  0  0  0  0  0  0
   -1.1332    1.1180    0.6656 C   0  0  0  0  0  0  0  0  0  0  0  0
   -2.2138    1.6759    0.5018 O   0  0  0  0  0  0  0  0  0  0  0  0
   -0.2178    1.7111    1.5170 N   0  0  0  0  0  0  0  0  0  0  0  0
    0.6199    1.1851    1.7485 H   0  0  0  0  0  0  0  0  0  0  0  0
   -0.4168    3.0211    2.1255 C   0  0  0  0  0  0  0  0  0  0  0  0
   -1.2943    3.0091    2.7805 H   0  0  0  0  0  0  0  0  0  0  0  0
    0.4573    3.2979    2.7225 H   0  0  0  0  0  0  0  0  0  0  0  0
   -0.5626    3.7841    1.3535 H   0  0  0  0  0  0  0  0  0  0  0  0
  1  2  1  0  0  0  0
  2  3  1  0  0  0  0
  2  4  1  0  0  0  0
  2  5  1  0  0  0  0
  5  6  2  0  0  0  0
  5  7  1  0  0  0  0
  7  8  1  0  0  0  0
  7  9  1  0  0  0  0
  9 10  1  0  0  0  0
  9 11  1  0  0  0  0
  9 25  1  0  0  0  0
 11 12  1  0  0  0  0
 11 13  1  0  0  0  0
 11 14  1  0  0  0  0
 14 15  1  0  0  0  0
 14 23  2  0  0  0  0
 15 16  1  0  0  0  0
 15 17  2  0  0  0  0
 17 18  1  0  0  0  0
 17 19  1  0  0  0  0
 19 20  1  0  0  0  0
 19 21  2  0  0  0  0
 21 22  1  0  0  0  0
 21 23  1  0  0  0  0
 23 24  1  0  0  0  0
 25 26  2  0  0  0  0
 25 27  1  0  0  0  0
 27 28  1  0  0  0  0
 27 29  1  0  0  0  0
 29 30  1  0  0  0  0
 29 31  1  0  0  0  0
 29 32  1  0  0  0  0
M  END
$$$$

  -OEChem-04042216033D

 32 32  0     1  0  0  0  0  0999 V2000
   -3.5896   -4.0192    1.4360 H   0  0  0  0  0  0  0  0  0  0  0  0
   -3.6479   -3.0472    0.9382 C   0  0  0  0  0  0  0  0  0  0  0  0
   -4.3255   -2.4023    1.5029 H   0  0  0  0  0  0  0  0  0  0  0  0
   -4.0466   -3.1897   -0.0691 H   0  0  0  0  0  0  0  0  0  0  0  0
   -2.2716   -2.4136    0.8642 C   0  0  0  0  0  0  0  0  0  0  0  0
   -1.2975   -3.0149    1.2904 O   0  0  0  0  0  0  0  0  0  0  0  0
   -2.1263   -1.1591    0.3102 N   0  0  0  0  0  0  0  0  0  0  0  0
   -2.9747   -0.6646    0.0379 H   0  0  0  0  0  0  0  0  0  0  0  0
   -0.8742   -0.3891    0.2712 C   0  0  1  0  0  0  0  0  0  0  0  0
   -0.2482   -0.7777    1.0811 H   0  0  0  0  0  0  0  0  0  0  0  0
   -0.0901   -0.7234   -1.0265 C   0  0  0  0  0  0  0  0  0  0  0  0
    0.9706   -0.6114   -0.7814 H   0  0  0  0  0  0  0  0  0  0  0  0
   -0.2465   -1.7881   -1.2304 H   0  0  0  0  0  0  0  0  0  0  0  0
   -0.2862    0.0523   -2.3279 C   0  0  0  0  0  0  0  0  0  0  0  0
   -0.6506    1.4095   -2.4448 C   0  0  0  0  0  0  0  0  0  0  0  0
   -0.7869    2.0570   -1.5915 H   0  0  0  0  0  0  0  0  0  0  0  0
   -0.8238    2.0064   -3.6986 C   0  0  0  0  0  0  0  0  0  0  0  0
   -1.1046    3.0538   -3.7617 H   0  0  0  0  0  0  0  0  0  0  0  0
   -0.6348    1.2648   -4.8650 C   0  0  0  0  0  0  0  0  0  0  0  0
   -0.7713    1.7307   -5.8364 H   0  0  0  0  0  0  0  0  0  0  0  0
   -0.2667   -0.0771   -4.7745 C   0  0  0  0  0  0  0  0  0  0  0  0
   -0.1160   -0.6612   -5.6776 H   0  0  0  0  0  0  0  0  0  0  0  0
   -0.0950   -0.6711   -3.5204 C   0  0  0  0  0  0  0  0  0  0  0  0
    0.1891   -1.7186   -3.4802 H   0  0  0  0  0  0  0  0  0  0  0  0
   -1.0957    1.0822    0.6679 C   0  0  0  0  0  0  0  0  0  0  0  0
   -2.1615    1.6335    0.4120 O   0  0  0  0  0  0  0  0  0  0  0  0
   -0.2233    1.7051    1.5423 N   0  0  0  0  0  0  0  0  0  0  0  0
    0.5965    1.1840    1.8404 H   0  0  0  0  0  0  0  0  0  0  0  0
   -0.4711    3.0195    2.1228 C   0  0  0  0  0  0  0  0  0  0  0  0
   -1.3759    3.0019    2.7396 H   0  0  0  0  0  0  0  0  0  0  0  0
    0.3715    3.3198    2.7530 H   0  0  0  0  0  0  0  0  0  0  0  0
   -0.5964    3.7690    1.3345 H   0  0  0  0  0  0  0  0  0  0  0  0
  1  2  1  0  0  0  0
  2  3  1  0  0  0  0
  2  4  1  0  0  0  0
  2  5  1  0  0  0  0
  5  6  2  0  0  0  0
  5  7  1  0  0  0  0
  7  8  1  0  0  0  0
  7  9  1  0  0  0  0
  9 10  1  0  0  0  0
  9 11  1  0  0  0  0
  9 25  1  0  0  0  0
 11 12  1  0  0  0  0
 11 13  1  0  0  0  0
 11 14  1  0  0  0  0
 14 15  1  0  0  0  0
 14 23  2  0  0  0  0
 15 16  1  0  0  0  0
 15 17  2  0  0  0  0
 17 18  1  0  0  0  0
 17 19  1  0  0  0  0
 19 20  1  0  0  0  0
 19 21  2  0  0  0  0
 21 22  1  0  0  0  0
 21 23  1  0  0  0  0
 23 24  1  0  0  0  0
 25 26  2  0  0  0  0
 25 27  1  0  0  0  0
 27 28  1  0  0  0  0
 27 29  1  0  0  0  0
 29 30  1  0  0  0  0
 29 31  1  0  0  0  0
 29 32  1  0  0  0  0
M  END
$$$$

  -OEChem-04042216033D

 32 32  0     1  0  0  0  0  0999 V2000
   -3.6319   -3.9863    1.4553 H   0  0  0  0  0  0  0  0  0  0  0  0
   -3.6597   -3.0306    0.9247 C   0  0  0  0  0  0  0  0  0  0  0  0
   -4.3525   -2.3611    1.4405 H   0  0  0  0  0  0  0  0  0  0  0  0
   -4.0194   -3.2023   -0.0926 H   0  0  0  0  0  0  0  0  0  0  0  0
   -2.2748   -2.4126    0.8862 C   0  0  0  0  0  0  0  0  0  0  0  0
   -1.3273   -3.0021    1.3829 O   0  0  0  0  0  0  0  0  0  0  0  0
   -2.0911   -1.1841    0.2874 N   0  0  0  0  0  0  0  0  0  0  0  0
   -2.9190   -0.6980   -0.0549 H   0  0  0  0  0  0  0  0  0  0  0  0
   -0.8304   -0.4278    0.2721 C   0  0  1  0  0  0  0  0  0  0  0  0
   -0.2254   -0.7940    1.1077 H   0  0  0  0  0  0  0  0  0  0  0  0
   -0.0331   -0.7939   -1.0081 C   0  0  0  0  0  0  0  0  0  0  0  0
    1.0269   -0.6866   -0.7580 H   0  0  0  0  0  0  0  0  0  0  0  0
   -0.1921   -1.8587   -1.2082 H   0  0  0  0  0  0  0  0  0  0  0  0
   -0.2326   -0.0034   -2.2966 C   0  0  0  0  0  0  0  0  0  0  0  0
   -0.2879    1.4020   -2.3770 C   0  0  0  0  0  0  0  0  0  0  0  0
   -0.1295    2.0324   -1.5113 H   0  0  0  0  0  0  0  0  0  0  0  0
   -0.5152    2.0463   -3.5977 C   0  0  0  0  0  0  0  0  0  0  0  0
   -0.5536    3.1308   -3.6357 H   0  0  0  0  0  0  0  0  0  0  0  0
   -0.6913    1.3007   -4.7643 C   0  0  0  0  0  0  0  0  0  0  0  0
   -0.8693    1.8026   -5.7108 H   0  0  0  0  0  0  0  0  0  0  0  0
   -0.6364   -0.0925   -4.7077 C   0  0  0  0  0  0  0  0  0  0  0  0
   -0.7732   -0.6788   -5.6114 H   0  0  0  0  0  0  0  0  0  0  0  0
   -0.4101   -0.7339   -3.4858 C   0  0  0  0  0  0  0  0  0  0  0  0
   -0.3800   -1.8192   -3.4684 H   0  0  0  0  0  0  0  0  0  0  0  0
   -1.0700    1.0584    0.5985 C   0  0  0  0  0  0  0  0  0  0  0  0
   -2.0968    1.6163    0.2267 O   0  0  0  0  0  0  0  0  0  0  0  0
   -0.2395    1.7174    1.4874 N   0  0  0  0  0  0  0  0  0  0  0  0
    0.5419    1.1968    1.8754 H   0  0  0  0  0  0  0  0  0  0  0  0
   -0.5027    3.0632    1.9826 C   0  0  0  0  0  0  0  0  0  0  0  0
   -1.4380    3.0856    2.5518 H   0  0  0  0  0  0  0  0  0  0  0  0
    0.3100    3.3905    2.6382 H   0  0  0  0  0  0  0  0  0  0  0  0
   -0.5793    3.7700    1.1496 H   0  0  0  0  0  0  0  0  0  0  0  0
  1  2  1  0  0  0  0
  2  3  1  0  0  0  0
  2  4  1  0  0  0  0
  2  5  1  0  0  0  0
  5  6  2  0  0  0  0
  5  7  1  0  0  0  0
  7  8  1  0  0  0  0
  7  9  1  0  0  0  0
  9 10  1  0  0  0  0
  9 11  1  0  0  0  0
  9 25  1  0  0  0  0
 11 12  1  0  0  0  0
 11 13  1  0  0  0  0
 11 14  1  0  0  0  0
 14 15  1  0  0  0  0
 14 23  2  0  0  0  0
 15 16  1  0  0  0  0
 15 17  2  0  0  0  0
 17 18  1  0  0  0  0
 17 19  1  0  0  0  0
 19 20  1  0  0  0  0
 19 21  2  0  0  0  0
 21 22  1  0  0  0  0
 21 23  1  0  0  0  0
 23 24  1  0  0  0  0
 25 26  2  0  0  0  0
 25 27  1  0  0  0  0
 27 28  1  0  0  0  0
 27 29  1  0  0  0  0
 29 30  1  0  0  0  0
 29 31  1  0  0  0  0
 29 32  1  0  0  0  0
M  END
$$$$

  -OEChem-04042216033D

 32 32  0     1  0  0  0  0  0999 V2000
   -3.6685   -3.9546    1.5240 H   0  0  0  0  0  0  0  0  0  0  0  0
   -3.6749   -3.0253    0.9475 C   0  0  0  0  0  0  0  0  0  0  0  0
   -4.3785   -2.3288    1.4100 H   0  0  0  0  0  0  0  0  0  0  0  0
   -4.0055   -3.2443   -0.0707 H   0  0  0  0  0  0  0  0  0  0  0  0
   -2.2854   -2.4167    0.9199 C   0  0  0  0  0  0  0  0  0  0  0  0
   -1.3559   -2.9896    1.4673 O   0  0  0  0  0  0  0  0  0  0  0  0
   -2.0757   -1.2189    0.2698 N   0  0  0  0  0  0  0  0  0  0  0  0
   -2.8912   -0.7384   -0.1084 H   0  0  0  0  0  0  0  0  0  0  0  0
   -0.8099   -0.4716    0.2604 C   0  0  1  0  0  0  0  0  0  0  0  0
   -0.2205   -0.8083    1.1194 H   0  0  0  0  0  0  0  0  0  0  0  0
    0.0029   -0.8649   -0.9988 C   0  0  0  0  0  0  0  0  0  0  0  0
    1.0626   -0.7627   -0.7450 H   0  0  0  0  0  0  0  0  0  0  0  0
   -0.1608   -1.9283   -1.2024 H   0  0  0  0  0  0  0  0  0  0  0  0
   -0.2145   -0.0599   -2.2688 C   0  0  0  0  0  0  0  0  0  0  0  0
    0.0298    1.3232   -2.3483 C   0  0  0  0  0  0  0  0  0  0  0  0
    0.4255    1.8682   -1.4981 H   0  0  0  0  0  0  0  0  0  0  0  0
   -0.2144    2.0276   -3.5322 C   0  0  0  0  0  0  0  0  0  0  0  0
   -0.0225    3.0954   -3.5767 H   0  0  0  0  0  0  0  0  0  0  0  0
   -0.7072    1.3605   -4.6559 C   0  0  0  0  0  0  0  0  0  0  0  0
   -0.8994    1.9082   -5.5737 H   0  0  0  0  0  0  0  0  0  0  0  0
   -0.9553   -0.0123   -4.5935 C   0  0  0  0  0  0  0  0  0  0  0  0
   -1.3414   -0.5336   -5.4643 H   0  0  0  0  0  0  0  0  0  0  0  0
   -0.7127   -0.7141   -3.4081 C   0  0  0  0  0  0  0  0  0  0  0  0
   -0.9209   -1.7793   -3.3780 H   0  0  0  0  0  0  0  0  0  0  0  0
   -1.0539    1.0303    0.5092 C   0  0  0  0  0  0  0  0  0  0  0  0
   -2.0641    1.5746    0.0772 O   0  0  0  0  0  0  0  0  0  0  0  0
   -0.2489    1.7256    1.3943 N   0  0  0  0  0  0  0  0  0  0  0  0
    0.5108    1.2171    1.8377 H   0  0  0  0  0  0  0  0  0  0  0  0
   -0.5189    3.0951    1.8154 C   0  0  0  0  0  0  0  0  0  0  0  0
   -1.4793    3.1530    2.3385 H   0  0  0  0  0  0  0  0  0  0  0  0
    0.2662    3.4444    2.4930 H   0  0  0  0  0  0  0  0  0  0  0  0
   -0.5485    3.7635    0.9484 H   0  0  0  0  0  0  0  0  0  0  0  0
  1  2  1  0  0  0  0
  2  3  1  0  0  0  0
  2  4  1  0  0  0  0
  2  5  1  0  0  0  0
  5  6  2  0  0  0  0
  5  7  1  0  0  0  0
  7  8  1  0  0  0  0
  7  9  1  0  0  0  0
  9 10  1  0  0  0  0
  9 11  1  0  0  0  0
  9 25  1  0  0  0  0
 11 12  1  0  0  0  0
 11 13  1  0  0  0  0
 11 14  1  0  0  0  0
 14 15  1  0  0  0  0
 14 23  2  0  0  0  0
 15 16  1  0  0  0  0
 15 17  2  0  0  0  0
 17 18  1  0  0  0  0
 17 19  1  0  0  0  0
 19 20  1  0  0  0  0
 19 21  2  0  0  0  0
 21 22  1  0  0  0  0
 21 23  1  0  0  0  0
 23 24  1  0  0  0  0
 25 26  2  0  0  0  0
 25 27  1  0  0  0  0
 27 28  1  0  0  0  0
 27 29  1  0  0  0  0
 29 30  1  0  0  0  0
 29 31  1  0  0  0  0
 29 32  1  0  0  0  0
M  END
$$$$

  -OEChem-04042216033D

 32 32  0     1  0  0  0  0  0999 V2000
   -3.6907   -3.9388    1.5900 H   0  0  0  0  0  0  0  0  0  0  0  0
   -3.6854   -3.0298    0.9820 C   0  0  0  0  0  0  0  0  0  0  0  0
   -4.3896   -2.3136    1.4125 H   0  0  0  0  0  0  0  0  0  0  0  0
   -4.0065   -3.2818   -0.0315 H   0  0  0  0  0  0  0  0  0  0  0  0
   -2.2924   -2.4302    0.9488 C   0  0  0  0  0  0  0  0  0  0  0  0
   -1.3727   -2.9885    1.5267 O   0  0  0  0  0  0  0  0  0  0  0  0
   -2.0687   -1.2585    0.2574 N   0  0  0  0  0  0  0  0  0  0  0  0
   -2.8790   -0.7816   -0.1363 H   0  0  0  0  0  0  0  0  0  0  0  0
   -0.8011   -0.5144    0.2458 C   0  0  1  0  0  0  0  0  0  0  0  0
   -0.2221   -0.8264    1.1209 H   0  0  0  0  0  0  0  0  0  0  0  0
    0.0269   -0.9181   -0.9956 C   0  0  0  0  0  0  0  0  0  0  0  0
    1.0865   -0.8167   -0.7407 H   0  0  0  0  0  0  0  0  0  0  0  0
   -0.1390   -1.9789   -1.2117 H   0  0  0  0  0  0  0  0  0  0  0  0
   -0.2171   -0.0939   -2.2415 C   0  0  0  0  0  0  0  0  0  0  0  0
    0.2964    1.2073   -2.3723 C   0  0  0  0  0  0  0  0  0  0  0  0
    0.8919    1.6445   -1.5774 H   0  0  0  0  0  0  0  0  0  0  0  0
    0.0493    1.9581   -3.5262 C   0  0  0  0  0  0  0  0  0  0  0  0
    0.4500    2.9634   -3.6150 H   0  0  0  0  0  0  0  0  0  0  0  0
   -0.7181    1.4177   -4.5617 C   0  0  0  0  0  0  0  0  0  0  0  0
   -0.9129    2.0022   -5.4560 H   0  0  0  0  0  0  0  0  0  0  0  0
   -1.2397    0.1268   -4.4403 C   0  0  0  0  0  0  0  0  0  0  0  0
   -1.8414   -0.2925   -5.2410 H   0  0  0  0  0  0  0  0  0  0  0  0
   -0.9913   -0.6229   -3.2854 C   0  0  0  0  0  0  0  0  0  0  0  0
   -1.4080   -1.6219   -3.2002 H   0  0  0  0  0  0  0  0  0  0  0  0
   -1.0430    0.9979    0.4322 C   0  0  0  0  0  0  0  0  0  0  0  0
   -2.0483    1.5251   -0.0317 O   0  0  0  0  0  0  0  0  0  0  0  0
   -0.2533    1.7241    1.3058 N   0  0  0  0  0  0  0  0  0  0  0  0
    0.5048    1.2355    1.7733 H   0  0  0  0  0  0  0  0  0  0  0  0
   -0.5227    3.1123    1.6605 C   0  0  0  0  0  0  0  0  0  0  0  0
   -1.4938    3.1990    2.1590 H   0  0  0  0  0  0  0  0  0  0  0  0
    0.2494    3.4863    2.3396 H   0  0  0  0  0  0  0  0  0  0  0  0
   -0.5287    3.7418    0.7645 H   0  0  0  0  0  0  0  0  0  0  0  0
  1  2  1  0  0  0  0
  2  3  1  0  0  0  0
  2  4  1  0  0  0  0
  2  5  1  0  0  0  0
  5  6  2  0  0  0  0
  5  7  1  0  0  0  0
  7  8  1  0  0  0  0
  7  9  1  0  0  0  0
  9 10  1  0  0  0  0
  9 11  1  0  0  0  0
  9 25  1  0  0  0  0
 11 12  1  0  0  0  0
 11 13  1  0  0  0  0
 11 14  1  0  0  0  0
 14 15  1  0  0  0  0
 14 23  2  0  0  0  0
 15 16  1  0  0  0  0
 15 17  2  0  0  0  0
 17 18  1  0  0  0  0
 17 19  1  0  0  0  0
 19 20  1  0  0  0  0
 19 21  2  0  0  0  0
 21 22  1  0  0  0  0
 21 23  1  0  0  0  0
 23 24  1  0  0  0  0
 25 26  2  0  0  0  0
 25 27  1  0  0  0  0
 27 28  1  0  0  0  0
 27 29  1  0  0  0  0
 29 30  1  0  0  0  0
 29 31  1  0  0  0  0
 29 32  1  0  0  0  0
M  END
$$$$

  -OEChem-04042216033D

 32 32  0     1  0  0  0  0  0999 V2000
   -3.7013   -3.9254    1.6416 H   0  0  0  0  0  0  0  0  0  0  0  0
   -3.6938   -3.0276    1.0172 C   0  0  0  0  0  0  0  0  0  0  0  0
   -4.3869   -2.2977    1.4427 H   0  0  0  0  0  0  0  0  0  0  0  0
   -4.0278   -3.2942    0.0115 H   0  0  0  0  0  0  0  0  0  0  0  0
   -2.2952   -2.4425    0.9592 C   0  0  0  0  0  0  0  0  0  0  0  0
   -1.3761   -2.9971    1.5418 O   0  0  0  0  0  0  0  0  0  0  0  0
   -2.0673   -1.2845    0.2462 N   0  0  0  0  0  0  0  0  0  0  0  0
   -2.8785   -0.8034   -0.1405 H   0  0  0  0  0  0  0  0  0  0  0  0
   -0.7998   -0.5398    0.2318 C   0  0  1  0  0  0  0  0  0  0  0  0
   -0.2252   -0.8393    1.1141 H   0  0  0  0  0  0  0  0  0  0  0  0
    0.0399   -0.9420   -0.9989 C   0  0  0  0  0  0  0  0  0  0  0  0
    1.0983   -0.8434   -0.7386 H   0  0  0  0  0  0  0  0  0  0  0  0
   -0.1274   -1.9998   -1.2278 H   0  0  0  0  0  0  0  0  0  0  0  0
   -0.2217   -0.1043   -2.2289 C   0  0  0  0  0  0  0  0  0  0  0  0
    0.5186    1.0625   -2.4773 C   0  0  0  0  0  0  0  0  0  0  0  0
    1.2922    1.3773   -1.7841 H   0  0  0  0  0  0  0  0  0  0  0  0
    0.2661    1.8340   -3.6166 C   0  0  0  0  0  0  0  0  0  0  0  0
    0.8414    2.7366   -3.7997 H   0  0  0  0  0  0  0  0  0  0  0  0
   -0.7304    1.4463   -4.5172 C   0  0  0  0  0  0  0  0  0  0  0  0
   -0.9283    2.0460   -5.4005 H   0  0  0  0  0  0  0  0  0  0  0  0
   -1.4759    0.2886   -4.2757 C   0  0  0  0  0  0  0  0  0  0  0  0
   -2.2548   -0.0103   -4.9706 H   0  0  0  0  0  0  0  0  0  0  0  0
   -1.2221   -0.4819   -3.1359 C   0  0  0  0  0  0  0  0  0  0  0  0
   -1.8090   -1.3767   -2.9531 H   0  0  0  0  0  0  0  0  0  0  0  0
   -1.0396    0.9774    0.3860 C   0  0  0  0  0  0  0  0  0  0  0  0
   -2.0485    1.4930   -0.0836 O   0  0  0  0  0  0  0  0  0  0  0  0
   -0.2553    1.7181    1.2524 N   0  0  0  0  0  0  0  0  0  0  0  0
    0.5087    1.2407    1.7215 H   0  0  0  0  0  0  0  0  0  0  0  0
   -0.5272    3.1111    1.5845 C   0  0  0  0  0  0  0  0  0  0  0  0
   -1.5003    3.2036    2.0778 H   0  0  0  0  0  0  0  0  0  0  0  0
    0.2421    3.4963    2.2605 H   0  0  0  0  0  0  0  0  0  0  0  0
   -0.5310    3.7270    0.6791 H   0  0  0  0  0  0  0  0  0  0  0  0
  1  2  1  0  0  0  0
  2  3  1  0  0  0  0
  2  4  1  0  0  0  0
  2  5  1  0  0  0  0
  5  6  2  0  0  0  0
  5  7  1  0  0  0  0
  7  8  1  0  0  0  0
  7  9  1  0  0  0  0
  9 10  1  0  0  0  0
  9 11  1  0  0  0  0
  9 25  1  0  0  0  0
 11 12  1  0  0  0  0
 11 13  1  0  0  0  0
 11 14  1  0  0  0  0
 14 15  1  0  0  0  0
 14 23  2  0  0  0  0
 15 16  1  0  0  0  0
 15 17  2  0  0  0  0
 17 18  1  0  0  0  0
 17 19  1  0  0  0  0
 19 20  1  0  0  0  0
 19 21  2  0  0  0  0
 21 22  1  0  0  0  0
 21 23  1  0  0  0  0
 23 24  1  0  0  0  0
 25 26  2  0  0  0  0
 25 27  1  0  0  0  0
 27 28  1  0  0  0  0
 27 29  1  0  0  0  0
 29 30  1  0  0  0  0
 29 31  1  0  0  0  0
 29 32  1  0  0  0  0
M  END
$$$$

  -OEChem-04042216033D

 32 32  0     1  0  0  0  0  0999 V2000
   -3.7008   -3.9190    1.6835 H   0  0  0  0  0  0  0  0  0  0  0  0
   -3.6974   -3.0256    1.0528 C   0  0  0  0  0  0  0  0  0  0  0  0
   -4.3744   -2.2857    1.4869 H   0  0  0  0  0  0  0  0  0  0  0  0
   -4.0545   -3.2962    0.0561 H   0  0  0  0  0  0  0  0  0  0  0  0
   -2.2950   -2.4539    0.9626 C   0  0  0  0  0  0  0  0  0  0  0  0
   -1.3683   -3.0158    1.5255 O   0  0  0  0  0  0  0  0  0  0  0  0
   -2.0731   -1.2976    0.2451 N   0  0  0  0  0  0  0  0  0  0  0  0
   -2.8913   -0.8045   -0.1104 H   0  0  0  0  0  0  0  0  0  0  0  0
   -0.8058   -0.5521    0.2243 C   0  0  1  0  0  0  0  0  0  0  0  0
   -0.2300   -0.8488    1.1068 H   0  0  0  0  0  0  0  0  0  0  0  0
    0.0387   -0.9455   -1.0058 C   0  0  0  0  0  0  0  0  0  0  0  0
    1.0960   -0.8503   -0.7403 H   0  0  0  0  0  0  0  0  0  0  0  0
   -0.1309   -2.0004   -1.2450 H   0  0  0  0  0  0  0  0  0  0  0  0
   -0.2303   -0.1008   -2.2298 C   0  0  0  0  0  0  0  0  0  0  0  0
    0.6847    0.8823   -2.6389 C   0  0  0  0  0  0  0  0  0  0  0  0
    1.5957    1.0521   -2.0737 H   0  0  0  0  0  0  0  0  0  0  0  0
    0.4310    1.6591   -3.7747 C   0  0  0  0  0  0  0  0  0  0  0  0
    1.1412    2.4214   -4.0810 H   0  0  0  0  0  0  0  0  0  0  0  0
   -0.7385    1.4577   -4.5136 C   0  0  0  0  0  0  0  0  0  0  0  0
   -0.9381    2.0634   -5.3924 H   0  0  0  0  0  0  0  0  0  0  0  0
   -1.6528    0.4774   -4.1170 C   0  0  0  0  0  0  0  0  0  0  0  0
   -2.5634    0.3215   -4.6873 H   0  0  0  0  0  0  0  0  0  0  0  0
   -1.3974   -0.2991   -2.9817 C   0  0  0  0  0  0  0  0  0  0  0  0
   -2.1141   -1.0562   -2.6793 H   0  0  0  0  0  0  0  0  0  0  0  0
   -1.0459    0.9656    0.3758 C   0  0  0  0  0  0  0  0  0  0  0  0
   -2.0649    1.4749   -0.0793 O   0  0  0  0  0  0  0  0  0  0  0  0
   -0.2592    1.7095    1.2371 N   0  0  0  0  0  0  0  0  0  0  0  0
    0.5210    1.2408    1.6878 H   0  0  0  0  0  0  0  0  0  0  0  0
   -0.5292    3.1044    1.5629 C   0  0  0  0  0  0  0  0  0  0  0  0
   -1.5048    3.2014    2.0507 H   0  0  0  0  0  0  0  0  0  0  0  0
    0.2372    3.4899    2.2420 H   0  0  0  0  0  0  0  0  0  0  0  0
   -0.5263    3.7168    0.6550 H   0  0  0  0  0  0  0  0  0  0  0  0
  1  2  1  0  0  0  0
  2  3  1  0  0  0  0
  2  4  1  0  0  0  0
  2  5  1  0  0  0  0
  5  6  2  0  0  0  0
  5  7  1  0  0  0  0
  7  8  1  0  0  0  0
  7  9  1  0  0  0  0
  9 10  1  0  0  0  0
  9 11  1  0  0  0  0
  9 25  1  0  0  0  0
 11 12  1  0  0  0  0
 11 13  1  0  0  0  0
 11 14  1  0  0  0  0
 14 15  1  0  0  0  0
 14 23  2  0  0  0  0
 15 16  1  0  0  0  0
 15 17  2  0  0  0  0
 17 18  1  0  0  0  0
 17 19  1  0  0  0  0
 19 20  1  0  0  0  0
 19 21  2  0  0  0  0
 21 22  1  0  0  0  0
 21 23  1  0  0  0  0
 23 24  1  0  0  0  0
 25 26  2  0  0  0  0
 25 27  1  0  0  0  0
 27 28  1  0  0  0  0
 27 29  1  0  0  0  0
 29 30  1  0  0  0  0
 29 31  1  0  0  0  0
 29 32  1  0  0  0  0
M  END
$$$$

  -OEChem-04042216033D

 32 32  0     1  0  0  0  0  0999 V2000
   -3.6806   -3.9275    1.7216 H   0  0  0  0  0  0  0  0  0  0  0  0
   -3.6902   -3.0329    1.0930 C   0  0  0  0  0  0  0  0  0  0  0  0
   -4.3566   -2.2931    1.5431 H   0  0  0  0  0  0  0  0  0  0  0  0
   -4.0692   -3.3002    0.1037 H   0  0  0  0  0  0  0  0  0  0  0  0
   -2.2894   -2.4634    0.9730 C   0  0  0  0  0  0  0  0  0  0  0  0
   -1.3495   -3.0322    1.5063 O   0  0  0  0  0  0  0  0  0  0  0  0
   -2.0862   -1.2990    0.2630 N   0  0  0  0  0  0  0  0  0  0  0  0
   -2.9150   -0.7963   -0.0515 H   0  0  0  0  0  0  0  0  0  0  0  0
   -0.8209   -0.5505    0.2263 C   0  0  1  0  0  0  0  0  0  0  0  0
   -0.2322   -0.8544    1.0979 H   0  0  0  0  0  0  0  0  0  0  0  0
    0.0136   -0.9240   -1.0178 C   0  0  0  0  0  0  0  0  0  0  0  0
    1.0711   -0.8290   -0.7530 H   0  0  0  0  0  0  0  0  0  0  0  0
   -0.1557   -1.9771   -1.2651 H   0  0  0  0  0  0  0  0  0  0  0  0
   -0.2569   -0.0784   -2.2438 C   0  0  0  0  0  0  0  0  0  0  0  0
    0.7750    0.6732   -2.8282 C   0  0  0  0  0  0  0  0  0  0  0  0
    1.7688    0.6726   -2.3915 H   0  0  0  0  0  0  0  0  0  0  0  0
    0.5380    1.4378   -3.9758 C   0  0  0  0  0  0  0  0  0  0  0  0
    1.3411    2.0228   -4.4139 H   0  0  0  0  0  0  0  0  0  0  0  0
   -0.7325    1.4498   -4.5584 C   0  0  0  0  0  0  0  0  0  0  0  0
   -0.9192    2.0459   -5.4468 H   0  0  0  0  0  0  0  0  0  0  0  0
   -1.7627    0.6919   -3.9952 C   0  0  0  0  0  0  0  0  0  0  0  0
   -2.7504    0.6977   -4.4458 H   0  0  0  0  0  0  0  0  0  0  0  0
   -1.5234   -0.0718   -2.8481 C   0  0  0  0  0  0  0  0  0  0  0  0
   -2.3318   -0.6566   -2.4227 H   0  0  0  0  0  0  0  0  0  0  0  0
   -1.0609    0.9648    0.3987 C   0  0  0  0  0  0  0  0  0  0  0  0
   -2.0962    1.4722   -0.0208 O   0  0  0  0  0  0  0  0  0  0  0  0
   -0.2598    1.7016    1.2527 N   0  0  0  0  0  0  0  0  0  0  0  0
    0.5422    1.2363    1.6672 H   0  0  0  0  0  0  0  0  0  0  0  0
   -0.5218    3.0945    1.5933 C   0  0  0  0  0  0  0  0  0  0  0  0
   -1.4958    3.1926    2.0843 H   0  0  0  0  0  0  0  0  0  0  0  0
    0.2480    3.4684    2.2751 H   0  0  0  0  0  0  0  0  0  0  0  0
   -0.5172    3.7161    0.6916 H   0  0  0  0  0  0  0  0  0  0  0  0
  1  2  1  0  0  0  0
  2  3  1  0  0  0  0
  2  4  1  0  0  0  0
  2  5  1  0  0  0  0
  5  6  2  0  0  0  0
  5  7  1  0  0  0  0
  7  8  1  0  0  0  0
  7  9  1  0  0  0  0
  9 10  1  0  0  0  0
  9 11  1  0  0  0  0
  9 25  1  0  0  0  0
 11 12  1  0  0  0  0
 11 13  1  0  0  0  0
 11 14  1  0  0  0  0
 14 15  1  0  0  0  0
 14 23  2  0  0  0  0
 15 16  1  0  0  0  0
 15 17  2  0  0  0  0
 17 18  1  0  0  0  0
 17 19  1  0  0  0  0
 19 20  1  0  0  0  0
 19 21  2  0  0  0  0
 21 22  1  0  0  0  0
 21 23  1  0  0  0  0
 23 24  1  0  0  0  0
 25 26  2  0  0  0  0
 25 27  1  0  0  0  0
 27 28  1  0  0  0  0
 27 29  1  0  0  0  0
 29 30  1  0  0  0  0
 29 31  1  0  0  0  0
 29 32  1  0  0  0  0
M  END
$$$$

  -OEChem-04042216033D

 32 32  0     1  0  0  0  0  0999 V2000
   -3.6418   -3.9566    1.7242 H   0  0  0  0  0  0  0  0  0  0  0  0
   -3.6727   -3.0483    1.1159 C   0  0  0  0  0  0  0  0  0  0  0  0
   -4.3347   -2.3244    1.5974 H   0  0  0  0  0  0  0  0  0  0  0  0
   -4.0719   -3.2981    0.1299 H   0  0  0  0  0  0  0  0  0  0  0  0
   -2.2797   -2.4636    0.9764 C   0  0  0  0  0  0  0  0  0  0  0  0
   -1.3234   -3.0366    1.4751 O   0  0  0  0  0  0  0  0  0  0  0  0
   -2.1014   -1.2835    0.2850 N   0  0  0  0  0  0  0  0  0  0  0  0
   -2.9419   -0.7806    0.0041 H   0  0  0  0  0  0  0  0  0  0  0  0
   -0.8407   -0.5267    0.2313 C   0  0  1  0  0  0  0  0  0  0  0  0
   -0.2362   -0.8419    1.0880 H   0  0  0  0  0  0  0  0  0  0  0  0
   -0.0196   -0.8859   -1.0277 C   0  0  0  0  0  0  0  0  0  0  0  0
    1.0384   -0.7837   -0.7675 H   0  0  0  0  0  0  0  0  0  0  0  0
   -0.1828   -1.9406   -1.2723 H   0  0  0  0  0  0  0  0  0  0  0  0
   -0.2872   -0.0536   -2.2667 C   0  0  0  0  0  0  0  0  0  0  0  0
    0.7922    0.4269   -3.0267 C   0  0  0  0  0  0  0  0  0  0  0  0
    1.8127    0.2315   -2.7120 H   0  0  0  0  0  0  0  0  0  0  0  0
    0.5744    1.1636   -4.1960 C   0  0  0  0  0  0  0  0  0  0  0  0
    1.4184    1.5363   -4.7687 H   0  0  0  0  0  0  0  0  0  0  0  0
   -0.7293    1.4178   -4.6288 C   0  0  0  0  0  0  0  0  0  0  0  0
   -0.9010    1.9929   -5.5338 H   0  0  0  0  0  0  0  0  0  0  0  0
   -1.8123    0.9261   -3.8960 C   0  0  0  0  0  0  0  0  0  0  0  0
   -2.8276    1.1188   -4.2295 H   0  0  0  0  0  0  0  0  0  0  0  0
   -1.5913    0.1867   -2.7295 C   0  0  0  0  0  0  0  0  0  0  0  0
   -2.4464   -0.1897   -2.1786 H   0  0  0  0  0  0  0  0  0  0  0  0
   -1.0749    0.9855    0.4397 C   0  0  0  0  0  0  0  0  0  0  0  0
   -2.1271    1.4982    0.0714 O   0  0  0  0  0  0  0  0  0  0  0  0
   -0.2506    1.7048    1.2866 N   0  0  0  0  0  0  0  0  0  0  0  0
    0.5697    1.2352    1.6581 H   0  0  0  0  0  0  0  0  0  0  0  0
   -0.5071    3.0874    1.6717 C   0  0  0  0  0  0  0  0  0  0  0  0
   -1.4645    3.1673    2.1973 H   0  0  0  0  0  0  0  0  0  0  0  0
    0.2829    3.4487    2.3369 H   0  0  0  0  0  0  0  0  0  0  0  0
   -0.5352    3.7320    0.7868 H   0  0  0  0  0  0  0  0  0  0  0  0
  1  2  1  0  0  0  0
  2  3  1  0  0  0  0
  2  4  1  0  0  0  0
  2  5  1  0  0  0  0
  5  6  2  0  0  0  0
  5  7  1  0  0  0  0
  7  8  1  0  0  0  0
  7  9  1  0  0  0  0
  9 10  1  0  0  0  0
  9 11  1  0  0  0  0
  9 25  1  0  0  0  0
 11 12  1  0  0  0  0
 11 13  1  0  0  0  0
 11 14  1  0  0  0  0
 14 15  1  0  0  0  0
 14 23  2  0  0  0  0
 15 16  1  0  0  0  0
 15 17  2  0  0  0  0
 17 18  1  0  0  0  0
 17 19  1  0  0  0  0
 19 20  1  0  0  0  0
 19 21  2  0  0  0  0
 21 22  1  0  0  0  0
 21 23  1  0  0  0  0
 23 24  1  0  0  0  0
 25 26  2  0  0  0  0
 25 27  1  0  0  0  0
 27 28  1  0  0  0  0
 27 29  1  0  0  0  0
 29 30  1  0  0  0  0
 29 31  1  0  0  0  0
 29 32  1  0  0  0  0
M  END
$$$$

  -OEChem-04042216033D

 32 32  0     1  0  0  0  0  0999 V2000
   -3.5924   -3.9901    1.6957 H   0  0  0  0  0  0  0  0  0  0  0  0
   -3.6485   -3.0708    1.1058 C   0  0  0  0  0  0  0  0  0  0  0  0
   -4.3188   -2.3697    1.6091 H   0  0  0  0  0  0  0  0  0  0  0  0
   -4.0546   -3.3094    0.1198 H   0  0  0  0  0  0  0  0  0  0  0  0
   -2.2691   -2.4557    0.9612 C   0  0  0  0  0  0  0  0  0  0  0  0
   -1.2939   -3.0292    1.4213 O   0  0  0  0  0  0  0  0  0  0  0  0
   -2.1233   -1.2497    0.3071 N   0  0  0  0  0  0  0  0  0  0  0  0
   -2.9765   -0.7568    0.0488 H   0  0  0  0  0  0  0  0  0  0  0  0
   -0.8722   -0.4779    0.2404 C   0  0  1  0  0  0  0  0  0  0  0  0
   -0.2546   -0.8127    1.0803 H   0  0  0  0  0  0  0  0  0  0  0  0
   -0.0598   -0.8231   -1.0289 C   0  0  0  0  0  0  0  0  0  0  0  0
    0.9976   -0.7024   -0.7732 H   0  0  0  0  0  0  0  0  0  0  0  0
   -0.2081   -1.8820   -1.2643 H   0  0  0  0  0  0  0  0  0  0  0  0
   -0.3245   -0.0125   -2.2848 C   0  0  0  0  0  0  0  0  0  0  0  0
    0.7272    0.1811   -3.1961 C   0  0  0  0  0  0  0  0  0  0  0  0
    1.7181   -0.2025   -2.9734 H   0  0  0  0  0  0  0  0  0  0  0  0
    0.5231    0.8681   -4.3975 C   0  0  0  0  0  0  0  0  0  0  0  0
    1.3504    1.0197   -5.0844 H   0  0  0  0  0  0  0  0  0  0  0  0
   -0.7465    1.3547   -4.7164 C   0  0  0  0  0  0  0  0  0  0  0  0
   -0.9079    1.8905   -5.6471 H   0  0  0  0  0  0  0  0  0  0  0  0
   -1.8114    1.1389   -3.8388 C   0  0  0  0  0  0  0  0  0  0  0  0
   -2.8034    1.5045   -4.0871 H   0  0  0  0  0  0  0  0  0  0  0  0
   -1.6043    0.4476   -2.6403 C   0  0  0  0  0  0  0  0  0  0  0  0
   -2.4557    0.2752   -1.9912 H   0  0  0  0  0  0  0  0  0  0  0  0
   -1.0856    1.0286    0.5062 C   0  0  0  0  0  0  0  0  0  0  0  0
   -2.1499    1.5604    0.2069 O   0  0  0  0  0  0  0  0  0  0  0  0
   -0.2250    1.7114    1.3475 N   0  0  0  0  0  0  0  0  0  0  0  0
    0.6086    1.2256    1.6652 H   0  0  0  0  0  0  0  0  0  0  0  0
   -0.4523    3.0829    1.7877 C   0  0  0  0  0  0  0  0  0  0  0  0
   -1.3927    3.1566    2.3441 H   0  0  0  0  0  0  0  0  0  0  0  0
    0.3619    3.4109    2.4411 H   0  0  0  0  0  0  0  0  0  0  0  0
   -0.4977    3.7579    0.9266 H   0  0  0  0  0  0  0  0  0  0  0  0
  1  2  1  0  0  0  0
  2  3  1  0  0  0  0
  2  4  1  0  0  0  0
  2  5  1  0  0  0  0
  5  6  2  0  0  0  0
  5  7  1  0  0  0  0
  7  8  1  0  0  0  0
  7  9  1  0  0  0  0
  9 10  1  0  0  0  0
  9 11  1  0  0  0  0
  9 25  1  0  0  0  0
 11 12  1  0  0  0  0
 11 13  1  0  0  0  0
 11 14  1  0  0  0  0
 14 15  1  0  0  0  0
 14 23  2  0  0  0  0
 15 16  1  0  0  0  0
 15 17  2  0  0  0  0
 17 18  1  0  0  0  0
 17 19  1  0  0  0  0
 19 20  1  0  0  0  0
 19 21  2  0  0  0  0
 21 22  1  0  0  0  0
 21 23  1  0  0  0  0
 23 24  1  0  0  0  0
 25 26  2  0  0  0  0
 25 27  1  0  0  0  0
 27 28  1  0  0  0  0
 27 29  1  0  0  0  0
 29 30  1  0  0  0  0
 29 31  1  0  0  0  0
 29 32  1  0  0  0  0
M  END
$$$$

  -OEChem-04042216033D

 32 32  0     1  0  0  0  0  0999 V2000
   -3.5416   -4.0312    1.6170 H   0  0  0  0  0  0  0  0  0  0  0  0
   -3.6259   -3.0800    1.0839 C   0  0  0  0  0  0  0  0  0  0  0  0
   -4.2887   -2.4184    1.6469 H   0  0  0  0  0  0  0  0  0  0  0  0
   -4.0585   -3.2658    0.0978 H   0  0  0  0  0  0  0  0  0  0  0  0
   -2.2588   -2.4396    0.9348 C   0  0  0  0  0  0  0  0  0  0  0  0
   -1.2655   -3.0190    1.3465 O   0  0  0  0  0  0  0  0  0  0  0  0
   -2.1448   -1.2070    0.3256 N   0  0  0  0  0  0  0  0  0  0  0  0
   -3.0099   -0.7228    0.0925 H   0  0  0  0  0  0  0  0  0  0  0  0
   -0.9053   -0.4188    0.2432 C   0  0  1  0  0  0  0  0  0  0  0  0
   -0.2781   -0.7729    1.0677 H   0  0  0  0  0  0  0  0  0  0  0  0
   -0.0910   -0.7517   -1.0291 C   0  0  0  0  0  0  0  0  0  0  0  0
    0.9642   -0.6083   -0.7752 H   0  0  0  0  0  0  0  0  0  0  0  0
   -0.2201   -1.8158   -1.2523 H   0  0  0  0  0  0  0  0  0  0  0  0
   -0.3495    0.0304   -2.3051 C   0  0  0  0  0  0  0  0  0  0  0  0
    0.6067   -0.0592   -3.3308 C   0  0  0  0  0  0  0  0  0  0  0  0
    1.5227   -0.6194   -3.1688 H   0  0  0  0  0  0  0  0  0  0  0  0
    0.4109    0.5751   -4.5621 C   0  0  0  0  0  0  0  0  0  0  0  0
    1.1728    0.5127   -5.3335 H   0  0  0  0  0  0  0  0  0  0  0  0
   -0.7681    1.2836   -4.8014 C   0  0  0  0  0  0  0  0  0  0  0  0
   -0.9242    1.7793   -5.7550 H   0  0  0  0  0  0  0  0  0  0  0  0
   -1.7556    1.3342   -3.8157 C   0  0  0  0  0  0  0  0  0  0  0  0
   -2.6866    1.8602   -4.0045 H   0  0  0  0  0  0  0  0  0  0  0  0
   -1.5560    0.6957   -2.5875 C   0  0  0  0  0  0  0  0  0  0  0  0
   -2.3698    0.7143   -1.8735 H   0  0  0  0  0  0  0  0  0  0  0  0
   -1.0942    1.0791    0.5721 C   0  0  0  0  0  0  0  0  0  0  0  0
   -2.1727    1.6254    0.3657 O   0  0  0  0  0  0  0  0  0  0  0  0
   -0.1912    1.7203    1.4016 N   0  0  0  0  0  0  0  0  0  0  0  0
    0.6546    1.2184    1.6556 H   0  0  0  0  0  0  0  0  0  0  0  0
   -0.3942    3.0669    1.9224 C   0  0  0  0  0  0  0  0  0  0  0  0
   -1.2795    3.0989    2.5660 H   0  0  0  0  0  0  0  0  0  0  0  0
    0.4735    3.3794    2.5110 H   0  0  0  0  0  0  0  0  0  0  0  0
   -0.5294    3.7787    1.1011 H   0  0  0  0  0  0  0  0  0  0  0  0
  1  2  1  0  0  0  0
  2  3  1  0  0  0  0
  2  4  1  0  0  0  0
  2  5  1  0  0  0  0
  5  6  2  0  0  0  0
  5  7  1  0  0  0  0
  7  8  1  0  0  0  0
  7  9  1  0  0  0  0
  9 10  1  0  0  0  0
  9 11  1  0  0  0  0
  9 25  1  0  0  0  0
 11 12  1  0  0  0  0
 11 13  1  0  0  0  0
 11 14  1  0  0  0  0
 14 15  1  0  0  0  0
 14 23  2  0  0  0  0
 15 16  1  0  0  0  0
 15 17  2  0  0  0  0
 17 18  1  0  0  0  0
 17 19  1  0  0  0  0
 19 20  1  0  0  0  0
 19 21  2  0  0  0  0
 21 22  1  0  0  0  0
 21 23  1  0  0  0  0
 23 24  1  0  0  0  0
 25 26  2  0  0  0  0
 25 27  1  0  0  0  0
 27 28  1  0  0  0  0
 27 29  1  0  0  0  0
 29 30  1  0  0  0  0
 29 31  1  0  0  0  0
 29 32  1  0  0  0  0
M  END
$$$$

  -OEChem-04042216033D

 32 32  0     1  0  0  0  0  0999 V2000
   -3.6250   -4.0336    1.3905 H   0  0  0  0  0  0  0  0  0  0  0  0
   -3.7030   -3.0479    0.9230 C   0  0  0  0  0  0  0  0  0  0  0  0
   -4.3688   -2.4246    1.5248 H   0  0  0  0  0  0  0  0  0  0  0  0
   -4.1292   -3.1645   -0.0765 H   0  0  0  0  0  0  0  0  0  0  0  0
   -2.3328   -2.4030    0.8290 C   0  0  0  0  0  0  0  0  0  0  0  0
   -1.3432   -3.0145    1.2014 O   0  0  0  0  0  0  0  0  0  0  0  0
   -2.2101   -1.1298    0.3115 N   0  0  0  0  0  0  0  0  0  0  0  0
   -3.0709   -0.6277    0.0996 H   0  0  0  0  0  0  0  0  0  0  0  0
   -0.9648   -0.3468    0.2736 C   0  0  1  0  0  0  0  0  0  0  0  0
   -0.3554   -0.7495    1.0890 H   0  0  0  0  0  0  0  0  0  0  0  0
   -0.1326   -0.6691   -0.9983 C   0  0  0  0  0  0  0  0  0  0  0  0
    0.8977   -0.8080   -0.6552 H   0  0  0  0  0  0  0  0  0  0  0  0
   -0.4649   -1.6436   -1.3711 H   0  0  0  0  0  0  0  0  0  0  0  0
   -0.0384    0.2630   -2.2019 C   0  0  0  0  0  0  0  0  0  0  0  0
    0.7657   -0.1915   -3.2629 C   0  0  0  0  0  0  0  0  0  0  0  0
    1.3046   -1.1296   -3.1657 H   0  0  0  0  0  0  0  0  0  0  0  0
    0.9035    0.5408   -4.4460 C   0  0  0  0  0  0  0  0  0  0  0  0
    1.5443    0.1728   -5.2418 H   0  0  0  0  0  0  0  0  0  0  0  0
    0.2118    1.7411   -4.6053 C   0  0  0  0  0  0  0  0  0  0  0  0
    0.3132    2.3131   -5.5227 H   0  0  0  0  0  0  0  0  0  0  0  0
   -0.6271    2.1921   -3.5859 C   0  0  0  0  0  0  0  0  0  0  0  0
   -1.1894    3.1126   -3.7136 H   0  0  0  0  0  0  0  0  0  0  0  0
   -0.7631    1.4550   -2.4042 C   0  0  0  0  0  0  0  0  0  0  0  0
   -1.4693    1.8414   -1.6862 H   0  0  0  0  0  0  0  0  0  0  0  0
   -1.1534    1.1189    0.7151 C   0  0  0  0  0  0  0  0  0  0  0  0
   -2.2421    1.6645    0.5630 O   0  0  0  0  0  0  0  0  0  0  0  0
   -0.2475    1.7028    1.5829 N   0  0  0  0  0  0  0  0  0  0  0  0
    0.6085    1.1932    1.7826 H   0  0  0  0  0  0  0  0  0  0  0  0
   -0.4590    2.9985    2.2176 C   0  0  0  0  0  0  0  0  0  0  0  0
   -1.3433    2.9698    2.8628 H   0  0  0  0  0  0  0  0  0  0  0  0
    0.4072    3.2648    2.8309 H   0  0  0  0  0  0  0  0  0  0  0  0
   -0.5990    3.7777    1.4611 H   0  0  0  0  0  0  0  0  0  0  0  0
  1  2  1  0  0  0  0
  2  3  1  0  0  0  0
  2  4  1  0  0  0  0
  2  5  1  0  0  0  0
  5  6  2  0  0  0  0
  5  7  1  0  0  0  0
  7  8  1  0  0  0  0
  7  9  1  0  0  0  0
  9 10  1  0  0  0  0
  9 11  1  0  0  0  0
  9 25  1  0  0  0  0
 11 12  1  0  0  0  0
 11 13  1  0  0  0  0
 11 14  1  0  0  0  0
 14 15  1  0  0  0  0
 14 23  2  0  0  0  0
 15 16  1  0  0  0  0
 15 17  2  0  0  0  0
 17 18  1  0  0  0  0
 17 19  1  0  0  0  0
 19 20  1  0  0  0  0
 19 21  2  0  0  0  0
 21 22  1  0  0  0  0
 21 23  1  0  0  0  0
 23 24  1  0  0  0  0
 25 26  2  0  0  0  0
 25 27  1  0  0  0  0
 27 28  1  0  0  0  0
 27 29  1  0  0  0  0
 29 30  1  0  0  0  0
 29 31  1  0  0  0  0
 29 32  1  0  0  0  0
M  END
$$$$

  -OEChem-04042216033D

 32 32  0     1  0  0  0  0  0999 V2000
   -3.4853   -4.1239    1.4268 H   0  0  0  0  0  0  0  0  0  0  0  0
   -3.5866   -3.1403    0.9597 C   0  0  0  0  0  0  0  0  0  0  0  0
   -4.2646   -2.5319    1.5633 H   0  0  0  0  0  0  0  0  0  0  0  0
   -4.0123   -3.2666   -0.0388 H   0  0  0  0  0  0  0  0  0  0  0  0
   -2.2316   -2.4651    0.8621 C   0  0  0  0  0  0  0  0  0  0  0  0
   -1.2285   -3.0496    1.2417 O   0  0  0  0  0  0  0  0  0  0  0  0
   -2.1364   -1.1935    0.3361 N   0  0  0  0  0  0  0  0  0  0  0  0
   -3.0062   -0.7126    0.1097 H   0  0  0  0  0  0  0  0  0  0  0  0
   -0.9065   -0.3867    0.2906 C   0  0  1  0  0  0  0  0  0  0  0  0
   -0.2536   -0.7731    1.0802 H   0  0  0  0  0  0  0  0  0  0  0  0
   -0.1409   -0.6672   -1.0357 C   0  0  0  0  0  0  0  0  0  0  0  0
    0.9064   -0.8051   -0.7490 H   0  0  0  0  0  0  0  0  0  0  0  0
   -0.4842   -1.6391   -1.4065 H   0  0  0  0  0  0  0  0  0  0  0  0
   -0.0977    0.2871   -2.2300 C   0  0  0  0  0  0  0  0  0  0  0  0
    0.3588   -0.2798   -3.4353 C   0  0  0  0  0  0  0  0  0  0  0  0
    0.6225   -1.3329   -3.4706 H   0  0  0  0  0  0  0  0  0  0  0  0
    0.4808    0.4746   -4.6059 C   0  0  0  0  0  0  0  0  0  0  0  0
    0.8269    0.0046   -5.5219 H   0  0  0  0  0  0  0  0  0  0  0  0
    0.1586    1.8307   -4.5954 C   0  0  0  0  0  0  0  0  0  0  0  0
    0.2491    2.4218   -5.5019 H   0  0  0  0  0  0  0  0  0  0  0  0
   -0.2740    2.4248   -3.4100 C   0  0  0  0  0  0  0  0  0  0  0  0
   -0.5176    3.4830   -3.3930 H   0  0  0  0  0  0  0  0  0  0  0  0
   -0.3931    1.6676   -2.2391 C   0  0  0  0  0  0  0  0  0  0  0  0
   -0.7148    2.2164   -1.3677 H   0  0  0  0  0  0  0  0  0  0  0  0
   -1.1789    1.0621    0.7312 C   0  0  0  0  0  0  0  0  0  0  0  0
   -2.2604    1.5859    0.4827 O   0  0  0  0  0  0  0  0  0  0  0  0
   -0.3173    1.6978    1.6071 N   0  0  0  0  0  0  0  0  0  0  0  0
    0.5323    1.2071    1.8715 H   0  0  0  0  0  0  0  0  0  0  0  0
   -0.5893    3.0030    2.1967 C   0  0  0  0  0  0  0  0  0  0  0  0
   -1.4942    2.9644    2.8122 H   0  0  0  0  0  0  0  0  0  0  0  0
    0.2472    3.3130    2.8304 H   0  0  0  0  0  0  0  0  0  0  0  0
   -0.7268    3.7562    1.4138 H   0  0  0  0  0  0  0  0  0  0  0  0
  1  2  1  0  0  0  0
  2  3  1  0  0  0  0
  2  4  1  0  0  0  0
  2  5  1  0  0  0  0
  5  6  2  0  0  0  0
  5  7  1  0  0  0  0
  7  8  1  0  0  0  0
  7  9  1  0  0  0  0
  9 10  1  0  0  0  0
  9 11  1  0  0  0  0
  9 25  1  0  0  0  0
 11 12  1  0  0  0  0
 11 13  1  0  0  0  0
 11 14  1  0  0  0  0
 14 15  1  0  0  0  0
 14 23  2  0  0  0  0
 15 16  1  0  0  0  0
 15 17  2  0  0  0  0
 17 18  1  0  0  0  0
 17 19  1  0  0  0  0
 19 20  1  0  0  0  0
 19 21  2  0  0  0  0
 21 22  1  0  0  0  0
 21 23  1  0  0  0  0
 23 24  1  0  0  0  0
 25 26  2  0  0  0  0
 25 27  1  0  0  0  0
 27 28  1  0  0  0  0
 27 29  1  0  0  0  0
 29 30  1  0  0  0  0
 29 31  1  0  0  0  0
 29 32  1  0  0  0  0
M  END
$$$$

  -OEChem-04042216033D

 32 32  0     1  0  0  0  0  0999 V2000
   -3.5282   -4.0908    1.4975 H   0  0  0  0  0  0  0  0  0  0  0  0
   -3.5988   -3.1294    0.9810 C   0  0  0  0  0  0  0  0  0  0  0  0
   -4.2963   -2.4877    1.5247 H   0  0  0  0  0  0  0  0  0  0  0  0
   -3.9818   -3.2987   -0.0283 H   0  0  0  0  0  0  0  0  0  0  0  0
   -2.2341   -2.4701    0.9129 C   0  0  0  0  0  0  0  0  0  0  0  0
   -1.2544   -3.0423    1.3649 O   0  0  0  0  0  0  0  0  0  0  0  0
   -2.1031   -1.2250    0.3347 N   0  0  0  0  0  0  0  0  0  0  0  0
   -2.9555   -0.7489    0.0416 H   0  0  0  0  0  0  0  0  0  0  0  0
   -0.8623   -0.4349    0.3008 C   0  0  1  0  0  0  0  0  0  0  0  0
   -0.2108   -0.7980    1.1022 H   0  0  0  0  0  0  0  0  0  0  0  0
   -0.1190   -0.7365   -1.0341 C   0  0  0  0  0  0  0  0  0  0  0  0
    0.9316   -0.8922   -0.7700 H   0  0  0  0  0  0  0  0  0  0  0  0
   -0.4813   -1.7004   -1.4065 H   0  0  0  0  0  0  0  0  0  0  0  0
   -0.0999    0.2527   -2.1978 C   0  0  0  0  0  0  0  0  0  0  0  0
   -0.0148   -0.2950   -3.4918 C   0  0  0  0  0  0  0  0  0  0  0  0
   -0.0471   -1.3717   -3.6281 H   0  0  0  0  0  0  0  0  0  0  0  0
    0.0909    0.5151   -4.6267 C   0  0  0  0  0  0  0  0  0  0  0  0
    0.1267    0.0649   -5.6143 H   0  0  0  0  0  0  0  0  0  0  0  0
    0.1551    1.9013   -4.4890 C   0  0  0  0  0  0  0  0  0  0  0  0
    0.2346    2.5356   -5.3668 H   0  0  0  0  0  0  0  0  0  0  0  0
    0.1377    2.4674   -3.2144 C   0  0  0  0  0  0  0  0  0  0  0  0
    0.2167    3.5445   -3.0998 H   0  0  0  0  0  0  0  0  0  0  0  0
    0.0342    1.6527   -2.0814 C   0  0  0  0  0  0  0  0  0  0  0  0
    0.0852    2.1554   -1.1256 H   0  0  0  0  0  0  0  0  0  0  0  0
   -1.1731    1.0270    0.6706 C   0  0  0  0  0  0  0  0  0  0  0  0
   -2.2158    1.5529    0.2963 O   0  0  0  0  0  0  0  0  0  0  0  0
   -0.3605    1.7091    1.5589 N   0  0  0  0  0  0  0  0  0  0  0  0
    0.4495    1.2190    1.9281 H   0  0  0  0  0  0  0  0  0  0  0  0
   -0.6562    3.0507    2.0469 C   0  0  0  0  0  0  0  0  0  0  0  0
   -1.5942    3.0545    2.6119 H   0  0  0  0  0  0  0  0  0  0  0  0
    0.1460    3.3991    2.7044 H   0  0  0  0  0  0  0  0  0  0  0  0
   -0.7459    3.7520    1.2105 H   0  0  0  0  0  0  0  0  0  0  0  0
  1  2  1  0  0  0  0
  2  3  1  0  0  0  0
  2  4  1  0  0  0  0
  2  5  1  0  0  0  0
  5  6  2  0  0  0  0
  5  7  1  0  0  0  0
  7  8  1  0  0  0  0
  7  9  1  0  0  0  0
  9 10  1  0  0  0  0
  9 11  1  0  0  0  0
  9 25  1  0  0  0  0
 11 12  1  0  0  0  0
 11 13  1  0  0  0  0
 11 14  1  0  0  0  0
 14 15  1  0  0  0  0
 14 23  2  0  0  0  0
 15 16  1  0  0  0  0
 15 17  2  0  0  0  0
 17 18  1  0  0  0  0
 17 19  1  0  0  0  0
 19 20  1  0  0  0  0
 19 21  2  0  0  0  0
 21 22  1  0  0  0  0
 21 23  1  0  0  0  0
 23 24  1  0  0  0  0
 25 26  2  0  0  0  0
 25 27  1  0  0  0  0
 27 28  1  0  0  0  0
 27 29  1  0  0  0  0
 29 30  1  0  0  0  0
 29 31  1  0  0  0  0
 29 32  1  0  0  0  0
M  END
$$$$

  -OEChem-04042216033D

 32 32  0     1  0  0  0  0  0999 V2000
   -3.5739   -4.0417    1.5651 H   0  0  0  0  0  0  0  0  0  0  0  0
   -3.6217   -3.1044    1.0039 C   0  0  0  0  0  0  0  0  0  0  0  0
   -4.3224   -2.4308    1.5030 H   0  0  0  0  0  0  0  0  0  0  0  0
   -3.9856   -3.3155   -0.0045 H   0  0  0  0  0  0  0  0  0  0  0  0
   -2.2476   -2.4648    0.9349 C   0  0  0  0  0  0  0  0  0  0  0  0
   -1.2843   -3.0310    1.4279 O   0  0  0  0  0  0  0  0  0  0  0  0
   -2.0893   -1.2446    0.3123 N   0  0  0  0  0  0  0  0  0  0  0  0
   -2.9303   -0.7661   -0.0091 H   0  0  0  0  0  0  0  0  0  0  0  0
   -0.8407   -0.4673    0.2874 C   0  0  1  0  0  0  0  0  0  0  0  0
   -0.2074   -0.8094    1.1122 H   0  0  0  0  0  0  0  0  0  0  0  0
   -0.0796   -0.7971   -1.0273 C   0  0  0  0  0  0  0  0  0  0  0  0
    0.9690   -0.9547   -0.7568 H   0  0  0  0  0  0  0  0  0  0  0  0
   -0.4405   -1.7588   -1.4068 H   0  0  0  0  0  0  0  0  0  0  0  0
   -0.0742    0.2188   -2.1597 C   0  0  0  0  0  0  0  0  0  0  0  0
   -0.3136   -0.2375   -3.4679 C   0  0  0  0  0  0  0  0  0  0  0  0
   -0.5857   -1.2744   -3.6411 H   0  0  0  0  0  0  0  0  0  0  0  0
   -0.2286    0.6266   -4.5647 C   0  0  0  0  0  0  0  0  0  0  0  0
   -0.4436    0.2589   -5.5635 H   0  0  0  0  0  0  0  0  0  0  0  0
    0.1377    1.9603   -4.3758 C   0  0  0  0  0  0  0  0  0  0  0  0
    0.2022    2.6349   -5.2244 H   0  0  0  0  0  0  0  0  0  0  0  0
    0.4408    2.4182   -3.0923 C   0  0  0  0  0  0  0  0  0  0  0  0
    0.7519    3.4478   -2.9431 H   0  0  0  0  0  0  0  0  0  0  0  0
    0.3578    1.5495   -1.9990 C   0  0  0  0  0  0  0  0  0  0  0  0
    0.6523    1.9316   -1.0290 H   0  0  0  0  0  0  0  0  0  0  0  0
   -1.1499    1.0127    0.5903 C   0  0  0  0  0  0  0  0  0  0  0  0
   -2.1819    1.5281    0.1741 O   0  0  0  0  0  0  0  0  0  0  0  0
   -0.3584    1.7210    1.4776 N   0  0  0  0  0  0  0  0  0  0  0  0
    0.4347    1.2385    1.8906 H   0  0  0  0  0  0  0  0  0  0  0  0
   -0.6626    3.0787    1.9127 C   0  0  0  0  0  0  0  0  0  0  0  0
   -1.6212    3.1057    2.4415 H   0  0  0  0  0  0  0  0  0  0  0  0
    0.1167    3.4431    2.5889 H   0  0  0  0  0  0  0  0  0  0  0  0
   -0.7155    3.7534    1.0518 H   0  0  0  0  0  0  0  0  0  0  0  0
  1  2  1  0  0  0  0
  2  3  1  0  0  0  0
  2  4  1  0  0  0  0
  2  5  1  0  0  0  0
  5  6  2  0  0  0  0
  5  7  1  0  0  0  0
  7  8  1  0  0  0  0
  7  9  1  0  0  0  0
  9 10  1  0  0  0  0
  9 11  1  0  0  0  0
  9 25  1  0  0  0  0
 11 12  1  0  0  0  0
 11 13  1  0  0  0  0
 11 14  1  0  0  0  0
 14 15  1  0  0  0  0
 14 23  2  0  0  0  0
 15 16  1  0  0  0  0
 15 17  2  0  0  0  0
 17 18  1  0  0  0  0
 17 19  1  0  0  0  0
 19 20  1  0  0  0  0
 19 21  2  0  0  0  0
 21 22  1  0  0  0  0
 21 23  1  0  0  0  0
 23 24  1  0  0  0  0
 25 26  2  0  0  0  0
 25 27  1  0  0  0  0
 27 28  1  0  0  0  0
 27 29  1  0  0  0  0
 29 30  1  0  0  0  0
 29 31  1  0  0  0  0
 29 32  1  0  0  0  0
M  END
$$$$

  -OEChem-04042216033D

 32 32  0     1  0  0  0  0  0999 V2000
   -3.6175   -4.0040    1.5954 H   0  0  0  0  0  0  0  0  0  0  0  0
   -3.6465   -3.0766    1.0164 C   0  0  0  0  0  0  0  0  0  0  0  0
   -4.3406   -2.3831    1.4972 H   0  0  0  0  0  0  0  0  0  0  0  0
   -4.0055   -3.3005    0.0090 H   0  0  0  0  0  0  0  0  0  0  0  0
   -2.2622   -2.4594    0.9474 C   0  0  0  0  0  0  0  0  0  0  0  0
   -1.3150   -3.0218    1.4746 O   0  0  0  0  0  0  0  0  0  0  0  0
   -2.0782   -1.2610    0.2904 N   0  0  0  0  0  0  0  0  0  0  0  0
   -2.9087   -0.7805   -0.0545 H   0  0  0  0  0  0  0  0  0  0  0  0
   -0.8223   -0.4958    0.2721 C   0  0  1  0  0  0  0  0  0  0  0  0
   -0.2087   -0.8223    1.1178 H   0  0  0  0  0  0  0  0  0  0  0  0
   -0.0349   -0.8471   -1.0176 C   0  0  0  0  0  0  0  0  0  0  0  0
    1.0094   -1.0085   -0.7330 H   0  0  0  0  0  0  0  0  0  0  0  0
   -0.3942   -1.8050   -1.4080 H   0  0  0  0  0  0  0  0  0  0  0  0
   -0.0330    0.1870   -2.1272 C   0  0  0  0  0  0  0  0  0  0  0  0
   -0.5585   -0.1473   -3.3858 C   0  0  0  0  0  0  0  0  0  0  0  0
   -1.0257   -1.1150   -3.5410 H   0  0  0  0  0  0  0  0  0  0  0  0
   -0.5036    0.7589   -4.4502 C   0  0  0  0  0  0  0  0  0  0  0  0
   -0.9311    0.4924   -5.4121 H   0  0  0  0  0  0  0  0  0  0  0  0
    0.1027    2.0055   -4.2765 C   0  0  0  0  0  0  0  0  0  0  0  0
    0.1427    2.7116   -5.1005 H   0  0  0  0  0  0  0  0  0  0  0  0
    0.6660    2.3374   -3.0420 C   0  0  0  0  0  0  0  0  0  0  0  0
    1.1499    3.3001   -2.9075 H   0  0  0  0  0  0  0  0  0  0  0  0
    0.6123    1.4280   -1.9805 C   0  0  0  0  0  0  0  0  0  0  0  0
    1.0808    1.6968   -1.0396 H   0  0  0  0  0  0  0  0  0  0  0  0
   -1.1144    0.9993    0.5201 C   0  0  0  0  0  0  0  0  0  0  0  0
   -2.1378    1.5102    0.0774 O   0  0  0  0  0  0  0  0  0  0  0  0
   -0.3321    1.7239    1.4025 N   0  0  0  0  0  0  0  0  0  0  0  0
    0.4422    1.2426    1.8507 H   0  0  0  0  0  0  0  0  0  0  0  0
   -0.6340    3.0943    1.7972 C   0  0  0  0  0  0  0  0  0  0  0  0
   -1.5961    3.1396    2.3183 H   0  0  0  0  0  0  0  0  0  0  0  0
    0.1419    3.4746    2.4685 H   0  0  0  0  0  0  0  0  0  0  0  0
   -0.6783    3.7448    0.9173 H   0  0  0  0  0  0  0  0  0  0  0  0
  1  2  1  0  0  0  0
  2  3  1  0  0  0  0
  2  4  1  0  0  0  0
  2  5  1  0  0  0  0
  5  6  2  0  0  0  0
  5  7  1  0  0  0  0
  7  8  1  0  0  0  0
  7  9  1  0  0  0  0
  9 10  1  0  0  0  0
  9 11  1  0  0  0  0
  9 25  1  0  0  0  0
 11 12  1  0  0  0  0
 11 13  1  0  0  0  0
 11 14  1  0  0  0  0
 14 15  1  0  0  0  0
 14 23  2  0  0  0  0
 15 16  1  0  0  0  0
 15 17  2  0  0  0  0
 17 18  1  0  0  0  0
 17 19  1  0  0  0  0
 19 20  1  0  0  0  0
 19 21  2  0  0  0  0
 21 22  1  0  0  0  0
 21 23  1  0  0  0  0
 23 24  1  0  0  0  0
 25 26  2  0  0  0  0
 25 27  1  0  0  0  0
 27 28  1  0  0  0  0
 27 29  1  0  0  0  0
 29 30  1  0  0  0  0
 29 31  1  0  0  0  0
 29 32  1  0  0  0  0
M  END
$$$$

  -OEChem-04042216033D

 32 32  0     1  0  0  0  0  0999 V2000
   -3.6543   -3.9752    1.6147 H   0  0  0  0  0  0  0  0  0  0  0  0
   -3.6668   -3.0596    1.0169 C   0  0  0  0  0  0  0  0  0  0  0  0
   -4.3593   -2.3496    1.4753 H   0  0  0  0  0  0  0  0  0  0  0  0
   -4.0156   -3.3006    0.0100 H   0  0  0  0  0  0  0  0  0  0  0  0
   -2.2757   -2.4580    0.9523 C   0  0  0  0  0  0  0  0  0  0  0  0
   -1.3414   -3.0183    1.5041 O   0  0  0  0  0  0  0  0  0  0  0  0
   -2.0716   -1.2766    0.2713 N   0  0  0  0  0  0  0  0  0  0  0  0
   -2.8941   -0.7922   -0.0867 H   0  0  0  0  0  0  0  0  0  0  0  0
   -0.8100   -0.5211    0.2587 C   0  0  1  0  0  0  0  0  0  0  0  0
   -0.2138   -0.8362    1.1210 H   0  0  0  0  0  0  0  0  0  0  0  0
    0.0018   -0.8884   -1.0076 C   0  0  0  0  0  0  0  0  0  0  0  0
    1.0408   -1.0549   -0.7064 H   0  0  0  0  0  0  0  0  0  0  0  0
   -0.3562   -1.8419   -1.4095 H   0  0  0  0  0  0  0  0  0  0  0  0
    0.0041    0.1573   -2.1012 C   0  0  0  0  0  0  0  0  0  0  0  0
   -0.7703   -0.0307   -3.2557 C   0  0  0  0  0  0  0  0  0  0  0  0
   -1.4028   -0.9080   -3.3491 H   0  0  0  0  0  0  0  0  0  0  0  0
   -0.7479    0.9115   -4.2898 C   0  0  0  0  0  0  0  0  0  0  0  0
   -1.3611    0.7619   -5.1734 H   0  0  0  0  0  0  0  0  0  0  0  0
    0.0607    2.0469   -4.1840 C   0  0  0  0  0  0  0  0  0  0  0  0
    0.0751    2.7806   -4.9844 H   0  0  0  0  0  0  0  0  0  0  0  0
    0.8508    2.2355   -3.0466 C   0  0  0  0  0  0  0  0  0  0  0  0
    1.4816    3.1152   -2.9642 H   0  0  0  0  0  0  0  0  0  0  0  0
    0.8287    1.2914   -2.0148 C   0  0  0  0  0  0  0  0  0  0  0  0
    1.4535    1.4468   -1.1410 H   0  0  0  0  0  0  0  0  0  0  0  0
   -1.0845    0.9845    0.4661 C   0  0  0  0  0  0  0  0  0  0  0  0
   -2.1020    1.4935    0.0073 O   0  0  0  0  0  0  0  0  0  0  0  0
   -0.3070    1.7190    1.3443 N   0  0  0  0  0  0  0  0  0  0  0  0
    0.4671    1.2445    1.7998 H   0  0  0  0  0  0  0  0  0  0  0  0
   -0.5880    3.1066    1.6916 C   0  0  0  0  0  0  0  0  0  0  0  0
   -1.5642    3.1894    2.1809 H   0  0  0  0  0  0  0  0  0  0  0  0
    0.1758    3.4881    2.3760 H   0  0  0  0  0  0  0  0  0  0  0  0
   -0.5902    3.7321    0.7927 H   0  0  0  0  0  0  0  0  0  0  0  0
  1  2  1  0  0  0  0
  2  3  1  0  0  0  0
  2  4  1  0  0  0  0
  2  5  1  0  0  0  0
  5  6  2  0  0  0  0
  5  7  1  0  0  0  0
  7  8  1  0  0  0  0
  7  9  1  0  0  0  0
  9 10  1  0  0  0  0
  9 11  1  0  0  0  0
  9 25  1  0  0  0  0
 11 12  1  0  0  0  0
 11 13  1  0  0  0  0
 11 14  1  0  0  0  0
 14 15  1  0  0  0  0
 14 23  2  0  0  0  0
 15 16  1  0  0  0  0
 15 17  2  0  0  0  0
 17 18  1  0  0  0  0
 17 19  1  0  0  0  0
 19 20  1  0  0  0  0
 19 21  2  0  0  0  0
 21 22  1  0  0  0  0
 21 23  1  0  0  0  0
 23 24  1  0  0  0  0
 25 26  2  0  0  0  0
 25 27  1  0  0  0  0
 27 28  1  0  0  0  0
 27 29  1  0  0  0  0
 29 30  1  0  0  0  0
 29 31  1  0  0  0  0
 29 32  1  0  0  0  0
M  END
$$$$

  -OEChem-04042216033D

 32 32  0     1  0  0  0  0  0999 V2000
   -3.6817   -3.9428    1.6477 H   0  0  0  0  0  0  0  0  0  0  0  0
   -3.6814   -3.0435    1.0255 C   0  0  0  0  0  0  0  0  0  0  0  0
   -4.3678   -2.3137    1.4618 H   0  0  0  0  0  0  0  0  0  0  0  0
   -4.0292   -3.3070    0.0237 H   0  0  0  0  0  0  0  0  0  0  0  0
   -2.2833   -2.4594    0.9499 C   0  0  0  0  0  0  0  0  0  0  0  0
   -1.3537   -3.0251    1.5043 O   0  0  0  0  0  0  0  0  0  0  0  0
   -2.0684   -1.2877    0.2554 N   0  0  0  0  0  0  0  0  0  0  0  0
   -2.8890   -0.7924   -0.0919 H   0  0  0  0  0  0  0  0  0  0  0  0
   -0.8028   -0.5388    0.2458 C   0  0  1  0  0  0  0  0  0  0  0  0
   -0.2185   -0.8471    1.1186 H   0  0  0  0  0  0  0  0  0  0  0  0
    0.0262   -0.9129   -1.0054 C   0  0  0  0  0  0  0  0  0  0  0  0
    1.0600   -1.0866   -0.6910 H   0  0  0  0  0  0  0  0  0  0  0  0
   -0.3335   -1.8611   -1.4181 H   0  0  0  0  0  0  0  0  0  0  0  0
    0.0321    0.1388   -2.0908 C   0  0  0  0  0  0  0  0  0  0  0  0
   -0.9472    0.1203   -3.0939 C   0  0  0  0  0  0  0  0  0  0  0  0
   -1.7209   -0.6413   -3.0818 H   0  0  0  0  0  0  0  0  0  0  0  0
   -0.9457    1.0857   -4.1063 C   0  0  0  0  0  0  0  0  0  0  0  0
   -1.7140    1.0675   -4.8732 H   0  0  0  0  0  0  0  0  0  0  0  0
    0.0402    2.0764   -4.1268 C   0  0  0  0  0  0  0  0  0  0  0  0
    0.0388    2.8277   -4.9107 H   0  0  0  0  0  0  0  0  0  0  0  0
    1.0251    2.0999   -3.1349 C   0  0  0  0  0  0  0  0  0  0  0  0
    1.7911    2.8695   -3.1503 H   0  0  0  0  0  0  0  0  0  0  0  0
    1.0221    1.1341   -2.1225 C   0  0  0  0  0  0  0  0  0  0  0  0
    1.7922    1.1641   -1.3581 H   0  0  0  0  0  0  0  0  0  0  0  0
   -1.0680    0.9718    0.4314 C   0  0  0  0  0  0  0  0  0  0  0  0
   -2.0895    1.4759   -0.0246 O   0  0  0  0  0  0  0  0  0  0  0  0
   -0.2928    1.7107    1.3072 N   0  0  0  0  0  0  0  0  0  0  0  0
    0.5012    1.2489    1.7402 H   0  0  0  0  0  0  0  0  0  0  0  0
   -0.5635    3.1054    1.6325 C   0  0  0  0  0  0  0  0  0  0  0  0
   -1.5596    3.2091    2.0754 H   0  0  0  0  0  0  0  0  0  0  0  0
    0.1740    3.4766    2.3503 H   0  0  0  0  0  0  0  0  0  0  0  0
   -0.5118    3.7248    0.7310 H   0  0  0  0  0  0  0  0  0  0  0  0
  1  2  1  0  0  0  0
  2  3  1  0  0  0  0
  2  4  1  0  0  0  0
  2  5  1  0  0  0  0
  5  6  2  0  0  0  0
  5  7  1  0  0  0  0
  7  8  1  0  0  0  0
  7  9  1  0  0  0  0
  9 10  1  0  0  0  0
  9 11  1  0  0  0  0
  9 25  1  0  0  0  0
 11 12  1  0  0  0  0
 11 13  1  0  0  0  0
 11 14  1  0  0  0  0
 14 15  1  0  0  0  0
 14 23  2  0  0  0  0
 15 16  1  0  0  0  0
 15 17  2  0  0  0  0
 17 18  1  0  0  0  0
 17 19  1  0  0  0  0
 19 20  1  0  0  0  0
 19 21  2  0  0  0  0
 21 22  1  0  0  0  0
 21 23  1  0  0  0  0
 23 24  1  0  0  0  0
 25 26  2  0  0  0  0
 25 27  1  0  0  0  0
 27 28  1  0  0  0  0
 27 29  1  0  0  0  0
 29 30  1  0  0  0  0
 29 31  1  0  0  0  0
 29 32  1  0  0  0  0
M  END
$$$$

  -OEChem-04042216033D

 32 32  0     1  0  0  0  0  0999 V2000
   -3.6841   -3.9386    1.6594 H   0  0  0  0  0  0  0  0  0  0  0  0
   -3.6867   -3.0407    1.0350 C   0  0  0  0  0  0  0  0  0  0  0  0
   -4.3668   -2.3077    1.4758 H   0  0  0  0  0  0  0  0  0  0  0  0
   -4.0445   -3.3056    0.0371 H   0  0  0  0  0  0  0  0  0  0  0  0
   -2.2871   -2.4615    0.9460 C   0  0  0  0  0  0  0  0  0  0  0  0
   -1.3545   -3.0311    1.4913 O   0  0  0  0  0  0  0  0  0  0  0  0
   -2.0739   -1.2900    0.2500 N   0  0  0  0  0  0  0  0  0  0  0  0
   -2.8972   -0.7883   -0.0807 H   0  0  0  0  0  0  0  0  0  0  0  0
   -0.8076   -0.5415    0.2385 C   0  0  1  0  0  0  0  0  0  0  0  0
   -0.2267   -0.8486    1.1138 H   0  0  0  0  0  0  0  0  0  0  0  0
    0.0325   -0.9165   -1.0050 C   0  0  0  0  0  0  0  0  0  0  0  0
    1.0622   -1.0939   -0.6796 H   0  0  0  0  0  0  0  0  0  0  0  0
   -0.3271   -1.8628   -1.4223 H   0  0  0  0  0  0  0  0  0  0  0  0
    0.0443    0.1310   -2.0946 C   0  0  0  0  0  0  0  0  0  0  0  0
   -1.0776    0.3078   -2.9170 C   0  0  0  0  0  0  0  0  0  0  0  0
   -1.9605   -0.3056   -2.7666 H   0  0  0  0  0  0  0  0  0  0  0  0
   -1.0769    1.2817   -3.9209 C   0  0  0  0  0  0  0  0  0  0  0  0
   -1.9546    1.4153   -4.5459 H   0  0  0  0  0  0  0  0  0  0  0  0
    0.0497    2.0868   -4.1132 C   0  0  0  0  0  0  0  0  0  0  0  0
    0.0490    2.8451   -4.8905 H   0  0  0  0  0  0  0  0  0  0  0  0
    1.1743    1.9169   -3.3002 C   0  0  0  0  0  0  0  0  0  0  0  0
    2.0494    2.5426   -3.4479 H   0  0  0  0  0  0  0  0  0  0  0  0
    1.1713    0.9434   -2.2953 C   0  0  0  0  0  0  0  0  0  0  0  0
    2.0509    0.8243   -1.6705 H   0  0  0  0  0  0  0  0  0  0  0  0
   -1.0664    0.9705    0.4235 C   0  0  0  0  0  0  0  0  0  0  0  0
   -2.0977    1.4716   -0.0144 O   0  0  0  0  0  0  0  0  0  0  0  0
   -0.2874    1.7081    1.2970 N   0  0  0  0  0  0  0  0  0  0  0  0
    0.5243    1.2537    1.7045 H   0  0  0  0  0  0  0  0  0  0  0  0
   -0.5531    3.1043    1.6209 C   0  0  0  0  0  0  0  0  0  0  0  0
   -1.5489    3.2117    2.0636 H   0  0  0  0  0  0  0  0  0  0  0  0
    0.1853    3.4739    2.3387 H   0  0  0  0  0  0  0  0  0  0  0  0
   -0.4995    3.7230    0.7190 H   0  0  0  0  0  0  0  0  0  0  0  0
  1  2  1  0  0  0  0
  2  3  1  0  0  0  0
  2  4  1  0  0  0  0
  2  5  1  0  0  0  0
  5  6  2  0  0  0  0
  5  7  1  0  0  0  0
  7  8  1  0  0  0  0
  7  9  1  0  0  0  0
  9 10  1  0  0  0  0
  9 11  1  0  0  0  0
  9 25  1  0  0  0  0
 11 12  1  0  0  0  0
 11 13  1  0  0  0  0
 11 14  1  0  0  0  0
 14 15  1  0  0  0  0
 14 23  2  0  0  0  0
 15 16  1  0  0  0  0
 15 17  2  0  0  0  0
 17 18  1  0  0  0  0
 17 19  1  0  0  0  0
 19 20  1  0  0  0  0
 19 21  2  0  0  0  0
 21 22  1  0  0  0  0
 21 23  1  0  0  0  0
 23 24  1  0  0  0  0
 25 26  2  0  0  0  0
 25 27  1  0  0  0  0
 27 28  1  0  0  0  0
 27 29  1  0  0  0  0
 29 30  1  0  0  0  0
 29 31  1  0  0  0  0
 29 32  1  0  0  0  0
M  END
$$$$

  -OEChem-04042216033D

 32 32  0     1  0  0  0  0  0999 V2000
   -3.6573   -3.9630    1.6453 H   0  0  0  0  0  0  0  0  0  0  0  0
   -3.6753   -3.0529    1.0393 C   0  0  0  0  0  0  0  0  0  0  0  0
   -4.3530   -2.3332    1.5050 H   0  0  0  0  0  0  0  0  0  0  0  0
   -4.0469   -3.3006    0.0421 H   0  0  0  0  0  0  0  0  0  0  0  0
   -2.2813   -2.4624    0.9399 C   0  0  0  0  0  0  0  0  0  0  0  0
   -1.3365   -3.0347    1.4608 O   0  0  0  0  0  0  0  0  0  0  0  0
   -2.0876   -1.2787    0.2590 N   0  0  0  0  0  0  0  0  0  0  0  0
   -2.9205   -0.7785   -0.0488 H   0  0  0  0  0  0  0  0  0  0  0  0
   -0.8275   -0.5195    0.2408 C   0  0  1  0  0  0  0  0  0  0  0  0
   -0.2438   -0.8317    1.1126 H   0  0  0  0  0  0  0  0  0  0  0  0
    0.0195   -0.8894   -1.0010 C   0  0  0  0  0  0  0  0  0  0  0  0
    1.0469   -1.0593   -0.6645 H   0  0  0  0  0  0  0  0  0  0  0  0
   -0.3322   -1.8411   -1.4123 H   0  0  0  0  0  0  0  0  0  0  0  0
    0.0387    0.1387   -2.1119 C   0  0  0  0  0  0  0  0  0  0  0  0
   -1.1476    0.5295   -2.7513 C   0  0  0  0  0  0  0  0  0  0  0  0
   -2.0958    0.0967   -2.4469 H   0  0  0  0  0  0  0  0  0  0  0  0
   -1.1275    1.4885   -3.7691 C   0  0  0  0  0  0  0  0  0  0  0  0
   -2.0554    1.7895   -4.2461 H   0  0  0  0  0  0  0  0  0  0  0  0
    0.0834    2.0636   -4.1642 C   0  0  0  0  0  0  0  0  0  0  0  0
    0.0988    2.8101   -4.9527 H   0  0  0  0  0  0  0  0  0  0  0  0
    1.2729    1.6779   -3.5397 C   0  0  0  0  0  0  0  0  0  0  0  0
    2.2151    2.1228   -3.8459 H   0  0  0  0  0  0  0  0  0  0  0  0
    1.2498    0.7208   -2.5193 C   0  0  0  0  0  0  0  0  0  0  0  0
    2.1833    0.4333   -2.0456 H   0  0  0  0  0  0  0  0  0  0  0  0
   -1.0823    0.9900    0.4515 C   0  0  0  0  0  0  0  0  0  0  0  0
   -2.1312    1.4918    0.0580 O   0  0  0  0  0  0  0  0  0  0  0  0
   -0.2888    1.7140    1.3233 N   0  0  0  0  0  0  0  0  0  0  0  0
    0.5402    1.2596    1.6941 H   0  0  0  0  0  0  0  0  0  0  0  0
   -0.5511    3.1031    1.6793 C   0  0  0  0  0  0  0  0  0  0  0  0
   -1.5332    3.1988    2.1544 H   0  0  0  0  0  0  0  0  0  0  0  0
    0.2075    3.4638    2.3804 H   0  0  0  0  0  0  0  0  0  0  0  0
   -0.5275    3.7376    0.7869 H   0  0  0  0  0  0  0  0  0  0  0  0
  1  2  1  0  0  0  0
  2  3  1  0  0  0  0
  2  4  1  0  0  0  0
  2  5  1  0  0  0  0
  5  6  2  0  0  0  0
  5  7  1  0  0  0  0
  7  8  1  0  0  0  0
  7  9  1  0  0  0  0
  9 10  1  0  0  0  0
  9 11  1  0  0  0  0
  9 25  1  0  0  0  0
 11 12  1  0  0  0  0
 11 13  1  0  0  0  0
 11 14  1  0  0  0  0
 14 15  1  0  0  0  0
 14 23  2  0  0  0  0
 15 16  1  0  0  0  0
 15 17  2  0  0  0  0
 17 18  1  0  0  0  0
 17 19  1  0  0  0  0
 19 20  1  0  0  0  0
 19 21  2  0  0  0  0
 21 22  1  0  0  0  0
 21 23  1  0  0  0  0
 23 24  1  0  0  0  0
 25 26  2  0  0  0  0
 25 27  1  0  0  0  0
 27 28  1  0  0  0  0
 27 29  1  0  0  0  0
 29 30  1  0  0  0  0
 29 31  1  0  0  0  0
 29 32  1  0  0  0  0
M  END
$$$$

  -OEChem-04042216033D

 32 32  0     1  0  0  0  0  0999 V2000
   -3.6018   -4.0080    1.6251 H   0  0  0  0  0  0  0  0  0  0  0  0
   -3.6504   -3.0814    1.0461 C   0  0  0  0  0  0  0  0  0  0  0  0
   -4.3257   -2.3859    1.5505 H   0  0  0  0  0  0  0  0  0  0  0  0
   -4.0456   -3.3066    0.0525 H   0  0  0  0  0  0  0  0  0  0  0  0
   -2.2690   -2.4656    0.9258 C   0  0  0  0  0  0  0  0  0  0  0  0
   -1.3008   -3.0372    1.4030 O   0  0  0  0  0  0  0  0  0  0  0  0
   -2.1144   -1.2583    0.2765 N   0  0  0  0  0  0  0  0  0  0  0  0
   -2.9641   -0.7682    0.0014 H   0  0  0  0  0  0  0  0  0  0  0  0
   -0.8680   -0.4771    0.2437 C   0  0  1  0  0  0  0  0  0  0  0  0
   -0.2772   -0.8007    1.1067 H   0  0  0  0  0  0  0  0  0  0  0  0
   -0.0114   -0.8357   -0.9968 C   0  0  0  0  0  0  0  0  0  0  0  0
    1.0159   -0.9789   -0.6473 H   0  0  0  0  0  0  0  0  0  0  0  0
   -0.3410   -1.8021   -1.3916 H   0  0  0  0  0  0  0  0  0  0  0  0
    0.0144    0.1584   -2.1428 C   0  0  0  0  0  0  0  0  0  0  0  0
   -1.1549    0.7674   -2.6273 C   0  0  0  0  0  0  0  0  0  0  0  0
   -2.1201    0.5219   -2.1952 H   0  0  0  0  0  0  0  0  0  0  0  0
   -1.1006    1.6937   -3.6737 C   0  0  0  0  0  0  0  0  0  0  0  0
   -2.0143    2.1599   -4.0303 H   0  0  0  0  0  0  0  0  0  0  0  0
    0.1262    2.0192   -4.2572 C   0  0  0  0  0  0  0  0  0  0  0  0
    0.1683    2.7384   -5.0698 H   0  0  0  0  0  0  0  0  0  0  0  0
    1.2973    1.4152   -3.7928 C   0  0  0  0  0  0  0  0  0  0  0  0
    2.2520    1.6630   -4.2472 H   0  0  0  0  0  0  0  0  0  0  0  0
    1.2400    0.4917   -2.7432 C   0  0  0  0  0  0  0  0  0  0  0  0
    2.1614    0.0333   -2.3974 H   0  0  0  0  0  0  0  0  0  0  0  0
   -1.1115    1.0260    0.5056 C   0  0  0  0  0  0  0  0  0  0  0  0
   -2.1799    1.5369    0.1835 O   0  0  0  0  0  0  0  0  0  0  0  0
   -0.2854    1.7206    1.3712 N   0  0  0  0  0  0  0  0  0  0  0  0
    0.5613    1.2568    1.6869 H   0  0  0  0  0  0  0  0  0  0  0  0
   -0.5310    3.0970    1.7844 C   0  0  0  0  0  0  0  0  0  0  0  0
   -1.4889    3.1754    2.3091 H   0  0  0  0  0  0  0  0  0  0  0  0
    0.2607    3.4359    2.4593 H   0  0  0  0  0  0  0  0  0  0  0  0
   -0.5507    3.7599    0.9131 H   0  0  0  0  0  0  0  0  0  0  0  0
  1  2  1  0  0  0  0
  2  3  1  0  0  0  0
  2  4  1  0  0  0  0
  2  5  1  0  0  0  0
  5  6  2  0  0  0  0
  5  7  1  0  0  0  0
  7  8  1  0  0  0  0
  7  9  1  0  0  0  0
  9 10  1  0  0  0  0
  9 11  1  0  0  0  0
  9 25  1  0  0  0  0
 11 12  1  0  0  0  0
 11 13  1  0  0  0  0
 11 14  1  0  0  0  0
 14 15  1  0  0  0  0
 14 23  2  0  0  0  0
 15 16  1  0  0  0  0
 15 17  2  0  0  0  0
 17 18  1  0  0  0  0
 17 19  1  0  0  0  0
 19 20  1  0  0  0  0
 19 21  2  0  0  0  0
 21 22  1  0  0  0  0
 21 23  1  0  0  0  0
 23 24  1  0  0  0  0
 25 26  2  0  0  0  0
 25 27  1  0  0  0  0
 27 28  1  0  0  0  0
 27 29  1  0  0  0  0
 29 30  1  0  0  0  0
 29 31  1  0  0  0  0
 29 32  1  0  0  0  0
M  END
$$$$

  -OEChem-04042216033D

 32 32  0     1  0  0  0  0  0999 V2000
   -3.5223   -4.0683    1.5815 H   0  0  0  0  0  0  0  0  0  0  0  0
   -3.6125   -3.1170    1.0495 C   0  0  0  0  0  0  0  0  0  0  0  0
   -4.2878   -2.4644    1.6080 H   0  0  0  0  0  0  0  0  0  0  0  0
   -4.0345   -3.3049    0.0593 H   0  0  0  0  0  0  0  0  0  0  0  0
   -2.2510   -2.4614    0.9152 C   0  0  0  0  0  0  0  0  0  0  0  0
   -1.2561   -3.0278    1.3410 O   0  0  0  0  0  0  0  0  0  0  0  0
   -2.1421   -1.2293    0.3038 N   0  0  0  0  0  0  0  0  0  0  0  0
   -3.0096   -0.7513    0.0652 H   0  0  0  0  0  0  0  0  0  0  0  0
   -0.9112   -0.4257    0.2445 C   0  0  1  0  0  0  0  0  0  0  0  0
   -0.3043   -0.7616    1.0916 H   0  0  0  0  0  0  0  0  0  0  0  0
   -0.0560   -0.7760   -1.0009 C   0  0  0  0  0  0  0  0  0  0  0  0
    0.9748   -0.8883   -0.6496 H   0  0  0  0  0  0  0  0  0  0  0  0
   -0.3648   -1.7589   -1.3710 H   0  0  0  0  0  0  0  0  0  0  0  0
   -0.0300    0.1765   -2.1851 C   0  0  0  0  0  0  0  0  0  0  0  0
   -1.1086    1.0044   -2.5429 C   0  0  0  0  0  0  0  0  0  0  0  0
   -2.0545    0.9474   -2.0163 H   0  0  0  0  0  0  0  0  0  0  0  0
   -1.0072    1.8956   -3.6159 C   0  0  0  0  0  0  0  0  0  0  0  0
   -1.8524    2.5265   -3.8744 H   0  0  0  0  0  0  0  0  0  0  0  0
    0.1747    1.9701   -4.3557 C   0  0  0  0  0  0  0  0  0  0  0  0
    0.2531    2.6627   -5.1885 H   0  0  0  0  0  0  0  0  0  0  0  0
    1.2519    1.1458   -4.0236 C   0  0  0  0  0  0  0  0  0  0  0  0
    2.1712    1.1960   -4.5995 H   0  0  0  0  0  0  0  0  0  0  0  0
    1.1477    0.2578   -2.9476 C   0  0  0  0  0  0  0  0  0  0  0  0
    1.9979   -0.3718   -2.7034 H   0  0  0  0  0  0  0  0  0  0  0  0
   -1.1398    1.0679    0.5664 C   0  0  0  0  0  0  0  0  0  0  0  0
   -2.2306    1.5818    0.3380 O   0  0  0  0  0  0  0  0  0  0  0  0
   -0.2714    1.7324    1.4143 N   0  0  0  0  0  0  0  0  0  0  0  0
    0.5990    1.2673    1.6549 H   0  0  0  0  0  0  0  0  0  0  0  0
   -0.5075    3.0835    1.9086 C   0  0  0  0  0  0  0  0  0  0  0  0
   -1.4207    3.1169    2.5122 H   0  0  0  0  0  0  0  0  0  0  0  0
    0.3304    3.4095    2.5322 H   0  0  0  0  0  0  0  0  0  0  0  0
   -0.6103    3.7846    1.0735 H   0  0  0  0  0  0  0  0  0  0  0  0
  1  2  1  0  0  0  0
  2  3  1  0  0  0  0
  2  4  1  0  0  0  0
  2  5  1  0  0  0  0
  5  6  2  0  0  0  0
  5  7  1  0  0  0  0
  7  8  1  0  0  0  0
  7  9  1  0  0  0  0
  9 10  1  0  0  0  0
  9 11  1  0  0  0  0
  9 25  1  0  0  0  0
 11 12  1  0  0  0  0
 11 13  1  0  0  0  0
 11 14  1  0  0  0  0
 14 15  1  0  0  0  0
 14 23  2  0  0  0  0
 15 16  1  0  0  0  0
 15 17  2  0  0  0  0
 17 18  1  0  0  0  0
 17 19  1  0  0  0  0
 19 20  1  0  0  0  0
 19 21  2  0  0  0  0
 21 22  1  0  0  0  0
 21 23  1  0  0  0  0
 23 24  1  0  0  0  0
 25 26  2  0  0  0  0
 25 27  1  0  0  0  0
 27 28  1  0  0  0  0
 27 29  1  0  0  0  0
 29 30  1  0  0  0  0
 29 31  1  0  0  0  0
 29 32  1  0  0  0  0
M  END
$$$$

  -OEChem-04042216033D

 32 32  0     1  0  0  0  0  0999 V2000
   -3.4333   -4.1227    1.5376 H   0  0  0  0  0  0  0  0  0  0  0  0
   -3.5602   -3.1663    1.0225 C   0  0  0  0  0  0  0  0  0  0  0  0
   -4.2624   -2.5511    1.5903 H   0  0  0  0  0  0  0  0  0  0  0  0
   -3.9720   -3.3537    0.0279 H   0  0  0  0  0  0  0  0  0  0  0  0
   -2.2256   -2.4544    0.9037 C   0  0  0  0  0  0  0  0  0  0  0  0
   -1.2104   -2.9863    1.3263 O   0  0  0  0  0  0  0  0  0  0  0  0
   -2.1645   -1.2103    0.3097 N   0  0  0  0  0  0  0  0  0  0  0  0
   -3.0497   -0.7691    0.0656 H   0  0  0  0  0  0  0  0  0  0  0  0
   -0.9687   -0.3539    0.2638 C   0  0  1  0  0  0  0  0  0  0  0  0
   -0.3715   -0.6689    1.1258 H   0  0  0  0  0  0  0  0  0  0  0  0
   -0.0594   -0.6895   -0.9490 C   0  0  0  0  0  0  0  0  0  0  0  0
    0.9615   -0.7386   -0.5564 H   0  0  0  0  0  0  0  0  0  0  0  0
   -0.3072   -1.7003   -1.2897 H   0  0  0  0  0  0  0  0  0  0  0  0
   -0.0013    0.2022   -2.1821 C   0  0  0  0  0  0  0  0  0  0  0  0
   -0.9316    1.2064   -2.5085 C   0  0  0  0  0  0  0  0  0  0  0  0
   -1.8322    1.3609   -1.9306 H   0  0  0  0  0  0  0  0  0  0  0  0
   -0.7594    2.0087   -3.6417 C   0  0  0  0  0  0  0  0  0  0  0  0
   -1.4963    2.7706   -3.8785 H   0  0  0  0  0  0  0  0  0  0  0  0
    0.3479    1.8253   -4.4715 C   0  0  0  0  0  0  0  0  0  0  0  0
    0.4796    2.4483   -5.3511 H   0  0  0  0  0  0  0  0  0  0  0  0
    1.2796    0.8315   -4.1686 C   0  0  0  0  0  0  0  0  0  0  0  0
    2.1420    0.6809   -4.8114 H   0  0  0  0  0  0  0  0  0  0  0  0
    1.1028    0.0306   -3.0357 C   0  0  0  0  0  0  0  0  0  0  0  0
    1.8427   -0.7336   -2.8157 H   0  0  0  0  0  0  0  0  0  0  0  0
   -1.2490    1.1260    0.6027 C   0  0  0  0  0  0  0  0  0  0  0  0
   -2.3610    1.5996    0.3913 O   0  0  0  0  0  0  0  0  0  0  0  0
   -0.4035    1.8093    1.4590 N   0  0  0  0  0  0  0  0  0  0  0  0
    0.4801    1.3687    1.6977 H   0  0  0  0  0  0  0  0  0  0  0  0
   -0.6943    3.1354    1.9908 C   0  0  0  0  0  0  0  0  0  0  0  0
   -1.5990    3.1113    2.6072 H   0  0  0  0  0  0  0  0  0  0  0  0
    0.1369    3.4844    2.6110 H   0  0  0  0  0  0  0  0  0  0  0  0
   -0.8415    3.8522    1.1760 H   0  0  0  0  0  0  0  0  0  0  0  0
  1  2  1  0  0  0  0
  2  3  1  0  0  0  0
  2  4  1  0  0  0  0
  2  5  1  0  0  0  0
  5  6  2  0  0  0  0
  5  7  1  0  0  0  0
  7  8  1  0  0  0  0
  7  9  1  0  0  0  0
  9 10  1  0  0  0  0
  9 11  1  0  0  0  0
  9 25  1  0  0  0  0
 11 12  1  0  0  0  0
 11 13  1  0  0  0  0
 11 14  1  0  0  0  0
 14 15  1  0  0  0  0
 14 23  2  0  0  0  0
 15 16  1  0  0  0  0
 15 17  2  0  0  0  0
 17 18  1  0  0  0  0
 17 19  1  0  0  0  0
 19 20  1  0  0  0  0
 19 21  2  0  0  0  0
 21 22  1  0  0  0  0
 21 23  1  0  0  0  0
 23 24  1  0  0  0  0
 25 26  2  0  0  0  0
 25 27  1  0  0  0  0
 27 28  1  0  0  0  0
 27 29  1  0  0  0  0
 29 30  1  0  0  0  0
 29 31  1  0  0  0  0
 29 32  1  0  0  0  0
M  END
$$$$

  -OEChem-04042216033D

 32 32  0     1  0  0  0  0  0999 V2000
   -3.6501   -4.0005    1.4549 H   0  0  0  0  0  0  0  0  0  0  0  0
   -3.7259   -3.0115    0.9940 C   0  0  0  0  0  0  0  0  0  0  0  0
   -4.3595   -2.3788    1.6205 H   0  0  0  0  0  0  0  0  0  0  0  0
   -4.1876   -3.1163    0.0092 H   0  0  0  0  0  0  0  0  0  0  0  0
   -2.3482   -2.3906    0.8558 C   0  0  0  0  0  0  0  0  0  0  0  0
   -1.3587   -3.0154    1.2060 O   0  0  0  0  0  0  0  0  0  0  0  0
   -2.2188   -1.1229    0.3265 N   0  0  0  0  0  0  0  0  0  0  0  0
   -3.0772   -0.6077    0.1367 H   0  0  0  0  0  0  0  0  0  0  0  0
   -0.9657   -0.3532    0.2712 C   0  0  1  0  0  0  0  0  0  0  0  0
   -0.3497   -0.7556    1.0821 H   0  0  0  0  0  0  0  0  0  0  0  0
   -0.1539   -0.6885   -1.0113 C   0  0  0  0  0  0  0  0  0  0  0  0
    0.8780   -0.8379   -0.6775 H   0  0  0  0  0  0  0  0  0  0  0  0
   -0.5012   -1.6613   -1.3750 H   0  0  0  0  0  0  0  0  0  0  0  0
   -0.0576    0.2320   -2.2251 C   0  0  0  0  0  0  0  0  0  0  0  0
   -0.6658    1.4932   -2.3889 C   0  0  0  0  0  0  0  0  0  0  0  0
   -1.3347    1.9238   -1.6606 H   0  0  0  0  0  0  0  0  0  0  0  0
   -0.4600    2.2497   -3.5482 C   0  0  0  0  0  0  0  0  0  0  0  0
   -0.9458    3.2153   -3.6536 H   0  0  0  0  0  0  0  0  0  0  0  0
    0.3586    1.7672   -4.5696 C   0  0  0  0  0  0  0  0  0  0  0  0
    0.5156    2.3563   -5.4684 H   0  0  0  0  0  0  0  0  0  0  0  0
    0.9689    0.5211   -4.4309 C   0  0  0  0  0  0  0  0  0  0  0  0
    1.6059    0.1365   -5.2219 H   0  0  0  0  0  0  0  0  0  0  0  0
    0.7602   -0.2321   -3.2715 C   0  0  0  0  0  0  0  0  0  0  0  0
    1.2486   -1.1984   -3.1845 H   0  0  0  0  0  0  0  0  0  0  0  0
   -1.1467    1.1150    0.7040 C   0  0  0  0  0  0  0  0  0  0  0  0
   -2.2323    1.6650    0.5453 O   0  0  0  0  0  0  0  0  0  0  0  0
   -0.2345    1.7041    1.5614 N   0  0  0  0  0  0  0  0  0  0  0  0
    0.6224    1.1953    1.7589 H   0  0  0  0  0  0  0  0  0  0  0  0
   -0.4350    3.0104    2.1773 C   0  0  0  0  0  0  0  0  0  0  0  0
   -1.3101    2.9934    2.8354 H   0  0  0  0  0  0  0  0  0  0  0  0
    0.4405    3.2856    2.7733 H   0  0  0  0  0  0  0  0  0  0  0  0
   -0.5849    3.7773    1.4099 H   0  0  0  0  0  0  0  0  0  0  0  0
  1  2  1  0  0  0  0
  2  3  1  0  0  0  0
  2  4  1  0  0  0  0
  2  5  1  0  0  0  0
  5  6  2  0  0  0  0
  5  7  1  0  0  0  0
  7  8  1  0  0  0  0
  7  9  1  0  0  0  0
  9 10  1  0  0  0  0
  9 11  1  0  0  0  0
  9 25  1  0  0  0  0
 11 12  1  0  0  0  0
 11 13  1  0  0  0  0
 11 14  1  0  0  0  0
 14 15  1  0  0  0  0
 14 23  2  0  0  0  0
 15 16  1  0  0  0  0
 15 17  2  0  0  0  0
 17 18  1  0  0  0  0
 17 19  1  0  0  0  0
 19 20  1  0  0  0  0
 19 21  2  0  0  0  0
 21 22  1  0  0  0  0
 21 23  1  0  0  0  0
 23 24  1  0  0  0  0
 25 26  2  0  0  0  0
 25 27  1  0  0  0  0
 27 28  1  0  0  0  0
 27 29  1  0  0  0  0
 29 30  1  0  0  0  0
 29 31  1  0  0  0  0
 29 32  1  0  0  0  0
M  END
$$$$

  -OEChem-04042216033D

 32 32  0     1  0  0  0  0  0999 V2000
   -3.5234   -4.0869    1.3782 H   0  0  0  0  0  0  0  0  0  0  0  0
   -3.6082   -3.0980    0.9191 C   0  0  0  0  0  0  0  0  0  0  0  0
   -4.2825   -2.4859    1.5230 H   0  0  0  0  0  0  0  0  0  0  0  0
   -4.0281   -3.2099   -0.0835 H   0  0  0  0  0  0  0  0  0  0  0  0
   -2.2437   -2.4399    0.8372 C   0  0  0  0  0  0  0  0  0  0  0  0
   -1.2522   -3.0384    1.2253 O   0  0  0  0  0  0  0  0  0  0  0  0
   -2.1273   -1.1674    0.3177 N   0  0  0  0  0  0  0  0  0  0  0  0
   -2.9890   -0.6737    0.0882 H   0  0  0  0  0  0  0  0  0  0  0  0
   -0.8877   -0.3747    0.2921 C   0  0  1  0  0  0  0  0  0  0  0  0
   -0.2529   -0.7708    1.0915 H   0  0  0  0  0  0  0  0  0  0  0  0
   -0.0989   -0.6621   -1.0189 C   0  0  0  0  0  0  0  0  0  0  0  0
    0.9408   -0.8128   -0.7116 H   0  0  0  0  0  0  0  0  0  0  0  0
   -0.4467   -1.6295   -1.3972 H   0  0  0  0  0  0  0  0  0  0  0  0
   -0.0214    0.2902   -2.2130 C   0  0  0  0  0  0  0  0  0  0  0  0
   -0.3687    1.6581   -2.2497 C   0  0  0  0  0  0  0  0  0  0  0  0
   -0.7418    2.2035   -1.3972 H   0  0  0  0  0  0  0  0  0  0  0  0
   -0.2382    2.4058   -3.4258 C   0  0  0  0  0  0  0  0  0  0  0  0
   -0.5168    3.4554   -3.4299 H   0  0  0  0  0  0  0  0  0  0  0  0
    0.2458    1.8121   -4.5913 C   0  0  0  0  0  0  0  0  0  0  0  0
    0.3442    2.3953   -5.5022 H   0  0  0  0  0  0  0  0  0  0  0  0
    0.6016    0.4644   -4.5783 C   0  0  0  0  0  0  0  0  0  0  0  0
    0.9808   -0.0069   -5.4803 H   0  0  0  0  0  0  0  0  0  0  0  0
    0.4686   -0.2805   -3.4029 C   0  0  0  0  0  0  0  0  0  0  0  0
    0.7541   -1.3282   -3.4206 H   0  0  0  0  0  0  0  0  0  0  0  0
   -1.1465    1.0762    0.7347 C   0  0  0  0  0  0  0  0  0  0  0  0
   -2.2243    1.6085    0.4885 O   0  0  0  0  0  0  0  0  0  0  0  0
   -0.2879    1.6970    1.6240 N   0  0  0  0  0  0  0  0  0  0  0  0
    0.5527    1.1948    1.8955 H   0  0  0  0  0  0  0  0  0  0  0  0
   -0.5638    2.9910    2.2362 C   0  0  0  0  0  0  0  0  0  0  0  0
   -1.4604    2.9349    2.8623 H   0  0  0  0  0  0  0  0  0  0  0  0
    0.2780    3.2995    2.8633 H   0  0  0  0  0  0  0  0  0  0  0  0
   -0.7188    3.7544    1.4666 H   0  0  0  0  0  0  0  0  0  0  0  0
  1  2  1  0  0  0  0
  2  3  1  0  0  0  0
  2  4  1  0  0  0  0
  2  5  1  0  0  0  0
  5  6  2  0  0  0  0
  5  7  1  0  0  0  0
  7  8  1  0  0  0  0
  7  9  1  0  0  0  0
  9 10  1  0  0  0  0
  9 11  1  0  0  0  0
  9 25  1  0  0  0  0
 11 12  1  0  0  0  0
 11 13  1  0  0  0  0
 11 14  1  0  0  0  0
 14 15  1  0  0  0  0
 14 23  2  0  0  0  0
 15 16  1  0  0  0  0
 15 17  2  0  0  0  0
 17 18  1  0  0  0  0
 17 19  1  0  0  0  0
 19 20  1  0  0  0  0
 19 21  2  0  0  0  0
 21 22  1  0  0  0  0
 21 23  1  0  0  0  0
 23 24  1  0  0  0  0
 25 26  2  0  0  0  0
 25 27  1  0  0  0  0
 27 28  1  0  0  0  0
 27 29  1  0  0  0  0
 29 30  1  0  0  0  0
 29 31  1  0  0  0  0
 29 32  1  0  0  0  0
M  END
$$$$

  -OEChem-04042216033D

 32 32  0     1  0  0  0  0  0999 V2000
   -3.5881   -4.0426    1.3783 H   0  0  0  0  0  0  0  0  0  0  0  0
   -3.6351   -3.0644    0.8914 C   0  0  0  0  0  0  0  0  0  0  0  0
   -4.3265   -2.4268    1.4474 H   0  0  0  0  0  0  0  0  0  0  0  0
   -4.0101   -3.1948   -0.1265 H   0  0  0  0  0  0  0  0  0  0  0  0
   -2.2576   -2.4293    0.8584 C   0  0  0  0  0  0  0  0  0  0  0  0
   -1.2980   -3.0254    1.3227 O   0  0  0  0  0  0  0  0  0  0  0  0
   -2.0937   -1.1784    0.3013 N   0  0  0  0  0  0  0  0  0  0  0  0
   -2.9316   -0.6852   -0.0048 H   0  0  0  0  0  0  0  0  0  0  0  0
   -0.8401   -0.4081    0.3059 C   0  0  1  0  0  0  0  0  0  0  0  0
   -0.2250   -0.7906    1.1271 H   0  0  0  0  0  0  0  0  0  0  0  0
   -0.0472   -0.7237   -0.9970 C   0  0  0  0  0  0  0  0  0  0  0  0
    0.9886   -0.8913   -0.6855 H   0  0  0  0  0  0  0  0  0  0  0  0
   -0.4070   -1.6874   -1.3722 H   0  0  0  0  0  0  0  0  0  0  0  0
    0.0478    0.2425   -2.1788 C   0  0  0  0  0  0  0  0  0  0  0  0
    0.0108    1.6518   -2.1168 C   0  0  0  0  0  0  0  0  0  0  0  0
   -0.0416    2.1978   -1.1859 H   0  0  0  0  0  0  0  0  0  0  0  0
    0.0808    2.4295   -3.2781 C   0  0  0  0  0  0  0  0  0  0  0  0
    0.0501    3.5125   -3.2037 H   0  0  0  0  0  0  0  0  0  0  0  0
    0.1934    1.8213   -4.5284 C   0  0  0  0  0  0  0  0  0  0  0  0
    0.2467    2.4272   -5.4280 H   0  0  0  0  0  0  0  0  0  0  0  0
    0.2406    0.4304   -4.6146 C   0  0  0  0  0  0  0  0  0  0  0  0
    0.3300   -0.0516   -5.5836 H   0  0  0  0  0  0  0  0  0  0  0  0
    0.1693   -0.3440   -3.4528 C   0  0  0  0  0  0  0  0  0  0  0  0
    0.2054   -1.4248   -3.5516 H   0  0  0  0  0  0  0  0  0  0  0  0
   -1.1222    1.0557    0.6883 C   0  0  0  0  0  0  0  0  0  0  0  0
   -2.1546    1.6041    0.3173 O   0  0  0  0  0  0  0  0  0  0  0  0
   -0.3104    1.7054    1.6011 N   0  0  0  0  0  0  0  0  0  0  0  0
    0.4876    1.1944    1.9679 H   0  0  0  0  0  0  0  0  0  0  0  0
   -0.5998    3.0325    2.1310 C   0  0  0  0  0  0  0  0  0  0  0  0
   -1.5329    3.0209    2.7040 H   0  0  0  0  0  0  0  0  0  0  0  0
    0.2088    3.3596    2.7918 H   0  0  0  0  0  0  0  0  0  0  0  0
   -0.6943    3.7592    1.3172 H   0  0  0  0  0  0  0  0  0  0  0  0
  1  2  1  0  0  0  0
  2  3  1  0  0  0  0
  2  4  1  0  0  0  0
  2  5  1  0  0  0  0
  5  6  2  0  0  0  0
  5  7  1  0  0  0  0
  7  8  1  0  0  0  0
  7  9  1  0  0  0  0
  9 10  1  0  0  0  0
  9 11  1  0  0  0  0
  9 25  1  0  0  0  0
 11 12  1  0  0  0  0
 11 13  1  0  0  0  0
 11 14  1  0  0  0  0
 14 15  1  0  0  0  0
 14 23  2  0  0  0  0
 15 16  1  0  0  0  0
 15 17  2  0  0  0  0
 17 18  1  0  0  0  0
 17 19  1  0  0  0  0
 19 20  1  0  0  0  0
 19 21  2  0  0  0  0
 21 22  1  0  0  0  0
 21 23  1  0  0  0  0
 23 24  1  0  0  0  0
 25 26  2  0  0  0  0
 25 27  1  0  0  0  0
 27 28  1  0  0  0  0
 27 29  1  0  0  0  0
 29 30  1  0  0  0  0
 29 31  1  0  0  0  0
 29 32  1  0  0  0  0
M  END
$$$$

  -OEChem-04042216033D

 32 32  0     1  0  0  0  0  0999 V2000
   -3.6494   -3.9772    1.4719 H   0  0  0  0  0  0  0  0  0  0  0  0
   -3.6595   -3.0385    0.9110 C   0  0  0  0  0  0  0  0  0  0  0  0
   -4.3630   -2.3513    1.3874 H   0  0  0  0  0  0  0  0  0  0  0  0
   -3.9933   -3.2411   -0.1095 H   0  0  0  0  0  0  0  0  0  0  0  0
   -2.2714   -2.4265    0.8896 C   0  0  0  0  0  0  0  0  0  0  0  0
   -1.3355   -3.0150    1.4086 O   0  0  0  0  0  0  0  0  0  0  0  0
   -2.0698   -1.2056    0.2807 N   0  0  0  0  0  0  0  0  0  0  0  0
   -2.8899   -0.7114   -0.0695 H   0  0  0  0  0  0  0  0  0  0  0  0
   -0.8056   -0.4533    0.2963 C   0  0  1  0  0  0  0  0  0  0  0  0
   -0.2092   -0.8102    1.1421 H   0  0  0  0  0  0  0  0  0  0  0  0
   -0.0041   -0.8100   -0.9894 C   0  0  0  0  0  0  0  0  0  0  0  0
    1.0287   -0.9838   -0.6721 H   0  0  0  0  0  0  0  0  0  0  0  0
   -0.3680   -1.7732   -1.3621 H   0  0  0  0  0  0  0  0  0  0  0  0
    0.0868    0.1706   -2.1536 C   0  0  0  0  0  0  0  0  0  0  0  0
    0.3528    1.5471   -2.0175 C   0  0  0  0  0  0  0  0  0  0  0  0
    0.5732    1.9900   -1.0545 H   0  0  0  0  0  0  0  0  0  0  0  0
    0.3828    2.3903   -3.1334 C   0  0  0  0  0  0  0  0  0  0  0  0
    0.5911    3.4485   -3.0064 H   0  0  0  0  0  0  0  0  0  0  0  0
    0.1479    1.8752   -4.4092 C   0  0  0  0  0  0  0  0  0  0  0  0
    0.1691    2.5310   -5.2745 H   0  0  0  0  0  0  0  0  0  0  0  0
   -0.1136    0.5136   -4.5667 C   0  0  0  0  0  0  0  0  0  0  0  0
   -0.2978    0.1073   -5.5567 H   0  0  0  0  0  0  0  0  0  0  0  0
   -0.1442   -0.3265   -3.4490 C   0  0  0  0  0  0  0  0  0  0  0  0
   -0.3580   -1.3805   -3.5984 H   0  0  0  0  0  0  0  0  0  0  0  0
   -1.0924    1.0304    0.6006 C   0  0  0  0  0  0  0  0  0  0  0  0
   -2.1002    1.5703    0.1571 O   0  0  0  0  0  0  0  0  0  0  0  0
   -0.3122    1.7175    1.5144 N   0  0  0  0  0  0  0  0  0  0  0  0
    0.4557    1.2147    1.9503 H   0  0  0  0  0  0  0  0  0  0  0  0
   -0.6036    3.0771    1.9529 C   0  0  0  0  0  0  0  0  0  0  0  0
   -1.5793    3.1191    2.4485 H   0  0  0  0  0  0  0  0  0  0  0  0
    0.1584    3.4185    2.6600 H   0  0  0  0  0  0  0  0  0  0  0  0
   -0.6125    3.7618    1.0981 H   0  0  0  0  0  0  0  0  0  0  0  0
  1  2  1  0  0  0  0
  2  3  1  0  0  0  0
  2  4  1  0  0  0  0
  2  5  1  0  0  0  0
  5  6  2  0  0  0  0
  5  7  1  0  0  0  0
  7  8  1  0  0  0  0
  7  9  1  0  0  0  0
  9 10  1  0  0  0  0
  9 11  1  0  0  0  0
  9 25  1  0  0  0  0
 11 12  1  0  0  0  0
 11 13  1  0  0  0  0
 11 14  1  0  0  0  0
 14 15  1  0  0  0  0
 14 23  2  0  0  0  0
 15 16  1  0  0  0  0
 15 17  2  0  0  0  0
 17 18  1  0  0  0  0
 17 19  1  0  0  0  0
 19 20  1  0  0  0  0
 19 21  2  0  0  0  0
 21 22  1  0  0  0  0
 21 23  1  0  0  0  0
 23 24  1  0  0  0  0
 25 26  2  0  0  0  0
 25 27  1  0  0  0  0
 27 28  1  0  0  0  0
 27 29  1  0  0  0  0
 29 30  1  0  0  0  0
 29 31  1  0  0  0  0
 29 32  1  0  0  0  0
M  END
$$$$

  -OEChem-04042216033D

 32 32  0     1  0  0  0  0  0999 V2000
   -3.6778   -3.9505    1.5433 H   0  0  0  0  0  0  0  0  0  0  0  0
   -3.6766   -3.0250    0.9608 C   0  0  0  0  0  0  0  0  0  0  0  0
   -4.3717   -2.3184    1.4209 H   0  0  0  0  0  0  0  0  0  0  0  0
   -4.0126   -3.2471   -0.0549 H   0  0  0  0  0  0  0  0  0  0  0  0
   -2.2811   -2.4305    0.9259 C   0  0  0  0  0  0  0  0  0  0  0  0
   -1.3579   -3.0035    1.4834 O   0  0  0  0  0  0  0  0  0  0  0  0
   -2.0599   -1.2411    0.2642 N   0  0  0  0  0  0  0  0  0  0  0  0
   -2.8725   -0.7513   -0.1089 H   0  0  0  0  0  0  0  0  0  0  0  0
   -0.7911   -0.4972    0.2704 C   0  0  1  0  0  0  0  0  0  0  0  0
   -0.2058   -0.8241    1.1358 H   0  0  0  0  0  0  0  0  0  0  0  0
    0.0234   -0.8833   -0.9941 C   0  0  0  0  0  0  0  0  0  0  0  0
    1.0554   -1.0551   -0.6732 H   0  0  0  0  0  0  0  0  0  0  0  0
   -0.3390   -1.8454   -1.3712 H   0  0  0  0  0  0  0  0  0  0  0  0
    0.0899    0.1159   -2.1359 C   0  0  0  0  0  0  0  0  0  0  0  0
    0.6308    1.4049   -1.9804 C   0  0  0  0  0  0  0  0  0  0  0  0
    1.0565    1.7144   -1.0321 H   0  0  0  0  0  0  0  0  0  0  0  0
    0.6481    2.3088   -3.0477 C   0  0  0  0  0  0  0  0  0  0  0  0
    1.0677    3.3010   -2.9113 H   0  0  0  0  0  0  0  0  0  0  0  0
    0.1245    1.9372   -4.2883 C   0  0  0  0  0  0  0  0  0  0  0  0
    0.1351    2.6397   -5.1163 H   0  0  0  0  0  0  0  0  0  0  0  0
   -0.4160    0.6606   -4.4590 C   0  0  0  0  0  0  0  0  0  0  0  0
   -0.8268    0.3692   -5.4210 H   0  0  0  0  0  0  0  0  0  0  0  0
   -0.4340   -0.2409   -3.3893 C   0  0  0  0  0  0  0  0  0  0  0  0
   -0.8670   -1.2254   -3.5390 H   0  0  0  0  0  0  0  0  0  0  0  0
   -1.0702    1.0031    0.4990 C   0  0  0  0  0  0  0  0  0  0  0  0
   -2.0752    1.5239    0.0268 O   0  0  0  0  0  0  0  0  0  0  0  0
   -0.3007    1.7246    1.3952 N   0  0  0  0  0  0  0  0  0  0  0  0
    0.4559    1.2367    1.8659 H   0  0  0  0  0  0  0  0  0  0  0  0
   -0.5944    3.1017    1.7730 C   0  0  0  0  0  0  0  0  0  0  0  0
   -1.5641    3.1617    2.2782 H   0  0  0  0  0  0  0  0  0  0  0  0
    0.1749    3.4800    2.4531 H   0  0  0  0  0  0  0  0  0  0  0  0
   -0.6177    3.7451    0.8871 H   0  0  0  0  0  0  0  0  0  0  0  0
  1  2  1  0  0  0  0
  2  3  1  0  0  0  0
  2  4  1  0  0  0  0
  2  5  1  0  0  0  0
  5  6  2  0  0  0  0
  5  7  1  0  0  0  0
  7  8  1  0  0  0  0
  7  9  1  0  0  0  0
  9 10  1  0  0  0  0
  9 11  1  0  0  0  0
  9 25  1  0  0  0  0
 11 12  1  0  0  0  0
 11 13  1  0  0  0  0
 11 14  1  0  0  0  0
 14 15  1  0  0  0  0
 14 23  2  0  0  0  0
 15 16  1  0  0  0  0
 15 17  2  0  0  0  0
 17 18  1  0  0  0  0
 17 19  1  0  0  0  0
 19 20  1  0  0  0  0
 19 21  2  0  0  0  0
 21 22  1  0  0  0  0
 21 23  1  0  0  0  0
 23 24  1  0  0  0  0
 25 26  2  0  0  0  0
 25 27  1  0  0  0  0
 27 28  1  0  0  0  0
 27 29  1  0  0  0  0
 29 30  1  0  0  0  0
 29 31  1  0  0  0  0
 29 32  1  0  0  0  0
M  END
$$$$

  -OEChem-04042216033D

 32 32  0     1  0  0  0  0  0999 V2000
   -3.6934   -3.9404    1.6039 H   0  0  0  0  0  0  0  0  0  0  0  0
   -3.6859   -3.0322    0.9949 C   0  0  0  0  0  0  0  0  0  0  0  0
   -4.3813   -2.3104    1.4301 H   0  0  0  0  0  0  0  0  0  0  0  0
   -4.0169   -3.2829   -0.0158 H   0  0  0  0  0  0  0  0  0  0  0  0
   -2.2884   -2.4433    0.9501 C   0  0  0  0  0  0  0  0  0  0  0  0
   -1.3695   -3.0039    1.5272 O   0  0  0  0  0  0  0  0  0  0  0  0
   -2.0603   -1.2757    0.2526 N   0  0  0  0  0  0  0  0  0  0  0  0
   -2.8722   -0.7878   -0.1246 H   0  0  0  0  0  0  0  0  0  0  0  0
   -0.7917   -0.5320    0.2487 C   0  0  1  0  0  0  0  0  0  0  0  0
   -0.2151   -0.8363    1.1281 H   0  0  0  0  0  0  0  0  0  0  0  0
    0.0410   -0.9309   -0.9952 C   0  0  0  0  0  0  0  0  0  0  0  0
    1.0724   -1.0976   -0.6691 H   0  0  0  0  0  0  0  0  0  0  0  0
   -0.3151   -1.8911   -1.3827 H   0  0  0  0  0  0  0  0  0  0  0  0
    0.0792    0.0877   -2.1140 C   0  0  0  0  0  0  0  0  0  0  0  0
    0.8598    1.2517   -2.0120 C   0  0  0  0  0  0  0  0  0  0  0  0
    1.4641    1.4288   -1.1280 H   0  0  0  0  0  0  0  0  0  0  0  0
    0.8686    2.1958   -3.0441 C   0  0  0  0  0  0  0  0  0  0  0  0
    1.4733    3.0930   -2.9544 H   0  0  0  0  0  0  0  0  0  0  0  0
    0.0946    1.9873   -4.1890 C   0  0  0  0  0  0  0  0  0  0  0  0
    0.0979    2.7213   -4.9893 H   0  0  0  0  0  0  0  0  0  0  0  0
   -0.6894    0.8354   -4.2990 C   0  0  0  0  0  0  0  0  0  0  0  0
   -1.2975    0.6756   -5.1844 H   0  0  0  0  0  0  0  0  0  0  0  0
   -0.6973   -0.1078   -3.2658 C   0  0  0  0  0  0  0  0  0  0  0  0
   -1.3181   -0.9934   -3.3595 H   0  0  0  0  0  0  0  0  0  0  0  0
   -1.0589    0.9784    0.4253 C   0  0  0  0  0  0  0  0  0  0  0  0
   -2.0663    1.4862   -0.0565 O   0  0  0  0  0  0  0  0  0  0  0  0
   -0.2909    1.7213    1.3042 N   0  0  0  0  0  0  0  0  0  0  0  0
    0.4763    1.2506    1.7745 H   0  0  0  0  0  0  0  0  0  0  0  0
   -0.5638    3.1178    1.6202 C   0  0  0  0  0  0  0  0  0  0  0  0
   -1.5443    3.2179    2.0976 H   0  0  0  0  0  0  0  0  0  0  0  0
    0.1961    3.5067    2.3047 H   0  0  0  0  0  0  0  0  0  0  0  0
   -0.5511    3.7256    0.7091 H   0  0  0  0  0  0  0  0  0  0  0  0
  1  2  1  0  0  0  0
  2  3  1  0  0  0  0
  2  4  1  0  0  0  0
  2  5  1  0  0  0  0
  5  6  2  0  0  0  0
  5  7  1  0  0  0  0
  7  8  1  0  0  0  0
  7  9  1  0  0  0  0
  9 10  1  0  0  0  0
  9 11  1  0  0  0  0
  9 25  1  0  0  0  0
 11 12  1  0  0  0  0
 11 13  1  0  0  0  0
 11 14  1  0  0  0  0
 14 15  1  0  0  0  0
 14 23  2  0  0  0  0
 15 16  1  0  0  0  0
 15 17  2  0  0  0  0
 17 18  1  0  0  0  0
 17 19  1  0  0  0  0
 19 20  1  0  0  0  0
 19 21  2  0  0  0  0
 21 22  1  0  0  0  0
 21 23  1  0  0  0  0
 23 24  1  0  0  0  0
 25 26  2  0  0  0  0
 25 27  1  0  0  0  0
 27 28  1  0  0  0  0
 27 29  1  0  0  0  0
 29 30  1  0  0  0  0
 29 31  1  0  0  0  0
 29 32  1  0  0  0  0
M  END
$$$$

  -OEChem-04042216033D

 32 32  0     1  0  0  0  0  0999 V2000
   -3.6978   -3.9239    1.6559 H   0  0  0  0  0  0  0  0  0  0  0  0
   -3.6908   -3.0253    1.0326 C   0  0  0  0  0  0  0  0  0  0  0  0
   -4.3690   -2.2883    1.4698 H   0  0  0  0  0  0  0  0  0  0  0  0
   -4.0439   -3.2870    0.0322 H   0  0  0  0  0  0  0  0  0  0  0  0
   -2.2874   -2.4543    0.9532 C   0  0  0  0  0  0  0  0  0  0  0  0
   -1.3651   -3.0170    1.5226 O   0  0  0  0  0  0  0  0  0  0  0  0
   -2.0601   -1.2961    0.2402 N   0  0  0  0  0  0  0  0  0  0  0  0
   -2.8752   -0.8029   -0.1228 H   0  0  0  0  0  0  0  0  0  0  0  0
   -0.7918   -0.5518    0.2299 C   0  0  1  0  0  0  0  0  0  0  0  0
   -0.2173   -0.8460    1.1140 H   0  0  0  0  0  0  0  0  0  0  0  0
    0.0493   -0.9512   -1.0052 C   0  0  0  0  0  0  0  0  0  0  0  0
    1.0793   -1.1219   -0.6770 H   0  0  0  0  0  0  0  0  0  0  0  0
   -0.3089   -1.9058   -1.4044 H   0  0  0  0  0  0  0  0  0  0  0  0
    0.0706    0.0802   -2.1095 C   0  0  0  0  0  0  0  0  0  0  0  0
    1.0542    1.0819   -2.1381 C   0  0  0  0  0  0  0  0  0  0  0  0
    1.8183    1.1198   -1.3681 H   0  0  0  0  0  0  0  0  0  0  0  0
    1.0596    2.0423   -3.1554 C   0  0  0  0  0  0  0  0  0  0  0  0
    1.8226    2.8147   -3.1699 H   0  0  0  0  0  0  0  0  0  0  0  0
    0.0796    2.0106   -4.1519 C   0  0  0  0  0  0  0  0  0  0  0  0
    0.0807    2.7571   -4.9405 H   0  0  0  0  0  0  0  0  0  0  0  0
   -0.9064    1.0199   -4.1286 C   0  0  0  0  0  0  0  0  0  0  0  0
   -1.6737    0.9985   -4.8966 H   0  0  0  0  0  0  0  0  0  0  0  0
   -0.9104    0.0603   -3.1108 C   0  0  0  0  0  0  0  0  0  0  0  0
   -1.6868   -0.6982   -3.0938 H   0  0  0  0  0  0  0  0  0  0  0  0
   -1.0549    0.9626    0.3855 C   0  0  0  0  0  0  0  0  0  0  0  0
   -2.0719    1.4600   -0.0878 O   0  0  0  0  0  0  0  0  0  0  0  0
   -0.2870    1.7156    1.2556 N   0  0  0  0  0  0  0  0  0  0  0  0
    0.4984    1.2584    1.7087 H   0  0  0  0  0  0  0  0  0  0  0  0
   -0.5657    3.1129    1.5628 C   0  0  0  0  0  0  0  0  0  0  0  0
   -1.5490    3.2122    2.0344 H   0  0  0  0  0  0  0  0  0  0  0  0
    0.1890    3.5079    2.2495 H   0  0  0  0  0  0  0  0  0  0  0  0
   -0.5506    3.7157    0.6485 H   0  0  0  0  0  0  0  0  0  0  0  0
  1  2  1  0  0  0  0
  2  3  1  0  0  0  0
  2  4  1  0  0  0  0
  2  5  1  0  0  0  0
  5  6  2  0  0  0  0
  5  7  1  0  0  0  0
  7  8  1  0  0  0  0
  7  9  1  0  0  0  0
  9 10  1  0  0  0  0
  9 11  1  0  0  0  0
  9 25  1  0  0  0  0
 11 12  1  0  0  0  0
 11 13  1  0  0  0  0
 11 14  1  0  0  0  0
 14 15  1  0  0  0  0
 14 23  2  0  0  0  0
 15 16  1  0  0  0  0
 15 17  2  0  0  0  0
 17 18  1  0  0  0  0
 17 19  1  0  0  0  0
 19 20  1  0  0  0  0
 19 21  2  0  0  0  0
 21 22  1  0  0  0  0
 21 23  1  0  0  0  0
 23 24  1  0  0  0  0
 25 26  2  0  0  0  0
 25 27  1  0  0  0  0
 27 28  1  0  0  0  0
 27 29  1  0  0  0  0
 29 30  1  0  0  0  0
 29 31  1  0  0  0  0
 29 32  1  0  0  0  0
M  END
$$$$

  -OEChem-04042216033D

 32 32  0     1  0  0  0  0  0999 V2000
   -3.6909   -3.9323    1.6740 H   0  0  0  0  0  0  0  0  0  0  0  0
   -3.6879   -3.0418    1.0392 C   0  0  0  0  0  0  0  0  0  0  0  0
   -4.3723   -2.3037    1.4645 H   0  0  0  0  0  0  0  0  0  0  0  0
   -4.0360   -3.3185    0.0412 H   0  0  0  0  0  0  0  0  0  0  0  0
   -2.2883   -2.4628    0.9557 C   0  0  0  0  0  0  0  0  0  0  0  0
   -1.3583   -3.0272    1.5107 O   0  0  0  0  0  0  0  0  0  0  0  0
   -2.0719   -1.2999    0.2469 N   0  0  0  0  0  0  0  0  0  0  0  0
   -2.8935   -0.8031   -0.0953 H   0  0  0  0  0  0  0  0  0  0  0  0
   -0.8062   -0.5512    0.2310 C   0  0  1  0  0  0  0  0  0  0  0  0
   -0.2288   -0.8471    1.1129 H   0  0  0  0  0  0  0  0  0  0  0  0
    0.0374   -0.9436   -1.0041 C   0  0  0  0  0  0  0  0  0  0  0  0
    1.0661   -1.1173   -0.6732 H   0  0  0  0  0  0  0  0  0  0  0  0
   -0.3217   -1.8950   -1.4100 H   0  0  0  0  0  0  0  0  0  0  0  0
    0.0505    0.0909   -2.1057 C   0  0  0  0  0  0  0  0  0  0  0  0
    1.1789    0.8983   -2.3183 C   0  0  0  0  0  0  0  0  0  0  0  0
    2.0574    0.7889   -1.6900 H   0  0  0  0  0  0  0  0  0  0  0  0
    1.1844    1.8551   -3.3391 C   0  0  0  0  0  0  0  0  0  0  0  0
    2.0597    2.4786   -3.4947 H   0  0  0  0  0  0  0  0  0  0  0  0
    0.0622    2.0110   -4.1582 C   0  0  0  0  0  0  0  0  0  0  0  0
    0.0637    2.7559   -4.9486 H   0  0  0  0  0  0  0  0  0  0  0  0
   -1.0647    1.2089   -3.9556 C   0  0  0  0  0  0  0  0  0  0  0  0
   -1.9410    1.3324   -4.5847 H   0  0  0  0  0  0  0  0  0  0  0  0
   -1.0681    0.2520   -2.9357 C   0  0  0  0  0  0  0  0  0  0  0  0
   -1.9511   -0.3594   -2.7779 H   0  0  0  0  0  0  0  0  0  0  0  0
   -1.0643    0.9629    0.3962 C   0  0  0  0  0  0  0  0  0  0  0  0
   -2.0917    1.4608   -0.0542 O   0  0  0  0  0  0  0  0  0  0  0  0
   -0.2874    1.7099    1.2632 N   0  0  0  0  0  0  0  0  0  0  0  0
    0.5257    1.2612    1.6739 H   0  0  0  0  0  0  0  0  0  0  0  0
   -0.5407    3.1156    1.5527 C   0  0  0  0  0  0  0  0  0  0  0  0
   -1.5406    3.2446    1.9804 H   0  0  0  0  0  0  0  0  0  0  0  0
    0.1932    3.4926    2.2715 H   0  0  0  0  0  0  0  0  0  0  0  0
   -0.4687    3.7129    0.6375 H   0  0  0  0  0  0  0  0  0  0  0  0
  1  2  1  0  0  0  0
  2  3  1  0  0  0  0
  2  4  1  0  0  0  0
  2  5  1  0  0  0  0
  5  6  2  0  0  0  0
  5  7  1  0  0  0  0
  7  8  1  0  0  0  0
  7  9  1  0  0  0  0
  9 10  1  0  0  0  0
  9 11  1  0  0  0  0
  9 25  1  0  0  0  0
 11 12  1  0  0  0  0
 11 13  1  0  0  0  0
 11 14  1  0  0  0  0
 14 15  1  0  0  0  0
 14 23  2  0  0  0  0
 15 16  1  0  0  0  0
 15 17  2  0  0  0  0
 17 18  1  0  0  0  0
 17 19  1  0  0  0  0
 19 20  1  0  0  0  0
 19 21  2  0  0  0  0
 21 22  1  0  0  0  0
 21 23  1  0  0  0  0
 23 24  1  0  0  0  0
 25 26  2  0  0  0  0
 25 27  1  0  0  0  0
 27 28  1  0  0  0  0
 27 29  1  0  0  0  0
 29 30  1  0  0  0  0
 29 31  1  0  0  0  0
 29 32  1  0  0  0  0
M  END
$$$$

  -OEChem-04042216033D

 32 32  0     1  0  0  0  0  0999 V2000
   -3.6633   -3.9414    1.6861 H   0  0  0  0  0  0  0  0  0  0  0  0
   -3.6792   -3.0427    1.0633 C   0  0  0  0  0  0  0  0  0  0  0  0
   -4.3511   -2.3110    1.5185 H   0  0  0  0  0  0  0  0  0  0  0  0
   -4.0560   -3.3067    0.0722 H   0  0  0  0  0  0  0  0  0  0  0  0
   -2.2826   -2.4621    0.9479 C   0  0  0  0  0  0  0  0  0  0  0  0
   -1.3376   -3.0350    1.4677 O   0  0  0  0  0  0  0  0  0  0  0  0
   -2.0871   -1.2845    0.2573 N   0  0  0  0  0  0  0  0  0  0  0  0
   -2.9193   -0.7818   -0.0485 H   0  0  0  0  0  0  0  0  0  0  0  0
   -0.8246   -0.5303    0.2307 C   0  0  1  0  0  0  0  0  0  0  0  0
   -0.2386   -0.8387    1.1024 H   0  0  0  0  0  0  0  0  0  0  0  0
    0.0157   -0.9069   -1.0128 C   0  0  0  0  0  0  0  0  0  0  0  0
    1.0444   -1.0786   -0.6813 H   0  0  0  0  0  0  0  0  0  0  0  0
   -0.3402   -1.8586   -1.4209 H   0  0  0  0  0  0  0  0  0  0  0  0
    0.0292    0.1220   -2.1225 C   0  0  0  0  0  0  0  0  0  0  0  0
    1.2372    0.7030   -2.5407 C   0  0  0  0  0  0  0  0  0  0  0  0
    2.1705    0.4386   -2.0533 H   0  0  0  0  0  0  0  0  0  0  0  0
    1.2560    1.6304   -3.5885 C   0  0  0  0  0  0  0  0  0  0  0  0
    2.1942    2.0799   -3.9000 H   0  0  0  0  0  0  0  0  0  0  0  0
    0.0674    1.9775   -4.2369 C   0  0  0  0  0  0  0  0  0  0  0  0
    0.0795    2.6988   -5.0484 H   0  0  0  0  0  0  0  0  0  0  0  0
   -1.1381    1.3923   -3.8405 C   0  0  0  0  0  0  0  0  0  0  0  0
   -2.0641    1.6583   -4.3413 H   0  0  0  0  0  0  0  0  0  0  0  0
   -1.1542    0.4644   -2.7943 C   0  0  0  0  0  0  0  0  0  0  0  0
   -2.0970    0.0183   -2.4924 H   0  0  0  0  0  0  0  0  0  0  0  0
   -1.0769    0.9805    0.4308 C   0  0  0  0  0  0  0  0  0  0  0  0
   -2.1236    1.4823    0.0314 O   0  0  0  0  0  0  0  0  0  0  0  0
   -0.2804    1.7086    1.2960 N   0  0  0  0  0  0  0  0  0  0  0  0
    0.5479    1.2549    1.6695 H   0  0  0  0  0  0  0  0  0  0  0  0
   -0.5410    3.1000    1.6435 C   0  0  0  0  0  0  0  0  0  0  0  0
   -1.5266    3.2012    2.1101 H   0  0  0  0  0  0  0  0  0  0  0  0
    0.2131    3.4612    2.3491 H   0  0  0  0  0  0  0  0  0  0  0  0
   -0.5087    3.7296    0.7480 H   0  0  0  0  0  0  0  0  0  0  0  0
  1  2  1  0  0  0  0
  2  3  1  0  0  0  0
  2  4  1  0  0  0  0
  2  5  1  0  0  0  0
  5  6  2  0  0  0  0
  5  7  1  0  0  0  0
  7  8  1  0  0  0  0
  7  9  1  0  0  0  0
  9 10  1  0  0  0  0
  9 11  1  0  0  0  0
  9 25  1  0  0  0  0
 11 12  1  0  0  0  0
 11 13  1  0  0  0  0
 11 14  1  0  0  0  0
 14 15  1  0  0  0  0
 14 23  2  0  0  0  0
 15 16  1  0  0  0  0
 15 17  2  0  0  0  0
 17 18  1  0  0  0  0
 17 19  1  0  0  0  0
 19 20  1  0  0  0  0
 19 21  2  0  0  0  0
 21 22  1  0  0  0  0
 21 23  1  0  0  0  0
 23 24  1  0  0  0  0
 25 26  2  0  0  0  0
 25 27  1  0  0  0  0
 27 28  1  0  0  0  0
 27 29  1  0  0  0  0
 29 30  1  0  0  0  0
 29 31  1  0  0  0  0
 29 32  1  0  0  0  0
M  END
$$$$

  -OEChem-04042216033D

 32 32  0     1  0  0  0  0  0999 V2000
   -3.6144   -3.9864    1.6453 H   0  0  0  0  0  0  0  0  0  0  0  0
   -3.6582   -3.0635    1.0604 C   0  0  0  0  0  0  0  0  0  0  0  0
   -4.3298   -2.3616    1.5606 H   0  0  0  0  0  0  0  0  0  0  0  0
   -4.0543   -3.2931    0.0684 H   0  0  0  0  0  0  0  0  0  0  0  0
   -2.2733   -2.4569    0.9359 C   0  0  0  0  0  0  0  0  0  0  0  0
   -1.3092   -3.0338    1.4147 O   0  0  0  0  0  0  0  0  0  0  0  0
   -2.1082   -1.2559    0.2774 N   0  0  0  0  0  0  0  0  0  0  0  0
   -2.9531   -0.7576    0.0014 H   0  0  0  0  0  0  0  0  0  0  0  0
   -0.8537   -0.4878    0.2415 C   0  0  1  0  0  0  0  0  0  0  0  0
   -0.2576   -0.8131    1.1001 H   0  0  0  0  0  0  0  0  0  0  0  0
   -0.0160   -0.8490   -1.0099 C   0  0  0  0  0  0  0  0  0  0  0  0
    1.0141   -1.0060   -0.6754 H   0  0  0  0  0  0  0  0  0  0  0  0
   -0.3610   -1.8074   -1.4115 H   0  0  0  0  0  0  0  0  0  0  0  0
    0.0006    0.1619   -2.1390 C   0  0  0  0  0  0  0  0  0  0  0  0
    1.2164    0.4925   -2.7601 C   0  0  0  0  0  0  0  0  0  0  0  0
    2.1477    0.0647   -2.4014 H   0  0  0  0  0  0  0  0  0  0  0  0
    1.2502    1.3767   -3.8440 C   0  0  0  0  0  0  0  0  0  0  0  0
    2.1987    1.6333   -4.3062 H   0  0  0  0  0  0  0  0  0  0  0  0
    0.0630    1.9259   -4.3352 C   0  0  0  0  0  0  0  0  0  0  0  0
    0.0865    2.6144   -5.1747 H   0  0  0  0  0  0  0  0  0  0  0  0
   -1.1570    1.5777   -3.7499 C   0  0  0  0  0  0  0  0  0  0  0  0
   -2.0844    1.9927   -4.1333 H   0  0  0  0  0  0  0  0  0  0  0  0
   -1.1874    0.6899   -2.6698 C   0  0  0  0  0  0  0  0  0  0  0  0
   -2.1465    0.4180   -2.2400 H   0  0  0  0  0  0  0  0  0  0  0  0
   -1.0928    1.0177    0.4933 C   0  0  0  0  0  0  0  0  0  0  0  0
   -2.1543    1.5321    0.1541 O   0  0  0  0  0  0  0  0  0  0  0  0
   -0.2675    1.7156    1.3570 N   0  0  0  0  0  0  0  0  0  0  0  0
    0.5730    1.2495    1.6855 H   0  0  0  0  0  0  0  0  0  0  0  0
   -0.5140    3.0933    1.7639 C   0  0  0  0  0  0  0  0  0  0  0  0
   -1.4736    3.1726    2.2854 H   0  0  0  0  0  0  0  0  0  0  0  0
    0.2756    3.4349    2.4399 H   0  0  0  0  0  0  0  0  0  0  0  0
   -0.5313    3.7529    0.8900 H   0  0  0  0  0  0  0  0  0  0  0  0
  1  2  1  0  0  0  0
  2  3  1  0  0  0  0
  2  4  1  0  0  0  0
  2  5  1  0  0  0  0
  5  6  2  0  0  0  0
  5  7  1  0  0  0  0
  7  8  1  0  0  0  0
  7  9  1  0  0  0  0
  9 10  1  0  0  0  0
  9 11  1  0  0  0  0
  9 25  1  0  0  0  0
 11 12  1  0  0  0  0
 11 13  1  0  0  0  0
 11 14  1  0  0  0  0
 14 15  1  0  0  0  0
 14 23  2  0  0  0  0
 15 16  1  0  0  0  0
 15 17  2  0  0  0  0
 17 18  1  0  0  0  0
 17 19  1  0  0  0  0
 19 20  1  0  0  0  0
 19 21  2  0  0  0  0
 21 22  1  0  0  0  0
 21 23  1  0  0  0  0
 23 24  1  0  0  0  0
 25 26  2  0  0  0  0
 25 27  1  0  0  0  0
 27 28  1  0  0  0  0
 27 29  1  0  0  0  0
 29 30  1  0  0  0  0
 29 31  1  0  0  0  0
 29 32  1  0  0  0  0
M  END
$$$$

  -OEChem-04042216033D

 32 32  0     1  0  0  0  0  0999 V2000
   -3.5644   -4.0279    1.5895 H   0  0  0  0  0  0  0  0  0  0  0  0
   -3.6335   -3.0825    1.0442 C   0  0  0  0  0  0  0  0  0  0  0  0
   -4.3036   -2.4114    1.5868 H   0  0  0  0  0  0  0  0  0  0  0  0
   -4.0481   -3.2774    0.0522 H   0  0  0  0  0  0  0  0  0  0  0  0
   -2.2601   -2.4509    0.9149 C   0  0  0  0  0  0  0  0  0  0  0  0
   -1.2772   -3.0336    1.3463 O   0  0  0  0  0  0  0  0  0  0  0  0
   -2.1276   -1.2227    0.3004 N   0  0  0  0  0  0  0  0  0  0  0  0
   -2.9862   -0.7305    0.0584 H   0  0  0  0  0  0  0  0  0  0  0  0
   -0.8845   -0.4368    0.2520 C   0  0  1  0  0  0  0  0  0  0  0  0
   -0.2791   -0.7829    1.0964 H   0  0  0  0  0  0  0  0  0  0  0  0
   -0.0433   -0.7796   -1.0037 C   0  0  0  0  0  0  0  0  0  0  0  0
    0.9895   -0.9120   -0.6655 H   0  0  0  0  0  0  0  0  0  0  0  0
   -0.3686   -1.7490   -1.3951 H   0  0  0  0  0  0  0  0  0  0  0  0
   -0.0240    0.2088   -2.1554 C   0  0  0  0  0  0  0  0  0  0  0  0
    1.1273    0.2857   -2.9572 C   0  0  0  0  0  0  0  0  0  0  0  0
    2.0055   -0.3014   -2.7056 H   0  0  0  0  0  0  0  0  0  0  0  0
    1.1718    1.1207   -4.0790 C   0  0  0  0  0  0  0  0  0  0  0  0
    2.0780    1.1838   -4.6739 H   0  0  0  0  0  0  0  0  0  0  0  0
    0.0480    1.8678   -4.4383 C   0  0  0  0  0  0  0  0  0  0  0  0
    0.0791    2.5186   -5.3072 H   0  0  0  0  0  0  0  0  0  0  0  0
   -1.1244    1.7574   -3.6877 C   0  0  0  0  0  0  0  0  0  0  0  0
   -2.0104    2.3153   -3.9760 H   0  0  0  0  0  0  0  0  0  0  0  0
   -1.1656    0.9170   -2.5705 C   0  0  0  0  0  0  0  0  0  0  0  0
   -2.1062    0.8150   -2.0402 H   0  0  0  0  0  0  0  0  0  0  0  0
   -1.1053    1.0597    0.5676 C   0  0  0  0  0  0  0  0  0  0  0  0
   -2.1843    1.5855    0.3124 O   0  0  0  0  0  0  0  0  0  0  0  0
   -0.2438    1.7216    1.4242 N   0  0  0  0  0  0  0  0  0  0  0  0
    0.6135    1.2459    1.6898 H   0  0  0  0  0  0  0  0  0  0  0  0
   -0.4738    3.0796    1.9028 C   0  0  0  0  0  0  0  0  0  0  0  0
   -1.3988    3.1289    2.4869 H   0  0  0  0  0  0  0  0  0  0  0  0
    0.3548    3.4009    2.5412 H   0  0  0  0  0  0  0  0  0  0  0  0
   -0.5512    3.7749    1.0600 H   0  0  0  0  0  0  0  0  0  0  0  0
  1  2  1  0  0  0  0
  2  3  1  0  0  0  0
  2  4  1  0  0  0  0
  2  5  1  0  0  0  0
  5  6  2  0  0  0  0
  5  7  1  0  0  0  0
  7  8  1  0  0  0  0
  7  9  1  0  0  0  0
  9 10  1  0  0  0  0
  9 11  1  0  0  0  0
  9 25  1  0  0  0  0
 11 12  1  0  0  0  0
 11 13  1  0  0  0  0
 11 14  1  0  0  0  0
 14 15  1  0  0  0  0
 14 23  2  0  0  0  0
 15 16  1  0  0  0  0
 15 17  2  0  0  0  0
 17 18  1  0  0  0  0
 17 19  1  0  0  0  0
 19 20  1  0  0  0  0
 19 21  2  0  0  0  0
 21 22  1  0  0  0  0
 21 23  1  0  0  0  0
 23 24  1  0  0  0  0
 25 26  2  0  0  0  0
 25 27  1  0  0  0  0
 27 28  1  0  0  0  0
 27 29  1  0  0  0  0
 29 30  1  0  0  0  0
 29 31  1  0  0  0  0
 29 32  1  0  0  0  0
M  END
$$$$

  -OEChem-04042216033D

 32 32  0     1  0  0  0  0  0999 V2000
   -3.4789   -4.0841    1.5164 H   0  0  0  0  0  0  0  0  0  0  0  0
   -3.5835   -3.1231    1.0051 C   0  0  0  0  0  0  0  0  0  0  0  0
   -4.2718   -2.4943    1.5749 H   0  0  0  0  0  0  0  0  0  0  0  0
   -3.9992   -3.2967    0.0096 H   0  0  0  0  0  0  0  0  0  0  0  0
   -2.2332   -2.4410    0.8905 C   0  0  0  0  0  0  0  0  0  0  0  0
   -1.2315   -2.9934    1.3185 O   0  0  0  0  0  0  0  0  0  0  0  0
   -2.1452   -1.1961    0.3022 N   0  0  0  0  0  0  0  0  0  0  0  0
   -3.0207   -0.7373    0.0558 H   0  0  0  0  0  0  0  0  0  0  0  0
   -0.9342   -0.3609    0.2703 C   0  0  1  0  0  0  0  0  0  0  0  0
   -0.3410   -0.6940    1.1282 H   0  0  0  0  0  0  0  0  0  0  0  0
   -0.0340   -0.6861   -0.9508 C   0  0  0  0  0  0  0  0  0  0  0  0
    0.9896   -0.7618   -0.5697 H   0  0  0  0  0  0  0  0  0  0  0  0
   -0.3019   -1.6818   -1.3190 H   0  0  0  0  0  0  0  0  0  0  0  0
    0.0166    0.2491   -2.1492 C   0  0  0  0  0  0  0  0  0  0  0  0
    1.0770    0.0770   -3.0562 C   0  0  0  0  0  0  0  0  0  0  0  0
    1.8616   -0.6421   -2.8399 H   0  0  0  0  0  0  0  0  0  0  0  0
    1.1599    0.8298   -4.2324 C   0  0  0  0  0  0  0  0  0  0  0  0
    2.0037    0.6985   -4.9034 H   0  0  0  0  0  0  0  0  0  0  0  0
    0.1526    1.7431   -4.5474 C   0  0  0  0  0  0  0  0  0  0  0  0
    0.2116    2.3298   -5.4596 H   0  0  0  0  0  0  0  0  0  0  0  0
   -0.9469    1.8761   -3.6979 C   0  0  0  0  0  0  0  0  0  0  0  0
   -1.7542    2.5552   -3.9557 H   0  0  0  0  0  0  0  0  0  0  0  0
   -1.0250    1.1186   -2.5244 C   0  0  0  0  0  0  0  0  0  0  0  0
   -1.9323    1.2047   -1.9413 H   0  0  0  0  0  0  0  0  0  0  0  0
   -1.1953    1.1223    0.6135 C   0  0  0  0  0  0  0  0  0  0  0  0
   -2.2968    1.6156    0.3928 O   0  0  0  0  0  0  0  0  0  0  0  0
   -0.3480    1.7894    1.4808 N   0  0  0  0  0  0  0  0  0  0  0  0
    0.5223    1.3309    1.7348 H   0  0  0  0  0  0  0  0  0  0  0  0
   -0.6273    3.1165    2.0167 C   0  0  0  0  0  0  0  0  0  0  0  0
   -1.5340    3.0985    2.6304 H   0  0  0  0  0  0  0  0  0  0  0  0
    0.2055    3.4556    2.6401 H   0  0  0  0  0  0  0  0  0  0  0  0
   -0.7656    3.8368    1.2035 H   0  0  0  0  0  0  0  0  0  0  0  0
  1  2  1  0  0  0  0
  2  3  1  0  0  0  0
  2  4  1  0  0  0  0
  2  5  1  0  0  0  0
  5  6  2  0  0  0  0
  5  7  1  0  0  0  0
  7  8  1  0  0  0  0
  7  9  1  0  0  0  0
  9 10  1  0  0  0  0
  9 11  1  0  0  0  0
  9 25  1  0  0  0  0
 11 12  1  0  0  0  0
 11 13  1  0  0  0  0
 11 14  1  0  0  0  0
 14 15  1  0  0  0  0
 14 23  2  0  0  0  0
 15 16  1  0  0  0  0
 15 17  2  0  0  0  0
 17 18  1  0  0  0  0
 17 19  1  0  0  0  0
 19 20  1  0  0  0  0
 19 21  2  0  0  0  0
 21 22  1  0  0  0  0
 21 23  1  0  0  0  0
 23 24  1  0  0  0  0
 25 26  2  0  0  0  0
 25 27  1  0  0  0  0
 27 28  1  0  0  0  0
 27 29  1  0  0  0  0
 29 30  1  0  0  0  0
 29 31  1  0  0  0  0
 29 32  1  0  0  0  0
M  END
$$$$

  -OEChem-04042216033D

 32 32  0     1  0  0  0  0  0999 V2000
   -3.4549   -4.1392    1.3839 H   0  0  0  0  0  0  0  0  0  0  0  0
   -3.5521   -3.1575    0.9119 C   0  0  0  0  0  0  0  0  0  0  0  0
   -4.2465   -2.5518    1.4991 H   0  0  0  0  0  0  0  0  0  0  0  0
   -3.9552   -3.2884   -0.0953 H   0  0  0  0  0  0  0  0  0  0  0  0
   -2.1995   -2.4742    0.8417 C   0  0  0  0  0  0  0  0  0  0  0  0
   -1.2001   -3.0536    1.2378 O   0  0  0  0  0  0  0  0  0  0  0  0
   -2.1030   -1.2000    0.3229 N   0  0  0  0  0  0  0  0  0  0  0  0
   -2.9723   -0.7193    0.0934 H   0  0  0  0  0  0  0  0  0  0  0  0
   -0.8779   -0.3845    0.3156 C   0  0  1  0  0  0  0  0  0  0  0  0
   -0.2354   -0.7620    1.1179 H   0  0  0  0  0  0  0  0  0  0  0  0
   -0.0810   -0.6388   -1.0005 C   0  0  0  0  0  0  0  0  0  0  0  0
    0.8749   -1.0708   -0.6860 H   0  0  0  0  0  0  0  0  0  0  0  0
   -0.6048   -1.4310   -1.5460 H   0  0  0  0  0  0  0  0  0  0  0  0
    0.2698    0.4238   -2.0448 C   0  0  0  0  0  0  0  0  0  0  0  0
    1.0001   -0.0548   -3.1491 C   0  0  0  0  0  0  0  0  0  0  0  0
    1.2802   -1.1033   -3.1946 H   0  0  0  0  0  0  0  0  0  0  0  0
    1.3862    0.7833   -4.1992 C   0  0  0  0  0  0  0  0  0  0  0  0
    1.9542    0.3830   -5.0336 H   0  0  0  0  0  0  0  0  0  0  0  0
    1.0372    2.1324   -4.1761 C   0  0  0  0  0  0  0  0  0  0  0  0
    1.3320    2.7881   -4.9901 H   0  0  0  0  0  0  0  0  0  0  0  0
    0.2967    2.6317   -3.1050 C   0  0  0  0  0  0  0  0  0  0  0  0
    0.0084    3.6787   -3.0887 H   0  0  0  0  0  0  0  0  0  0  0  0
   -0.0878    1.7904   -2.0545 C   0  0  0  0  0  0  0  0  0  0  0  0
   -0.6774    2.2635   -1.2852 H   0  0  0  0  0  0  0  0  0  0  0  0
   -1.1965    1.0542    0.7572 C   0  0  0  0  0  0  0  0  0  0  0  0
   -2.2791    1.5569    0.4713 O   0  0  0  0  0  0  0  0  0  0  0  0
   -0.3791    1.7033    1.6648 N   0  0  0  0  0  0  0  0  0  0  0  0
    0.4830    1.2401    1.9383 H   0  0  0  0  0  0  0  0  0  0  0  0
   -0.6887    3.0092    2.2332 C   0  0  0  0  0  0  0  0  0  0  0  0
   -1.6256    2.9675    2.7986 H   0  0  0  0  0  0  0  0  0  0  0  0
    0.1100    3.3263    2.9109 H   0  0  0  0  0  0  0  0  0  0  0  0
   -0.7871    3.7583    1.4404 H   0  0  0  0  0  0  0  0  0  0  0  0
  1  2  1  0  0  0  0
  2  3  1  0  0  0  0
  2  4  1  0  0  0  0
  2  5  1  0  0  0  0
  5  6  2  0  0  0  0
  5  7  1  0  0  0  0
  7  8  1  0  0  0  0
  7  9  1  0  0  0  0
  9 10  1  0  0  0  0
  9 11  1  0  0  0  0
  9 25  1  0  0  0  0
 11 12  1  0  0  0  0
 11 13  1  0  0  0  0
 11 14  1  0  0  0  0
 14 15  1  0  0  0  0
 14 23  2  0  0  0  0
 15 16  1  0  0  0  0
 15 17  2  0  0  0  0
 17 18  1  0  0  0  0
 17 19  1  0  0  0  0
 19 20  1  0  0  0  0
 19 21  2  0  0  0  0
 21 22  1  0  0  0  0
 21 23  1  0  0  0  0
 23 24  1  0  0  0  0
 25 26  2  0  0  0  0
 25 27  1  0  0  0  0
 27 28  1  0  0  0  0
 27 29  1  0  0  0  0
 29 30  1  0  0  0  0
 29 31  1  0  0  0  0
 29 32  1  0  0  0  0
M  END
$$$$

  -OEChem-04042216033D

 32 32  0     1  0  0  0  0  0999 V2000
   -3.4952   -4.1132    1.4139 H   0  0  0  0  0  0  0  0  0  0  0  0
   -3.5686   -3.1442    0.9126 C   0  0  0  0  0  0  0  0  0  0  0  0
   -4.2819   -2.5195    1.4558 H   0  0  0  0  0  0  0  0  0  0  0  0
   -3.9333   -3.3003   -0.1055 H   0  0  0  0  0  0  0  0  0  0  0  0
   -2.2101   -2.4700    0.8775 C   0  0  0  0  0  0  0  0  0  0  0  0
   -1.2326   -3.0378    1.3396 O   0  0  0  0  0  0  0  0  0  0  0  0
   -2.0816   -1.2154    0.3201 N   0  0  0  0  0  0  0  0  0  0  0  0
   -2.9342   -0.7385    0.0279 H   0  0  0  0  0  0  0  0  0  0  0  0
   -0.8469   -0.4141    0.3287 C   0  0  1  0  0  0  0  0  0  0  0  0
   -0.1991   -0.7725    1.1355 H   0  0  0  0  0  0  0  0  0  0  0  0
   -0.0844   -0.6770   -1.0078 C   0  0  0  0  0  0  0  0  0  0  0  0
    0.8709   -1.1290   -0.7233 H   0  0  0  0  0  0  0  0  0  0  0  0
   -0.6357   -1.4540   -1.5484 H   0  0  0  0  0  0  0  0  0  0  0  0
    0.2614    0.4003   -2.0377 C   0  0  0  0  0  0  0  0  0  0  0  0
    0.6450   -0.0771   -3.3054 C   0  0  0  0  0  0  0  0  0  0  0  0
    0.6289   -1.1441   -3.5073 H   0  0  0  0  0  0  0  0  0  0  0  0
    1.0399    0.7871   -4.3309 C   0  0  0  0  0  0  0  0  0  0  0  0
    1.3128    0.3878   -5.3032 H   0  0  0  0  0  0  0  0  0  0  0  0
    1.0866    2.1615   -4.1030 C   0  0  0  0  0  0  0  0  0  0  0  0
    1.3899    2.8384   -4.8962 H   0  0  0  0  0  0  0  0  0  0  0  0
    0.7540    2.6601   -2.8439 C   0  0  0  0  0  0  0  0  0  0  0  0
    0.8064    3.7282   -2.6544 H   0  0  0  0  0  0  0  0  0  0  0  0
    0.3617    1.7917   -1.8190 C   0  0  0  0  0  0  0  0  0  0  0  0
    0.1617    2.2598   -0.8677 H   0  0  0  0  0  0  0  0  0  0  0  0
   -1.2159    1.0290    0.7157 C   0  0  0  0  0  0  0  0  0  0  0  0
   -2.2517    1.5383    0.3009 O   0  0  0  0  0  0  0  0  0  0  0  0
   -0.4517    1.7176    1.6415 N   0  0  0  0  0  0  0  0  0  0  0  0
    0.3622    1.2452    2.0252 H   0  0  0  0  0  0  0  0  0  0  0  0
   -0.7984    3.0428    2.1398 C   0  0  0  0  0  0  0  0  0  0  0  0
   -1.7562    3.0142    2.6700 H   0  0  0  0  0  0  0  0  0  0  0  0
   -0.0296    3.3995    2.8321 H   0  0  0  0  0  0  0  0  0  0  0  0
   -0.8749    3.7556    1.3118 H   0  0  0  0  0  0  0  0  0  0  0  0
  1  2  1  0  0  0  0
  2  3  1  0  0  0  0
  2  4  1  0  0  0  0
  2  5  1  0  0  0  0
  5  6  2  0  0  0  0
  5  7  1  0  0  0  0
  7  8  1  0  0  0  0
  7  9  1  0  0  0  0
  9 10  1  0  0  0  0
  9 11  1  0  0  0  0
  9 25  1  0  0  0  0
 11 12  1  0  0  0  0
 11 13  1  0  0  0  0
 11 14  1  0  0  0  0
 14 15  1  0  0  0  0
 14 23  2  0  0  0  0
 15 16  1  0  0  0  0
 15 17  2  0  0  0  0
 17 18  1  0  0  0  0
 17 19  1  0  0  0  0
 19 20  1  0  0  0  0
 19 21  2  0  0  0  0
 21 22  1  0  0  0  0
 21 23  1  0  0  0  0
 23 24  1  0  0  0  0
 25 26  2  0  0  0  0
 25 27  1  0  0  0  0
 27 28  1  0  0  0  0
 27 29  1  0  0  0  0
 29 30  1  0  0  0  0
 29 31  1  0  0  0  0
 29 32  1  0  0  0  0
M  END
$$$$

  -OEChem-04042216033D

 32 32  0     1  0  0  0  0  0999 V2000
   -3.5537   -4.0475    1.5222 H   0  0  0  0  0  0  0  0  0  0  0  0
   -3.5939   -3.1114    0.9584 C   0  0  0  0  0  0  0  0  0  0  0  0
   -4.3072   -2.4398    1.4423 H   0  0  0  0  0  0  0  0  0  0  0  0
   -3.9367   -3.3254   -0.0568 H   0  0  0  0  0  0  0  0  0  0  0  0
   -2.2213   -2.4662    0.9156 C   0  0  0  0  0  0  0  0  0  0  0  0
   -1.2621   -3.0320    1.4167 O   0  0  0  0  0  0  0  0  0  0  0  0
   -2.0598   -1.2385    0.3093 N   0  0  0  0  0  0  0  0  0  0  0  0
   -2.8995   -0.7551   -0.0091 H   0  0  0  0  0  0  0  0  0  0  0  0
   -0.8137   -0.4548    0.3196 C   0  0  1  0  0  0  0  0  0  0  0  0
   -0.1712   -0.7921    1.1395 H   0  0  0  0  0  0  0  0  0  0  0  0
   -0.0673   -0.7480   -1.0187 C   0  0  0  0  0  0  0  0  0  0  0  0
    0.8879   -1.2092   -0.7491 H   0  0  0  0  0  0  0  0  0  0  0  0
   -0.6296   -1.5171   -1.5588 H   0  0  0  0  0  0  0  0  0  0  0  0
    0.2593    0.3618   -2.0121 C   0  0  0  0  0  0  0  0  0  0  0  0
    0.3080    0.0152   -3.3749 C   0  0  0  0  0  0  0  0  0  0  0  0
    0.0266   -0.9848   -3.6907 H   0  0  0  0  0  0  0  0  0  0  0  0
    0.6917    0.9395   -4.3518 C   0  0  0  0  0  0  0  0  0  0  0  0
    0.6908    0.6544   -5.3997 H   0  0  0  0  0  0  0  0  0  0  0  0
    1.0810    2.2261   -3.9789 C   0  0  0  0  0  0  0  0  0  0  0  0
    1.3762    2.9484   -4.7344 H   0  0  0  0  0  0  0  0  0  0  0  0
    1.1120    2.5711   -2.6271 C   0  0  0  0  0  0  0  0  0  0  0  0
    1.4473    3.5600   -2.3291 H   0  0  0  0  0  0  0  0  0  0  0  0
    0.7301    1.6408   -1.6542 C   0  0  0  0  0  0  0  0  0  0  0  0
    0.8385    1.9396   -0.6211 H   0  0  0  0  0  0  0  0  0  0  0  0
   -1.1942    1.0072    0.6368 C   0  0  0  0  0  0  0  0  0  0  0  0
   -2.2156    1.4984    0.1678 O   0  0  0  0  0  0  0  0  0  0  0  0
   -0.4617    1.7361    1.5584 N   0  0  0  0  0  0  0  0  0  0  0  0
    0.3225    1.2728    2.0088 H   0  0  0  0  0  0  0  0  0  0  0  0
   -0.8251    3.0822    1.9847 C   0  0  0  0  0  0  0  0  0  0  0  0
   -1.8158    3.0827    2.4515 H   0  0  0  0  0  0  0  0  0  0  0  0
   -0.0994    3.4571    2.7127 H   0  0  0  0  0  0  0  0  0  0  0  0
   -0.8385    3.7642    1.1281 H   0  0  0  0  0  0  0  0  0  0  0  0
  1  2  1  0  0  0  0
  2  3  1  0  0  0  0
  2  4  1  0  0  0  0
  2  5  1  0  0  0  0
  5  6  2  0  0  0  0
  5  7  1  0  0  0  0
  7  8  1  0  0  0  0
  7  9  1  0  0  0  0
  9 10  1  0  0  0  0
  9 11  1  0  0  0  0
  9 25  1  0  0  0  0
 11 12  1  0  0  0  0
 11 13  1  0  0  0  0
 11 14  1  0  0  0  0
 14 15  1  0  0  0  0
 14 23  2  0  0  0  0
 15 16  1  0  0  0  0
 15 17  2  0  0  0  0
 17 18  1  0  0  0  0
 17 19  1  0  0  0  0
 19 20  1  0  0  0  0
 19 21  2  0  0  0  0
 21 22  1  0  0  0  0
 21 23  1  0  0  0  0
 23 24  1  0  0  0  0
 25 26  2  0  0  0  0
 25 27  1  0  0  0  0
 27 28  1  0  0  0  0
 27 29  1  0  0  0  0
 29 30  1  0  0  0  0
 29 31  1  0  0  0  0
 29 32  1  0  0  0  0
M  END
$$$$

  -OEChem-04042216033D

 32 32  0     1  0  0  0  0  0999 V2000
   -3.6001   -4.0094    1.5809 H   0  0  0  0  0  0  0  0  0  0  0  0
   -3.6246   -3.0865    0.9949 C   0  0  0  0  0  0  0  0  0  0  0  0
   -4.3288   -2.3924    1.4605 H   0  0  0  0  0  0  0  0  0  0  0  0
   -3.9679   -3.3195   -0.0159 H   0  0  0  0  0  0  0  0  0  0  0  0
   -2.2419   -2.4641    0.9421 C   0  0  0  0  0  0  0  0  0  0  0  0
   -1.2976   -3.0233    1.4780 O   0  0  0  0  0  0  0  0  0  0  0  0
   -2.0557   -1.2620    0.2929 N   0  0  0  0  0  0  0  0  0  0  0  0
   -2.8850   -0.7784   -0.0515 H   0  0  0  0  0  0  0  0  0  0  0  0
   -0.8016   -0.4919    0.2986 C   0  0  1  0  0  0  0  0  0  0  0  0
   -0.1757   -0.8104    1.1384 H   0  0  0  0  0  0  0  0  0  0  0  0
   -0.0346   -0.8142   -1.0172 C   0  0  0  0  0  0  0  0  0  0  0  0
    0.9199   -1.2692   -0.7350 H   0  0  0  0  0  0  0  0  0  0  0  0
   -0.5860   -1.5851   -1.5655 H   0  0  0  0  0  0  0  0  0  0  0  0
    0.2817    0.3230   -1.9746 C   0  0  0  0  0  0  0  0  0  0  0  0
    0.0514    0.1415   -3.3491 C   0  0  0  0  0  0  0  0  0  0  0  0
   -0.4297   -0.7641   -3.7059 H   0  0  0  0  0  0  0  0  0  0  0  0
    0.4132    1.1228   -4.2781 C   0  0  0  0  0  0  0  0  0  0  0  0
    0.2023    0.9749   -5.3331 H   0  0  0  0  0  0  0  0  0  0  0  0
    1.0498    2.2894   -3.8497 C   0  0  0  0  0  0  0  0  0  0  0  0
    1.3284    3.0540   -4.5688 H   0  0  0  0  0  0  0  0  0  0  0  0
    1.3441    2.4596   -2.4953 C   0  0  0  0  0  0  0  0  0  0  0  0
    1.8630    3.3530   -2.1616 H   0  0  0  0  0  0  0  0  0  0  0  0
    0.9834    1.4739   -1.5708 C   0  0  0  0  0  0  0  0  0  0  0  0
    1.2720    1.6121   -0.5356 H   0  0  0  0  0  0  0  0  0  0  0  0
   -1.1600    0.9896    0.5528 C   0  0  0  0  0  0  0  0  0  0  0  0
   -2.1772    1.4718    0.0647 O   0  0  0  0  0  0  0  0  0  0  0  0
   -0.4303    1.7407    1.4586 N   0  0  0  0  0  0  0  0  0  0  0  0
    0.3428    1.2848    1.9346 H   0  0  0  0  0  0  0  0  0  0  0  0
   -0.7838    3.1048    1.8325 C   0  0  0  0  0  0  0  0  0  0  0  0
   -1.7805    3.1320    2.2853 H   0  0  0  0  0  0  0  0  0  0  0  0
   -0.0641    3.4978    2.5569 H   0  0  0  0  0  0  0  0  0  0  0  0
   -0.7786    3.7560    0.9520 H   0  0  0  0  0  0  0  0  0  0  0  0
  1  2  1  0  0  0  0
  2  3  1  0  0  0  0
  2  4  1  0  0  0  0
  2  5  1  0  0  0  0
  5  6  2  0  0  0  0
  5  7  1  0  0  0  0
  7  8  1  0  0  0  0
  7  9  1  0  0  0  0
  9 10  1  0  0  0  0
  9 11  1  0  0  0  0
  9 25  1  0  0  0  0
 11 12  1  0  0  0  0
 11 13  1  0  0  0  0
 11 14  1  0  0  0  0
 14 15  1  0  0  0  0
 14 23  2  0  0  0  0
 15 16  1  0  0  0  0
 15 17  2  0  0  0  0
 17 18  1  0  0  0  0
 17 19  1  0  0  0  0
 19 20  1  0  0  0  0
 19 21  2  0  0  0  0
 21 22  1  0  0  0  0
 21 23  1  0  0  0  0
 23 24  1  0  0  0  0
 25 26  2  0  0  0  0
 25 27  1  0  0  0  0
 27 28  1  0  0  0  0
 27 29  1  0  0  0  0
 29 30  1  0  0  0  0
 29 31  1  0  0  0  0
 29 32  1  0  0  0  0
M  END
$$$$

  -OEChem-04042216033D

 32 32  0     1  0  0  0  0  0999 V2000
   -3.6358   -3.9845    1.6184 H   0  0  0  0  0  0  0  0  0  0  0  0
   -3.6473   -3.0731    1.0140 C   0  0  0  0  0  0  0  0  0  0  0  0
   -4.3465   -2.3624    1.4613 H   0  0  0  0  0  0  0  0  0  0  0  0
   -3.9870   -3.3225    0.0059 H   0  0  0  0  0  0  0  0  0  0  0  0
   -2.2584   -2.4658    0.9565 C   0  0  0  0  0  0  0  0  0  0  0  0
   -1.3241   -3.0209    1.5136 O   0  0  0  0  0  0  0  0  0  0  0  0
   -2.0561   -1.2825    0.2786 N   0  0  0  0  0  0  0  0  0  0  0  0
   -2.8788   -0.7979   -0.0795 H   0  0  0  0  0  0  0  0  0  0  0  0
   -0.7965   -0.5230    0.2806 C   0  0  1  0  0  0  0  0  0  0  0  0
   -0.1872   -0.8297    1.1369 H   0  0  0  0  0  0  0  0  0  0  0  0
   -0.0044   -0.8659   -1.0108 C   0  0  0  0  0  0  0  0  0  0  0  0
    0.9469   -1.3175   -0.7121 H   0  0  0  0  0  0  0  0  0  0  0  0
   -0.5437   -1.6372   -1.5709 H   0  0  0  0  0  0  0  0  0  0  0  0
    0.3069    0.2887   -1.9423 C   0  0  0  0  0  0  0  0  0  0  0  0
   -0.1731    0.2763   -3.2615 C   0  0  0  0  0  0  0  0  0  0  0  0
   -0.8197   -0.5279   -3.5990 H   0  0  0  0  0  0  0  0  0  0  0  0
    0.1578    1.3029   -4.1525 C   0  0  0  0  0  0  0  0  0  0  0  0
   -0.2359    1.2912   -5.1644 H   0  0  0  0  0  0  0  0  0  0  0  0
    0.9951    2.3433   -3.7414 C   0  0  0  0  0  0  0  0  0  0  0  0
    1.2491    3.1421   -4.4320 H   0  0  0  0  0  0  0  0  0  0  0  0
    1.5117    2.3478   -2.4432 C   0  0  0  0  0  0  0  0  0  0  0  0
    2.1741    3.1476   -2.1261 H   0  0  0  0  0  0  0  0  0  0  0  0
    1.1808    1.3192   -1.5550 C   0  0  0  0  0  0  0  0  0  0  0  0
    1.6109    1.3264   -0.5591 H   0  0  0  0  0  0  0  0  0  0  0  0
   -1.1258    0.9722    0.4915 C   0  0  0  0  0  0  0  0  0  0  0  0
   -2.1362    1.4570   -0.0084 O   0  0  0  0  0  0  0  0  0  0  0  0
   -0.3887    1.7305    1.3844 N   0  0  0  0  0  0  0  0  0  0  0  0
    0.3870    1.2790    1.8598 H   0  0  0  0  0  0  0  0  0  0  0  0
   -0.7030    3.1174    1.7049 C   0  0  0  0  0  0  0  0  0  0  0  0
   -1.7072    3.1939    2.1350 H   0  0  0  0  0  0  0  0  0  0  0  0
    0.0146    3.5100    2.4316 H   0  0  0  0  0  0  0  0  0  0  0  0
   -0.6571    3.7374    0.8033 H   0  0  0  0  0  0  0  0  0  0  0  0
  1  2  1  0  0  0  0
  2  3  1  0  0  0  0
  2  4  1  0  0  0  0
  2  5  1  0  0  0  0
  5  6  2  0  0  0  0
  5  7  1  0  0  0  0
  7  8  1  0  0  0  0
  7  9  1  0  0  0  0
  9 10  1  0  0  0  0
  9 11  1  0  0  0  0
  9 25  1  0  0  0  0
 11 12  1  0  0  0  0
 11 13  1  0  0  0  0
 11 14  1  0  0  0  0
 14 15  1  0  0  0  0
 14 23  2  0  0  0  0
 15 16  1  0  0  0  0
 15 17  2  0  0  0  0
 17 18  1  0  0  0  0
 17 19  1  0  0  0  0
 19 20  1  0  0  0  0
 19 21  2  0  0  0  0
 21 22  1  0  0  0  0
 21 23  1  0  0  0  0
 23 24  1  0  0  0  0
 25 26  2  0  0  0  0
 25 27  1  0  0  0  0
 27 28  1  0  0  0  0
 27 29  1  0  0  0  0
 29 30  1  0  0  0  0
 29 31  1  0  0  0  0
 29 32  1  0  0  0  0
M  END
$$$$

  -OEChem-04042216033D

 32 32  0     1  0  0  0  0  0999 V2000
   -3.6689   -3.9581    1.6512 H   0  0  0  0  0  0  0  0  0  0  0  0
   -3.6657   -3.0619    1.0244 C   0  0  0  0  0  0  0  0  0  0  0  0
   -4.3601   -2.3328    1.4489 H   0  0  0  0  0  0  0  0  0  0  0  0
   -4.0012   -3.3320    0.0202 H   0  0  0  0  0  0  0  0  0  0  0  0
   -2.2696   -2.4713    0.9625 C   0  0  0  0  0  0  0  0  0  0  0  0
   -1.3438   -3.0277    1.5324 O   0  0  0  0  0  0  0  0  0  0  0  0
   -2.0527   -1.3008    0.2670 N   0  0  0  0  0  0  0  0  0  0  0  0
   -2.8708   -0.8103   -0.0931 H   0  0  0  0  0  0  0  0  0  0  0  0
   -0.7876   -0.5507    0.2665 C   0  0  1  0  0  0  0  0  0  0  0  0
   -0.1891   -0.8492    1.1332 H   0  0  0  0  0  0  0  0  0  0  0  0
    0.0208   -0.9050   -1.0081 C   0  0  0  0  0  0  0  0  0  0  0  0
    0.9666   -1.3608   -0.6988 H   0  0  0  0  0  0  0  0  0  0  0  0
   -0.5141   -1.6704   -1.5799 H   0  0  0  0  0  0  0  0  0  0  0  0
    0.3297    0.2624   -1.9202 C   0  0  0  0  0  0  0  0  0  0  0  0
   -0.3735    0.4297   -3.1222 C   0  0  0  0  0  0  0  0  0  0  0  0
   -1.1709   -0.2580   -3.3867 H   0  0  0  0  0  0  0  0  0  0  0  0
   -0.0715    1.4917   -3.9812 C   0  0  0  0  0  0  0  0  0  0  0  0
   -0.6323    1.6195   -4.9022 H   0  0  0  0  0  0  0  0  0  0  0  0
    0.9485    2.3892   -3.6524 C   0  0  0  0  0  0  0  0  0  0  0  0
    1.1804    3.2151   -4.3183 H   0  0  0  0  0  0  0  0  0  0  0  0
    1.6693    2.2207   -2.4667 C   0  0  0  0  0  0  0  0  0  0  0  0
    2.4657    2.9141   -2.2136 H   0  0  0  0  0  0  0  0  0  0  0  0
    1.3651    1.1587   -1.6084 C   0  0  0  0  0  0  0  0  0  0  0  0
    1.9382    1.0335   -0.6954 H   0  0  0  0  0  0  0  0  0  0  0  0
   -1.0983    0.9525    0.4496 C   0  0  0  0  0  0  0  0  0  0  0  0
   -2.1099    1.4353   -0.0505 O   0  0  0  0  0  0  0  0  0  0  0  0
   -0.3574    1.7164    1.3336 N   0  0  0  0  0  0  0  0  0  0  0  0
    0.4412    1.2779    1.7817 H   0  0  0  0  0  0  0  0  0  0  0  0
   -0.6375    3.1210    1.6038 C   0  0  0  0  0  0  0  0  0  0  0  0
   -1.6566    3.2429    1.9856 H   0  0  0  0  0  0  0  0  0  0  0  0
    0.0598    3.5092    2.3523 H   0  0  0  0  0  0  0  0  0  0  0  0
   -0.5302    3.7137    0.6893 H   0  0  0  0  0  0  0  0  0  0  0  0
  1  2  1  0  0  0  0
  2  3  1  0  0  0  0
  2  4  1  0  0  0  0
  2  5  1  0  0  0  0
  5  6  2  0  0  0  0
  5  7  1  0  0  0  0
  7  8  1  0  0  0  0
  7  9  1  0  0  0  0
  9 10  1  0  0  0  0
  9 11  1  0  0  0  0
  9 25  1  0  0  0  0
 11 12  1  0  0  0  0
 11 13  1  0  0  0  0
 11 14  1  0  0  0  0
 14 15  1  0  0  0  0
 14 23  2  0  0  0  0
 15 16  1  0  0  0  0
 15 17  2  0  0  0  0
 17 18  1  0  0  0  0
 17 19  1  0  0  0  0
 19 20  1  0  0  0  0
 19 21  2  0  0  0  0
 21 22  1  0  0  0  0
 21 23  1  0  0  0  0
 23 24  1  0  0  0  0
 25 26  2  0  0  0  0
 25 27  1  0  0  0  0
 27 28  1  0  0  0  0
 27 29  1  0  0  0  0
 29 30  1  0  0  0  0
 29 31  1  0  0  0  0
 29 32  1  0  0  0  0
M  END
$$$$

  -OEChem-04042216033D

 32 32  0     1  0  0  0  0  0999 V2000
   -3.6844   -3.9442    1.6650 H   0  0  0  0  0  0  0  0  0  0  0  0
   -3.6776   -3.0517    1.0331 C   0  0  0  0  0  0  0  0  0  0  0  0
   -4.3640   -2.3149    1.4576 H   0  0  0  0  0  0  0  0  0  0  0  0
   -4.0208   -3.3254    0.0325 H   0  0  0  0  0  0  0  0  0  0  0  0
   -2.2770   -2.4731    0.9586 C   0  0  0  0  0  0  0  0  0  0  0  0
   -1.3513   -3.0370    1.5213 O   0  0  0  0  0  0  0  0  0  0  0  0
   -2.0550   -1.3078    0.2559 N   0  0  0  0  0  0  0  0  0  0  0  0
   -2.8728   -0.8101   -0.0950 H   0  0  0  0  0  0  0  0  0  0  0  0
   -0.7868   -0.5628    0.2532 C   0  0  1  0  0  0  0  0  0  0  0  0
   -0.1957   -0.8581    1.1262 H   0  0  0  0  0  0  0  0  0  0  0  0
    0.0353   -0.9253   -1.0088 C   0  0  0  0  0  0  0  0  0  0  0  0
    0.9753   -1.3860   -0.6885 H   0  0  0  0  0  0  0  0  0  0  0  0
   -0.4973   -1.6857   -1.5893 H   0  0  0  0  0  0  0  0  0  0  0  0
    0.3469    0.2431   -1.9160 C   0  0  0  0  0  0  0  0  0  0  0  0
   -0.5304    0.5939   -2.9520 C   0  0  0  0  0  0  0  0  0  0  0  0
   -1.4495    0.0346   -3.0975 H   0  0  0  0  0  0  0  0  0  0  0  0
   -0.2421    1.6761   -3.7901 C   0  0  0  0  0  0  0  0  0  0  0  0
   -0.9341    1.9463   -4.5820 H   0  0  0  0  0  0  0  0  0  0  0  0
    0.9311    2.4134   -3.6032 C   0  0  0  0  0  0  0  0  0  0  0  0
    1.1536    3.2542   -4.2534 H   0  0  0  0  0  0  0  0  0  0  0  0
    1.8146    2.0679   -2.5763 C   0  0  0  0  0  0  0  0  0  0  0  0
    2.7261    2.6396   -2.4299 H   0  0  0  0  0  0  0  0  0  0  0  0
    1.5240    0.9865   -1.7375 C   0  0  0  0  0  0  0  0  0  0  0  0
    2.2187    0.7265   -0.9450 H   0  0  0  0  0  0  0  0  0  0  0  0
   -1.0833    0.9445    0.4259 C   0  0  0  0  0  0  0  0  0  0  0  0
   -2.1003    1.4271   -0.0645 O   0  0  0  0  0  0  0  0  0  0  0  0
   -0.3363    1.7075    1.3053 N   0  0  0  0  0  0  0  0  0  0  0  0
    0.4842    1.2780    1.7219 H   0  0  0  0  0  0  0  0  0  0  0  0
   -0.6006    3.1178    1.5594 C   0  0  0  0  0  0  0  0  0  0  0  0
   -1.6184    3.2553    1.9395 H   0  0  0  0  0  0  0  0  0  0  0  0
    0.1006    3.5056    2.3043 H   0  0  0  0  0  0  0  0  0  0  0  0
   -0.4863    3.6992    0.6385 H   0  0  0  0  0  0  0  0  0  0  0  0
  1  2  1  0  0  0  0
  2  3  1  0  0  0  0
  2  4  1  0  0  0  0
  2  5  1  0  0  0  0
  5  6  2  0  0  0  0
  5  7  1  0  0  0  0
  7  8  1  0  0  0  0
  7  9  1  0  0  0  0
  9 10  1  0  0  0  0
  9 11  1  0  0  0  0
  9 25  1  0  0  0  0
 11 12  1  0  0  0  0
 11 13  1  0  0  0  0
 11 14  1  0  0  0  0
 14 15  1  0  0  0  0
 14 23  2  0  0  0  0
 15 16  1  0  0  0  0
 15 17  2  0  0  0  0
 17 18  1  0  0  0  0
 17 19  1  0  0  0  0
 19 20  1  0  0  0  0
 19 21  2  0  0  0  0
 21 22  1  0  0  0  0
 21 23  1  0  0  0  0
 23 24  1  0  0  0  0
 25 26  2  0  0  0  0
 25 27  1  0  0  0  0
 27 28  1  0  0  0  0
 27 29  1  0  0  0  0
 29 30  1  0  0  0  0
 29 31  1  0  0  0  0
 29 32  1  0  0  0  0
M  END
$$$$

  -OEChem-04042216033D

 32 32  0     1  0  0  0  0  0999 V2000
   -3.6758   -3.9474    1.6632 H   0  0  0  0  0  0  0  0  0  0  0  0
   -3.6774   -3.0528    1.0344 C   0  0  0  0  0  0  0  0  0  0  0  0
   -4.3589   -2.3181    1.4700 H   0  0  0  0  0  0  0  0  0  0  0  0
   -4.0325   -3.3227    0.0370 H   0  0  0  0  0  0  0  0  0  0  0  0
   -2.2782   -2.4733    0.9456 C   0  0  0  0  0  0  0  0  0  0  0  0
   -1.3449   -3.0414    1.4914 O   0  0  0  0  0  0  0  0  0  0  0  0
   -2.0664   -1.3012    0.2508 N   0  0  0  0  0  0  0  0  0  0  0  0
   -2.8901   -0.7989   -0.0789 H   0  0  0  0  0  0  0  0  0  0  0  0
   -0.8007   -0.5519    0.2476 C   0  0  1  0  0  0  0  0  0  0  0  0
   -0.2146   -0.8497    1.1230 H   0  0  0  0  0  0  0  0  0  0  0  0
    0.0359   -0.9173   -1.0043 C   0  0  0  0  0  0  0  0  0  0  0  0
    0.9700   -1.3793   -0.6695 H   0  0  0  0  0  0  0  0  0  0  0  0
   -0.4922   -1.6800   -1.5862 H   0  0  0  0  0  0  0  0  0  0  0  0
    0.3552    0.2394   -1.9253 C   0  0  0  0  0  0  0  0  0  0  0  0
   -0.6301    0.7755   -2.7679 C   0  0  0  0  0  0  0  0  0  0  0  0
   -1.6353    0.3639   -2.7560 H   0  0  0  0  0  0  0  0  0  0  0  0
   -0.3372    1.8537   -3.6094 C   0  0  0  0  0  0  0  0  0  0  0  0
   -1.1115    2.2648   -4.2501 H   0  0  0  0  0  0  0  0  0  0  0  0
    0.9473    2.4051   -3.6188 C   0  0  0  0  0  0  0  0  0  0  0  0
    1.1741    3.2433   -4.2713 H   0  0  0  0  0  0  0  0  0  0  0  0
    1.9371    1.8773   -2.7846 C   0  0  0  0  0  0  0  0  0  0  0  0
    2.9354    2.3046   -2.7912 H   0  0  0  0  0  0  0  0  0  0  0  0
    1.6419    0.8000   -1.9418 C   0  0  0  0  0  0  0  0  0  0  0  0
    2.4209    0.4011   -1.2994 H   0  0  0  0  0  0  0  0  0  0  0  0
   -1.0885    0.9552    0.4343 C   0  0  0  0  0  0  0  0  0  0  0  0
   -2.1196    1.4402   -0.0235 O   0  0  0  0  0  0  0  0  0  0  0  0
   -0.3311    1.7060    1.3149 N   0  0  0  0  0  0  0  0  0  0  0  0
    0.5066    1.2773    1.6967 H   0  0  0  0  0  0  0  0  0  0  0  0
   -0.5901    3.1136    1.5896 C   0  0  0  0  0  0  0  0  0  0  0  0
   -1.6024    3.2473    1.9854 H   0  0  0  0  0  0  0  0  0  0  0  0
    0.1217    3.4923    2.3293 H   0  0  0  0  0  0  0  0  0  0  0  0
   -0.4882    3.7061    0.6742 H   0  0  0  0  0  0  0  0  0  0  0  0
  1  2  1  0  0  0  0
  2  3  1  0  0  0  0
  2  4  1  0  0  0  0
  2  5  1  0  0  0  0
  5  6  2  0  0  0  0
  5  7  1  0  0  0  0
  7  8  1  0  0  0  0
  7  9  1  0  0  0  0
  9 10  1  0  0  0  0
  9 11  1  0  0  0  0
  9 25  1  0  0  0  0
 11 12  1  0  0  0  0
 11 13  1  0  0  0  0
 11 14  1  0  0  0  0
 14 15  1  0  0  0  0
 14 23  2  0  0  0  0
 15 16  1  0  0  0  0
 15 17  2  0  0  0  0
 17 18  1  0  0  0  0
 17 19  1  0  0  0  0
 19 20  1  0  0  0  0
 19 21  2  0  0  0  0
 21 22  1  0  0  0  0
 21 23  1  0  0  0  0
 23 24  1  0  0  0  0
 25 26  2  0  0  0  0
 25 27  1  0  0  0  0
 27 28  1  0  0  0  0
 27 29  1  0  0  0  0
 29 30  1  0  0  0  0
 29 31  1  0  0  0  0
 29 32  1  0  0  0  0
M  END
$$$$

  -OEChem-04042216033D

 32 32  0     1  0  0  0  0  0999 V2000
   -3.6398   -3.9716    1.6528 H   0  0  0  0  0  0  0  0  0  0  0  0
   -3.6625   -3.0686    1.0361 C   0  0  0  0  0  0  0  0  0  0  0  0
   -4.3444   -2.3475    1.4936 H   0  0  0  0  0  0  0  0  0  0  0  0
   -4.0324   -3.3295    0.0416 H   0  0  0  0  0  0  0  0  0  0  0  0
   -2.2716   -2.4719    0.9298 C   0  0  0  0  0  0  0  0  0  0  0  0
   -1.3208   -3.0432    1.4409 O   0  0  0  0  0  0  0  0  0  0  0  0
   -2.0870   -1.2814    0.2583 N   0  0  0  0  0  0  0  0  0  0  0  0
   -2.9233   -0.7831   -0.0439 H   0  0  0  0  0  0  0  0  0  0  0  0
   -0.8302   -0.5164    0.2473 C   0  0  1  0  0  0  0  0  0  0  0  0
   -0.2439   -0.8223    1.1198 H   0  0  0  0  0  0  0  0  0  0  0  0
    0.0223   -0.8804   -0.9969 C   0  0  0  0  0  0  0  0  0  0  0  0
    0.9551   -1.3305   -0.6426 H   0  0  0  0  0  0  0  0  0  0  0  0
   -0.4939   -1.6576   -1.5698 H   0  0  0  0  0  0  0  0  0  0  0  0
    0.3500    0.2483   -1.9542 C   0  0  0  0  0  0  0  0  0  0  0  0
   -0.6622    0.9711   -2.6057 C   0  0  0  0  0  0  0  0  0  0  0  0
   -1.7053    0.7186   -2.4386 H   0  0  0  0  0  0  0  0  0  0  0  0
   -0.3465    2.0248   -3.4690 C   0  0  0  0  0  0  0  0  0  0  0  0
   -1.1427    2.5770   -3.9595 H   0  0  0  0  0  0  0  0  0  0  0  0
    0.9892    2.3672   -3.6955 C   0  0  0  0  0  0  0  0  0  0  0  0
    1.2343    3.1855   -4.3663 H   0  0  0  0  0  0  0  0  0  0  0  0
    2.0073    1.6544   -3.0565 C   0  0  0  0  0  0  0  0  0  0  0  0
    3.0460    1.9183   -3.2320 H   0  0  0  0  0  0  0  0  0  0  0  0
    1.6884    0.6021   -2.1907 C   0  0  0  0  0  0  0  0  0  0  0  0
    2.4923    0.0604   -1.7017 H   0  0  0  0  0  0  0  0  0  0  0  0
   -1.1102    0.9865    0.4730 C   0  0  0  0  0  0  0  0  0  0  0  0
   -2.1632    1.4770    0.0745 O   0  0  0  0  0  0  0  0  0  0  0  0
   -0.3305    1.7147    1.3534 N   0  0  0  0  0  0  0  0  0  0  0  0
    0.5226    1.2807    1.6933 H   0  0  0  0  0  0  0  0  0  0  0  0
   -0.5944    3.1081    1.6900 C   0  0  0  0  0  0  0  0  0  0  0  0
   -1.5949    3.2157    2.1219 H   0  0  0  0  0  0  0  0  0  0  0  0
    0.1365    3.4659    2.4214 H   0  0  0  0  0  0  0  0  0  0  0  0
   -0.5267    3.7358    0.7953 H   0  0  0  0  0  0  0  0  0  0  0  0
  1  2  1  0  0  0  0
  2  3  1  0  0  0  0
  2  4  1  0  0  0  0
  2  5  1  0  0  0  0
  5  6  2  0  0  0  0
  5  7  1  0  0  0  0
  7  8  1  0  0  0  0
  7  9  1  0  0  0  0
  9 10  1  0  0  0  0
  9 11  1  0  0  0  0
  9 25  1  0  0  0  0
 11 12  1  0  0  0  0
 11 13  1  0  0  0  0
 11 14  1  0  0  0  0
 14 15  1  0  0  0  0
 14 23  2  0  0  0  0
 15 16  1  0  0  0  0
 15 17  2  0  0  0  0
 17 18  1  0  0  0  0
 17 19  1  0  0  0  0
 19 20  1  0  0  0  0
 19 21  2  0  0  0  0
 21 22  1  0  0  0  0
 21 23  1  0  0  0  0
 23 24  1  0  0  0  0
 25 26  2  0  0  0  0
 25 27  1  0  0  0  0
 27 28  1  0  0  0  0
 27 29  1  0  0  0  0
 29 30  1  0  0  0  0
 29 31  1  0  0  0  0
 29 32  1  0  0  0  0
M  END
$$$$

  -OEChem-04042216033D

 32 32  0     1  0  0  0  0  0999 V2000
   -3.5640   -4.0445    1.5828 H   0  0  0  0  0  0  0  0  0  0  0  0
   -3.6289   -3.1043    1.0280 C   0  0  0  0  0  0  0  0  0  0  0  0
   -4.3081   -2.4299    1.5552 H   0  0  0  0  0  0  0  0  0  0  0  0
   -4.0299   -3.3098    0.0325 H   0  0  0  0  0  0  0  0  0  0  0  0
   -2.2556   -2.4700    0.9121 C   0  0  0  0  0  0  0  0  0  0  0  0
   -1.2793   -3.0386    1.3761 O   0  0  0  0  0  0  0  0  0  0  0  0
   -2.1140   -1.2535    0.2772 N   0  0  0  0  0  0  0  0  0  0  0  0
   -2.9682   -0.7662    0.0097 H   0  0  0  0  0  0  0  0  0  0  0  0
   -0.8735   -0.4628    0.2528 C   0  0  1  0  0  0  0  0  0  0  0  0
   -0.2814   -0.7794    1.1177 H   0  0  0  0  0  0  0  0  0  0  0  0
   -0.0073   -0.8211   -0.9861 C   0  0  0  0  0  0  0  0  0  0  0  0
    0.9296   -1.2446   -0.6103 H   0  0  0  0  0  0  0  0  0  0  0  0
   -0.5043   -1.6246   -1.5393 H   0  0  0  0  0  0  0  0  0  0  0  0
    0.3248    0.2692   -1.9913 C   0  0  0  0  0  0  0  0  0  0  0  0
   -0.6332    1.1776   -2.4736 C   0  0  0  0  0  0  0  0  0  0  0  0
   -1.6738    1.0927   -2.1771 H   0  0  0  0  0  0  0  0  0  0  0  0
   -0.2771    2.1904   -3.3696 C   0  0  0  0  0  0  0  0  0  0  0  0
   -1.0338    2.8809   -3.7308 H   0  0  0  0  0  0  0  0  0  0  0  0
    1.0457    2.3096   -3.8018 C   0  0  0  0  0  0  0  0  0  0  0  0
    1.3216    3.0953   -4.4990 H   0  0  0  0  0  0  0  0  0  0  0  0
    2.0097    1.4113   -3.3387 C   0  0  0  0  0  0  0  0  0  0  0  0
    3.0384    1.4978   -3.6758 H   0  0  0  0  0  0  0  0  0  0  0  0
    1.6502    0.4006   -2.4404 C   0  0  0  0  0  0  0  0  0  0  0  0
    2.4162   -0.2854   -2.0912 H   0  0  0  0  0  0  0  0  0  0  0  0
   -1.1447    1.0313    0.5357 C   0  0  0  0  0  0  0  0  0  0  0  0
   -2.2226    1.5253    0.2171 O   0  0  0  0  0  0  0  0  0  0  0  0
   -0.3333    1.7308    1.4108 N   0  0  0  0  0  0  0  0  0  0  0  0
    0.5374    1.2921    1.6957 H   0  0  0  0  0  0  0  0  0  0  0  0
   -0.5977    3.1035    1.8239 C   0  0  0  0  0  0  0  0  0  0  0  0
   -1.5587    3.1689    2.3449 H   0  0  0  0  0  0  0  0  0  0  0  0
    0.1868    3.4524    2.5021 H   0  0  0  0  0  0  0  0  0  0  0  0
   -0.6223    3.7666    0.9528 H   0  0  0  0  0  0  0  0  0  0  0  0
  1  2  1  0  0  0  0
  2  3  1  0  0  0  0
  2  4  1  0  0  0  0
  2  5  1  0  0  0  0
  5  6  2  0  0  0  0
  5  7  1  0  0  0  0
  7  8  1  0  0  0  0
  7  9  1  0  0  0  0
  9 10  1  0  0  0  0
  9 11  1  0  0  0  0
  9 25  1  0  0  0  0
 11 12  1  0  0  0  0
 11 13  1  0  0  0  0
 11 14  1  0  0  0  0
 14 15  1  0  0  0  0
 14 23  2  0  0  0  0
 15 16  1  0  0  0  0
 15 17  2  0  0  0  0
 17 18  1  0  0  0  0
 17 19  1  0  0  0  0
 19 20  1  0  0  0  0
 19 21  2  0  0  0  0
 21 22  1  0  0  0  0
 21 23  1  0  0  0  0
 23 24  1  0  0  0  0
 25 26  2  0  0  0  0
 25 27  1  0  0  0  0
 27 28  1  0  0  0  0
 27 29  1  0  0  0  0
 29 30  1  0  0  0  0
 29 31  1  0  0  0  0
 29 32  1  0  0  0  0
M  END
$$$$

  -OEChem-04042216033D

 32 32  0     1  0  0  0  0  0999 V2000
   -3.4858   -4.1000    1.5339 H   0  0  0  0  0  0  0  0  0  0  0  0
   -3.5810   -3.1540    0.9939 C   0  0  0  0  0  0  0  0  0  0  0  0
   -4.2775   -2.5087    1.5346 H   0  0  0  0  0  0  0  0  0  0  0  0
   -3.9806   -3.3553   -0.0028 H   0  0  0  0  0  0  0  0  0  0  0  0
   -2.2279   -2.4774    0.8813 C   0  0  0  0  0  0  0  0  0  0  0  0
   -1.2290   -3.0312    1.3140 O   0  0  0  0  0  0  0  0  0  0  0  0
   -2.1317   -1.2382    0.2831 N   0  0  0  0  0  0  0  0  0  0  0  0
   -3.0041   -0.7708    0.0398 H   0  0  0  0  0  0  0  0  0  0  0  0
   -0.9165   -0.4091    0.2633 C   0  0  1  0  0  0  0  0  0  0  0  0
   -0.3223   -0.7278    1.1261 H   0  0  0  0  0  0  0  0  0  0  0  0
   -0.0242   -0.7462   -0.9655 C   0  0  0  0  0  0  0  0  0  0  0  0
    0.9185   -1.1310   -0.5630 H   0  0  0  0  0  0  0  0  0  0  0  0
   -0.4875   -1.5798   -1.5034 H   0  0  0  0  0  0  0  0  0  0  0  0
    0.3184    0.3067   -2.0124 C   0  0  0  0  0  0  0  0  0  0  0  0
   -0.5108    1.3883   -2.3636 C   0  0  0  0  0  0  0  0  0  0  0  0
   -1.5117    1.4871   -1.9629 H   0  0  0  0  0  0  0  0  0  0  0  0
   -0.0960    2.3432   -3.2977 C   0  0  0  0  0  0  0  0  0  0  0  0
   -0.7576    3.1643   -3.5585 H   0  0  0  0  0  0  0  0  0  0  0  0
    1.1576    2.2359   -3.9022 C   0  0  0  0  0  0  0  0  0  0  0  0
    1.4779    2.9769   -4.6288 H   0  0  0  0  0  0  0  0  0  0  0  0
    1.9923    1.1662   -3.5750 C   0  0  0  0  0  0  0  0  0  0  0  0
    2.9668    1.0742   -4.0454 H   0  0  0  0  0  0  0  0  0  0  0  0
    1.5736    0.2136   -2.6402 C   0  0  0  0  0  0  0  0  0  0  0  0
    2.2423   -0.6076   -2.3992 H   0  0  0  0  0  0  0  0  0  0  0  0
   -1.2138    1.0684    0.5950 C   0  0  0  0  0  0  0  0  0  0  0  0
   -2.3124    1.5438    0.3229 O   0  0  0  0  0  0  0  0  0  0  0  0
   -0.4007    1.7587    1.4759 N   0  0  0  0  0  0  0  0  0  0  0  0
    0.4823    1.3283    1.7354 H   0  0  0  0  0  0  0  0  0  0  0  0
   -0.6929    3.1056    1.9504 C   0  0  0  0  0  0  0  0  0  0  0  0
   -1.6469    3.1243    2.4878 H   0  0  0  0  0  0  0  0  0  0  0  0
    0.0931    3.4454    2.6314 H   0  0  0  0  0  0  0  0  0  0  0  0
   -0.7475    3.8034    1.1083 H   0  0  0  0  0  0  0  0  0  0  0  0
  1  2  1  0  0  0  0
  2  3  1  0  0  0  0
  2  4  1  0  0  0  0
  2  5  1  0  0  0  0
  5  6  2  0  0  0  0
  5  7  1  0  0  0  0
  7  8  1  0  0  0  0
  7  9  1  0  0  0  0
  9 10  1  0  0  0  0
  9 11  1  0  0  0  0
  9 25  1  0  0  0  0
 11 12  1  0  0  0  0
 11 13  1  0  0  0  0
 11 14  1  0  0  0  0
 14 15  1  0  0  0  0
 14 23  2  0  0  0  0
 15 16  1  0  0  0  0
 15 17  2  0  0  0  0
 17 18  1  0  0  0  0
 17 19  1  0  0  0  0
 19 20  1  0  0  0  0
 19 21  2  0  0  0  0
 21 22  1  0  0  0  0
 21 23  1  0  0  0  0
 23 24  1  0  0  0  0
 25 26  2  0  0  0  0
 25 27  1  0  0  0  0
 27 28  1  0  0  0  0
 27 29  1  0  0  0  0
 29 30  1  0  0  0  0
 29 31  1  0  0  0  0
 29 32  1  0  0  0  0
M  END
$$$$

  -OEChem-04042216033D

 32 32  0     1  0  0  0  0  0999 V2000
   -3.5923   -4.0024    1.5422 H   0  0  0  0  0  0  0  0  0  0  0  0
   -3.6710   -3.0295    1.0493 C   0  0  0  0  0  0  0  0  0  0  0  0
   -4.3149   -2.3819    1.6494 H   0  0  0  0  0  0  0  0  0  0  0  0
   -4.1226   -3.1691    0.0641 H   0  0  0  0  0  0  0  0  0  0  0  0
   -2.2969   -2.4026    0.9048 C   0  0  0  0  0  0  0  0  0  0  0  0
   -1.3053   -3.0088    1.2806 O   0  0  0  0  0  0  0  0  0  0  0  0
   -2.1731   -1.1485    0.3436 N   0  0  0  0  0  0  0  0  0  0  0  0
   -3.0338   -0.6406    0.1430 H   0  0  0  0  0  0  0  0  0  0  0  0
   -0.9256   -0.3693    0.2946 C   0  0  1  0  0  0  0  0  0  0  0  0
   -0.3037   -0.7377    1.1173 H   0  0  0  0  0  0  0  0  0  0  0  0
   -0.1120   -0.7077   -0.9899 C   0  0  0  0  0  0  0  0  0  0  0  0
    0.8284   -1.1444   -0.6377 H   0  0  0  0  0  0  0  0  0  0  0  0
   -0.6415   -1.5109   -1.5135 H   0  0  0  0  0  0  0  0  0  0  0  0
    0.2593    0.3170   -2.0605 C   0  0  0  0  0  0  0  0  0  0  0  0
   -0.2934    1.6029   -2.2314 C   0  0  0  0  0  0  0  0  0  0  0  0
   -1.1257    1.9655   -1.6472 H   0  0  0  0  0  0  0  0  0  0  0  0
    0.1773    2.4669   -3.2265 C   0  0  0  0  0  0  0  0  0  0  0  0
   -0.2706    3.4494   -3.3424 H   0  0  0  0  0  0  0  0  0  0  0  0
    1.2092    2.0681   -4.0762 C   0  0  0  0  0  0  0  0  0  0  0  0
    1.5716    2.7401   -4.8487 H   0  0  0  0  0  0  0  0  0  0  0  0
    1.7659    0.7977   -3.9320 C   0  0  0  0  0  0  0  0  0  0  0  0
    2.5665    0.4768   -4.5919 H   0  0  0  0  0  0  0  0  0  0  0  0
    1.2936   -0.0624   -2.9360 C   0  0  0  0  0  0  0  0  0  0  0  0
    1.7477   -1.0444   -2.8414 H   0  0  0  0  0  0  0  0  0  0  0  0
   -1.1654    1.1009    0.6897 C   0  0  0  0  0  0  0  0  0  0  0  0
   -2.2544    1.6203    0.4624 O   0  0  0  0  0  0  0  0  0  0  0  0
   -0.2998    1.7414    1.5578 N   0  0  0  0  0  0  0  0  0  0  0  0
    0.5741    1.2735    1.7807 H   0  0  0  0  0  0  0  0  0  0  0  0
   -0.5386    3.0776    2.0899 C   0  0  0  0  0  0  0  0  0  0  0  0
   -1.4475    3.0901    2.7006 H   0  0  0  0  0  0  0  0  0  0  0  0
    0.3025    3.3912    2.7156 H   0  0  0  0  0  0  0  0  0  0  0  0
   -0.6510    3.8003    1.2748 H   0  0  0  0  0  0  0  0  0  0  0  0
  1  2  1  0  0  0  0
  2  3  1  0  0  0  0
  2  4  1  0  0  0  0
  2  5  1  0  0  0  0
  5  6  2  0  0  0  0
  5  7  1  0  0  0  0
  7  8  1  0  0  0  0
  7  9  1  0  0  0  0
  9 10  1  0  0  0  0
  9 11  1  0  0  0  0
  9 25  1  0  0  0  0
 11 12  1  0  0  0  0
 11 13  1  0  0  0  0
 11 14  1  0  0  0  0
 14 15  1  0  0  0  0
 14 23  2  0  0  0  0
 15 16  1  0  0  0  0
 15 17  2  0  0  0  0
 17 18  1  0  0  0  0
 17 19  1  0  0  0  0
 19 20  1  0  0  0  0
 19 21  2  0  0  0  0
 21 22  1  0  0  0  0
 21 23  1  0  0  0  0
 23 24  1  0  0  0  0
 25 26  2  0  0  0  0
 25 27  1  0  0  0  0
 27 28  1  0  0  0  0
 27 29  1  0  0  0  0
 29 30  1  0  0  0  0
 29 31  1  0  0  0  0
 29 32  1  0  0  0  0
M  END
$$$$

  -OEChem-04042216033D

 32 32  0     1  0  0  0  0  0999 V2000
   -3.4721   -4.1233    1.3836 H   0  0  0  0  0  0  0  0  0  0  0  0
   -3.5580   -3.1466    0.8988 C   0  0  0  0  0  0  0  0  0  0  0  0
   -4.2543   -2.5293    1.4719 H   0  0  0  0  0  0  0  0  0  0  0  0
   -3.9516   -3.2870   -0.1108 H   0  0  0  0  0  0  0  0  0  0  0  0
   -2.2004   -2.4723    0.8344 C   0  0  0  0  0  0  0  0  0  0  0  0
   -1.2075   -3.0557    1.2411 O   0  0  0  0  0  0  0  0  0  0  0  0
   -2.0918   -1.1996    0.3138 N   0  0  0  0  0  0  0  0  0  0  0  0
   -2.9561   -0.7158    0.0724 H   0  0  0  0  0  0  0  0  0  0  0  0
   -0.8630   -0.3886    0.3219 C   0  0  1  0  0  0  0  0  0  0  0  0
   -0.2283   -0.7660    1.1306 H   0  0  0  0  0  0  0  0  0  0  0  0
   -0.0600   -0.6433   -0.9908 C   0  0  0  0  0  0  0  0  0  0  0  0
    0.8911   -1.0818   -0.6710 H   0  0  0  0  0  0  0  0  0  0  0  0
   -0.5850   -1.4311   -1.5418 H   0  0  0  0  0  0  0  0  0  0  0  0
    0.3049    0.4186   -2.0310 C   0  0  0  0  0  0  0  0  0  0  0  0
   -0.0003    1.7978   -2.0171 C   0  0  0  0  0  0  0  0  0  0  0  0
   -0.5724    2.2802   -1.2406 H   0  0  0  0  0  0  0  0  0  0  0  0
    0.4188    2.6418   -3.0520 C   0  0  0  0  0  0  0  0  0  0  0  0
    0.1652    3.6973   -3.0213 H   0  0  0  0  0  0  0  0  0  0  0  0
    1.1532    2.1362   -4.1242 C   0  0  0  0  0  0  0  0  0  0  0  0
    1.4740    2.7944   -4.9262 H   0  0  0  0  0  0  0  0  0  0  0  0
    1.4685    0.7792   -4.1604 C   0  0  0  0  0  0  0  0  0  0  0  0
    2.0385    0.3754   -4.9919 H   0  0  0  0  0  0  0  0  0  0  0  0
    1.0476   -0.0620   -3.1263 C   0  0  0  0  0  0  0  0  0  0  0  0
    1.3054   -1.1158   -3.1801 H   0  0  0  0  0  0  0  0  0  0  0  0
   -1.1902    1.0505    0.7563 C   0  0  0  0  0  0  0  0  0  0  0  0
   -2.2632    1.5567    0.4420 O   0  0  0  0  0  0  0  0  0  0  0  0
   -0.3891    1.7036    1.6756 N   0  0  0  0  0  0  0  0  0  0  0  0
    0.4645    1.2383    1.9712 H   0  0  0  0  0  0  0  0  0  0  0  0
   -0.7066    3.0134    2.2315 C   0  0  0  0  0  0  0  0  0  0  0  0
   -1.6545    2.9782    2.7786 H   0  0  0  0  0  0  0  0  0  0  0  0
    0.0798    3.3311    2.9230 H   0  0  0  0  0  0  0  0  0  0  0  0
   -0.7873    3.7590    1.4334 H   0  0  0  0  0  0  0  0  0  0  0  0
  1  2  1  0  0  0  0
  2  3  1  0  0  0  0
  2  4  1  0  0  0  0
  2  5  1  0  0  0  0
  5  6  2  0  0  0  0
  5  7  1  0  0  0  0
  7  8  1  0  0  0  0
  7  9  1  0  0  0  0
  9 10  1  0  0  0  0
  9 11  1  0  0  0  0
  9 25  1  0  0  0  0
 11 12  1  0  0  0  0
 11 13  1  0  0  0  0
 11 14  1  0  0  0  0
 14 15  1  0  0  0  0
 14 23  2  0  0  0  0
 15 16  1  0  0  0  0
 15 17  2  0  0  0  0
 17 18  1  0  0  0  0
 17 19  1  0  0  0  0
 19 20  1  0  0  0  0
 19 21  2  0  0  0  0
 21 22  1  0  0  0  0
 21 23  1  0  0  0  0
 23 24  1  0  0  0  0
 25 26  2  0  0  0  0
 25 27  1  0  0  0  0
 27 28  1  0  0  0  0
 27 29  1  0  0  0  0
 29 30  1  0  0  0  0
 29 31  1  0  0  0  0
 29 32  1  0  0  0  0
M  END
$$$$

  -OEChem-04042216033D

 32 32  0     1  0  0  0  0  0999 V2000
   -3.5440   -4.0816    1.3390 H   0  0  0  0  0  0  0  0  0  0  0  0
   -3.5954   -3.1047    0.8504 C   0  0  0  0  0  0  0  0  0  0  0  0
   -4.3066   -2.4765    1.3923 H   0  0  0  0  0  0  0  0  0  0  0  0
   -3.9479   -3.2411   -0.1749 H   0  0  0  0  0  0  0  0  0  0  0  0
   -2.2268   -2.4506    0.8436 C   0  0  0  0  0  0  0  0  0  0  0  0
   -1.2650   -3.0380    1.3139 O   0  0  0  0  0  0  0  0  0  0  0  0
   -2.0714   -1.1927    0.3005 N   0  0  0  0  0  0  0  0  0  0  0  0
   -2.9123   -0.7013   -0.0010 H   0  0  0  0  0  0  0  0  0  0  0  0
   -0.8273   -0.4071    0.3418 C   0  0  1  0  0  0  0  0  0  0  0  0
   -0.2086   -0.7803    1.1645 H   0  0  0  0  0  0  0  0  0  0  0  0
   -0.0259   -0.6777   -0.9699 C   0  0  0  0  0  0  0  0  0  0  0  0
    0.9134   -1.1433   -0.6545 H   0  0  0  0  0  0  0  0  0  0  0  0
   -0.5711   -1.4486   -1.5253 H   0  0  0  0  0  0  0  0  0  0  0  0
    0.3694    0.3876   -1.9960 C   0  0  0  0  0  0  0  0  0  0  0  0
    0.3617    1.7907   -1.8342 C   0  0  0  0  0  0  0  0  0  0  0  0
    0.0849    2.2851   -0.9161 H   0  0  0  0  0  0  0  0  0  0  0  0
    0.7432    2.6417   -2.8779 C   0  0  0  0  0  0  0  0  0  0  0  0
    0.7255    3.7172   -2.7293 H   0  0  0  0  0  0  0  0  0  0  0  0
    1.1464    2.1177   -4.1059 C   0  0  0  0  0  0  0  0  0  0  0  0
    1.4402    2.7812   -4.9141 H   0  0  0  0  0  0  0  0  0  0  0  0
    1.1713    0.7358   -4.2877 C   0  0  0  0  0  0  0  0  0  0  0  0
    1.4858    0.3177   -5.2395 H   0  0  0  0  0  0  0  0  0  0  0  0
    0.7887   -0.1117   -3.2439 C   0  0  0  0  0  0  0  0  0  0  0  0
    0.8175   -1.1841   -3.4137 H   0  0  0  0  0  0  0  0  0  0  0  0
   -1.1772    1.0390    0.7335 C   0  0  0  0  0  0  0  0  0  0  0  0
   -2.2016    1.5650    0.3108 O   0  0  0  0  0  0  0  0  0  0  0  0
   -0.4199    1.7081    1.6789 N   0  0  0  0  0  0  0  0  0  0  0  0
    0.3826    1.2220    2.0694 H   0  0  0  0  0  0  0  0  0  0  0  0
   -0.7559    3.0337    2.1839 C   0  0  0  0  0  0  0  0  0  0  0  0
   -1.7228    3.0139    2.6977 H   0  0  0  0  0  0  0  0  0  0  0  0
    0.0058    3.3725    2.8926 H   0  0  0  0  0  0  0  0  0  0  0  0
   -0.8077    3.7553    1.3618 H   0  0  0  0  0  0  0  0  0  0  0  0
  1  2  1  0  0  0  0
  2  3  1  0  0  0  0
  2  4  1  0  0  0  0
  2  5  1  0  0  0  0
  5  6  2  0  0  0  0
  5  7  1  0  0  0  0
  7  8  1  0  0  0  0
  7  9  1  0  0  0  0
  9 10  1  0  0  0  0
  9 11  1  0  0  0  0
  9 25  1  0  0  0  0
 11 12  1  0  0  0  0
 11 13  1  0  0  0  0
 11 14  1  0  0  0  0
 14 15  1  0  0  0  0
 14 23  2  0  0  0  0
 15 16  1  0  0  0  0
 15 17  2  0  0  0  0
 17 18  1  0  0  0  0
 17 19  1  0  0  0  0
 19 20  1  0  0  0  0
 19 21  2  0  0  0  0
 21 22  1  0  0  0  0
 21 23  1  0  0  0  0
 23 24  1  0  0  0  0
 25 26  2  0  0  0  0
 25 27  1  0  0  0  0
 27 28  1  0  0  0  0
 27 29  1  0  0  0  0
 29 30  1  0  0  0  0
 29 31  1  0  0  0  0
 29 32  1  0  0  0  0
M  END
$$$$

  -OEChem-04042216033D

 32 32  0     1  0  0  0  0  0999 V2000
   -3.6269   -4.0073    1.4012 H   0  0  0  0  0  0  0  0  0  0  0  0
   -3.6383   -3.0533    0.8667 C   0  0  0  0  0  0  0  0  0  0  0  0
   -4.3508   -2.3845    1.3555 H   0  0  0  0  0  0  0  0  0  0  0  0
   -3.9612   -3.2290   -0.1622 H   0  0  0  0  0  0  0  0  0  0  0  0
   -2.2542   -2.4322    0.8750 C   0  0  0  0  0  0  0  0  0  0  0  0
   -1.3234   -3.0189    1.4047 O   0  0  0  0  0  0  0  0  0  0  0  0
   -2.0501   -1.2023    0.2859 N   0  0  0  0  0  0  0  0  0  0  0  0
   -2.8682   -0.7026   -0.0616 H   0  0  0  0  0  0  0  0  0  0  0  0
   -0.7884   -0.4460    0.3380 C   0  0  1  0  0  0  0  0  0  0  0  0
   -0.1862   -0.8026    1.1799 H   0  0  0  0  0  0  0  0  0  0  0  0
    0.0090   -0.7589   -0.9672 C   0  0  0  0  0  0  0  0  0  0  0  0
    0.9397   -1.2389   -0.6493 H   0  0  0  0  0  0  0  0  0  0  0  0
   -0.5476   -1.5247   -1.5179 H   0  0  0  0  0  0  0  0  0  0  0  0
    0.4176    0.3145   -1.9763 C   0  0  0  0  0  0  0  0  0  0  0  0
    0.7041    1.6630   -1.6803 C   0  0  0  0  0  0  0  0  0  0  0  0
    0.7161    2.0430   -0.6692 H   0  0  0  0  0  0  0  0  0  0  0  0
    1.0381    2.5718   -2.6905 C   0  0  0  0  0  0  0  0  0  0  0  0
    1.2547    3.6054   -2.4373 H   0  0  0  0  0  0  0  0  0  0  0  0
    1.0994    2.1545   -4.0204 C   0  0  0  0  0  0  0  0  0  0  0  0
    1.3576    2.8612   -4.8035 H   0  0  0  0  0  0  0  0  0  0  0  0
    0.8308    0.8230   -4.3368 C   0  0  0  0  0  0  0  0  0  0  0  0
    0.8788    0.4898   -5.3692 H   0  0  0  0  0  0  0  0  0  0  0  0
    0.4946   -0.0816   -3.3248 C   0  0  0  0  0  0  0  0  0  0  0  0
    0.2854   -1.1106   -3.6014 H   0  0  0  0  0  0  0  0  0  0  0  0
   -1.1397    1.0201    0.6597 C   0  0  0  0  0  0  0  0  0  0  0  0
   -2.1367    1.5428    0.1727 O   0  0  0  0  0  0  0  0  0  0  0  0
   -0.4103    1.7170    1.6078 N   0  0  0  0  0  0  0  0  0  0  0  0
    0.3556    1.2294    2.0641 H   0  0  0  0  0  0  0  0  0  0  0  0
   -0.7494    3.0649    2.0470 C   0  0  0  0  0  0  0  0  0  0  0  0
   -1.7320    3.0738    2.5300 H   0  0  0  0  0  0  0  0  0  0  0  0
   -0.0068    3.4267    2.7646 H   0  0  0  0  0  0  0  0  0  0  0  0
   -0.7686    3.7521    1.1947 H   0  0  0  0  0  0  0  0  0  0  0  0
  1  2  1  0  0  0  0
  2  3  1  0  0  0  0
  2  4  1  0  0  0  0
  2  5  1  0  0  0  0
  5  6  2  0  0  0  0
  5  7  1  0  0  0  0
  7  8  1  0  0  0  0
  7  9  1  0  0  0  0
  9 10  1  0  0  0  0
  9 11  1  0  0  0  0
  9 25  1  0  0  0  0
 11 12  1  0  0  0  0
 11 13  1  0  0  0  0
 11 14  1  0  0  0  0
 14 15  1  0  0  0  0
 14 23  2  0  0  0  0
 15 16  1  0  0  0  0
 15 17  2  0  0  0  0
 17 18  1  0  0  0  0
 17 19  1  0  0  0  0
 19 20  1  0  0  0  0
 19 21  2  0  0  0  0
 21 22  1  0  0  0  0
 21 23  1  0  0  0  0
 23 24  1  0  0  0  0
 25 26  2  0  0  0  0
 25 27  1  0  0  0  0
 27 28  1  0  0  0  0
 27 29  1  0  0  0  0
 29 30  1  0  0  0  0
 29 31  1  0  0  0  0
 29 32  1  0  0  0  0
M  END
$$$$

  -OEChem-04042216033D

 32 32  0     1  0  0  0  0  0999 V2000
   -3.6727   -3.9598    1.4931 H   0  0  0  0  0  0  0  0  0  0  0  0
   -3.6616   -3.0299    0.9176 C   0  0  0  0  0  0  0  0  0  0  0  0
   -4.3700   -2.3294    1.3667 H   0  0  0  0  0  0  0  0  0  0  0  0
   -3.9728   -3.2451   -0.1075 H   0  0  0  0  0  0  0  0  0  0  0  0
   -2.2677   -2.4309    0.9194 C   0  0  0  0  0  0  0  0  0  0  0  0
   -1.3550   -3.0068    1.4910 O   0  0  0  0  0  0  0  0  0  0  0  0
   -2.0340   -1.2350    0.2742 N   0  0  0  0  0  0  0  0  0  0  0  0
   -2.8399   -0.7341   -0.1000 H   0  0  0  0  0  0  0  0  0  0  0  0
   -0.7618   -0.4966    0.3153 C   0  0  1  0  0  0  0  0  0  0  0  0
   -0.1690   -0.8254    1.1751 H   0  0  0  0  0  0  0  0  0  0  0  0
    0.0339   -0.8518   -0.9771 C   0  0  0  0  0  0  0  0  0  0  0  0
    0.9639   -1.3307   -0.6560 H   0  0  0  0  0  0  0  0  0  0  0  0
   -0.5226   -1.6195   -1.5249 H   0  0  0  0  0  0  0  0  0  0  0  0
    0.4291    0.2406   -1.9621 C   0  0  0  0  0  0  0  0  0  0  0  0
    0.9859    1.4736   -1.5743 C   0  0  0  0  0  0  0  0  0  0  0  0
    1.2207    1.6778   -0.5373 H   0  0  0  0  0  0  0  0  0  0  0  0
    1.2944    2.4562   -2.5209 C   0  0  0  0  0  0  0  0  0  0  0  0
    1.7269    3.3997   -2.2016 H   0  0  0  0  0  0  0  0  0  0  0  0
    1.0509    2.2241   -3.8760 C   0  0  0  0  0  0  0  0  0  0  0  0
    1.2887    2.9869   -4.6116 H   0  0  0  0  0  0  0  0  0  0  0  0
    0.5011    1.0064   -4.2812 C   0  0  0  0  0  0  0  0  0  0  0  0
    0.3074    0.8221   -5.3337 H   0  0  0  0  0  0  0  0  0  0  0  0
    0.1929    0.0266   -3.3315 C   0  0  0  0  0  0  0  0  0  0  0  0
   -0.2433   -0.9081   -3.6706 H   0  0  0  0  0  0  0  0  0  0  0  0
   -1.1021    0.9904    0.5576 C   0  0  0  0  0  0  0  0  0  0  0  0
   -2.0899    1.4934    0.0317 O   0  0  0  0  0  0  0  0  0  0  0  0
   -0.3869    1.7289    1.4848 N   0  0  0  0  0  0  0  0  0  0  0  0
    0.3604    1.2578    1.9864 H   0  0  0  0  0  0  0  0  0  0  0  0
   -0.7141    3.1054    1.8359 C   0  0  0  0  0  0  0  0  0  0  0  0
   -1.7152    3.1617    2.2762 H   0  0  0  0  0  0  0  0  0  0  0  0
    0.0068    3.4910    2.5633 H   0  0  0  0  0  0  0  0  0  0  0  0
   -0.6835    3.7449    0.9473 H   0  0  0  0  0  0  0  0  0  0  0  0
  1  2  1  0  0  0  0
  2  3  1  0  0  0  0
  2  4  1  0  0  0  0
  2  5  1  0  0  0  0
  5  6  2  0  0  0  0
  5  7  1  0  0  0  0
  7  8  1  0  0  0  0
  7  9  1  0  0  0  0
  9 10  1  0  0  0  0
  9 11  1  0  0  0  0
  9 25  1  0  0  0  0
 11 12  1  0  0  0  0
 11 13  1  0  0  0  0
 11 14  1  0  0  0  0
 14 15  1  0  0  0  0
 14 23  2  0  0  0  0
 15 16  1  0  0  0  0
 15 17  2  0  0  0  0
 17 18  1  0  0  0  0
 17 19  1  0  0  0  0
 19 20  1  0  0  0  0
 19 21  2  0  0  0  0
 21 22  1  0  0  0  0
 21 23  1  0  0  0  0
 23 24  1  0  0  0  0
 25 26  2  0  0  0  0
 25 27  1  0  0  0  0
 27 28  1  0  0  0  0
 27 29  1  0  0  0  0
 29 30  1  0  0  0  0
 29 31  1  0  0  0  0
 29 32  1  0  0  0  0
M  END
$$$$

  -OEChem-04042216033D

 32 32  0     1  0  0  0  0  0999 V2000
   -3.6967   -3.9269    1.5973 H   0  0  0  0  0  0  0  0  0  0  0  0
   -3.6768   -3.0226    0.9827 C   0  0  0  0  0  0  0  0  0  0  0  0
   -4.3713   -2.2933    1.4068 H   0  0  0  0  0  0  0  0  0  0  0  0
   -3.9995   -3.2767   -0.0297 H   0  0  0  0  0  0  0  0  0  0  0  0
   -2.2749   -2.4436    0.9486 C   0  0  0  0  0  0  0  0  0  0  0  0
   -1.3647   -3.0081    1.5352 O   0  0  0  0  0  0  0  0  0  0  0  0
   -2.0347   -1.2733    0.2605 N   0  0  0  0  0  0  0  0  0  0  0  0
   -2.8400   -0.7787   -0.1228 H   0  0  0  0  0  0  0  0  0  0  0  0
   -0.7611   -0.5369    0.2779 C   0  0  1  0  0  0  0  0  0  0  0  0
   -0.1731   -0.8413    1.1497 H   0  0  0  0  0  0  0  0  0  0  0  0
    0.0468   -0.9160   -0.9947 C   0  0  0  0  0  0  0  0  0  0  0  0
    0.9820   -1.3798   -0.6662 H   0  0  0  0  0  0  0  0  0  0  0  0
   -0.4962   -1.6901   -1.5466 H   0  0  0  0  0  0  0  0  0  0  0  0
    0.4100    0.2025   -1.9538 C   0  0  0  0  0  0  0  0  0  0  0  0
    1.1998    1.2940   -1.5523 C   0  0  0  0  0  0  0  0  0  0  0  0
    1.5991    1.3395   -0.5448 H   0  0  0  0  0  0  0  0  0  0  0  0
    1.4970    2.3296   -2.4445 C   0  0  0  0  0  0  0  0  0  0  0  0
    2.1078    3.1671   -2.1211 H   0  0  0  0  0  0  0  0  0  0  0  0
    1.0071    2.2879   -3.7523 C   0  0  0  0  0  0  0  0  0  0  0  0
    1.2348    3.0921   -4.4457 H   0  0  0  0  0  0  0  0  0  0  0  0
    0.2195    1.2101   -4.1649 C   0  0  0  0  0  0  0  0  0  0  0  0
   -0.1670    1.1771   -5.1792 H   0  0  0  0  0  0  0  0  0  0  0  0
   -0.0779    0.1764   -3.2702 C   0  0  0  0  0  0  0  0  0  0  0  0
   -0.7002   -0.6475   -3.6058 H   0  0  0  0  0  0  0  0  0  0  0  0
   -1.0773    0.9644    0.4630 C   0  0  0  0  0  0  0  0  0  0  0  0
   -2.0713    1.4552   -0.0634 O   0  0  0  0  0  0  0  0  0  0  0  0
   -0.3496    1.7249    1.3618 N   0  0  0  0  0  0  0  0  0  0  0  0
    0.4048    1.2673    1.8646 H   0  0  0  0  0  0  0  0  0  0  0  0
   -0.6542    3.1188    1.6600 C   0  0  0  0  0  0  0  0  0  0  0  0
   -1.6641    3.2109    2.0733 H   0  0  0  0  0  0  0  0  0  0  0  0
    0.0564    3.5134    2.3927 H   0  0  0  0  0  0  0  0  0  0  0  0
   -0.5876    3.7270    0.7517 H   0  0  0  0  0  0  0  0  0  0  0  0
  1  2  1  0  0  0  0
  2  3  1  0  0  0  0
  2  4  1  0  0  0  0
  2  5  1  0  0  0  0
  5  6  2  0  0  0  0
  5  7  1  0  0  0  0
  7  8  1  0  0  0  0
  7  9  1  0  0  0  0
  9 10  1  0  0  0  0
  9 11  1  0  0  0  0
  9 25  1  0  0  0  0
 11 12  1  0  0  0  0
 11 13  1  0  0  0  0
 11 14  1  0  0  0  0
 14 15  1  0  0  0  0
 14 23  2  0  0  0  0
 15 16  1  0  0  0  0
 15 17  2  0  0  0  0
 17 18  1  0  0  0  0
 17 19  1  0  0  0  0
 19 20  1  0  0  0  0
 19 21  2  0  0  0  0
 21 22  1  0  0  0  0
 21 23  1  0  0  0  0
 23 24  1  0  0  0  0
 25 26  2  0  0  0  0
 25 27  1  0  0  0  0
 27 28  1  0  0  0  0
 27 29  1  0  0  0  0
 29 30  1  0  0  0  0
 29 31  1  0  0  0  0
 29 32  1  0  0  0  0
M  END
$$$$

  -OEChem-04042216033D

 32 32  0     1  0  0  0  0  0999 V2000
   -3.7033   -3.9178    1.6619 H   0  0  0  0  0  0  0  0  0  0  0  0
   -3.6838   -3.0286    1.0256 C   0  0  0  0  0  0  0  0  0  0  0  0
   -4.3685   -2.2845    1.4398 H   0  0  0  0  0  0  0  0  0  0  0  0
   -4.0200   -3.3044    0.0232 H   0  0  0  0  0  0  0  0  0  0  0  0
   -2.2786   -2.4600    0.9622 C   0  0  0  0  0  0  0  0  0  0  0  0
   -1.3650   -3.0187    1.5492 O   0  0  0  0  0  0  0  0  0  0  0  0
   -2.0401   -1.3055    0.2473 N   0  0  0  0  0  0  0  0  0  0  0  0
   -2.8489   -0.8115   -0.1290 H   0  0  0  0  0  0  0  0  0  0  0  0
   -0.7678   -0.5678    0.2494 C   0  0  1  0  0  0  0  0  0  0  0  0
   -0.1847   -0.8546    1.1303 H   0  0  0  0  0  0  0  0  0  0  0  0
    0.0551   -0.9578   -1.0060 C   0  0  0  0  0  0  0  0  0  0  0  0
    0.9924   -1.4136   -0.6717 H   0  0  0  0  0  0  0  0  0  0  0  0
   -0.4779   -1.7322   -1.5678 H   0  0  0  0  0  0  0  0  0  0  0  0
    0.3916    0.1826   -1.9421 C   0  0  0  0  0  0  0  0  0  0  0  0
    1.3913    1.1116   -1.6098 C   0  0  0  0  0  0  0  0  0  0  0  0
    1.9512    1.0026   -0.6865 H   0  0  0  0  0  0  0  0  0  0  0  0
    1.6778    2.1837   -2.4615 C   0  0  0  0  0  0  0  0  0  0  0  0
    2.4521    2.8972   -2.1961 H   0  0  0  0  0  0  0  0  0  0  0  0
    0.9646    2.3391   -3.6536 C   0  0  0  0  0  0  0  0  0  0  0  0
    1.1834    3.1724   -4.3147 H   0  0  0  0  0  0  0  0  0  0  0  0
   -0.0361    1.4232   -3.9908 C   0  0  0  0  0  0  0  0  0  0  0  0
   -0.5979    1.5469   -4.9118 H   0  0  0  0  0  0  0  0  0  0  0  0
   -0.3216    0.3517   -3.1379 C   0  0  0  0  0  0  0  0  0  0  0  0
   -1.1108   -0.3446   -3.4046 H   0  0  0  0  0  0  0  0  0  0  0  0
   -1.0670    0.9414    0.3991 C   0  0  0  0  0  0  0  0  0  0  0  0
   -2.0675    1.4237   -0.1235 O   0  0  0  0  0  0  0  0  0  0  0  0
   -0.3308    1.7154    1.2783 N   0  0  0  0  0  0  0  0  0  0  0  0
    0.4551    1.2773    1.7488 H   0  0  0  0  0  0  0  0  0  0  0  0
   -0.6028    3.1265    1.5199 C   0  0  0  0  0  0  0  0  0  0  0  0
   -1.6171    3.2602    1.9102 H   0  0  0  0  0  0  0  0  0  0  0  0
    0.1043    3.5286    2.2515 H   0  0  0  0  0  0  0  0  0  0  0  0
   -0.5038    3.6987    0.5914 H   0  0  0  0  0  0  0  0  0  0  0  0
  1  2  1  0  0  0  0
  2  3  1  0  0  0  0
  2  4  1  0  0  0  0
  2  5  1  0  0  0  0
  5  6  2  0  0  0  0
  5  7  1  0  0  0  0
  7  8  1  0  0  0  0
  7  9  1  0  0  0  0
  9 10  1  0  0  0  0
  9 11  1  0  0  0  0
  9 25  1  0  0  0  0
 11 12  1  0  0  0  0
 11 13  1  0  0  0  0
 11 14  1  0  0  0  0
 14 15  1  0  0  0  0
 14 23  2  0  0  0  0
 15 16  1  0  0  0  0
 15 17  2  0  0  0  0
 17 18  1  0  0  0  0
 17 19  1  0  0  0  0
 19 20  1  0  0  0  0
 19 21  2  0  0  0  0
 21 22  1  0  0  0  0
 21 23  1  0  0  0  0
 23 24  1  0  0  0  0
 25 26  2  0  0  0  0
 25 27  1  0  0  0  0
 27 28  1  0  0  0  0
 27 29  1  0  0  0  0
 29 30  1  0  0  0  0
 29 31  1  0  0  0  0
 29 32  1  0  0  0  0
M  END
$$$$

  -OEChem-04042216033D

 32 32  0     1  0  0  0  0  0999 V2000
   -3.6978   -3.9242    1.6859 H   0  0  0  0  0  0  0  0  0  0  0  0
   -3.6843   -3.0416    1.0403 C   0  0  0  0  0  0  0  0  0  0  0  0
   -4.3697   -2.2954    1.4495 H   0  0  0  0  0  0  0  0  0  0  0  0
   -4.0236   -3.3294    0.0424 H   0  0  0  0  0  0  0  0  0  0  0  0
   -2.2811   -2.4697    0.9651 C   0  0  0  0  0  0  0  0  0  0  0  0
   -1.3606   -3.0278    1.5419 O   0  0  0  0  0  0  0  0  0  0  0  0
   -2.0509   -1.3162    0.2457 N   0  0  0  0  0  0  0  0  0  0  0  0
   -2.8647   -0.8221   -0.1189 H   0  0  0  0  0  0  0  0  0  0  0  0
   -0.7802   -0.5754    0.2383 C   0  0  1  0  0  0  0  0  0  0  0  0
   -0.1967   -0.8591    1.1202 H   0  0  0  0  0  0  0  0  0  0  0  0
    0.0493   -0.9645   -1.0111 C   0  0  0  0  0  0  0  0  0  0  0  0
    0.9856   -1.4222   -0.6764 H   0  0  0  0  0  0  0  0  0  0  0  0
   -0.4821   -1.7339   -1.5809 H   0  0  0  0  0  0  0  0  0  0  0  0
    0.3707    0.1857   -1.9375 C   0  0  0  0  0  0  0  0  0  0  0  0
    1.5442    0.9353   -1.7607 C   0  0  0  0  0  0  0  0  0  0  0  0
    2.2388    0.6823   -0.9657 H   0  0  0  0  0  0  0  0  0  0  0  0
    1.8300    2.0149   -2.6035 C   0  0  0  0  0  0  0  0  0  0  0  0
    2.7393    2.5908   -2.4598 H   0  0  0  0  0  0  0  0  0  0  0  0
    0.9432    2.3546   -3.6295 C   0  0  0  0  0  0  0  0  0  0  0  0
    1.1612    3.1947   -4.2820 H   0  0  0  0  0  0  0  0  0  0  0  0
   -0.2290    1.6148   -3.8113 C   0  0  0  0  0  0  0  0  0  0  0  0
   -0.9245    1.8816   -4.6014 H   0  0  0  0  0  0  0  0  0  0  0  0
   -0.5132    0.5355   -2.9682 C   0  0  0  0  0  0  0  0  0  0  0  0
   -1.4344   -0.0227   -3.1058 H   0  0  0  0  0  0  0  0  0  0  0  0
   -1.0688    0.9365    0.3855 C   0  0  0  0  0  0  0  0  0  0  0  0
   -2.0806    1.4164   -0.1178 O   0  0  0  0  0  0  0  0  0  0  0  0
   -0.3223    1.7102    1.2563 N   0  0  0  0  0  0  0  0  0  0  0  0
    0.4951    1.2840    1.6819 H   0  0  0  0  0  0  0  0  0  0  0  0
   -0.5745    3.1284    1.4785 C   0  0  0  0  0  0  0  0  0  0  0  0
   -1.5928    3.2841    1.8500 H   0  0  0  0  0  0  0  0  0  0  0  0
    0.1263    3.5259    2.2188 H   0  0  0  0  0  0  0  0  0  0  0  0
   -0.4492    3.6886    0.5459 H   0  0  0  0  0  0  0  0  0  0  0  0
  1  2  1  0  0  0  0
  2  3  1  0  0  0  0
  2  4  1  0  0  0  0
  2  5  1  0  0  0  0
  5  6  2  0  0  0  0
  5  7  1  0  0  0  0
  7  8  1  0  0  0  0
  7  9  1  0  0  0  0
  9 10  1  0  0  0  0
  9 11  1  0  0  0  0
  9 25  1  0  0  0  0
 11 12  1  0  0  0  0
 11 13  1  0  0  0  0
 11 14  1  0  0  0  0
 14 15  1  0  0  0  0
 14 23  2  0  0  0  0
 15 16  1  0  0  0  0
 15 17  2  0  0  0  0
 17 18  1  0  0  0  0
 17 19  1  0  0  0  0
 19 20  1  0  0  0  0
 19 21  2  0  0  0  0
 21 22  1  0  0  0  0
 21 23  1  0  0  0  0
 23 24  1  0  0  0  0
 25 26  2  0  0  0  0
 25 27  1  0  0  0  0
 27 28  1  0  0  0  0
 27 29  1  0  0  0  0
 29 30  1  0  0  0  0
 29 31  1  0  0  0  0
 29 32  1  0  0  0  0
M  END
$$$$

  -OEChem-04042216033D

 32 32  0     1  0  0  0  0  0999 V2000
   -3.6704   -3.9544    1.6637 H   0  0  0  0  0  0  0  0  0  0  0  0
   -3.6762   -3.0504    1.0486 C   0  0  0  0  0  0  0  0  0  0  0  0
   -4.3531   -2.3215    1.5006 H   0  0  0  0  0  0  0  0  0  0  0  0
   -4.0403   -3.3054    0.0505 H   0  0  0  0  0  0  0  0  0  0  0  0
   -2.2773   -2.4706    0.9565 C   0  0  0  0  0  0  0  0  0  0  0  0
   -1.3437   -3.0351    1.5055 O   0  0  0  0  0  0  0  0  0  0  0  0
   -2.0652   -1.3048    0.2509 N   0  0  0  0  0  0  0  0  0  0  0  0
   -2.8889   -0.8047   -0.0819 H   0  0  0  0  0  0  0  0  0  0  0  0
   -0.7985   -0.5570    0.2381 C   0  0  1  0  0  0  0  0  0  0  0  0
   -0.2105   -0.8478    1.1144 H   0  0  0  0  0  0  0  0  0  0  0  0
    0.0327   -0.9365   -1.0131 C   0  0  0  0  0  0  0  0  0  0  0  0
    0.9672   -1.3967   -0.6768 H   0  0  0  0  0  0  0  0  0  0  0  0
   -0.4980   -1.7041   -1.5859 H   0  0  0  0  0  0  0  0  0  0  0  0
    0.3510    0.2104   -1.9463 C   0  0  0  0  0  0  0  0  0  0  0  0
    1.6417    0.7603   -1.9799 C   0  0  0  0  0  0  0  0  0  0  0  0
    2.4197    0.3698   -1.3311 H   0  0  0  0  0  0  0  0  0  0  0  0
    1.9424    1.8152   -2.8483 C   0  0  0  0  0  0  0  0  0  0  0  0
    2.9439    2.2349   -2.8670 H   0  0  0  0  0  0  0  0  0  0  0  0
    0.9542    2.3286   -3.6935 C   0  0  0  0  0  0  0  0  0  0  0  0
    1.1851    3.1496   -4.3658 H   0  0  0  0  0  0  0  0  0  0  0  0
   -0.3329    1.7834   -3.6717 C   0  0  0  0  0  0  0  0  0  0  0  0
   -1.1050    2.1825   -4.3226 H   0  0  0  0  0  0  0  0  0  0  0  0
   -0.6304    0.7262   -2.8057 C   0  0  0  0  0  0  0  0  0  0  0  0
   -1.6357    0.3157   -2.7880 H   0  0  0  0  0  0  0  0  0  0  0  0
   -1.0838    0.9526    0.4117 C   0  0  0  0  0  0  0  0  0  0  0  0
   -2.1143    1.4350   -0.0503 O   0  0  0  0  0  0  0  0  0  0  0  0
   -0.3241    1.7116    1.2836 N   0  0  0  0  0  0  0  0  0  0  0  0
    0.5089    1.2834    1.6760 H   0  0  0  0  0  0  0  0  0  0  0  0
   -0.5831    3.1214    1.5480 C   0  0  0  0  0  0  0  0  0  0  0  0
   -1.5823    3.2540    1.9759 H   0  0  0  0  0  0  0  0  0  0  0  0
    0.1511    3.5144    2.2577 H   0  0  0  0  0  0  0  0  0  0  0  0
   -0.5156    3.7024    0.6222 H   0  0  0  0  0  0  0  0  0  0  0  0
  1  2  1  0  0  0  0
  2  3  1  0  0  0  0
  2  4  1  0  0  0  0
  2  5  1  0  0  0  0
  5  6  2  0  0  0  0
  5  7  1  0  0  0  0
  7  8  1  0  0  0  0
  7  9  1  0  0  0  0
  9 10  1  0  0  0  0
  9 11  1  0  0  0  0
  9 25  1  0  0  0  0
 11 12  1  0  0  0  0
 11 13  1  0  0  0  0
 11 14  1  0  0  0  0
 14 15  1  0  0  0  0
 14 23  2  0  0  0  0
 15 16  1  0  0  0  0
 15 17  2  0  0  0  0
 17 18  1  0  0  0  0
 17 19  1  0  0  0  0
 19 20  1  0  0  0  0
 19 21  2  0  0  0  0
 21 22  1  0  0  0  0
 21 23  1  0  0  0  0
 23 24  1  0  0  0  0
 25 26  2  0  0  0  0
 25 27  1  0  0  0  0
 27 28  1  0  0  0  0
 27 29  1  0  0  0  0
 29 30  1  0  0  0  0
 29 31  1  0  0  0  0
 29 32  1  0  0  0  0
M  END
$$$$

  -OEChem-04042216033D

 32 32  0     1  0  0  0  0  0999 V2000
   -3.6392   -3.9751    1.6475 H   0  0  0  0  0  0  0  0  0  0  0  0
   -3.6628   -3.0634    1.0440 C   0  0  0  0  0  0  0  0  0  0  0  0
   -4.3408   -2.3472    1.5146 H   0  0  0  0  0  0  0  0  0  0  0  0
   -4.0375   -3.3096    0.0475 H   0  0  0  0  0  0  0  0  0  0  0  0
   -2.2712   -2.4685    0.9401 C   0  0  0  0  0  0  0  0  0  0  0  0
   -1.3219   -3.0419    1.4514 O   0  0  0  0  0  0  0  0  0  0  0  0
   -2.0833   -1.2815    0.2633 N   0  0  0  0  0  0  0  0  0  0  0  0
   -2.9181   -0.7798   -0.0370 H   0  0  0  0  0  0  0  0  0  0  0  0
   -0.8232   -0.5225    0.2472 C   0  0  1  0  0  0  0  0  0  0  0  0
   -0.2306   -0.8293    1.1149 H   0  0  0  0  0  0  0  0  0  0  0  0
    0.0130   -0.8873   -1.0067 C   0  0  0  0  0  0  0  0  0  0  0  0
    0.9477   -1.3434   -0.6653 H   0  0  0  0  0  0  0  0  0  0  0  0
   -0.5130   -1.6586   -1.5789 H   0  0  0  0  0  0  0  0  0  0  0  0
    0.3323    0.2502   -1.9545 C   0  0  0  0  0  0  0  0  0  0  0  0
    1.6684    0.5914   -2.2192 C   0  0  0  0  0  0  0  0  0  0  0  0
    2.4763    0.0686   -1.7166 H   0  0  0  0  0  0  0  0  0  0  0  0
    1.9789    1.6088   -3.1281 C   0  0  0  0  0  0  0  0  0  0  0  0
    3.0156    1.8710   -3.3169 H   0  0  0  0  0  0  0  0  0  0  0  0
    0.9553    2.2854   -3.7973 C   0  0  0  0  0  0  0  0  0  0  0  0
    1.1942    3.0765   -4.5020 H   0  0  0  0  0  0  0  0  0  0  0  0
   -0.3775    1.9357   -3.5633 C   0  0  0  0  0  0  0  0  0  0  0  0
   -1.1771    2.4534   -4.0849 H   0  0  0  0  0  0  0  0  0  0  0  0
   -0.6849    0.9164   -2.6564 C   0  0  0  0  0  0  0  0  0  0  0  0
   -1.7250    0.6508   -2.4899 H   0  0  0  0  0  0  0  0  0  0  0  0
   -1.0993    0.9823    0.4672 C   0  0  0  0  0  0  0  0  0  0  0  0
   -2.1466    1.4756    0.0575 O   0  0  0  0  0  0  0  0  0  0  0  0
   -0.3182    1.7143    1.3433 N   0  0  0  0  0  0  0  0  0  0  0  0
    0.5259    1.2751    1.6983 H   0  0  0  0  0  0  0  0  0  0  0  0
   -0.5772    3.1109    1.6708 C   0  0  0  0  0  0  0  0  0  0  0  0
   -1.5690    3.2221    2.1216 H   0  0  0  0  0  0  0  0  0  0  0  0
    0.1679    3.4767    2.3837 H   0  0  0  0  0  0  0  0  0  0  0  0
   -0.5280    3.7304    0.7691 H   0  0  0  0  0  0  0  0  0  0  0  0
  1  2  1  0  0  0  0
  2  3  1  0  0  0  0
  2  4  1  0  0  0  0
  2  5  1  0  0  0  0
  5  6  2  0  0  0  0
  5  7  1  0  0  0  0
  7  8  1  0  0  0  0
  7  9  1  0  0  0  0
  9 10  1  0  0  0  0
  9 11  1  0  0  0  0
  9 25  1  0  0  0  0
 11 12  1  0  0  0  0
 11 13  1  0  0  0  0
 11 14  1  0  0  0  0
 14 15  1  0  0  0  0
 14 23  2  0  0  0  0
 15 16  1  0  0  0  0
 15 17  2  0  0  0  0
 17 18  1  0  0  0  0
 17 19  1  0  0  0  0
 19 20  1  0  0  0  0
 19 21  2  0  0  0  0
 21 22  1  0  0  0  0
 21 23  1  0  0  0  0
 23 24  1  0  0  0  0
 25 26  2  0  0  0  0
 25 27  1  0  0  0  0
 27 28  1  0  0  0  0
 27 29  1  0  0  0  0
 29 30  1  0  0  0  0
 29 31  1  0  0  0  0
 29 32  1  0  0  0  0
M  END
$$$$

  -OEChem-04042216033D

 32 32  0     1  0  0  0  0  0999 V2000
   -3.5943   -4.0137    1.5914 H   0  0  0  0  0  0  0  0  0  0  0  0
   -3.6422   -3.0808    1.0227 C   0  0  0  0  0  0  0  0  0  0  0  0
   -4.3215   -2.3928    1.5319 H   0  0  0  0  0  0  0  0  0  0  0  0
   -4.0322   -3.2960    0.0250 H   0  0  0  0  0  0  0  0  0  0  0  0
   -2.2613   -2.4618    0.9156 C   0  0  0  0  0  0  0  0  0  0  0  0
   -1.2946   -3.0399    1.3876 O   0  0  0  0  0  0  0  0  0  0  0  0
   -2.1018   -1.2487    0.2790 N   0  0  0  0  0  0  0  0  0  0  0  0
   -2.9485   -0.7511    0.0066 H   0  0  0  0  0  0  0  0  0  0  0  0
   -0.8514   -0.4734    0.2609 C   0  0  1  0  0  0  0  0  0  0  0  0
   -0.2562   -0.7988    1.1203 H   0  0  0  0  0  0  0  0  0  0  0  0
   -0.0035   -0.8237   -0.9910 C   0  0  0  0  0  0  0  0  0  0  0  0
    0.9343   -1.2627   -0.6360 H   0  0  0  0  0  0  0  0  0  0  0  0
   -0.5143   -1.6088   -1.5578 H   0  0  0  0  0  0  0  0  0  0  0  0
    0.3200    0.2962   -1.9618 C   0  0  0  0  0  0  0  0  0  0  0  0
    1.6295    0.4239   -2.4545 C   0  0  0  0  0  0  0  0  0  0  0  0
    2.4166   -0.2291   -2.0895 H   0  0  0  0  0  0  0  0  0  0  0  0
    1.9460    1.3943   -3.4117 C   0  0  0  0  0  0  0  0  0  0  0  0
    2.9668    1.4930   -3.7689 H   0  0  0  0  0  0  0  0  0  0  0  0
    0.9472    2.2307   -3.9160 C   0  0  0  0  0  0  0  0  0  0  0  0
    1.1898    2.9847   -4.6591 H   0  0  0  0  0  0  0  0  0  0  0  0
   -0.3698    2.0798   -3.4763 C   0  0  0  0  0  0  0  0  0  0  0  0
   -1.1555    2.7106   -3.8813 H   0  0  0  0  0  0  0  0  0  0  0  0
   -0.6825    1.1065   -2.5223 C   0  0  0  0  0  0  0  0  0  0  0  0
   -1.7198    0.9825   -2.2265 H   0  0  0  0  0  0  0  0  0  0  0  0
   -1.1155    1.0231    0.5401 C   0  0  0  0  0  0  0  0  0  0  0  0
   -2.1833    1.5266    0.2027 O   0  0  0  0  0  0  0  0  0  0  0  0
   -0.3071    1.7197    1.4202 N   0  0  0  0  0  0  0  0  0  0  0  0
    0.5564    1.2744    1.7164 H   0  0  0  0  0  0  0  0  0  0  0  0
   -0.5639    3.0970    1.8236 C   0  0  0  0  0  0  0  0  0  0  0  0
   -1.5342    3.1758    2.3251 H   0  0  0  0  0  0  0  0  0  0  0  0
    0.2107    3.4388    2.5166 H   0  0  0  0  0  0  0  0  0  0  0  0
   -0.5637    3.7574    0.9501 H   0  0  0  0  0  0  0  0  0  0  0  0
  1  2  1  0  0  0  0
  2  3  1  0  0  0  0
  2  4  1  0  0  0  0
  2  5  1  0  0  0  0
  5  6  2  0  0  0  0
  5  7  1  0  0  0  0
  7  8  1  0  0  0  0
  7  9  1  0  0  0  0
  9 10  1  0  0  0  0
  9 11  1  0  0  0  0
  9 25  1  0  0  0  0
 11 12  1  0  0  0  0
 11 13  1  0  0  0  0
 11 14  1  0  0  0  0
 14 15  1  0  0  0  0
 14 23  2  0  0  0  0
 15 16  1  0  0  0  0
 15 17  2  0  0  0  0
 17 18  1  0  0  0  0
 17 19  1  0  0  0  0
 19 20  1  0  0  0  0
 19 21  2  0  0  0  0
 21 22  1  0  0  0  0
 21 23  1  0  0  0  0
 23 24  1  0  0  0  0
 25 26  2  0  0  0  0
 25 27  1  0  0  0  0
 27 28  1  0  0  0  0
 27 29  1  0  0  0  0
 29 30  1  0  0  0  0
 29 31  1  0  0  0  0
 29 32  1  0  0  0  0
M  END
$$$$

  -OEChem-04042216033D

 32 32  0     1  0  0  0  0  0999 V2000
   -3.5295   -4.0740    1.4972 H   0  0  0  0  0  0  0  0  0  0  0  0
   -3.6066   -3.1197    0.9687 C   0  0  0  0  0  0  0  0  0  0  0  0
   -4.2945   -2.4695    1.5144 H   0  0  0  0  0  0  0  0  0  0  0  0
   -4.0048   -3.3021   -0.0323 H   0  0  0  0  0  0  0  0  0  0  0  0
   -2.2423   -2.4640    0.8711 C   0  0  0  0  0  0  0  0  0  0  0  0
   -1.2573   -3.0340    1.3147 O   0  0  0  0  0  0  0  0  0  0  0  0
   -2.1194   -1.2258    0.2757 N   0  0  0  0  0  0  0  0  0  0  0  0
   -2.9811   -0.7431    0.0244 H   0  0  0  0  0  0  0  0  0  0  0  0
   -0.8906   -0.4170    0.2738 C   0  0  1  0  0  0  0  0  0  0  0  0
   -0.3047   -0.7501    1.1367 H   0  0  0  0  0  0  0  0  0  0  0  0
   -0.0005   -0.7467   -0.9565 C   0  0  0  0  0  0  0  0  0  0  0  0
    0.9397   -1.1497   -0.5663 H   0  0  0  0  0  0  0  0  0  0  0  0
   -0.4723   -1.5594   -1.5187 H   0  0  0  0  0  0  0  0  0  0  0  0
    0.3389    0.3461   -1.9573 C   0  0  0  0  0  0  0  0  0  0  0  0
    1.5681    0.2647   -2.6350 C   0  0  0  0  0  0  0  0  0  0  0  0
    2.2820   -0.5106   -2.3729 H   0  0  0  0  0  0  0  0  0  0  0  0
    1.9072    1.1808   -3.6362 C   0  0  0  0  0  0  0  0  0  0  0  0
    2.8744    1.1176   -4.1256 H   0  0  0  0  0  0  0  0  0  0  0  0
    0.9972    2.1696   -4.0143 C   0  0  0  0  0  0  0  0  0  0  0  0
    1.2553    2.8821   -4.7923 H   0  0  0  0  0  0  0  0  0  0  0  0
   -0.2599    2.2180   -3.4092 C   0  0  0  0  0  0  0  0  0  0  0  0
   -0.9888    2.9584   -3.7258 H   0  0  0  0  0  0  0  0  0  0  0  0
   -0.5937    1.2976   -2.4105 C   0  0  0  0  0  0  0  0  0  0  0  0
   -1.6044    1.3234   -2.0205 H   0  0  0  0  0  0  0  0  0  0  0  0
   -1.1691    1.0656    0.6041 C   0  0  0  0  0  0  0  0  0  0  0  0
   -2.2557    1.5591    0.3167 O   0  0  0  0  0  0  0  0  0  0  0  0
   -0.3580    1.7426    1.4971 N   0  0  0  0  0  0  0  0  0  0  0  0
    0.5171    1.3013    1.7647 H   0  0  0  0  0  0  0  0  0  0  0  0
   -0.6373    3.0939    1.9674 C   0  0  0  0  0  0  0  0  0  0  0  0
   -1.5871    3.1220    2.5115 H   0  0  0  0  0  0  0  0  0  0  0  0
    0.1561    3.4316    2.6409 H   0  0  0  0  0  0  0  0  0  0  0  0
   -0.6937    3.7889    1.1230 H   0  0  0  0  0  0  0  0  0  0  0  0
  1  2  1  0  0  0  0
  2  3  1  0  0  0  0
  2  4  1  0  0  0  0
  2  5  1  0  0  0  0
  5  6  2  0  0  0  0
  5  7  1  0  0  0  0
  7  8  1  0  0  0  0
  7  9  1  0  0  0  0
  9 10  1  0  0  0  0
  9 11  1  0  0  0  0
  9 25  1  0  0  0  0
 11 12  1  0  0  0  0
 11 13  1  0  0  0  0
 11 14  1  0  0  0  0
 14 15  1  0  0  0  0
 14 23  2  0  0  0  0
 15 16  1  0  0  0  0
 15 17  2  0  0  0  0
 17 18  1  0  0  0  0
 17 19  1  0  0  0  0
 19 20  1  0  0  0  0
 19 21  2  0  0  0  0
 21 22  1  0  0  0  0
 21 23  1  0  0  0  0
 23 24  1  0  0  0  0
 25 26  2  0  0  0  0
 25 27  1  0  0  0  0
 27 28  1  0  0  0  0
 27 29  1  0  0  0  0
 29 30  1  0  0  0  0
 29 31  1  0  0  0  0
 29 32  1  0  0  0  0
M  END
$$$$

  -OEChem-04042216033D

 32 32  0     1  0  0  0  0  0999 V2000
   -3.6192   -3.9836    1.5053 H   0  0  0  0  0  0  0  0  0  0  0  0
   -3.6838   -3.0178    0.9963 C   0  0  0  0  0  0  0  0  0  0  0  0
   -4.3472   -2.3632    1.5667 H   0  0  0  0  0  0  0  0  0  0  0  0
   -4.1042   -3.1717   -0.0005 H   0  0  0  0  0  0  0  0  0  0  0  0
   -2.3064   -2.3917    0.8845 C   0  0  0  0  0  0  0  0  0  0  0  0
   -1.3234   -3.0034    1.2735 O   0  0  0  0  0  0  0  0  0  0  0  0
   -2.1689   -1.1344    0.3339 N   0  0  0  0  0  0  0  0  0  0  0  0
   -3.0241   -0.6217    0.1233 H   0  0  0  0  0  0  0  0  0  0  0  0
   -0.9165   -0.3628    0.3001 C   0  0  1  0  0  0  0  0  0  0  0  0
   -0.3100   -0.7432    1.1290 H   0  0  0  0  0  0  0  0  0  0  0  0
   -0.0845   -0.7017   -0.9706 C   0  0  0  0  0  0  0  0  0  0  0  0
    0.8540   -1.1359   -0.6106 H   0  0  0  0  0  0  0  0  0  0  0  0
   -0.6045   -1.5019   -1.5075 H   0  0  0  0  0  0  0  0  0  0  0  0
    0.2905    0.3437   -2.0154 C   0  0  0  0  0  0  0  0  0  0  0  0
    1.3059   -0.0163   -2.9202 C   0  0  0  0  0  0  0  0  0  0  0  0
    1.8254   -0.9624   -2.7991 H   0  0  0  0  0  0  0  0  0  0  0  0
    1.6854    0.8253   -3.9705 C   0  0  0  0  0  0  0  0  0  0  0  0
    2.4922    0.5335   -4.6361 H   0  0  0  0  0  0  0  0  0  0  0  0
    1.0207    2.0353   -4.1677 C   0  0  0  0  0  0  0  0  0  0  0  0
    1.3100    2.6924   -4.9825 H   0  0  0  0  0  0  0  0  0  0  0  0
   -0.0394    2.3815   -3.3297 C   0  0  0  0  0  0  0  0  0  0  0  0
   -0.5894    3.3021   -3.5020 H   0  0  0  0  0  0  0  0  0  0  0  0
   -0.4158    1.5343   -2.2817 C   0  0  0  0  0  0  0  0  0  0  0  0
   -1.2934    1.8267   -1.7234 H   0  0  0  0  0  0  0  0  0  0  0  0
   -1.1315    1.1104    0.7019 C   0  0  0  0  0  0  0  0  0  0  0  0
   -2.2159    1.6453    0.4898 O   0  0  0  0  0  0  0  0  0  0  0  0
   -0.2562    1.7274    1.5776 N   0  0  0  0  0  0  0  0  0  0  0  0
    0.6121    1.2452    1.7921 H   0  0  0  0  0  0  0  0  0  0  0  0
   -0.4760    3.0597    2.1271 C   0  0  0  0  0  0  0  0  0  0  0  0
   -1.3991    3.0841    2.7157 H   0  0  0  0  0  0  0  0  0  0  0  0
    0.3561    3.3426    2.7789 H   0  0  0  0  0  0  0  0  0  0  0  0
   -0.5512    3.7977    1.3215 H   0  0  0  0  0  0  0  0  0  0  0  0
  1  2  1  0  0  0  0
  2  3  1  0  0  0  0
  2  4  1  0  0  0  0
  2  5  1  0  0  0  0
  5  6  2  0  0  0  0
  5  7  1  0  0  0  0
  7  8  1  0  0  0  0
  7  9  1  0  0  0  0
  9 10  1  0  0  0  0
  9 11  1  0  0  0  0
  9 25  1  0  0  0  0
 11 12  1  0  0  0  0
 11 13  1  0  0  0  0
 11 14  1  0  0  0  0
 14 15  1  0  0  0  0
 14 23  2  0  0  0  0
 15 16  1  0  0  0  0
 15 17  2  0  0  0  0
 17 18  1  0  0  0  0
 17 19  1  0  0  0  0
 19 20  1  0  0  0  0
 19 21  2  0  0  0  0
 21 22  1  0  0  0  0
 21 23  1  0  0  0  0
 23 24  1  0  0  0  0
 25 26  2  0  0  0  0
 25 27  1  0  0  0  0
 27 28  1  0  0  0  0
 27 29  1  0  0  0  0
 29 30  1  0  0  0  0
 29 31  1  0  0  0  0
 29 32  1  0  0  0  0
M  END
$$$$

  -OEChem-04042216033D

 32 32  0     1  0  0  0  0  0999 V2000
   -3.4833   -4.1135    1.3583 H   0  0  0  0  0  0  0  0  0  0  0  0
   -3.5383   -3.1481    0.8475 C   0  0  0  0  0  0  0  0  0  0  0  0
   -4.2769   -2.5224    1.3544 H   0  0  0  0  0  0  0  0  0  0  0  0
   -3.8575   -3.3126   -0.1844 H   0  0  0  0  0  0  0  0  0  0  0  0
   -2.1822   -2.4680    0.8662 C   0  0  0  0  0  0  0  0  0  0  0  0
   -1.2231   -3.0256    1.3764 O   0  0  0  0  0  0  0  0  0  0  0  0
   -2.0364   -1.2169    0.3056 N   0  0  0  0  0  0  0  0  0  0  0  0
   -2.8789   -0.7458   -0.0238 H   0  0  0  0  0  0  0  0  0  0  0  0
   -0.8083   -0.4074    0.3675 C   0  0  1  0  0  0  0  0  0  0  0  0
   -0.1783   -0.7466    1.1963 H   0  0  0  0  0  0  0  0  0  0  0  0
   -0.0120   -0.6559   -0.9513 C   0  0  0  0  0  0  0  0  0  0  0  0
    0.7715   -1.3767   -0.6952 H   0  0  0  0  0  0  0  0  0  0  0  0
   -0.6898   -1.1724   -1.6395 H   0  0  0  0  0  0  0  0  0  0  0  0
    0.6499    0.4266   -1.8077 C   0  0  0  0  0  0  0  0  0  0  0  0
    1.3113   -0.0523   -2.9546 C   0  0  0  0  0  0  0  0  0  0  0  0
    1.3125   -1.1170   -3.1690 H   0  0  0  0  0  0  0  0  0  0  0  0
    1.9716    0.8050   -3.8396 C   0  0  0  0  0  0  0  0  0  0  0  0
    2.4685    0.4029   -4.7176 H   0  0  0  0  0  0  0  0  0  0  0  0
    1.9893    2.1768   -3.5947 C   0  0  0  0  0  0  0  0  0  0  0  0
    2.4979    2.8487   -4.2797 H   0  0  0  0  0  0  0  0  0  0  0  0
    1.3478    2.6805   -2.4635 C   0  0  0  0  0  0  0  0  0  0  0  0
    1.3562    3.7489   -2.2691 H   0  0  0  0  0  0  0  0  0  0  0  0
    0.6893    1.8194   -1.5782 C   0  0  0  0  0  0  0  0  0  0  0  0
    0.2245    2.3016   -0.7337 H   0  0  0  0  0  0  0  0  0  0  0  0
   -1.2328    1.0276    0.7261 C   0  0  0  0  0  0  0  0  0  0  0  0
   -2.2448    1.5173    0.2353 O   0  0  0  0  0  0  0  0  0  0  0  0
   -0.5371    1.7405    1.6869 N   0  0  0  0  0  0  0  0  0  0  0  0
    0.2630    1.2886    2.1214 H   0  0  0  0  0  0  0  0  0  0  0  0
   -0.9374    3.0641    2.1483 C   0  0  0  0  0  0  0  0  0  0  0  0
   -1.9338    3.0257    2.6011 H   0  0  0  0  0  0  0  0  0  0  0  0
   -0.2305    3.4337    2.8973 H   0  0  0  0  0  0  0  0  0  0  0  0
   -0.9565    3.7718    1.3129 H   0  0  0  0  0  0  0  0  0  0  0  0
  1  2  1  0  0  0  0
  2  3  1  0  0  0  0
  2  4  1  0  0  0  0
  2  5  1  0  0  0  0
  5  6  2  0  0  0  0
  5  7  1  0  0  0  0
  7  8  1  0  0  0  0
  7  9  1  0  0  0  0
  9 10  1  0  0  0  0
  9 11  1  0  0  0  0
  9 25  1  0  0  0  0
 11 12  1  0  0  0  0
 11 13  1  0  0  0  0
 11 14  1  0  0  0  0
 14 15  1  0  0  0  0
 14 23  2  0  0  0  0
 15 16  1  0  0  0  0
 15 17  2  0  0  0  0
 17 18  1  0  0  0  0
 17 19  1  0  0  0  0
 19 20  1  0  0  0  0
 19 21  2  0  0  0  0
 21 22  1  0  0  0  0
 21 23  1  0  0  0  0
 23 24  1  0  0  0  0
 25 26  2  0  0  0  0
 25 27  1  0  0  0  0
 27 28  1  0  0  0  0
 27 29  1  0  0  0  0
 29 30  1  0  0  0  0
 29 31  1  0  0  0  0
 29 32  1  0  0  0  0
M  END
$$$$

  -OEChem-04042216033D

 32 32  0     1  0  0  0  0  0999 V2000
   -3.5176   -4.0596    1.4623 H   0  0  0  0  0  0  0  0  0  0  0  0
   -3.5522   -3.1204    0.9032 C   0  0  0  0  0  0  0  0  0  0  0  0
   -4.2840   -2.4581    1.3721 H   0  0  0  0  0  0  0  0  0  0  0  0
   -3.8659   -3.3308   -0.1221 H   0  0  0  0  0  0  0  0  0  0  0  0
   -2.1851   -2.4632    0.9005 C   0  0  0  0  0  0  0  0  0  0  0  0
   -1.2364   -3.0209    1.4298 O   0  0  0  0  0  0  0  0  0  0  0  0
   -2.0176   -1.2305    0.3067 N   0  0  0  0  0  0  0  0  0  0  0  0
   -2.8513   -0.7503   -0.0322 H   0  0  0  0  0  0  0  0  0  0  0  0
   -0.7748   -0.4425    0.3592 C   0  0  1  0  0  0  0  0  0  0  0  0
   -0.1280   -0.7743    1.1777 H   0  0  0  0  0  0  0  0  0  0  0  0
   -0.0375   -0.6980   -0.9929 C   0  0  0  0  0  0  0  0  0  0  0  0
    0.7435   -1.4369   -0.7875 H   0  0  0  0  0  0  0  0  0  0  0  0
   -0.7505   -1.1856   -1.6668 H   0  0  0  0  0  0  0  0  0  0  0  0
    0.6036    0.4107   -1.8235 C   0  0  0  0  0  0  0  0  0  0  0  0
    0.9303    0.0825   -3.1524 C   0  0  0  0  0  0  0  0  0  0  0  0
    0.6526   -0.8884   -3.5518 H   0  0  0  0  0  0  0  0  0  0  0  0
    1.5929    0.9846   -3.9905 C   0  0  0  0  0  0  0  0  0  0  0  0
    1.8088    0.7124   -5.0194 H   0  0  0  0  0  0  0  0  0  0  0  0
    1.9818    2.2315   -3.5019 C   0  0  0  0  0  0  0  0  0  0  0  0
    2.4957    2.9365   -4.1488 H   0  0  0  0  0  0  0  0  0  0  0  0
    1.7266    2.5577   -2.1698 C   0  0  0  0  0  0  0  0  0  0  0  0
    2.0553    3.5145   -1.7750 H   0  0  0  0  0  0  0  0  0  0  0  0
    1.0652    1.6495   -1.3355 C   0  0  0  0  0  0  0  0  0  0  0  0
    0.9575    1.9402   -0.3031 H   0  0  0  0  0  0  0  0  0  0  0  0
   -1.2123    1.0036    0.6789 C   0  0  0  0  0  0  0  0  0  0  0  0
   -2.2124    1.4812    0.1527 O   0  0  0  0  0  0  0  0  0  0  0  0
   -0.5375    1.7453    1.6338 N   0  0  0  0  0  0  0  0  0  0  0  0
    0.2322    1.2953    2.1213 H   0  0  0  0  0  0  0  0  0  0  0  0
   -0.9434    3.0847    2.0413 C   0  0  0  0  0  0  0  0  0  0  0  0
   -1.9604    3.0706    2.4472 H   0  0  0  0  0  0  0  0  0  0  0  0
   -0.2681    3.4658    2.8135 H   0  0  0  0  0  0  0  0  0  0  0  0
   -0.9137    3.7697    1.1873 H   0  0  0  0  0  0  0  0  0  0  0  0
  1  2  1  0  0  0  0
  2  3  1  0  0  0  0
  2  4  1  0  0  0  0
  2  5  1  0  0  0  0
  5  6  2  0  0  0  0
  5  7  1  0  0  0  0
  7  8  1  0  0  0  0
  7  9  1  0  0  0  0
  9 10  1  0  0  0  0
  9 11  1  0  0  0  0
  9 25  1  0  0  0  0
 11 12  1  0  0  0  0
 11 13  1  0  0  0  0
 11 14  1  0  0  0  0
 14 15  1  0  0  0  0
 14 23  2  0  0  0  0
 15 16  1  0  0  0  0
 15 17  2  0  0  0  0
 17 18  1  0  0  0  0
 17 19  1  0  0  0  0
 19 20  1  0  0  0  0
 19 21  2  0  0  0  0
 21 22  1  0  0  0  0
 21 23  1  0  0  0  0
 23 24  1  0  0  0  0
 25 26  2  0  0  0  0
 25 27  1  0  0  0  0
 27 28  1  0  0  0  0
 27 29  1  0  0  0  0
 29 30  1  0  0  0  0
 29 31  1  0  0  0  0
 29 32  1  0  0  0  0
M  END
$$$$

  -OEChem-04042216033D

 32 32  0     1  0  0  0  0  0999 V2000
   -3.5923   -4.0055    1.5520 H   0  0  0  0  0  0  0  0  0  0  0  0
   -3.6007   -3.0887    0.9561 C   0  0  0  0  0  0  0  0  0  0  0  0
   -4.3237   -2.3934    1.3898 H   0  0  0  0  0  0  0  0  0  0  0  0
   -3.9075   -3.3333   -0.0637 H   0  0  0  0  0  0  0  0  0  0  0  0
   -2.2202   -2.4599    0.9434 C   0  0  0  0  0  0  0  0  0  0  0  0
   -1.2913   -3.0077    1.5163 O   0  0  0  0  0  0  0  0  0  0  0  0
   -2.0195   -1.2623    0.2913 N   0  0  0  0  0  0  0  0  0  0  0  0
   -2.8395   -0.7833   -0.0811 H   0  0  0  0  0  0  0  0  0  0  0  0
   -0.7685   -0.4882    0.3345 C   0  0  1  0  0  0  0  0  0  0  0  0
   -0.1372   -0.7914    1.1758 H   0  0  0  0  0  0  0  0  0  0  0  0
   -0.0159   -0.7779   -0.9979 C   0  0  0  0  0  0  0  0  0  0  0  0
    0.7713   -1.5060   -0.7784 H   0  0  0  0  0  0  0  0  0  0  0  0
   -0.7138   -1.2746   -1.6805 H   0  0  0  0  0  0  0  0  0  0  0  0
    0.6165    0.3663   -1.7761 C   0  0  0  0  0  0  0  0  0  0  0  0
    0.7008    0.2542   -3.1750 C   0  0  0  0  0  0  0  0  0  0  0  0
    0.2298   -0.5827   -3.6817 H   0  0  0  0  0  0  0  0  0  0  0  0
    1.3623    1.2181   -3.9428 C   0  0  0  0  0  0  0  0  0  0  0  0
    1.3861    1.1273   -5.0247 H   0  0  0  0  0  0  0  0  0  0  0  0
    1.9977    2.2923   -3.3178 C   0  0  0  0  0  0  0  0  0  0  0  0
    2.5117    3.0428   -3.9114 H   0  0  0  0  0  0  0  0  0  0  0  0
    1.9920    2.3814   -1.9245 C   0  0  0  0  0  0  0  0  0  0  0  0
    2.5156    3.1952   -1.4320 H   0  0  0  0  0  0  0  0  0  0  0  0
    1.3304    1.4124   -1.1624 C   0  0  0  0  0  0  0  0  0  0  0  0
    1.4093    1.4769   -0.0854 H   0  0  0  0  0  0  0  0  0  0  0  0
   -1.1944    0.9809    0.5675 C   0  0  0  0  0  0  0  0  0  0  0  0
   -2.1849    1.4333    0.0011 O   0  0  0  0  0  0  0  0  0  0  0  0
   -0.5379    1.7696    1.4968 N   0  0  0  0  0  0  0  0  0  0  0  0
    0.2133    1.3421    2.0304 H   0  0  0  0  0  0  0  0  0  0  0  0
   -0.9416    3.1335    1.8157 C   0  0  0  0  0  0  0  0  0  0  0  0
   -1.9745    3.1534    2.1792 H   0  0  0  0  0  0  0  0  0  0  0  0
   -0.2936    3.5474    2.5941 H   0  0  0  0  0  0  0  0  0  0  0  0
   -0.8674    3.7712    0.9284 H   0  0  0  0  0  0  0  0  0  0  0  0
  1  2  1  0  0  0  0
  2  3  1  0  0  0  0
  2  4  1  0  0  0  0
  2  5  1  0  0  0  0
  5  6  2  0  0  0  0
  5  7  1  0  0  0  0
  7  8  1  0  0  0  0
  7  9  1  0  0  0  0
  9 10  1  0  0  0  0
  9 11  1  0  0  0  0
  9 25  1  0  0  0  0
 11 12  1  0  0  0  0
 11 13  1  0  0  0  0
 11 14  1  0  0  0  0
 14 15  1  0  0  0  0
 14 23  2  0  0  0  0
 15 16  1  0  0  0  0
 15 17  2  0  0  0  0
 17 18  1  0  0  0  0
 17 19  1  0  0  0  0
 19 20  1  0  0  0  0
 19 21  2  0  0  0  0
 21 22  1  0  0  0  0
 21 23  1  0  0  0  0
 23 24  1  0  0  0  0
 25 26  2  0  0  0  0
 25 27  1  0  0  0  0
 27 28  1  0  0  0  0
 27 29  1  0  0  0  0
 29 30  1  0  0  0  0
 29 31  1  0  0  0  0
 29 32  1  0  0  0  0
M  END
$$$$

  -OEChem-04042216033D

 32 32  0     1  0  0  0  0  0999 V2000
   -3.6273   -3.9882    1.6102 H   0  0  0  0  0  0  0  0  0  0  0  0
   -3.6305   -3.0833    0.9963 C   0  0  0  0  0  0  0  0  0  0  0  0
   -4.3441   -2.3728    1.4203 H   0  0  0  0  0  0  0  0  0  0  0  0
   -3.9458   -3.3450   -0.0167 H   0  0  0  0  0  0  0  0  0  0  0  0
   -2.2441   -2.4681    0.9653 C   0  0  0  0  0  0  0  0  0  0  0  0
   -1.3205   -3.0099    1.5525 O   0  0  0  0  0  0  0  0  0  0  0  0
   -2.0318   -1.2898    0.2819 N   0  0  0  0  0  0  0  0  0  0  0  0
   -2.8484   -0.8102   -0.0969 H   0  0  0  0  0  0  0  0  0  0  0  0
   -0.7738   -0.5268    0.3090 C   0  0  1  0  0  0  0  0  0  0  0  0
   -0.1542   -0.8178    1.1631 H   0  0  0  0  0  0  0  0  0  0  0  0
   -0.0003   -0.8413   -1.0015 C   0  0  0  0  0  0  0  0  0  0  0  0
    0.7918   -1.5584   -0.7647 H   0  0  0  0  0  0  0  0  0  0  0  0
   -0.6806   -1.3489   -1.6933 H   0  0  0  0  0  0  0  0  0  0  0  0
    0.6221    0.3285   -1.7416 C   0  0  0  0  0  0  0  0  0  0  0  0
    0.4771    0.4287   -3.1351 C   0  0  0  0  0  0  0  0  0  0  0  0
   -0.1457   -0.2809   -3.6712 H   0  0  0  0  0  0  0  0  0  0  0  0
    1.1110    1.4494   -3.8517 C   0  0  0  0  0  0  0  0  0  0  0  0
    0.9679    1.5273   -4.9252 H   0  0  0  0  0  0  0  0  0  0  0  0
    1.9301    2.3655   -3.1877 C   0  0  0  0  0  0  0  0  0  0  0  0
    2.4207    3.1595   -3.7430 H   0  0  0  0  0  0  0  0  0  0  0  0
    2.1303    2.2456   -1.8105 C   0  0  0  0  0  0  0  0  0  0  0  0
    2.7864    2.9411   -1.2956 H   0  0  0  0  0  0  0  0  0  0  0  0
    1.4965    1.2221   -1.0984 C   0  0  0  0  0  0  0  0  0  0  0  0
    1.7005    1.1218   -0.0383 H   0  0  0  0  0  0  0  0  0  0  0  0
   -1.1583    0.9596    0.5012 C   0  0  0  0  0  0  0  0  0  0  0  0
   -2.1455    1.4179   -0.0663 O   0  0  0  0  0  0  0  0  0  0  0  0
   -0.4781    1.7531    1.4088 N   0  0  0  0  0  0  0  0  0  0  0  0
    0.2890    1.3311    1.9232 H   0  0  0  0  0  0  0  0  0  0  0  0
   -0.8183    3.1472    1.6649 C   0  0  0  0  0  0  0  0  0  0  0  0
   -1.8512    3.2317    2.0189 H   0  0  0  0  0  0  0  0  0  0  0  0
   -0.1560    3.5642    2.4296 H   0  0  0  0  0  0  0  0  0  0  0  0
   -0.7087    3.7405    0.7509 H   0  0  0  0  0  0  0  0  0  0  0  0
  1  2  1  0  0  0  0
  2  3  1  0  0  0  0
  2  4  1  0  0  0  0
  2  5  1  0  0  0  0
  5  6  2  0  0  0  0
  5  7  1  0  0  0  0
  7  8  1  0  0  0  0
  7  9  1  0  0  0  0
  9 10  1  0  0  0  0
  9 11  1  0  0  0  0
  9 25  1  0  0  0  0
 11 12  1  0  0  0  0
 11 13  1  0  0  0  0
 11 14  1  0  0  0  0
 14 15  1  0  0  0  0
 14 23  2  0  0  0  0
 15 16  1  0  0  0  0
 15 17  2  0  0  0  0
 17 18  1  0  0  0  0
 17 19  1  0  0  0  0
 19 20  1  0  0  0  0
 19 21  2  0  0  0  0
 21 22  1  0  0  0  0
 21 23  1  0  0  0  0
 23 24  1  0  0  0  0
 25 26  2  0  0  0  0
 25 27  1  0  0  0  0
 27 28  1  0  0  0  0
 27 29  1  0  0  0  0
 29 30  1  0  0  0  0
 29 31  1  0  0  0  0
 29 32  1  0  0  0  0
M  END
$$$$

  -OEChem-04042216033D

 32 32  0     1  0  0  0  0  0999 V2000
   -3.6549   -3.9665    1.6504 H   0  0  0  0  0  0  0  0  0  0  0  0
   -3.6505   -3.0695    1.0249 C   0  0  0  0  0  0  0  0  0  0  0  0
   -4.3514   -2.3436    1.4444 H   0  0  0  0  0  0  0  0  0  0  0  0
   -3.9762   -3.3401    0.0176 H   0  0  0  0  0  0  0  0  0  0  0  0
   -2.2562   -2.4737    0.9754 C   0  0  0  0  0  0  0  0  0  0  0  0
   -1.3357   -3.0199    1.5634 O   0  0  0  0  0  0  0  0  0  0  0  0
   -2.0336   -1.3096    0.2713 N   0  0  0  0  0  0  0  0  0  0  0  0
   -2.8472   -0.8250   -0.1070 H   0  0  0  0  0  0  0  0  0  0  0  0
   -0.7700   -0.5571    0.2868 C   0  0  1  0  0  0  0  0  0  0  0  0
   -0.1598   -0.8416    1.1498 H   0  0  0  0  0  0  0  0  0  0  0  0
    0.0177   -0.8895   -1.0067 C   0  0  0  0  0  0  0  0  0  0  0  0
    0.8110   -1.6011   -0.7561 H   0  0  0  0  0  0  0  0  0  0  0  0
   -0.6490   -1.4019   -1.7079 H   0  0  0  0  0  0  0  0  0  0  0  0
    0.6330    0.2968   -1.7197 C   0  0  0  0  0  0  0  0  0  0  0  0
    0.2686    0.6044   -3.0395 C   0  0  0  0  0  0  0  0  0  0  0  0
   -0.5010    0.0271   -3.5427 H   0  0  0  0  0  0  0  0  0  0  0  0
    0.8746    1.6684   -3.7163 C   0  0  0  0  0  0  0  0  0  0  0  0
    0.5703    1.9076   -4.7309 H   0  0  0  0  0  0  0  0  0  0  0  0
    1.8703    2.4219   -3.0883 C   0  0  0  0  0  0  0  0  0  0  0  0
    2.3394    3.2484   -3.6140 H   0  0  0  0  0  0  0  0  0  0  0  0
    2.2663    2.1032   -1.7865 C   0  0  0  0  0  0  0  0  0  0  0  0
    3.0499    2.6779   -1.3019 H   0  0  0  0  0  0  0  0  0  0  0  0
    1.6585    1.0396   -1.1115 C   0  0  0  0  0  0  0  0  0  0  0  0
    1.9906    0.7890   -0.1092 H   0  0  0  0  0  0  0  0  0  0  0  0
   -1.1234    0.9398    0.4513 C   0  0  0  0  0  0  0  0  0  0  0  0
   -2.1127    1.4014   -0.1101 O   0  0  0  0  0  0  0  0  0  0  0  0
   -0.4255    1.7344    1.3434 N   0  0  0  0  0  0  0  0  0  0  0  0
    0.3647    1.3190    1.8266 H   0  0  0  0  0  0  0  0  0  0  0  0
   -0.7250    3.1441    1.5599 C   0  0  0  0  0  0  0  0  0  0  0  0
   -1.7589    3.2689    1.8985 H   0  0  0  0  0  0  0  0  0  0  0  0
   -0.0597    3.5597    2.3228 H   0  0  0  0  0  0  0  0  0  0  0  0
   -0.5865    3.7104    0.6328 H   0  0  0  0  0  0  0  0  0  0  0  0
  1  2  1  0  0  0  0
  2  3  1  0  0  0  0
  2  4  1  0  0  0  0
  2  5  1  0  0  0  0
  5  6  2  0  0  0  0
  5  7  1  0  0  0  0
  7  8  1  0  0  0  0
  7  9  1  0  0  0  0
  9 10  1  0  0  0  0
  9 11  1  0  0  0  0
  9 25  1  0  0  0  0
 11 12  1  0  0  0  0
 11 13  1  0  0  0  0
 11 14  1  0  0  0  0
 14 15  1  0  0  0  0
 14 23  2  0  0  0  0
 15 16  1  0  0  0  0
 15 17  2  0  0  0  0
 17 18  1  0  0  0  0
 17 19  1  0  0  0  0
 19 20  1  0  0  0  0
 19 21  2  0  0  0  0
 21 22  1  0  0  0  0
 21 23  1  0  0  0  0
 23 24  1  0  0  0  0
 25 26  2  0  0  0  0
 25 27  1  0  0  0  0
 27 28  1  0  0  0  0
 27 29  1  0  0  0  0
 29 30  1  0  0  0  0
 29 31  1  0  0  0  0
 29 32  1  0  0  0  0
M  END
$$$$

  -OEChem-04042216033D

 32 32  0     1  0  0  0  0  0999 V2000
   -3.6763   -3.9539    1.6683 H   0  0  0  0  0  0  0  0  0  0  0  0
   -3.6662   -3.0622    1.0355 C   0  0  0  0  0  0  0  0  0  0  0  0
   -4.3583   -2.3268    1.4527 H   0  0  0  0  0  0  0  0  0  0  0  0
   -3.9991   -3.3378    0.0319 H   0  0  0  0  0  0  0  0  0  0  0  0
   -2.2666   -2.4796    0.9747 C   0  0  0  0  0  0  0  0  0  0  0  0
   -1.3483   -3.0306    1.5617 O   0  0  0  0  0  0  0  0  0  0  0  0
   -2.0365   -1.3227    0.2607 N   0  0  0  0  0  0  0  0  0  0  0  0
   -2.8483   -0.8328   -0.1146 H   0  0  0  0  0  0  0  0  0  0  0  0
   -0.7682   -0.5781    0.2701 C   0  0  1  0  0  0  0  0  0  0  0  0
   -0.1657   -0.8595    1.1395 H   0  0  0  0  0  0  0  0  0  0  0  0
    0.0323   -0.9231   -1.0098 C   0  0  0  0  0  0  0  0  0  0  0  0
    0.8223   -1.6342   -0.7485 H   0  0  0  0  0  0  0  0  0  0  0  0
   -0.6247   -1.4353   -1.7204 H   0  0  0  0  0  0  0  0  0  0  0  0
    0.6453    0.2712   -1.7065 C   0  0  0  0  0  0  0  0  0  0  0  0
    0.0891    0.7755   -2.8913 C   0  0  0  0  0  0  0  0  0  0  0  0
   -0.8092    0.3274   -3.3055 H   0  0  0  0  0  0  0  0  0  0  0  0
    0.6703    1.8715   -3.5378 C   0  0  0  0  0  0  0  0  0  0  0  0
    0.2234    2.2620   -4.4472 H   0  0  0  0  0  0  0  0  0  0  0  0
    1.8214    2.4653   -3.0115 C   0  0  0  0  0  0  0  0  0  0  0  0
    2.2714    3.3165   -3.5137 H   0  0  0  0  0  0  0  0  0  0  0  0
    2.3934    1.9590   -1.8406 C   0  0  0  0  0  0  0  0  0  0  0  0
    3.2920    2.4141   -1.4349 H   0  0  0  0  0  0  0  0  0  0  0  0
    1.8100    0.8640   -1.1945 C   0  0  0  0  0  0  0  0  0  0  0  0
    2.2678    0.4716   -0.2918 H   0  0  0  0  0  0  0  0  0  0  0  0
   -1.0995    0.9253    0.4216 C   0  0  0  0  0  0  0  0  0  0  0  0
   -2.0903    1.3922   -0.1334 O   0  0  0  0  0  0  0  0  0  0  0  0
   -0.3878    1.7159    1.3060 N   0  0  0  0  0  0  0  0  0  0  0  0
    0.4273    1.3048    1.7503 H   0  0  0  0  0  0  0  0  0  0  0  0
   -0.6462    3.1386    1.4874 C   0  0  0  0  0  0  0  0  0  0  0  0
   -1.6780    3.3029    1.8152 H   0  0  0  0  0  0  0  0  0  0  0  0
    0.0261    3.5509    2.2457 H   0  0  0  0  0  0  0  0  0  0  0  0
   -0.4837    3.6785    0.5487 H   0  0  0  0  0  0  0  0  0  0  0  0
  1  2  1  0  0  0  0
  2  3  1  0  0  0  0
  2  4  1  0  0  0  0
  2  5  1  0  0  0  0
  5  6  2  0  0  0  0
  5  7  1  0  0  0  0
  7  8  1  0  0  0  0
  7  9  1  0  0  0  0
  9 10  1  0  0  0  0
  9 11  1  0  0  0  0
  9 25  1  0  0  0  0
 11 12  1  0  0  0  0
 11 13  1  0  0  0  0
 11 14  1  0  0  0  0
 14 15  1  0  0  0  0
 14 23  2  0  0  0  0
 15 16  1  0  0  0  0
 15 17  2  0  0  0  0
 17 18  1  0  0  0  0
 17 19  1  0  0  0  0
 19 20  1  0  0  0  0
 19 21  2  0  0  0  0
 21 22  1  0  0  0  0
 21 23  1  0  0  0  0
 23 24  1  0  0  0  0
 25 26  2  0  0  0  0
 25 27  1  0  0  0  0
 27 28  1  0  0  0  0
 27 29  1  0  0  0  0
 29 30  1  0  0  0  0
 29 31  1  0  0  0  0
 29 32  1  0  0  0  0
M  END
$$$$

  -OEChem-04042216033D

 32 32  0     1  0  0  0  0  0999 V2000
   -3.6891   -3.9434    1.6785 H   0  0  0  0  0  0  0  0  0  0  0  0
   -3.6741   -3.0590    1.0354 C   0  0  0  0  0  0  0  0  0  0  0  0
   -4.3662   -2.3172    1.4415 H   0  0  0  0  0  0  0  0  0  0  0  0
   -4.0043   -3.3453    0.0339 H   0  0  0  0  0  0  0  0  0  0  0  0
   -2.2725   -2.4812    0.9718 C   0  0  0  0  0  0  0  0  0  0  0  0
   -1.3537   -3.0383    1.5522 O   0  0  0  0  0  0  0  0  0  0  0  0
   -2.0408   -1.3248    0.2577 N   0  0  0  0  0  0  0  0  0  0  0  0
   -2.8535   -0.8290   -0.1071 H   0  0  0  0  0  0  0  0  0  0  0  0
   -0.7695   -0.5851    0.2615 C   0  0  1  0  0  0  0  0  0  0  0  0
   -0.1702   -0.8679    1.1330 H   0  0  0  0  0  0  0  0  0  0  0  0
    0.0386   -0.9362   -1.0120 C   0  0  0  0  0  0  0  0  0  0  0  0
    0.8219   -1.6532   -0.7465 H   0  0  0  0  0  0  0  0  0  0  0  0
   -0.6165   -1.4427   -1.7285 H   0  0  0  0  0  0  0  0  0  0  0  0
    0.6546    0.2561   -1.7085 C   0  0  0  0  0  0  0  0  0  0  0  0
   -0.0479    0.9490   -2.7057 C   0  0  0  0  0  0  0  0  0  0  0  0
   -1.0524    0.6383   -2.9786 H   0  0  0  0  0  0  0  0  0  0  0  0
    0.5248    2.0583   -3.3365 C   0  0  0  0  0  0  0  0  0  0  0  0
   -0.0329    2.5942   -4.0989 H   0  0  0  0  0  0  0  0  0  0  0  0
    1.8092    2.4800   -2.9802 C   0  0  0  0  0  0  0  0  0  0  0  0
    2.2531    3.3412   -3.4707 H   0  0  0  0  0  0  0  0  0  0  0  0
    2.5193    1.7927   -1.9913 C   0  0  0  0  0  0  0  0  0  0  0  0
    3.5178    2.1184   -1.7152 H   0  0  0  0  0  0  0  0  0  0  0  0
    1.9436    0.6857   -1.3583 C   0  0  0  0  0  0  0  0  0  0  0  0
    2.5044    0.1584   -0.5926 H   0  0  0  0  0  0  0  0  0  0  0  0
   -1.0876    0.9209    0.4151 C   0  0  0  0  0  0  0  0  0  0  0  0
   -2.0871    1.3908   -0.1225 O   0  0  0  0  0  0  0  0  0  0  0  0
   -0.3649    1.7060    1.2952 N   0  0  0  0  0  0  0  0  0  0  0  0
    0.4732    1.3005    1.7004 H   0  0  0  0  0  0  0  0  0  0  0  0
   -0.6085    3.1323    1.4690 C   0  0  0  0  0  0  0  0  0  0  0  0
   -1.6425    3.3103    1.7828 H   0  0  0  0  0  0  0  0  0  0  0  0
    0.0583    3.5392    2.2352 H   0  0  0  0  0  0  0  0  0  0  0  0
   -0.4272    3.6672    0.5308 H   0  0  0  0  0  0  0  0  0  0  0  0
  1  2  1  0  0  0  0
  2  3  1  0  0  0  0
  2  4  1  0  0  0  0
  2  5  1  0  0  0  0
  5  6  2  0  0  0  0
  5  7  1  0  0  0  0
  7  8  1  0  0  0  0
  7  9  1  0  0  0  0
  9 10  1  0  0  0  0
  9 11  1  0  0  0  0
  9 25  1  0  0  0  0
 11 12  1  0  0  0  0
 11 13  1  0  0  0  0
 11 14  1  0  0  0  0
 14 15  1  0  0  0  0
 14 23  2  0  0  0  0
 15 16  1  0  0  0  0
 15 17  2  0  0  0  0
 17 18  1  0  0  0  0
 17 19  1  0  0  0  0
 19 20  1  0  0  0  0
 19 21  2  0  0  0  0
 21 22  1  0  0  0  0
 21 23  1  0  0  0  0
 23 24  1  0  0  0  0
 25 26  2  0  0  0  0
 25 27  1  0  0  0  0
 27 28  1  0  0  0  0
 27 29  1  0  0  0  0
 29 30  1  0  0  0  0
 29 31  1  0  0  0  0
 29 32  1  0  0  0  0
M  END
$$$$

  -OEChem-04042216033D

 32 32  0     1  0  0  0  0  0999 V2000
   -3.6728   -3.9499    1.6719 H   0  0  0  0  0  0  0  0  0  0  0  0
   -3.6694   -3.0612    1.0346 C   0  0  0  0  0  0  0  0  0  0  0  0
   -4.3553   -2.3229    1.4572 H   0  0  0  0  0  0  0  0  0  0  0  0
   -4.0155   -3.3404    0.0365 H   0  0  0  0  0  0  0  0  0  0  0  0
   -2.2698   -2.4815    0.9523 C   0  0  0  0  0  0  0  0  0  0  0  0
   -1.3400   -3.0462    1.5073 O   0  0  0  0  0  0  0  0  0  0  0  0
   -2.0533   -1.3126    0.2538 N   0  0  0  0  0  0  0  0  0  0  0  0
   -2.8739   -0.8134   -0.0881 H   0  0  0  0  0  0  0  0  0  0  0  0
   -0.7869   -0.5643    0.2575 C   0  0  1  0  0  0  0  0  0  0  0  0
   -0.1916   -0.8530    1.1300 H   0  0  0  0  0  0  0  0  0  0  0  0
    0.0377   -0.9195   -1.0057 C   0  0  0  0  0  0  0  0  0  0  0  0
    0.8141   -1.6378   -0.7233 H   0  0  0  0  0  0  0  0  0  0  0  0
   -0.6120   -1.4322   -1.7228 H   0  0  0  0  0  0  0  0  0  0  0  0
    0.6622    0.2551   -1.7290 C   0  0  0  0  0  0  0  0  0  0  0  0
   -0.1125    1.1180   -2.5205 C   0  0  0  0  0  0  0  0  0  0  0  0
   -1.1799    0.9454   -2.6284 H   0  0  0  0  0  0  0  0  0  0  0  0
    0.4731    2.2138   -3.1625 C   0  0  0  0  0  0  0  0  0  0  0  0
   -0.1394    2.8767   -3.7664 H   0  0  0  0  0  0  0  0  0  0  0  0
    1.8424    2.4567   -3.0226 C   0  0  0  0  0  0  0  0  0  0  0  0
    2.2969    3.3070   -3.5224 H   0  0  0  0  0  0  0  0  0  0  0  0
    2.6240    1.6037   -2.2381 C   0  0  0  0  0  0  0  0  0  0  0  0
    3.6882    1.7906   -2.1292 H   0  0  0  0  0  0  0  0  0  0  0  0
    2.0355    0.5100   -1.5939 C   0  0  0  0  0  0  0  0  0  0  0  0
    2.6545   -0.1432   -0.9863 H   0  0  0  0  0  0  0  0  0  0  0  0
   -1.0998    0.9389    0.4367 C   0  0  0  0  0  0  0  0  0  0  0  0
   -2.1175    1.4126   -0.0624 O   0  0  0  0  0  0  0  0  0  0  0  0
   -0.3657    1.7082    1.3211 N   0  0  0  0  0  0  0  0  0  0  0  0
    0.4848    1.3008    1.6982 H   0  0  0  0  0  0  0  0  0  0  0  0
   -0.6196    3.1267    1.5387 C   0  0  0  0  0  0  0  0  0  0  0  0
   -1.6479    3.2853    1.8803 H   0  0  0  0  0  0  0  0  0  0  0  0
    0.0602    3.5199    2.3005 H   0  0  0  0  0  0  0  0  0  0  0  0
   -0.4655    3.6885    0.6114 H   0  0  0  0  0  0  0  0  0  0  0  0
  1  2  1  0  0  0  0
  2  3  1  0  0  0  0
  2  4  1  0  0  0  0
  2  5  1  0  0  0  0
  5  6  2  0  0  0  0
  5  7  1  0  0  0  0
  7  8  1  0  0  0  0
  7  9  1  0  0  0  0
  9 10  1  0  0  0  0
  9 11  1  0  0  0  0
  9 25  1  0  0  0  0
 11 12  1  0  0  0  0
 11 13  1  0  0  0  0
 11 14  1  0  0  0  0
 14 15  1  0  0  0  0
 14 23  2  0  0  0  0
 15 16  1  0  0  0  0
 15 17  2  0  0  0  0
 17 18  1  0  0  0  0
 17 19  1  0  0  0  0
 19 20  1  0  0  0  0
 19 21  2  0  0  0  0
 21 22  1  0  0  0  0
 21 23  1  0  0  0  0
 23 24  1  0  0  0  0
 25 26  2  0  0  0  0
 25 27  1  0  0  0  0
 27 28  1  0  0  0  0
 27 29  1  0  0  0  0
 29 30  1  0  0  0  0
 29 31  1  0  0  0  0
 29 32  1  0  0  0  0
M  END
$$$$

  -OEChem-04042216033D

 32 32  0     1  0  0  0  0  0999 V2000
   -3.6148   -4.0068    1.6044 H   0  0  0  0  0  0  0  0  0  0  0  0
   -3.6437   -3.0852    1.0164 C   0  0  0  0  0  0  0  0  0  0  0  0
   -4.3328   -2.3844    1.4937 H   0  0  0  0  0  0  0  0  0  0  0  0
   -4.0087   -3.3184    0.0132 H   0  0  0  0  0  0  0  0  0  0  0  0
   -2.2578   -2.4736    0.9331 C   0  0  0  0  0  0  0  0  0  0  0  0
   -1.3080   -3.0366    1.4552 O   0  0  0  0  0  0  0  0  0  0  0  0
   -2.0744   -1.2827    0.2621 N   0  0  0  0  0  0  0  0  0  0  0  0
   -2.9102   -0.7903   -0.0515 H   0  0  0  0  0  0  0  0  0  0  0  0
   -0.8208   -0.5130    0.2620 C   0  0  1  0  0  0  0  0  0  0  0  0
   -0.2271   -0.8068    1.1337 H   0  0  0  0  0  0  0  0  0  0  0  0
    0.0244   -0.8767   -0.9880 C   0  0  0  0  0  0  0  0  0  0  0  0
    0.7987   -1.5848   -0.6760 H   0  0  0  0  0  0  0  0  0  0  0  0
   -0.6154   -1.4147   -1.6951 H   0  0  0  0  0  0  0  0  0  0  0  0
    0.6572    0.2634   -1.7649 C   0  0  0  0  0  0  0  0  0  0  0  0
   -0.1085    1.2804   -2.3605 C   0  0  0  0  0  0  0  0  0  0  0  0
   -1.1933    1.2480   -2.3152 H   0  0  0  0  0  0  0  0  0  0  0  0
    0.5070    2.3408   -3.0330 C   0  0  0  0  0  0  0  0  0  0  0  0
   -0.1014    3.1172   -3.4873 H   0  0  0  0  0  0  0  0  0  0  0  0
    1.9001    2.3992   -3.1204 C   0  0  0  0  0  0  0  0  0  0  0  0
    2.3786    3.2218   -3.6437 H   0  0  0  0  0  0  0  0  0  0  0  0
    2.6748    1.3940   -2.5359 C   0  0  0  0  0  0  0  0  0  0  0  0
    3.7579    1.4348   -2.6038 H   0  0  0  0  0  0  0  0  0  0  0  0
    2.0563    0.3355   -1.8622 C   0  0  0  0  0  0  0  0  0  0  0  0
    2.6755   -0.4338   -1.4108 H   0  0  0  0  0  0  0  0  0  0  0  0
   -1.1301    0.9840    0.4856 C   0  0  0  0  0  0  0  0  0  0  0  0
   -2.1730    1.4632    0.0484 O   0  0  0  0  0  0  0  0  0  0  0  0
   -0.3756    1.7285    1.3741 N   0  0  0  0  0  0  0  0  0  0  0  0
    0.4852    1.3127    1.7178 H   0  0  0  0  0  0  0  0  0  0  0  0
   -0.6495    3.1277    1.6765 C   0  0  0  0  0  0  0  0  0  0  0  0
   -1.6538    3.2397    2.0987 H   0  0  0  0  0  0  0  0  0  0  0  0
    0.0741    3.5057    2.4050 H   0  0  0  0  0  0  0  0  0  0  0  0
   -0.5782    3.7360    0.7687 H   0  0  0  0  0  0  0  0  0  0  0  0
  1  2  1  0  0  0  0
  2  3  1  0  0  0  0
  2  4  1  0  0  0  0
  2  5  1  0  0  0  0
  5  6  2  0  0  0  0
  5  7  1  0  0  0  0
  7  8  1  0  0  0  0
  7  9  1  0  0  0  0
  9 10  1  0  0  0  0
  9 11  1  0  0  0  0
  9 25  1  0  0  0  0
 11 12  1  0  0  0  0
 11 13  1  0  0  0  0
 11 14  1  0  0  0  0
 14 15  1  0  0  0  0
 14 23  2  0  0  0  0
 15 16  1  0  0  0  0
 15 17  2  0  0  0  0
 17 18  1  0  0  0  0
 17 19  1  0  0  0  0
 19 20  1  0  0  0  0
 19 21  2  0  0  0  0
 21 22  1  0  0  0  0
 21 23  1  0  0  0  0
 23 24  1  0  0  0  0
 25 26  2  0  0  0  0
 25 27  1  0  0  0  0
 27 28  1  0  0  0  0
 27 29  1  0  0  0  0
 29 30  1  0  0  0  0
 29 31  1  0  0  0  0
 29 32  1  0  0  0  0
M  END
$$$$

  -OEChem-04042216033D

 32 32  0     1  0  0  0  0  0999 V2000
   -3.5482   -4.0479    1.5795 H   0  0  0  0  0  0  0  0  0  0  0  0
   -3.6051   -3.1229    0.9988 C   0  0  0  0  0  0  0  0  0  0  0  0
   -4.3053   -2.4422    1.4890 H   0  0  0  0  0  0  0  0  0  0  0  0
   -3.9753   -3.3570   -0.0022 H   0  0  0  0  0  0  0  0  0  0  0  0
   -2.2349   -2.4785    0.9062 C   0  0  0  0  0  0  0  0  0  0  0  0
   -1.2635   -3.0354    1.3940 O   0  0  0  0  0  0  0  0  0  0  0  0
   -2.0906   -1.2634    0.2699 N   0  0  0  0  0  0  0  0  0  0  0  0
   -2.9423   -0.7822   -0.0166 H   0  0  0  0  0  0  0  0  0  0  0  0
   -0.8544   -0.4656    0.2702 C   0  0  1  0  0  0  0  0  0  0  0  0
   -0.2564   -0.7666    1.1366 H   0  0  0  0  0  0  0  0  0  0  0  0
    0.0080   -0.8136   -0.9766 C   0  0  0  0  0  0  0  0  0  0  0  0
    0.7858   -1.5087   -0.6444 H   0  0  0  0  0  0  0  0  0  0  0  0
   -0.6219   -1.3738   -1.6751 H   0  0  0  0  0  0  0  0  0  0  0  0
    0.6472    0.2965   -1.8011 C   0  0  0  0  0  0  0  0  0  0  0  0
   -0.0261    1.4651   -2.2032 C   0  0  0  0  0  0  0  0  0  0  0  0
   -1.0863    1.5932   -2.0148 H   0  0  0  0  0  0  0  0  0  0  0  0
    0.6378    2.4754   -2.9066 C   0  0  0  0  0  0  0  0  0  0  0  0
    0.0953    3.3650   -3.2136 H   0  0  0  0  0  0  0  0  0  0  0  0
    1.9908    2.3371   -3.2220 C   0  0  0  0  0  0  0  0  0  0  0  0
    2.5058    3.1210   -3.7698 H   0  0  0  0  0  0  0  0  0  0  0  0
    2.6755    1.1831   -2.8366 C   0  0  0  0  0  0  0  0  0  0  0  0
    3.7273    1.0689   -3.0817 H   0  0  0  0  0  0  0  0  0  0  0  0
    2.0080    0.1749   -2.1332 C   0  0  0  0  0  0  0  0  0  0  0  0
    2.5641   -0.7106   -1.8400 H   0  0  0  0  0  0  0  0  0  0  0  0
   -1.1820    1.0171    0.5460 C   0  0  0  0  0  0  0  0  0  0  0  0
   -2.2503    1.4869    0.1636 O   0  0  0  0  0  0  0  0  0  0  0  0
   -0.4195    1.7443    1.4419 N   0  0  0  0  0  0  0  0  0  0  0  0
    0.4562    1.3322    1.7510 H   0  0  0  0  0  0  0  0  0  0  0  0
   -0.7196    3.1204    1.8178 C   0  0  0  0  0  0  0  0  0  0  0  0
   -1.7227    3.1911    2.2515 H   0  0  0  0  0  0  0  0  0  0  0  0
    0.0013    3.4744    2.5608 H   0  0  0  0  0  0  0  0  0  0  0  0
   -0.6663    3.7760    0.9424 H   0  0  0  0  0  0  0  0  0  0  0  0
  1  2  1  0  0  0  0
  2  3  1  0  0  0  0
  2  4  1  0  0  0  0
  2  5  1  0  0  0  0
  5  6  2  0  0  0  0
  5  7  1  0  0  0  0
  7  8  1  0  0  0  0
  7  9  1  0  0  0  0
  9 10  1  0  0  0  0
  9 11  1  0  0  0  0
  9 25  1  0  0  0  0
 11 12  1  0  0  0  0
 11 13  1  0  0  0  0
 11 14  1  0  0  0  0
 14 15  1  0  0  0  0
 14 23  2  0  0  0  0
 15 16  1  0  0  0  0
 15 17  2  0  0  0  0
 17 18  1  0  0  0  0
 17 19  1  0  0  0  0
 19 20  1  0  0  0  0
 19 21  2  0  0  0  0
 21 22  1  0  0  0  0
 21 23  1  0  0  0  0
 23 24  1  0  0  0  0
 25 26  2  0  0  0  0
 25 27  1  0  0  0  0
 27 28  1  0  0  0  0
 27 29  1  0  0  0  0
 29 30  1  0  0  0  0
 29 31  1  0  0  0  0
 29 32  1  0  0  0  0
M  END
$$$$

  -OEChem-04042216033D

 32 32  0     1  0  0  0  0  0999 V2000
   -3.4849   -4.1101    1.4813 H   0  0  0  0  0  0  0  0  0  0  0  0
   -3.5607   -3.1684    0.9307 C   0  0  0  0  0  0  0  0  0  0  0  0
   -4.2845   -2.5234    1.4345 H   0  0  0  0  0  0  0  0  0  0  0  0
   -3.9130   -3.3790   -0.0819 H   0  0  0  0  0  0  0  0  0  0  0  0
   -2.2077   -2.4846    0.8748 C   0  0  0  0  0  0  0  0  0  0  0  0
   -1.2271   -3.0298    1.3574 O   0  0  0  0  0  0  0  0  0  0  0  0
   -2.0887   -1.2486    0.2743 N   0  0  0  0  0  0  0  0  0  0  0  0
   -2.9492   -0.7824   -0.0114 H   0  0  0  0  0  0  0  0  0  0  0  0
   -0.8706   -0.4232    0.2986 C   0  0  1  0  0  0  0  0  0  0  0  0
   -0.2691   -0.7308    1.1602 H   0  0  0  0  0  0  0  0  0  0  0  0
    0.0023   -0.7349   -0.9533 C   0  0  0  0  0  0  0  0  0  0  0  0
    0.7847   -1.4222   -0.6150 H   0  0  0  0  0  0  0  0  0  0  0  0
   -0.6208   -1.3036   -1.6513 H   0  0  0  0  0  0  0  0  0  0  0  0
    0.6538    0.3537   -1.8059 C   0  0  0  0  0  0  0  0  0  0  0  0
    0.1553    1.6559   -2.0164 C   0  0  0  0  0  0  0  0  0  0  0  0
   -0.8169    1.9679   -1.6601 H   0  0  0  0  0  0  0  0  0  0  0  0
    0.8728    2.5942   -2.7664 C   0  0  0  0  0  0  0  0  0  0  0  0
    0.4621    3.5874   -2.9224 H   0  0  0  0  0  0  0  0  0  0  0  0
    2.1053    2.2548   -3.3251 C   0  0  0  0  0  0  0  0  0  0  0  0
    2.6609    2.9837   -3.9080 H   0  0  0  0  0  0  0  0  0  0  0  0
    2.6144    0.9696   -3.1391 C   0  0  0  0  0  0  0  0  0  0  0  0
    3.5704    0.6957   -3.5755 H   0  0  0  0  0  0  0  0  0  0  0  0
    1.8946    0.0346   -2.3887 C   0  0  0  0  0  0  0  0  0  0  0  0
    2.3188   -0.9563   -2.2557 H   0  0  0  0  0  0  0  0  0  0  0  0
   -1.2428    1.0381    0.6164 C   0  0  0  0  0  0  0  0  0  0  0  0
   -2.3155    1.4934    0.2294 O   0  0  0  0  0  0  0  0  0  0  0  0
   -0.5053    1.7629    1.5349 N   0  0  0  0  0  0  0  0  0  0  0  0
    0.3706    1.3591    1.8548 H   0  0  0  0  0  0  0  0  0  0  0  0
   -0.8521    3.1146    1.9563 C   0  0  0  0  0  0  0  0  0  0  0  0
   -1.8593    3.1370    2.3856 H   0  0  0  0  0  0  0  0  0  0  0  0
   -0.1470    3.4658    2.7157 H   0  0  0  0  0  0  0  0  0  0  0  0
   -0.8159    3.8017    1.1045 H   0  0  0  0  0  0  0  0  0  0  0  0
  1  2  1  0  0  0  0
  2  3  1  0  0  0  0
  2  4  1  0  0  0  0
  2  5  1  0  0  0  0
  5  6  2  0  0  0  0
  5  7  1  0  0  0  0
  7  8  1  0  0  0  0
  7  9  1  0  0  0  0
  9 10  1  0  0  0  0
  9 11  1  0  0  0  0
  9 25  1  0  0  0  0
 11 12  1  0  0  0  0
 11 13  1  0  0  0  0
 11 14  1  0  0  0  0
 14 15  1  0  0  0  0
 14 23  2  0  0  0  0
 15 16  1  0  0  0  0
 15 17  2  0  0  0  0
 17 18  1  0  0  0  0
 17 19  1  0  0  0  0
 19 20  1  0  0  0  0
 19 21  2  0  0  0  0
 21 22  1  0  0  0  0
 21 23  1  0  0  0  0
 23 24  1  0  0  0  0
 25 26  2  0  0  0  0
 25 27  1  0  0  0  0
 27 28  1  0  0  0  0
 27 29  1  0  0  0  0
 29 30  1  0  0  0  0
 29 31  1  0  0  0  0
 29 32  1  0  0  0  0
M  END
$$$$

  -OEChem-04042216033D

 32 32  0     1  0  0  0  0  0999 V2000
   -3.4618   -4.1348    1.3923 H   0  0  0  0  0  0  0  0  0  0  0  0
   -3.5372   -3.1666    0.8895 C   0  0  0  0  0  0  0  0  0  0  0  0
   -4.2632   -2.5484    1.4229 H   0  0  0  0  0  0  0  0  0  0  0  0
   -3.8870   -3.3265   -0.1333 H   0  0  0  0  0  0  0  0  0  0  0  0
   -2.1850   -2.4789    0.8716 C   0  0  0  0  0  0  0  0  0  0  0  0
   -1.2101   -3.0319    1.3564 O   0  0  0  0  0  0  0  0  0  0  0  0
   -2.0611   -1.2281    0.3047 N   0  0  0  0  0  0  0  0  0  0  0  0
   -2.9161   -0.7610    0.0043 H   0  0  0  0  0  0  0  0  0  0  0  0
   -0.8402   -0.4070    0.3465 C   0  0  1  0  0  0  0  0  0  0  0  0
   -0.2192   -0.7382    1.1854 H   0  0  0  0  0  0  0  0  0  0  0  0
   -0.0086   -0.6739   -0.9450 C   0  0  0  0  0  0  0  0  0  0  0  0
    0.7765   -1.3782   -0.6498 H   0  0  0  0  0  0  0  0  0  0  0  0
   -0.6598   -1.2157   -1.6388 H   0  0  0  0  0  0  0  0  0  0  0  0
    0.6496    0.4082   -1.8057 C   0  0  0  0  0  0  0  0  0  0  0  0
    0.4040    1.7994   -1.7907 C   0  0  0  0  0  0  0  0  0  0  0  0
   -0.3587    2.2664   -1.1867 H   0  0  0  0  0  0  0  0  0  0  0  0
    1.1222    2.6708   -2.6174 C   0  0  0  0  0  0  0  0  0  0  0  0
    0.9066    3.7350   -2.5934 H   0  0  0  0  0  0  0  0  0  0  0  0
    2.1039    2.1801   -3.4779 C   0  0  0  0  0  0  0  0  0  0  0  0
    2.6599    2.8588   -4.1179 H   0  0  0  0  0  0  0  0  0  0  0  0
    2.3599    0.8106   -3.5170 C   0  0  0  0  0  0  0  0  0  0  0  0
    3.1186    0.4181   -4.1874 H   0  0  0  0  0  0  0  0  0  0  0  0
    1.6391   -0.0576   -2.6921 C   0  0  0  0  0  0  0  0  0  0  0  0
    1.8613   -1.1196   -2.7419 H   0  0  0  0  0  0  0  0  0  0  0  0
   -1.2361    1.0360    0.7051 C   0  0  0  0  0  0  0  0  0  0  0  0
   -2.2825    1.5124    0.2752 O   0  0  0  0  0  0  0  0  0  0  0  0
   -0.5123    1.7473    1.6453 N   0  0  0  0  0  0  0  0  0  0  0  0
    0.3364    1.3206    2.0064 H   0  0  0  0  0  0  0  0  0  0  0  0
   -0.8762    3.0848    2.0964 C   0  0  0  0  0  0  0  0  0  0  0  0
   -1.8712    3.0779    2.5535 H   0  0  0  0  0  0  0  0  0  0  0  0
   -0.1575    3.4411    2.8406 H   0  0  0  0  0  0  0  0  0  0  0  0
   -0.8793    3.7856    1.2551 H   0  0  0  0  0  0  0  0  0  0  0  0
  1  2  1  0  0  0  0
  2  3  1  0  0  0  0
  2  4  1  0  0  0  0
  2  5  1  0  0  0  0
  5  6  2  0  0  0  0
  5  7  1  0  0  0  0
  7  8  1  0  0  0  0
  7  9  1  0  0  0  0
  9 10  1  0  0  0  0
  9 11  1  0  0  0  0
  9 25  1  0  0  0  0
 11 12  1  0  0  0  0
 11 13  1  0  0  0  0
 11 14  1  0  0  0  0
 14 15  1  0  0  0  0
 14 23  2  0  0  0  0
 15 16  1  0  0  0  0
 15 17  2  0  0  0  0
 17 18  1  0  0  0  0
 17 19  1  0  0  0  0
 19 20  1  0  0  0  0
 19 21  2  0  0  0  0
 21 22  1  0  0  0  0
 21 23  1  0  0  0  0
 23 24  1  0  0  0  0
 25 26  2  0  0  0  0
 25 27  1  0  0  0  0
 27 28  1  0  0  0  0
 27 29  1  0  0  0  0
 29 30  1  0  0  0  0
 29 31  1  0  0  0  0
 29 32  1  0  0  0  0
M  END
$$$$

  -OEChem-04042216033D

 32 32  0     1  0  0  0  0  0999 V2000
   -3.5118   -4.0966    1.3334 H   0  0  0  0  0  0  0  0  0  0  0  0
   -3.5492   -3.1345    0.8151 C   0  0  0  0  0  0  0  0  0  0  0  0
   -4.2960   -2.5014    1.3004 H   0  0  0  0  0  0  0  0  0  0  0  0
   -3.8455   -3.3045   -0.2229 H   0  0  0  0  0  0  0  0  0  0  0  0
   -2.1905   -2.4610    0.8611 C   0  0  0  0  0  0  0  0  0  0  0  0
   -1.2447   -3.0225    1.3917 O   0  0  0  0  0  0  0  0  0  0  0  0
   -2.0270   -1.2124    0.2998 N   0  0  0  0  0  0  0  0  0  0  0  0
   -2.8604   -0.7374   -0.0463 H   0  0  0  0  0  0  0  0  0  0  0  0
   -0.7955   -0.4097    0.3815 C   0  0  1  0  0  0  0  0  0  0  0  0
   -0.1825   -0.7507    1.2221 H   0  0  0  0  0  0  0  0  0  0  0  0
    0.0229   -0.6665   -0.9222 C   0  0  0  0  0  0  0  0  0  0  0  0
    0.7968   -1.3923   -0.6508 H   0  0  0  0  0  0  0  0  0  0  0  0
   -0.6464   -1.1795   -1.6212 H   0  0  0  0  0  0  0  0  0  0  0  0
    0.7067    0.4092   -1.7699 C   0  0  0  0  0  0  0  0  0  0  0  0
    0.7364    1.8046   -1.5539 C   0  0  0  0  0  0  0  0  0  0  0  0
    0.2500    2.2948   -0.7264 H   0  0  0  0  0  0  0  0  0  0  0  0
    1.4141    2.6585   -2.4316 C   0  0  0  0  0  0  0  0  0  0  0  0
    1.4174    3.7286   -2.2463 H   0  0  0  0  0  0  0  0  0  0  0  0
    2.0809    2.1454   -3.5439 C   0  0  0  0  0  0  0  0  0  0  0  0
    2.6038    2.8122   -4.2232 H   0  0  0  0  0  0  0  0  0  0  0  0
    2.0684    0.7715   -3.7782 C   0  0  0  0  0  0  0  0  0  0  0  0
    2.5839    0.3621   -4.6420 H   0  0  0  0  0  0  0  0  0  0  0  0
    1.3894   -0.0787   -2.9005 C   0  0  0  0  0  0  0  0  0  0  0  0
    1.3938   -1.1451   -3.1071 H   0  0  0  0  0  0  0  0  0  0  0  0
   -1.2164    1.0294    0.7284 C   0  0  0  0  0  0  0  0  0  0  0  0
   -2.2174    1.5232    0.2194 O   0  0  0  0  0  0  0  0  0  0  0  0
   -0.5337    1.7418    1.6992 N   0  0  0  0  0  0  0  0  0  0  0  0
    0.2611    1.2901    2.1435 H   0  0  0  0  0  0  0  0  0  0  0  0
   -0.9335    3.0701    2.1478 C   0  0  0  0  0  0  0  0  0  0  0  0
   -1.9475    3.0454    2.5608 H   0  0  0  0  0  0  0  0  0  0  0  0
   -0.2522    3.4279    2.9258 H   0  0  0  0  0  0  0  0  0  0  0  0
   -0.9094    3.7797    1.3139 H   0  0  0  0  0  0  0  0  0  0  0  0
  1  2  1  0  0  0  0
  2  3  1  0  0  0  0
  2  4  1  0  0  0  0
  2  5  1  0  0  0  0
  5  6  2  0  0  0  0
  5  7  1  0  0  0  0
  7  8  1  0  0  0  0
  7  9  1  0  0  0  0
  9 10  1  0  0  0  0
  9 11  1  0  0  0  0
  9 25  1  0  0  0  0
 11 12  1  0  0  0  0
 11 13  1  0  0  0  0
 11 14  1  0  0  0  0
 14 15  1  0  0  0  0
 14 23  2  0  0  0  0
 15 16  1  0  0  0  0
 15 17  2  0  0  0  0
 17 18  1  0  0  0  0
 17 19  1  0  0  0  0
 19 20  1  0  0  0  0
 19 21  2  0  0  0  0
 21 22  1  0  0  0  0
 21 23  1  0  0  0  0
 23 24  1  0  0  0  0
 25 26  2  0  0  0  0
 25 27  1  0  0  0  0
 27 28  1  0  0  0  0
 27 29  1  0  0  0  0
 29 30  1  0  0  0  0
 29 31  1  0  0  0  0
 29 32  1  0  0  0  0
M  END
$$$$

  -OEChem-04042216033D

 32 32  0     1  0  0  0  0  0999 V2000
   -3.5959   -4.0213    1.3644 H   0  0  0  0  0  0  0  0  0  0  0  0
   -3.5970   -3.0738    0.8184 C   0  0  0  0  0  0  0  0  0  0  0  0
   -4.3308   -2.4051    1.2749 H   0  0  0  0  0  0  0  0  0  0  0  0
   -3.8828   -3.2640   -0.2189 H   0  0  0  0  0  0  0  0  0  0  0  0
   -2.2192   -2.4413    0.8661 C   0  0  0  0  0  0  0  0  0  0  0  0
   -1.2969   -3.0226    1.4162 O   0  0  0  0  0  0  0  0  0  0  0  0
   -2.0111   -1.2061    0.2905 N   0  0  0  0  0  0  0  0  0  0  0  0
   -2.8256   -0.7070   -0.0674 H   0  0  0  0  0  0  0  0  0  0  0  0
   -0.7554   -0.4428    0.3835 C   0  0  1  0  0  0  0  0  0  0  0  0
   -0.1464   -0.7936    1.2231 H   0  0  0  0  0  0  0  0  0  0  0  0
    0.0319   -0.7178   -0.9368 C   0  0  0  0  0  0  0  0  0  0  0  0
    0.7875   -1.4712   -0.6926 H   0  0  0  0  0  0  0  0  0  0  0  0
   -0.6659   -1.1994   -1.6309 H   0  0  0  0  0  0  0  0  0  0  0  0
    0.7348    0.3583   -1.7648 C   0  0  0  0  0  0  0  0  0  0  0  0
    1.0503    1.6708   -1.3581 C   0  0  0  0  0  0  0  0  0  0  0  0
    0.8536    2.0377   -0.3643 H   0  0  0  0  0  0  0  0  0  0  0  0
    1.6811    2.5678   -2.2275 C   0  0  0  0  0  0  0  0  0  0  0  0
    1.9139    3.5737   -1.8910 H   0  0  0  0  0  0  0  0  0  0  0  0
    2.0172    2.1751   -3.5230 C   0  0  0  0  0  0  0  0  0  0  0  0
    2.5061    2.8729   -4.1964 H   0  0  0  0  0  0  0  0  0  0  0  0
    1.7244    0.8793   -3.9461 C   0  0  0  0  0  0  0  0  0  0  0  0
    1.9853    0.5645   -4.9522 H   0  0  0  0  0  0  0  0  0  0  0  0
    1.0922   -0.0130   -3.0747 C   0  0  0  0  0  0  0  0  0  0  0  0
    0.8733   -1.0155   -3.4303 H   0  0  0  0  0  0  0  0  0  0  0  0
   -1.1648    1.0093    0.7068 C   0  0  0  0  0  0  0  0  0  0  0  0
   -2.1398    1.5172    0.1623 O   0  0  0  0  0  0  0  0  0  0  0  0
   -0.4937    1.7226    1.6858 N   0  0  0  0  0  0  0  0  0  0  0  0
    0.2589    1.2502    2.1791 H   0  0  0  0  0  0  0  0  0  0  0  0
   -0.8769    3.0657    2.1037 C   0  0  0  0  0  0  0  0  0  0  0  0
   -1.8902    3.0636    2.5188 H   0  0  0  0  0  0  0  0  0  0  0  0
   -0.1889    3.4333    2.8712 H   0  0  0  0  0  0  0  0  0  0  0  0
   -0.8454    3.7553    1.2534 H   0  0  0  0  0  0  0  0  0  0  0  0
  1  2  1  0  0  0  0
  2  3  1  0  0  0  0
  2  4  1  0  0  0  0
  2  5  1  0  0  0  0
  5  6  2  0  0  0  0
  5  7  1  0  0  0  0
  7  8  1  0  0  0  0
  7  9  1  0  0  0  0
  9 10  1  0  0  0  0
  9 11  1  0  0  0  0
  9 25  1  0  0  0  0
 11 12  1  0  0  0  0
 11 13  1  0  0  0  0
 11 14  1  0  0  0  0
 14 15  1  0  0  0  0
 14 23  2  0  0  0  0
 15 16  1  0  0  0  0
 15 17  2  0  0  0  0
 17 18  1  0  0  0  0
 17 19  1  0  0  0  0
 19 20  1  0  0  0  0
 19 21  2  0  0  0  0
 21 22  1  0  0  0  0
 21 23  1  0  0  0  0
 23 24  1  0  0  0  0
 25 26  2  0  0  0  0
 25 27  1  0  0  0  0
 27 28  1  0  0  0  0
 27 29  1  0  0  0  0
 29 30  1  0  0  0  0
 29 31  1  0  0  0  0
 29 32  1  0  0  0  0
M  END
$$$$

  -OEChem-04042216033D

 32 32  0     1  0  0  0  0  0999 V2000
   -3.6794   -3.9590    1.4477 H   0  0  0  0  0  0  0  0  0  0  0  0
   -3.6474   -3.0365    0.8612 C   0  0  0  0  0  0  0  0  0  0  0  0
   -4.3736   -2.3316    1.2734 H   0  0  0  0  0  0  0  0  0  0  0  0
   -3.9190   -3.2657   -0.1723 H   0  0  0  0  0  0  0  0  0  0  0  0
   -2.2558   -2.4338    0.9096 C   0  0  0  0  0  0  0  0  0  0  0  0
   -1.3616   -3.0055    1.5134 O   0  0  0  0  0  0  0  0  0  0  0  0
   -2.0037   -1.2357    0.2757 N   0  0  0  0  0  0  0  0  0  0  0  0
   -2.7973   -0.7358   -0.1256 H   0  0  0  0  0  0  0  0  0  0  0  0
   -0.7337   -0.4955    0.3669 C   0  0  1  0  0  0  0  0  0  0  0  0
   -0.1423   -0.8184    1.2298 H   0  0  0  0  0  0  0  0  0  0  0  0
    0.0595   -0.8162   -0.9377 C   0  0  0  0  0  0  0  0  0  0  0  0
    0.8095   -1.5695   -0.6777 H   0  0  0  0  0  0  0  0  0  0  0  0
   -0.6327   -1.3018   -1.6341 H   0  0  0  0  0  0  0  0  0  0  0  0
    0.7720    0.2723   -1.7345 C   0  0  0  0  0  0  0  0  0  0  0  0
    1.3226    1.4421   -1.1785 C   0  0  0  0  0  0  0  0  0  0  0  0
    1.3423    1.6024   -0.1102 H   0  0  0  0  0  0  0  0  0  0  0  0
    1.9212    2.4155   -1.9857 C   0  0  0  0  0  0  0  0  0  0  0  0
    2.3421    3.3093   -1.5350 H   0  0  0  0  0  0  0  0  0  0  0  0
    1.9865    2.2367   -3.3683 C   0  0  0  0  0  0  0  0  0  0  0  0
    2.4504    2.9927   -3.9948 H   0  0  0  0  0  0  0  0  0  0  0  0
    1.4575    1.0790   -3.9401 C   0  0  0  0  0  0  0  0  0  0  0  0
    1.5079    0.9326   -5.0149 H   0  0  0  0  0  0  0  0  0  0  0  0
    0.8571    0.1102   -3.1293 C   0  0  0  0  0  0  0  0  0  0  0  0
    0.4455   -0.7778   -3.5994 H   0  0  0  0  0  0  0  0  0  0  0  0
   -1.1320    0.9805    0.6006 C   0  0  0  0  0  0  0  0  0  0  0  0
   -2.0884    1.4654    0.0036 O   0  0  0  0  0  0  0  0  0  0  0  0
   -0.4869    1.7431    1.5595 N   0  0  0  0  0  0  0  0  0  0  0  0
    0.2444    1.2951    2.1044 H   0  0  0  0  0  0  0  0  0  0  0  0
   -0.8536    3.1202    1.8670 C   0  0  0  0  0  0  0  0  0  0  0  0
   -1.8912    3.1722    2.2132 H   0  0  0  0  0  0  0  0  0  0  0  0
   -0.2058    3.5179    2.6542 H   0  0  0  0  0  0  0  0  0  0  0  0
   -0.7457    3.7520    0.9790 H   0  0  0  0  0  0  0  0  0  0  0  0
  1  2  1  0  0  0  0
  2  3  1  0  0  0  0
  2  4  1  0  0  0  0
  2  5  1  0  0  0  0
  5  6  2  0  0  0  0
  5  7  1  0  0  0  0
  7  8  1  0  0  0  0
  7  9  1  0  0  0  0
  9 10  1  0  0  0  0
  9 11  1  0  0  0  0
  9 25  1  0  0  0  0
 11 12  1  0  0  0  0
 11 13  1  0  0  0  0
 11 14  1  0  0  0  0
 14 15  1  0  0  0  0
 14 23  2  0  0  0  0
 15 16  1  0  0  0  0
 15 17  2  0  0  0  0
 17 18  1  0  0  0  0
 17 19  1  0  0  0  0
 19 20  1  0  0  0  0
 19 21  2  0  0  0  0
 21 22  1  0  0  0  0
 21 23  1  0  0  0  0
 23 24  1  0  0  0  0
 25 26  2  0  0  0  0
 25 27  1  0  0  0  0
 27 28  1  0  0  0  0
 27 29  1  0  0  0  0
 29 30  1  0  0  0  0
 29 31  1  0  0  0  0
 29 32  1  0  0  0  0
M  END
$$$$

  -OEChem-04042216033D

 32 32  0     1  0  0  0  0  0999 V2000
   -3.7039   -3.9262    1.5608 H   0  0  0  0  0  0  0  0  0  0  0  0
   -3.6682   -3.0207    0.9487 C   0  0  0  0  0  0  0  0  0  0  0  0
   -4.3734   -2.2922    1.3560 H   0  0  0  0  0  0  0  0  0  0  0  0
   -3.9646   -3.2729   -0.0722 H   0  0  0  0  0  0  0  0  0  0  0  0
   -2.2663   -2.4413    0.9521 C   0  0  0  0  0  0  0  0  0  0  0  0
   -1.3723   -3.0028    1.5659 O   0  0  0  0  0  0  0  0  0  0  0  0
   -2.0061   -1.2734    0.2679 N   0  0  0  0  0  0  0  0  0  0  0  0
   -2.7996   -0.7754   -0.1356 H   0  0  0  0  0  0  0  0  0  0  0  0
   -0.7290   -0.5439    0.3217 C   0  0  1  0  0  0  0  0  0  0  0  0
   -0.1359   -0.8431    1.1918 H   0  0  0  0  0  0  0  0  0  0  0  0
    0.0587   -0.8957   -0.9730 C   0  0  0  0  0  0  0  0  0  0  0  0
    0.8204   -1.6351   -0.7071 H   0  0  0  0  0  0  0  0  0  0  0  0
   -0.6257   -1.3963   -1.6660 H   0  0  0  0  0  0  0  0  0  0  0  0
    0.7448    0.2238   -1.7398 C   0  0  0  0  0  0  0  0  0  0  0  0
    1.5098    1.2166   -1.1026 C   0  0  0  0  0  0  0  0  0  0  0  0
    1.6801    1.1775   -0.0332 H   0  0  0  0  0  0  0  0  0  0  0  0
    2.0978    2.2532   -1.8351 C   0  0  0  0  0  0  0  0  0  0  0  0
    2.6880    3.0103   -1.3275 H   0  0  0  0  0  0  0  0  0  0  0  0
    1.9296    2.3132   -3.2202 C   0  0  0  0  0  0  0  0  0  0  0  0
    2.3841    3.1179   -3.7904 H   0  0  0  0  0  0  0  0  0  0  0  0
    1.1747    1.3342   -3.8699 C   0  0  0  0  0  0  0  0  0  0  0  0
    1.0392    1.3784   -4.9465 H   0  0  0  0  0  0  0  0  0  0  0  0
    0.5867    0.2998   -3.1340 C   0  0  0  0  0  0  0  0  0  0  0  0
   -0.0049   -0.4447   -3.6581 H   0  0  0  0  0  0  0  0  0  0  0  0
   -1.0931    0.9497    0.4966 C   0  0  0  0  0  0  0  0  0  0  0  0
   -2.0563    1.4227   -0.0996 O   0  0  0  0  0  0  0  0  0  0  0  0
   -0.4236    1.7374    1.4175 N   0  0  0  0  0  0  0  0  0  0  0  0
    0.3146    1.3024    1.9629 H   0  0  0  0  0  0  0  0  0  0  0  0
   -0.7573    3.1341    1.6671 C   0  0  0  0  0  0  0  0  0  0  0  0
   -1.7918    3.2252    2.0145 H   0  0  0  0  0  0  0  0  0  0  0  0
   -0.0972    3.5496    2.4343 H   0  0  0  0  0  0  0  0  0  0  0  0
   -0.6388    3.7243    0.7522 H   0  0  0  0  0  0  0  0  0  0  0  0
  1  2  1  0  0  0  0
  2  3  1  0  0  0  0
  2  4  1  0  0  0  0
  2  5  1  0  0  0  0
  5  6  2  0  0  0  0
  5  7  1  0  0  0  0
  7  8  1  0  0  0  0
  7  9  1  0  0  0  0
  9 10  1  0  0  0  0
  9 11  1  0  0  0  0
  9 25  1  0  0  0  0
 11 12  1  0  0  0  0
 11 13  1  0  0  0  0
 11 14  1  0  0  0  0
 14 15  1  0  0  0  0
 14 23  2  0  0  0  0
 15 16  1  0  0  0  0
 15 17  2  0  0  0  0
 17 18  1  0  0  0  0
 17 19  1  0  0  0  0
 19 20  1  0  0  0  0
 19 21  2  0  0  0  0
 21 22  1  0  0  0  0
 21 23  1  0  0  0  0
 23 24  1  0  0  0  0
 25 26  2  0  0  0  0
 25 27  1  0  0  0  0
 27 28  1  0  0  0  0
 27 29  1  0  0  0  0
 29 30  1  0  0  0  0
 29 31  1  0  0  0  0
 29 32  1  0  0  0  0
M  END
$$$$

  -OEChem-04042216033D

 32 32  0     1  0  0  0  0  0999 V2000
   -3.7158   -3.9097    1.6563 H   0  0  0  0  0  0  0  0  0  0  0  0
   -3.6798   -3.0257    1.0135 C   0  0  0  0  0  0  0  0  0  0  0  0
   -4.3722   -2.2769    1.4056 H   0  0  0  0  0  0  0  0  0  0  0  0
   -3.9932   -3.3093    0.0059 H   0  0  0  0  0  0  0  0  0  0  0  0
   -2.2722   -2.4604    0.9781 C   0  0  0  0  0  0  0  0  0  0  0  0
   -1.3733   -3.0147    1.5914 O   0  0  0  0  0  0  0  0  0  0  0  0
   -2.0143   -1.3124    0.2599 N   0  0  0  0  0  0  0  0  0  0  0  0
   -2.8125   -0.8162   -0.1361 H   0  0  0  0  0  0  0  0  0  0  0  0
   -0.7361   -0.5848    0.2818 C   0  0  1  0  0  0  0  0  0  0  0  0
   -0.1414   -0.8662    1.1568 H   0  0  0  0  0  0  0  0  0  0  0  0
    0.0576   -0.9532   -0.9998 C   0  0  0  0  0  0  0  0  0  0  0  0
    0.8315   -1.6776   -0.7277 H   0  0  0  0  0  0  0  0  0  0  0  0
   -0.6131   -1.4652   -1.6977 H   0  0  0  0  0  0  0  0  0  0  0  0
    0.7122    0.1998   -1.7354 C   0  0  0  0  0  0  0  0  0  0  0  0
    1.6760    1.0051   -1.1057 C   0  0  0  0  0  0  0  0  0  0  0  0
    1.9918    0.7837   -0.0917 H   0  0  0  0  0  0  0  0  0  0  0  0
    2.2495    2.0902   -1.7768 C   0  0  0  0  0  0  0  0  0  0  0  0
    2.9961    2.7040   -1.2819 H   0  0  0  0  0  0  0  0  0  0  0  0
    1.8610    2.3862   -3.0861 C   0  0  0  0  0  0  0  0  0  0  0  0
    2.3021    3.2301   -3.6084 H   0  0  0  0  0  0  0  0  0  0  0  0
    0.8998    1.5959   -3.7219 C   0  0  0  0  0  0  0  0  0  0  0  0
    0.5911    1.8279   -4.7369 H   0  0  0  0  0  0  0  0  0  0  0  0
    0.3283    0.5105   -3.0493 C   0  0  0  0  0  0  0  0  0  0  0  0
   -0.4269   -0.0848   -3.5534 H   0  0  0  0  0  0  0  0  0  0  0  0
   -1.0719    0.9193    0.4177 C   0  0  0  0  0  0  0  0  0  0  0  0
   -2.0431    1.3868   -0.1701 O   0  0  0  0  0  0  0  0  0  0  0  0
   -0.3772    1.7192    1.3079 N   0  0  0  0  0  0  0  0  0  0  0  0
    0.3990    1.3009    1.8111 H   0  0  0  0  0  0  0  0  0  0  0  0
   -0.6503    3.1398    1.4842 C   0  0  0  0  0  0  0  0  0  0  0  0
   -1.6876    3.2953    1.7989 H   0  0  0  0  0  0  0  0  0  0  0  0
    0.0091    3.5601    2.2495 H   0  0  0  0  0  0  0  0  0  0  0  0
   -0.4809    3.6792    0.5463 H   0  0  0  0  0  0  0  0  0  0  0  0
  1  2  1  0  0  0  0
  2  3  1  0  0  0  0
  2  4  1  0  0  0  0
  2  5  1  0  0  0  0
  5  6  2  0  0  0  0
  5  7  1  0  0  0  0
  7  8  1  0  0  0  0
  7  9  1  0  0  0  0
  9 10  1  0  0  0  0
  9 11  1  0  0  0  0
  9 25  1  0  0  0  0
 11 12  1  0  0  0  0
 11 13  1  0  0  0  0
 11 14  1  0  0  0  0
 14 15  1  0  0  0  0
 14 23  2  0  0  0  0
 15 16  1  0  0  0  0
 15 17  2  0  0  0  0
 17 18  1  0  0  0  0
 17 19  1  0  0  0  0
 19 20  1  0  0  0  0
 19 21  2  0  0  0  0
 21 22  1  0  0  0  0
 21 23  1  0  0  0  0
 23 24  1  0  0  0  0
 25 26  2  0  0  0  0
 25 27  1  0  0  0  0
 27 28  1  0  0  0  0
 27 29  1  0  0  0  0
 29 30  1  0  0  0  0
 29 31  1  0  0  0  0
 29 32  1  0  0  0  0
M  END
$$$$

  -OEChem-04042216033D

 32 32  0     1  0  0  0  0  0999 V2000
   -3.7062   -3.9108    1.7000 H   0  0  0  0  0  0  0  0  0  0  0  0
   -3.6792   -3.0360    1.0444 C   0  0  0  0  0  0  0  0  0  0  0  0
   -4.3704   -2.2838    1.4324 H   0  0  0  0  0  0  0  0  0  0  0  0
   -4.0009   -3.3347    0.0438 H   0  0  0  0  0  0  0  0  0  0  0  0
   -2.2735   -2.4679    0.9876 C   0  0  0  0  0  0  0  0  0  0  0  0
   -1.3661   -3.0169    1.5931 O   0  0  0  0  0  0  0  0  0  0  0  0
   -2.0253   -1.3282    0.2528 N   0  0  0  0  0  0  0  0  0  0  0  0
   -2.8285   -0.8368   -0.1387 H   0  0  0  0  0  0  0  0  0  0  0  0
   -0.7478   -0.5996    0.2538 C   0  0  1  0  0  0  0  0  0  0  0  0
   -0.1524   -0.8712    1.1312 H   0  0  0  0  0  0  0  0  0  0  0  0
    0.0523   -0.9790   -1.0172 C   0  0  0  0  0  0  0  0  0  0  0  0
    0.8319   -1.6957   -0.7404 H   0  0  0  0  0  0  0  0  0  0  0  0
   -0.6091   -1.4956   -1.7205 H   0  0  0  0  0  0  0  0  0  0  0  0
    0.6846    0.1920   -1.7361 C   0  0  0  0  0  0  0  0  0  0  0  0
    1.8316    0.8073   -1.2105 C   0  0  0  0  0  0  0  0  0  0  0  0
    2.2889    0.4218   -0.3047 H   0  0  0  0  0  0  0  0  0  0  0  0
    2.3990    1.9157   -1.8480 C   0  0  0  0  0  0  0  0  0  0  0  0
    3.2881    2.3845   -1.4367 H   0  0  0  0  0  0  0  0  0  0  0  0
    1.8202    2.4224   -3.0154 C   0  0  0  0  0  0  0  0  0  0  0  0
    2.2571    3.2847   -3.5104 H   0  0  0  0  0  0  0  0  0  0  0  0
    0.6739    1.8207   -3.5426 C   0  0  0  0  0  0  0  0  0  0  0  0
    0.2168    2.2174   -4.4442 H   0  0  0  0  0  0  0  0  0  0  0  0
    0.1078    0.7121   -2.9043 C   0  0  0  0  0  0  0  0  0  0  0  0
   -0.7940    0.2656   -3.3128 H   0  0  0  0  0  0  0  0  0  0  0  0
   -1.0637    0.9100    0.3748 C   0  0  0  0  0  0  0  0  0  0  0  0
   -2.0473    1.3761   -0.1936 O   0  0  0  0  0  0  0  0  0  0  0  0
   -0.3485    1.7110    1.2469 N   0  0  0  0  0  0  0  0  0  0  0  0
    0.4651    1.3034    1.6970 H   0  0  0  0  0  0  0  0  0  0  0  0
   -0.5937    3.1398    1.3965 C   0  0  0  0  0  0  0  0  0  0  0  0
   -1.6294    3.3218    1.7024 H   0  0  0  0  0  0  0  0  0  0  0  0
    0.0692    3.5601    2.1588 H   0  0  0  0  0  0  0  0  0  0  0  0
   -0.4085    3.6588    0.4501 H   0  0  0  0  0  0  0  0  0  0  0  0
  1  2  1  0  0  0  0
  2  3  1  0  0  0  0
  2  4  1  0  0  0  0
  2  5  1  0  0  0  0
  5  6  2  0  0  0  0
  5  7  1  0  0  0  0
  7  8  1  0  0  0  0
  7  9  1  0  0  0  0
  9 10  1  0  0  0  0
  9 11  1  0  0  0  0
  9 25  1  0  0  0  0
 11 12  1  0  0  0  0
 11 13  1  0  0  0  0
 11 14  1  0  0  0  0
 14 15  1  0  0  0  0
 14 23  2  0  0  0  0
 15 16  1  0  0  0  0
 15 17  2  0  0  0  0
 17 18  1  0  0  0  0
 17 19  1  0  0  0  0
 19 20  1  0  0  0  0
 19 21  2  0  0  0  0
 21 22  1  0  0  0  0
 21 23  1  0  0  0  0
 23 24  1  0  0  0  0
 25 26  2  0  0  0  0
 25 27  1  0  0  0  0
 27 28  1  0  0  0  0
 27 29  1  0  0  0  0
 29 30  1  0  0  0  0
 29 31  1  0  0  0  0
 29 32  1  0  0  0  0
M  END
$$$$

  -OEChem-04042216033D

 32 32  0     1  0  0  0  0  0999 V2000
   -3.6960   -3.9251    1.7019 H   0  0  0  0  0  0  0  0  0  0  0  0
   -3.6775   -3.0480    1.0492 C   0  0  0  0  0  0  0  0  0  0  0  0
   -4.3678   -2.2995    1.4459 H   0  0  0  0  0  0  0  0  0  0  0  0
   -4.0069   -3.3443    0.0505 H   0  0  0  0  0  0  0  0  0  0  0  0
   -2.2743   -2.4750    0.9813 C   0  0  0  0  0  0  0  0  0  0  0  0
   -1.3583   -3.0265    1.5714 O   0  0  0  0  0  0  0  0  0  0  0  0
   -2.0386   -1.3286    0.2525 N   0  0  0  0  0  0  0  0  0  0  0  0
   -2.8492   -0.8364   -0.1220 H   0  0  0  0  0  0  0  0  0  0  0  0
   -0.7647   -0.5934    0.2456 C   0  0  1  0  0  0  0  0  0  0  0  0
   -0.1676   -0.8675    1.1213 H   0  0  0  0  0  0  0  0  0  0  0  0
    0.0436   -0.9691   -1.0209 C   0  0  0  0  0  0  0  0  0  0  0  0
    0.8239   -1.6846   -0.7420 H   0  0  0  0  0  0  0  0  0  0  0  0
   -0.6127   -1.4854   -1.7293 H   0  0  0  0  0  0  0  0  0  0  0  0
    0.6648    0.2084   -1.7379 C   0  0  0  0  0  0  0  0  0  0  0  0
    1.9562    0.6398   -1.3986 C   0  0  0  0  0  0  0  0  0  0  0  0
    2.5212    0.1183   -0.6319 H   0  0  0  0  0  0  0  0  0  0  0  0
    2.5285    1.7416   -2.0436 C   0  0  0  0  0  0  0  0  0  0  0  0
    3.5286    2.0694   -1.7760 H   0  0  0  0  0  0  0  0  0  0  0  0
    1.8127    2.4223   -3.0330 C   0  0  0  0  0  0  0  0  0  0  0  0
    2.2541    3.2793   -3.5332 H   0  0  0  0  0  0  0  0  0  0  0  0
    0.5252    1.9999   -3.3770 C   0  0  0  0  0  0  0  0  0  0  0  0
   -0.0374    2.5304   -4.1395 H   0  0  0  0  0  0  0  0  0  0  0  0
   -0.0447    0.8970   -2.7331 C   0  0  0  0  0  0  0  0  0  0  0  0
   -1.0523    0.5872   -2.9947 H   0  0  0  0  0  0  0  0  0  0  0  0
   -1.0720    0.9163    0.3801 C   0  0  0  0  0  0  0  0  0  0  0  0
   -2.0695    1.3861   -0.1612 O   0  0  0  0  0  0  0  0  0  0  0  0
   -0.3422    1.7069    1.2493 N   0  0  0  0  0  0  0  0  0  0  0  0
    0.4912    1.2994    1.6621 H   0  0  0  0  0  0  0  0  0  0  0  0
   -0.5786    3.1357    1.4116 C   0  0  0  0  0  0  0  0  0  0  0  0
   -1.6106    3.3208    1.7276 H   0  0  0  0  0  0  0  0  0  0  0  0
    0.0926    3.5463    2.1721 H   0  0  0  0  0  0  0  0  0  0  0  0
   -0.3980    3.6616    0.4681 H   0  0  0  0  0  0  0  0  0  0  0  0
  1  2  1  0  0  0  0
  2  3  1  0  0  0  0
  2  4  1  0  0  0  0
  2  5  1  0  0  0  0
  5  6  2  0  0  0  0
  5  7  1  0  0  0  0
  7  8  1  0  0  0  0
  7  9  1  0  0  0  0
  9 10  1  0  0  0  0
  9 11  1  0  0  0  0
  9 25  1  0  0  0  0
 11 12  1  0  0  0  0
 11 13  1  0  0  0  0
 11 14  1  0  0  0  0
 14 15  1  0  0  0  0
 14 23  2  0  0  0  0
 15 16  1  0  0  0  0
 15 17  2  0  0  0  0
 17 18  1  0  0  0  0
 17 19  1  0  0  0  0
 19 20  1  0  0  0  0
 19 21  2  0  0  0  0
 21 22  1  0  0  0  0
 21 23  1  0  0  0  0
 23 24  1  0  0  0  0
 25 26  2  0  0  0  0
 25 27  1  0  0  0  0
 27 28  1  0  0  0  0
 27 29  1  0  0  0  0
 29 30  1  0  0  0  0
 29 31  1  0  0  0  0
 29 32  1  0  0  0  0
M  END
$$$$

  -OEChem-04042216033D

 32 32  0     1  0  0  0  0  0999 V2000
   -3.6718   -3.9474    1.6815 H   0  0  0  0  0  0  0  0  0  0  0  0
   -3.6690   -3.0572    1.0464 C   0  0  0  0  0  0  0  0  0  0  0  0
   -4.3544   -2.3199    1.4712 H   0  0  0  0  0  0  0  0  0  0  0  0
   -4.0165   -3.3350    0.0484 H   0  0  0  0  0  0  0  0  0  0  0  0
   -2.2696   -2.4771    0.9637 C   0  0  0  0  0  0  0  0  0  0  0  0
   -1.3407   -3.0380    1.5240 O   0  0  0  0  0  0  0  0  0  0  0  0
   -2.0522   -1.3135    0.2568 N   0  0  0  0  0  0  0  0  0  0  0  0
   -2.8721   -0.8168   -0.0902 H   0  0  0  0  0  0  0  0  0  0  0  0
   -0.7841   -0.5684    0.2505 C   0  0  1  0  0  0  0  0  0  0  0  0
   -0.1851   -0.8528    1.1216 H   0  0  0  0  0  0  0  0  0  0  0  0
    0.0320   -0.9312   -1.0153 C   0  0  0  0  0  0  0  0  0  0  0  0
    0.8091   -1.6494   -0.7349 H   0  0  0  0  0  0  0  0  0  0  0  0
   -0.6224   -1.4451   -1.7271 H   0  0  0  0  0  0  0  0  0  0  0  0
    0.6523    0.2430   -1.7421 C   0  0  0  0  0  0  0  0  0  0  0  0
    2.0302    0.4875   -1.6371 C   0  0  0  0  0  0  0  0  0  0  0  0
    2.6534   -0.1542   -1.0215 H   0  0  0  0  0  0  0  0  0  0  0  0
    2.6175    1.5585   -2.3198 C   0  0  0  0  0  0  0  0  0  0  0  0
    3.6838    1.7430   -2.2275 H   0  0  0  0  0  0  0  0  0  0  0  0
    1.8327    2.3900   -3.1241 C   0  0  0  0  0  0  0  0  0  0  0  0
    2.2863    3.2223   -3.6542 H   0  0  0  0  0  0  0  0  0  0  0  0
    0.4619    2.1464   -3.2479 C   0  0  0  0  0  0  0  0  0  0  0  0
   -0.1526    2.7893   -3.8712 H   0  0  0  0  0  0  0  0  0  0  0  0
   -0.1225    1.0741   -2.5664 C   0  0  0  0  0  0  0  0  0  0  0  0
   -1.1898    0.8962   -2.6669 H   0  0  0  0  0  0  0  0  0  0  0  0
   -1.0920    0.9368    0.4207 C   0  0  0  0  0  0  0  0  0  0  0  0
   -2.1088    1.4119   -0.0789 O   0  0  0  0  0  0  0  0  0  0  0  0
   -0.3511    1.7080    1.2973 N   0  0  0  0  0  0  0  0  0  0  0  0
    0.4983    1.2983    1.6747 H   0  0  0  0  0  0  0  0  0  0  0  0
   -0.6034    3.1266    1.5156 C   0  0  0  0  0  0  0  0  0  0  0  0
   -1.6278    3.2849    1.8687 H   0  0  0  0  0  0  0  0  0  0  0  0
    0.0846    3.5213    2.2692 H   0  0  0  0  0  0  0  0  0  0  0  0
   -0.4602    3.6874    0.5861 H   0  0  0  0  0  0  0  0  0  0  0  0
  1  2  1  0  0  0  0
  2  3  1  0  0  0  0
  2  4  1  0  0  0  0
  2  5  1  0  0  0  0
  5  6  2  0  0  0  0
  5  7  1  0  0  0  0
  7  8  1  0  0  0  0
  7  9  1  0  0  0  0
  9 10  1  0  0  0  0
  9 11  1  0  0  0  0
  9 25  1  0  0  0  0
 11 12  1  0  0  0  0
 11 13  1  0  0  0  0
 11 14  1  0  0  0  0
 14 15  1  0  0  0  0
 14 23  2  0  0  0  0
 15 16  1  0  0  0  0
 15 17  2  0  0  0  0
 17 18  1  0  0  0  0
 17 19  1  0  0  0  0
 19 20  1  0  0  0  0
 19 21  2  0  0  0  0
 21 22  1  0  0  0  0
 21 23  1  0  0  0  0
 23 24  1  0  0  0  0
 25 26  2  0  0  0  0
 25 27  1  0  0  0  0
 27 28  1  0  0  0  0
 27 29  1  0  0  0  0
 29 30  1  0  0  0  0
 29 31  1  0  0  0  0
 29 32  1  0  0  0  0
M  END
$$$$

  -OEChem-04042216033D

 32 32  0     1  0  0  0  0  0999 V2000
   -3.6375   -3.9759    1.6368 H   0  0  0  0  0  0  0  0  0  0  0  0
   -3.6524   -3.0722    1.0212 C   0  0  0  0  0  0  0  0  0  0  0  0
   -4.3428   -2.3531    1.4687 H   0  0  0  0  0  0  0  0  0  0  0  0
   -4.0056   -3.3324    0.0206 H   0  0  0  0  0  0  0  0  0  0  0  0
   -2.2612   -2.4726    0.9381 C   0  0  0  0  0  0  0  0  0  0  0  0
   -1.3182   -3.0398    1.4678 O   0  0  0  0  0  0  0  0  0  0  0  0
   -2.0671   -1.2842    0.2661 N   0  0  0  0  0  0  0  0  0  0  0  0
   -2.8978   -0.7869   -0.0533 H   0  0  0  0  0  0  0  0  0  0  0  0
   -0.8076   -0.5241    0.2669 C   0  0  1  0  0  0  0  0  0  0  0  0
   -0.2095   -0.8247    1.1333 H   0  0  0  0  0  0  0  0  0  0  0  0
    0.0236   -0.8751   -0.9949 C   0  0  0  0  0  0  0  0  0  0  0  0
    0.7996   -1.5895   -0.7021 H   0  0  0  0  0  0  0  0  0  0  0  0
   -0.6229   -1.3976   -1.7076 H   0  0  0  0  0  0  0  0  0  0  0  0
    0.6489    0.2861   -1.7433 C   0  0  0  0  0  0  0  0  0  0  0  0
    2.0439    0.3488   -1.8919 C   0  0  0  0  0  0  0  0  0  0  0  0
    2.6774   -0.3999   -1.4253 H   0  0  0  0  0  0  0  0  0  0  0  0
    2.6397    1.3765   -2.6316 C   0  0  0  0  0  0  0  0  0  0  0  0
    3.7208    1.4219   -2.7250 H   0  0  0  0  0  0  0  0  0  0  0  0
    1.8443    2.3405   -3.2568 C   0  0  0  0  0  0  0  0  0  0  0  0
    2.3049    3.1387   -3.8312 H   0  0  0  0  0  0  0  0  0  0  0  0
    0.4530    2.2653   -3.1537 C   0  0  0  0  0  0  0  0  0  0  0  0
   -0.1723    3.0007   -3.6515 H   0  0  0  0  0  0  0  0  0  0  0  0
   -0.1391    1.2358   -2.4155 C   0  0  0  0  0  0  0  0  0  0  0  0
   -1.2231    1.1792   -2.3679 H   0  0  0  0  0  0  0  0  0  0  0  0
   -1.1133    0.9739    0.4888 C   0  0  0  0  0  0  0  0  0  0  0  0
   -2.1492    1.4586    0.0407 O   0  0  0  0  0  0  0  0  0  0  0  0
   -0.3582    1.7158    1.3787 N   0  0  0  0  0  0  0  0  0  0  0  0
    0.4980    1.2954    1.7279 H   0  0  0  0  0  0  0  0  0  0  0  0
   -0.6258    3.1167    1.6781 C   0  0  0  0  0  0  0  0  0  0  0  0
   -1.6439    3.2396    2.0626 H   0  0  0  0  0  0  0  0  0  0  0  0
    0.0739    3.4816    2.4360 H   0  0  0  0  0  0  0  0  0  0  0  0
   -0.5121    3.7277    0.7766 H   0  0  0  0  0  0  0  0  0  0  0  0
  1  2  1  0  0  0  0
  2  3  1  0  0  0  0
  2  4  1  0  0  0  0
  2  5  1  0  0  0  0
  5  6  2  0  0  0  0
  5  7  1  0  0  0  0
  7  8  1  0  0  0  0
  7  9  1  0  0  0  0
  9 10  1  0  0  0  0
  9 11  1  0  0  0  0
  9 25  1  0  0  0  0
 11 12  1  0  0  0  0
 11 13  1  0  0  0  0
 11 14  1  0  0  0  0
 14 15  1  0  0  0  0
 14 23  2  0  0  0  0
 15 16  1  0  0  0  0
 15 17  2  0  0  0  0
 17 18  1  0  0  0  0
 17 19  1  0  0  0  0
 19 20  1  0  0  0  0
 19 21  2  0  0  0  0
 21 22  1  0  0  0  0
 21 23  1  0  0  0  0
 23 24  1  0  0  0  0
 25 26  2  0  0  0  0
 25 27  1  0  0  0  0
 27 28  1  0  0  0  0
 27 29  1  0  0  0  0
 29 30  1  0  0  0  0
 29 31  1  0  0  0  0
 29 32  1  0  0  0  0
M  END
$$$$

  -OEChem-04042216033D

 32 32  0     1  0  0  0  0  0999 V2000
   -3.5951   -4.0218    1.5490 H   0  0  0  0  0  0  0  0  0  0  0  0
   -3.6270   -3.0972    0.9658 C   0  0  0  0  0  0  0  0  0  0  0  0
   -4.3302   -2.4069    1.4382 H   0  0  0  0  0  0  0  0  0  0  0  0
   -3.9766   -3.3285   -0.0434 H   0  0  0  0  0  0  0  0  0  0  0  0
   -2.2471   -2.4694    0.9038 C   0  0  0  0  0  0  0  0  0  0  0  0
   -1.2926   -3.0367    1.4124 O   0  0  0  0  0  0  0  0  0  0  0  0
   -2.0768   -1.2553    0.2726 N   0  0  0  0  0  0  0  0  0  0  0  0
   -2.9176   -0.7650   -0.0305 H   0  0  0  0  0  0  0  0  0  0  0  0
   -0.8310   -0.4731    0.2892 C   0  0  1  0  0  0  0  0  0  0  0  0
   -0.2388   -0.7873    1.1551 H   0  0  0  0  0  0  0  0  0  0  0  0
    0.0277   -0.8083   -0.9616 C   0  0  0  0  0  0  0  0  0  0  0  0
    0.8057   -1.5111   -0.6462 H   0  0  0  0  0  0  0  0  0  0  0  0
   -0.6022   -1.3479   -1.6764 H   0  0  0  0  0  0  0  0  0  0  0  0
    0.6638    0.3341   -1.7370 C   0  0  0  0  0  0  0  0  0  0  0  0
    2.0083    0.2196   -2.1309 C   0  0  0  0  0  0  0  0  0  0  0  0
    2.6014   -0.6295   -1.8049 H   0  0  0  0  0  0  0  0  0  0  0  0
    2.6143    1.1953   -2.9299 C   0  0  0  0  0  0  0  0  0  0  0  0
    3.6613    1.1010   -3.2028 H   0  0  0  0  0  0  0  0  0  0  0  0
    1.8701    2.2845   -3.3875 C   0  0  0  0  0  0  0  0  0  0  0  0
    2.3362    3.0424   -4.0102 H   0  0  0  0  0  0  0  0  0  0  0  0
    0.5153    2.3800   -3.0641 C   0  0  0  0  0  0  0  0  0  0  0  0
   -0.0794    3.2054   -3.4443 H   0  0  0  0  0  0  0  0  0  0  0  0
   -0.0857    1.4010   -2.2667 C   0  0  0  0  0  0  0  0  0  0  0  0
   -1.1532    1.4744   -2.0877 H   0  0  0  0  0  0  0  0  0  0  0  0
   -1.1451    1.0133    0.5639 C   0  0  0  0  0  0  0  0  0  0  0  0
   -2.2017    1.4971    0.1666 O   0  0  0  0  0  0  0  0  0  0  0  0
   -0.3854    1.7300    1.4706 N   0  0  0  0  0  0  0  0  0  0  0  0
    0.4766    1.3039    1.7988 H   0  0  0  0  0  0  0  0  0  0  0  0
   -0.6801    3.1056    1.8520 C   0  0  0  0  0  0  0  0  0  0  0  0
   -1.6916    3.1817    2.2652 H   0  0  0  0  0  0  0  0  0  0  0  0
    0.0282    3.4468    2.6130 H   0  0  0  0  0  0  0  0  0  0  0  0
   -0.6028    3.7676    0.9832 H   0  0  0  0  0  0  0  0  0  0  0  0
  1  2  1  0  0  0  0
  2  3  1  0  0  0  0
  2  4  1  0  0  0  0
  2  5  1  0  0  0  0
  5  6  2  0  0  0  0
  5  7  1  0  0  0  0
  7  8  1  0  0  0  0
  7  9  1  0  0  0  0
  9 10  1  0  0  0  0
  9 11  1  0  0  0  0
  9 25  1  0  0  0  0
 11 12  1  0  0  0  0
 11 13  1  0  0  0  0
 11 14  1  0  0  0  0
 14 15  1  0  0  0  0
 14 23  2  0  0  0  0
 15 16  1  0  0  0  0
 15 17  2  0  0  0  0
 17 18  1  0  0  0  0
 17 19  1  0  0  0  0
 19 20  1  0  0  0  0
 19 21  2  0  0  0  0
 21 22  1  0  0  0  0
 21 23  1  0  0  0  0
 23 24  1  0  0  0  0
 25 26  2  0  0  0  0
 25 27  1  0  0  0  0
 27 28  1  0  0  0  0
 27 29  1  0  0  0  0
 29 30  1  0  0  0  0
 29 31  1  0  0  0  0
 29 32  1  0  0  0  0
M  END
$$$$

  -OEChem-04042216033D

 32 32  0     1  0  0  0  0  0999 V2000
   -3.5284   -4.0929    1.4254 H   0  0  0  0  0  0  0  0  0  0  0  0
   -3.5895   -3.1371    0.8975 C   0  0  0  0  0  0  0  0  0  0  0  0
   -4.3021   -2.4925    1.4179 H   0  0  0  0  0  0  0  0  0  0  0  0
   -3.9474   -3.3179   -0.1189 H   0  0  0  0  0  0  0  0  0  0  0  0
   -2.2253   -2.4747    0.8556 C   0  0  0  0  0  0  0  0  0  0  0  0
   -1.2562   -3.0386    1.3399 O   0  0  0  0  0  0  0  0  0  0  0  0
   -2.0842   -1.2361    0.2658 N   0  0  0  0  0  0  0  0  0  0  0  0
   -2.9361   -0.7559   -0.0221 H   0  0  0  0  0  0  0  0  0  0  0  0
   -0.8567   -0.4259    0.3085 C   0  0  1  0  0  0  0  0  0  0  0  0
   -0.2709   -0.7497    1.1754 H   0  0  0  0  0  0  0  0  0  0  0  0
    0.0308   -0.7356   -0.9315 C   0  0  0  0  0  0  0  0  0  0  0  0
    0.8119   -1.4237   -0.5921 H   0  0  0  0  0  0  0  0  0  0  0  0
   -0.5804   -1.2946   -1.6476 H   0  0  0  0  0  0  0  0  0  0  0  0
    0.6861    0.3794   -1.7386 C   0  0  0  0  0  0  0  0  0  0  0  0
    1.9108    0.0827   -2.3644 C   0  0  0  0  0  0  0  0  0  0  0  0
    2.3923   -0.8747   -2.1878 H   0  0  0  0  0  0  0  0  0  0  0  0
    2.5467    1.0043   -3.2023 C   0  0  0  0  0  0  0  0  0  0  0  0
    3.5061    0.7603   -3.6490 H   0  0  0  0  0  0  0  0  0  0  0  0
    1.9424    2.2320   -3.4733 C   0  0  0  0  0  0  0  0  0  0  0  0
    2.4312    2.9500   -4.1252 H   0  0  0  0  0  0  0  0  0  0  0  0
    0.6894    2.5169   -2.9297 C   0  0  0  0  0  0  0  0  0  0  0  0
    0.1919    3.4512   -3.1726 H   0  0  0  0  0  0  0  0  0  0  0  0
    0.0569    1.5895   -2.0948 C   0  0  0  0  0  0  0  0  0  0  0  0
   -0.9481    1.8303   -1.7733 H   0  0  0  0  0  0  0  0  0  0  0  0
   -1.2012    1.0421    0.6326 C   0  0  0  0  0  0  0  0  0  0  0  0
   -2.2718    1.5130    0.2585 O   0  0  0  0  0  0  0  0  0  0  0  0
   -0.4566    1.7461    1.5616 N   0  0  0  0  0  0  0  0  0  0  0  0
    0.4165    1.3309    1.8744 H   0  0  0  0  0  0  0  0  0  0  0  0
   -0.7893    3.0969    1.9969 C   0  0  0  0  0  0  0  0  0  0  0  0
   -1.7807    3.1169    2.4615 H   0  0  0  0  0  0  0  0  0  0  0  0
   -0.0580    3.4488    2.7307 H   0  0  0  0  0  0  0  0  0  0  0  0
   -0.7845    3.7852    1.1453 H   0  0  0  0  0  0  0  0  0  0  0  0
  1  2  1  0  0  0  0
  2  3  1  0  0  0  0
  2  4  1  0  0  0  0
  2  5  1  0  0  0  0
  5  6  2  0  0  0  0
  5  7  1  0  0  0  0
  7  8  1  0  0  0  0
  7  9  1  0  0  0  0
  9 10  1  0  0  0  0
  9 11  1  0  0  0  0
  9 25  1  0  0  0  0
 11 12  1  0  0  0  0
 11 13  1  0  0  0  0
 11 14  1  0  0  0  0
 14 15  1  0  0  0  0
 14 23  2  0  0  0  0
 15 16  1  0  0  0  0
 15 17  2  0  0  0  0
 17 18  1  0  0  0  0
 17 19  1  0  0  0  0
 19 20  1  0  0  0  0
 19 21  2  0  0  0  0
 21 22  1  0  0  0  0
 21 23  1  0  0  0  0
 23 24  1  0  0  0  0
 25 26  2  0  0  0  0
 25 27  1  0  0  0  0
 27 28  1  0  0  0  0
 27 29  1  0  0  0  0
 29 30  1  0  0  0  0
 29 31  1  0  0  0  0
 29 32  1  0  0  0  0
M  END
$$$$

  -OEChem-04042216033D

 32 32  0     1  0  0  0  0  0999 V2000
   -3.4705   -4.1387    1.3515 H   0  0  0  0  0  0  0  0  0  0  0  0
   -3.5455   -3.1576    0.8744 C   0  0  0  0  0  0  0  0  0  0  0  0
   -4.2551   -2.5455    1.4362 H   0  0  0  0  0  0  0  0  0  0  0  0
   -3.9155   -3.2888   -0.1453 H   0  0  0  0  0  0  0  0  0  0  0  0
   -2.1870   -2.4828    0.8477 C   0  0  0  0  0  0  0  0  0  0  0  0
   -1.2086   -3.0563    1.3006 O   0  0  0  0  0  0  0  0  0  0  0  0
   -2.0610   -1.2214    0.3049 N   0  0  0  0  0  0  0  0  0  0  0  0
   -2.9179   -0.7390    0.0353 H   0  0  0  0  0  0  0  0  0  0  0  0
   -0.8329   -0.4108    0.3417 C   0  0  1  0  0  0  0  0  0  0  0  0
   -0.2078   -0.7646    1.1682 H   0  0  0  0  0  0  0  0  0  0  0  0
   -0.0103   -0.6673   -0.9573 C   0  0  0  0  0  0  0  0  0  0  0  0
    0.7766   -1.3755   -0.6772 H   0  0  0  0  0  0  0  0  0  0  0  0
   -0.6667   -1.1995   -1.6540 H   0  0  0  0  0  0  0  0  0  0  0  0
    0.6433    0.4296   -1.8007 C   0  0  0  0  0  0  0  0  0  0  0  0
    1.6053   -0.0180   -2.7262 C   0  0  0  0  0  0  0  0  0  0  0  0
    1.8711   -1.0706   -2.7608 H   0  0  0  0  0  0  0  0  0  0  0  0
    2.2496    0.8587   -3.6044 C   0  0  0  0  0  0  0  0  0  0  0  0
    3.0015    0.4838   -4.2926 H   0  0  0  0  0  0  0  0  0  0  0  0
    1.9204    2.2131   -3.6010 C   0  0  0  0  0  0  0  0  0  0  0  0
    2.4150    2.8986   -4.2828 H   0  0  0  0  0  0  0  0  0  0  0  0
    0.9329    2.6770   -2.7324 C   0  0  0  0  0  0  0  0  0  0  0  0
    0.6472    3.7247   -2.7485 H   0  0  0  0  0  0  0  0  0  0  0  0
    0.2897    1.7961   -1.8554 C   0  0  0  0  0  0  0  0  0  0  0  0
   -0.5021    2.2319   -1.2652 H   0  0  0  0  0  0  0  0  0  0  0  0
   -1.1980    1.0312    0.7360 C   0  0  0  0  0  0  0  0  0  0  0  0
   -2.2583    1.5209    0.3576 O   0  0  0  0  0  0  0  0  0  0  0  0
   -0.4447    1.7125    1.6747 N   0  0  0  0  0  0  0  0  0  0  0  0
    0.4099    1.2712    2.0029 H   0  0  0  0  0  0  0  0  0  0  0  0
   -0.7880    3.0396    2.1699 C   0  0  0  0  0  0  0  0  0  0  0  0
   -1.7568    3.0193    2.6800 H   0  0  0  0  0  0  0  0  0  0  0  0
   -0.0310    3.3854    2.8801 H   0  0  0  0  0  0  0  0  0  0  0  0
   -0.8389    3.7557    1.3430 H   0  0  0  0  0  0  0  0  0  0  0  0
  1  2  1  0  0  0  0
  2  3  1  0  0  0  0
  2  4  1  0  0  0  0
  2  5  1  0  0  0  0
  5  6  2  0  0  0  0
  5  7  1  0  0  0  0
  7  8  1  0  0  0  0
  7  9  1  0  0  0  0
  9 10  1  0  0  0  0
  9 11  1  0  0  0  0
  9 25  1  0  0  0  0
 11 12  1  0  0  0  0
 11 13  1  0  0  0  0
 11 14  1  0  0  0  0
 14 15  1  0  0  0  0
 14 23  2  0  0  0  0
 15 16  1  0  0  0  0
 15 17  2  0  0  0  0
 17 18  1  0  0  0  0
 17 19  1  0  0  0  0
 19 20  1  0  0  0  0
 19 21  2  0  0  0  0
 21 22  1  0  0  0  0
 21 23  1  0  0  0  0
 23 24  1  0  0  0  0
 25 26  2  0  0  0  0
 25 27  1  0  0  0  0
 27 28  1  0  0  0  0
 27 29  1  0  0  0  0
 29 30  1  0  0  0  0
 29 31  1  0  0  0  0
 29 32  1  0  0  0  0
M  END
$$$$

  -OEChem-04042216033D

 32 32  0     1  0  0  0  0  0999 V2000
   -3.4875   -4.0799    1.3799 H   0  0  0  0  0  0  0  0  0  0  0  0
   -3.5051   -3.1432    0.8158 C   0  0  0  0  0  0  0  0  0  0  0  0
   -4.2881   -2.5002    1.2253 H   0  0  0  0  0  0  0  0  0  0  0  0
   -3.7349   -3.3652   -0.2291 H   0  0  0  0  0  0  0  0  0  0  0  0
   -2.1598   -2.4486    0.9125 C   0  0  0  0  0  0  0  0  0  0  0  0
   -1.2482   -2.9622    1.5417 O   0  0  0  0  0  0  0  0  0  0  0  0
   -1.9704   -1.2318    0.2928 N   0  0  0  0  0  0  0  0  0  0  0  0
   -2.7820   -0.7870   -0.1358 H   0  0  0  0  0  0  0  0  0  0  0  0
   -0.7538   -0.4118    0.4173 C   0  0  1  0  0  0  0  0  0  0  0  0
   -0.1505   -0.7007    1.2841 H   0  0  0  0  0  0  0  0  0  0  0  0
    0.0577   -0.6893   -0.8827 C   0  0  0  0  0  0  0  0  0  0  0  0
    0.6347   -1.6012   -0.6960 H   0  0  0  0  0  0  0  0  0  0  0  0
   -0.6693   -0.9305   -1.6663 H   0  0  0  0  0  0  0  0  0  0  0  0
    0.9990    0.3165   -1.5403 C   0  0  0  0  0  0  0  0  0  0  0  0
    1.6360   -0.1299   -2.7127 C   0  0  0  0  0  0  0  0  0  0  0  0
    1.4097   -1.1173   -3.1049 H   0  0  0  0  0  0  0  0  0  0  0  0
    2.5533    0.6695   -3.4013 C   0  0  0  0  0  0  0  0  0  0  0  0
    3.0187    0.3020   -4.3110 H   0  0  0  0  0  0  0  0  0  0  0  0
    2.8711    1.9380   -2.9170 C   0  0  0  0  0  0  0  0  0  0  0  0
    3.5827    2.5636   -3.4478 H   0  0  0  0  0  0  0  0  0  0  0  0
    2.2758    2.3936   -1.7405 C   0  0  0  0  0  0  0  0  0  0  0  0
    2.5297    3.3755   -1.3524 H   0  0  0  0  0  0  0  0  0  0  0  0
    1.3586    1.5892   -1.0545 C   0  0  0  0  0  0  0  0  0  0  0  0
    0.9643    1.9990   -0.1409 H   0  0  0  0  0  0  0  0  0  0  0  0
   -1.2566    1.0294    0.6507 C   0  0  0  0  0  0  0  0  0  0  0  0
   -2.2077    1.4646    0.0093 O   0  0  0  0  0  0  0  0  0  0  0  0
   -0.6877    1.8259    1.6301 N   0  0  0  0  0  0  0  0  0  0  0  0
    0.0439    1.4151    2.2038 H   0  0  0  0  0  0  0  0  0  0  0  0
   -1.1616    3.1681    1.9452 C   0  0  0  0  0  0  0  0  0  0  0  0
   -2.2031    3.1378    2.2824 H   0  0  0  0  0  0  0  0  0  0  0  0
   -0.5528    3.6073    2.7414 H   0  0  0  0  0  0  0  0  0  0  0  0
   -1.0951    3.8142    1.0634 H   0  0  0  0  0  0  0  0  0  0  0  0
  1  2  1  0  0  0  0
  2  3  1  0  0  0  0
  2  4  1  0  0  0  0
  2  5  1  0  0  0  0
  5  6  2  0  0  0  0
  5  7  1  0  0  0  0
  7  8  1  0  0  0  0
  7  9  1  0  0  0  0
  9 10  1  0  0  0  0
  9 11  1  0  0  0  0
  9 25  1  0  0  0  0
 11 12  1  0  0  0  0
 11 13  1  0  0  0  0
 11 14  1  0  0  0  0
 14 15  1  0  0  0  0
 14 23  2  0  0  0  0
 15 16  1  0  0  0  0
 15 17  2  0  0  0  0
 17 18  1  0  0  0  0
 17 19  1  0  0  0  0
 19 20  1  0  0  0  0
 19 21  2  0  0  0  0
 21 22  1  0  0  0  0
 21 23  1  0  0  0  0
 23 24  1  0  0  0  0
 25 26  2  0  0  0  0
 25 27  1  0  0  0  0
 27 28  1  0  0  0  0
 27 29  1  0  0  0  0
 29 30  1  0  0  0  0
 29 31  1  0  0  0  0
 29 32  1  0  0  0  0
M  END
$$$$

  -OEChem-04042216033D

 32 32  0     1  0  0  0  0  0999 V2000
   -3.5837   -4.0105    1.4843 H   0  0  0  0  0  0  0  0  0  0  0  0
   -3.5784   -3.0915    0.8917 C   0  0  0  0  0  0  0  0  0  0  0  0
   -4.3255   -2.4055    1.2985 H   0  0  0  0  0  0  0  0  0  0  0  0
   -3.8413   -3.3359   -0.1403 H   0  0  0  0  0  0  0  0  0  0  0  0
   -2.2056   -2.4479    0.9372 C   0  0  0  0  0  0  0  0  0  0  0  0
   -1.3001   -2.9779    1.5617 O   0  0  0  0  0  0  0  0  0  0  0  0
   -1.9867   -1.2544    0.2835 N   0  0  0  0  0  0  0  0  0  0  0  0
   -2.7938   -0.7852   -0.1277 H   0  0  0  0  0  0  0  0  0  0  0  0
   -0.7434   -0.4718    0.3752 C   0  0  1  0  0  0  0  0  0  0  0  0
   -0.1248   -0.7648    1.2295 H   0  0  0  0  0  0  0  0  0  0  0  0
    0.0192   -0.7438   -0.9516 C   0  0  0  0  0  0  0  0  0  0  0  0
    0.5958   -1.6641   -0.8143 H   0  0  0  0  0  0  0  0  0  0  0  0
   -0.7293   -0.9504   -1.7247 H   0  0  0  0  0  0  0  0  0  0  0  0
    0.9466    0.3052   -1.5469 C   0  0  0  0  0  0  0  0  0  0  0  0
    1.3368    0.1349   -2.8867 C   0  0  0  0  0  0  0  0  0  0  0  0
    0.9015   -0.6656   -3.4777 H   0  0  0  0  0  0  0  0  0  0  0  0
    2.2622    0.9920   -3.4913 C   0  0  0  0  0  0  0  0  0  0  0  0
    2.5244    0.8584   -4.5367 H   0  0  0  0  0  0  0  0  0  0  0  0
    2.8540    2.0141   -2.7482 C   0  0  0  0  0  0  0  0  0  0  0  0
    3.5722    2.6823   -3.2144 H   0  0  0  0  0  0  0  0  0  0  0  0
    2.5385    2.1546   -1.3960 C   0  0  0  0  0  0  0  0  0  0  0  0
    3.0254    2.9244   -0.8047 H   0  0  0  0  0  0  0  0  0  0  0  0
    1.6147    1.2911   -0.7968 C   0  0  0  0  0  0  0  0  0  0  0  0
    1.4632    1.3887    0.2679 H   0  0  0  0  0  0  0  0  0  0  0  0
   -1.2078    0.9915    0.5767 C   0  0  0  0  0  0  0  0  0  0  0  0
   -2.1578    1.4273   -0.0671 O   0  0  0  0  0  0  0  0  0  0  0  0
   -0.6179    1.8081    1.5263 N   0  0  0  0  0  0  0  0  0  0  0  0
    0.0967    1.3979    2.1205 H   0  0  0  0  0  0  0  0  0  0  0  0
   -1.0524    3.1751    1.7873 C   0  0  0  0  0  0  0  0  0  0  0  0
   -2.1037    3.1922    2.0934 H   0  0  0  0  0  0  0  0  0  0  0  0
   -0.4520    3.6165    2.5883 H   0  0  0  0  0  0  0  0  0  0  0  0
   -0.9364    3.7907    0.8891 H   0  0  0  0  0  0  0  0  0  0  0  0
  1  2  1  0  0  0  0
  2  3  1  0  0  0  0
  2  4  1  0  0  0  0
  2  5  1  0  0  0  0
  5  6  2  0  0  0  0
  5  7  1  0  0  0  0
  7  8  1  0  0  0  0
  7  9  1  0  0  0  0
  9 10  1  0  0  0  0
  9 11  1  0  0  0  0
  9 25  1  0  0  0  0
 11 12  1  0  0  0  0
 11 13  1  0  0  0  0
 11 14  1  0  0  0  0
 14 15  1  0  0  0  0
 14 23  2  0  0  0  0
 15 16  1  0  0  0  0
 15 17  2  0  0  0  0
 17 18  1  0  0  0  0
 17 19  1  0  0  0  0
 19 20  1  0  0  0  0
 19 21  2  0  0  0  0
 21 22  1  0  0  0  0
 21 23  1  0  0  0  0
 23 24  1  0  0  0  0
 25 26  2  0  0  0  0
 25 27  1  0  0  0  0
 27 28  1  0  0  0  0
 27 29  1  0  0  0  0
 29 30  1  0  0  0  0
 29 31  1  0  0  0  0
 29 32  1  0  0  0  0
M  END
$$$$

  -OEChem-04042216033D

 32 32  0     1  0  0  0  0  0999 V2000
   -3.6257   -3.9860    1.5720 H   0  0  0  0  0  0  0  0  0  0  0  0
   -3.6163   -3.0804    0.9590 C   0  0  0  0  0  0  0  0  0  0  0  0
   -4.3464   -2.3744    1.3622 H   0  0  0  0  0  0  0  0  0  0  0  0
   -3.8997   -3.3435   -0.0630 H   0  0  0  0  0  0  0  0  0  0  0  0
   -2.2335   -2.4566    0.9680 C   0  0  0  0  0  0  0  0  0  0  0  0
   -1.3273   -2.9848    1.5933 O   0  0  0  0  0  0  0  0  0  0  0  0
   -2.0050   -1.2854    0.2775 N   0  0  0  0  0  0  0  0  0  0  0  0
   -2.8107   -0.8146   -0.1346 H   0  0  0  0  0  0  0  0  0  0  0  0
   -0.7524   -0.5161    0.3389 C   0  0  1  0  0  0  0  0  0  0  0  0
   -0.1383   -0.7983    1.1999 H   0  0  0  0  0  0  0  0  0  0  0  0
    0.0189   -0.8102   -0.9733 C   0  0  0  0  0  0  0  0  0  0  0  0
    0.6067   -1.7219   -0.8265 H   0  0  0  0  0  0  0  0  0  0  0  0
   -0.7181   -1.0275   -1.7542 H   0  0  0  0  0  0  0  0  0  0  0  0
    0.9339    0.2727   -1.5177 C   0  0  0  0  0  0  0  0  0  0  0  0
    1.1316    0.3618   -2.9057 C   0  0  0  0  0  0  0  0  0  0  0  0
    0.5650   -0.2767   -3.5767 H   0  0  0  0  0  0  0  0  0  0  0  0
    2.0374    1.2792   -3.4488 C   0  0  0  0  0  0  0  0  0  0  0  0
    2.1561    1.3518   -4.5258 H   0  0  0  0  0  0  0  0  0  0  0  0
    2.7934    2.0965   -2.6060 C   0  0  0  0  0  0  0  0  0  0  0  0
    3.4960    2.8102   -3.0260 H   0  0  0  0  0  0  0  0  0  0  0  0
    2.6590    1.9752   -1.2214 C   0  0  0  0  0  0  0  0  0  0  0  0
    3.2697    2.5862   -0.5634 H   0  0  0  0  0  0  0  0  0  0  0  0
    1.7531    1.0547   -0.6834 C   0  0  0  0  0  0  0  0  0  0  0  0
    1.7126    0.9428    0.3933 H   0  0  0  0  0  0  0  0  0  0  0  0
   -1.1700    0.9658    0.4999 C   0  0  0  0  0  0  0  0  0  0  0  0
   -2.1263    1.4037   -0.1332 O   0  0  0  0  0  0  0  0  0  0  0  0
   -0.5449    1.7900    1.4194 N   0  0  0  0  0  0  0  0  0  0  0  0
    0.1930    1.3879    1.9893 H   0  0  0  0  0  0  0  0  0  0  0  0
   -0.9227    3.1815    1.6331 C   0  0  0  0  0  0  0  0  0  0  0  0
   -1.9711    3.2513    1.9419 H   0  0  0  0  0  0  0  0  0  0  0  0
   -0.3017    3.6265    2.4165 H   0  0  0  0  0  0  0  0  0  0  0  0
   -0.7865    3.7596    0.7129 H   0  0  0  0  0  0  0  0  0  0  0  0
  1  2  1  0  0  0  0
  2  3  1  0  0  0  0
  2  4  1  0  0  0  0
  2  5  1  0  0  0  0
  5  6  2  0  0  0  0
  5  7  1  0  0  0  0
  7  8  1  0  0  0  0
  7  9  1  0  0  0  0
  9 10  1  0  0  0  0
  9 11  1  0  0  0  0
  9 25  1  0  0  0  0
 11 12  1  0  0  0  0
 11 13  1  0  0  0  0
 11 14  1  0  0  0  0
 14 15  1  0  0  0  0
 14 23  2  0  0  0  0
 15 16  1  0  0  0  0
 15 17  2  0  0  0  0
 17 18  1  0  0  0  0
 17 19  1  0  0  0  0
 19 20  1  0  0  0  0
 19 21  2  0  0  0  0
 21 22  1  0  0  0  0
 21 23  1  0  0  0  0
 23 24  1  0  0  0  0
 25 26  2  0  0  0  0
 25 27  1  0  0  0  0
 27 28  1  0  0  0  0
 27 29  1  0  0  0  0
 29 30  1  0  0  0  0
 29 31  1  0  0  0  0
 29 32  1  0  0  0  0
M  END
$$$$

  -OEChem-04042216033D

 32 32  0     1  0  0  0  0  0999 V2000
   -3.6583   -3.9687    1.6402 H   0  0  0  0  0  0  0  0  0  0  0  0
   -3.6415   -3.0791    1.0044 C   0  0  0  0  0  0  0  0  0  0  0  0
   -4.3613   -2.3545    1.3930 H   0  0  0  0  0  0  0  0  0  0  0  0
   -3.9330   -3.3642   -0.0093 H   0  0  0  0  0  0  0  0  0  0  0  0
   -2.2514   -2.4716    0.9907 C   0  0  0  0  0  0  0  0  0  0  0  0
   -1.3453   -3.0004    1.6157 O   0  0  0  0  0  0  0  0  0  0  0  0
   -2.0166   -1.3154    0.2776 N   0  0  0  0  0  0  0  0  0  0  0  0
   -2.8220   -0.8429   -0.1324 H   0  0  0  0  0  0  0  0  0  0  0  0
   -0.7565   -0.5577    0.3132 C   0  0  1  0  0  0  0  0  0  0  0  0
   -0.1442   -0.8331    1.1776 H   0  0  0  0  0  0  0  0  0  0  0  0
    0.0194   -0.8665   -0.9893 C   0  0  0  0  0  0  0  0  0  0  0  0
    0.6176   -1.7702   -0.8351 H   0  0  0  0  0  0  0  0  0  0  0  0
   -0.7064   -1.0938   -1.7773 H   0  0  0  0  0  0  0  0  0  0  0  0
    0.9207    0.2435   -1.4931 C   0  0  0  0  0  0  0  0  0  0  0  0
    0.9202    0.5902   -2.8534 C   0  0  0  0  0  0  0  0  0  0  0  0
    0.2237    0.1145   -3.5373 H   0  0  0  0  0  0  0  0  0  0  0  0
    1.7983    1.5628   -3.3438 C   0  0  0  0  0  0  0  0  0  0  0  0
    1.7708    1.8371   -4.3943 H   0  0  0  0  0  0  0  0  0  0  0  0
    2.7122    2.1779   -2.4842 C   0  0  0  0  0  0  0  0  0  0  0  0
    3.3941    2.9325   -2.8652 H   0  0  0  0  0  0  0  0  0  0  0  0
    2.7567    1.8078   -1.1376 C   0  0  0  0  0  0  0  0  0  0  0  0
    3.4821    2.2676   -0.4731 H   0  0  0  0  0  0  0  0  0  0  0  0
    1.8769    0.8358   -0.6503 C   0  0  0  0  0  0  0  0  0  0  0  0
    1.9505    0.5349    0.3893 H   0  0  0  0  0  0  0  0  0  0  0  0
   -1.1352    0.9362    0.4510 C   0  0  0  0  0  0  0  0  0  0  0  0
   -2.0973    1.3813   -0.1681 O   0  0  0  0  0  0  0  0  0  0  0  0
   -0.4761    1.7578    1.3482 N   0  0  0  0  0  0  0  0  0  0  0  0
    0.3105    1.3649    1.8551 H   0  0  0  0  0  0  0  0  0  0  0  0
   -0.7754    3.1758    1.5020 C   0  0  0  0  0  0  0  0  0  0  0  0
   -1.8281    3.3200    1.7675 H   0  0  0  0  0  0  0  0  0  0  0  0
   -0.1582    3.6083    2.2952 H   0  0  0  0  0  0  0  0  0  0  0  0
   -0.5693    3.7123    0.5697 H   0  0  0  0  0  0  0  0  0  0  0  0
  1  2  1  0  0  0  0
  2  3  1  0  0  0  0
  2  4  1  0  0  0  0
  2  5  1  0  0  0  0
  5  6  2  0  0  0  0
  5  7  1  0  0  0  0
  7  8  1  0  0  0  0
  7  9  1  0  0  0  0
  9 10  1  0  0  0  0
  9 11  1  0  0  0  0
  9 25  1  0  0  0  0
 11 12  1  0  0  0  0
 11 13  1  0  0  0  0
 11 14  1  0  0  0  0
 14 15  1  0  0  0  0
 14 23  2  0  0  0  0
 15 16  1  0  0  0  0
 15 17  2  0  0  0  0
 17 18  1  0  0  0  0
 17 19  1  0  0  0  0
 19 20  1  0  0  0  0
 19 21  2  0  0  0  0
 21 22  1  0  0  0  0
 21 23  1  0  0  0  0
 23 24  1  0  0  0  0
 25 26  2  0  0  0  0
 25 27  1  0  0  0  0
 27 28  1  0  0  0  0
 27 29  1  0  0  0  0
 29 30  1  0  0  0  0
 29 31  1  0  0  0  0
 29 32  1  0  0  0  0
M  END
$$$$

  -OEChem-04042216033D

 32 32  0     1  0  0  0  0  0999 V2000
   -3.6809   -3.9531    1.6756 H   0  0  0  0  0  0  0  0  0  0  0  0
   -3.6597   -3.0712    1.0292 C   0  0  0  0  0  0  0  0  0  0  0  0
   -4.3679   -2.3344    1.4157 H   0  0  0  0  0  0  0  0  0  0  0  0
   -3.9640   -3.3655    0.0219 H   0  0  0  0  0  0  0  0  0  0  0  0
   -2.2633   -2.4790    0.9962 C   0  0  0  0  0  0  0  0  0  0  0  0
   -1.3565   -3.0135    1.6153 O   0  0  0  0  0  0  0  0  0  0  0  0
   -2.0235   -1.3318    0.2705 N   0  0  0  0  0  0  0  0  0  0  0  0
   -2.8292   -0.8525   -0.1307 H   0  0  0  0  0  0  0  0  0  0  0  0
   -0.7563   -0.5858    0.2894 C   0  0  1  0  0  0  0  0  0  0  0  0
   -0.1471   -0.8600    1.1567 H   0  0  0  0  0  0  0  0  0  0  0  0
    0.0262   -0.9099   -1.0027 C   0  0  0  0  0  0  0  0  0  0  0  0
    0.6268   -1.8102   -0.8384 H   0  0  0  0  0  0  0  0  0  0  0  0
   -0.6884   -1.1435   -1.7989 H   0  0  0  0  0  0  0  0  0  0  0  0
    0.9212    0.2141   -1.4795 C   0  0  0  0  0  0  0  0  0  0  0  0
    0.7334    0.7939   -2.7432 C   0  0  0  0  0  0  0  0  0  0  0  0
   -0.0876    0.4702   -3.3760 H   0  0  0  0  0  0  0  0  0  0  0  0
    1.5847    1.8085   -3.1938 C   0  0  0  0  0  0  0  0  0  0  0  0
    1.4194    2.2610   -4.1672 H   0  0  0  0  0  0  0  0  0  0  0  0
    2.6464    2.2391   -2.3928 C   0  0  0  0  0  0  0  0  0  0  0  0
    3.3073    3.0259   -2.7445 H   0  0  0  0  0  0  0  0  0  0  0  0
    2.8601    1.6489   -1.1439 C   0  0  0  0  0  0  0  0  0  0  0  0
    3.6932    1.9730   -0.5272 H   0  0  0  0  0  0  0  0  0  0  0  0
    2.0066    0.6356   -0.6942 C   0  0  0  0  0  0  0  0  0  0  0  0
    2.1949    0.1701    0.2681 H   0  0  0  0  0  0  0  0  0  0  0  0
   -1.1032    0.9161    0.4157 C   0  0  0  0  0  0  0  0  0  0  0  0
   -2.0689    1.3717   -0.1905 O   0  0  0  0  0  0  0  0  0  0  0  0
   -0.4163    1.7285    1.2997 N   0  0  0  0  0  0  0  0  0  0  0  0
    0.4039    1.3363    1.7516 H   0  0  0  0  0  0  0  0  0  0  0  0
   -0.6672    3.1588    1.4209 C   0  0  0  0  0  0  0  0  0  0  0  0
   -1.7142    3.3449    1.6823 H   0  0  0  0  0  0  0  0  0  0  0  0
   -0.0359    3.5883    2.2045 H   0  0  0  0  0  0  0  0  0  0  0  0
   -0.4436    3.6661    0.4765 H   0  0  0  0  0  0  0  0  0  0  0  0
  1  2  1  0  0  0  0
  2  3  1  0  0  0  0
  2  4  1  0  0  0  0
  2  5  1  0  0  0  0
  5  6  2  0  0  0  0
  5  7  1  0  0  0  0
  7  8  1  0  0  0  0
  7  9  1  0  0  0  0
  9 10  1  0  0  0  0
  9 11  1  0  0  0  0
  9 25  1  0  0  0  0
 11 12  1  0  0  0  0
 11 13  1  0  0  0  0
 11 14  1  0  0  0  0
 14 15  1  0  0  0  0
 14 23  2  0  0  0  0
 15 16  1  0  0  0  0
 15 17  2  0  0  0  0
 17 18  1  0  0  0  0
 17 19  1  0  0  0  0
 19 20  1  0  0  0  0
 19 21  2  0  0  0  0
 21 22  1  0  0  0  0
 21 23  1  0  0  0  0
 23 24  1  0  0  0  0
 25 26  2  0  0  0  0
 25 27  1  0  0  0  0
 27 28  1  0  0  0  0
 27 29  1  0  0  0  0
 29 30  1  0  0  0  0
 29 31  1  0  0  0  0
 29 32  1  0  0  0  0
M  END
$$$$

  -OEChem-04042216033D

 32 32  0     1  0  0  0  0  0999 V2000
   -3.6934   -3.9417    1.6848 H   0  0  0  0  0  0  0  0  0  0  0  0
   -3.6700   -3.0626    1.0348 C   0  0  0  0  0  0  0  0  0  0  0  0
   -4.3721   -2.3199    1.4216 H   0  0  0  0  0  0  0  0  0  0  0  0
   -3.9806   -3.3588    0.0300 H   0  0  0  0  0  0  0  0  0  0  0  0
   -2.2695   -2.4801    0.9928 C   0  0  0  0  0  0  0  0  0  0  0  0
   -1.3619   -3.0226    1.6038 O   0  0  0  0  0  0  0  0  0  0  0  0
   -2.0258   -1.3364    0.2626 N   0  0  0  0  0  0  0  0  0  0  0  0
   -2.8308   -0.8516   -0.1332 H   0  0  0  0  0  0  0  0  0  0  0  0
   -0.7538   -0.5991    0.2722 C   0  0  1  0  0  0  0  0  0  0  0  0
   -0.1479   -0.8743    1.1413 H   0  0  0  0  0  0  0  0  0  0  0  0
    0.0330   -0.9388   -1.0122 C   0  0  0  0  0  0  0  0  0  0  0  0
    0.6306   -1.8395   -0.8389 H   0  0  0  0  0  0  0  0  0  0  0  0
   -0.6740   -1.1747   -1.8143 H   0  0  0  0  0  0  0  0  0  0  0  0
    0.9266    0.1875   -1.4795 C   0  0  0  0  0  0  0  0  0  0  0  0
    0.5746    0.9737   -2.5867 C   0  0  0  0  0  0  0  0  0  0  0  0
   -0.3580    0.7893   -3.1123 H   0  0  0  0  0  0  0  0  0  0  0  0
    1.4061    2.0161   -3.0090 C   0  0  0  0  0  0  0  0  0  0  0  0
    1.1182    2.6265   -3.8600 H   0  0  0  0  0  0  0  0  0  0  0  0
    2.6029    2.2743   -2.3338 C   0  0  0  0  0  0  0  0  0  0  0  0
    3.2476    3.0841   -2.6623 H   0  0  0  0  0  0  0  0  0  0  0  0
    2.9693    1.4862   -1.2386 C   0  0  0  0  0  0  0  0  0  0  0  0
    3.9028    1.6807   -0.7189 H   0  0  0  0  0  0  0  0  0  0  0  0
    2.1355    0.4455   -0.8157 C   0  0  0  0  0  0  0  0  0  0  0  0
    2.4325   -0.1668    0.0305 H   0  0  0  0  0  0  0  0  0  0  0  0
   -1.0783    0.9076    0.3960 C   0  0  0  0  0  0  0  0  0  0  0  0
   -2.0442    1.3741   -0.2017 O   0  0  0  0  0  0  0  0  0  0  0  0
   -0.3728    1.7110    1.2732 N   0  0  0  0  0  0  0  0  0  0  0  0
    0.4586    1.3129    1.6991 H   0  0  0  0  0  0  0  0  0  0  0  0
   -0.5975    3.1463    1.3868 C   0  0  0  0  0  0  0  0  0  0  0  0
   -1.6402    3.3526    1.6505 H   0  0  0  0  0  0  0  0  0  0  0  0
    0.0439    3.5688    2.1661 H   0  0  0  0  0  0  0  0  0  0  0  0
   -0.3678    3.6439    0.4387 H   0  0  0  0  0  0  0  0  0  0  0  0
  1  2  1  0  0  0  0
  2  3  1  0  0  0  0
  2  4  1  0  0  0  0
  2  5  1  0  0  0  0
  5  6  2  0  0  0  0
  5  7  1  0  0  0  0
  7  8  1  0  0  0  0
  7  9  1  0  0  0  0
  9 10  1  0  0  0  0
  9 11  1  0  0  0  0
  9 25  1  0  0  0  0
 11 12  1  0  0  0  0
 11 13  1  0  0  0  0
 11 14  1  0  0  0  0
 14 15  1  0  0  0  0
 14 23  2  0  0  0  0
 15 16  1  0  0  0  0
 15 17  2  0  0  0  0
 17 18  1  0  0  0  0
 17 19  1  0  0  0  0
 19 20  1  0  0  0  0
 19 21  2  0  0  0  0
 21 22  1  0  0  0  0
 21 23  1  0  0  0  0
 23 24  1  0  0  0  0
 25 26  2  0  0  0  0
 25 27  1  0  0  0  0
 27 28  1  0  0  0  0
 27 29  1  0  0  0  0
 29 30  1  0  0  0  0
 29 31  1  0  0  0  0
 29 32  1  0  0  0  0
M  END
$$$$

  -OEChem-04042216033D

 32 32  0     1  0  0  0  0  0999 V2000
   -3.6943   -3.9429    1.6755 H   0  0  0  0  0  0  0  0  0  0  0  0
   -3.6731   -3.0606    1.0296 C   0  0  0  0  0  0  0  0  0  0  0  0
   -4.3699   -2.3175    1.4251 H   0  0  0  0  0  0  0  0  0  0  0  0
   -3.9920   -3.3509    0.0256 H   0  0  0  0  0  0  0  0  0  0  0  0
   -2.2716   -2.4815    0.9803 C   0  0  0  0  0  0  0  0  0  0  0  0
   -1.3614   -3.0294    1.5824 O   0  0  0  0  0  0  0  0  0  0  0  0
   -2.0312   -1.3328    0.2569 N   0  0  0  0  0  0  0  0  0  0  0  0
   -2.8380   -0.8453   -0.1314 H   0  0  0  0  0  0  0  0  0  0  0  0
   -0.7595   -0.5952    0.2665 C   0  0  1  0  0  0  0  0  0  0  0  0
   -0.1573   -0.8738    1.1372 H   0  0  0  0  0  0  0  0  0  0  0  0
    0.0366   -0.9421   -1.0107 C   0  0  0  0  0  0  0  0  0  0  0  0
    0.6262   -1.8466   -0.8295 H   0  0  0  0  0  0  0  0  0  0  0  0
   -0.6656   -1.1766   -1.8177 H   0  0  0  0  0  0  0  0  0  0  0  0
    0.9349    0.1770   -1.4881 C   0  0  0  0  0  0  0  0  0  0  0  0
    0.4662    1.1425   -2.3926 C   0  0  0  0  0  0  0  0  0  0  0  0
   -0.5554    1.0928   -2.7598 H   0  0  0  0  0  0  0  0  0  0  0  0
    1.2978    2.1864   -2.8106 C   0  0  0  0  0  0  0  0  0  0  0  0
    0.9214    2.9318   -3.5050 H   0  0  0  0  0  0  0  0  0  0  0  0
    2.6082    2.2720   -2.3309 C   0  0  0  0  0  0  0  0  0  0  0  0
    3.2538    3.0823   -2.6565 H   0  0  0  0  0  0  0  0  0  0  0  0
    3.0853    1.3126   -1.4326 C   0  0  0  0  0  0  0  0  0  0  0  0
    4.1039    1.3761   -1.0613 H   0  0  0  0  0  0  0  0  0  0  0  0
    2.2514    0.2705   -1.0129 C   0  0  0  0  0  0  0  0  0  0  0  0
    2.6320   -0.4701   -0.3156 H   0  0  0  0  0  0  0  0  0  0  0  0
   -1.0758    0.9113    0.4014 C   0  0  0  0  0  0  0  0  0  0  0  0
   -2.0457    1.3844   -0.1850 O   0  0  0  0  0  0  0  0  0  0  0  0
   -0.3619    1.7046    1.2806 N   0  0  0  0  0  0  0  0  0  0  0  0
    0.4762    1.3022    1.6897 H   0  0  0  0  0  0  0  0  0  0  0  0
   -0.5810    3.1395    1.4070 C   0  0  0  0  0  0  0  0  0  0  0  0
   -1.6208    3.3469    1.6810 H   0  0  0  0  0  0  0  0  0  0  0  0
    0.0682    3.5538    2.1843 H   0  0  0  0  0  0  0  0  0  0  0  0
   -0.3574    3.6437    0.4609 H   0  0  0  0  0  0  0  0  0  0  0  0
  1  2  1  0  0  0  0
  2  3  1  0  0  0  0
  2  4  1  0  0  0  0
  2  5  1  0  0  0  0
  5  6  2  0  0  0  0
  5  7  1  0  0  0  0
  7  8  1  0  0  0  0
  7  9  1  0  0  0  0
  9 10  1  0  0  0  0
  9 11  1  0  0  0  0
  9 25  1  0  0  0  0
 11 12  1  0  0  0  0
 11 13  1  0  0  0  0
 11 14  1  0  0  0  0
 14 15  1  0  0  0  0
 14 23  2  0  0  0  0
 15 16  1  0  0  0  0
 15 17  2  0  0  0  0
 17 18  1  0  0  0  0
 17 19  1  0  0  0  0
 19 20  1  0  0  0  0
 19 21  2  0  0  0  0
 21 22  1  0  0  0  0
 21 23  1  0  0  0  0
 23 24  1  0  0  0  0
 25 26  2  0  0  0  0
 25 27  1  0  0  0  0
 27 28  1  0  0  0  0
 27 29  1  0  0  0  0
 29 30  1  0  0  0  0
 29 31  1  0  0  0  0
 29 32  1  0  0  0  0
M  END
$$$$

  -OEChem-04042216033D

 32 32  0     1  0  0  0  0  0999 V2000
   -3.6707   -3.9606    1.6462 H   0  0  0  0  0  0  0  0  0  0  0  0
   -3.6635   -3.0655    1.0180 C   0  0  0  0  0  0  0  0  0  0  0  0
   -4.3596   -2.3353    1.4378 H   0  0  0  0  0  0  0  0  0  0  0  0
   -3.9936   -3.3373    0.0124 H   0  0  0  0  0  0  0  0  0  0  0  0
   -2.2663   -2.4768    0.9621 C   0  0  0  0  0  0  0  0  0  0  0  0
   -1.3462   -3.0282    1.5457 O   0  0  0  0  0  0  0  0  0  0  0  0
   -2.0413   -1.3142    0.2558 N   0  0  0  0  0  0  0  0  0  0  0  0
   -2.8557   -0.8262   -0.1155 H   0  0  0  0  0  0  0  0  0  0  0  0
   -0.7755   -0.5660    0.2679 C   0  0  1  0  0  0  0  0  0  0  0  0
   -0.1775   -0.8474    1.1406 H   0  0  0  0  0  0  0  0  0  0  0  0
    0.0382   -0.9236   -0.9982 C   0  0  0  0  0  0  0  0  0  0  0  0
    0.6182   -1.8303   -0.7981 H   0  0  0  0  0  0  0  0  0  0  0  0
   -0.6599   -1.1683   -1.8055 H   0  0  0  0  0  0  0  0  0  0  0  0
    0.9458    0.1745   -1.5140 C   0  0  0  0  0  0  0  0  0  0  0  0
    0.4334    1.2878   -2.2008 C   0  0  0  0  0  0  0  0  0  0  0  0
   -0.6328    1.3636   -2.3979 H   0  0  0  0  0  0  0  0  0  0  0  0
    1.2819    2.3108   -2.6355 C   0  0  0  0  0  0  0  0  0  0  0  0
    0.8701    3.1652   -3.1645 H   0  0  0  0  0  0  0  0  0  0  0  0
    2.6551    2.2325   -2.3884 C   0  0  0  0  0  0  0  0  0  0  0  0
    3.3143    3.0266   -2.7267 H   0  0  0  0  0  0  0  0  0  0  0  0
    3.1776    1.1301   -1.7060 C   0  0  0  0  0  0  0  0  0  0  0  0
    4.2447    1.0670   -1.5140 H   0  0  0  0  0  0  0  0  0  0  0  0
    2.3264    0.1082   -1.2707 C   0  0  0  0  0  0  0  0  0  0  0  0
    2.7459   -0.7408   -0.7390 H   0  0  0  0  0  0  0  0  0  0  0  0
   -1.0963    0.9358    0.4298 C   0  0  0  0  0  0  0  0  0  0  0  0
   -2.0842    1.4122   -0.1231 O   0  0  0  0  0  0  0  0  0  0  0  0
   -0.3763    1.7148    1.3167 N   0  0  0  0  0  0  0  0  0  0  0  0
    0.4690    1.3091    1.7081 H   0  0  0  0  0  0  0  0  0  0  0  0
   -0.6181    3.1401    1.4992 C   0  0  0  0  0  0  0  0  0  0  0  0
   -1.6539    3.3177    1.8070 H   0  0  0  0  0  0  0  0  0  0  0  0
    0.0437    3.5393    2.2736 H   0  0  0  0  0  0  0  0  0  0  0  0
   -0.4291    3.6819    0.5666 H   0  0  0  0  0  0  0  0  0  0  0  0
  1  2  1  0  0  0  0
  2  3  1  0  0  0  0
  2  4  1  0  0  0  0
  2  5  1  0  0  0  0
  5  6  2  0  0  0  0
  5  7  1  0  0  0  0
  7  8  1  0  0  0  0
  7  9  1  0  0  0  0
  9 10  1  0  0  0  0
  9 11  1  0  0  0  0
  9 25  1  0  0  0  0
 11 12  1  0  0  0  0
 11 13  1  0  0  0  0
 11 14  1  0  0  0  0
 14 15  1  0  0  0  0
 14 23  2  0  0  0  0
 15 16  1  0  0  0  0
 15 17  2  0  0  0  0
 17 18  1  0  0  0  0
 17 19  1  0  0  0  0
 19 20  1  0  0  0  0
 19 21  2  0  0  0  0
 21 22  1  0  0  0  0
 21 23  1  0  0  0  0
 23 24  1  0  0  0  0
 25 26  2  0  0  0  0
 25 27  1  0  0  0  0
 27 28  1  0  0  0  0
 27 29  1  0  0  0  0
 29 30  1  0  0  0  0
 29 31  1  0  0  0  0
 29 32  1  0  0  0  0
M  END
$$$$

  -OEChem-04042216033D

 32 32  0     1  0  0  0  0  0999 V2000
   -3.6201   -3.9950    1.6133 H   0  0  0  0  0  0  0  0  0  0  0  0
   -3.6337   -3.0888    1.0013 C   0  0  0  0  0  0  0  0  0  0  0  0
   -4.3379   -2.3779    1.4404 H   0  0  0  0  0  0  0  0  0  0  0  0
   -3.9684   -3.3484   -0.0060 H   0  0  0  0  0  0  0  0  0  0  0  0
   -2.2476   -2.4751    0.9430 C   0  0  0  0  0  0  0  0  0  0  0  0
   -1.3101   -3.0268    1.4980 O   0  0  0  0  0  0  0  0  0  0  0  0
   -2.0520   -1.2909    0.2645 N   0  0  0  0  0  0  0  0  0  0  0  0
   -2.8799   -0.8077   -0.0828 H   0  0  0  0  0  0  0  0  0  0  0  0
   -0.7989   -0.5211    0.2795 C   0  0  1  0  0  0  0  0  0  0  0  0
   -0.2000   -0.8066    1.1504 H   0  0  0  0  0  0  0  0  0  0  0  0
    0.0317   -0.8793   -0.9801 C   0  0  0  0  0  0  0  0  0  0  0  0
    0.6065   -1.7847   -0.7597 H   0  0  0  0  0  0  0  0  0  0  0  0
   -0.6655   -1.1412   -1.7828 H   0  0  0  0  0  0  0  0  0  0  0  0
    0.9472    0.1914   -1.5510 C   0  0  0  0  0  0  0  0  0  0  0  0
    0.4740    1.4320   -2.0148 C   0  0  0  0  0  0  0  0  0  0  0  0
   -0.5910    1.6416   -2.0453 H   0  0  0  0  0  0  0  0  0  0  0  0
    1.3581    2.4113   -2.4783 C   0  0  0  0  0  0  0  0  0  0  0  0
    0.9710    3.3602   -2.8383 H   0  0  0  0  0  0  0  0  0  0  0  0
    2.7332    2.1668   -2.4836 C   0  0  0  0  0  0  0  0  0  0  0  0
    3.4203    2.9262   -2.8451 H   0  0  0  0  0  0  0  0  0  0  0  0
    3.2204    0.9398   -2.0275 C   0  0  0  0  0  0  0  0  0  0  0  0
    4.2888    0.7450   -2.0319 H   0  0  0  0  0  0  0  0  0  0  0  0
    2.3332   -0.0376   -1.5637 C   0  0  0  0  0  0  0  0  0  0  0  0
    2.7338   -0.9819   -1.2064 H   0  0  0  0  0  0  0  0  0  0  0  0
   -1.1382    0.9698    0.4844 C   0  0  0  0  0  0  0  0  0  0  0  0
   -2.1503    1.4425   -0.0259 O   0  0  0  0  0  0  0  0  0  0  0  0
   -0.4161    1.7349    1.3816 N   0  0  0  0  0  0  0  0  0  0  0  0
    0.4389    1.3309    1.7533 H   0  0  0  0  0  0  0  0  0  0  0  0
   -0.6903    3.1446    1.6287 C   0  0  0  0  0  0  0  0  0  0  0  0
   -1.7231    3.2817    1.9660 H   0  0  0  0  0  0  0  0  0  0  0  0
   -0.0216    3.5293    2.4046 H   0  0  0  0  0  0  0  0  0  0  0  0
   -0.5361    3.7288    0.7157 H   0  0  0  0  0  0  0  0  0  0  0  0
  1  2  1  0  0  0  0
  2  3  1  0  0  0  0
  2  4  1  0  0  0  0
  2  5  1  0  0  0  0
  5  6  2  0  0  0  0
  5  7  1  0  0  0  0
  7  8  1  0  0  0  0
  7  9  1  0  0  0  0
  9 10  1  0  0  0  0
  9 11  1  0  0  0  0
  9 25  1  0  0  0  0
 11 12  1  0  0  0  0
 11 13  1  0  0  0  0
 11 14  1  0  0  0  0
 14 15  1  0  0  0  0
 14 23  2  0  0  0  0
 15 16  1  0  0  0  0
 15 17  2  0  0  0  0
 17 18  1  0  0  0  0
 17 19  1  0  0  0  0
 19 20  1  0  0  0  0
 19 21  2  0  0  0  0
 21 22  1  0  0  0  0
 21 23  1  0  0  0  0
 23 24  1  0  0  0  0
 25 26  2  0  0  0  0
 25 27  1  0  0  0  0
 27 28  1  0  0  0  0
 27 29  1  0  0  0  0
 29 30  1  0  0  0  0
 29 31  1  0  0  0  0
 29 32  1  0  0  0  0
M  END
$$$$

  -OEChem-04042216033D

 32 32  0     1  0  0  0  0  0999 V2000
   -3.5503   -4.0451    1.5620 H   0  0  0  0  0  0  0  0  0  0  0  0
   -3.5893   -3.1269    0.9692 C   0  0  0  0  0  0  0  0  0  0  0  0
   -4.3103   -2.4443    1.4254 H   0  0  0  0  0  0  0  0  0  0  0  0
   -3.9206   -3.3738   -0.0424 H   0  0  0  0  0  0  0  0  0  0  0  0
   -2.2192   -2.4774    0.9210 C   0  0  0  0  0  0  0  0  0  0  0  0
   -1.2655   -3.0228    1.4540 O   0  0  0  0  0  0  0  0  0  0  0  0
   -2.0540   -1.2700    0.2756 N   0  0  0  0  0  0  0  0  0  0  0  0
   -2.8937   -0.7969   -0.0570 H   0  0  0  0  0  0  0  0  0  0  0  0
   -0.8174   -0.4734    0.3063 C   0  0  1  0  0  0  0  0  0  0  0  0
   -0.2152   -0.7649    1.1731 H   0  0  0  0  0  0  0  0  0  0  0  0
    0.0243   -0.8115   -0.9550 C   0  0  0  0  0  0  0  0  0  0  0  0
    0.5980   -1.7150   -0.7240 H   0  0  0  0  0  0  0  0  0  0  0  0
   -0.6750   -1.0843   -1.7522 H   0  0  0  0  0  0  0  0  0  0  0  0
    0.9472    0.2340   -1.5747 C   0  0  0  0  0  0  0  0  0  0  0  0
    0.5962    1.5782   -1.8104 C   0  0  0  0  0  0  0  0  0  0  0  0
   -0.4140    1.9378   -1.6545 H   0  0  0  0  0  0  0  0  0  0  0  0
    1.5260    2.4898   -2.3212 C   0  0  0  0  0  0  0  0  0  0  0  0
    1.2276    3.5176   -2.5065 H   0  0  0  0  0  0  0  0  0  0  0  0
    2.8292    2.0787   -2.6051 C   0  0  0  0  0  0  0  0  0  0  0  0
    3.5504    2.7858   -3.0043 H   0  0  0  0  0  0  0  0  0  0  0  0
    3.1979    0.7515   -2.3818 C   0  0  0  0  0  0  0  0  0  0  0  0
    4.2097    0.4247   -2.6031 H   0  0  0  0  0  0  0  0  0  0  0  0
    2.2654   -0.1577   -1.8718 C   0  0  0  0  0  0  0  0  0  0  0  0
    2.5820   -1.1826   -1.7005 H   0  0  0  0  0  0  0  0  0  0  0  0
   -1.1914    1.0005    0.5557 C   0  0  0  0  0  0  0  0  0  0  0  0
   -2.2132    1.4658    0.0587 O   0  0  0  0  0  0  0  0  0  0  0  0
   -0.4839    1.7580    1.4713 N   0  0  0  0  0  0  0  0  0  0  0  0
    0.3714    1.3572    1.8465 H   0  0  0  0  0  0  0  0  0  0  0  0
   -0.7978    3.1493    1.7709 C   0  0  0  0  0  0  0  0  0  0  0  0
   -1.8325    3.2439    2.1168 H   0  0  0  0  0  0  0  0  0  0  0  0
   -0.1366    3.5250    2.5576 H   0  0  0  0  0  0  0  0  0  0  0  0
   -0.6657    3.7709    0.8793 H   0  0  0  0  0  0  0  0  0  0  0  0
  1  2  1  0  0  0  0
  2  3  1  0  0  0  0
  2  4  1  0  0  0  0
  2  5  1  0  0  0  0
  5  6  2  0  0  0  0
  5  7  1  0  0  0  0
  7  8  1  0  0  0  0
  7  9  1  0  0  0  0
  9 10  1  0  0  0  0
  9 11  1  0  0  0  0
  9 25  1  0  0  0  0
 11 12  1  0  0  0  0
 11 13  1  0  0  0  0
 11 14  1  0  0  0  0
 14 15  1  0  0  0  0
 14 23  2  0  0  0  0
 15 16  1  0  0  0  0
 15 17  2  0  0  0  0
 17 18  1  0  0  0  0
 17 19  1  0  0  0  0
 19 20  1  0  0  0  0
 19 21  2  0  0  0  0
 21 22  1  0  0  0  0
 21 23  1  0  0  0  0
 23 24  1  0  0  0  0
 25 26  2  0  0  0  0
 25 27  1  0  0  0  0
 27 28  1  0  0  0  0
 27 29  1  0  0  0  0
 29 30  1  0  0  0  0
 29 31  1  0  0  0  0
 29 32  1  0  0  0  0
M  END
$$$$

  -OEChem-04042216033D

 32 32  0     1  0  0  0  0  0999 V2000
   -3.5057   -4.0857    1.4692 H   0  0  0  0  0  0  0  0  0  0  0  0
   -3.5473   -3.1499    0.9050 C   0  0  0  0  0  0  0  0  0  0  0  0
   -4.2927   -2.4954    1.3633 H   0  0  0  0  0  0  0  0  0  0  0  0
   -3.8488   -3.3705   -0.1218 H   0  0  0  0  0  0  0  0  0  0  0  0
   -2.1894   -2.4737    0.9116 C   0  0  0  0  0  0  0  0  0  0  0  0
   -1.2415   -3.0083    1.4654 O   0  0  0  0  0  0  0  0  0  0  0  0
   -2.0299   -1.2523    0.2920 N   0  0  0  0  0  0  0  0  0  0  0  0
   -2.8671   -0.7932   -0.0659 H   0  0  0  0  0  0  0  0  0  0  0  0
   -0.8065   -0.4373    0.3565 C   0  0  1  0  0  0  0  0  0  0  0  0
   -0.2032   -0.7333    1.2208 H   0  0  0  0  0  0  0  0  0  0  0  0
    0.0368   -0.7406   -0.9147 C   0  0  0  0  0  0  0  0  0  0  0  0
    0.6129   -1.6441   -0.6883 H   0  0  0  0  0  0  0  0  0  0  0  0
   -0.6664   -1.0106   -1.7096 H   0  0  0  0  0  0  0  0  0  0  0  0
    0.9700    0.2853   -1.5619 C   0  0  0  0  0  0  0  0  0  0  0  0
    0.8124    1.6883   -1.5638 C   0  0  0  0  0  0  0  0  0  0  0  0
   -0.0638    2.1824   -1.1689 H   0  0  0  0  0  0  0  0  0  0  0  0
    1.7693    2.5245   -2.1494 C   0  0  0  0  0  0  0  0  0  0  0  0
    1.6192    3.6002   -2.1472 H   0  0  0  0  0  0  0  0  0  0  0  0
    2.9057    1.9829   -2.7500 C   0  0  0  0  0  0  0  0  0  0  0  0
    3.6448    2.6336   -3.2082 H   0  0  0  0  0  0  0  0  0  0  0  0
    3.0798    0.5997   -2.7689 C   0  0  0  0  0  0  0  0  0  0  0  0
    3.9586    0.1690   -3.2395 H   0  0  0  0  0  0  0  0  0  0  0  0
    2.1229   -0.2332   -2.1812 C   0  0  0  0  0  0  0  0  0  0  0  0
    2.2886   -1.3062   -2.2072 H   0  0  0  0  0  0  0  0  0  0  0  0
   -1.2309    1.0168    0.6264 C   0  0  0  0  0  0  0  0  0  0  0  0
   -2.2293    1.4792    0.0826 O   0  0  0  0  0  0  0  0  0  0  0  0
   -0.5640    1.7767    1.5703 N   0  0  0  0  0  0  0  0  0  0  0  0
    0.2603    1.3696    2.0034 H   0  0  0  0  0  0  0  0  0  0  0  0
   -0.9354    3.1449    1.9081 C   0  0  0  0  0  0  0  0  0  0  0  0
   -1.9782    3.1886    2.2398 H   0  0  0  0  0  0  0  0  0  0  0  0
   -0.3012    3.5199    2.7171 H   0  0  0  0  0  0  0  0  0  0  0  0
   -0.8132    3.7999    1.0392 H   0  0  0  0  0  0  0  0  0  0  0  0
  1  2  1  0  0  0  0
  2  3  1  0  0  0  0
  2  4  1  0  0  0  0
  2  5  1  0  0  0  0
  5  6  2  0  0  0  0
  5  7  1  0  0  0  0
  7  8  1  0  0  0  0
  7  9  1  0  0  0  0
  9 10  1  0  0  0  0
  9 11  1  0  0  0  0
  9 25  1  0  0  0  0
 11 12  1  0  0  0  0
 11 13  1  0  0  0  0
 11 14  1  0  0  0  0
 14 15  1  0  0  0  0
 14 23  2  0  0  0  0
 15 16  1  0  0  0  0
 15 17  2  0  0  0  0
 17 18  1  0  0  0  0
 17 19  1  0  0  0  0
 19 20  1  0  0  0  0
 19 21  2  0  0  0  0
 21 22  1  0  0  0  0
 21 23  1  0  0  0  0
 23 24  1  0  0  0  0
 25 26  2  0  0  0  0
 25 27  1  0  0  0  0
 27 28  1  0  0  0  0
 27 29  1  0  0  0  0
 29 30  1  0  0  0  0
 29 31  1  0  0  0  0
 29 32  1  0  0  0  0
M  END
$$$$

  -OEChem-04042216033D

 32 32  0     1  0  0  0  0  0999 V2000
   -3.5009   -4.0932    1.3692 H   0  0  0  0  0  0  0  0  0  0  0  0
   -3.5276   -3.1459    0.8234 C   0  0  0  0  0  0  0  0  0  0  0  0
   -4.2963   -2.5065    1.2645 H   0  0  0  0  0  0  0  0  0  0  0  0
   -3.7856   -3.3470   -0.2192 H   0  0  0  0  0  0  0  0  0  0  0  0
   -2.1764   -2.4598    0.8993 C   0  0  0  0  0  0  0  0  0  0  0  0
   -1.2517   -2.9902    1.4948 O   0  0  0  0  0  0  0  0  0  0  0  0
   -1.9972   -1.2330    0.2963 N   0  0  0  0  0  0  0  0  0  0  0  0
   -2.8177   -0.7793   -0.1047 H   0  0  0  0  0  0  0  0  0  0  0  0
   -0.7770   -0.4170    0.4052 C   0  0  1  0  0  0  0  0  0  0  0  0
   -0.1812   -0.7199    1.2724 H   0  0  0  0  0  0  0  0  0  0  0  0
    0.0635   -0.7010   -0.8745 C   0  0  0  0  0  0  0  0  0  0  0  0
    0.6352   -1.6106   -0.6621 H   0  0  0  0  0  0  0  0  0  0  0  0
   -0.6455   -0.9557   -1.6698 H   0  0  0  0  0  0  0  0  0  0  0  0
    1.0139    0.3047   -1.5283 C   0  0  0  0  0  0  0  0  0  0  0  0
    1.0861    1.6966   -1.3044 C   0  0  0  0  0  0  0  0  0  0  0  0
    0.4152    2.2311   -0.6516 H   0  0  0  0  0  0  0  0  0  0  0  0
    2.0331    2.4882   -1.9640 C   0  0  0  0  0  0  0  0  0  0  0  0
    2.0638    3.5580   -1.7796 H   0  0  0  0  0  0  0  0  0  0  0  0
    2.9302    1.9138   -2.8641 C   0  0  0  0  0  0  0  0  0  0  0  0
    3.6618    2.5318   -3.3761 H   0  0  0  0  0  0  0  0  0  0  0  0
    2.8753    0.5425   -3.1074 C   0  0  0  0  0  0  0  0  0  0  0  0
    3.5668    0.0872   -3.8101 H   0  0  0  0  0  0  0  0  0  0  0  0
    1.9283   -0.2458   -2.4465 C   0  0  0  0  0  0  0  0  0  0  0  0
    1.9079   -1.3119   -2.6539 H   0  0  0  0  0  0  0  0  0  0  0  0
   -1.2382    1.0272    0.6739 C   0  0  0  0  0  0  0  0  0  0  0  0
   -2.2003    1.4928    0.0719 O   0  0  0  0  0  0  0  0  0  0  0  0
   -0.6187    1.7897    1.6490 N   0  0  0  0  0  0  0  0  0  0  0  0
    0.1510    1.3654    2.1597 H   0  0  0  0  0  0  0  0  0  0  0  0
   -1.0400    3.1409    1.9991 C   0  0  0  0  0  0  0  0  0  0  0  0
   -2.0809    3.1419    2.3394 H   0  0  0  0  0  0  0  0  0  0  0  0
   -0.4133    3.5361    2.8045 H   0  0  0  0  0  0  0  0  0  0  0  0
   -0.9511    3.8059    1.1337 H   0  0  0  0  0  0  0  0  0  0  0  0
  1  2  1  0  0  0  0
  2  3  1  0  0  0  0
  2  4  1  0  0  0  0
  2  5  1  0  0  0  0
  5  6  2  0  0  0  0
  5  7  1  0  0  0  0
  7  8  1  0  0  0  0
  7  9  1  0  0  0  0
  9 10  1  0  0  0  0
  9 11  1  0  0  0  0
  9 25  1  0  0  0  0
 11 12  1  0  0  0  0
 11 13  1  0  0  0  0
 11 14  1  0  0  0  0
 14 15  1  0  0  0  0
 14 23  2  0  0  0  0
 15 16  1  0  0  0  0
 15 17  2  0  0  0  0
 17 18  1  0  0  0  0
 17 19  1  0  0  0  0
 19 20  1  0  0  0  0
 19 21  2  0  0  0  0
 21 22  1  0  0  0  0
 21 23  1  0  0  0  0
 23 24  1  0  0  0  0
 25 26  2  0  0  0  0
 25 27  1  0  0  0  0
 27 28  1  0  0  0  0
 27 29  1  0  0  0  0
 29 30  1  0  0  0  0
 29 31  1  0  0  0  0
 29 32  1  0  0  0  0
M  END
$$$$

  -OEChem-04042216033D

 32 32  0     1  0  0  0  0  0999 V2000
   -3.5622   -4.0381    1.3460 H   0  0  0  0  0  0  0  0  0  0  0  0
   -3.5488   -3.1096    0.7683 C   0  0  0  0  0  0  0  0  0  0  0  0
   -4.3298   -2.4467    1.1486 H   0  0  0  0  0  0  0  0  0  0  0  0
   -3.7568   -3.3427   -0.2787 H   0  0  0  0  0  0  0  0  0  0  0  0
   -2.1941   -2.4377    0.8898 C   0  0  0  0  0  0  0  0  0  0  0  0
   -1.3033   -2.9670    1.5357 O   0  0  0  0  0  0  0  0  0  0  0  0
   -1.9721   -1.2242    0.2744 N   0  0  0  0  0  0  0  0  0  0  0  0
   -2.7687   -0.7651   -0.1671 H   0  0  0  0  0  0  0  0  0  0  0  0
   -0.7481   -0.4208    0.4316 C   0  0  1  0  0  0  0  0  0  0  0  0
   -0.1793   -0.7163    1.3191 H   0  0  0  0  0  0  0  0  0  0  0  0
    0.1068   -0.7188   -0.8359 C   0  0  0  0  0  0  0  0  0  0  0  0
    0.6614   -1.6386   -0.6230 H   0  0  0  0  0  0  0  0  0  0  0  0
   -0.5967   -0.9550   -1.6421 H   0  0  0  0  0  0  0  0  0  0  0  0
    1.0863    0.2669   -1.4711 C   0  0  0  0  0  0  0  0  0  0  0  0
    1.3847    1.5757   -1.0410 C   0  0  0  0  0  0  0  0  0  0  0  0
    0.9412    2.0218   -0.1678 H   0  0  0  0  0  0  0  0  0  0  0  0
    2.3020    2.3746   -1.7338 C   0  0  0  0  0  0  0  0  0  0  0  0
    2.5139    3.3806   -1.3841 H   0  0  0  0  0  0  0  0  0  0  0  0
    2.9446    1.8859   -2.8716 C   0  0  0  0  0  0  0  0  0  0  0  0
    3.6548    2.5077   -3.4088 H   0  0  0  0  0  0  0  0  0  0  0  0
    2.6683    0.5929   -3.3144 C   0  0  0  0  0  0  0  0  0  0  0  0
    3.1635    0.2038   -4.1991 H   0  0  0  0  0  0  0  0  0  0  0  0
    1.7512   -0.2015   -2.6195 C   0  0  0  0  0  0  0  0  0  0  0  0
    1.5513   -1.2047   -2.9850 H   0  0  0  0  0  0  0  0  0  0  0  0
   -1.2319    1.0285    0.6507 C   0  0  0  0  0  0  0  0  0  0  0  0
   -2.1608    1.4789   -0.0121 O   0  0  0  0  0  0  0  0  0  0  0  0
   -0.6738    1.8141    1.6450 N   0  0  0  0  0  0  0  0  0  0  0  0
    0.0450    1.3937    2.2277 H   0  0  0  0  0  0  0  0  0  0  0  0
   -1.1309    3.1644    1.9512 C   0  0  0  0  0  0  0  0  0  0  0  0
   -2.1847    3.1542    2.2486 H   0  0  0  0  0  0  0  0  0  0  0  0
   -0.5436    3.5847    2.7732 H   0  0  0  0  0  0  0  0  0  0  0  0
   -1.0176    3.8148    1.0774 H   0  0  0  0  0  0  0  0  0  0  0  0
  1  2  1  0  0  0  0
  2  3  1  0  0  0  0
  2  4  1  0  0  0  0
  2  5  1  0  0  0  0
  5  6  2  0  0  0  0
  5  7  1  0  0  0  0
  7  8  1  0  0  0  0
  7  9  1  0  0  0  0
  9 10  1  0  0  0  0
  9 11  1  0  0  0  0
  9 25  1  0  0  0  0
 11 12  1  0  0  0  0
 11 13  1  0  0  0  0
 11 14  1  0  0  0  0
 14 15  1  0  0  0  0
 14 23  2  0  0  0  0
 15 16  1  0  0  0  0
 15 17  2  0  0  0  0
 17 18  1  0  0  0  0
 17 19  1  0  0  0  0
 19 20  1  0  0  0  0
 19 21  2  0  0  0  0
 21 22  1  0  0  0  0
 21 23  1  0  0  0  0
 23 24  1  0  0  0  0
 25 26  2  0  0  0  0
 25 27  1  0  0  0  0
 27 28  1  0  0  0  0
 27 29  1  0  0  0  0
 29 30  1  0  0  0  0
 29 31  1  0  0  0  0
 29 32  1  0  0  0  0
M  END
$$$$

  -OEChem-04042216033D

 32 32  0     1  0  0  0  0  0999 V2000
   -3.6745   -3.9706    1.3729 H   0  0  0  0  0  0  0  0  0  0  0  0
   -3.6253   -3.0439    0.7943 C   0  0  0  0  0  0  0  0  0  0  0  0
   -4.3757   -2.3487    1.1784 H   0  0  0  0  0  0  0  0  0  0  0  0
   -3.8484   -3.2690   -0.2514 H   0  0  0  0  0  0  0  0  0  0  0  0
   -2.2430   -2.4290    0.9070 C   0  0  0  0  0  0  0  0  0  0  0  0
   -1.3763   -2.9860    1.5621 O   0  0  0  0  0  0  0  0  0  0  0  0
   -1.9691   -1.2355    0.2740 N   0  0  0  0  0  0  0  0  0  0  0  0
   -2.7461   -0.7445   -0.1687 H   0  0  0  0  0  0  0  0  0  0  0  0
   -0.7105   -0.4859    0.4198 C   0  0  1  0  0  0  0  0  0  0  0  0
   -0.1348   -0.7983    1.2970 H   0  0  0  0  0  0  0  0  0  0  0  0
    0.0965   -0.7900   -0.8757 C   0  0  0  0  0  0  0  0  0  0  0  0
    0.6315   -1.7300   -0.7068 H   0  0  0  0  0  0  0  0  0  0  0  0
   -0.6329   -0.9805   -1.6711 H   0  0  0  0  0  0  0  0  0  0  0  0
    1.0886    0.2012   -1.4731 C   0  0  0  0  0  0  0  0  0  0  0  0
    1.6226    1.3252   -0.8166 C   0  0  0  0  0  0  0  0  0  0  0  0
    1.4189    1.5255    0.2231 H   0  0  0  0  0  0  0  0  0  0  0  0
    2.4945    2.2006   -1.4735 C   0  0  0  0  0  0  0  0  0  0  0  0
    2.8991    3.0596   -0.9466 H   0  0  0  0  0  0  0  0  0  0  0  0
    2.8533    1.9690   -2.8021 C   0  0  0  0  0  0  0  0  0  0  0  0
    3.5299    2.6484   -3.3123 H   0  0  0  0  0  0  0  0  0  0  0  0
    2.3424    0.8556   -3.4698 C   0  0  0  0  0  0  0  0  0  0  0  0
    2.6191    0.6668   -4.5028 H   0  0  0  0  0  0  0  0  0  0  0  0
    1.4705   -0.0154   -2.8090 C   0  0  0  0  0  0  0  0  0  0  0  0
    1.0792   -0.8717   -3.3504 H   0  0  0  0  0  0  0  0  0  0  0  0
   -1.1499    0.9845    0.6179 C   0  0  0  0  0  0  0  0  0  0  0  0
   -2.0603    1.4517   -0.0598 O   0  0  0  0  0  0  0  0  0  0  0  0
   -0.5765    1.7755    1.5987 N   0  0  0  0  0  0  0  0  0  0  0  0
    0.1038    1.3397    2.2147 H   0  0  0  0  0  0  0  0  0  0  0  0
   -0.9830    3.1514    1.8578 C   0  0  0  0  0  0  0  0  0  0  0  0
   -2.0396    3.1929    2.1424 H   0  0  0  0  0  0  0  0  0  0  0  0
   -0.3879    3.5742    2.6730 H   0  0  0  0  0  0  0  0  0  0  0  0
   -0.8337    3.7685    0.9654 H   0  0  0  0  0  0  0  0  0  0  0  0
  1  2  1  0  0  0  0
  2  3  1  0  0  0  0
  2  4  1  0  0  0  0
  2  5  1  0  0  0  0
  5  6  2  0  0  0  0
  5  7  1  0  0  0  0
  7  8  1  0  0  0  0
  7  9  1  0  0  0  0
  9 10  1  0  0  0  0
  9 11  1  0  0  0  0
  9 25  1  0  0  0  0
 11 12  1  0  0  0  0
 11 13  1  0  0  0  0
 11 14  1  0  0  0  0
 14 15  1  0  0  0  0
 14 23  2  0  0  0  0
 15 16  1  0  0  0  0
 15 17  2  0  0  0  0
 17 18  1  0  0  0  0
 17 19  1  0  0  0  0
 19 20  1  0  0  0  0
 19 21  2  0  0  0  0
 21 22  1  0  0  0  0
 21 23  1  0  0  0  0
 23 24  1  0  0  0  0
 25 26  2  0  0  0  0
 25 27  1  0  0  0  0
 27 28  1  0  0  0  0
 27 29  1  0  0  0  0
 29 30  1  0  0  0  0
 29 31  1  0  0  0  0
 29 32  1  0  0  0  0
M  END
$$$$

  -OEChem-04042216033D

 32 32  0     1  0  0  0  0  0999 V2000
   -3.7229   -3.9297    1.5063 H   0  0  0  0  0  0  0  0  0  0  0  0
   -3.6650   -3.0270    0.8918 C   0  0  0  0  0  0  0  0  0  0  0  0
   -4.3923   -2.3008    1.2625 H   0  0  0  0  0  0  0  0  0  0  0  0
   -3.9132   -3.2860   -0.1403 H   0  0  0  0  0  0  0  0  0  0  0  0
   -2.2679   -2.4396    0.9559 C   0  0  0  0  0  0  0  0  0  0  0  0
   -1.4008   -2.9902    1.6161 O   0  0  0  0  0  0  0  0  0  0  0  0
   -1.9817   -1.2765    0.2739 N   0  0  0  0  0  0  0  0  0  0  0  0
   -2.7574   -0.7854   -0.1706 H   0  0  0  0  0  0  0  0  0  0  0  0
   -0.7076   -0.5466    0.3727 C   0  0  1  0  0  0  0  0  0  0  0  0
   -0.1238   -0.8437    1.2496 H   0  0  0  0  0  0  0  0  0  0  0  0
    0.0807   -0.8737   -0.9240 C   0  0  0  0  0  0  0  0  0  0  0  0
    0.6270   -1.8070   -0.7551 H   0  0  0  0  0  0  0  0  0  0  0  0
   -0.6511   -1.0737   -1.7142 H   0  0  0  0  0  0  0  0  0  0  0  0
    1.0571    0.1499   -1.4839 C   0  0  0  0  0  0  0  0  0  0  0  0
    1.7663    1.0635   -0.6842 C   0  0  0  0  0  0  0  0  0  0  0  0
    1.6995    1.0225    0.3952 H   0  0  0  0  0  0  0  0  0  0  0  0
    2.6185    2.0133   -1.2572 C   0  0  0  0  0  0  0  0  0  0  0  0
    3.1626    2.7074   -0.6237 H   0  0  0  0  0  0  0  0  0  0  0  0
    2.7767    2.0657   -2.6437 C   0  0  0  0  0  0  0  0  0  0  0  0
    3.4376    2.8030   -3.0901 H   0  0  0  0  0  0  0  0  0  0  0  0
    2.0847    1.1631   -3.4538 C   0  0  0  0  0  0  0  0  0  0  0  0
    2.2034    1.1998   -4.5326 H   0  0  0  0  0  0  0  0  0  0  0  0
    1.2332    0.2152   -2.8766 C   0  0  0  0  0  0  0  0  0  0  0  0
    0.6975   -0.4714   -3.5255 H   0  0  0  0  0  0  0  0  0  0  0  0
   -1.1018    0.9435    0.5218 C   0  0  0  0  0  0  0  0  0  0  0  0
   -2.0219    1.4032   -0.1484 O   0  0  0  0  0  0  0  0  0  0  0  0
   -0.4912    1.7572    1.4604 N   0  0  0  0  0  0  0  0  0  0  0  0
    0.2177    1.3407    2.0563 H   0  0  0  0  0  0  0  0  0  0  0  0
   -0.8344    3.1616    1.6471 C   0  0  0  0  0  0  0  0  0  0  0  0
   -1.8929    3.2672    1.9069 H   0  0  0  0  0  0  0  0  0  0  0  0
   -0.2357    3.5933    2.4547 H   0  0  0  0  0  0  0  0  0  0  0  0
   -0.6379    3.7271    0.7302 H   0  0  0  0  0  0  0  0  0  0  0  0
  1  2  1  0  0  0  0
  2  3  1  0  0  0  0
  2  4  1  0  0  0  0
  2  5  1  0  0  0  0
  5  6  2  0  0  0  0
  5  7  1  0  0  0  0
  7  8  1  0  0  0  0
  7  9  1  0  0  0  0
  9 10  1  0  0  0  0
  9 11  1  0  0  0  0
  9 25  1  0  0  0  0
 11 12  1  0  0  0  0
 11 13  1  0  0  0  0
 11 14  1  0  0  0  0
 14 15  1  0  0  0  0
 14 23  2  0  0  0  0
 15 16  1  0  0  0  0
 15 17  2  0  0  0  0
 17 18  1  0  0  0  0
 17 19  1  0  0  0  0
 19 20  1  0  0  0  0
 19 21  2  0  0  0  0
 21 22  1  0  0  0  0
 21 23  1  0  0  0  0
 23 24  1  0  0  0  0
 25 26  2  0  0  0  0
 25 27  1  0  0  0  0
 27 28  1  0  0  0  0
 27 29  1  0  0  0  0
 29 30  1  0  0  0  0
 29 31  1  0  0  0  0
 29 32  1  0  0  0  0
M  END
$$$$

  -OEChem-04042216033D

 32 32  0     1  0  0  0  0  0999 V2000
   -3.7329   -3.9025    1.6313 H   0  0  0  0  0  0  0  0  0  0  0  0
   -3.6819   -3.0203    0.9870 C   0  0  0  0  0  0  0  0  0  0  0  0
   -4.3840   -2.2707    1.3599 H   0  0  0  0  0  0  0  0  0  0  0  0
   -3.9705   -3.3070   -0.0270 H   0  0  0  0  0  0  0  0  0  0  0  0
   -2.2740   -2.4549    0.9842 C   0  0  0  0  0  0  0  0  0  0  0  0
   -1.3917   -3.0038    1.6257 O   0  0  0  0  0  0  0  0  0  0  0  0
   -1.9964   -1.3122    0.2651 N   0  0  0  0  0  0  0  0  0  0  0  0
   -2.7822   -0.8189   -0.1584 H   0  0  0  0  0  0  0  0  0  0  0  0
   -0.7159   -0.5901    0.3155 C   0  0  1  0  0  0  0  0  0  0  0  0
   -0.1227   -0.8739    1.1906 H   0  0  0  0  0  0  0  0  0  0  0  0
    0.0638   -0.9377   -0.9769 C   0  0  0  0  0  0  0  0  0  0  0  0
    0.6281   -1.8593   -0.8028 H   0  0  0  0  0  0  0  0  0  0  0  0
   -0.6628   -1.1549   -1.7669 H   0  0  0  0  0  0  0  0  0  0  0  0
    1.0129    0.1237   -1.5023 C   0  0  0  0  0  0  0  0  0  0  0  0
    1.8915    0.8143   -0.6497 C   0  0  0  0  0  0  0  0  0  0  0  0
    1.9442    0.5600    0.4032 H   0  0  0  0  0  0  0  0  0  0  0  0
    2.7286    1.8195   -1.1445 C   0  0  0  0  0  0  0  0  0  0  0  0
    3.4050    2.3428   -0.4755 H   0  0  0  0  0  0  0  0  0  0  0  0
    2.6974    2.1493   -2.5017 C   0  0  0  0  0  0  0  0  0  0  0  0
    3.3446    2.9314   -2.8876 H   0  0  0  0  0  0  0  0  0  0  0  0
    1.8310    1.4694   -3.3619 C   0  0  0  0  0  0  0  0  0  0  0  0
    1.8020    1.7241   -4.4173 H   0  0  0  0  0  0  0  0  0  0  0  0
    0.9948    0.4644   -2.8642 C   0  0  0  0  0  0  0  0  0  0  0  0
    0.3203   -0.0445   -3.5461 H   0  0  0  0  0  0  0  0  0  0  0  0
   -1.0671    0.9129    0.4346 C   0  0  0  0  0  0  0  0  0  0  0  0
   -2.0070    1.3724   -0.2077 O   0  0  0  0  0  0  0  0  0  0  0  0
   -0.4094    1.7317    1.3358 N   0  0  0  0  0  0  0  0  0  0  0  0
    0.3493    1.3265    1.8747 H   0  0  0  0  0  0  0  0  0  0  0  0
   -0.6951    3.1539    1.4784 C   0  0  0  0  0  0  0  0  0  0  0  0
   -1.7483    3.3102    1.7346 H   0  0  0  0  0  0  0  0  0  0  0  0
   -0.0796    3.5855    2.2733 H   0  0  0  0  0  0  0  0  0  0  0  0
   -0.4767    3.6824    0.5444 H   0  0  0  0  0  0  0  0  0  0  0  0
  1  2  1  0  0  0  0
  2  3  1  0  0  0  0
  2  4  1  0  0  0  0
  2  5  1  0  0  0  0
  5  6  2  0  0  0  0
  5  7  1  0  0  0  0
  7  8  1  0  0  0  0
  7  9  1  0  0  0  0
  9 10  1  0  0  0  0
  9 11  1  0  0  0  0
  9 25  1  0  0  0  0
 11 12  1  0  0  0  0
 11 13  1  0  0  0  0
 11 14  1  0  0  0  0
 14 15  1  0  0  0  0
 14 23  2  0  0  0  0
 15 16  1  0  0  0  0
 15 17  2  0  0  0  0
 17 18  1  0  0  0  0
 17 19  1  0  0  0  0
 19 20  1  0  0  0  0
 19 21  2  0  0  0  0
 21 22  1  0  0  0  0
 21 23  1  0  0  0  0
 23 24  1  0  0  0  0
 25 26  2  0  0  0  0
 25 27  1  0  0  0  0
 27 28  1  0  0  0  0
 27 29  1  0  0  0  0
 29 30  1  0  0  0  0
 29 31  1  0  0  0  0
 29 32  1  0  0  0  0
M  END
$$$$

  -OEChem-04042216033D

 32 32  0     1  0  0  0  0  0999 V2000
   -3.7211   -3.9094    1.6862 H   0  0  0  0  0  0  0  0  0  0  0  0
   -3.6799   -3.0369    1.0281 C   0  0  0  0  0  0  0  0  0  0  0  0
   -4.3839   -2.2859    1.3949 H   0  0  0  0  0  0  0  0  0  0  0  0
   -3.9740   -3.3409    0.0205 H   0  0  0  0  0  0  0  0  0  0  0  0
   -2.2753   -2.4639    1.0059 C   0  0  0  0  0  0  0  0  0  0  0  0
   -1.3838   -3.0025    1.6434 O   0  0  0  0  0  0  0  0  0  0  0  0
   -2.0098   -1.3318    0.2654 N   0  0  0  0  0  0  0  0  0  0  0  0
   -2.8023   -0.8475   -0.1555 H   0  0  0  0  0  0  0  0  0  0  0  0
   -0.7293   -0.6092    0.2806 C   0  0  1  0  0  0  0  0  0  0  0  0
   -0.1281   -0.8823    1.1538 H   0  0  0  0  0  0  0  0  0  0  0  0
    0.0468   -0.9716   -1.0062 C   0  0  0  0  0  0  0  0  0  0  0  0
    0.6274   -1.8816   -0.8243 H   0  0  0  0  0  0  0  0  0  0  0  0
   -0.6729   -1.2057   -1.7978 H   0  0  0  0  0  0  0  0  0  0  0  0
    0.9692    0.1181   -1.5102 C   0  0  0  0  0  0  0  0  0  0  0  0
    2.0190    0.5898   -0.7053 C   0  0  0  0  0  0  0  0  0  0  0  0
    2.2008    0.1441    0.2675 H   0  0  0  0  0  0  0  0  0  0  0  0
    2.8489    1.6237   -1.1508 C   0  0  0  0  0  0  0  0  0  0  0  0
    3.6614    1.9780   -0.5235 H   0  0  0  0  0  0  0  0  0  0  0  0
    2.6338    2.2004   -2.4057 C   0  0  0  0  0  0  0  0  0  0  0  0
    3.2763    3.0040   -2.7534 H   0  0  0  0  0  0  0  0  0  0  0  0
    1.5884    1.7424   -3.2128 C   0  0  0  0  0  0  0  0  0  0  0  0
    1.4145    2.1925   -4.1857 H   0  0  0  0  0  0  0  0  0  0  0  0
    0.7596    0.7081   -2.7659 C   0  0  0  0  0  0  0  0  0  0  0  0
   -0.0573    0.3730   -3.3982 H   0  0  0  0  0  0  0  0  0  0  0  0
   -1.0510    0.9005    0.3835 C   0  0  0  0  0  0  0  0  0  0  0  0
   -2.0043    1.3641   -0.2360 O   0  0  0  0  0  0  0  0  0  0  0  0
   -0.3561    1.7152    1.2594 N   0  0  0  0  0  0  0  0  0  0  0  0
    0.4494    1.3150    1.7297 H   0  0  0  0  0  0  0  0  0  0  0  0
   -0.5870    3.1501    1.3633 C   0  0  0  0  0  0  0  0  0  0  0  0
   -1.6323    3.3537    1.6186 H   0  0  0  0  0  0  0  0  0  0  0  0
    0.0475    3.5798    2.1443 H   0  0  0  0  0  0  0  0  0  0  0  0
   -0.3522    3.6429    0.4141 H   0  0  0  0  0  0  0  0  0  0  0  0
  1  2  1  0  0  0  0
  2  3  1  0  0  0  0
  2  4  1  0  0  0  0
  2  5  1  0  0  0  0
  5  6  2  0  0  0  0
  5  7  1  0  0  0  0
  7  8  1  0  0  0  0
  7  9  1  0  0  0  0
  9 10  1  0  0  0  0
  9 11  1  0  0  0  0
  9 25  1  0  0  0  0
 11 12  1  0  0  0  0
 11 13  1  0  0  0  0
 11 14  1  0  0  0  0
 14 15  1  0  0  0  0
 14 23  2  0  0  0  0
 15 16  1  0  0  0  0
 15 17  2  0  0  0  0
 17 18  1  0  0  0  0
 17 19  1  0  0  0  0
 19 20  1  0  0  0  0
 19 21  2  0  0  0  0
 21 22  1  0  0  0  0
 21 23  1  0  0  0  0
 23 24  1  0  0  0  0
 25 26  2  0  0  0  0
 25 27  1  0  0  0  0
 27 28  1  0  0  0  0
 27 29  1  0  0  0  0
 29 30  1  0  0  0  0
 29 31  1  0  0  0  0
 29 32  1  0  0  0  0
M  END
$$$$

  -OEChem-04042216033D

 32 32  0     1  0  0  0  0  0999 V2000
   -3.7096   -3.9070    1.7195 H   0  0  0  0  0  0  0  0  0  0  0  0
   -3.6777   -3.0374    1.0572 C   0  0  0  0  0  0  0  0  0  0  0  0
   -4.3688   -2.2807    1.4363 H   0  0  0  0  0  0  0  0  0  0  0  0
   -3.9958   -3.3433    0.0577 H   0  0  0  0  0  0  0  0  0  0  0  0
   -2.2707   -2.4723    1.0016 C   0  0  0  0  0  0  0  0  0  0  0  0
   -1.3673   -3.0147    1.6189 O   0  0  0  0  0  0  0  0  0  0  0  0
   -2.0169   -1.3419    0.2545 N   0  0  0  0  0  0  0  0  0  0  0  0
   -2.8173   -0.8553   -0.1482 H   0  0  0  0  0  0  0  0  0  0  0  0
   -0.7378   -0.6173    0.2516 C   0  0  1  0  0  0  0  0  0  0  0  0
   -0.1329   -0.8853    1.1238 H   0  0  0  0  0  0  0  0  0  0  0  0
    0.0420   -0.9857   -1.0292 C   0  0  0  0  0  0  0  0  0  0  0  0
    0.6291   -1.8908   -0.8441 H   0  0  0  0  0  0  0  0  0  0  0  0
   -0.6702   -1.2253   -1.8258 H   0  0  0  0  0  0  0  0  0  0  0  0
    0.9477    0.1211   -1.5192 C   0  0  0  0  0  0  0  0  0  0  0  0
    2.1529    0.3890   -0.8521 C   0  0  0  0  0  0  0  0  0  0  0  0
    2.4532   -0.2216   -0.0057 H   0  0  0  0  0  0  0  0  0  0  0  0
    2.9800    1.4355   -1.2737 C   0  0  0  0  0  0  0  0  0  0  0  0
    3.9141    1.6332   -0.7563 H   0  0  0  0  0  0  0  0  0  0  0  0
    2.6049    2.2272   -2.3633 C   0  0  0  0  0  0  0  0  0  0  0  0
    3.2447    3.0409   -2.6918 H   0  0  0  0  0  0  0  0  0  0  0  0
    1.4027    1.9717   -3.0296 C   0  0  0  0  0  0  0  0  0  0  0  0
    1.1044    2.5889   -3.8720 H   0  0  0  0  0  0  0  0  0  0  0  0
    0.5775    0.9239   -2.6083 C   0  0  0  0  0  0  0  0  0  0  0  0
   -0.3625    0.7461   -3.1227 H   0  0  0  0  0  0  0  0  0  0  0  0
   -1.0484    0.8942    0.3542 C   0  0  0  0  0  0  0  0  0  0  0  0
   -2.0136    1.3598   -0.2458 O   0  0  0  0  0  0  0  0  0  0  0  0
   -0.3341    1.7035    1.2190 N   0  0  0  0  0  0  0  0  0  0  0  0
    0.4947    1.3045    1.6489 H   0  0  0  0  0  0  0  0  0  0  0  0
   -0.5521    3.1407    1.3214 C   0  0  0  0  0  0  0  0  0  0  0  0
   -1.5909    3.3534    1.5952 H   0  0  0  0  0  0  0  0  0  0  0  0
    0.0998    3.5685    2.0889 H   0  0  0  0  0  0  0  0  0  0  0  0
   -0.3315    3.6287    0.3662 H   0  0  0  0  0  0  0  0  0  0  0  0
  1  2  1  0  0  0  0
  2  3  1  0  0  0  0
  2  4  1  0  0  0  0
  2  5  1  0  0  0  0
  5  6  2  0  0  0  0
  5  7  1  0  0  0  0
  7  8  1  0  0  0  0
  7  9  1  0  0  0  0
  9 10  1  0  0  0  0
  9 11  1  0  0  0  0
  9 25  1  0  0  0  0
 11 12  1  0  0  0  0
 11 13  1  0  0  0  0
 11 14  1  0  0  0  0
 14 15  1  0  0  0  0
 14 23  2  0  0  0  0
 15 16  1  0  0  0  0
 15 17  2  0  0  0  0
 17 18  1  0  0  0  0
 17 19  1  0  0  0  0
 19 20  1  0  0  0  0
 19 21  2  0  0  0  0
 21 22  1  0  0  0  0
 21 23  1  0  0  0  0
 23 24  1  0  0  0  0
 25 26  2  0  0  0  0
 25 27  1  0  0  0  0
 27 28  1  0  0  0  0
 27 29  1  0  0  0  0
 29 30  1  0  0  0  0
 29 31  1  0  0  0  0
 29 32  1  0  0  0  0
M  END
$$$$

  -OEChem-04042216033D

 32 32  0     1  0  0  0  0  0999 V2000
   -3.6938   -3.9292    1.7038 H   0  0  0  0  0  0  0  0  0  0  0  0
   -3.6707   -3.0554    1.0466 C   0  0  0  0  0  0  0  0  0  0  0  0
   -4.3694   -2.3079    1.4303 H   0  0  0  0  0  0  0  0  0  0  0  0
   -3.9866   -3.3585    0.0455 H   0  0  0  0  0  0  0  0  0  0  0  0
   -2.2690   -2.4768    0.9928 C   0  0  0  0  0  0  0  0  0  0  0  0
   -1.3576   -3.0216    1.5962 O   0  0  0  0  0  0  0  0  0  0  0  0
   -2.0286   -1.3349    0.2585 N   0  0  0  0  0  0  0  0  0  0  0  0
   -2.8353   -0.8509   -0.1345 H   0  0  0  0  0  0  0  0  0  0  0  0
   -0.7543   -0.6014    0.2542 C   0  0  1  0  0  0  0  0  0  0  0  0
   -0.1472   -0.8746    1.1233 H   0  0  0  0  0  0  0  0  0  0  0  0
    0.0317   -0.9643   -1.0248 C   0  0  0  0  0  0  0  0  0  0  0  0
    0.6183   -1.8698   -0.8391 H   0  0  0  0  0  0  0  0  0  0  0  0
   -0.6772   -1.2046   -1.8243 H   0  0  0  0  0  0  0  0  0  0  0  0
    0.9312    0.1460   -1.5197 C   0  0  0  0  0  0  0  0  0  0  0  0
    2.2566    0.2285   -1.0679 C   0  0  0  0  0  0  0  0  0  0  0  0
    2.6415   -0.5109   -0.3718 H   0  0  0  0  0  0  0  0  0  0  0  0
    3.0946    1.2581   -1.5099 C   0  0  0  0  0  0  0  0  0  0  0  0
    4.1204    1.3137   -1.1574 H   0  0  0  0  0  0  0  0  0  0  0  0
    2.6127    2.2148   -2.4085 C   0  0  0  0  0  0  0  0  0  0  0  0
    3.2614    3.0153   -2.7520 H   0  0  0  0  0  0  0  0  0  0  0  0
    1.2939    2.1393   -2.8661 C   0  0  0  0  0  0  0  0  0  0  0  0
    0.9147    2.8825   -3.5615 H   0  0  0  0  0  0  0  0  0  0  0  0
    0.4584    1.1079   -2.4257 C   0  0  0  0  0  0  0  0  0  0  0  0
   -0.5689    1.0656   -2.7773 H   0  0  0  0  0  0  0  0  0  0  0  0
   -1.0642    0.9074    0.3784 C   0  0  0  0  0  0  0  0  0  0  0  0
   -2.0352    1.3799   -0.2066 O   0  0  0  0  0  0  0  0  0  0  0  0
   -0.3419    1.7054    1.2467 N   0  0  0  0  0  0  0  0  0  0  0  0
    0.4942    1.3015    1.6586 H   0  0  0  0  0  0  0  0  0  0  0  0
   -0.5559    3.1421    1.3659 C   0  0  0  0  0  0  0  0  0  0  0  0
   -1.5946    3.3544    1.6403 H   0  0  0  0  0  0  0  0  0  0  0  0
    0.0957    3.5585    2.1401 H   0  0  0  0  0  0  0  0  0  0  0  0
   -0.3324    3.6416    0.4173 H   0  0  0  0  0  0  0  0  0  0  0  0
  1  2  1  0  0  0  0
  2  3  1  0  0  0  0
  2  4  1  0  0  0  0
  2  5  1  0  0  0  0
  5  6  2  0  0  0  0
  5  7  1  0  0  0  0
  7  8  1  0  0  0  0
  7  9  1  0  0  0  0
  9 10  1  0  0  0  0
  9 11  1  0  0  0  0
  9 25  1  0  0  0  0
 11 12  1  0  0  0  0
 11 13  1  0  0  0  0
 11 14  1  0  0  0  0
 14 15  1  0  0  0  0
 14 23  2  0  0  0  0
 15 16  1  0  0  0  0
 15 17  2  0  0  0  0
 17 18  1  0  0  0  0
 17 19  1  0  0  0  0
 19 20  1  0  0  0  0
 19 21  2  0  0  0  0
 21 22  1  0  0  0  0
 21 23  1  0  0  0  0
 23 24  1  0  0  0  0
 25 26  2  0  0  0  0
 25 27  1  0  0  0  0
 27 28  1  0  0  0  0
 27 29  1  0  0  0  0
 29 30  1  0  0  0  0
 29 31  1  0  0  0  0
 29 32  1  0  0  0  0
M  END
$$$$

  -OEChem-04042216033D

 32 32  0     1  0  0  0  0  0999 V2000
   -3.6703   -3.9540    1.6695 H   0  0  0  0  0  0  0  0  0  0  0  0
   -3.6605   -3.0684    1.0280 C   0  0  0  0  0  0  0  0  0  0  0  0
   -4.3587   -2.3324    1.4339 H   0  0  0  0  0  0  0  0  0  0  0  0
   -3.9859   -3.3552    0.0251 H   0  0  0  0  0  0  0  0  0  0  0  0
   -2.2632   -2.4802    0.9687 C   0  0  0  0  0  0  0  0  0  0  0  0
   -1.3407   -3.0345    1.5459 O   0  0  0  0  0  0  0  0  0  0  0  0
   -2.0395   -1.3182    0.2610 N   0  0  0  0  0  0  0  0  0  0  0  0
   -2.8549   -0.8293   -0.1072 H   0  0  0  0  0  0  0  0  0  0  0  0
   -0.7727   -0.5715    0.2674 C   0  0  1  0  0  0  0  0  0  0  0  0
   -0.1679   -0.8551    1.1348 H   0  0  0  0  0  0  0  0  0  0  0  0
    0.0286   -0.9237   -1.0071 C   0  0  0  0  0  0  0  0  0  0  0  0
    0.6113   -1.8308   -0.8167 H   0  0  0  0  0  0  0  0  0  0  0  0
   -0.6745   -1.1642   -1.8114 H   0  0  0  0  0  0  0  0  0  0  0  0
    0.9298    0.1818   -1.5155 C   0  0  0  0  0  0  0  0  0  0  0  0
    2.3165    0.0963   -1.3185 C   0  0  0  0  0  0  0  0  0  0  0  0
    2.7394   -0.7468   -0.7799 H   0  0  0  0  0  0  0  0  0  0  0  0
    3.1690    1.0921   -1.8073 C   0  0  0  0  0  0  0  0  0  0  0  0
    4.2401    1.0187   -1.6432 H   0  0  0  0  0  0  0  0  0  0  0  0
    2.6433    2.1790   -2.5115 C   0  0  0  0  0  0  0  0  0  0  0  0
    3.3035    2.9528   -2.8919 H   0  0  0  0  0  0  0  0  0  0  0  0
    1.2662    2.2633   -2.7344 C   0  0  0  0  0  0  0  0  0  0  0  0
    0.8532    3.1014   -3.2883 H   0  0  0  0  0  0  0  0  0  0  0  0
    0.4163    1.2646   -2.2485 C   0  0  0  0  0  0  0  0  0  0  0  0
   -0.6518    1.3382   -2.4363 H   0  0  0  0  0  0  0  0  0  0  0  0
   -1.0911    0.9312    0.4299 C   0  0  0  0  0  0  0  0  0  0  0  0
   -2.0783    1.4076   -0.1240 O   0  0  0  0  0  0  0  0  0  0  0  0
   -0.3682    1.7127    1.3126 N   0  0  0  0  0  0  0  0  0  0  0  0
    0.4798    1.3091    1.7001 H   0  0  0  0  0  0  0  0  0  0  0  0
   -0.6026    3.1410    1.4826 C   0  0  0  0  0  0  0  0  0  0  0  0
   -1.6407    3.3279    1.7775 H   0  0  0  0  0  0  0  0  0  0  0  0
    0.0531    3.5413    2.2618 H   0  0  0  0  0  0  0  0  0  0  0  0
   -0.3992    3.6754    0.5486 H   0  0  0  0  0  0  0  0  0  0  0  0
  1  2  1  0  0  0  0
  2  3  1  0  0  0  0
  2  4  1  0  0  0  0
  2  5  1  0  0  0  0
  5  6  2  0  0  0  0
  5  7  1  0  0  0  0
  7  8  1  0  0  0  0
  7  9  1  0  0  0  0
  9 10  1  0  0  0  0
  9 11  1  0  0  0  0
  9 25  1  0  0  0  0
 11 12  1  0  0  0  0
 11 13  1  0  0  0  0
 11 14  1  0  0  0  0
 14 15  1  0  0  0  0
 14 23  2  0  0  0  0
 15 16  1  0  0  0  0
 15 17  2  0  0  0  0
 17 18  1  0  0  0  0
 17 19  1  0  0  0  0
 19 20  1  0  0  0  0
 19 21  2  0  0  0  0
 21 22  1  0  0  0  0
 21 23  1  0  0  0  0
 23 24  1  0  0  0  0
 25 26  2  0  0  0  0
 25 27  1  0  0  0  0
 27 28  1  0  0  0  0
 27 29  1  0  0  0  0
 29 30  1  0  0  0  0
 29 31  1  0  0  0  0
 29 32  1  0  0  0  0
M  END
$$$$

  -OEChem-04042216033D

 32 32  0     1  0  0  0  0  0999 V2000
   -3.6397   -3.9835    1.6161 H   0  0  0  0  0  0  0  0  0  0  0  0
   -3.6426   -3.0876    0.9890 C   0  0  0  0  0  0  0  0  0  0  0  0
   -4.3515   -2.3684    1.4066 H   0  0  0  0  0  0  0  0  0  0  0  0
   -3.9642   -3.3632   -0.0182 H   0  0  0  0  0  0  0  0  0  0  0  0
   -2.2538   -2.4788    0.9396 C   0  0  0  0  0  0  0  0  0  0  0  0
   -1.3199   -3.0396    1.4917 O   0  0  0  0  0  0  0  0  0  0  0  0
   -2.0500   -1.2921    0.2674 N   0  0  0  0  0  0  0  0  0  0  0  0
   -2.8743   -0.8036   -0.0810 H   0  0  0  0  0  0  0  0  0  0  0  0
   -0.7940   -0.5274    0.2922 C   0  0  1  0  0  0  0  0  0  0  0  0
   -0.1968   -0.8231    1.1610 H   0  0  0  0  0  0  0  0  0  0  0  0
    0.0329   -0.8701   -0.9717 C   0  0  0  0  0  0  0  0  0  0  0  0
    0.6124   -1.7755   -0.7640 H   0  0  0  0  0  0  0  0  0  0  0  0
   -0.6606   -1.1211   -1.7810 H   0  0  0  0  0  0  0  0  0  0  0  0
    0.9421    0.2218   -1.5056 C   0  0  0  0  0  0  0  0  0  0  0  0
    2.3250   -0.0118   -1.5804 C   0  0  0  0  0  0  0  0  0  0  0  0
    2.7430   -0.9378   -1.1967 H   0  0  0  0  0  0  0  0  0  0  0  0
    3.1867    0.9416   -2.1334 C   0  0  0  0  0  0  0  0  0  0  0  0
    4.2557    0.7530   -2.1667 H   0  0  0  0  0  0  0  0  0  0  0  0
    2.6715    2.1320   -2.6517 C   0  0  0  0  0  0  0  0  0  0  0  0
    3.3386    2.8726   -3.0828 H   0  0  0  0  0  0  0  0  0  0  0  0
    1.2930    2.3568   -2.6328 C   0  0  0  0  0  0  0  0  0  0  0  0
    0.8834    3.2684   -3.0575 H   0  0  0  0  0  0  0  0  0  0  0  0
    0.4348    1.4008   -2.0808 C   0  0  0  0  0  0  0  0  0  0  0  0
   -0.6355    1.5819   -2.1149 H   0  0  0  0  0  0  0  0  0  0  0  0
   -1.1228    0.9658    0.5020 C   0  0  0  0  0  0  0  0  0  0  0  0
   -2.1272    1.4484   -0.0141 O   0  0  0  0  0  0  0  0  0  0  0  0
   -0.3996    1.7228    1.4055 N   0  0  0  0  0  0  0  0  0  0  0  0
    0.4506    1.3108    1.7794 H   0  0  0  0  0  0  0  0  0  0  0  0
   -0.6561    3.1373    1.6453 C   0  0  0  0  0  0  0  0  0  0  0  0
   -1.6962    3.2941    1.9503 H   0  0  0  0  0  0  0  0  0  0  0  0
   -0.0054    3.5090    2.4426 H   0  0  0  0  0  0  0  0  0  0  0  0
   -0.4623    3.7194    0.7383 H   0  0  0  0  0  0  0  0  0  0  0  0
  1  2  1  0  0  0  0
  2  3  1  0  0  0  0
  2  4  1  0  0  0  0
  2  5  1  0  0  0  0
  5  6  2  0  0  0  0
  5  7  1  0  0  0  0
  7  8  1  0  0  0  0
  7  9  1  0  0  0  0
  9 10  1  0  0  0  0
  9 11  1  0  0  0  0
  9 25  1  0  0  0  0
 11 12  1  0  0  0  0
 11 13  1  0  0  0  0
 11 14  1  0  0  0  0
 14 15  1  0  0  0  0
 14 23  2  0  0  0  0
 15 16  1  0  0  0  0
 15 17  2  0  0  0  0
 17 18  1  0  0  0  0
 17 19  1  0  0  0  0
 19 20  1  0  0  0  0
 19 21  2  0  0  0  0
 21 22  1  0  0  0  0
 21 23  1  0  0  0  0
 23 24  1  0  0  0  0
 25 26  2  0  0  0  0
 25 27  1  0  0  0  0
 27 28  1  0  0  0  0
 27 29  1  0  0  0  0
 29 30  1  0  0  0  0
 29 31  1  0  0  0  0
 29 32  1  0  0  0  0
M  END
$$$$

  -OEChem-04042216033D

 32 32  0     1  0  0  0  0  0999 V2000
   -3.5924   -4.0362    1.5116 H   0  0  0  0  0  0  0  0  0  0  0  0
   -3.6124   -3.1057    0.9374 C   0  0  0  0  0  0  0  0  0  0  0  0
   -4.3311   -2.4235    1.3979 H   0  0  0  0  0  0  0  0  0  0  0  0
   -3.9330   -3.3279   -0.0832 H   0  0  0  0  0  0  0  0  0  0  0  0
   -2.2341   -2.4718    0.9183 C   0  0  0  0  0  0  0  0  0  0  0  0
   -1.2951   -3.0309    1.4632 O   0  0  0  0  0  0  0  0  0  0  0  0
   -2.0459   -1.2641    0.2800 N   0  0  0  0  0  0  0  0  0  0  0  0
   -2.8763   -0.7800   -0.0601 H   0  0  0  0  0  0  0  0  0  0  0  0
   -0.8009   -0.4820    0.3249 C   0  0  1  0  0  0  0  0  0  0  0  0
   -0.2073   -0.7865    1.1930 H   0  0  0  0  0  0  0  0  0  0  0  0
    0.0445   -0.8106   -0.9342 C   0  0  0  0  0  0  0  0  0  0  0  0
    0.6197   -1.7158   -0.7139 H   0  0  0  0  0  0  0  0  0  0  0  0
   -0.6458   -1.0691   -1.7438 H   0  0  0  0  0  0  0  0  0  0  0  0
    0.9677    0.2576   -1.5043 C   0  0  0  0  0  0  0  0  0  0  0  0
    2.2736   -0.1197   -1.8649 C   0  0  0  0  0  0  0  0  0  0  0  0
    2.6277   -1.1245   -1.6538 H   0  0  0  0  0  0  0  0  0  0  0  0
    3.1479    0.7828   -2.4794 C   0  0  0  0  0  0  0  0  0  0  0  0
    4.1604    0.4760   -2.7248 H   0  0  0  0  0  0  0  0  0  0  0  0
    2.7153    2.0734   -2.7876 C   0  0  0  0  0  0  0  0  0  0  0  0
    3.3905    2.7762   -3.2668 H   0  0  0  0  0  0  0  0  0  0  0  0
    1.4000    2.4461   -2.5054 C   0  0  0  0  0  0  0  0  0  0  0  0
    1.0446    3.4354   -2.7791 H   0  0  0  0  0  0  0  0  0  0  0  0
    0.5288    1.5385   -1.8939 C   0  0  0  0  0  0  0  0  0  0  0  0
   -0.5020    1.8475   -1.7619 H   0  0  0  0  0  0  0  0  0  0  0  0
   -1.1560    0.9973    0.5761 C   0  0  0  0  0  0  0  0  0  0  0  0
   -2.1748    1.4735    0.0829 O   0  0  0  0  0  0  0  0  0  0  0  0
   -0.4462    1.7421    1.5000 N   0  0  0  0  0  0  0  0  0  0  0  0
    0.4027    1.3309    1.8781 H   0  0  0  0  0  0  0  0  0  0  0  0
   -0.7550    3.1314    1.8141 C   0  0  0  0  0  0  0  0  0  0  0  0
   -1.7842    3.2237    2.1768 H   0  0  0  0  0  0  0  0  0  0  0  0
   -0.0815    3.5006    2.5932 H   0  0  0  0  0  0  0  0  0  0  0  0
   -0.6359    3.7600    0.9255 H   0  0  0  0  0  0  0  0  0  0  0  0
  1  2  1  0  0  0  0
  2  3  1  0  0  0  0
  2  4  1  0  0  0  0
  2  5  1  0  0  0  0
  5  6  2  0  0  0  0
  5  7  1  0  0  0  0
  7  8  1  0  0  0  0
  7  9  1  0  0  0  0
  9 10  1  0  0  0  0
  9 11  1  0  0  0  0
  9 25  1  0  0  0  0
 11 12  1  0  0  0  0
 11 13  1  0  0  0  0
 11 14  1  0  0  0  0
 14 15  1  0  0  0  0
 14 23  2  0  0  0  0
 15 16  1  0  0  0  0
 15 17  2  0  0  0  0
 17 18  1  0  0  0  0
 17 19  1  0  0  0  0
 19 20  1  0  0  0  0
 19 21  2  0  0  0  0
 21 22  1  0  0  0  0
 21 23  1  0  0  0  0
 23 24  1  0  0  0  0
 25 26  2  0  0  0  0
 25 27  1  0  0  0  0
 27 28  1  0  0  0  0
 27 29  1  0  0  0  0
 29 30  1  0  0  0  0
 29 31  1  0  0  0  0
 29 32  1  0  0  0  0
M  END
$$$$

  -OEChem-04042216033D

 32 32  0     1  0  0  0  0  0999 V2000
   -3.5348   -4.0814    1.4279 H   0  0  0  0  0  0  0  0  0  0  0  0
   -3.5686   -3.1361    0.8791 C   0  0  0  0  0  0  0  0  0  0  0  0
   -4.3090   -2.4831    1.3475 H   0  0  0  0  0  0  0  0  0  0  0  0
   -3.8701   -3.3375   -0.1516 H   0  0  0  0  0  0  0  0  0  0  0  0
   -2.2056   -2.4705    0.8979 C   0  0  0  0  0  0  0  0  0  0  0  0
   -1.2643   -3.0182    1.4503 O   0  0  0  0  0  0  0  0  0  0  0  0
   -2.0343   -1.2445    0.2903 N   0  0  0  0  0  0  0  0  0  0  0  0
   -2.8669   -0.7748   -0.0643 H   0  0  0  0  0  0  0  0  0  0  0  0
   -0.8033   -0.4418    0.3610 C   0  0  1  0  0  0  0  0  0  0  0  0
   -0.2084   -0.7524    1.2262 H   0  0  0  0  0  0  0  0  0  0  0  0
    0.0498   -0.7454   -0.9028 C   0  0  0  0  0  0  0  0  0  0  0  0
    0.6249   -1.6496   -0.6775 H   0  0  0  0  0  0  0  0  0  0  0  0
   -0.6441   -1.0090   -1.7080 H   0  0  0  0  0  0  0  0  0  0  0  0
    0.9866    0.2944   -1.5161 C   0  0  0  0  0  0  0  0  0  0  0  0
    2.1319   -0.2009   -2.1676 C   0  0  0  0  0  0  0  0  0  0  0  0
    2.3488   -1.2650   -2.1484 H   0  0  0  0  0  0  0  0  0  0  0  0
    3.0247    0.6466   -2.8312 C   0  0  0  0  0  0  0  0  0  0  0  0
    3.9142    0.2376   -3.3014 H   0  0  0  0  0  0  0  0  0  0  0  0
    2.7673    2.0156   -2.8968 C   0  0  0  0  0  0  0  0  0  0  0  0
    3.4566    2.6779   -3.4126 H   0  0  0  0  0  0  0  0  0  0  0  0
    1.6017    2.5236   -2.3231 C   0  0  0  0  0  0  0  0  0  0  0  0
    1.3735    3.5821   -2.4075 H   0  0  0  0  0  0  0  0  0  0  0  0
    0.7099    1.6709   -1.6631 C   0  0  0  0  0  0  0  0  0  0  0  0
   -0.2088    2.1235   -1.3160 H   0  0  0  0  0  0  0  0  0  0  0  0
   -1.1991    1.0184    0.6455 C   0  0  0  0  0  0  0  0  0  0  0  0
   -2.2073    1.4938    0.1312 O   0  0  0  0  0  0  0  0  0  0  0  0
   -0.5146    1.7567    1.5934 N   0  0  0  0  0  0  0  0  0  0  0  0
    0.3182    1.3401    2.0008 H   0  0  0  0  0  0  0  0  0  0  0  0
   -0.8677    3.1238    1.9545 C   0  0  0  0  0  0  0  0  0  0  0  0
   -1.9030    3.1724    2.3084 H   0  0  0  0  0  0  0  0  0  0  0  0
   -0.2138    3.4842    2.7544 H   0  0  0  0  0  0  0  0  0  0  0  0
   -0.7580    3.7876    1.0907 H   0  0  0  0  0  0  0  0  0  0  0  0
  1  2  1  0  0  0  0
  2  3  1  0  0  0  0
  2  4  1  0  0  0  0
  2  5  1  0  0  0  0
  5  6  2  0  0  0  0
  5  7  1  0  0  0  0
  7  8  1  0  0  0  0
  7  9  1  0  0  0  0
  9 10  1  0  0  0  0
  9 11  1  0  0  0  0
  9 25  1  0  0  0  0
 11 12  1  0  0  0  0
 11 13  1  0  0  0  0
 11 14  1  0  0  0  0
 14 15  1  0  0  0  0
 14 23  2  0  0  0  0
 15 16  1  0  0  0  0
 15 17  2  0  0  0  0
 17 18  1  0  0  0  0
 17 19  1  0  0  0  0
 19 20  1  0  0  0  0
 19 21  2  0  0  0  0
 21 22  1  0  0  0  0
 21 23  1  0  0  0  0
 23 24  1  0  0  0  0
 25 26  2  0  0  0  0
 25 27  1  0  0  0  0
 27 28  1  0  0  0  0
 27 29  1  0  0  0  0
 29 30  1  0  0  0  0
 29 31  1  0  0  0  0
 29 32  1  0  0  0  0
M  END
$$$$

  -OEChem-04042216033D

 32 32  0     1  0  0  0  0  0999 V2000
   -3.4927   -4.1037    1.3621 H   0  0  0  0  0  0  0  0  0  0  0  0
   -3.5293   -3.1502    0.8277 C   0  0  0  0  0  0  0  0  0  0  0  0
   -4.2912   -2.5167    1.2886 H   0  0  0  0  0  0  0  0  0  0  0  0
   -3.8037   -3.3395   -0.2129 H   0  0  0  0  0  0  0  0  0  0  0  0
   -2.1774   -2.4643    0.8887 C   0  0  0  0  0  0  0  0  0  0  0  0
   -1.2424   -3.0033    1.4597 O   0  0  0  0  0  0  0  0  0  0  0  0
   -2.0069   -1.2317    0.2952 N   0  0  0  0  0  0  0  0  0  0  0  0
   -2.8346   -0.7711   -0.0824 H   0  0  0  0  0  0  0  0  0  0  0  0
   -0.7845   -0.4181    0.3957 C   0  0  1  0  0  0  0  0  0  0  0  0
   -0.1828   -0.7299    1.2555 H   0  0  0  0  0  0  0  0  0  0  0  0
    0.0511   -0.6934   -0.8877 C   0  0  0  0  0  0  0  0  0  0  0  0
    0.6255   -1.6034   -0.6837 H   0  0  0  0  0  0  0  0  0  0  0  0
   -0.6611   -0.9435   -1.6814 H   0  0  0  0  0  0  0  0  0  0  0  0
    0.9964    0.3203   -1.5359 C   0  0  0  0  0  0  0  0  0  0  0  0
    1.8972   -0.2183   -2.4741 C   0  0  0  0  0  0  0  0  0  0  0  0
    1.9024   -1.2877   -2.6641 H   0  0  0  0  0  0  0  0  0  0  0  0
    2.8039    0.5845   -3.1723 C   0  0  0  0  0  0  0  0  0  0  0  0
    3.4945    0.1349   -3.8796 H   0  0  0  0  0  0  0  0  0  0  0  0
    2.8167    1.9625   -2.9633 C   0  0  0  0  0  0  0  0  0  0  0  0
    3.5172    2.5910   -3.5051 H   0  0  0  0  0  0  0  0  0  0  0  0
    1.9115    2.5295   -2.0666 C   0  0  0  0  0  0  0  0  0  0  0  0
    1.9010    3.6054   -1.9185 H   0  0  0  0  0  0  0  0  0  0  0  0
    1.0048    1.7228   -1.3692 C   0  0  0  0  0  0  0  0  0  0  0  0
    0.3151    2.2526   -0.7314 H   0  0  0  0  0  0  0  0  0  0  0  0
   -1.2327    1.0257    0.6852 C   0  0  0  0  0  0  0  0  0  0  0  0
   -2.2097    1.4977    0.1126 O   0  0  0  0  0  0  0  0  0  0  0  0
   -0.5939    1.7749    1.6579 N   0  0  0  0  0  0  0  0  0  0  0  0
    0.1986    1.3518    2.1336 H   0  0  0  0  0  0  0  0  0  0  0  0
   -1.0041    3.1231    2.0306 C   0  0  0  0  0  0  0  0  0  0  0  0
   -2.0352    3.1220    2.3995 H   0  0  0  0  0  0  0  0  0  0  0  0
   -0.3549    3.5103    2.8216 H   0  0  0  0  0  0  0  0  0  0  0  0
   -0.9386    3.7958    1.1689 H   0  0  0  0  0  0  0  0  0  0  0  0
  1  2  1  0  0  0  0
  2  3  1  0  0  0  0
  2  4  1  0  0  0  0
  2  5  1  0  0  0  0
  5  6  2  0  0  0  0
  5  7  1  0  0  0  0
  7  8  1  0  0  0  0
  7  9  1  0  0  0  0
  9 10  1  0  0  0  0
  9 11  1  0  0  0  0
  9 25  1  0  0  0  0
 11 12  1  0  0  0  0
 11 13  1  0  0  0  0
 11 14  1  0  0  0  0
 14 15  1  0  0  0  0
 14 23  2  0  0  0  0
 15 16  1  0  0  0  0
 15 17  2  0  0  0  0
 17 18  1  0  0  0  0
 17 19  1  0  0  0  0
 19 20  1  0  0  0  0
 19 21  2  0  0  0  0
 21 22  1  0  0  0  0
 21 23  1  0  0  0  0
 23 24  1  0  0  0  0
 25 26  2  0  0  0  0
 25 27  1  0  0  0  0
 27 28  1  0  0  0  0
 27 29  1  0  0  0  0
 29 30  1  0  0  0  0
 29 31  1  0  0  0  0
 29 32  1  0  0  0  0
M  END
$$$$

  -OEChem-04042216033D

 32 32  0     1  0  0  0  0  0999 V2000
   -3.5868   -4.0081    1.4221 H   0  0  0  0  0  0  0  0  0  0  0  0
   -3.5623   -3.0918    0.8258 C   0  0  0  0  0  0  0  0  0  0  0  0
   -4.3363   -2.4127    1.1913 H   0  0  0  0  0  0  0  0  0  0  0  0
   -3.7712   -3.3438   -0.2167 H   0  0  0  0  0  0  0  0  0  0  0  0
   -2.2007   -2.4320    0.9362 C   0  0  0  0  0  0  0  0  0  0  0  0
   -1.3265   -2.9421    1.6191 O   0  0  0  0  0  0  0  0  0  0  0  0
   -1.9573   -1.2466    0.2758 N   0  0  0  0  0  0  0  0  0  0  0  0
   -2.7438   -0.7948   -0.1907 H   0  0  0  0  0  0  0  0  0  0  0  0
   -0.7255   -0.4532    0.4146 C   0  0  1  0  0  0  0  0  0  0  0  0
   -0.1356   -0.7367    1.2920 H   0  0  0  0  0  0  0  0  0  0  0  0
    0.0715   -0.7356   -0.8848 C   0  0  0  0  0  0  0  0  0  0  0  0
    0.4296   -1.7685   -0.8214 H   0  0  0  0  0  0  0  0  0  0  0  0
   -0.6385   -0.6912   -1.7183 H   0  0  0  0  0  0  0  0  0  0  0  0
    1.2512    0.1329   -1.2987 C   0  0  0  0  0  0  0  0  0  0  0  0
    1.8944   -0.2150   -2.4994 C   0  0  0  0  0  0  0  0  0  0  0  0
    1.4984   -1.0235   -3.1070 H   0  0  0  0  0  0  0  0  0  0  0  0
    3.0303    0.4686   -2.9449 C   0  0  0  0  0  0  0  0  0  0  0  0
    3.4964    0.1926   -3.8864 H   0  0  0  0  0  0  0  0  0  0  0  0
    3.5676    1.5010   -2.1753 C   0  0  0  0  0  0  0  0  0  0  0  0
    4.4495    2.0348   -2.5174 H   0  0  0  0  0  0  0  0  0  0  0  0
    2.9775    1.8286   -0.9537 C   0  0  0  0  0  0  0  0  0  0  0  0
    3.4096    2.6123   -0.3386 H   0  0  0  0  0  0  0  0  0  0  0  0
    1.8433    1.1380   -0.5114 C   0  0  0  0  0  0  0  0  0  0  0  0
    1.4686    1.3918    0.4666 H   0  0  0  0  0  0  0  0  0  0  0  0
   -1.2044    1.0106    0.5711 C   0  0  0  0  0  0  0  0  0  0  0  0
   -2.1116    1.4345   -0.1388 O   0  0  0  0  0  0  0  0  0  0  0  0
   -0.6676    1.8485    1.5333 N   0  0  0  0  0  0  0  0  0  0  0  0
    0.0092    1.4499    2.1777 H   0  0  0  0  0  0  0  0  0  0  0  0
   -1.1181    3.2188    1.7439 C   0  0  0  0  0  0  0  0  0  0  0  0
   -2.1849    3.2389    1.9903 H   0  0  0  0  0  0  0  0  0  0  0  0
   -0.5640    3.6766    2.5689 H   0  0  0  0  0  0  0  0  0  0  0  0
   -0.9526    3.8177    0.8423 H   0  0  0  0  0  0  0  0  0  0  0  0
  1  2  1  0  0  0  0
  2  3  1  0  0  0  0
  2  4  1  0  0  0  0
  2  5  1  0  0  0  0
  5  6  2  0  0  0  0
  5  7  1  0  0  0  0
  7  8  1  0  0  0  0
  7  9  1  0  0  0  0
  9 10  1  0  0  0  0
  9 11  1  0  0  0  0
  9 25  1  0  0  0  0
 11 12  1  0  0  0  0
 11 13  1  0  0  0  0
 11 14  1  0  0  0  0
 14 15  1  0  0  0  0
 14 23  2  0  0  0  0
 15 16  1  0  0  0  0
 15 17  2  0  0  0  0
 17 18  1  0  0  0  0
 17 19  1  0  0  0  0
 19 20  1  0  0  0  0
 19 21  2  0  0  0  0
 21 22  1  0  0  0  0
 21 23  1  0  0  0  0
 23 24  1  0  0  0  0
 25 26  2  0  0  0  0
 25 27  1  0  0  0  0
 27 28  1  0  0  0  0
 27 29  1  0  0  0  0
 29 30  1  0  0  0  0
 29 31  1  0  0  0  0
 29 32  1  0  0  0  0
M  END
$$$$

  -OEChem-04042216033D

 32 32  0     1  0  0  0  0  0999 V2000
   -3.6306   -3.9852    1.5268 H   0  0  0  0  0  0  0  0  0  0  0  0
   -3.6052   -3.0847    0.9067 C   0  0  0  0  0  0  0  0  0  0  0  0
   -4.3626   -2.3855    1.2696 H   0  0  0  0  0  0  0  0  0  0  0  0
   -3.8379   -3.3604   -0.1248 H   0  0  0  0  0  0  0  0  0  0  0  0
   -2.2321   -2.4427    0.9732 C   0  0  0  0  0  0  0  0  0  0  0  0
   -1.3517   -2.9495    1.6506 O   0  0  0  0  0  0  0  0  0  0  0  0
   -1.9839   -1.2800    0.2752 N   0  0  0  0  0  0  0  0  0  0  0  0
   -2.7734   -0.8279   -0.1855 H   0  0  0  0  0  0  0  0  0  0  0  0
   -0.7396   -0.5012    0.3708 C   0  0  1  0  0  0  0  0  0  0  0  0
   -0.1436   -0.7787    1.2460 H   0  0  0  0  0  0  0  0  0  0  0  0
    0.0485   -0.7896   -0.9277 C   0  0  0  0  0  0  0  0  0  0  0  0
    0.4255   -1.8160   -0.8711 H   0  0  0  0  0  0  0  0  0  0  0  0
   -0.6582   -0.7485   -1.7639 H   0  0  0  0  0  0  0  0  0  0  0  0
    1.2121    0.1200   -1.2820 C   0  0  0  0  0  0  0  0  0  0  0  0
    1.7109    0.0683   -2.5938 C   0  0  0  0  0  0  0  0  0  0  0  0
    1.2092   -0.5437   -3.3376 H   0  0  0  0  0  0  0  0  0  0  0  0
    2.8354    0.8097   -2.9713 C   0  0  0  0  0  0  0  0  0  0  0  0
    3.1885    0.7758   -3.9977 H   0  0  0  0  0  0  0  0  0  0  0  0
    3.5074    1.5872   -2.0263 C   0  0  0  0  0  0  0  0  0  0  0  0
    4.3813    2.1630   -2.3163 H   0  0  0  0  0  0  0  0  0  0  0  0
    3.0658    1.6007   -0.7017 C   0  0  0  0  0  0  0  0  0  0  0  0
    3.6065    2.1773    0.0430 H   0  0  0  0  0  0  0  0  0  0  0  0
    1.9418    0.8554   -0.3295 C   0  0  0  0  0  0  0  0  0  0  0  0
    1.6711    0.8392    0.7178 H   0  0  0  0  0  0  0  0  0  0  0  0
   -1.1662    0.9819    0.4948 C   0  0  0  0  0  0  0  0  0  0  0  0
   -2.0863    1.4086   -0.1966 O   0  0  0  0  0  0  0  0  0  0  0  0
   -0.5822    1.8280    1.4213 N   0  0  0  0  0  0  0  0  0  0  0  0
    0.1243    1.4375    2.0370 H   0  0  0  0  0  0  0  0  0  0  0  0
   -0.9685    3.2236    1.5886 C   0  0  0  0  0  0  0  0  0  0  0  0
   -2.0338    3.3011    1.8305 H   0  0  0  0  0  0  0  0  0  0  0  0
   -0.3959    3.6794    2.4021 H   0  0  0  0  0  0  0  0  0  0  0  0
   -0.7728    3.7866    0.6698 H   0  0  0  0  0  0  0  0  0  0  0  0
  1  2  1  0  0  0  0
  2  3  1  0  0  0  0
  2  4  1  0  0  0  0
  2  5  1  0  0  0  0
  5  6  2  0  0  0  0
  5  7  1  0  0  0  0
  7  8  1  0  0  0  0
  7  9  1  0  0  0  0
  9 10  1  0  0  0  0
  9 11  1  0  0  0  0
  9 25  1  0  0  0  0
 11 12  1  0  0  0  0
 11 13  1  0  0  0  0
 11 14  1  0  0  0  0
 14 15  1  0  0  0  0
 14 23  2  0  0  0  0
 15 16  1  0  0  0  0
 15 17  2  0  0  0  0
 17 18  1  0  0  0  0
 17 19  1  0  0  0  0
 19 20  1  0  0  0  0
 19 21  2  0  0  0  0
 21 22  1  0  0  0  0
 21 23  1  0  0  0  0
 23 24  1  0  0  0  0
 25 26  2  0  0  0  0
 25 27  1  0  0  0  0
 27 28  1  0  0  0  0
 27 29  1  0  0  0  0
 29 30  1  0  0  0  0
 29 31  1  0  0  0  0
 29 32  1  0  0  0  0
M  END
$$$$

  -OEChem-04042216033D

 32 32  0     1  0  0  0  0  0999 V2000
   -3.6661   -3.9698    1.6033 H   0  0  0  0  0  0  0  0  0  0  0  0
   -3.6390   -3.0804    0.9675 C   0  0  0  0  0  0  0  0  0  0  0  0
   -4.3750   -2.3616    1.3357 H   0  0  0  0  0  0  0  0  0  0  0  0
   -3.9004   -3.3691   -0.0534 H   0  0  0  0  0  0  0  0  0  0  0  0
   -2.2544   -2.4610    0.9917 C   0  0  0  0  0  0  0  0  0  0  0  0
   -1.3661   -2.9728    1.6549 O   0  0  0  0  0  0  0  0  0  0  0  0
   -2.0066   -1.3109    0.2730 N   0  0  0  0  0  0  0  0  0  0  0  0
   -2.8019   -0.8526   -0.1711 H   0  0  0  0  0  0  0  0  0  0  0  0
   -0.7536   -0.5440    0.3364 C   0  0  1  0  0  0  0  0  0  0  0  0
   -0.1585   -0.8205    1.2123 H   0  0  0  0  0  0  0  0  0  0  0  0
    0.0364   -0.8413   -0.9556 C   0  0  0  0  0  0  0  0  0  0  0  0
    0.4250   -1.8632   -0.8984 H   0  0  0  0  0  0  0  0  0  0  0  0
   -0.6636   -0.8052   -1.7973 H   0  0  0  0  0  0  0  0  0  0  0  0
    1.1877    0.0982   -1.2626 C   0  0  0  0  0  0  0  0  0  0  0  0
    1.5338    0.3392   -2.6015 C   0  0  0  0  0  0  0  0  0  0  0  0
    0.9344   -0.0846   -3.4018 H   0  0  0  0  0  0  0  0  0  0  0  0
    2.6353    1.1376   -2.9272 C   0  0  0  0  0  0  0  0  0  0  0  0
    2.8743    1.3333   -3.9682 H   0  0  0  0  0  0  0  0  0  0  0  0
    3.4310    1.6778   -1.9142 C   0  0  0  0  0  0  0  0  0  0  0  0
    4.2873    2.2965   -2.1665 H   0  0  0  0  0  0  0  0  0  0  0  0
    3.1332    1.4023   -0.5774 C   0  0  0  0  0  0  0  0  0  0  0  0
    3.7678    1.7973    0.2105 H   0  0  0  0  0  0  0  0  0  0  0  0
    2.0298    0.6045   -0.2556 C   0  0  0  0  0  0  0  0  0  0  0  0
    1.8496    0.3691    0.7871 H   0  0  0  0  0  0  0  0  0  0  0  0
   -1.1327    0.9510    0.4470 C   0  0  0  0  0  0  0  0  0  0  0  0
   -2.0657    1.3914   -0.2178 O   0  0  0  0  0  0  0  0  0  0  0  0
   -0.5011    1.7856    1.3514 N   0  0  0  0  0  0  0  0  0  0  0  0
    0.2644    1.3991    1.8943 H   0  0  0  0  0  0  0  0  0  0  0  0
   -0.8114    3.2033    1.4824 C   0  0  0  0  0  0  0  0  0  0  0  0
   -1.8712    3.3448    1.7195 H   0  0  0  0  0  0  0  0  0  0  0  0
   -0.2163    3.6473    2.2861 H   0  0  0  0  0  0  0  0  0  0  0  0
   -0.5847    3.7311    0.5502 H   0  0  0  0  0  0  0  0  0  0  0  0
  1  2  1  0  0  0  0
  2  3  1  0  0  0  0
  2  4  1  0  0  0  0
  2  5  1  0  0  0  0
  5  6  2  0  0  0  0
  5  7  1  0  0  0  0
  7  8  1  0  0  0  0
  7  9  1  0  0  0  0
  9 10  1  0  0  0  0
  9 11  1  0  0  0  0
  9 25  1  0  0  0  0
 11 12  1  0  0  0  0
 11 13  1  0  0  0  0
 11 14  1  0  0  0  0
 14 15  1  0  0  0  0
 14 23  2  0  0  0  0
 15 16  1  0  0  0  0
 15 17  2  0  0  0  0
 17 18  1  0  0  0  0
 17 19  1  0  0  0  0
 19 20  1  0  0  0  0
 19 21  2  0  0  0  0
 21 22  1  0  0  0  0
 21 23  1  0  0  0  0
 23 24  1  0  0  0  0
 25 26  2  0  0  0  0
 25 27  1  0  0  0  0
 27 28  1  0  0  0  0
 27 29  1  0  0  0  0
 29 30  1  0  0  0  0
 29 31  1  0  0  0  0
 29 32  1  0  0  0  0
M  END
$$$$

  -OEChem-04042216033D

 32 32  0     1  0  0  0  0  0999 V2000
   -3.6846   -3.9612    1.6564 H   0  0  0  0  0  0  0  0  0  0  0  0
   -3.6582   -3.0817    1.0070 C   0  0  0  0  0  0  0  0  0  0  0  0
   -4.3841   -2.3517    1.3733 H   0  0  0  0  0  0  0  0  0  0  0  0
   -3.9346   -3.3833   -0.0062 H   0  0  0  0  0  0  0  0  0  0  0  0
   -2.2680   -2.4740    1.0046 C   0  0  0  0  0  0  0  0  0  0  0  0
   -1.3715   -2.9953    1.6495 O   0  0  0  0  0  0  0  0  0  0  0  0
   -2.0212   -1.3314    0.2735 N   0  0  0  0  0  0  0  0  0  0  0  0
   -2.8206   -0.8659   -0.1553 H   0  0  0  0  0  0  0  0  0  0  0  0
   -0.7599   -0.5768    0.3089 C   0  0  1  0  0  0  0  0  0  0  0  0
   -0.1616   -0.8542    1.1822 H   0  0  0  0  0  0  0  0  0  0  0  0
    0.0261   -0.8859   -0.9798 C   0  0  0  0  0  0  0  0  0  0  0  0
    0.4232   -1.9040   -0.9180 H   0  0  0  0  0  0  0  0  0  0  0  0
   -0.6685   -0.8570   -1.8260 H   0  0  0  0  0  0  0  0  0  0  0  0
    1.1663    0.0743   -1.2510 C   0  0  0  0  0  0  0  0  0  0  0  0
    1.3543    0.5989   -2.5389 C   0  0  0  0  0  0  0  0  0  0  0  0
    0.6512    0.3627   -3.3322 H   0  0  0  0  0  0  0  0  0  0  0  0
    2.4341    1.4445   -2.8152 C   0  0  0  0  0  0  0  0  0  0  0  0
    2.5575    1.8573   -3.8122 H   0  0  0  0  0  0  0  0  0  0  0  0
    3.3554    1.7541   -1.8110 C   0  0  0  0  0  0  0  0  0  0  0  0
    4.1952    2.4083   -2.0263 H   0  0  0  0  0  0  0  0  0  0  0  0
    3.2021    1.2070   -0.5345 C   0  0  0  0  0  0  0  0  0  0  0  0
    3.9294    1.4292    0.2408 H   0  0  0  0  0  0  0  0  0  0  0  0
    2.1215    0.3621   -0.2605 C   0  0  0  0  0  0  0  0  0  0  0  0
    2.0395   -0.0811    0.7265 H   0  0  0  0  0  0  0  0  0  0  0  0
   -1.1004    0.9267    0.4153 C   0  0  0  0  0  0  0  0  0  0  0  0
   -2.0446    1.3809   -0.2242 O   0  0  0  0  0  0  0  0  0  0  0  0
   -0.4281    1.7484    1.3019 N   0  0  0  0  0  0  0  0  0  0  0  0
    0.3891    1.3629    1.7647 H   0  0  0  0  0  0  0  0  0  0  0  0
   -0.6723    3.1820    1.3943 C   0  0  0  0  0  0  0  0  0  0  0  0
   -1.7244    3.3790    1.6259 H   0  0  0  0  0  0  0  0  0  0  0  0
   -0.0583    3.6197    2.1871 H   0  0  0  0  0  0  0  0  0  0  0  0
   -0.4212    3.6726    0.4480 H   0  0  0  0  0  0  0  0  0  0  0  0
  1  2  1  0  0  0  0
  2  3  1  0  0  0  0
  2  4  1  0  0  0  0
  2  5  1  0  0  0  0
  5  6  2  0  0  0  0
  5  7  1  0  0  0  0
  7  8  1  0  0  0  0
  7  9  1  0  0  0  0
  9 10  1  0  0  0  0
  9 11  1  0  0  0  0
  9 25  1  0  0  0  0
 11 12  1  0  0  0  0
 11 13  1  0  0  0  0
 11 14  1  0  0  0  0
 14 15  1  0  0  0  0
 14 23  2  0  0  0  0
 15 16  1  0  0  0  0
 15 17  2  0  0  0  0
 17 18  1  0  0  0  0
 17 19  1  0  0  0  0
 19 20  1  0  0  0  0
 19 21  2  0  0  0  0
 21 22  1  0  0  0  0
 21 23  1  0  0  0  0
 23 24  1  0  0  0  0
 25 26  2  0  0  0  0
 25 27  1  0  0  0  0
 27 28  1  0  0  0  0
 27 29  1  0  0  0  0
 29 30  1  0  0  0  0
 29 31  1  0  0  0  0
 29 32  1  0  0  0  0
M  END
$$$$

  -OEChem-04042216033D

 32 32  0     1  0  0  0  0  0999 V2000
   -3.6925   -3.9445    1.6912 H   0  0  0  0  0  0  0  0  0  0  0  0
   -3.6661   -3.0702    1.0347 C   0  0  0  0  0  0  0  0  0  0  0  0
   -4.3775   -2.3290    1.4068 H   0  0  0  0  0  0  0  0  0  0  0  0
   -3.9614   -3.3757    0.0281 H   0  0  0  0  0  0  0  0  0  0  0  0
   -2.2692   -2.4792    1.0050 C   0  0  0  0  0  0  0  0  0  0  0  0
   -1.3671   -3.0094    1.6346 O   0  0  0  0  0  0  0  0  0  0  0  0
   -2.0229   -1.3420    0.2653 N   0  0  0  0  0  0  0  0  0  0  0  0
   -2.8242   -0.8698   -0.1521 H   0  0  0  0  0  0  0  0  0  0  0  0
   -0.7546   -0.5995    0.2815 C   0  0  1  0  0  0  0  0  0  0  0  0
   -0.1509   -0.8767    1.1513 H   0  0  0  0  0  0  0  0  0  0  0  0
    0.0245   -0.9227   -1.0059 C   0  0  0  0  0  0  0  0  0  0  0  0
    0.4212   -1.9410   -0.9422 H   0  0  0  0  0  0  0  0  0  0  0  0
   -0.6659   -0.8941   -1.8553 H   0  0  0  0  0  0  0  0  0  0  0  0
    1.1586    0.0466   -1.2545 C   0  0  0  0  0  0  0  0  0  0  0  0
    1.1934    0.8261   -2.4202 C   0  0  0  0  0  0  0  0  0  0  0  0
    0.3865    0.7617   -3.1446 H   0  0  0  0  0  0  0  0  0  0  0  0
    2.2549    1.7070   -2.6537 C   0  0  0  0  0  0  0  0  0  0  0  0
    2.2659    2.3146   -3.5537 H   0  0  0  0  0  0  0  0  0  0  0  0
    3.3003    1.8044   -1.7307 C   0  0  0  0  0  0  0  0  0  0  0  0
    4.1244    2.4876   -1.9139 H   0  0  0  0  0  0  0  0  0  0  0  0
    3.2874    1.0144   -0.5777 C   0  0  0  0  0  0  0  0  0  0  0  0
    4.1067    1.0783    0.1325 H   0  0  0  0  0  0  0  0  0  0  0  0
    2.2247    0.1350   -0.3447 C   0  0  0  0  0  0  0  0  0  0  0  0
    2.2355   -0.4888    0.5443 H   0  0  0  0  0  0  0  0  0  0  0  0
   -1.0704    0.9093    0.3859 C   0  0  0  0  0  0  0  0  0  0  0  0
   -2.0173    1.3751   -0.2413 O   0  0  0  0  0  0  0  0  0  0  0  0
   -0.3714    1.7210    1.2608 N   0  0  0  0  0  0  0  0  0  0  0  0
    0.4583    1.3262    1.6934 H   0  0  0  0  0  0  0  0  0  0  0  0
   -0.5858    3.1598    1.3478 C   0  0  0  0  0  0  0  0  0  0  0  0
   -1.6305    3.3788    1.5924 H   0  0  0  0  0  0  0  0  0  0  0  0
    0.0471    3.5901    2.1297 H   0  0  0  0  0  0  0  0  0  0  0  0
   -0.3376    3.6403    0.3956 H   0  0  0  0  0  0  0  0  0  0  0  0
  1  2  1  0  0  0  0
  2  3  1  0  0  0  0
  2  4  1  0  0  0  0
  2  5  1  0  0  0  0
  5  6  2  0  0  0  0
  5  7  1  0  0  0  0
  7  8  1  0  0  0  0
  7  9  1  0  0  0  0
  9 10  1  0  0  0  0
  9 11  1  0  0  0  0
  9 25  1  0  0  0  0
 11 12  1  0  0  0  0
 11 13  1  0  0  0  0
 11 14  1  0  0  0  0
 14 15  1  0  0  0  0
 14 23  2  0  0  0  0
 15 16  1  0  0  0  0
 15 17  2  0  0  0  0
 17 18  1  0  0  0  0
 17 19  1  0  0  0  0
 19 20  1  0  0  0  0
 19 21  2  0  0  0  0
 21 22  1  0  0  0  0
 21 23  1  0  0  0  0
 23 24  1  0  0  0  0
 25 26  2  0  0  0  0
 25 27  1  0  0  0  0
 27 28  1  0  0  0  0
 27 29  1  0  0  0  0
 29 30  1  0  0  0  0
 29 31  1  0  0  0  0
 29 32  1  0  0  0  0
M  END
$$$$

  -OEChem-04042216033D

 32 32  0     1  0  0  0  0  0999 V2000
   -3.6998   -3.9406    1.6908 H   0  0  0  0  0  0  0  0  0  0  0  0
   -3.6701   -3.0699    1.0298 C   0  0  0  0  0  0  0  0  0  0  0  0
   -4.3794   -2.3245    1.3971 H   0  0  0  0  0  0  0  0  0  0  0  0
   -3.9658   -3.3800    0.0247 H   0  0  0  0  0  0  0  0  0  0  0  0
   -2.2716   -2.4826    0.9994 C   0  0  0  0  0  0  0  0  0  0  0  0
   -1.3697   -3.0160    1.6268 O   0  0  0  0  0  0  0  0  0  0  0  0
   -2.0239   -1.3448    0.2611 N   0  0  0  0  0  0  0  0  0  0  0  0
   -2.8253   -0.8699   -0.1532 H   0  0  0  0  0  0  0  0  0  0  0  0
   -0.7529   -0.6070    0.2716 C   0  0  1  0  0  0  0  0  0  0  0  0
   -0.1473   -0.8873    1.1397 H   0  0  0  0  0  0  0  0  0  0  0  0
    0.0238   -0.9411   -1.0135 C   0  0  0  0  0  0  0  0  0  0  0  0
    0.4163   -1.9608   -0.9448 H   0  0  0  0  0  0  0  0  0  0  0  0
   -0.6622   -0.9135   -1.8668 H   0  0  0  0  0  0  0  0  0  0  0  0
    1.1567    0.0283   -1.2579 C   0  0  0  0  0  0  0  0  0  0  0  0
    1.0541    1.0203   -2.2445 C   0  0  0  0  0  0  0  0  0  0  0  0
    0.1486    1.1068   -2.8387 H   0  0  0  0  0  0  0  0  0  0  0  0
    2.1052    1.9180   -2.4588 C   0  0  0  0  0  0  0  0  0  0  0  0
    2.0130    2.6873   -3.2199 H   0  0  0  0  0  0  0  0  0  0  0  0
    3.2717    1.8252   -1.6935 C   0  0  0  0  0  0  0  0  0  0  0  0
    4.0889    2.5203   -1.8624 H   0  0  0  0  0  0  0  0  0  0  0  0
    3.3861    0.8338   -0.7141 C   0  0  0  0  0  0  0  0  0  0  0  0
    4.2946    0.7557   -0.1242 H   0  0  0  0  0  0  0  0  0  0  0  0
    2.3329   -0.0613   -0.4986 C   0  0  0  0  0  0  0  0  0  0  0  0
    2.4333   -0.8334    0.2590 H   0  0  0  0  0  0  0  0  0  0  0  0
   -1.0532    0.9038    0.3803 C   0  0  0  0  0  0  0  0  0  0  0  0
   -1.9913    1.3829   -0.2499 O   0  0  0  0  0  0  0  0  0  0  0  0
   -0.3399    1.7050    1.2529 N   0  0  0  0  0  0  0  0  0  0  0  0
    0.4863    1.2975    1.6811 H   0  0  0  0  0  0  0  0  0  0  0  0
   -0.5286    3.1474    1.3364 C   0  0  0  0  0  0  0  0  0  0  0  0
   -1.5698    3.3856    1.5784 H   0  0  0  0  0  0  0  0  0  0  0  0
    0.1107    3.5672    2.1189 H   0  0  0  0  0  0  0  0  0  0  0  0
   -0.2700    3.6220    0.3839 H   0  0  0  0  0  0  0  0  0  0  0  0
  1  2  1  0  0  0  0
  2  3  1  0  0  0  0
  2  4  1  0  0  0  0
  2  5  1  0  0  0  0
  5  6  2  0  0  0  0
  5  7  1  0  0  0  0
  7  8  1  0  0  0  0
  7  9  1  0  0  0  0
  9 10  1  0  0  0  0
  9 11  1  0  0  0  0
  9 25  1  0  0  0  0
 11 12  1  0  0  0  0
 11 13  1  0  0  0  0
 11 14  1  0  0  0  0
 14 15  1  0  0  0  0
 14 23  2  0  0  0  0
 15 16  1  0  0  0  0
 15 17  2  0  0  0  0
 17 18  1  0  0  0  0
 17 19  1  0  0  0  0
 19 20  1  0  0  0  0
 19 21  2  0  0  0  0
 21 22  1  0  0  0  0
 21 23  1  0  0  0  0
 23 24  1  0  0  0  0
 25 26  2  0  0  0  0
 25 27  1  0  0  0  0
 27 28  1  0  0  0  0
 27 29  1  0  0  0  0
 29 30  1  0  0  0  0
 29 31  1  0  0  0  0
 29 32  1  0  0  0  0
M  END
$$$$

  -OEChem-04042216033D

 32 32  0     1  0  0  0  0  0999 V2000
   -3.6984   -3.9450    1.6725 H   0  0  0  0  0  0  0  0  0  0  0  0
   -3.6715   -3.0708    1.0161 C   0  0  0  0  0  0  0  0  0  0  0  0
   -4.3824   -2.3289    1.3877 H   0  0  0  0  0  0  0  0  0  0  0  0
   -3.9670   -3.3764    0.0094 H   0  0  0  0  0  0  0  0  0  0  0  0
   -2.2739   -2.4812    0.9889 C   0  0  0  0  0  0  0  0  0  0  0  0
   -1.3703   -3.0213    1.6080 O   0  0  0  0  0  0  0  0  0  0  0  0
   -2.0280   -1.3372    0.2596 N   0  0  0  0  0  0  0  0  0  0  0  0
   -2.8298   -0.8624   -0.1534 H   0  0  0  0  0  0  0  0  0  0  0  0
   -0.7571   -0.5987    0.2719 C   0  0  1  0  0  0  0  0  0  0  0  0
   -0.1535   -0.8827    1.1401 H   0  0  0  0  0  0  0  0  0  0  0  0
    0.0262   -0.9433   -1.0079 C   0  0  0  0  0  0  0  0  0  0  0  0
    0.4081   -1.9665   -0.9321 H   0  0  0  0  0  0  0  0  0  0  0  0
   -0.6557   -0.9158   -1.8644 H   0  0  0  0  0  0  0  0  0  0  0  0
    1.1645    0.0165   -1.2684 C   0  0  0  0  0  0  0  0  0  0  0  0
    0.9691    1.1762   -2.0345 C   0  0  0  0  0  0  0  0  0  0  0  0
   -0.0094    1.3904   -2.4567 H   0  0  0  0  0  0  0  0  0  0  0  0
    2.0219    2.0717   -2.2485 C   0  0  0  0  0  0  0  0  0  0  0  0
    1.8579    2.9674   -2.8405 H   0  0  0  0  0  0  0  0  0  0  0  0
    3.2816    1.8142   -1.6994 C   0  0  0  0  0  0  0  0  0  0  0  0
    4.0997    2.5085   -1.8676 H   0  0  0  0  0  0  0  0  0  0  0  0
    3.4861    0.6613   -0.9353 C   0  0  0  0  0  0  0  0  0  0  0  0
    4.4646    0.4587   -0.5099 H   0  0  0  0  0  0  0  0  0  0  0  0
    2.4313   -0.2326   -0.7205 C   0  0  0  0  0  0  0  0  0  0  0  0
    2.6003   -1.1255   -0.1253 H   0  0  0  0  0  0  0  0  0  0  0  0
   -1.0557    0.9108    0.3938 C   0  0  0  0  0  0  0  0  0  0  0  0
   -1.9912    1.3980   -0.2342 O   0  0  0  0  0  0  0  0  0  0  0  0
   -0.3382    1.7036    1.2706 N   0  0  0  0  0  0  0  0  0  0  0  0
    0.4860    1.2891    1.6965 H   0  0  0  0  0  0  0  0  0  0  0  0
   -0.5217    3.1460    1.3665 C   0  0  0  0  0  0  0  0  0  0  0  0
   -1.5623    3.3865    1.6088 H   0  0  0  0  0  0  0  0  0  0  0  0
    0.1177    3.5564    2.1539 H   0  0  0  0  0  0  0  0  0  0  0  0
   -0.2594    3.6275    0.4186 H   0  0  0  0  0  0  0  0  0  0  0  0
  1  2  1  0  0  0  0
  2  3  1  0  0  0  0
  2  4  1  0  0  0  0
  2  5  1  0  0  0  0
  5  6  2  0  0  0  0
  5  7  1  0  0  0  0
  7  8  1  0  0  0  0
  7  9  1  0  0  0  0
  9 10  1  0  0  0  0
  9 11  1  0  0  0  0
  9 25  1  0  0  0  0
 11 12  1  0  0  0  0
 11 13  1  0  0  0  0
 11 14  1  0  0  0  0
 14 15  1  0  0  0  0
 14 23  2  0  0  0  0
 15 16  1  0  0  0  0
 15 17  2  0  0  0  0
 17 18  1  0  0  0  0
 17 19  1  0  0  0  0
 19 20  1  0  0  0  0
 19 21  2  0  0  0  0
 21 22  1  0  0  0  0
 21 23  1  0  0  0  0
 23 24  1  0  0  0  0
 25 26  2  0  0  0  0
 25 27  1  0  0  0  0
 27 28  1  0  0  0  0
 27 29  1  0  0  0  0
 29 30  1  0  0  0  0
 29 31  1  0  0  0  0
 29 32  1  0  0  0  0
M  END
$$$$

  -OEChem-04042216033D

 32 32  0     1  0  0  0  0  0999 V2000
   -3.6780   -3.9605    1.6467 H   0  0  0  0  0  0  0  0  0  0  0  0
   -3.6599   -3.0785    1.0005 C   0  0  0  0  0  0  0  0  0  0  0  0
   -4.3750   -2.3468    1.3844 H   0  0  0  0  0  0  0  0  0  0  0  0
   -3.9578   -3.3745   -0.0083 H   0  0  0  0  0  0  0  0  0  0  0  0
   -2.2665   -2.4786    0.9732 C   0  0  0  0  0  0  0  0  0  0  0  0
   -1.3550   -3.0225    1.5768 O   0  0  0  0  0  0  0  0  0  0  0  0
   -2.0333   -1.3204    0.2621 N   0  0  0  0  0  0  0  0  0  0  0  0
   -2.8409   -0.8461   -0.1400 H   0  0  0  0  0  0  0  0  0  0  0  0
   -0.7686   -0.5707    0.2802 C   0  0  1  0  0  0  0  0  0  0  0  0
   -0.1677   -0.8558    1.1500 H   0  0  0  0  0  0  0  0  0  0  0  0
    0.0292   -0.9257   -0.9920 C   0  0  0  0  0  0  0  0  0  0  0  0
    0.3999   -1.9519   -0.9010 H   0  0  0  0  0  0  0  0  0  0  0  0
   -0.6515   -0.9066   -1.8495 H   0  0  0  0  0  0  0  0  0  0  0  0
    1.1767    0.0159   -1.2953 C   0  0  0  0  0  0  0  0  0  0  0  0
    0.9584    1.2998   -1.8233 C   0  0  0  0  0  0  0  0  0  0  0  0
   -0.0491    1.6273   -2.0659 H   0  0  0  0  0  0  0  0  0  0  0  0
    2.0291    2.1703   -2.0501 C   0  0  0  0  0  0  0  0  0  0  0  0
    1.8447    3.1588   -2.4604 H   0  0  0  0  0  0  0  0  0  0  0  0
    3.3332    1.7676   -1.7505 C   0  0  0  0  0  0  0  0  0  0  0  0
    4.1655    2.4427   -1.9278 H   0  0  0  0  0  0  0  0  0  0  0  0
    3.5638    0.4936   -1.2240 C   0  0  0  0  0  0  0  0  0  0  0  0
    4.5764    0.1773   -0.9910 H   0  0  0  0  0  0  0  0  0  0  0  0
    2.4907   -0.3746   -0.9953 C   0  0  0  0  0  0  0  0  0  0  0  0
    2.6845   -1.3584   -0.5776 H   0  0  0  0  0  0  0  0  0  0  0  0
   -1.0830    0.9318    0.4284 C   0  0  0  0  0  0  0  0  0  0  0  0
   -2.0293    1.4195   -0.1826 O   0  0  0  0  0  0  0  0  0  0  0  0
   -0.3692    1.7169    1.3151 N   0  0  0  0  0  0  0  0  0  0  0  0
    0.4587    1.3025    1.7340 H   0  0  0  0  0  0  0  0  0  0  0  0
   -0.5723    3.1541    1.4449 C   0  0  0  0  0  0  0  0  0  0  0  0
   -1.6152    3.3746    1.6964 H   0  0  0  0  0  0  0  0  0  0  0  0
    0.0647    3.5551    2.2391 H   0  0  0  0  0  0  0  0  0  0  0  0
   -0.3204    3.6611    0.5076 H   0  0  0  0  0  0  0  0  0  0  0  0
  1  2  1  0  0  0  0
  2  3  1  0  0  0  0
  2  4  1  0  0  0  0
  2  5  1  0  0  0  0
  5  6  2  0  0  0  0
  5  7  1  0  0  0  0
  7  8  1  0  0  0  0
  7  9  1  0  0  0  0
  9 10  1  0  0  0  0
  9 11  1  0  0  0  0
  9 25  1  0  0  0  0
 11 12  1  0  0  0  0
 11 13  1  0  0  0  0
 11 14  1  0  0  0  0
 14 15  1  0  0  0  0
 14 23  2  0  0  0  0
 15 16  1  0  0  0  0
 15 17  2  0  0  0  0
 17 18  1  0  0  0  0
 17 19  1  0  0  0  0
 19 20  1  0  0  0  0
 19 21  2  0  0  0  0
 21 22  1  0  0  0  0
 21 23  1  0  0  0  0
 23 24  1  0  0  0  0
 25 26  2  0  0  0  0
 25 27  1  0  0  0  0
 27 28  1  0  0  0  0
 27 29  1  0  0  0  0
 29 30  1  0  0  0  0
 29 31  1  0  0  0  0
 29 32  1  0  0  0  0
M  END
$$$$

  -OEChem-04042216033D

 32 32  0     1  0  0  0  0  0999 V2000
   -3.6330   -3.9906    1.6016 H   0  0  0  0  0  0  0  0  0  0  0  0
   -3.6296   -3.0927    0.9770 C   0  0  0  0  0  0  0  0  0  0  0  0
   -4.3525   -2.3799    1.3815 H   0  0  0  0  0  0  0  0  0  0  0  0
   -3.9284   -3.3679   -0.0375 H   0  0  0  0  0  0  0  0  0  0  0  0
   -2.2448   -2.4724    0.9581 C   0  0  0  0  0  0  0  0  0  0  0  0
   -1.3241   -3.0131    1.5504 O   0  0  0  0  0  0  0  0  0  0  0  0
   -2.0308   -1.2975    0.2687 N   0  0  0  0  0  0  0  0  0  0  0  0
   -2.8466   -0.8294   -0.1244 H   0  0  0  0  0  0  0  0  0  0  0  0
   -0.7787   -0.5264    0.3006 C   0  0  1  0  0  0  0  0  0  0  0  0
   -0.1809   -0.8089    1.1732 H   0  0  0  0  0  0  0  0  0  0  0  0
    0.0366   -0.8859   -0.9642 C   0  0  0  0  0  0  0  0  0  0  0  0
    0.3979   -1.9135   -0.8529 H   0  0  0  0  0  0  0  0  0  0  0  0
   -0.6463   -0.8817   -1.8202 H   0  0  0  0  0  0  0  0  0  0  0  0
    1.1943    0.0321   -1.3240 C   0  0  0  0  0  0  0  0  0  0  0  0
    1.0306    1.4005   -1.6097 C   0  0  0  0  0  0  0  0  0  0  0  0
    0.0410    1.8435   -1.6664 H   0  0  0  0  0  0  0  0  0  0  0  0
    2.1348    2.2181   -1.8711 C   0  0  0  0  0  0  0  0  0  0  0  0
    1.9867    3.2698   -2.0984 H   0  0  0  0  0  0  0  0  0  0  0  0
    3.4240    1.6817   -1.8493 C   0  0  0  0  0  0  0  0  0  0  0  0
    4.2816    2.3157   -2.0547 H   0  0  0  0  0  0  0  0  0  0  0  0
    3.6053    0.3257   -1.5681 C   0  0  0  0  0  0  0  0  0  0  0  0
    4.6060   -0.0964   -1.5515 H   0  0  0  0  0  0  0  0  0  0  0  0
    2.4989   -0.4893   -1.3049 C   0  0  0  0  0  0  0  0  0  0  0  0
    2.6633   -1.5387   -1.0775 H   0  0  0  0  0  0  0  0  0  0  0  0
   -1.1277    0.9643    0.4764 C   0  0  0  0  0  0  0  0  0  0  0  0
   -2.0863    1.4422   -0.1229 O   0  0  0  0  0  0  0  0  0  0  0  0
   -0.4323    1.7485    1.3785 N   0  0  0  0  0  0  0  0  0  0  0  0
    0.3958    1.3419    1.8052 H   0  0  0  0  0  0  0  0  0  0  0  0
   -0.6947    3.1692    1.5699 C   0  0  0  0  0  0  0  0  0  0  0  0
   -1.7435    3.3330    1.8390 H   0  0  0  0  0  0  0  0  0  0  0  0
   -0.0680    3.5642    2.3751 H   0  0  0  0  0  0  0  0  0  0  0  0
   -0.4744    3.7258    0.6531 H   0  0  0  0  0  0  0  0  0  0  0  0
  1  2  1  0  0  0  0
  2  3  1  0  0  0  0
  2  4  1  0  0  0  0
  2  5  1  0  0  0  0
  5  6  2  0  0  0  0
  5  7  1  0  0  0  0
  7  8  1  0  0  0  0
  7  9  1  0  0  0  0
  9 10  1  0  0  0  0
  9 11  1  0  0  0  0
  9 25  1  0  0  0  0
 11 12  1  0  0  0  0
 11 13  1  0  0  0  0
 11 14  1  0  0  0  0
 14 15  1  0  0  0  0
 14 23  2  0  0  0  0
 15 16  1  0  0  0  0
 15 17  2  0  0  0  0
 17 18  1  0  0  0  0
 17 19  1  0  0  0  0
 19 20  1  0  0  0  0
 19 21  2  0  0  0  0
 21 22  1  0  0  0  0
 21 23  1  0  0  0  0
 23 24  1  0  0  0  0
 25 26  2  0  0  0  0
 25 27  1  0  0  0  0
 27 28  1  0  0  0  0
 27 29  1  0  0  0  0
 29 30  1  0  0  0  0
 29 31  1  0  0  0  0
 29 32  1  0  0  0  0
M  END
$$$$

  -OEChem-04042216033D

 32 32  0     1  0  0  0  0  0999 V2000
   -3.5762   -4.0292    1.5302 H   0  0  0  0  0  0  0  0  0  0  0  0
   -3.5863   -3.1160    0.9288 C   0  0  0  0  0  0  0  0  0  0  0  0
   -4.3321   -2.4318    1.3407 H   0  0  0  0  0  0  0  0  0  0  0  0
   -3.8635   -3.3718   -0.0967 H   0  0  0  0  0  0  0  0  0  0  0  0
   -2.2171   -2.4628    0.9464 C   0  0  0  0  0  0  0  0  0  0  0  0
   -1.2963   -2.9883    1.5520 O   0  0  0  0  0  0  0  0  0  0  0  0
   -2.0170   -1.2731    0.2784 N   0  0  0  0  0  0  0  0  0  0  0  0
   -2.8344   -0.8193   -0.1284 H   0  0  0  0  0  0  0  0  0  0  0  0
   -0.7812   -0.4772    0.3406 C   0  0  1  0  0  0  0  0  0  0  0  0
   -0.1895   -0.7564    1.2185 H   0  0  0  0  0  0  0  0  0  0  0  0
    0.0523   -0.8268   -0.9189 C   0  0  0  0  0  0  0  0  0  0  0  0
    0.4093   -1.8543   -0.7924 H   0  0  0  0  0  0  0  0  0  0  0  0
   -0.6311   -0.8336   -1.7745 H   0  0  0  0  0  0  0  0  0  0  0  0
    1.2204    0.0659   -1.3278 C   0  0  0  0  0  0  0  0  0  0  0  0
    1.1821    1.4742   -1.3693 C   0  0  0  0  0  0  0  0  0  0  0  0
    0.2649    2.0271   -1.2073 H   0  0  0  0  0  0  0  0  0  0  0  0
    2.3207    2.2190   -1.6950 C   0  0  0  0  0  0  0  0  0  0  0  0
    2.2643    3.3029   -1.7347 H   0  0  0  0  0  0  0  0  0  0  0  0
    3.5236    1.5732   -1.9839 C   0  0  0  0  0  0  0  0  0  0  0  0
    4.4060    2.1519   -2.2408 H   0  0  0  0  0  0  0  0  0  0  0  0
    3.5839    0.1796   -1.9505 C   0  0  0  0  0  0  0  0  0  0  0  0
    4.5165   -0.3295   -2.1764 H   0  0  0  0  0  0  0  0  0  0  0  0
    2.4440   -0.5621   -1.6240 C   0  0  0  0  0  0  0  0  0  0  0  0
    2.5218   -1.6451   -1.5959 H   0  0  0  0  0  0  0  0  0  0  0  0
   -1.1793    0.9975    0.5338 C   0  0  0  0  0  0  0  0  0  0  0  0
   -2.1316    1.4629   -0.0839 O   0  0  0  0  0  0  0  0  0  0  0  0
   -0.5225    1.7868    1.4605 N   0  0  0  0  0  0  0  0  0  0  0  0
    0.2809    1.3825    1.9343 H   0  0  0  0  0  0  0  0  0  0  0  0
   -0.8546    3.1848    1.7044 C   0  0  0  0  0  0  0  0  0  0  0  0
   -1.9106    3.2871    1.9761 H   0  0  0  0  0  0  0  0  0  0  0  0
   -0.2491    3.5793    2.5261 H   0  0  0  0  0  0  0  0  0  0  0  0
   -0.6606    3.7861    0.8100 H   0  0  0  0  0  0  0  0  0  0  0  0
  1  2  1  0  0  0  0
  2  3  1  0  0  0  0
  2  4  1  0  0  0  0
  2  5  1  0  0  0  0
  5  6  2  0  0  0  0
  5  7  1  0  0  0  0
  7  8  1  0  0  0  0
  7  9  1  0  0  0  0
  9 10  1  0  0  0  0
  9 11  1  0  0  0  0
  9 25  1  0  0  0  0
 11 12  1  0  0  0  0
 11 13  1  0  0  0  0
 11 14  1  0  0  0  0
 14 15  1  0  0  0  0
 14 23  2  0  0  0  0
 15 16  1  0  0  0  0
 15 17  2  0  0  0  0
 17 18  1  0  0  0  0
 17 19  1  0  0  0  0
 19 20  1  0  0  0  0
 19 21  2  0  0  0  0
 21 22  1  0  0  0  0
 21 23  1  0  0  0  0
 23 24  1  0  0  0  0
 25 26  2  0  0  0  0
 25 27  1  0  0  0  0
 27 28  1  0  0  0  0
 27 29  1  0  0  0  0
 29 30  1  0  0  0  0
 29 31  1  0  0  0  0
 29 32  1  0  0  0  0
M  END
$$$$

  -OEChem-04042216033D

 32 32  0     1  0  0  0  0  0999 V2000
   -3.5403   -4.0495    1.4469 H   0  0  0  0  0  0  0  0  0  0  0  0
   -3.5477   -3.1266    0.8603 C   0  0  0  0  0  0  0  0  0  0  0  0
   -4.3194   -2.4630    1.2579 H   0  0  0  0  0  0  0  0  0  0  0  0
   -3.7857   -3.3706   -0.1778 H   0  0  0  0  0  0  0  0  0  0  0  0
   -2.1927   -2.4485    0.9350 C   0  0  0  0  0  0  0  0  0  0  0  0
   -1.2871   -2.9595    1.5749 O   0  0  0  0  0  0  0  0  0  0  0  0
   -1.9892   -1.2504    0.2836 N   0  0  0  0  0  0  0  0  0  0  0  0
   -2.7968   -0.8095   -0.1557 H   0  0  0  0  0  0  0  0  0  0  0  0
   -0.7675   -0.4375    0.3918 C   0  0  1  0  0  0  0  0  0  0  0  0
   -0.1885   -0.7142    1.2788 H   0  0  0  0  0  0  0  0  0  0  0  0
    0.0813   -0.7714   -0.8637 C   0  0  0  0  0  0  0  0  0  0  0  0
    0.4369   -1.7985   -0.7287 H   0  0  0  0  0  0  0  0  0  0  0  0
   -0.6003   -0.7813   -1.7208 H   0  0  0  0  0  0  0  0  0  0  0  0
    1.2621    0.0946   -1.3006 C   0  0  0  0  0  0  0  0  0  0  0  0
    1.3996    1.4837   -1.1004 C   0  0  0  0  0  0  0  0  0  0  0  0
    0.6154    2.0940   -0.6790 H   0  0  0  0  0  0  0  0  0  0  0  0
    2.5535    2.1634   -1.5064 C   0  0  0  0  0  0  0  0  0  0  0  0
    2.6306    3.2358   -1.3534 H   0  0  0  0  0  0  0  0  0  0  0  0
    3.5984    1.4729   -2.1206 C   0  0  0  0  0  0  0  0  0  0  0  0
    4.4921    2.0023   -2.4380 H   0  0  0  0  0  0  0  0  0  0  0  0
    3.4833    0.0997   -2.3342 C   0  0  0  0  0  0  0  0  0  0  0  0
    4.2903   -0.4448   -2.8156 H   0  0  0  0  0  0  0  0  0  0  0  0
    2.3285   -0.5761   -1.9280 C   0  0  0  0  0  0  0  0  0  0  0  0
    2.2689   -1.6463   -2.1029 H   0  0  0  0  0  0  0  0  0  0  0  0
   -1.2154    1.0232    0.5841 C   0  0  0  0  0  0  0  0  0  0  0  0
   -2.1473    1.4759   -0.0725 O   0  0  0  0  0  0  0  0  0  0  0  0
   -0.6119    1.8193    1.5419 N   0  0  0  0  0  0  0  0  0  0  0  0
    0.1471    1.4115    2.0816 H   0  0  0  0  0  0  0  0  0  0  0  0
   -1.0147    3.1933    1.8144 C   0  0  0  0  0  0  0  0  0  0  0  0
   -2.0736    3.2348    2.0901 H   0  0  0  0  0  0  0  0  0  0  0  0
   -0.4270    3.6022    2.6419 H   0  0  0  0  0  0  0  0  0  0  0  0
   -0.8551    3.8213    0.9317 H   0  0  0  0  0  0  0  0  0  0  0  0
  1  2  1  0  0  0  0
  2  3  1  0  0  0  0
  2  4  1  0  0  0  0
  2  5  1  0  0  0  0
  5  6  2  0  0  0  0
  5  7  1  0  0  0  0
  7  8  1  0  0  0  0
  7  9  1  0  0  0  0
  9 10  1  0  0  0  0
  9 11  1  0  0  0  0
  9 25  1  0  0  0  0
 11 12  1  0  0  0  0
 11 13  1  0  0  0  0
 11 14  1  0  0  0  0
 14 15  1  0  0  0  0
 14 23  2  0  0  0  0
 15 16  1  0  0  0  0
 15 17  2  0  0  0  0
 17 18  1  0  0  0  0
 17 19  1  0  0  0  0
 19 20  1  0  0  0  0
 19 21  2  0  0  0  0
 21 22  1  0  0  0  0
 21 23  1  0  0  0  0
 23 24  1  0  0  0  0
 25 26  2  0  0  0  0
 25 27  1  0  0  0  0
 27 28  1  0  0  0  0
 27 29  1  0  0  0  0
 29 30  1  0  0  0  0
 29 31  1  0  0  0  0
 29 32  1  0  0  0  0
M  END
$$$$

  -OEChem-04042216033D

 32 32  0     1  0  0  0  0  0999 V2000
   -3.5600   -4.0329    1.3725 H   0  0  0  0  0  0  0  0  0  0  0  0
   -3.5395   -3.1087    0.7882 C   0  0  0  0  0  0  0  0  0  0  0  0
   -4.3273   -2.4444    1.1517 H   0  0  0  0  0  0  0  0  0  0  0  0
   -3.7309   -3.3500   -0.2601 H   0  0  0  0  0  0  0  0  0  0  0  0
   -2.1885   -2.4319    0.9246 C   0  0  0  0  0  0  0  0  0  0  0  0
   -1.3135   -2.9412    1.6069 O   0  0  0  0  0  0  0  0  0  0  0  0
   -1.9547   -1.2350    0.2819 N   0  0  0  0  0  0  0  0  0  0  0  0
   -2.7417   -0.7927   -0.1924 H   0  0  0  0  0  0  0  0  0  0  0  0
   -0.7372   -0.4234    0.4417 C   0  0  1  0  0  0  0  0  0  0  0  0
   -0.1763   -0.7010    1.3402 H   0  0  0  0  0  0  0  0  0  0  0  0
    0.1187   -0.7513   -0.8118 C   0  0  0  0  0  0  0  0  0  0  0  0
    0.4670   -1.7818   -0.6828 H   0  0  0  0  0  0  0  0  0  0  0  0
   -0.5597   -0.7483   -1.6721 H   0  0  0  0  0  0  0  0  0  0  0  0
    1.3164    0.0868   -1.2508 C   0  0  0  0  0  0  0  0  0  0  0  0
    1.6480    1.3845   -0.8140 C   0  0  0  0  0  0  0  0  0  0  0  0
    1.0419    1.9405   -0.1200 H   0  0  0  0  0  0  0  0  0  0  0  0
    2.7899    2.0386   -1.2905 C   0  0  0  0  0  0  0  0  0  0  0  0
    3.0219    3.0418   -0.9455 H   0  0  0  0  0  0  0  0  0  0  0  0
    3.6285    1.4120   -2.2126 C   0  0  0  0  0  0  0  0  0  0  0  0
    4.5136    1.9216   -2.5818 H   0  0  0  0  0  0  0  0  0  0  0  0
    3.3193    0.1286   -2.6613 C   0  0  0  0  0  0  0  0  0  0  0  0
    3.9647   -0.3662   -3.3809 H   0  0  0  0  0  0  0  0  0  0  0  0
    2.1765   -0.5207   -2.1841 C   0  0  0  0  0  0  0  0  0  0  0  0
    1.9571   -1.5202   -2.5487 H   0  0  0  0  0  0  0  0  0  0  0  0
   -1.2171    1.0335    0.6115 C   0  0  0  0  0  0  0  0  0  0  0  0
   -2.1207    1.4715   -0.0933 O   0  0  0  0  0  0  0  0  0  0  0  0
   -0.6759    1.8451    1.5941 N   0  0  0  0  0  0  0  0  0  0  0  0
    0.0253    1.4368    2.2065 H   0  0  0  0  0  0  0  0  0  0  0  0
   -1.1292    3.2069    1.8500 C   0  0  0  0  0  0  0  0  0  0  0  0
   -2.1904    3.2137    2.1201 H   0  0  0  0  0  0  0  0  0  0  0  0
   -0.5599    3.6461    2.6748 H   0  0  0  0  0  0  0  0  0  0  0  0
   -0.9870    3.8311    0.9615 H   0  0  0  0  0  0  0  0  0  0  0  0
  1  2  1  0  0  0  0
  2  3  1  0  0  0  0
  2  4  1  0  0  0  0
  2  5  1  0  0  0  0
  5  6  2  0  0  0  0
  5  7  1  0  0  0  0
  7  8  1  0  0  0  0
  7  9  1  0  0  0  0
  9 10  1  0  0  0  0
  9 11  1  0  0  0  0
  9 25  1  0  0  0  0
 11 12  1  0  0  0  0
 11 13  1  0  0  0  0
 11 14  1  0  0  0  0
 14 15  1  0  0  0  0
 14 23  2  0  0  0  0
 15 16  1  0  0  0  0
 15 17  2  0  0  0  0
 17 18  1  0  0  0  0
 17 19  1  0  0  0  0
 19 20  1  0  0  0  0
 19 21  2  0  0  0  0
 21 22  1  0  0  0  0
 21 23  1  0  0  0  0
 23 24  1  0  0  0  0
 25 26  2  0  0  0  0
 25 27  1  0  0  0  0
 27 28  1  0  0  0  0
 27 29  1  0  0  0  0
 29 30  1  0  0  0  0
 29 31  1  0  0  0  0
 29 32  1  0  0  0  0
M  END
$$$$

  -OEChem-04042216033D

 32 32  0     1  0  0  0  0  0999 V2000
   -3.6673   -3.9785    1.3424 H   0  0  0  0  0  0  0  0  0  0  0  0
   -3.6060   -3.0583    0.7547 C   0  0  0  0  0  0  0  0  0  0  0  0
   -4.3822   -2.3694    1.0967 H   0  0  0  0  0  0  0  0  0  0  0  0
   -3.7797   -3.2990   -0.2969 H   0  0  0  0  0  0  0  0  0  0  0  0
   -2.2388   -2.4220    0.9201 C   0  0  0  0  0  0  0  0  0  0  0  0
   -1.3993   -2.9500    1.6322 O   0  0  0  0  0  0  0  0  0  0  0  0
   -1.9493   -1.2402    0.2719 N   0  0  0  0  0  0  0  0  0  0  0  0
   -2.7097   -0.7724   -0.2215 H   0  0  0  0  0  0  0  0  0  0  0  0
   -0.7065   -0.4728    0.4536 C   0  0  1  0  0  0  0  0  0  0  0  0
   -0.1542   -0.7685    1.3515 H   0  0  0  0  0  0  0  0  0  0  0  0
    0.1288   -0.7871   -0.8155 C   0  0  0  0  0  0  0  0  0  0  0  0
    0.4548   -1.8290   -0.7305 H   0  0  0  0  0  0  0  0  0  0  0  0
   -0.5537   -0.7328   -1.6711 H   0  0  0  0  0  0  0  0  0  0  0  0
    1.3469    0.0372   -1.2125 C   0  0  0  0  0  0  0  0  0  0  0  0
    1.8643    1.1446   -0.5157 C   0  0  0  0  0  0  0  0  0  0  0  0
    1.4544    1.4729    0.4243 H   0  0  0  0  0  0  0  0  0  0  0  0
    2.9746    1.8473   -0.9976 C   0  0  0  0  0  0  0  0  0  0  0  0
    3.3619    2.6961   -0.4420 H   0  0  0  0  0  0  0  0  0  0  0  0
    3.5912    1.4577   -2.1874 C   0  0  0  0  0  0  0  0  0  0  0  0
    4.4530    2.0030   -2.5608 H   0  0  0  0  0  0  0  0  0  0  0  0
    3.0956    0.3612   -2.8931 C   0  0  0  0  0  0  0  0  0  0  0  0
    3.5698    0.0512   -3.8195 H   0  0  0  0  0  0  0  0  0  0  0  0
    1.9852   -0.3366   -2.4081 C   0  0  0  0  0  0  0  0  0  0  0  0
    1.6110   -1.1831   -2.9765 H   0  0  0  0  0  0  0  0  0  0  0  0
   -1.1615    0.9989    0.5990 C   0  0  0  0  0  0  0  0  0  0  0  0
   -2.0356    1.4448   -0.1381 O   0  0  0  0  0  0  0  0  0  0  0  0
   -0.6386    1.8208    1.5822 N   0  0  0  0  0  0  0  0  0  0  0  0
    0.0091    1.4043    2.2451 H   0  0  0  0  0  0  0  0  0  0  0  0
   -1.0693    3.1983    1.7886 C   0  0  0  0  0  0  0  0  0  0  0  0
   -2.1383    3.2357    2.0239 H   0  0  0  0  0  0  0  0  0  0  0  0
   -0.5160    3.6471    2.6191 H   0  0  0  0  0  0  0  0  0  0  0  0
   -0.8851    3.7952    0.8890 H   0  0  0  0  0  0  0  0  0  0  0  0
  1  2  1  0  0  0  0
  2  3  1  0  0  0  0
  2  4  1  0  0  0  0
  2  5  1  0  0  0  0
  5  6  2  0  0  0  0
  5  7  1  0  0  0  0
  7  8  1  0  0  0  0
  7  9  1  0  0  0  0
  9 10  1  0  0  0  0
  9 11  1  0  0  0  0
  9 25  1  0  0  0  0
 11 12  1  0  0  0  0
 11 13  1  0  0  0  0
 11 14  1  0  0  0  0
 14 15  1  0  0  0  0
 14 23  2  0  0  0  0
 15 16  1  0  0  0  0
 15 17  2  0  0  0  0
 17 18  1  0  0  0  0
 17 19  1  0  0  0  0
 19 20  1  0  0  0  0
 19 21  2  0  0  0  0
 21 22  1  0  0  0  0
 21 23  1  0  0  0  0
 23 24  1  0  0  0  0
 25 26  2  0  0  0  0
 25 27  1  0  0  0  0
 27 28  1  0  0  0  0
 27 29  1  0  0  0  0
 29 30  1  0  0  0  0
 29 31  1  0  0  0  0
 29 32  1  0  0  0  0
M  END
$$$$

  -OEChem-04042216033D

 32 32  0     1  0  0  0  0  0999 V2000
   -3.7343   -3.9366    1.4468 H   0  0  0  0  0  0  0  0  0  0  0  0
   -3.6607   -3.0320    0.8367 C   0  0  0  0  0  0  0  0  0  0  0  0
   -4.4112   -2.3147    1.1776 H   0  0  0  0  0  0  0  0  0  0  0  0
   -3.8622   -3.2924   -0.2052 H   0  0  0  0  0  0  0  0  0  0  0  0
   -2.2740   -2.4289    0.9596 C   0  0  0  0  0  0  0  0  0  0  0  0
   -1.4357   -2.9608    1.6702 O   0  0  0  0  0  0  0  0  0  0  0  0
   -1.9659   -1.2740    0.2728 N   0  0  0  0  0  0  0  0  0  0  0  0
   -2.7238   -0.7986   -0.2169 H   0  0  0  0  0  0  0  0  0  0  0  0
   -0.7014   -0.5351    0.4126 C   0  0  1  0  0  0  0  0  0  0  0  0
   -0.1398   -0.8280    1.3053 H   0  0  0  0  0  0  0  0  0  0  0  0
    0.1097   -0.8589   -0.8656 C   0  0  0  0  0  0  0  0  0  0  0  0
    0.4385   -1.9008   -0.7952 H   0  0  0  0  0  0  0  0  0  0  0  0
   -0.5791   -0.7941   -1.7153 H   0  0  0  0  0  0  0  0  0  0  0  0
    1.3227   -0.0137   -1.2218 C   0  0  0  0  0  0  0  0  0  0  0  0
    1.9706    0.8635   -0.3338 C   0  0  0  0  0  0  0  0  0  0  0  0
    1.6799    0.9248    0.7052 H   0  0  0  0  0  0  0  0  0  0  0  0
    3.0543    1.6426   -0.7531 C   0  0  0  0  0  0  0  0  0  0  0  0
    3.5469    2.3090   -0.0516 H   0  0  0  0  0  0  0  0  0  0  0  0
    3.5099    1.5590   -2.0702 C   0  0  0  0  0  0  0  0  0  0  0  0
    4.3507    2.1638   -2.3968 H   0  0  0  0  0  0  0  0  0  0  0  0
    2.8828    0.6898   -2.9647 C   0  0  0  0  0  0  0  0  0  0  0  0
    3.2334    0.6193   -3.9901 H   0  0  0  0  0  0  0  0  0  0  0  0
    1.7999   -0.0874   -2.5410 C   0  0  0  0  0  0  0  0  0  0  0  0
    1.3191   -0.7518   -3.2529 H   0  0  0  0  0  0  0  0  0  0  0  0
   -1.1026    0.9565    0.5240 C   0  0  0  0  0  0  0  0  0  0  0  0
   -1.9816    1.4051   -0.2061 O   0  0  0  0  0  0  0  0  0  0  0  0
   -0.5367    1.7913    1.4719 N   0  0  0  0  0  0  0  0  0  0  0  0
    0.1195    1.3805    2.1291 H   0  0  0  0  0  0  0  0  0  0  0  0
   -0.9071    3.1922    1.6293 C   0  0  0  0  0  0  0  0  0  0  0  0
   -1.9718    3.2833    1.8685 H   0  0  0  0  0  0  0  0  0  0  0  0
   -0.3302    3.6472    2.4401 H   0  0  0  0  0  0  0  0  0  0  0  0
   -0.7039    3.7470    0.7072 H   0  0  0  0  0  0  0  0  0  0  0  0
  1  2  1  0  0  0  0
  2  3  1  0  0  0  0
  2  4  1  0  0  0  0
  2  5  1  0  0  0  0
  5  6  2  0  0  0  0
  5  7  1  0  0  0  0
  7  8  1  0  0  0  0
  7  9  1  0  0  0  0
  9 10  1  0  0  0  0
  9 11  1  0  0  0  0
  9 25  1  0  0  0  0
 11 12  1  0  0  0  0
 11 13  1  0  0  0  0
 11 14  1  0  0  0  0
 14 15  1  0  0  0  0
 14 23  2  0  0  0  0
 15 16  1  0  0  0  0
 15 17  2  0  0  0  0
 17 18  1  0  0  0  0
 17 19  1  0  0  0  0
 19 20  1  0  0  0  0
 19 21  2  0  0  0  0
 21 22  1  0  0  0  0
 21 23  1  0  0  0  0
 23 24  1  0  0  0  0
 25 26  2  0  0  0  0
 25 27  1  0  0  0  0
 27 28  1  0  0  0  0
 27 29  1  0  0  0  0
 29 30  1  0  0  0  0
 29 31  1  0  0  0  0
 29 32  1  0  0  0  0
M  END
$$$$

  -OEChem-04042216033D

 32 32  0     1  0  0  0  0  0999 V2000
   -3.7591   -3.9126    1.5727 H   0  0  0  0  0  0  0  0  0  0  0  0
   -3.6913   -3.0269    0.9348 C   0  0  0  0  0  0  0  0  0  0  0  0
   -4.4116   -2.2840    1.2857 H   0  0  0  0  0  0  0  0  0  0  0  0
   -3.9412   -3.3106   -0.0903 H   0  0  0  0  0  0  0  0  0  0  0  0
   -2.2884   -2.4518    0.9849 C   0  0  0  0  0  0  0  0  0  0  0  0
   -1.4302   -2.9892    1.6673 O   0  0  0  0  0  0  0  0  0  0  0  0
   -1.9902   -1.3124    0.2687 N   0  0  0  0  0  0  0  0  0  0  0  0
   -2.7614   -0.8312   -0.1933 H   0  0  0  0  0  0  0  0  0  0  0  0
   -0.7156   -0.5841    0.3546 C   0  0  1  0  0  0  0  0  0  0  0  0
   -0.1404   -0.8737    1.2395 H   0  0  0  0  0  0  0  0  0  0  0  0
    0.0788   -0.9152   -0.9283 C   0  0  0  0  0  0  0  0  0  0  0  0
    0.4268   -1.9507   -0.8583 H   0  0  0  0  0  0  0  0  0  0  0  0
   -0.6144   -0.8625   -1.7750 H   0  0  0  0  0  0  0  0  0  0  0  0
    1.2722   -0.0317   -1.2491 C   0  0  0  0  0  0  0  0  0  0  0  0
    2.0452    0.5974   -0.2565 C   0  0  0  0  0  0  0  0  0  0  0  0
    1.8465    0.4214    0.7941 H   0  0  0  0  0  0  0  0  0  0  0  0
    3.1115    1.4351   -0.6008 C   0  0  0  0  0  0  0  0  0  0  0  0
    3.7031    1.9106    0.1760 H   0  0  0  0  0  0  0  0  0  0  0  0
    3.4218    1.6562   -1.9445 C   0  0  0  0  0  0  0  0  0  0  0  0
    4.2486    2.3068   -2.2133 H   0  0  0  0  0  0  0  0  0  0  0  0
    2.6674    1.0347   -2.9422 C   0  0  0  0  0  0  0  0  0  0  0  0
    2.9059    1.2035   -3.9881 H   0  0  0  0  0  0  0  0  0  0  0  0
    1.6013    0.1983   -2.5947 C   0  0  0  0  0  0  0  0  0  0  0  0
    1.0199   -0.2696   -3.3836 H   0  0  0  0  0  0  0  0  0  0  0  0
   -1.0655    0.9196    0.4531 C   0  0  0  0  0  0  0  0  0  0  0  0
   -1.9699    1.3784   -0.2384 O   0  0  0  0  0  0  0  0  0  0  0  0
   -0.4375    1.7470    1.3671 N   0  0  0  0  0  0  0  0  0  0  0  0
    0.2870    1.3417    1.9510 H   0  0  0  0  0  0  0  0  0  0  0  0
   -0.7253    3.1706    1.4870 C   0  0  0  0  0  0  0  0  0  0  0  0
   -1.7857    3.3305    1.7083 H   0  0  0  0  0  0  0  0  0  0  0  0
   -0.1342    3.6096    2.2963 H   0  0  0  0  0  0  0  0  0  0  0  0
   -0.4766    3.6894    0.5552 H   0  0  0  0  0  0  0  0  0  0  0  0
  1  2  1  0  0  0  0
  2  3  1  0  0  0  0
  2  4  1  0  0  0  0
  2  5  1  0  0  0  0
  5  6  2  0  0  0  0
  5  7  1  0  0  0  0
  7  8  1  0  0  0  0
  7  9  1  0  0  0  0
  9 10  1  0  0  0  0
  9 11  1  0  0  0  0
  9 25  1  0  0  0  0
 11 12  1  0  0  0  0
 11 13  1  0  0  0  0
 11 14  1  0  0  0  0
 14 15  1  0  0  0  0
 14 23  2  0  0  0  0
 15 16  1  0  0  0  0
 15 17  2  0  0  0  0
 17 18  1  0  0  0  0
 17 19  1  0  0  0  0
 19 20  1  0  0  0  0
 19 21  2  0  0  0  0
 21 22  1  0  0  0  0
 21 23  1  0  0  0  0
 23 24  1  0  0  0  0
 25 26  2  0  0  0  0
 25 27  1  0  0  0  0
 27 28  1  0  0  0  0
 27 29  1  0  0  0  0
 29 30  1  0  0  0  0
 29 31  1  0  0  0  0
 29 32  1  0  0  0  0
M  END
$$$$

  -OEChem-04042216033D

 32 32  0     1  0  0  0  0  0999 V2000
   -3.7471   -3.9074    1.6620 H   0  0  0  0  0  0  0  0  0  0  0  0
   -3.6949   -3.0338    1.0063 C   0  0  0  0  0  0  0  0  0  0  0  0
   -4.4033   -2.2823    1.3636 H   0  0  0  0  0  0  0  0  0  0  0  0
   -3.9738   -3.3353   -0.0062 H   0  0  0  0  0  0  0  0  0  0  0  0
   -2.2891   -2.4634    1.0064 C   0  0  0  0  0  0  0  0  0  0  0  0
   -1.4109   -3.0005    1.6632 O   0  0  0  0  0  0  0  0  0  0  0  0
   -2.0086   -1.3346    0.2660 N   0  0  0  0  0  0  0  0  0  0  0  0
   -2.7927   -0.8533   -0.1735 H   0  0  0  0  0  0  0  0  0  0  0  0
   -0.7283   -0.6131    0.3028 C   0  0  1  0  0  0  0  0  0  0  0  0
   -0.1405   -0.8968    1.1812 H   0  0  0  0  0  0  0  0  0  0  0  0
    0.0507   -0.9580   -0.9821 C   0  0  0  0  0  0  0  0  0  0  0  0
    0.4158   -1.9873   -0.9081 H   0  0  0  0  0  0  0  0  0  0  0  0
   -0.6441   -0.9196   -1.8277 H   0  0  0  0  0  0  0  0  0  0  0  0
    1.2227   -0.0416   -1.2740 C   0  0  0  0  0  0  0  0  0  0  0  0
    2.1302    0.3305   -0.2666 C   0  0  0  0  0  0  0  0  0  0  0  0
    2.0370   -0.0776    0.7345 H   0  0  0  0  0  0  0  0  0  0  0  0
    3.1824    1.2100   -0.5424 C   0  0  0  0  0  0  0  0  0  0  0  0
    3.8814    1.4855    0.2419 H   0  0  0  0  0  0  0  0  0  0  0  0
    3.3390    1.7304   -1.8298 C   0  0  0  0  0  0  0  0  0  0  0  0
    4.1552    2.4134   -2.0461 H   0  0  0  0  0  0  0  0  0  0  0  0
    2.4447    1.3676   -2.8403 C   0  0  0  0  0  0  0  0  0  0  0  0
    2.5629    1.7710   -3.8417 H   0  0  0  0  0  0  0  0  0  0  0  0
    1.3931    0.4877   -2.5627 C   0  0  0  0  0  0  0  0  0  0  0  0
    0.7010    0.2239   -3.3570 H   0  0  0  0  0  0  0  0  0  0  0  0
   -1.0383    0.8990    0.3930 C   0  0  0  0  0  0  0  0  0  0  0  0
   -1.9680    1.3675   -0.2574 O   0  0  0  0  0  0  0  0  0  0  0  0
   -0.3558    1.7158    1.2767 N   0  0  0  0  0  0  0  0  0  0  0  0
    0.4406    1.3149    1.7618 H   0  0  0  0  0  0  0  0  0  0  0  0
   -0.5828    3.1524    1.3706 C   0  0  0  0  0  0  0  0  0  0  0  0
   -1.6310    3.3605    1.6097 H   0  0  0  0  0  0  0  0  0  0  0  0
    0.0417    3.5836    2.1588 H   0  0  0  0  0  0  0  0  0  0  0  0
   -0.3328    3.6412    0.4231 H   0  0  0  0  0  0  0  0  0  0  0  0
  1  2  1  0  0  0  0
  2  3  1  0  0  0  0
  2  4  1  0  0  0  0
  2  5  1  0  0  0  0
  5  6  2  0  0  0  0
  5  7  1  0  0  0  0
  7  8  1  0  0  0  0
  7  9  1  0  0  0  0
  9 10  1  0  0  0  0
  9 11  1  0  0  0  0
  9 25  1  0  0  0  0
 11 12  1  0  0  0  0
 11 13  1  0  0  0  0
 11 14  1  0  0  0  0
 14 15  1  0  0  0  0
 14 23  2  0  0  0  0
 15 16  1  0  0  0  0
 15 17  2  0  0  0  0
 17 18  1  0  0  0  0
 17 19  1  0  0  0  0
 19 20  1  0  0  0  0
 19 21  2  0  0  0  0
 21 22  1  0  0  0  0
 21 23  1  0  0  0  0
 23 24  1  0  0  0  0
 25 26  2  0  0  0  0
 25 27  1  0  0  0  0
 27 28  1  0  0  0  0
 27 29  1  0  0  0  0
 29 30  1  0  0  0  0
 29 31  1  0  0  0  0
 29 32  1  0  0  0  0
M  END
$$$$

  -OEChem-04042216033D

 32 32  0     1  0  0  0  0  0999 V2000
   -3.7281   -3.8996    1.7208 H   0  0  0  0  0  0  0  0  0  0  0  0
   -3.6888   -3.0326    1.0555 C   0  0  0  0  0  0  0  0  0  0  0  0
   -4.3799   -2.2721    1.4271 H   0  0  0  0  0  0  0  0  0  0  0  0
   -4.0009   -3.3413    0.0550 H   0  0  0  0  0  0  0  0  0  0  0  0
   -2.2794   -2.4730    1.0081 C   0  0  0  0  0  0  0  0  0  0  0  0
   -1.3849   -3.0133    1.6399 O   0  0  0  0  0  0  0  0  0  0  0  0
   -2.0148   -1.3488    0.2553 N   0  0  0  0  0  0  0  0  0  0  0  0
   -2.8094   -0.8652   -0.1621 H   0  0  0  0  0  0  0  0  0  0  0  0
   -0.7338   -0.6282    0.2593 C   0  0  1  0  0  0  0  0  0  0  0  0
   -0.1335   -0.9057    1.1316 H   0  0  0  0  0  0  0  0  0  0  0  0
    0.0369   -0.9843   -1.0249 C   0  0  0  0  0  0  0  0  0  0  0  0
    0.4160   -2.0080   -0.9439 H   0  0  0  0  0  0  0  0  0  0  0  0
   -0.6552   -0.9598   -1.8730 H   0  0  0  0  0  0  0  0  0  0  0  0
    1.1893   -0.0425   -1.2964 C   0  0  0  0  0  0  0  0  0  0  0  0
    2.2353    0.0876   -0.3684 C   0  0  0  0  0  0  0  0  0  0  0  0
    2.2478   -0.5249    0.5283 H   0  0  0  0  0  0  0  0  0  0  0  0
    3.2789    0.9912   -0.5952 C   0  0  0  0  0  0  0  0  0  0  0  0
    4.0877    1.0801    0.1242 H   0  0  0  0  0  0  0  0  0  0  0  0
    3.2838    1.7773   -1.7511 C   0  0  0  0  0  0  0  0  0  0  0  0
    4.0935    2.4789   -1.9295 H   0  0  0  0  0  0  0  0  0  0  0  0
    2.2451    1.6582   -2.6789 C   0  0  0  0  0  0  0  0  0  0  0  0
    2.2442    2.2700   -3.5764 H   0  0  0  0  0  0  0  0  0  0  0  0
    1.2023    0.7541   -2.4512 C   0  0  0  0  0  0  0  0  0  0  0  0
    0.3945    0.6825   -3.1738 H   0  0  0  0  0  0  0  0  0  0  0  0
   -1.0229    0.8869    0.3474 C   0  0  0  0  0  0  0  0  0  0  0  0
   -1.9678    1.3621   -0.2757 O   0  0  0  0  0  0  0  0  0  0  0  0
   -0.3062    1.6943    1.2115 N   0  0  0  0  0  0  0  0  0  0  0  0
    0.5185    1.2897    1.6446 H   0  0  0  0  0  0  0  0  0  0  0  0
   -0.5055    3.1349    1.3001 C   0  0  0  0  0  0  0  0  0  0  0  0
   -1.5431    3.3637    1.5653 H   0  0  0  0  0  0  0  0  0  0  0  0
    0.1473    3.5596    2.0685 H   0  0  0  0  0  0  0  0  0  0  0  0
   -0.2721    3.6119    0.3424 H   0  0  0  0  0  0  0  0  0  0  0  0
  1  2  1  0  0  0  0
  2  3  1  0  0  0  0
  2  4  1  0  0  0  0
  2  5  1  0  0  0  0
  5  6  2  0  0  0  0
  5  7  1  0  0  0  0
  7  8  1  0  0  0  0
  7  9  1  0  0  0  0
  9 10  1  0  0  0  0
  9 11  1  0  0  0  0
  9 25  1  0  0  0  0
 11 12  1  0  0  0  0
 11 13  1  0  0  0  0
 11 14  1  0  0  0  0
 14 15  1  0  0  0  0
 14 23  2  0  0  0  0
 15 16  1  0  0  0  0
 15 17  2  0  0  0  0
 17 18  1  0  0  0  0
 17 19  1  0  0  0  0
 19 20  1  0  0  0  0
 19 21  2  0  0  0  0
 21 22  1  0  0  0  0
 21 23  1  0  0  0  0
 23 24  1  0  0  0  0
 25 26  2  0  0  0  0
 25 27  1  0  0  0  0
 27 28  1  0  0  0  0
 27 29  1  0  0  0  0
 29 30  1  0  0  0  0
 29 31  1  0  0  0  0
 29 32  1  0  0  0  0
M  END
$$$$

  -OEChem-04042216033D

 32 32  0     1  0  0  0  0  0999 V2000
   -3.7089   -3.9100    1.7293 H   0  0  0  0  0  0  0  0  0  0  0  0
   -3.6783   -3.0431    1.0637 C   0  0  0  0  0  0  0  0  0  0  0  0
   -4.3689   -2.2852    1.4413 H   0  0  0  0  0  0  0  0  0  0  0  0
   -3.9979   -3.3531    0.0658 H   0  0  0  0  0  0  0  0  0  0  0  0
   -2.2714   -2.4782    1.0049 C   0  0  0  0  0  0  0  0  0  0  0  0
   -1.3683   -3.0182    1.6246 O   0  0  0  0  0  0  0  0  0  0  0  0
   -2.0183   -1.3504    0.2534 N   0  0  0  0  0  0  0  0  0  0  0  0
   -2.8184   -0.8704   -0.1571 H   0  0  0  0  0  0  0  0  0  0  0  0
   -0.7398   -0.6255    0.2448 C   0  0  1  0  0  0  0  0  0  0  0  0
   -0.1306   -0.9021    1.1114 H   0  0  0  0  0  0  0  0  0  0  0  0
    0.0260   -0.9829   -1.0410 C   0  0  0  0  0  0  0  0  0  0  0  0
    0.4090   -2.0054   -0.9620 H   0  0  0  0  0  0  0  0  0  0  0  0
   -0.6652   -0.9598   -1.8902 H   0  0  0  0  0  0  0  0  0  0  0  0
    1.1668   -0.0284   -1.3067 C   0  0  0  0  0  0  0  0  0  0  0  0
    2.3451   -0.1138   -0.5501 C   0  0  0  0  0  0  0  0  0  0  0  0
    2.4519   -0.8882    0.2042 H   0  0  0  0  0  0  0  0  0  0  0  0
    3.3928    0.7881   -0.7649 C   0  0  0  0  0  0  0  0  0  0  0  0
    4.3046    0.7113   -0.1798 H   0  0  0  0  0  0  0  0  0  0  0  0
    3.2680    1.7865   -1.7359 C   0  0  0  0  0  0  0  0  0  0  0  0
    4.0806    2.4871   -1.9045 H   0  0  0  0  0  0  0  0  0  0  0  0
    2.0954    1.8816   -2.4913 C   0  0  0  0  0  0  0  0  0  0  0  0
    1.9934    2.6581   -3.2437 H   0  0  0  0  0  0  0  0  0  0  0  0
    1.0491    0.9785   -2.2766 C   0  0  0  0  0  0  0  0  0  0  0  0
    0.1367    1.0707   -2.8594 H   0  0  0  0  0  0  0  0  0  0  0  0
   -1.0259    0.8889    0.3413 C   0  0  0  0  0  0  0  0  0  0  0  0
   -1.9720    1.3692   -0.2761 O   0  0  0  0  0  0  0  0  0  0  0  0
   -0.2966    1.6908    1.1998 N   0  0  0  0  0  0  0  0  0  0  0  0
    0.5354    1.2822    1.6157 H   0  0  0  0  0  0  0  0  0  0  0  0
   -0.4837    3.1331    1.2869 C   0  0  0  0  0  0  0  0  0  0  0  0
   -1.5184    3.3707    1.5554 H   0  0  0  0  0  0  0  0  0  0  0  0
    0.1754    3.5534    2.0525 H   0  0  0  0  0  0  0  0  0  0  0  0
   -0.2499    3.6071    0.3280 H   0  0  0  0  0  0  0  0  0  0  0  0
  1  2  1  0  0  0  0
  2  3  1  0  0  0  0
  2  4  1  0  0  0  0
  2  5  1  0  0  0  0
  5  6  2  0  0  0  0
  5  7  1  0  0  0  0
  7  8  1  0  0  0  0
  7  9  1  0  0  0  0
  9 10  1  0  0  0  0
  9 11  1  0  0  0  0
  9 25  1  0  0  0  0
 11 12  1  0  0  0  0
 11 13  1  0  0  0  0
 11 14  1  0  0  0  0
 14 15  1  0  0  0  0
 14 23  2  0  0  0  0
 15 16  1  0  0  0  0
 15 17  2  0  0  0  0
 17 18  1  0  0  0  0
 17 19  1  0  0  0  0
 19 20  1  0  0  0  0
 19 21  2  0  0  0  0
 21 22  1  0  0  0  0
 21 23  1  0  0  0  0
 23 24  1  0  0  0  0
 25 26  2  0  0  0  0
 25 27  1  0  0  0  0
 27 28  1  0  0  0  0
 27 29  1  0  0  0  0
 29 30  1  0  0  0  0
 29 31  1  0  0  0  0
 29 32  1  0  0  0  0
M  END
$$$$

  -OEChem-04042216033D

 32 32  0     1  0  0  0  0  0999 V2000
   -3.6911   -3.9329    1.7049 H   0  0  0  0  0  0  0  0  0  0  0  0
   -3.6688   -3.0591    1.0479 C   0  0  0  0  0  0  0  0  0  0  0  0
   -4.3663   -2.3114    1.4333 H   0  0  0  0  0  0  0  0  0  0  0  0
   -3.9862   -3.3623    0.0472 H   0  0  0  0  0  0  0  0  0  0  0  0
   -2.2672   -2.4807    0.9932 C   0  0  0  0  0  0  0  0  0  0  0  0
   -1.3575   -3.0228    1.6014 O   0  0  0  0  0  0  0  0  0  0  0  0
   -2.0256   -1.3412    0.2554 N   0  0  0  0  0  0  0  0  0  0  0  0
   -2.8310   -0.8625   -0.1461 H   0  0  0  0  0  0  0  0  0  0  0  0
   -0.7522   -0.6069    0.2524 C   0  0  1  0  0  0  0  0  0  0  0  0
   -0.1422   -0.8868    1.1173 H   0  0  0  0  0  0  0  0  0  0  0  0
    0.0213   -0.9594   -1.0316 C   0  0  0  0  0  0  0  0  0  0  0  0
    0.4015   -1.9831   -0.9532 H   0  0  0  0  0  0  0  0  0  0  0  0
   -0.6664   -0.9348   -1.8835 H   0  0  0  0  0  0  0  0  0  0  0  0
    1.1601   -0.0036   -1.3047 C   0  0  0  0  0  0  0  0  0  0  0  0
    2.4360   -0.2677   -0.7858 C   0  0  0  0  0  0  0  0  0  0  0  0
    2.6084   -1.1627   -0.1949 H   0  0  0  0  0  0  0  0  0  0  0  0
    3.4960    0.6136   -1.0243 C   0  0  0  0  0  0  0  0  0  0  0  0
    4.4813    0.3996   -0.6204 H   0  0  0  0  0  0  0  0  0  0  0  0
    3.2883    1.7675   -1.7862 C   0  0  0  0  0  0  0  0  0  0  0  0
    4.1106    2.4523   -1.9724 H   0  0  0  0  0  0  0  0  0  0  0  0
    2.0213    2.0365   -2.3124 C   0  0  0  0  0  0  0  0  0  0  0  0
    1.8561    2.9311   -2.9054 H   0  0  0  0  0  0  0  0  0  0  0  0
    0.9635    1.1527   -2.0760 C   0  0  0  0  0  0  0  0  0  0  0  0
   -0.0191    1.3740   -2.4847 H   0  0  0  0  0  0  0  0  0  0  0  0
   -1.0481    0.9037    0.3695 C   0  0  0  0  0  0  0  0  0  0  0  0
   -1.9934    1.3879   -0.2461 O   0  0  0  0  0  0  0  0  0  0  0  0
   -0.3216    1.6994    1.2361 N   0  0  0  0  0  0  0  0  0  0  0  0
    0.5097    1.2880    1.6510 H   0  0  0  0  0  0  0  0  0  0  0  0
   -0.5110    3.1407    1.3359 C   0  0  0  0  0  0  0  0  0  0  0  0
   -1.5476    3.3750    1.6003 H   0  0  0  0  0  0  0  0  0  0  0  0
    0.1426    3.5548    2.1095 H   0  0  0  0  0  0  0  0  0  0  0  0
   -0.2718    3.6239    0.3828 H   0  0  0  0  0  0  0  0  0  0  0  0
  1  2  1  0  0  0  0
  2  3  1  0  0  0  0
  2  4  1  0  0  0  0
  2  5  1  0  0  0  0
  5  6  2  0  0  0  0
  5  7  1  0  0  0  0
  7  8  1  0  0  0  0
  7  9  1  0  0  0  0
  9 10  1  0  0  0  0
  9 11  1  0  0  0  0
  9 25  1  0  0  0  0
 11 12  1  0  0  0  0
 11 13  1  0  0  0  0
 11 14  1  0  0  0  0
 14 15  1  0  0  0  0
 14 23  2  0  0  0  0
 15 16  1  0  0  0  0
 15 17  2  0  0  0  0
 17 18  1  0  0  0  0
 17 19  1  0  0  0  0
 19 20  1  0  0  0  0
 19 21  2  0  0  0  0
 21 22  1  0  0  0  0
 21 23  1  0  0  0  0
 23 24  1  0  0  0  0
 25 26  2  0  0  0  0
 25 27  1  0  0  0  0
 27 28  1  0  0  0  0
 27 29  1  0  0  0  0
 29 30  1  0  0  0  0
 29 31  1  0  0  0  0
 29 32  1  0  0  0  0
M  END
$$$$

  -OEChem-04042216033D

 32 32  0     1  0  0  0  0  0999 V2000
   -3.6749   -3.9606    1.6523 H   0  0  0  0  0  0  0  0  0  0  0  0
   -3.6562   -3.0795    1.0049 C   0  0  0  0  0  0  0  0  0  0  0  0
   -4.3711   -2.3467    1.3868 H   0  0  0  0  0  0  0  0  0  0  0  0
   -3.9532   -3.3764   -0.0038 H   0  0  0  0  0  0  0  0  0  0  0  0
   -2.2633   -2.4792    0.9778 C   0  0  0  0  0  0  0  0  0  0  0  0
   -1.3517   -3.0207    1.5835 O   0  0  0  0  0  0  0  0  0  0  0  0
   -2.0315   -1.3218    0.2652 N   0  0  0  0  0  0  0  0  0  0  0  0
   -2.8400   -0.8468   -0.1345 H   0  0  0  0  0  0  0  0  0  0  0  0
   -0.7666   -0.5731    0.2818 C   0  0  1  0  0  0  0  0  0  0  0  0
   -0.1627   -0.8590    1.1492 H   0  0  0  0  0  0  0  0  0  0  0  0
    0.0241   -0.9224   -0.9954 C   0  0  0  0  0  0  0  0  0  0  0  0
    0.3973   -1.9480   -0.9101 H   0  0  0  0  0  0  0  0  0  0  0  0
   -0.6585   -0.8998   -1.8514 H   0  0  0  0  0  0  0  0  0  0  0  0
    1.1675    0.0260   -1.2884 C   0  0  0  0  0  0  0  0  0  0  0  0
    2.4887   -0.3794   -1.0455 C   0  0  0  0  0  0  0  0  0  0  0  0
    2.6884   -1.3589   -0.6205 H   0  0  0  0  0  0  0  0  0  0  0  0
    3.5612    0.4698   -1.3388 C   0  0  0  0  0  0  0  0  0  0  0  0
    4.5788    0.1477   -1.1377 H   0  0  0  0  0  0  0  0  0  0  0  0
    3.3236    1.7296   -1.8956 C   0  0  0  0  0  0  0  0  0  0  0  0
    4.1551    2.3899   -2.1240 H   0  0  0  0  0  0  0  0  0  0  0  0
    2.0139    2.1332   -2.1697 C   0  0  0  0  0  0  0  0  0  0  0  0
    1.8248    3.1057   -2.6145 H   0  0  0  0  0  0  0  0  0  0  0  0
    0.9436    1.2815   -1.8784 C   0  0  0  0  0  0  0  0  0  0  0  0
   -0.0681    1.6035   -2.1123 H   0  0  0  0  0  0  0  0  0  0  0  0
   -1.0792    0.9304    0.4294 C   0  0  0  0  0  0  0  0  0  0  0  0
   -2.0243    1.4191   -0.1827 O   0  0  0  0  0  0  0  0  0  0  0  0
   -0.3640    1.7156    1.3149 N   0  0  0  0  0  0  0  0  0  0  0  0
    0.4622    1.3002    1.7362 H   0  0  0  0  0  0  0  0  0  0  0  0
   -0.5681    3.1527    1.4454 C   0  0  0  0  0  0  0  0  0  0  0  0
   -1.6113    3.3724    1.6957 H   0  0  0  0  0  0  0  0  0  0  0  0
    0.0673    3.5535    2.2409 H   0  0  0  0  0  0  0  0  0  0  0  0
   -0.3154    3.6608    0.5089 H   0  0  0  0  0  0  0  0  0  0  0  0
  1  2  1  0  0  0  0
  2  3  1  0  0  0  0
  2  4  1  0  0  0  0
  2  5  1  0  0  0  0
  5  6  2  0  0  0  0
  5  7  1  0  0  0  0
  7  8  1  0  0  0  0
  7  9  1  0  0  0  0
  9 10  1  0  0  0  0
  9 11  1  0  0  0  0
  9 25  1  0  0  0  0
 11 12  1  0  0  0  0
 11 13  1  0  0  0  0
 11 14  1  0  0  0  0
 14 15  1  0  0  0  0
 14 23  2  0  0  0  0
 15 16  1  0  0  0  0
 15 17  2  0  0  0  0
 17 18  1  0  0  0  0
 17 19  1  0  0  0  0
 19 20  1  0  0  0  0
 19 21  2  0  0  0  0
 21 22  1  0  0  0  0
 21 23  1  0  0  0  0
 23 24  1  0  0  0  0
 25 26  2  0  0  0  0
 25 27  1  0  0  0  0
 27 28  1  0  0  0  0
 27 29  1  0  0  0  0
 29 30  1  0  0  0  0
 29 31  1  0  0  0  0
 29 32  1  0  0  0  0
M  END
$$$$

  -OEChem-04042216033D

 32 32  0     1  0  0  0  0  0999 V2000
   -3.6514   -3.9892    1.5850 H   0  0  0  0  0  0  0  0  0  0  0  0
   -3.6403   -3.0928    0.9588 C   0  0  0  0  0  0  0  0  0  0  0  0
   -4.3660   -2.3780    1.3541 H   0  0  0  0  0  0  0  0  0  0  0  0
   -3.9285   -3.3696   -0.0581 H   0  0  0  0  0  0  0  0  0  0  0  0
   -2.2546   -2.4753    0.9538 C   0  0  0  0  0  0  0  0  0  0  0  0
   -1.3397   -3.0202    1.5515 O   0  0  0  0  0  0  0  0  0  0  0  0
   -2.0325   -1.2986    0.2701 N   0  0  0  0  0  0  0  0  0  0  0  0
   -2.8441   -0.8255   -0.1257 H   0  0  0  0  0  0  0  0  0  0  0  0
   -0.7781   -0.5328    0.3137 C   0  0  1  0  0  0  0  0  0  0  0  0
   -0.1861   -0.8246    1.1872 H   0  0  0  0  0  0  0  0  0  0  0  0
    0.0423   -0.8795   -0.9494 C   0  0  0  0  0  0  0  0  0  0  0  0
    0.4103   -1.9056   -0.8467 H   0  0  0  0  0  0  0  0  0  0  0  0
   -0.6304   -0.8679   -1.8133 H   0  0  0  0  0  0  0  0  0  0  0  0
    1.1955    0.0551   -1.2682 C   0  0  0  0  0  0  0  0  0  0  0  0
    2.5011   -0.4612   -1.3138 C   0  0  0  0  0  0  0  0  0  0  0  0
    2.6860   -1.4994   -1.0530 H   0  0  0  0  0  0  0  0  0  0  0  0
    3.5832    0.3483   -1.6756 C   0  0  0  0  0  0  0  0  0  0  0  0
    4.5885   -0.0626   -1.6852 H   0  0  0  0  0  0  0  0  0  0  0  0
    3.3704    1.6817   -2.0325 C   0  0  0  0  0  0  0  0  0  0  0  0
    4.2093    2.3107   -2.3155 H   0  0  0  0  0  0  0  0  0  0  0  0
    2.0721    2.1963   -2.0463 C   0  0  0  0  0  0  0  0  0  0  0  0
    1.8978    3.2240   -2.3518 H   0  0  0  0  0  0  0  0  0  0  0  0
    0.9925    1.3838   -1.6851 C   0  0  0  0  0  0  0  0  0  0  0  0
   -0.0091    1.7982   -1.7517 H   0  0  0  0  0  0  0  0  0  0  0  0
   -1.1149    0.9606    0.4930 C   0  0  0  0  0  0  0  0  0  0  0  0
   -2.0674    1.4484   -0.1079 O   0  0  0  0  0  0  0  0  0  0  0  0
   -0.4178    1.7345    1.4025 N   0  0  0  0  0  0  0  0  0  0  0  0
    0.4031    1.3178    1.8331 H   0  0  0  0  0  0  0  0  0  0  0  0
   -0.6645    3.1579    1.5956 C   0  0  0  0  0  0  0  0  0  0  0  0
   -1.7149    3.3359    1.8494 H   0  0  0  0  0  0  0  0  0  0  0  0
   -0.0446    3.5408    2.4119 H   0  0  0  0  0  0  0  0  0  0  0  0
   -0.4220    3.7145    0.6844 H   0  0  0  0  0  0  0  0  0  0  0  0
  1  2  1  0  0  0  0
  2  3  1  0  0  0  0
  2  4  1  0  0  0  0
  2  5  1  0  0  0  0
  5  6  2  0  0  0  0
  5  7  1  0  0  0  0
  7  8  1  0  0  0  0
  7  9  1  0  0  0  0
  9 10  1  0  0  0  0
  9 11  1  0  0  0  0
  9 25  1  0  0  0  0
 11 12  1  0  0  0  0
 11 13  1  0  0  0  0
 11 14  1  0  0  0  0
 14 15  1  0  0  0  0
 14 23  2  0  0  0  0
 15 16  1  0  0  0  0
 15 17  2  0  0  0  0
 17 18  1  0  0  0  0
 17 19  1  0  0  0  0
 19 20  1  0  0  0  0
 19 21  2  0  0  0  0
 21 22  1  0  0  0  0
 21 23  1  0  0  0  0
 23 24  1  0  0  0  0
 25 26  2  0  0  0  0
 25 27  1  0  0  0  0
 27 28  1  0  0  0  0
 27 29  1  0  0  0  0
 29 30  1  0  0  0  0
 29 31  1  0  0  0  0
 29 32  1  0  0  0  0
M  END
$$$$

  -OEChem-04042216033D

 32 32  0     1  0  0  0  0  0999 V2000
   -3.6110   -4.0294    1.4993 H   0  0  0  0  0  0  0  0  0  0  0  0
   -3.6094   -3.1130    0.9026 C   0  0  0  0  0  0  0  0  0  0  0  0
   -4.3532   -2.4251    1.3117 H   0  0  0  0  0  0  0  0  0  0  0  0
   -3.8802   -3.3615   -0.1264 H   0  0  0  0  0  0  0  0  0  0  0  0
   -2.2360   -2.4698    0.9359 C   0  0  0  0  0  0  0  0  0  0  0  0
   -1.3227   -3.0090    1.5408 O   0  0  0  0  0  0  0  0  0  0  0  0
   -2.0228   -1.2763    0.2790 N   0  0  0  0  0  0  0  0  0  0  0  0
   -2.8345   -0.8114   -0.1261 H   0  0  0  0  0  0  0  0  0  0  0  0
   -0.7802   -0.4928    0.3542 C   0  0  1  0  0  0  0  0  0  0  0  0
   -0.1981   -0.7870    1.2334 H   0  0  0  0  0  0  0  0  0  0  0  0
    0.0632   -0.8299   -0.8998 C   0  0  0  0  0  0  0  0  0  0  0  0
    0.4224   -1.8579   -0.7859 H   0  0  0  0  0  0  0  0  0  0  0  0
   -0.6070   -0.8222   -1.7657 H   0  0  0  0  0  0  0  0  0  0  0  0
    1.2311    0.0809   -1.2557 C   0  0  0  0  0  0  0  0  0  0  0  0
    2.4516   -0.5224   -1.6080 C   0  0  0  0  0  0  0  0  0  0  0  0
    2.5658   -1.6002   -1.5369 H   0  0  0  0  0  0  0  0  0  0  0  0
    3.5455    0.2396   -2.0310 C   0  0  0  0  0  0  0  0  0  0  0  0
    4.4859   -0.2478   -2.2713 H   0  0  0  0  0  0  0  0  0  0  0  0
    3.4253    1.6244   -2.1546 C   0  0  0  0  0  0  0  0  0  0  0  0
    4.2720    2.2182   -2.4868 H   0  0  0  0  0  0  0  0  0  0  0  0
    2.2017    2.2372   -1.8799 C   0  0  0  0  0  0  0  0  0  0  0  0
    2.0889    3.3089   -2.0150 H   0  0  0  0  0  0  0  0  0  0  0  0
    1.1103    1.4706   -1.4580 C   0  0  0  0  0  0  0  0  0  0  0  0
    0.1653    1.9856   -1.3309 H   0  0  0  0  0  0  0  0  0  0  0  0
   -1.1546    0.9869    0.5586 C   0  0  0  0  0  0  0  0  0  0  0  0
   -2.1037    1.4689   -0.0518 O   0  0  0  0  0  0  0  0  0  0  0  0
   -0.4889    1.7586    1.4937 N   0  0  0  0  0  0  0  0  0  0  0  0
    0.3198    1.3451    1.9502 H   0  0  0  0  0  0  0  0  0  0  0  0
   -0.7887    3.1651    1.7313 C   0  0  0  0  0  0  0  0  0  0  0  0
   -1.8424    3.2928    2.0012 H   0  0  0  0  0  0  0  0  0  0  0  0
   -0.1748    3.5489    2.5519 H   0  0  0  0  0  0  0  0  0  0  0  0
   -0.5792    3.7577    0.8345 H   0  0  0  0  0  0  0  0  0  0  0  0
  1  2  1  0  0  0  0
  2  3  1  0  0  0  0
  2  4  1  0  0  0  0
  2  5  1  0  0  0  0
  5  6  2  0  0  0  0
  5  7  1  0  0  0  0
  7  8  1  0  0  0  0
  7  9  1  0  0  0  0
  9 10  1  0  0  0  0
  9 11  1  0  0  0  0
  9 25  1  0  0  0  0
 11 12  1  0  0  0  0
 11 13  1  0  0  0  0
 11 14  1  0  0  0  0
 14 15  1  0  0  0  0
 14 23  2  0  0  0  0
 15 16  1  0  0  0  0
 15 17  2  0  0  0  0
 17 18  1  0  0  0  0
 17 19  1  0  0  0  0
 19 20  1  0  0  0  0
 19 21  2  0  0  0  0
 21 22  1  0  0  0  0
 21 23  1  0  0  0  0
 23 24  1  0  0  0  0
 25 26  2  0  0  0  0
 25 27  1  0  0  0  0
 27 28  1  0  0  0  0
 27 29  1  0  0  0  0
 29 30  1  0  0  0  0
 29 31  1  0  0  0  0
 29 32  1  0  0  0  0
M  END
$$$$

  -OEChem-04042216033D

 32 32  0     1  0  0  0  0  0999 V2000
   -3.5627   -4.0559    1.4195 H   0  0  0  0  0  0  0  0  0  0  0  0
   -3.5636   -3.1284    0.8400 C   0  0  0  0  0  0  0  0  0  0  0  0
   -4.3346   -2.4648    1.2389 H   0  0  0  0  0  0  0  0  0  0  0  0
   -3.7976   -3.3634   -0.2012 H   0  0  0  0  0  0  0  0  0  0  0  0
   -2.2060   -2.4564    0.9261 C   0  0  0  0  0  0  0  0  0  0  0  0
   -1.3029   -2.9809    1.5587 O   0  0  0  0  0  0  0  0  0  0  0  0
   -1.9955   -1.2526    0.2871 N   0  0  0  0  0  0  0  0  0  0  0  0
   -2.8004   -0.8021   -0.1472 H   0  0  0  0  0  0  0  0  0  0  0  0
   -0.7673   -0.4504    0.3992 C   0  0  1  0  0  0  0  0  0  0  0  0
   -0.1910   -0.7414    1.2833 H   0  0  0  0  0  0  0  0  0  0  0  0
    0.0849   -0.7749   -0.8553 C   0  0  0  0  0  0  0  0  0  0  0  0
    0.4400   -1.8035   -0.7321 H   0  0  0  0  0  0  0  0  0  0  0  0
   -0.5910   -0.7720   -1.7169 H   0  0  0  0  0  0  0  0  0  0  0  0
    1.2670    0.1021   -1.2619 C   0  0  0  0  0  0  0  0  0  0  0  0
    2.3260   -0.5429   -1.9276 C   0  0  0  0  0  0  0  0  0  0  0  0
    2.3029   -1.6201   -2.0655 H   0  0  0  0  0  0  0  0  0  0  0  0
    3.4323    0.1650   -2.4070 C   0  0  0  0  0  0  0  0  0  0  0  0
    4.2452   -0.3644   -2.8952 H   0  0  0  0  0  0  0  0  0  0  0  0
    3.4866    1.5511   -2.2659 C   0  0  0  0  0  0  0  0  0  0  0  0
    4.3423    2.1055   -2.6399 H   0  0  0  0  0  0  0  0  0  0  0  0
    2.4209    2.2231   -1.6667 C   0  0  0  0  0  0  0  0  0  0  0  0
    2.4399    3.3063   -1.5892 H   0  0  0  0  0  0  0  0  0  0  0  0
    1.3152    1.5105   -1.1886 C   0  0  0  0  0  0  0  0  0  0  0  0
    0.4991    2.1050   -0.8040 H   0  0  0  0  0  0  0  0  0  0  0  0
   -1.1939    1.0137    0.6095 C   0  0  0  0  0  0  0  0  0  0  0  0
   -2.1246    1.4841   -0.0364 O   0  0  0  0  0  0  0  0  0  0  0  0
   -0.5757    1.7927    1.5717 N   0  0  0  0  0  0  0  0  0  0  0  0
    0.1910    1.3752    2.0927 H   0  0  0  0  0  0  0  0  0  0  0  0
   -0.9511    3.1732    1.8514 C   0  0  0  0  0  0  0  0  0  0  0  0
   -2.0099    3.2352    2.1244 H   0  0  0  0  0  0  0  0  0  0  0  0
   -0.3576    3.5651    2.6831 H   0  0  0  0  0  0  0  0  0  0  0  0
   -0.7761    3.8031    0.9730 H   0  0  0  0  0  0  0  0  0  0  0  0
  1  2  1  0  0  0  0
  2  3  1  0  0  0  0
  2  4  1  0  0  0  0
  2  5  1  0  0  0  0
  5  6  2  0  0  0  0
  5  7  1  0  0  0  0
  7  8  1  0  0  0  0
  7  9  1  0  0  0  0
  9 10  1  0  0  0  0
  9 11  1  0  0  0  0
  9 25  1  0  0  0  0
 11 12  1  0  0  0  0
 11 13  1  0  0  0  0
 11 14  1  0  0  0  0
 14 15  1  0  0  0  0
 14 23  2  0  0  0  0
 15 16  1  0  0  0  0
 15 17  2  0  0  0  0
 17 18  1  0  0  0  0
 17 19  1  0  0  0  0
 19 20  1  0  0  0  0
 19 21  2  0  0  0  0
 21 22  1  0  0  0  0
 21 23  1  0  0  0  0
 23 24  1  0  0  0  0
 25 26  2  0  0  0  0
 25 27  1  0  0  0  0
 27 28  1  0  0  0  0
 27 29  1  0  0  0  0
 29 30  1  0  0  0  0
 29 31  1  0  0  0  0
 29 32  1  0  0  0  0
M  END
$$$$

  -OEChem-04042216033D

 32 32  0     1  0  0  0  0  0999 V2000
   -3.5265   -4.0554    1.3700 H   0  0  0  0  0  0  0  0  0  0  0  0
   -3.5205   -3.1276    0.7911 C   0  0  0  0  0  0  0  0  0  0  0  0
   -4.3145   -2.4751    1.1626 H   0  0  0  0  0  0  0  0  0  0  0  0
   -3.7143   -3.3651   -0.2578 H   0  0  0  0  0  0  0  0  0  0  0  0
   -2.1764   -2.4369    0.9242 C   0  0  0  0  0  0  0  0  0  0  0  0
   -1.2898   -2.9456    1.5918 O   0  0  0  0  0  0  0  0  0  0  0  0
   -1.9589   -1.2328    0.2888 N   0  0  0  0  0  0  0  0  0  0  0  0
   -2.7542   -0.7914   -0.1725 H   0  0  0  0  0  0  0  0  0  0  0  0
   -0.7422   -0.4184    0.4379 C   0  0  1  0  0  0  0  0  0  0  0  0
   -0.1686   -0.7024    1.3260 H   0  0  0  0  0  0  0  0  0  0  0  0
    0.0991   -0.7337   -0.8287 C   0  0  0  0  0  0  0  0  0  0  0  0
    0.4532   -1.7639   -0.7127 H   0  0  0  0  0  0  0  0  0  0  0  0
   -0.5903   -0.7259   -1.6799 H   0  0  0  0  0  0  0  0  0  0  0  0
    1.2881    0.1126   -1.2760 C   0  0  0  0  0  0  0  0  0  0  0  0
    2.1325   -0.4804   -2.2325 C   0  0  0  0  0  0  0  0  0  0  0  0
    1.9238   -1.4860   -2.5861 H   0  0  0  0  0  0  0  0  0  0  0  0
    3.2486    0.1890   -2.7431 C   0  0  0  0  0  0  0  0  0  0  0  0
    3.8865   -0.2976   -3.4748 H   0  0  0  0  0  0  0  0  0  0  0  0
    3.5396    1.4835   -2.3146 C   0  0  0  0  0  0  0  0  0  0  0  0
    4.4043    2.0085   -2.7096 H   0  0  0  0  0  0  0  0  0  0  0  0
    2.7056    2.1036   -1.3841 C   0  0  0  0  0  0  0  0  0  0  0  0
    2.9185    3.1183   -1.0605 H   0  0  0  0  0  0  0  0  0  0  0  0
    1.5895    1.4294   -0.8753 C   0  0  0  0  0  0  0  0  0  0  0  0
    0.9802    1.9855   -0.1839 H   0  0  0  0  0  0  0  0  0  0  0  0
   -1.2209    1.0354    0.6296 C   0  0  0  0  0  0  0  0  0  0  0  0
   -2.1349    1.4800   -0.0571 O   0  0  0  0  0  0  0  0  0  0  0  0
   -0.6648    1.8375    1.6116 N   0  0  0  0  0  0  0  0  0  0  0  0
    0.0464    1.4240    2.2088 H   0  0  0  0  0  0  0  0  0  0  0  0
   -1.1132    3.1976    1.8846 C   0  0  0  0  0  0  0  0  0  0  0  0
   -2.1719    3.2034    2.1646 H   0  0  0  0  0  0  0  0  0  0  0  0
   -0.5355    3.6284    2.7081 H   0  0  0  0  0  0  0  0  0  0  0  0
   -0.9789    3.8295    1.0004 H   0  0  0  0  0  0  0  0  0  0  0  0
  1  2  1  0  0  0  0
  2  3  1  0  0  0  0
  2  4  1  0  0  0  0
  2  5  1  0  0  0  0
  5  6  2  0  0  0  0
  5  7  1  0  0  0  0
  7  8  1  0  0  0  0
  7  9  1  0  0  0  0
  9 10  1  0  0  0  0
  9 11  1  0  0  0  0
  9 25  1  0  0  0  0
 11 12  1  0  0  0  0
 11 13  1  0  0  0  0
 11 14  1  0  0  0  0
 14 15  1  0  0  0  0
 14 23  2  0  0  0  0
 15 16  1  0  0  0  0
 15 17  2  0  0  0  0
 17 18  1  0  0  0  0
 17 19  1  0  0  0  0
 19 20  1  0  0  0  0
 19 21  2  0  0  0  0
 21 22  1  0  0  0  0
 21 23  1  0  0  0  0
 23 24  1  0  0  0  0
 25 26  2  0  0  0  0
 25 27  1  0  0  0  0
 27 28  1  0  0  0  0
 27 29  1  0  0  0  0
 29 30  1  0  0  0  0
 29 31  1  0  0  0  0
 29 32  1  0  0  0  0
M  END
$$$$
