
  -OEChem-01062216073D

 23 22  0     1  0  0  0  0  0999 V2000
   -2.8273   -3.4575    1.1811 H   0  0  0  0  0  0  0  0  0  0  0  0
   -2.7309   -2.4717    0.7176 C   0  0  0  0  0  0  0  0  0  0  0  0
   -3.5496   -1.8366    1.0641 H   0  0  0  0  0  0  0  0  0  0  0  0
   -2.7989   -2.5850   -0.3668 H   0  0  0  0  0  0  0  0  0  0  0  0
   -1.3989   -1.8492    1.0903 C   0  0  0  0  0  0  0  0  0  0  0  0
   -0.7160   -2.3660    1.9577 O   0  0  0  0  0  0  0  0  0  0  0  0
   -1.0679   -0.6068    0.5917 N   0  0  0  0  0  0  0  0  0  0  0  0
   -1.7706   -0.1675   -0.0024 H   0  0  0  0  0  0  0  0  0  0  0  0
    0.2785   -0.0044    0.5092 C   0  0  1  0  0  0  0  0  0  0  0  0
    0.7196    0.0616    1.5088 H   0  0  0  0  0  0  0  0  0  0  0  0
    1.2243   -0.7819   -0.4508 C   0  0  0  0  0  0  0  0  0  0  0  0
    0.7524   -0.8235   -1.4385 H   0  0  0  0  0  0  0  0  0  0  0  0
    2.1632   -0.2315   -0.5598 H   0  0  0  0  0  0  0  0  0  0  0  0
    1.6705   -2.4974    0.0389 S   0  0  0  0  0  0  0  0  0  0  0  0
    2.4274   -2.8920   -1.0071 H   0  0  0  0  0  0  0  0  0  0  0  0
    0.1686    1.4106   -0.1131 C   0  0  0  0  0  0  0  0  0  0  0  0
   -0.9067    1.8110   -0.5481 O   0  0  0  0  0  0  0  0  0  0  0  0
    1.2903    2.2006   -0.3019 N   0  0  0  0  0  0  0  0  0  0  0  0
    2.1600    1.8869    0.1197 H   0  0  0  0  0  0  0  0  0  0  0  0
    1.2367    3.5374   -0.8834 C   0  0  0  0  0  0  0  0  0  0  0  0
    0.6067    4.1952   -0.2753 H   0  0  0  0  0  0  0  0  0  0  0  0
    2.2407    3.9696   -0.9334 H   0  0  0  0  0  0  0  0  0  0  0  0
    0.8280    3.4981   -1.8986 H   0  0  0  0  0  0  0  0  0  0  0  0
  1  2  1  0  0  0  0
  2  3  1  0  0  0  0
  2  4  1  0  0  0  0
  2  5  1  0  0  0  0
  5  6  2  0  0  0  0
  5  7  1  0  0  0  0
  7  8  1  0  0  0  0
  7  9  1  0  0  0  0
  9 10  1  0  0  0  0
  9 11  1  0  0  0  0
  9 16  1  0  0  0  0
 11 12  1  0  0  0  0
 11 13  1  0  0  0  0
 11 14  1  0  0  0  0
 14 15  1  0  0  0  0
 16 17  2  0  0  0  0
 16 18  1  0  0  0  0
 18 19  1  0  0  0  0
 18 20  1  0  0  0  0
 20 21  1  0  0  0  0
 20 22  1  0  0  0  0
 20 23  1  0  0  0  0
M  END
$$$$

  -OEChem-01062216073D

 23 22  0     1  0  0  0  0  0999 V2000
   -2.8561   -3.4321    1.1557 H   0  0  0  0  0  0  0  0  0  0  0  0
   -2.7459   -2.4388    0.7115 C   0  0  0  0  0  0  0  0  0  0  0  0
   -3.5443   -1.7935    1.0854 H   0  0  0  0  0  0  0  0  0  0  0  0
   -2.8345   -2.5276   -0.3737 H   0  0  0  0  0  0  0  0  0  0  0  0
   -1.3945   -1.8530    1.0734 C   0  0  0  0  0  0  0  0  0  0  0  0
   -0.7142   -2.3975    1.9254 O   0  0  0  0  0  0  0  0  0  0  0  0
   -1.0428   -0.6130    0.5828 N   0  0  0  0  0  0  0  0  0  0  0  0
   -1.7596   -0.1306    0.0414 H   0  0  0  0  0  0  0  0  0  0  0  0
    0.3071   -0.0160    0.5024 C   0  0  1  0  0  0  0  0  0  0  0  0
    0.7455    0.0529    1.5030 H   0  0  0  0  0  0  0  0  0  0  0  0
    1.2526   -0.8127   -0.4456 C   0  0  0  0  0  0  0  0  0  0  0  0
    0.7860   -0.8593   -1.4353 H   0  0  0  0  0  0  0  0  0  0  0  0
    2.1993   -0.2762   -0.5512 H   0  0  0  0  0  0  0  0  0  0  0  0
    1.6892   -2.5259    0.0599 S   0  0  0  0  0  0  0  0  0  0  0  0
    2.4473   -2.9358   -0.9793 H   0  0  0  0  0  0  0  0  0  0  0  0
    0.1894    1.4047   -0.1175 C   0  0  0  0  0  0  0  0  0  0  0  0
   -0.9180    1.8951   -0.3150 O   0  0  0  0  0  0  0  0  0  0  0  0
    1.2922    2.0939   -0.5968 N   0  0  0  0  0  0  0  0  0  0  0  0
    2.2101    1.7211   -0.3729 H   0  0  0  0  0  0  0  0  0  0  0  0
    1.2068    3.4168   -1.2062 C   0  0  0  0  0  0  0  0  0  0  0  0
    0.7994    4.1418   -0.4935 H   0  0  0  0  0  0  0  0  0  0  0  0
    2.2003    3.7558   -1.5150 H   0  0  0  0  0  0  0  0  0  0  0  0
    0.5620    3.3915   -2.0911 H   0  0  0  0  0  0  0  0  0  0  0  0
  1  2  1  0  0  0  0
  2  3  1  0  0  0  0
  2  4  1  0  0  0  0
  2  5  1  0  0  0  0
  5  6  2  0  0  0  0
  5  7  1  0  0  0  0
  7  8  1  0  0  0  0
  7  9  1  0  0  0  0
  9 10  1  0  0  0  0
  9 11  1  0  0  0  0
  9 16  1  0  0  0  0
 11 12  1  0  0  0  0
 11 13  1  0  0  0  0
 11 14  1  0  0  0  0
 14 15  1  0  0  0  0
 16 17  2  0  0  0  0
 16 18  1  0  0  0  0
 18 19  1  0  0  0  0
 18 20  1  0  0  0  0
 20 21  1  0  0  0  0
 20 22  1  0  0  0  0
 20 23  1  0  0  0  0
M  END
$$$$

  -OEChem-01062216073D

 23 22  0     1  0  0  0  0  0999 V2000
   -2.9034   -3.3959    1.1302 H   0  0  0  0  0  0  0  0  0  0  0  0
   -2.7788   -2.3922    0.7148 C   0  0  0  0  0  0  0  0  0  0  0  0
   -3.5405   -1.7355    1.1418 H   0  0  0  0  0  0  0  0  0  0  0  0
   -2.9130   -2.4415   -0.3682 H   0  0  0  0  0  0  0  0  0  0  0  0
   -1.3959   -1.8619    1.0416 C   0  0  0  0  0  0  0  0  0  0  0  0
   -0.7131   -2.4469    1.8632 O   0  0  0  0  0  0  0  0  0  0  0  0
   -1.0191   -0.6265    0.5572 N   0  0  0  0  0  0  0  0  0  0  0  0
   -1.7487   -0.0981    0.0803 H   0  0  0  0  0  0  0  0  0  0  0  0
    0.3350   -0.0361    0.4841 C   0  0  1  0  0  0  0  0  0  0  0  0
    0.7598    0.0445    1.4897 H   0  0  0  0  0  0  0  0  0  0  0  0
    1.3023   -0.8427   -0.4338 C   0  0  0  0  0  0  0  0  0  0  0  0
    0.8581   -0.9019   -1.4330 H   0  0  0  0  0  0  0  0  0  0  0  0
    2.2500   -0.3046   -0.5187 H   0  0  0  0  0  0  0  0  0  0  0  0
    1.7414   -2.5472    0.0971 S   0  0  0  0  0  0  0  0  0  0  0  0
    2.5072   -2.9692   -0.9315 H   0  0  0  0  0  0  0  0  0  0  0  0
    0.2076    1.3855   -0.1382 C   0  0  0  0  0  0  0  0  0  0  0  0
   -0.8702    1.9689   -0.0882 O   0  0  0  0  0  0  0  0  0  0  0  0
    1.2118    1.9770   -0.8900 N   0  0  0  0  0  0  0  0  0  0  0  0
    2.1202    1.5244   -0.9013 H   0  0  0  0  0  0  0  0  0  0  0  0
    1.0810    3.2909   -1.5116 C   0  0  0  0  0  0  0  0  0  0  0  0
    0.8970    4.0581   -0.7520 H   0  0  0  0  0  0  0  0  0  0  0  0
    1.9990    3.5489   -2.0484 H   0  0  0  0  0  0  0  0  0  0  0  0
    0.2512    3.2969   -2.2263 H   0  0  0  0  0  0  0  0  0  0  0  0
  1  2  1  0  0  0  0
  2  3  1  0  0  0  0
  2  4  1  0  0  0  0
  2  5  1  0  0  0  0
  5  6  2  0  0  0  0
  5  7  1  0  0  0  0
  7  8  1  0  0  0  0
  7  9  1  0  0  0  0
  9 10  1  0  0  0  0
  9 11  1  0  0  0  0
  9 16  1  0  0  0  0
 11 12  1  0  0  0  0
 11 13  1  0  0  0  0
 11 14  1  0  0  0  0
 14 15  1  0  0  0  0
 16 17  2  0  0  0  0
 16 18  1  0  0  0  0
 18 19  1  0  0  0  0
 18 20  1  0  0  0  0
 20 21  1  0  0  0  0
 20 22  1  0  0  0  0
 20 23  1  0  0  0  0
M  END
$$$$

  -OEChem-01062216073D

 23 22  0     1  0  0  0  0  0999 V2000
   -2.9617   -3.3488    1.1458 H   0  0  0  0  0  0  0  0  0  0  0  0
   -2.8104   -2.3527    0.7203 C   0  0  0  0  0  0  0  0  0  0  0  0
   -3.5370   -1.6662    1.1614 H   0  0  0  0  0  0  0  0  0  0  0  0
   -2.9732   -2.4037   -0.3587 H   0  0  0  0  0  0  0  0  0  0  0  0
   -1.4015   -1.8701    1.0093 C   0  0  0  0  0  0  0  0  0  0  0  0
   -0.7131   -2.4926    1.7969 O   0  0  0  0  0  0  0  0  0  0  0  0
   -1.0070   -0.6371    0.5319 N   0  0  0  0  0  0  0  0  0  0  0  0
   -1.7447   -0.0771    0.1077 H   0  0  0  0  0  0  0  0  0  0  0  0
    0.3514   -0.0544    0.4612 C   0  0  1  0  0  0  0  0  0  0  0  0
    0.7639    0.0334    1.4716 H   0  0  0  0  0  0  0  0  0  0  0  0
    1.3438   -0.8600   -0.4294 C   0  0  0  0  0  0  0  0  0  0  0  0
    0.9201   -0.9369   -1.4362 H   0  0  0  0  0  0  0  0  0  0  0  0
    2.2851   -0.3068   -0.4971 H   0  0  0  0  0  0  0  0  0  0  0  0
    1.7930   -2.5542    0.1237 S   0  0  0  0  0  0  0  0  0  0  0  0
    2.6064   -2.9656   -0.8719 H   0  0  0  0  0  0  0  0  0  0  0  0
    0.2192    1.3678   -0.1566 C   0  0  0  0  0  0  0  0  0  0  0  0
   -0.7610    2.0466    0.1266 O   0  0  0  0  0  0  0  0  0  0  0  0
    1.0599    1.8579   -1.1455 N   0  0  0  0  0  0  0  0  0  0  0  0
    1.8740    1.3048   -1.3920 H   0  0  0  0  0  0  0  0  0  0  0  0
    0.8844    3.1612   -1.7780 C   0  0  0  0  0  0  0  0  0  0  0  0
    0.9425    3.9608   -1.0318 H   0  0  0  0  0  0  0  0  0  0  0  0
    1.6669    3.3277   -2.5247 H   0  0  0  0  0  0  0  0  0  0  0  0
   -0.0877    3.2171   -2.2795 H   0  0  0  0  0  0  0  0  0  0  0  0
  1  2  1  0  0  0  0
  2  3  1  0  0  0  0
  2  4  1  0  0  0  0
  2  5  1  0  0  0  0
  5  6  2  0  0  0  0
  5  7  1  0  0  0  0
  7  8  1  0  0  0  0
  7  9  1  0  0  0  0
  9 10  1  0  0  0  0
  9 11  1  0  0  0  0
  9 16  1  0  0  0  0
 11 12  1  0  0  0  0
 11 13  1  0  0  0  0
 11 14  1  0  0  0  0
 14 15  1  0  0  0  0
 16 17  2  0  0  0  0
 16 18  1  0  0  0  0
 18 19  1  0  0  0  0
 18 20  1  0  0  0  0
 20 21  1  0  0  0  0
 20 22  1  0  0  0  0
 20 23  1  0  0  0  0
M  END
$$$$

  -OEChem-01062216073D

 23 22  0     1  0  0  0  0  0999 V2000
   -2.9704   -3.3420    1.1278 H   0  0  0  0  0  0  0  0  0  0  0  0
   -2.8243   -2.3338    0.7301 C   0  0  0  0  0  0  0  0  0  0  0  0
   -3.5337   -1.6574    1.2131 H   0  0  0  0  0  0  0  0  0  0  0  0
   -3.0180   -2.3494   -0.3449 H   0  0  0  0  0  0  0  0  0  0  0  0
   -1.4046   -1.8693    0.9949 C   0  0  0  0  0  0  0  0  0  0  0  0
   -0.7102   -2.5069    1.7642 O   0  0  0  0  0  0  0  0  0  0  0  0
   -1.0069   -0.6381    0.5146 N   0  0  0  0  0  0  0  0  0  0  0  0
   -1.7496   -0.0717    0.1104 H   0  0  0  0  0  0  0  0  0  0  0  0
    0.3533   -0.0594    0.4410 C   0  0  1  0  0  0  0  0  0  0  0  0
    0.7589    0.0361    1.4536 H   0  0  0  0  0  0  0  0  0  0  0  0
    1.3625   -0.8641   -0.4304 C   0  0  0  0  0  0  0  0  0  0  0  0
    0.9464   -0.9634   -1.4381 H   0  0  0  0  0  0  0  0  0  0  0  0
    2.2941   -0.2932   -0.4997 H   0  0  0  0  0  0  0  0  0  0  0  0
    1.8230   -2.5486    0.1424 S   0  0  0  0  0  0  0  0  0  0  0  0
    2.6672   -2.9560   -0.8288 H   0  0  0  0  0  0  0  0  0  0  0  0
    0.2245    1.3597   -0.1785 C   0  0  0  0  0  0  0  0  0  0  0  0
   -0.5973    2.1336    0.2949 O   0  0  0  0  0  0  0  0  0  0  0  0
    0.8502    1.7436   -1.3559 N   0  0  0  0  0  0  0  0  0  0  0  0
    1.4984    1.0905   -1.7836 H   0  0  0  0  0  0  0  0  0  0  0  0
    0.6403    3.0391   -1.9938 C   0  0  0  0  0  0  0  0  0  0  0  0
    0.9100    3.8518   -1.3110 H   0  0  0  0  0  0  0  0  0  0  0  0
    1.2600    3.1236   -2.8918 H   0  0  0  0  0  0  0  0  0  0  0  0
   -0.4086    3.1575   -2.2857 H   0  0  0  0  0  0  0  0  0  0  0  0
  1  2  1  0  0  0  0
  2  3  1  0  0  0  0
  2  4  1  0  0  0  0
  2  5  1  0  0  0  0
  5  6  2  0  0  0  0
  5  7  1  0  0  0  0
  7  8  1  0  0  0  0
  7  9  1  0  0  0  0
  9 10  1  0  0  0  0
  9 11  1  0  0  0  0
  9 16  1  0  0  0  0
 11 12  1  0  0  0  0
 11 13  1  0  0  0  0
 11 14  1  0  0  0  0
 14 15  1  0  0  0  0
 16 17  2  0  0  0  0
 16 18  1  0  0  0  0
 18 19  1  0  0  0  0
 18 20  1  0  0  0  0
 20 21  1  0  0  0  0
 20 22  1  0  0  0  0
 20 23  1  0  0  0  0
M  END
$$$$

  -OEChem-01062216073D

 23 22  0     1  0  0  0  0  0999 V2000
   -2.9538   -3.3520    1.1508 H   0  0  0  0  0  0  0  0  0  0  0  0
   -2.8184   -2.3481    0.7385 C   0  0  0  0  0  0  0  0  0  0  0  0
   -3.5397   -1.6742    1.2068 H   0  0  0  0  0  0  0  0  0  0  0  0
   -3.0049   -2.3831   -0.3373 H   0  0  0  0  0  0  0  0  0  0  0  0
   -1.4065   -1.8612    1.0055 C   0  0  0  0  0  0  0  0  0  0  0  0
   -0.7068   -2.4807    1.7842 O   0  0  0  0  0  0  0  0  0  0  0  0
   -1.0214   -0.6310    0.5114 N   0  0  0  0  0  0  0  0  0  0  0  0
   -1.7661   -0.0910    0.0782 H   0  0  0  0  0  0  0  0  0  0  0  0
    0.3385   -0.0538    0.4214 C   0  0  1  0  0  0  0  0  0  0  0  0
    0.7478    0.0487    1.4322 H   0  0  0  0  0  0  0  0  0  0  0  0
    1.3515   -0.8600   -0.4433 C   0  0  0  0  0  0  0  0  0  0  0  0
    0.9335   -0.9831   -1.4469 H   0  0  0  0  0  0  0  0  0  0  0  0
    2.2746   -0.2766   -0.5282 H   0  0  0  0  0  0  0  0  0  0  0  0
    1.8233   -2.5345    0.1494 S   0  0  0  0  0  0  0  0  0  0  0  0
    2.6970   -2.9320   -0.7999 H   0  0  0  0  0  0  0  0  0  0  0  0
    0.2165    1.3597   -0.2038 C   0  0  0  0  0  0  0  0  0  0  0  0
   -0.3615    2.2344    0.4254 O   0  0  0  0  0  0  0  0  0  0  0  0
    0.5753    1.6444   -1.5130 N   0  0  0  0  0  0  0  0  0  0  0  0
    0.9919    0.9003   -2.0630 H   0  0  0  0  0  0  0  0  0  0  0  0
    0.3683    2.9465   -2.1381 C   0  0  0  0  0  0  0  0  0  0  0  0
    0.8840    3.7300   -1.5726 H   0  0  0  0  0  0  0  0  0  0  0  0
    0.7618    2.9432   -3.1592 H   0  0  0  0  0  0  0  0  0  0  0  0
   -0.6992    3.1871   -2.1796 H   0  0  0  0  0  0  0  0  0  0  0  0
  1  2  1  0  0  0  0
  2  3  1  0  0  0  0
  2  4  1  0  0  0  0
  2  5  1  0  0  0  0
  5  6  2  0  0  0  0
  5  7  1  0  0  0  0
  7  8  1  0  0  0  0
  7  9  1  0  0  0  0
  9 10  1  0  0  0  0
  9 11  1  0  0  0  0
  9 16  1  0  0  0  0
 11 12  1  0  0  0  0
 11 13  1  0  0  0  0
 11 14  1  0  0  0  0
 14 15  1  0  0  0  0
 16 17  2  0  0  0  0
 16 18  1  0  0  0  0
 18 19  1  0  0  0  0
 18 20  1  0  0  0  0
 20 21  1  0  0  0  0
 20 22  1  0  0  0  0
 20 23  1  0  0  0  0
M  END
$$$$

  -OEChem-01062216073D

 23 22  0     1  0  0  0  0  0999 V2000
   -2.9235   -3.3700    1.2140 H   0  0  0  0  0  0  0  0  0  0  0  0
   -2.7974   -2.3899    0.7452 C   0  0  0  0  0  0  0  0  0  0  0  0
   -3.5516   -1.7083    1.1456 H   0  0  0  0  0  0  0  0  0  0  0  0
   -2.9435   -2.4954   -0.3322 H   0  0  0  0  0  0  0  0  0  0  0  0
   -1.4083   -1.8515    1.0313 C   0  0  0  0  0  0  0  0  0  0  0  0
   -0.7034   -2.4316    1.8354 O   0  0  0  0  0  0  0  0  0  0  0  0
   -1.0494   -0.6200    0.5204 N   0  0  0  0  0  0  0  0  0  0  0  0
   -1.7910   -0.1302    0.0282 H   0  0  0  0  0  0  0  0  0  0  0  0
    0.3090   -0.0412    0.4122 C   0  0  1  0  0  0  0  0  0  0  0  0
    0.7288    0.0635    1.4188 H   0  0  0  0  0  0  0  0  0  0  0  0
    1.3154   -0.8438   -0.4621 C   0  0  0  0  0  0  0  0  0  0  0  0
    0.8929   -0.9722   -1.4625 H   0  0  0  0  0  0  0  0  0  0  0  0
    2.2337   -0.2541   -0.5569 H   0  0  0  0  0  0  0  0  0  0  0  0
    1.7953   -2.5150    0.1331 S   0  0  0  0  0  0  0  0  0  0  0  0
    2.6921   -2.8976   -0.8004 H   0  0  0  0  0  0  0  0  0  0  0  0
    0.1940    1.3670   -0.2198 C   0  0  0  0  0  0  0  0  0  0  0  0
   -0.0596    2.3255    0.4943 O   0  0  0  0  0  0  0  0  0  0  0  0
    0.2531    1.5749   -1.5893 N   0  0  0  0  0  0  0  0  0  0  0  0
    0.4074    0.7679   -2.1850 H   0  0  0  0  0  0  0  0  0  0  0  0
    0.0818    2.8844   -2.2094 C   0  0  0  0  0  0  0  0  0  0  0  0
    0.8460    3.5815   -1.8496 H   0  0  0  0  0  0  0  0  0  0  0  0
    0.1732    2.8037   -3.2968 H   0  0  0  0  0  0  0  0  0  0  0  0
   -0.9065    3.2939   -1.9752 H   0  0  0  0  0  0  0  0  0  0  0  0
  1  2  1  0  0  0  0
  2  3  1  0  0  0  0
  2  4  1  0  0  0  0
  2  5  1  0  0  0  0
  5  6  2  0  0  0  0
  5  7  1  0  0  0  0
  7  8  1  0  0  0  0
  7  9  1  0  0  0  0
  9 10  1  0  0  0  0
  9 11  1  0  0  0  0
  9 16  1  0  0  0  0
 11 12  1  0  0  0  0
 11 13  1  0  0  0  0
 11 14  1  0  0  0  0
 14 15  1  0  0  0  0
 16 17  2  0  0  0  0
 16 18  1  0  0  0  0
 18 19  1  0  0  0  0
 18 20  1  0  0  0  0
 20 21  1  0  0  0  0
 20 22  1  0  0  0  0
 20 23  1  0  0  0  0
M  END
$$$$

  -OEChem-01062216073D

 23 22  0     1  0  0  0  0  0999 V2000
   -2.8819   -3.4131    1.2183 H   0  0  0  0  0  0  0  0  0  0  0  0
   -2.7824   -2.4268    0.7560 C   0  0  0  0  0  0  0  0  0  0  0  0
   -3.5599   -1.7707    1.1546 H   0  0  0  0  0  0  0  0  0  0  0  0
   -2.9173   -2.5309   -0.3229 H   0  0  0  0  0  0  0  0  0  0  0  0
   -1.4125   -1.8478    1.0552 C   0  0  0  0  0  0  0  0  0  0  0  0
   -0.7015   -2.3993    1.8741 O   0  0  0  0  0  0  0  0  0  0  0  0
   -1.0768   -0.6139    0.5340 N   0  0  0  0  0  0  0  0  0  0  0  0
   -1.8169   -0.1587    0.0082 H   0  0  0  0  0  0  0  0  0  0  0  0
    0.2788   -0.0300    0.4158 C   0  0  1  0  0  0  0  0  0  0  0  0
    0.7097    0.0713    1.4184 H   0  0  0  0  0  0  0  0  0  0  0  0
    1.2770   -0.8173   -0.4792 C   0  0  0  0  0  0  0  0  0  0  0  0
    0.8502   -0.9317   -1.4795 H   0  0  0  0  0  0  0  0  0  0  0  0
    2.1928   -0.2233   -0.5737 H   0  0  0  0  0  0  0  0  0  0  0  0
    1.7636   -2.4933    0.0972 S   0  0  0  0  0  0  0  0  0  0  0  0
    2.6871   -2.8436   -0.8228 H   0  0  0  0  0  0  0  0  0  0  0  0
    0.1636    1.3734   -0.2197 C   0  0  0  0  0  0  0  0  0  0  0  0
    0.2524    2.3706    0.4801 O   0  0  0  0  0  0  0  0  0  0  0  0
   -0.0875    1.5356   -1.5731 N   0  0  0  0  0  0  0  0  0  0  0  0
   -0.1713    0.6991   -2.1421 H   0  0  0  0  0  0  0  0  0  0  0  0
   -0.2155    2.8404   -2.2128 C   0  0  0  0  0  0  0  0  0  0  0  0
    0.7054    3.4201   -2.0887 H   0  0  0  0  0  0  0  0  0  0  0  0
   -0.4059    2.7203   -3.2836 H   0  0  0  0  0  0  0  0  0  0  0  0
   -1.0470    3.4028   -1.7748 H   0  0  0  0  0  0  0  0  0  0  0  0
  1  2  1  0  0  0  0
  2  3  1  0  0  0  0
  2  4  1  0  0  0  0
  2  5  1  0  0  0  0
  5  6  2  0  0  0  0
  5  7  1  0  0  0  0
  7  8  1  0  0  0  0
  7  9  1  0  0  0  0
  9 10  1  0  0  0  0
  9 11  1  0  0  0  0
  9 16  1  0  0  0  0
 11 12  1  0  0  0  0
 11 13  1  0  0  0  0
 11 14  1  0  0  0  0
 14 15  1  0  0  0  0
 16 17  2  0  0  0  0
 16 18  1  0  0  0  0
 18 19  1  0  0  0  0
 18 20  1  0  0  0  0
 20 21  1  0  0  0  0
 20 22  1  0  0  0  0
 20 23  1  0  0  0  0
M  END
$$$$

  -OEChem-01062216073D

 23 22  0     1  0  0  0  0  0999 V2000
   -2.8411   -3.4603    1.2282 H   0  0  0  0  0  0  0  0  0  0  0  0
   -2.7683   -2.4699    0.7696 C   0  0  0  0  0  0  0  0  0  0  0  0
   -3.5657   -1.8379    1.1675 H   0  0  0  0  0  0  0  0  0  0  0  0
   -2.8960   -2.5745   -0.3102 H   0  0  0  0  0  0  0  0  0  0  0  0
   -1.4163   -1.8535    1.0757 C   0  0  0  0  0  0  0  0  0  0  0  0
   -0.6969   -2.3802    1.9037 O   0  0  0  0  0  0  0  0  0  0  0  0
   -1.1050   -0.6148    0.5499 N   0  0  0  0  0  0  0  0  0  0  0  0
   -1.8487   -0.1798    0.0130 H   0  0  0  0  0  0  0  0  0  0  0  0
    0.2454   -0.0174    0.4331 C   0  0  1  0  0  0  0  0  0  0  0  0
    0.6834    0.0787    1.4331 H   0  0  0  0  0  0  0  0  0  0  0  0
    1.2356   -0.7822   -0.4874 C   0  0  0  0  0  0  0  0  0  0  0  0
    0.8018   -0.8719   -1.4874 H   0  0  0  0  0  0  0  0  0  0  0  0
    2.1495   -0.1843   -0.5760 H   0  0  0  0  0  0  0  0  0  0  0  0
    1.7312   -2.4675    0.0538 S   0  0  0  0  0  0  0  0  0  0  0  0
    2.6503   -2.7957   -0.8787 H   0  0  0  0  0  0  0  0  0  0  0  0
    0.1288    1.3826   -0.2041 C   0  0  0  0  0  0  0  0  0  0  0  0
    0.5285    2.3691    0.3949 O   0  0  0  0  0  0  0  0  0  0  0  0
   -0.4133    1.5412   -1.4695 N   0  0  0  0  0  0  0  0  0  0  0  0
   -0.6700    0.7021   -1.9801 H   0  0  0  0  0  0  0  0  0  0  0  0
   -0.4986    2.8319   -2.1440 C   0  0  0  0  0  0  0  0  0  0  0  0
    0.5010    3.2536   -2.2939 H   0  0  0  0  0  0  0  0  0  0  0  0
   -0.9761    2.7177   -3.1220 H   0  0  0  0  0  0  0  0  0  0  0  0
   -1.0919    3.5364   -1.5512 H   0  0  0  0  0  0  0  0  0  0  0  0
  1  2  1  0  0  0  0
  2  3  1  0  0  0  0
  2  4  1  0  0  0  0
  2  5  1  0  0  0  0
  5  6  2  0  0  0  0
  5  7  1  0  0  0  0
  7  8  1  0  0  0  0
  7  9  1  0  0  0  0
  9 10  1  0  0  0  0
  9 11  1  0  0  0  0
  9 16  1  0  0  0  0
 11 12  1  0  0  0  0
 11 13  1  0  0  0  0
 11 14  1  0  0  0  0
 14 15  1  0  0  0  0
 16 17  2  0  0  0  0
 16 18  1  0  0  0  0
 18 19  1  0  0  0  0
 18 20  1  0  0  0  0
 20 21  1  0  0  0  0
 20 22  1  0  0  0  0
 20 23  1  0  0  0  0
M  END
$$$$

  -OEChem-01062216073D

 23 22  0     1  0  0  0  0  0999 V2000
   -2.8345   -3.4892    1.2383 H   0  0  0  0  0  0  0  0  0  0  0  0
   -2.7753   -2.4916    0.7936 C   0  0  0  0  0  0  0  0  0  0  0  0
   -3.5656   -1.8688    1.2193 H   0  0  0  0  0  0  0  0  0  0  0  0
   -2.9274   -2.5800   -0.2844 H   0  0  0  0  0  0  0  0  0  0  0  0
   -1.4187   -1.8756    1.0789 C   0  0  0  0  0  0  0  0  0  0  0  0
   -0.6866   -2.4040    1.8944 O   0  0  0  0  0  0  0  0  0  0  0  0
   -1.1196   -0.6326    0.5559 N   0  0  0  0  0  0  0  0  0  0  0  0
   -1.8760   -0.1885    0.0459 H   0  0  0  0  0  0  0  0  0  0  0  0
    0.2242   -0.0161    0.4480 C   0  0  1  0  0  0  0  0  0  0  0  0
    0.6647    0.0754    1.4472 H   0  0  0  0  0  0  0  0  0  0  0  0
    1.2130   -0.7565   -0.4921 C   0  0  0  0  0  0  0  0  0  0  0  0
    0.7740   -0.8247   -1.4922 H   0  0  0  0  0  0  0  0  0  0  0  0
    2.1242   -0.1527   -0.5727 H   0  0  0  0  0  0  0  0  0  0  0  0
    1.7223   -2.4483    0.0155 S   0  0  0  0  0  0  0  0  0  0  0  0
    2.6516   -2.7442   -0.9180 H   0  0  0  0  0  0  0  0  0  0  0  0
    0.1072    1.3837   -0.1881 C   0  0  0  0  0  0  0  0  0  0  0  0
    0.7425    2.3237    0.2646 O   0  0  0  0  0  0  0  0  0  0  0  0
   -0.6885    1.5840   -1.3050 N   0  0  0  0  0  0  0  0  0  0  0  0
   -1.0792    0.7607   -1.7518 H   0  0  0  0  0  0  0  0  0  0  0  0
   -0.7683    2.8636   -2.0009 C   0  0  0  0  0  0  0  0  0  0  0  0
    0.2155    3.1543   -2.3846 H   0  0  0  0  0  0  0  0  0  0  0  0
   -1.4626    2.7937   -2.8439 H   0  0  0  0  0  0  0  0  0  0  0  0
   -1.1270    3.6463   -1.3239 H   0  0  0  0  0  0  0  0  0  0  0  0
  1  2  1  0  0  0  0
  2  3  1  0  0  0  0
  2  4  1  0  0  0  0
  2  5  1  0  0  0  0
  5  6  2  0  0  0  0
  5  7  1  0  0  0  0
  7  8  1  0  0  0  0
  7  9  1  0  0  0  0
  9 10  1  0  0  0  0
  9 11  1  0  0  0  0
  9 16  1  0  0  0  0
 11 12  1  0  0  0  0
 11 13  1  0  0  0  0
 11 14  1  0  0  0  0
 14 15  1  0  0  0  0
 16 17  2  0  0  0  0
 16 18  1  0  0  0  0
 18 19  1  0  0  0  0
 18 20  1  0  0  0  0
 20 21  1  0  0  0  0
 20 22  1  0  0  0  0
 20 23  1  0  0  0  0
M  END
$$$$

  -OEChem-01062216073D

 23 22  0     1  0  0  0  0  0999 V2000
   -2.7873   -3.5387    1.2588 H   0  0  0  0  0  0  0  0  0  0  0  0
   -2.7501   -2.5436    0.8067 C   0  0  0  0  0  0  0  0  0  0  0  0
   -3.5632   -1.9397    1.2164 H   0  0  0  0  0  0  0  0  0  0  0  0
   -2.8846   -2.6454   -0.2725 H   0  0  0  0  0  0  0  0  0  0  0  0
   -1.4151   -1.8878    1.1049 C   0  0  0  0  0  0  0  0  0  0  0  0
   -0.6835   -2.3821    1.9424 O   0  0  0  0  0  0  0  0  0  0  0  0
   -1.1405   -0.6430    0.5724 N   0  0  0  0  0  0  0  0  0  0  0  0
   -1.9038   -0.2223    0.0557 H   0  0  0  0  0  0  0  0  0  0  0  0
    0.1967   -0.0100    0.4597 C   0  0  1  0  0  0  0  0  0  0  0  0
    0.6442    0.0815    1.4556 H   0  0  0  0  0  0  0  0  0  0  0  0
    1.1735   -0.7530   -0.4916 C   0  0  0  0  0  0  0  0  0  0  0  0
    0.7205   -0.8189   -1.4856 H   0  0  0  0  0  0  0  0  0  0  0  0
    2.0854   -0.1519   -0.5850 H   0  0  0  0  0  0  0  0  0  0  0  0
    1.6910   -2.4444    0.0112 S   0  0  0  0  0  0  0  0  0  0  0  0
    2.6139   -2.7350   -0.9302 H   0  0  0  0  0  0  0  0  0  0  0  0
    0.0928    1.3903   -0.1833 C   0  0  0  0  0  0  0  0  0  0  0  0
    0.9161    2.2512    0.0899 O   0  0  0  0  0  0  0  0  0  0  0  0
   -0.9039    1.6862   -1.1006 N   0  0  0  0  0  0  0  0  0  0  0  0
   -1.4477    0.9106   -1.4614 H   0  0  0  0  0  0  0  0  0  0  0  0
   -0.9830    2.9689   -1.7915 C   0  0  0  0  0  0  0  0  0  0  0  0
   -0.0967    3.1244   -2.4157 H   0  0  0  0  0  0  0  0  0  0  0  0
   -1.8692    3.0000   -2.4327 H   0  0  0  0  0  0  0  0  0  0  0  0
   -1.0534    3.7902   -1.0703 H   0  0  0  0  0  0  0  0  0  0  0  0
  1  2  1  0  0  0  0
  2  3  1  0  0  0  0
  2  4  1  0  0  0  0
  2  5  1  0  0  0  0
  5  6  2  0  0  0  0
  5  7  1  0  0  0  0
  7  8  1  0  0  0  0
  7  9  1  0  0  0  0
  9 10  1  0  0  0  0
  9 11  1  0  0  0  0
  9 16  1  0  0  0  0
 11 12  1  0  0  0  0
 11 13  1  0  0  0  0
 11 14  1  0  0  0  0
 14 15  1  0  0  0  0
 16 17  2  0  0  0  0
 16 18  1  0  0  0  0
 18 19  1  0  0  0  0
 18 20  1  0  0  0  0
 20 21  1  0  0  0  0
 20 22  1  0  0  0  0
 20 23  1  0  0  0  0
M  END
$$$$

  -OEChem-01062216073D

 23 22  0     1  0  0  0  0  0999 V2000
   -2.5740   -3.6025    1.3113 H   0  0  0  0  0  0  0  0  0  0  0  0
   -2.5698   -2.6638    0.7497 C   0  0  0  0  0  0  0  0  0  0  0  0
   -3.5179   -2.1479    0.9186 H   0  0  0  0  0  0  0  0  0  0  0  0
   -2.4677   -2.8935   -0.3134 H   0  0  0  0  0  0  0  0  0  0  0  0
   -1.4140   -1.7939    1.2056 C   0  0  0  0  0  0  0  0  0  0  0  0
   -0.7766   -2.1038    2.1966 O   0  0  0  0  0  0  0  0  0  0  0  0
   -1.2043   -0.5623    0.6171 N   0  0  0  0  0  0  0  0  0  0  0  0
   -1.8299   -0.4150   -0.1660 H   0  0  0  0  0  0  0  0  0  0  0  0
    0.1503    0.0206    0.4492 C   0  0  1  0  0  0  0  0  0  0  0  0
    0.6325    0.1220    1.4280 H   0  0  0  0  0  0  0  0  0  0  0  0
    1.0519   -0.8173   -0.5022 C   0  0  0  0  0  0  0  0  0  0  0  0
    0.5635   -0.8969   -1.4786 H   0  0  0  0  0  0  0  0  0  0  0  0
    1.9948   -0.2794   -0.6526 H   0  0  0  0  0  0  0  0  0  0  0  0
    1.4937   -2.5101    0.0696 S   0  0  0  0  0  0  0  0  0  0  0  0
    2.3945   -2.8794   -0.8666 H   0  0  0  0  0  0  0  0  0  0  0  0
    0.0933    1.4129   -0.2266 C   0  0  0  0  0  0  0  0  0  0  0  0
    1.1070    2.0922   -0.3136 O   0  0  0  0  0  0  0  0  0  0  0  0
   -1.0497    1.8561   -0.8736 N   0  0  0  0  0  0  0  0  0  0  0  0
   -1.9189    1.4088   -0.6067 H   0  0  0  0  0  0  0  0  0  0  0  0
   -1.1253    3.1630   -1.5190 C   0  0  0  0  0  0  0  0  0  0  0  0
   -0.3559    3.2541   -2.2932 H   0  0  0  0  0  0  0  0  0  0  0  0
   -2.1031    3.2964   -1.9916 H   0  0  0  0  0  0  0  0  0  0  0  0
   -0.9818    3.9628   -0.7847 H   0  0  0  0  0  0  0  0  0  0  0  0
  1  2  1  0  0  0  0
  2  3  1  0  0  0  0
  2  4  1  0  0  0  0
  2  5  1  0  0  0  0
  5  6  2  0  0  0  0
  5  7  1  0  0  0  0
  7  8  1  0  0  0  0
  7  9  1  0  0  0  0
  9 10  1  0  0  0  0
  9 11  1  0  0  0  0
  9 16  1  0  0  0  0
 11 12  1  0  0  0  0
 11 13  1  0  0  0  0
 11 14  1  0  0  0  0
 14 15  1  0  0  0  0
 16 17  2  0  0  0  0
 16 18  1  0  0  0  0
 18 19  1  0  0  0  0
 18 20  1  0  0  0  0
 20 21  1  0  0  0  0
 20 22  1  0  0  0  0
 20 23  1  0  0  0  0
M  END
$$$$

  -OEChem-01062216073D

 23 22  0     1  0  0  0  0  0999 V2000
   -2.5798   -3.5952    1.2769 H   0  0  0  0  0  0  0  0  0  0  0  0
   -2.5627   -2.6557    0.7172 C   0  0  0  0  0  0  0  0  0  0  0  0
   -3.5101   -2.1347    0.8736 H   0  0  0  0  0  0  0  0  0  0  0  0
   -2.4471   -2.8840   -0.3449 H   0  0  0  0  0  0  0  0  0  0  0  0
   -1.4088   -1.7924    1.1903 C   0  0  0  0  0  0  0  0  0  0  0  0
   -0.7875   -2.1036    2.1912 O   0  0  0  0  0  0  0  0  0  0  0  0
   -1.1886   -0.5591    0.6099 N   0  0  0  0  0  0  0  0  0  0  0  0
   -1.8087   -0.4016   -0.1777 H   0  0  0  0  0  0  0  0  0  0  0  0
    0.1680    0.0198    0.4425 C   0  0  1  0  0  0  0  0  0  0  0  0
    0.6494    0.1236    1.4209 H   0  0  0  0  0  0  0  0  0  0  0  0
    1.0687   -0.8291   -0.5013 C   0  0  0  0  0  0  0  0  0  0  0  0
    0.5823   -0.9132   -1.4782 H   0  0  0  0  0  0  0  0  0  0  0  0
    2.0156   -0.2995   -0.6534 H   0  0  0  0  0  0  0  0  0  0  0  0
    1.5013   -2.5190    0.0863 S   0  0  0  0  0  0  0  0  0  0  0  0
    2.3974   -2.9027   -0.8482 H   0  0  0  0  0  0  0  0  0  0  0  0
    0.0861    1.4162   -0.2272 C   0  0  0  0  0  0  0  0  0  0  0  0
    1.0997    2.0202   -0.5522 O   0  0  0  0  0  0  0  0  0  0  0  0
   -1.1397    1.9582   -0.5788 N   0  0  0  0  0  0  0  0  0  0  0  0
   -1.9446    1.5751   -0.0931 H   0  0  0  0  0  0  0  0  0  0  0  0
   -1.2693    3.2805   -1.1824 C   0  0  0  0  0  0  0  0  0  0  0  0
   -0.7255    3.3240   -2.1321 H   0  0  0  0  0  0  0  0  0  0  0  0
   -2.3220    3.5047   -1.3800 H   0  0  0  0  0  0  0  0  0  0  0  0
   -0.8700    4.0503   -0.5134 H   0  0  0  0  0  0  0  0  0  0  0  0
  1  2  1  0  0  0  0
  2  3  1  0  0  0  0
  2  4  1  0  0  0  0
  2  5  1  0  0  0  0
  5  6  2  0  0  0  0
  5  7  1  0  0  0  0
  7  8  1  0  0  0  0
  7  9  1  0  0  0  0
  9 10  1  0  0  0  0
  9 11  1  0  0  0  0
  9 16  1  0  0  0  0
 11 12  1  0  0  0  0
 11 13  1  0  0  0  0
 11 14  1  0  0  0  0
 14 15  1  0  0  0  0
 16 17  2  0  0  0  0
 16 18  1  0  0  0  0
 18 19  1  0  0  0  0
 18 20  1  0  0  0  0
 20 21  1  0  0  0  0
 20 22  1  0  0  0  0
 20 23  1  0  0  0  0
M  END
$$$$

  -OEChem-01062216073D

 23 22  0     1  0  0  0  0  0999 V2000
   -2.6031   -3.5741    1.2705 H   0  0  0  0  0  0  0  0  0  0  0  0
   -2.5663   -2.6421    0.6993 C   0  0  0  0  0  0  0  0  0  0  0  0
   -3.5093   -2.1074    0.8345 H   0  0  0  0  0  0  0  0  0  0  0  0
   -2.4380   -2.8852   -0.3581 H   0  0  0  0  0  0  0  0  0  0  0  0
   -1.4084   -1.7874    1.1781 C   0  0  0  0  0  0  0  0  0  0  0  0
   -0.7943   -2.1021    2.1824 O   0  0  0  0  0  0  0  0  0  0  0  0
   -1.1773   -0.5538    0.6035 N   0  0  0  0  0  0  0  0  0  0  0  0
   -1.8048   -0.3731   -0.1746 H   0  0  0  0  0  0  0  0  0  0  0  0
    0.1816    0.0187    0.4346 C   0  0  1  0  0  0  0  0  0  0  0  0
    0.6628    0.1255    1.4128 H   0  0  0  0  0  0  0  0  0  0  0  0
    1.0824   -0.8396   -0.5017 C   0  0  0  0  0  0  0  0  0  0  0  0
    0.5988   -0.9264   -1.4797 H   0  0  0  0  0  0  0  0  0  0  0  0
    2.0326   -0.3160   -0.6532 H   0  0  0  0  0  0  0  0  0  0  0  0
    1.5087   -2.5266    0.0976 S   0  0  0  0  0  0  0  0  0  0  0  0
    2.3956   -2.9219   -0.8409 H   0  0  0  0  0  0  0  0  0  0  0  0
    0.0799    1.4176   -0.2305 C   0  0  0  0  0  0  0  0  0  0  0  0
    1.0363    1.9426   -0.7859 O   0  0  0  0  0  0  0  0  0  0  0  0
   -1.1416    2.0685   -0.2797 N   0  0  0  0  0  0  0  0  0  0  0  0
   -1.8547    1.7156    0.3528 H   0  0  0  0  0  0  0  0  0  0  0  0
   -1.3047    3.4091   -0.8320 C   0  0  0  0  0  0  0  0  0  0  0  0
   -1.0093    3.4285   -1.8863 H   0  0  0  0  0  0  0  0  0  0  0  0
   -2.3511    3.7217   -0.7634 H   0  0  0  0  0  0  0  0  0  0  0  0
   -0.6897    4.1291   -0.2817 H   0  0  0  0  0  0  0  0  0  0  0  0
  1  2  1  0  0  0  0
  2  3  1  0  0  0  0
  2  4  1  0  0  0  0
  2  5  1  0  0  0  0
  5  6  2  0  0  0  0
  5  7  1  0  0  0  0
  7  8  1  0  0  0  0
  7  9  1  0  0  0  0
  9 10  1  0  0  0  0
  9 11  1  0  0  0  0
  9 16  1  0  0  0  0
 11 12  1  0  0  0  0
 11 13  1  0  0  0  0
 11 14  1  0  0  0  0
 14 15  1  0  0  0  0
 16 17  2  0  0  0  0
 16 18  1  0  0  0  0
 18 19  1  0  0  0  0
 18 20  1  0  0  0  0
 20 21  1  0  0  0  0
 20 22  1  0  0  0  0
 20 23  1  0  0  0  0
M  END
$$$$

  -OEChem-01062216073D

 23 22  0     1  0  0  0  0  0999 V2000
   -2.6435   -3.5461    1.2675 H   0  0  0  0  0  0  0  0  0  0  0  0
   -2.5848   -2.6191    0.6899 C   0  0  0  0  0  0  0  0  0  0  0  0
   -3.5147   -2.0612    0.8229 H   0  0  0  0  0  0  0  0  0  0  0  0
   -2.4637   -2.8725   -0.3660 H   0  0  0  0  0  0  0  0  0  0  0  0
   -1.4063   -1.7885    1.1609 C   0  0  0  0  0  0  0  0  0  0  0  0
   -0.7895   -2.1199    2.1580 O   0  0  0  0  0  0  0  0  0  0  0  0
   -1.1632   -0.5527    0.5964 N   0  0  0  0  0  0  0  0  0  0  0  0
   -1.8041   -0.3402   -0.1630 H   0  0  0  0  0  0  0  0  0  0  0  0
    0.1962    0.0171    0.4286 C   0  0  1  0  0  0  0  0  0  0  0  0
    0.6750    0.1244    1.4077 H   0  0  0  0  0  0  0  0  0  0  0  0
    1.1055   -0.8408   -0.5002 C   0  0  0  0  0  0  0  0  0  0  0  0
    0.6273   -0.9326   -1.4806 H   0  0  0  0  0  0  0  0  0  0  0  0
    2.0538   -0.3124   -0.6474 H   0  0  0  0  0  0  0  0  0  0  0  0
    1.5340   -2.5244    0.1072 S   0  0  0  0  0  0  0  0  0  0  0  0
    2.4057   -2.9319   -0.8405 H   0  0  0  0  0  0  0  0  0  0  0  0
    0.0742    1.4190   -0.2267 C   0  0  0  0  0  0  0  0  0  0  0  0
    0.9124    1.8634   -1.0011 O   0  0  0  0  0  0  0  0  0  0  0  0
   -1.0588    2.1768    0.0135 N   0  0  0  0  0  0  0  0  0  0  0  0
   -1.6672    1.8481    0.7594 H   0  0  0  0  0  0  0  0  0  0  0  0
   -1.2427    3.5297   -0.4996 C   0  0  0  0  0  0  0  0  0  0  0  0
   -1.2063    3.5340   -1.5943 H   0  0  0  0  0  0  0  0  0  0  0  0
   -2.2144    3.9238   -0.1866 H   0  0  0  0  0  0  0  0  0  0  0  0
   -0.4597    4.1940   -0.1190 H   0  0  0  0  0  0  0  0  0  0  0  0
  1  2  1  0  0  0  0
  2  3  1  0  0  0  0
  2  4  1  0  0  0  0
  2  5  1  0  0  0  0
  5  6  2  0  0  0  0
  5  7  1  0  0  0  0
  7  8  1  0  0  0  0
  7  9  1  0  0  0  0
  9 10  1  0  0  0  0
  9 11  1  0  0  0  0
  9 16  1  0  0  0  0
 11 12  1  0  0  0  0
 11 13  1  0  0  0  0
 11 14  1  0  0  0  0
 14 15  1  0  0  0  0
 16 17  2  0  0  0  0
 16 18  1  0  0  0  0
 18 19  1  0  0  0  0
 18 20  1  0  0  0  0
 20 21  1  0  0  0  0
 20 22  1  0  0  0  0
 20 23  1  0  0  0  0
M  END
$$$$

  -OEChem-01062216073D

 23 22  0     1  0  0  0  0  0999 V2000
   -2.6548   -3.5439    1.2306 H   0  0  0  0  0  0  0  0  0  0  0  0
   -2.6076   -2.5973    0.6846 C   0  0  0  0  0  0  0  0  0  0  0  0
   -3.5277   -2.0377    0.8683 H   0  0  0  0  0  0  0  0  0  0  0  0
   -2.5244   -2.8133   -0.3831 H   0  0  0  0  0  0  0  0  0  0  0  0
   -1.4075   -1.7923    1.1453 C   0  0  0  0  0  0  0  0  0  0  0  0
   -0.7856   -2.1412    2.1335 O   0  0  0  0  0  0  0  0  0  0  0  0
   -1.1553   -0.5535    0.5921 N   0  0  0  0  0  0  0  0  0  0  0  0
   -1.8035   -0.3184   -0.1545 H   0  0  0  0  0  0  0  0  0  0  0  0
    0.2036    0.0145    0.4289 C   0  0  1  0  0  0  0  0  0  0  0  0
    0.6788    0.1187    1.4101 H   0  0  0  0  0  0  0  0  0  0  0  0
    1.1241   -0.8366   -0.4944 C   0  0  0  0  0  0  0  0  0  0  0  0
    0.6511   -0.9327   -1.4772 H   0  0  0  0  0  0  0  0  0  0  0  0
    2.0672   -0.2976   -0.6370 H   0  0  0  0  0  0  0  0  0  0  0  0
    1.5580   -2.5187    0.1127 S   0  0  0  0  0  0  0  0  0  0  0  0
    2.4365   -2.9191   -0.8315 H   0  0  0  0  0  0  0  0  0  0  0  0
    0.0711    1.4191   -0.2147 C   0  0  0  0  0  0  0  0  0  0  0  0
    0.7393    1.7816   -1.1752 O   0  0  0  0  0  0  0  0  0  0  0  0
   -0.8931    2.2813    0.2751 N   0  0  0  0  0  0  0  0  0  0  0  0
   -1.3933    1.9797    1.1079 H   0  0  0  0  0  0  0  0  0  0  0  0
   -1.0829    3.6422   -0.2130 C   0  0  0  0  0  0  0  0  0  0  0  0
   -1.3413    3.6361   -1.2772 H   0  0  0  0  0  0  0  0  0  0  0  0
   -1.8938    4.1312    0.3356 H   0  0  0  0  0  0  0  0  0  0  0  0
   -0.1687    4.2295   -0.0756 H   0  0  0  0  0  0  0  0  0  0  0  0
  1  2  1  0  0  0  0
  2  3  1  0  0  0  0
  2  4  1  0  0  0  0
  2  5  1  0  0  0  0
  5  6  2  0  0  0  0
  5  7  1  0  0  0  0
  7  8  1  0  0  0  0
  7  9  1  0  0  0  0
  9 10  1  0  0  0  0
  9 11  1  0  0  0  0
  9 16  1  0  0  0  0
 11 12  1  0  0  0  0
 11 13  1  0  0  0  0
 11 14  1  0  0  0  0
 14 15  1  0  0  0  0
 16 17  2  0  0  0  0
 16 18  1  0  0  0  0
 18 19  1  0  0  0  0
 18 20  1  0  0  0  0
 20 21  1  0  0  0  0
 20 22  1  0  0  0  0
 20 23  1  0  0  0  0
M  END
$$$$

  -OEChem-01062216073D

 23 22  0     1  0  0  0  0  0999 V2000
   -2.6697   -3.5307    1.2155 H   0  0  0  0  0  0  0  0  0  0  0  0
   -2.6070   -2.5858    0.6683 C   0  0  0  0  0  0  0  0  0  0  0  0
   -3.5261   -2.0192    0.8354 H   0  0  0  0  0  0  0  0  0  0  0  0
   -2.5074   -2.8047   -0.3976 H   0  0  0  0  0  0  0  0  0  0  0  0
   -1.4089   -1.7878    1.1461 C   0  0  0  0  0  0  0  0  0  0  0  0
   -0.7894   -2.1505    2.1310 O   0  0  0  0  0  0  0  0  0  0  0  0
   -1.1492   -0.5452    0.6058 N   0  0  0  0  0  0  0  0  0  0  0  0
   -1.7975   -0.2956   -0.1363 H   0  0  0  0  0  0  0  0  0  0  0  0
    0.2113    0.0158    0.4477 C   0  0  1  0  0  0  0  0  0  0  0  0
    0.6881    0.1061    1.4293 H   0  0  0  0  0  0  0  0  0  0  0  0
    1.1293   -0.8284   -0.4827 C   0  0  0  0  0  0  0  0  0  0  0  0
    0.6503   -0.9204   -1.4632 H   0  0  0  0  0  0  0  0  0  0  0  0
    2.0693   -0.2850   -0.6281 H   0  0  0  0  0  0  0  0  0  0  0  0
    1.5582   -2.5178    0.1067 S   0  0  0  0  0  0  0  0  0  0  0  0
    2.4000   -2.9271   -0.8667 H   0  0  0  0  0  0  0  0  0  0  0  0
    0.0840    1.4255   -0.1806 C   0  0  0  0  0  0  0  0  0  0  0  0
    0.5255    1.7052   -1.2888 O   0  0  0  0  0  0  0  0  0  0  0  0
   -0.6371    2.3871    0.5018 N   0  0  0  0  0  0  0  0  0  0  0  0
   -1.0111    2.1250    1.4107 H   0  0  0  0  0  0  0  0  0  0  0  0
   -0.8507    3.7420    0.0072 C   0  0  0  0  0  0  0  0  0  0  0  0
   -1.4013    3.7225   -0.9392 H   0  0  0  0  0  0  0  0  0  0  0  0
   -1.4297    4.3225    0.7319 H   0  0  0  0  0  0  0  0  0  0  0  0
    0.1078    4.2471   -0.1530 H   0  0  0  0  0  0  0  0  0  0  0  0
  1  2  1  0  0  0  0
  2  3  1  0  0  0  0
  2  4  1  0  0  0  0
  2  5  1  0  0  0  0
  5  6  2  0  0  0  0
  5  7  1  0  0  0  0
  7  8  1  0  0  0  0
  7  9  1  0  0  0  0
  9 10  1  0  0  0  0
  9 11  1  0  0  0  0
  9 16  1  0  0  0  0
 11 12  1  0  0  0  0
 11 13  1  0  0  0  0
 11 14  1  0  0  0  0
 14 15  1  0  0  0  0
 16 17  2  0  0  0  0
 16 18  1  0  0  0  0
 18 19  1  0  0  0  0
 18 20  1  0  0  0  0
 20 21  1  0  0  0  0
 20 22  1  0  0  0  0
 20 23  1  0  0  0  0
M  END
$$$$

  -OEChem-01062216073D

 23 22  0     1  0  0  0  0  0999 V2000
   -2.6942   -3.5194    1.2037 H   0  0  0  0  0  0  0  0  0  0  0  0
   -2.6225   -2.5722    0.6617 C   0  0  0  0  0  0  0  0  0  0  0  0
   -3.5335   -1.9954    0.8373 H   0  0  0  0  0  0  0  0  0  0  0  0
   -2.5316   -2.7858   -0.4059 H   0  0  0  0  0  0  0  0  0  0  0  0
   -1.4118   -1.7920    1.1374 C   0  0  0  0  0  0  0  0  0  0  0  0
   -0.7872   -2.1737    2.1121 O   0  0  0  0  0  0  0  0  0  0  0  0
   -1.1443   -0.5460    0.6093 N   0  0  0  0  0  0  0  0  0  0  0  0
   -1.7902   -0.2822   -0.1302 H   0  0  0  0  0  0  0  0  0  0  0  0
    0.2166    0.0131    0.4621 C   0  0  1  0  0  0  0  0  0  0  0  0
    0.6901    0.0892    1.4465 H   0  0  0  0  0  0  0  0  0  0  0  0
    1.1408   -0.8181   -0.4734 C   0  0  0  0  0  0  0  0  0  0  0  0
    0.6639   -0.9059   -1.4554 H   0  0  0  0  0  0  0  0  0  0  0  0
    2.0775   -0.2679   -0.6136 H   0  0  0  0  0  0  0  0  0  0  0  0
    1.5683   -2.5136    0.0991 S   0  0  0  0  0  0  0  0  0  0  0  0
    2.4005   -2.9202   -0.8837 H   0  0  0  0  0  0  0  0  0  0  0  0
    0.1005    1.4271   -0.1540 C   0  0  0  0  0  0  0  0  0  0  0  0
    0.2809    1.6406   -1.3470 O   0  0  0  0  0  0  0  0  0  0  0  0
   -0.3343    2.4669    0.6460 N   0  0  0  0  0  0  0  0  0  0  0  0
   -0.5498    2.2473    1.6153 H   0  0  0  0  0  0  0  0  0  0  0  0
   -0.5607    3.8225    0.1586 C   0  0  0  0  0  0  0  0  0  0  0  0
   -1.3582    3.8318   -0.5917 H   0  0  0  0  0  0  0  0  0  0  0  0
   -0.8546    4.4771    0.9848 H   0  0  0  0  0  0  0  0  0  0  0  0
    0.3523    4.2263   -0.2918 H   0  0  0  0  0  0  0  0  0  0  0  0
  1  2  1  0  0  0  0
  2  3  1  0  0  0  0
  2  4  1  0  0  0  0
  2  5  1  0  0  0  0
  5  6  2  0  0  0  0
  5  7  1  0  0  0  0
  7  8  1  0  0  0  0
  7  9  1  0  0  0  0
  9 10  1  0  0  0  0
  9 11  1  0  0  0  0
  9 16  1  0  0  0  0
 11 12  1  0  0  0  0
 11 13  1  0  0  0  0
 11 14  1  0  0  0  0
 14 15  1  0  0  0  0
 16 17  2  0  0  0  0
 16 18  1  0  0  0  0
 18 19  1  0  0  0  0
 18 20  1  0  0  0  0
 20 21  1  0  0  0  0
 20 22  1  0  0  0  0
 20 23  1  0  0  0  0
M  END
$$$$

  -OEChem-01062216073D

 23 22  0     1  0  0  0  0  0999 V2000
   -2.6959   -3.5227    1.1688 H   0  0  0  0  0  0  0  0  0  0  0  0
   -2.6355   -2.5568    0.6595 C   0  0  0  0  0  0  0  0  0  0  0  0
   -3.5420   -1.9864    0.8748 H   0  0  0  0  0  0  0  0  0  0  0  0
   -2.5675   -2.7314   -0.4169 H   0  0  0  0  0  0  0  0  0  0  0  0
   -1.4148   -1.7939    1.1369 C   0  0  0  0  0  0  0  0  0  0  0  0
   -0.7862   -2.1934    2.1021 O   0  0  0  0  0  0  0  0  0  0  0  0
   -1.1374   -0.5477    0.6154 N   0  0  0  0  0  0  0  0  0  0  0  0
   -1.7795   -0.2706   -0.1233 H   0  0  0  0  0  0  0  0  0  0  0  0
    0.2241    0.0093    0.4805 C   0  0  1  0  0  0  0  0  0  0  0  0
    0.6930    0.0749    1.4678 H   0  0  0  0  0  0  0  0  0  0  0  0
    1.1515   -0.8076   -0.4628 C   0  0  0  0  0  0  0  0  0  0  0  0
    0.6773   -0.8844   -1.4471 H   0  0  0  0  0  0  0  0  0  0  0  0
    2.0881   -0.2553   -0.5941 H   0  0  0  0  0  0  0  0  0  0  0  0
    1.5740   -2.5113    0.0886 S   0  0  0  0  0  0  0  0  0  0  0  0
    2.3844   -2.9173   -0.9126 H   0  0  0  0  0  0  0  0  0  0  0  0
    0.1181    1.4234   -0.1317 C   0  0  0  0  0  0  0  0  0  0  0  0
    0.0241    1.5918   -1.3418 O   0  0  0  0  0  0  0  0  0  0  0  0
   -0.0109    2.5158    0.7050 N   0  0  0  0  0  0  0  0  0  0  0  0
   -0.0423    2.3346    1.7051 H   0  0  0  0  0  0  0  0  0  0  0  0
   -0.2336    3.8748    0.2255 C   0  0  0  0  0  0  0  0  0  0  0  0
   -1.1873    3.9420   -0.3084 H   0  0  0  0  0  0  0  0  0  0  0  0
   -0.2580    4.5738    1.0671 H   0  0  0  0  0  0  0  0  0  0  0  0
    0.5715    4.1795   -0.4514 H   0  0  0  0  0  0  0  0  0  0  0  0
  1  2  1  0  0  0  0
  2  3  1  0  0  0  0
  2  4  1  0  0  0  0
  2  5  1  0  0  0  0
  5  6  2  0  0  0  0
  5  7  1  0  0  0  0
  7  8  1  0  0  0  0
  7  9  1  0  0  0  0
  9 10  1  0  0  0  0
  9 11  1  0  0  0  0
  9 16  1  0  0  0  0
 11 12  1  0  0  0  0
 11 13  1  0  0  0  0
 11 14  1  0  0  0  0
 14 15  1  0  0  0  0
 16 17  2  0  0  0  0
 16 18  1  0  0  0  0
 18 19  1  0  0  0  0
 18 20  1  0  0  0  0
 20 21  1  0  0  0  0
 20 22  1  0  0  0  0
 20 23  1  0  0  0  0
M  END
$$$$

  -OEChem-01062216073D

 23 22  0     1  0  0  0  0  0999 V2000
   -2.7298   -3.5010    1.1840 H   0  0  0  0  0  0  0  0  0  0  0  0
   -2.6498   -2.5437    0.6613 C   0  0  0  0  0  0  0  0  0  0  0  0
   -3.5470   -1.9542    0.8641 H   0  0  0  0  0  0  0  0  0  0  0  0
   -2.5800   -2.7350   -0.4121 H   0  0  0  0  0  0  0  0  0  0  0  0
   -1.4182   -1.7951    1.1335 C   0  0  0  0  0  0  0  0  0  0  0  0
   -0.7845   -2.2093    2.0894 O   0  0  0  0  0  0  0  0  0  0  0  0
   -1.1305   -0.5499    0.6157 N   0  0  0  0  0  0  0  0  0  0  0  0
   -1.7685   -0.2578   -0.1217 H   0  0  0  0  0  0  0  0  0  0  0  0
    0.2319    0.0049    0.4938 C   0  0  1  0  0  0  0  0  0  0  0  0
    0.6948    0.0609    1.4844 H   0  0  0  0  0  0  0  0  0  0  0  0
    1.1616   -0.7965   -0.4576 C   0  0  0  0  0  0  0  0  0  0  0  0
    0.6920   -0.8553   -1.4455 H   0  0  0  0  0  0  0  0  0  0  0  0
    2.1002   -0.2446   -0.5750 H   0  0  0  0  0  0  0  0  0  0  0  0
    1.5768   -2.5087    0.0721 S   0  0  0  0  0  0  0  0  0  0  0  0
    2.3845   -2.9099   -0.9329 H   0  0  0  0  0  0  0  0  0  0  0  0
    0.1348    1.4173   -0.1184 C   0  0  0  0  0  0  0  0  0  0  0  0
   -0.2199    1.5697   -1.2816 O   0  0  0  0  0  0  0  0  0  0  0  0
    0.3117    2.5300    0.6823 N   0  0  0  0  0  0  0  0  0  0  0  0
    0.4858    2.3701    1.6710 H   0  0  0  0  0  0  0  0  0  0  0  0
    0.1033    3.8955    0.2151 C   0  0  0  0  0  0  0  0  0  0  0  0
   -0.9442    4.0493   -0.0650 H   0  0  0  0  0  0  0  0  0  0  0  0
    0.3594    4.6085    1.0048 H   0  0  0  0  0  0  0  0  0  0  0  0
    0.7354    4.1043   -0.6546 H   0  0  0  0  0  0  0  0  0  0  0  0
  1  2  1  0  0  0  0
  2  3  1  0  0  0  0
  2  4  1  0  0  0  0
  2  5  1  0  0  0  0
  5  6  2  0  0  0  0
  5  7  1  0  0  0  0
  7  8  1  0  0  0  0
  7  9  1  0  0  0  0
  9 10  1  0  0  0  0
  9 11  1  0  0  0  0
  9 16  1  0  0  0  0
 11 12  1  0  0  0  0
 11 13  1  0  0  0  0
 11 14  1  0  0  0  0
 14 15  1  0  0  0  0
 16 17  2  0  0  0  0
 16 18  1  0  0  0  0
 18 19  1  0  0  0  0
 18 20  1  0  0  0  0
 20 21  1  0  0  0  0
 20 22  1  0  0  0  0
 20 23  1  0  0  0  0
M  END
$$$$

  -OEChem-01062216073D

 23 22  0     1  0  0  0  0  0999 V2000
   -2.7440   -3.5010    1.1808 H   0  0  0  0  0  0  0  0  0  0  0  0
   -2.6662   -2.5357    0.6729 C   0  0  0  0  0  0  0  0  0  0  0  0
   -3.5541   -1.9424    0.9037 H   0  0  0  0  0  0  0  0  0  0  0  0
   -2.6197   -2.7097   -0.4047 H   0  0  0  0  0  0  0  0  0  0  0  0
   -1.4196   -1.8044    1.1330 C   0  0  0  0  0  0  0  0  0  0  0  0
   -0.7737   -2.2360    2.0731 O   0  0  0  0  0  0  0  0  0  0  0  0
   -1.1259   -0.5600    0.6166 N   0  0  0  0  0  0  0  0  0  0  0  0
   -1.7683   -0.2494   -0.1100 H   0  0  0  0  0  0  0  0  0  0  0  0
    0.2337    0.0024    0.5057 C   0  0  1  0  0  0  0  0  0  0  0  0
    0.6892    0.0567    1.4995 H   0  0  0  0  0  0  0  0  0  0  0  0
    1.1687   -0.7821   -0.4522 C   0  0  0  0  0  0  0  0  0  0  0  0
    0.7002   -0.8280   -1.4412 H   0  0  0  0  0  0  0  0  0  0  0  0
    2.1060   -0.2263   -0.5606 H   0  0  0  0  0  0  0  0  0  0  0  0
    1.5903   -2.4989    0.0564 S   0  0  0  0  0  0  0  0  0  0  0  0
    2.3832   -2.8915   -0.9636 H   0  0  0  0  0  0  0  0  0  0  0  0
    0.1395    1.4122   -0.1102 C   0  0  0  0  0  0  0  0  0  0  0  0
   -0.4228    1.5755   -1.1873 O   0  0  0  0  0  0  0  0  0  0  0  0
    0.6001    2.5123    0.5886 N   0  0  0  0  0  0  0  0  0  0  0  0
    0.9637    2.3534    1.5245 H   0  0  0  0  0  0  0  0  0  0  0  0
    0.4434    3.8830    0.1169 C   0  0  0  0  0  0  0  0  0  0  0  0
   -0.6174    4.1455    0.0457 H   0  0  0  0  0  0  0  0  0  0  0  0
    0.9267    4.5787    0.8097 H   0  0  0  0  0  0  0  0  0  0  0  0
    0.9035    4.0047   -0.8695 H   0  0  0  0  0  0  0  0  0  0  0  0
  1  2  1  0  0  0  0
  2  3  1  0  0  0  0
  2  4  1  0  0  0  0
  2  5  1  0  0  0  0
  5  6  2  0  0  0  0
  5  7  1  0  0  0  0
  7  8  1  0  0  0  0
  7  9  1  0  0  0  0
  9 10  1  0  0  0  0
  9 11  1  0  0  0  0
  9 16  1  0  0  0  0
 11 12  1  0  0  0  0
 11 13  1  0  0  0  0
 11 14  1  0  0  0  0
 14 15  1  0  0  0  0
 16 17  2  0  0  0  0
 16 18  1  0  0  0  0
 18 19  1  0  0  0  0
 18 20  1  0  0  0  0
 20 21  1  0  0  0  0
 20 22  1  0  0  0  0
 20 23  1  0  0  0  0
M  END
$$$$

  -OEChem-01062216073D

 23 22  0     1  0  0  0  0  0999 V2000
   -2.7580   -3.4978    1.1950 H   0  0  0  0  0  0  0  0  0  0  0  0
   -2.6771   -2.5339    0.6849 C   0  0  0  0  0  0  0  0  0  0  0  0
   -3.5576   -1.9327    0.9230 H   0  0  0  0  0  0  0  0  0  0  0  0
   -2.6421   -2.7092   -0.3929 H   0  0  0  0  0  0  0  0  0  0  0  0
   -1.4198   -1.8132    1.1323 C   0  0  0  0  0  0  0  0  0  0  0  0
   -0.7625   -2.2570    2.0588 O   0  0  0  0  0  0  0  0  0  0  0  0
   -1.1240   -0.5686    0.6177 N   0  0  0  0  0  0  0  0  0  0  0  0
   -1.7758   -0.2378   -0.0923 H   0  0  0  0  0  0  0  0  0  0  0  0
    0.2318    0.0042    0.5132 C   0  0  1  0  0  0  0  0  0  0  0  0
    0.6842    0.0579    1.5083 H   0  0  0  0  0  0  0  0  0  0  0  0
    1.1684   -0.7673   -0.4524 C   0  0  0  0  0  0  0  0  0  0  0  0
    0.6972   -0.8050   -1.4409 H   0  0  0  0  0  0  0  0  0  0  0  0
    2.1037   -0.2074   -0.5571 H   0  0  0  0  0  0  0  0  0  0  0  0
    1.5985   -2.4868    0.0396 S   0  0  0  0  0  0  0  0  0  0  0  0
    2.3955   -2.8666   -0.9820 H   0  0  0  0  0  0  0  0  0  0  0  0
    0.1385    1.4130   -0.1047 C   0  0  0  0  0  0  0  0  0  0  0  0
   -0.5964    1.6122   -1.0658 O   0  0  0  0  0  0  0  0  0  0  0  0
    0.8527    2.4654    0.4371 N   0  0  0  0  0  0  0  0  0  0  0  0
    1.3865    2.2843    1.2831 H   0  0  0  0  0  0  0  0  0  0  0  0
    0.7550    3.8345   -0.0551 C   0  0  0  0  0  0  0  0  0  0  0  0
   -0.2616    4.2185    0.0799 H   0  0  0  0  0  0  0  0  0  0  0  0
    1.4463    4.4832    0.4916 H   0  0  0  0  0  0  0  0  0  0  0  0
    1.0102    3.8799   -1.1193 H   0  0  0  0  0  0  0  0  0  0  0  0
  1  2  1  0  0  0  0
  2  3  1  0  0  0  0
  2  4  1  0  0  0  0
  2  5  1  0  0  0  0
  5  6  2  0  0  0  0
  5  7  1  0  0  0  0
  7  8  1  0  0  0  0
  7  9  1  0  0  0  0
  9 10  1  0  0  0  0
  9 11  1  0  0  0  0
  9 16  1  0  0  0  0
 11 12  1  0  0  0  0
 11 13  1  0  0  0  0
 11 14  1  0  0  0  0
 14 15  1  0  0  0  0
 16 17  2  0  0  0  0
 16 18  1  0  0  0  0
 18 19  1  0  0  0  0
 18 20  1  0  0  0  0
 20 21  1  0  0  0  0
 20 22  1  0  0  0  0
 20 23  1  0  0  0  0
M  END
$$$$

  -OEChem-01062216073D

 23 22  0     1  0  0  0  0  0999 V2000
   -2.7669   -3.4978    1.1866 H   0  0  0  0  0  0  0  0  0  0  0  0
   -2.6906   -2.5225    0.6980 C   0  0  0  0  0  0  0  0  0  0  0  0
   -3.5582   -1.9190    0.9746 H   0  0  0  0  0  0  0  0  0  0  0  0
   -2.6870   -2.6716   -0.3843 H   0  0  0  0  0  0  0  0  0  0  0  0
   -1.4149   -1.8237    1.1273 C   0  0  0  0  0  0  0  0  0  0  0  0
   -0.7465   -2.2865    2.0362 O   0  0  0  0  0  0  0  0  0  0  0  0
   -1.1127   -0.5796    0.6157 N   0  0  0  0  0  0  0  0  0  0  0  0
   -1.7783   -0.2209   -0.0679 H   0  0  0  0  0  0  0  0  0  0  0  0
    0.2384    0.0060    0.5200 C   0  0  1  0  0  0  0  0  0  0  0  0
    0.6866    0.0628    1.5171 H   0  0  0  0  0  0  0  0  0  0  0  0
    1.1780   -0.7576   -0.4495 C   0  0  0  0  0  0  0  0  0  0  0  0
    0.7043   -0.7914   -1.4369 H   0  0  0  0  0  0  0  0  0  0  0  0
    2.1119   -0.1954   -0.5539 H   0  0  0  0  0  0  0  0  0  0  0  0
    1.6174   -2.4779    0.0306 S   0  0  0  0  0  0  0  0  0  0  0  0
    2.3900   -2.8583   -1.0095 H   0  0  0  0  0  0  0  0  0  0  0  0
    0.1421    1.4145   -0.1011 C   0  0  0  0  0  0  0  0  0  0  0  0
   -0.7334    1.6646   -0.9229 O   0  0  0  0  0  0  0  0  0  0  0  0
    1.0585    2.3941    0.2347 N   0  0  0  0  0  0  0  0  0  0  0  0
    1.7325    2.1775    0.9641 H   0  0  0  0  0  0  0  0  0  0  0  0
    1.0041    3.7522   -0.2935 C   0  0  0  0  0  0  0  0  0  0  0  0
    0.0734    4.2440    0.0087 H   0  0  0  0  0  0  0  0  0  0  0  0
    1.8455    4.3403    0.0859 H   0  0  0  0  0  0  0  0  0  0  0  0
    1.0579    3.7411   -1.3873 H   0  0  0  0  0  0  0  0  0  0  0  0
  1  2  1  0  0  0  0
  2  3  1  0  0  0  0
  2  4  1  0  0  0  0
  2  5  1  0  0  0  0
  5  6  2  0  0  0  0
  5  7  1  0  0  0  0
  7  8  1  0  0  0  0
  7  9  1  0  0  0  0
  9 10  1  0  0  0  0
  9 11  1  0  0  0  0
  9 16  1  0  0  0  0
 11 12  1  0  0  0  0
 11 13  1  0  0  0  0
 11 14  1  0  0  0  0
 14 15  1  0  0  0  0
 16 17  2  0  0  0  0
 16 18  1  0  0  0  0
 18 19  1  0  0  0  0
 18 20  1  0  0  0  0
 20 21  1  0  0  0  0
 20 22  1  0  0  0  0
 20 23  1  0  0  0  0
M  END
$$$$

  -OEChem-01062216073D

 23 22  0     1  0  0  0  0  0999 V2000
   -2.7995   -3.4757    1.2018 H   0  0  0  0  0  0  0  0  0  0  0  0
   -2.7077   -2.5034    0.7096 C   0  0  0  0  0  0  0  0  0  0  0  0
   -3.5534   -1.8771    1.0034 H   0  0  0  0  0  0  0  0  0  0  0  0
   -2.7310   -2.6534   -0.3723 H   0  0  0  0  0  0  0  0  0  0  0  0
   -1.4058   -1.8370    1.1116 C   0  0  0  0  0  0  0  0  0  0  0  0
   -0.7280   -2.3224    2.0014 O   0  0  0  0  0  0  0  0  0  0  0  0
   -1.0936   -0.5929    0.6057 N   0  0  0  0  0  0  0  0  0  0  0  0
   -1.7777   -0.1981   -0.0391 H   0  0  0  0  0  0  0  0  0  0  0  0
    0.2534    0.0045    0.5157 C   0  0  1  0  0  0  0  0  0  0  0  0
    0.6993    0.0663    1.5136 H   0  0  0  0  0  0  0  0  0  0  0  0
    1.1958   -0.7613   -0.4523 C   0  0  0  0  0  0  0  0  0  0  0  0
    0.7199   -0.7987   -1.4384 H   0  0  0  0  0  0  0  0  0  0  0  0
    2.1298   -0.2010   -0.5612 H   0  0  0  0  0  0  0  0  0  0  0  0
    1.6428   -2.4793    0.0290 S   0  0  0  0  0  0  0  0  0  0  0  0
    2.4043   -2.8657   -1.0170 H   0  0  0  0  0  0  0  0  0  0  0  0
    0.1511    1.4154   -0.1058 C   0  0  0  0  0  0  0  0  0  0  0  0
   -0.8436    1.7362   -0.7485 O   0  0  0  0  0  0  0  0  0  0  0  0
    1.2092    2.3025   -0.0170 N   0  0  0  0  0  0  0  0  0  0  0  0
    1.9952    2.0379    0.5706 H   0  0  0  0  0  0  0  0  0  0  0  0
    1.1687    3.6506   -0.5718 C   0  0  0  0  0  0  0  0  0  0  0  0
    0.3727    4.2361   -0.0995 H   0  0  0  0  0  0  0  0  0  0  0  0
    2.1219    4.1597   -0.3992 H   0  0  0  0  0  0  0  0  0  0  0  0
    0.9876    3.6161   -1.6514 H   0  0  0  0  0  0  0  0  0  0  0  0
  1  2  1  0  0  0  0
  2  3  1  0  0  0  0
  2  4  1  0  0  0  0
  2  5  1  0  0  0  0
  5  6  2  0  0  0  0
  5  7  1  0  0  0  0
  7  8  1  0  0  0  0
  7  9  1  0  0  0  0
  9 10  1  0  0  0  0
  9 11  1  0  0  0  0
  9 16  1  0  0  0  0
 11 12  1  0  0  0  0
 11 13  1  0  0  0  0
 11 14  1  0  0  0  0
 14 15  1  0  0  0  0
 16 17  2  0  0  0  0
 16 18  1  0  0  0  0
 18 19  1  0  0  0  0
 18 20  1  0  0  0  0
 20 21  1  0  0  0  0
 20 22  1  0  0  0  0
 20 23  1  0  0  0  0
M  END
$$$$

  -OEChem-01062216073D

 23 22  0     1  0  0  0  0  0999 V2000
   -2.7688   -3.5094    1.1675 H   0  0  0  0  0  0  0  0  0  0  0  0
   -2.7255   -2.4971    0.7562 C   0  0  0  0  0  0  0  0  0  0  0  0
   -3.4980   -1.8886    1.2321 H   0  0  0  0  0  0  0  0  0  0  0  0
   -2.9182   -2.5462   -0.3180 H   0  0  0  0  0  0  0  0  0  0  0  0
   -1.3589   -1.8895    1.0098 C   0  0  0  0  0  0  0  0  0  0  0  0
   -0.5748   -2.4546    1.7541 O   0  0  0  0  0  0  0  0  0  0  0  0
   -1.0691   -0.6358    0.5128 N   0  0  0  0  0  0  0  0  0  0  0  0
   -1.8189   -0.1471    0.0261 H   0  0  0  0  0  0  0  0  0  0  0  0
    0.2636   -0.0067    0.4616 C   0  0  1  0  0  0  0  0  0  0  0  0
    0.7947   -0.1668    1.4055 H   0  0  0  0  0  0  0  0  0  0  0  0
    1.0877   -0.5673   -0.7262 C   0  0  0  0  0  0  0  0  0  0  0  0
    0.5230   -0.4049   -1.6505 H   0  0  0  0  0  0  0  0  0  0  0  0
    2.0276   -0.0142   -0.8137 H   0  0  0  0  0  0  0  0  0  0  0  0
    1.5135   -2.3531   -0.6099 S   0  0  0  0  0  0  0  0  0  0  0  0
    2.1611   -2.5529   -1.7779 H   0  0  0  0  0  0  0  0  0  0  0  0
    0.1280    1.5127    0.2008 C   0  0  0  0  0  0  0  0  0  0  0  0
   -0.9689    2.0010   -0.0511 O   0  0  0  0  0  0  0  0  0  0  0  0
    1.2476    2.3225    0.1138 N   0  0  0  0  0  0  0  0  0  0  0  0
    2.1401    1.9181    0.3830 H   0  0  0  0  0  0  0  0  0  0  0  0
    1.1776    3.7557   -0.1477 C   0  0  0  0  0  0  0  0  0  0  0  0
    0.5928    4.2592    0.6294 H   0  0  0  0  0  0  0  0  0  0  0  0
    2.1827    4.1883   -0.1588 H   0  0  0  0  0  0  0  0  0  0  0  0
    0.7098    3.9461   -1.1195 H   0  0  0  0  0  0  0  0  0  0  0  0
  1  2  1  0  0  0  0
  2  3  1  0  0  0  0
  2  4  1  0  0  0  0
  2  5  1  0  0  0  0
  5  6  2  0  0  0  0
  5  7  1  0  0  0  0
  7  8  1  0  0  0  0
  7  9  1  0  0  0  0
  9 10  1  0  0  0  0
  9 11  1  0  0  0  0
  9 16  1  0  0  0  0
 11 12  1  0  0  0  0
 11 13  1  0  0  0  0
 11 14  1  0  0  0  0
 14 15  1  0  0  0  0
 16 17  2  0  0  0  0
 16 18  1  0  0  0  0
 18 19  1  0  0  0  0
 18 20  1  0  0  0  0
 20 21  1  0  0  0  0
 20 22  1  0  0  0  0
 20 23  1  0  0  0  0
M  END
$$$$

  -OEChem-01062216073D

 23 22  0     1  0  0  0  0  0999 V2000
   -2.8080   -3.4733    1.1881 H   0  0  0  0  0  0  0  0  0  0  0  0
   -2.7455   -2.4650    0.7693 C   0  0  0  0  0  0  0  0  0  0  0  0
   -3.4863   -1.8310    1.2622 H   0  0  0  0  0  0  0  0  0  0  0  0
   -2.9686   -2.5142   -0.2990 H   0  0  0  0  0  0  0  0  0  0  0  0
   -1.3548   -1.8980    0.9820 C   0  0  0  0  0  0  0  0  0  0  0  0
   -0.5662   -2.4927    1.6973 O   0  0  0  0  0  0  0  0  0  0  0  0
   -1.0502   -0.6448    0.4916 N   0  0  0  0  0  0  0  0  0  0  0  0
   -1.8158   -0.1111    0.0830 H   0  0  0  0  0  0  0  0  0  0  0  0
    0.2854   -0.0191    0.4458 C   0  0  1  0  0  0  0  0  0  0  0  0
    0.8114   -0.1764    1.3932 H   0  0  0  0  0  0  0  0  0  0  0  0
    1.1152   -0.5951   -0.7340 C   0  0  0  0  0  0  0  0  0  0  0  0
    0.5586   -0.4335   -1.6633 H   0  0  0  0  0  0  0  0  0  0  0  0
    2.0615   -0.0539   -0.8160 H   0  0  0  0  0  0  0  0  0  0  0  0
    1.5380   -2.3809   -0.6099 S   0  0  0  0  0  0  0  0  0  0  0  0
    2.2046   -2.5850   -1.7661 H   0  0  0  0  0  0  0  0  0  0  0  0
    0.1413    1.5046    0.1882 C   0  0  0  0  0  0  0  0  0  0  0  0
   -0.9697    2.0246    0.1938 O   0  0  0  0  0  0  0  0  0  0  0  0
    1.2188    2.2847   -0.1993 N   0  0  0  0  0  0  0  0  0  0  0  0
    2.1428    1.8666   -0.1444 H   0  0  0  0  0  0  0  0  0  0  0  0
    1.1137    3.7122   -0.4816 C   0  0  0  0  0  0  0  0  0  0  0  0
    0.7570    4.2531    0.4014 H   0  0  0  0  0  0  0  0  0  0  0  0
    2.0915    4.1153   -0.7623 H   0  0  0  0  0  0  0  0  0  0  0  0
    0.4181    3.8902   -1.3085 H   0  0  0  0  0  0  0  0  0  0  0  0
  1  2  1  0  0  0  0
  2  3  1  0  0  0  0
  2  4  1  0  0  0  0
  2  5  1  0  0  0  0
  5  6  2  0  0  0  0
  5  7  1  0  0  0  0
  7  8  1  0  0  0  0
  7  9  1  0  0  0  0
  9 10  1  0  0  0  0
  9 11  1  0  0  0  0
  9 16  1  0  0  0  0
 11 12  1  0  0  0  0
 11 13  1  0  0  0  0
 11 14  1  0  0  0  0
 14 15  1  0  0  0  0
 16 17  2  0  0  0  0
 16 18  1  0  0  0  0
 18 19  1  0  0  0  0
 18 20  1  0  0  0  0
 20 21  1  0  0  0  0
 20 22  1  0  0  0  0
 20 23  1  0  0  0  0
M  END
$$$$

  -OEChem-01062216073D

 23 22  0     1  0  0  0  0  0999 V2000
   -2.8427   -3.4382    1.1922 H   0  0  0  0  0  0  0  0  0  0  0  0
   -2.7636   -2.4281    0.7806 C   0  0  0  0  0  0  0  0  0  0  0  0
   -3.4734   -1.7787    1.2985 H   0  0  0  0  0  0  0  0  0  0  0  0
   -3.0164   -2.4610   -0.2817 H   0  0  0  0  0  0  0  0  0  0  0  0
   -1.3531   -1.9001    0.9608 C   0  0  0  0  0  0  0  0  0  0  0  0
   -0.5655   -2.5189    1.6560 O   0  0  0  0  0  0  0  0  0  0  0  0
   -1.0334   -0.6499    0.4719 N   0  0  0  0  0  0  0  0  0  0  0  0
   -1.8062   -0.0864    0.1222 H   0  0  0  0  0  0  0  0  0  0  0  0
    0.3071   -0.0330    0.4245 C   0  0  1  0  0  0  0  0  0  0  0  0
    0.8270   -0.1836    1.3763 H   0  0  0  0  0  0  0  0  0  0  0  0
    1.1474   -0.6280   -0.7403 C   0  0  0  0  0  0  0  0  0  0  0  0
    0.6027   -0.4750   -1.6780 H   0  0  0  0  0  0  0  0  0  0  0  0
    2.0985   -0.0940   -0.8135 H   0  0  0  0  0  0  0  0  0  0  0  0
    1.5674   -2.4125   -0.5952 S   0  0  0  0  0  0  0  0  0  0  0  0
    2.2484   -2.6295   -1.7404 H   0  0  0  0  0  0  0  0  0  0  0  0
    0.1544    1.4928    0.1669 C   0  0  0  0  0  0  0  0  0  0  0  0
   -0.9077    2.0460    0.4310 O   0  0  0  0  0  0  0  0  0  0  0  0
    1.1098    2.2399   -0.5052 N   0  0  0  0  0  0  0  0  0  0  0  0
    2.0118    1.8056   -0.6734 H   0  0  0  0  0  0  0  0  0  0  0  0
    0.9579    3.6629   -0.7909 C   0  0  0  0  0  0  0  0  0  0  0  0
    0.8415    4.2309    0.1383 H   0  0  0  0  0  0  0  0  0  0  0  0
    1.8399    4.0394   -1.3180 H   0  0  0  0  0  0  0  0  0  0  0  0
    0.0798    3.8362   -1.4223 H   0  0  0  0  0  0  0  0  0  0  0  0
  1  2  1  0  0  0  0
  2  3  1  0  0  0  0
  2  4  1  0  0  0  0
  2  5  1  0  0  0  0
  5  6  2  0  0  0  0
  5  7  1  0  0  0  0
  7  8  1  0  0  0  0
  7  9  1  0  0  0  0
  9 10  1  0  0  0  0
  9 11  1  0  0  0  0
  9 16  1  0  0  0  0
 11 12  1  0  0  0  0
 11 13  1  0  0  0  0
 11 14  1  0  0  0  0
 14 15  1  0  0  0  0
 16 17  2  0  0  0  0
 16 18  1  0  0  0  0
 18 19  1  0  0  0  0
 18 20  1  0  0  0  0
 20 21  1  0  0  0  0
 20 22  1  0  0  0  0
 20 23  1  0  0  0  0
M  END
$$$$

  -OEChem-01062216073D

 23 22  0     1  0  0  0  0  0999 V2000
   -2.8637   -3.4169    1.1756 H   0  0  0  0  0  0  0  0  0  0  0  0
   -2.7800   -2.3969    0.7907 C   0  0  0  0  0  0  0  0  0  0  0  0
   -3.4630   -1.7515    1.3480 H   0  0  0  0  0  0  0  0  0  0  0  0
   -3.0647   -2.3954   -0.2640 H   0  0  0  0  0  0  0  0  0  0  0  0
   -1.3559   -1.8979    0.9442 C   0  0  0  0  0  0  0  0  0  0  0  0
   -0.5668   -2.5405    1.6150 O   0  0  0  0  0  0  0  0  0  0  0  0
   -1.0253   -0.6495    0.4576 N   0  0  0  0  0  0  0  0  0  0  0  0
   -1.8015   -0.0646    0.1552 H   0  0  0  0  0  0  0  0  0  0  0  0
    0.3203   -0.0432    0.4073 C   0  0  1  0  0  0  0  0  0  0  0  0
    0.8324   -0.1883    1.3644 H   0  0  0  0  0  0  0  0  0  0  0  0
    1.1788   -0.6461   -0.7392 C   0  0  0  0  0  0  0  0  0  0  0  0
    0.6490   -0.5025   -1.6867 H   0  0  0  0  0  0  0  0  0  0  0  0
    2.1290   -0.1071   -0.7952 H   0  0  0  0  0  0  0  0  0  0  0  0
    1.6033   -2.4281   -0.5784 S   0  0  0  0  0  0  0  0  0  0  0  0
    2.3002   -2.6521   -1.7126 H   0  0  0  0  0  0  0  0  0  0  0  0
    0.1645    1.4824    0.1533 C   0  0  0  0  0  0  0  0  0  0  0  0
   -0.7765    2.0770    0.6653 O   0  0  0  0  0  0  0  0  0  0  0  0
    0.9340    2.1850   -0.7623 N   0  0  0  0  0  0  0  0  0  0  0  0
    1.7136    1.7018   -1.1962 H   0  0  0  0  0  0  0  0  0  0  0  0
    0.7335    3.5988   -1.0626 C   0  0  0  0  0  0  0  0  0  0  0  0
    0.8260    4.2018   -0.1530 H   0  0  0  0  0  0  0  0  0  0  0  0
    1.4824    3.9434   -1.7822 H   0  0  0  0  0  0  0  0  0  0  0  0
   -0.2599    3.7620   -1.4937 H   0  0  0  0  0  0  0  0  0  0  0  0
  1  2  1  0  0  0  0
  2  3  1  0  0  0  0
  2  4  1  0  0  0  0
  2  5  1  0  0  0  0
  5  6  2  0  0  0  0
  5  7  1  0  0  0  0
  7  8  1  0  0  0  0
  7  9  1  0  0  0  0
  9 10  1  0  0  0  0
  9 11  1  0  0  0  0
  9 16  1  0  0  0  0
 11 12  1  0  0  0  0
 11 13  1  0  0  0  0
 11 14  1  0  0  0  0
 14 15  1  0  0  0  0
 16 17  2  0  0  0  0
 16 18  1  0  0  0  0
 18 19  1  0  0  0  0
 18 20  1  0  0  0  0
 20 21  1  0  0  0  0
 20 22  1  0  0  0  0
 20 23  1  0  0  0  0
M  END
$$$$

  -OEChem-01062216073D

 23 22  0     1  0  0  0  0  0999 V2000
   -2.8637   -3.4108    1.1948 H   0  0  0  0  0  0  0  0  0  0  0  0
   -2.7808   -2.3951    0.7983 C   0  0  0  0  0  0  0  0  0  0  0  0
   -3.4660   -1.7447    1.3469 H   0  0  0  0  0  0  0  0  0  0  0  0
   -3.0636   -2.4067   -0.2568 H   0  0  0  0  0  0  0  0  0  0  0  0
   -1.3581   -1.8910    0.9486 C   0  0  0  0  0  0  0  0  0  0  0  0
   -0.5665   -2.5294    1.6199 O   0  0  0  0  0  0  0  0  0  0  0  0
   -1.0327   -0.6435    0.4552 N   0  0  0  0  0  0  0  0  0  0  0  0
   -1.8103   -0.0761    0.1275 H   0  0  0  0  0  0  0  0  0  0  0  0
    0.3145   -0.0411    0.3906 C   0  0  1  0  0  0  0  0  0  0  0  0
    0.8282   -0.1810    1.3480 H   0  0  0  0  0  0  0  0  0  0  0  0
    1.1791   -0.6509   -0.7469 C   0  0  0  0  0  0  0  0  0  0  0  0
    0.6501   -0.5273   -1.6974 H   0  0  0  0  0  0  0  0  0  0  0  0
    2.1228   -0.0992   -0.8065 H   0  0  0  0  0  0  0  0  0  0  0  0
    1.6115   -2.4289   -0.5668 S   0  0  0  0  0  0  0  0  0  0  0  0
    2.3510   -2.6498   -1.6744 H   0  0  0  0  0  0  0  0  0  0  0  0
    0.1644    1.4828    0.1354 C   0  0  0  0  0  0  0  0  0  0  0  0
   -0.5838    2.1319    0.8540 O   0  0  0  0  0  0  0  0  0  0  0  0
    0.6949    2.1250   -0.9738 N   0  0  0  0  0  0  0  0  0  0  0  0
    1.2874    1.5852   -1.5958 H   0  0  0  0  0  0  0  0  0  0  0  0
    0.4738    3.5371   -1.2675 C   0  0  0  0  0  0  0  0  0  0  0  0
    0.8215    4.1618   -0.4378 H   0  0  0  0  0  0  0  0  0  0  0  0
    1.0218    3.8264   -2.1694 H   0  0  0  0  0  0  0  0  0  0  0  0
   -0.5912    3.7320   -1.4326 H   0  0  0  0  0  0  0  0  0  0  0  0
  1  2  1  0  0  0  0
  2  3  1  0  0  0  0
  2  4  1  0  0  0  0
  2  5  1  0  0  0  0
  5  6  2  0  0  0  0
  5  7  1  0  0  0  0
  7  8  1  0  0  0  0
  7  9  1  0  0  0  0
  9 10  1  0  0  0  0
  9 11  1  0  0  0  0
  9 16  1  0  0  0  0
 11 12  1  0  0  0  0
 11 13  1  0  0  0  0
 11 14  1  0  0  0  0
 14 15  1  0  0  0  0
 16 17  2  0  0  0  0
 16 18  1  0  0  0  0
 18 19  1  0  0  0  0
 18 20  1  0  0  0  0
 20 21  1  0  0  0  0
 20 22  1  0  0  0  0
 20 23  1  0  0  0  0
M  END
$$$$

  -OEChem-01062216073D

 23 22  0     1  0  0  0  0  0999 V2000
   -2.8375   -3.4261    1.2149 H   0  0  0  0  0  0  0  0  0  0  0  0
   -2.7674   -2.4174    0.7982 C   0  0  0  0  0  0  0  0  0  0  0  0
   -3.4787   -1.7705    1.3174 H   0  0  0  0  0  0  0  0  0  0  0  0
   -3.0256   -2.4575   -0.2625 H   0  0  0  0  0  0  0  0  0  0  0  0
   -1.3593   -1.8799    0.9706 C   0  0  0  0  0  0  0  0  0  0  0  0
   -0.5659   -2.4949    1.6610 O   0  0  0  0  0  0  0  0  0  0  0  0
   -1.0489   -0.6330    0.4649 N   0  0  0  0  0  0  0  0  0  0  0  0
   -1.8237   -0.1083    0.0695 H   0  0  0  0  0  0  0  0  0  0  0  0
    0.2971   -0.0300    0.3804 C   0  0  1  0  0  0  0  0  0  0  0  0
    0.8184   -0.1642    1.3348 H   0  0  0  0  0  0  0  0  0  0  0  0
    1.1580   -0.6461   -0.7550 C   0  0  0  0  0  0  0  0  0  0  0  0
    0.6222   -0.5435   -1.7037 H   0  0  0  0  0  0  0  0  0  0  0  0
    2.0944   -0.0830   -0.8290 H   0  0  0  0  0  0  0  0  0  0  0  0
    1.5977   -2.4200   -0.5545 S   0  0  0  0  0  0  0  0  0  0  0  0
    2.3659   -2.6411   -1.6421 H   0  0  0  0  0  0  0  0  0  0  0  0
    0.1563    1.4910    0.1195 C   0  0  0  0  0  0  0  0  0  0  0  0
   -0.3211    2.2026    0.9915 O   0  0  0  0  0  0  0  0  0  0  0  0
    0.4038    2.0692   -1.1167 N   0  0  0  0  0  0  0  0  0  0  0  0
    0.7568    1.4725   -1.8576 H   0  0  0  0  0  0  0  0  0  0  0  0
    0.1858    3.4840   -1.3996 C   0  0  0  0  0  0  0  0  0  0  0  0
    0.7862    4.1066   -0.7277 H   0  0  0  0  0  0  0  0  0  0  0  0
    0.4732    3.7130   -2.4303 H   0  0  0  0  0  0  0  0  0  0  0  0
   -0.8704    3.7432   -1.2701 H   0  0  0  0  0  0  0  0  0  0  0  0
  1  2  1  0  0  0  0
  2  3  1  0  0  0  0
  2  4  1  0  0  0  0
  2  5  1  0  0  0  0
  5  6  2  0  0  0  0
  5  7  1  0  0  0  0
  7  8  1  0  0  0  0
  7  9  1  0  0  0  0
  9 10  1  0  0  0  0
  9 11  1  0  0  0  0
  9 16  1  0  0  0  0
 11 12  1  0  0  0  0
 11 13  1  0  0  0  0
 11 14  1  0  0  0  0
 14 15  1  0  0  0  0
 16 17  2  0  0  0  0
 16 18  1  0  0  0  0
 18 19  1  0  0  0  0
 18 20  1  0  0  0  0
 20 21  1  0  0  0  0
 20 22  1  0  0  0  0
 20 23  1  0  0  0  0
M  END
$$$$

  -OEChem-01062216073D

 23 22  0     1  0  0  0  0  0999 V2000
   -2.7968   -3.4580    1.2333 H   0  0  0  0  0  0  0  0  0  0  0  0
   -2.7464   -2.4564    0.7970 C   0  0  0  0  0  0  0  0  0  0  0  0
   -3.4935   -1.8227    1.2808 H   0  0  0  0  0  0  0  0  0  0  0  0
   -2.9705   -2.5268   -0.2697 H   0  0  0  0  0  0  0  0  0  0  0  0
   -1.3618   -1.8707    0.9987 C   0  0  0  0  0  0  0  0  0  0  0  0
   -0.5652   -2.4515    1.7142 O   0  0  0  0  0  0  0  0  0  0  0  0
   -1.0746   -0.6233    0.4798 N   0  0  0  0  0  0  0  0  0  0  0  0
   -1.8435   -0.1492    0.0165 H   0  0  0  0  0  0  0  0  0  0  0  0
    0.2690   -0.0171    0.3783 C   0  0  1  0  0  0  0  0  0  0  0  0
    0.7991   -0.1481    1.3288 H   0  0  0  0  0  0  0  0  0  0  0  0
    1.1241   -0.6294   -0.7624 C   0  0  0  0  0  0  0  0  0  0  0  0
    0.5853   -0.5349   -1.7095 H   0  0  0  0  0  0  0  0  0  0  0  0
    2.0552   -0.0583   -0.8444 H   0  0  0  0  0  0  0  0  0  0  0  0
    1.5704   -2.4010   -0.5547 S   0  0  0  0  0  0  0  0  0  0  0  0
    2.3644   -2.6143   -1.6254 H   0  0  0  0  0  0  0  0  0  0  0  0
    0.1329    1.5003    0.1106 C   0  0  0  0  0  0  0  0  0  0  0  0
   -0.0149    2.2690    1.0487 O   0  0  0  0  0  0  0  0  0  0  0  0
    0.0720    2.0201   -1.1733 N   0  0  0  0  0  0  0  0  0  0  0  0
    0.1564    1.3740   -1.9510 H   0  0  0  0  0  0  0  0  0  0  0  0
   -0.1119    3.4396   -1.4551 C   0  0  0  0  0  0  0  0  0  0  0  0
    0.6987    4.0265   -1.0102 H   0  0  0  0  0  0  0  0  0  0  0  0
   -0.1119    3.6150   -2.5353 H   0  0  0  0  0  0  0  0  0  0  0  0
   -1.0660    3.7915   -1.0481 H   0  0  0  0  0  0  0  0  0  0  0  0
  1  2  1  0  0  0  0
  2  3  1  0  0  0  0
  2  4  1  0  0  0  0
  2  5  1  0  0  0  0
  5  6  2  0  0  0  0
  5  7  1  0  0  0  0
  7  8  1  0  0  0  0
  7  9  1  0  0  0  0
  9 10  1  0  0  0  0
  9 11  1  0  0  0  0
  9 16  1  0  0  0  0
 11 12  1  0  0  0  0
 11 13  1  0  0  0  0
 11 14  1  0  0  0  0
 14 15  1  0  0  0  0
 16 17  2  0  0  0  0
 16 18  1  0  0  0  0
 18 19  1  0  0  0  0
 18 20  1  0  0  0  0
 20 21  1  0  0  0  0
 20 22  1  0  0  0  0
 20 23  1  0  0  0  0
M  END
$$$$

  -OEChem-01062216073D

 23 22  0     1  0  0  0  0  0999 V2000
   -2.7729   -3.4902    1.2559 H   0  0  0  0  0  0  0  0  0  0  0  0
   -2.7378   -2.4940    0.8057 C   0  0  0  0  0  0  0  0  0  0  0  0
   -3.5018   -1.8686    1.2734 H   0  0  0  0  0  0  0  0  0  0  0  0
   -2.9498   -2.5848   -0.2621 H   0  0  0  0  0  0  0  0  0  0  0  0
   -1.3672   -1.8780    1.0128 C   0  0  0  0  0  0  0  0  0  0  0  0
   -0.5636   -2.4377    1.7373 O   0  0  0  0  0  0  0  0  0  0  0  0
   -1.1005   -0.6279    0.4885 N   0  0  0  0  0  0  0  0  0  0  0  0
   -1.8688   -0.1826   -0.0031 H   0  0  0  0  0  0  0  0  0  0  0  0
    0.2394   -0.0120    0.3831 C   0  0  1  0  0  0  0  0  0  0  0  0
    0.7756   -0.1436    1.3301 H   0  0  0  0  0  0  0  0  0  0  0  0
    1.0947   -0.6024   -0.7670 C   0  0  0  0  0  0  0  0  0  0  0  0
    0.5577   -0.4979   -1.7139 H   0  0  0  0  0  0  0  0  0  0  0  0
    2.0215   -0.0228   -0.8416 H   0  0  0  0  0  0  0  0  0  0  0  0
    1.5534   -2.3723   -0.5747 S   0  0  0  0  0  0  0  0  0  0  0  0
    2.3773   -2.5580   -1.6281 H   0  0  0  0  0  0  0  0  0  0  0  0
    0.1024    1.5024    0.1124 C   0  0  0  0  0  0  0  0  0  0  0  0
    0.2903    2.3063    1.0128 O   0  0  0  0  0  0  0  0  0  0  0  0
   -0.2642    1.9820   -1.1353 N   0  0  0  0  0  0  0  0  0  0  0  0
   -0.4178    1.3060   -1.8766 H   0  0  0  0  0  0  0  0  0  0  0  0
   -0.4130    3.4026   -1.4331 C   0  0  0  0  0  0  0  0  0  0  0  0
    0.5277    3.9336   -1.2520 H   0  0  0  0  0  0  0  0  0  0  0  0
   -0.6922    3.5434   -2.4817 H   0  0  0  0  0  0  0  0  0  0  0  0
   -1.1933    3.8462   -0.8055 H   0  0  0  0  0  0  0  0  0  0  0  0
  1  2  1  0  0  0  0
  2  3  1  0  0  0  0
  2  4  1  0  0  0  0
  2  5  1  0  0  0  0
  5  6  2  0  0  0  0
  5  7  1  0  0  0  0
  7  8  1  0  0  0  0
  7  9  1  0  0  0  0
  9 10  1  0  0  0  0
  9 11  1  0  0  0  0
  9 16  1  0  0  0  0
 11 12  1  0  0  0  0
 11 13  1  0  0  0  0
 11 14  1  0  0  0  0
 14 15  1  0  0  0  0
 16 17  2  0  0  0  0
 16 18  1  0  0  0  0
 18 19  1  0  0  0  0
 18 20  1  0  0  0  0
 20 21  1  0  0  0  0
 20 22  1  0  0  0  0
 20 23  1  0  0  0  0
M  END
$$$$

  -OEChem-01062216073D

 23 22  0     1  0  0  0  0  0999 V2000
   -2.7515   -3.5261    1.2690 H   0  0  0  0  0  0  0  0  0  0  0  0
   -2.7282   -2.5337    0.8096 C   0  0  0  0  0  0  0  0  0  0  0  0
   -3.5093   -1.9181    1.2619 H   0  0  0  0  0  0  0  0  0  0  0  0
   -2.9258   -2.6384   -0.2597 H   0  0  0  0  0  0  0  0  0  0  0  0
   -1.3709   -1.8919    1.0267 C   0  0  0  0  0  0  0  0  0  0  0  0
   -0.5606   -2.4363    1.7552 O   0  0  0  0  0  0  0  0  0  0  0  0
   -1.1229   -0.6372    0.5037 N   0  0  0  0  0  0  0  0  0  0  0  0
   -1.8930   -0.2094    0.0007 H   0  0  0  0  0  0  0  0  0  0  0  0
    0.2116   -0.0079    0.4021 C   0  0  1  0  0  0  0  0  0  0  0  0
    0.7546   -0.1446    1.3447 H   0  0  0  0  0  0  0  0  0  0  0  0
    1.0618   -0.5694   -0.7639 C   0  0  0  0  0  0  0  0  0  0  0  0
    0.5213   -0.4440   -1.7067 H   0  0  0  0  0  0  0  0  0  0  0  0
    1.9856    0.0159   -0.8301 H   0  0  0  0  0  0  0  0  0  0  0  0
    1.5308   -2.3401   -0.6035 S   0  0  0  0  0  0  0  0  0  0  0  0
    2.3710   -2.4943   -1.6491 H   0  0  0  0  0  0  0  0  0  0  0  0
    0.0702    1.5043    0.1339 C   0  0  0  0  0  0  0  0  0  0  0  0
    0.5572    2.3180    0.9041 O   0  0  0  0  0  0  0  0  0  0  0  0
   -0.5819    1.9636   -0.9993 N   0  0  0  0  0  0  0  0  0  0  0  0
   -0.9138    1.2733   -1.6649 H   0  0  0  0  0  0  0  0  0  0  0  0
   -0.6955    3.3786   -1.3343 C   0  0  0  0  0  0  0  0  0  0  0  0
    0.2970    3.8218   -1.4678 H   0  0  0  0  0  0  0  0  0  0  0  0
   -1.2585    3.5043   -2.2640 H   0  0  0  0  0  0  0  0  0  0  0  0
   -1.2185    3.9202   -0.5389 H   0  0  0  0  0  0  0  0  0  0  0  0
  1  2  1  0  0  0  0
  2  3  1  0  0  0  0
  2  4  1  0  0  0  0
  2  5  1  0  0  0  0
  5  6  2  0  0  0  0
  5  7  1  0  0  0  0
  7  8  1  0  0  0  0
  7  9  1  0  0  0  0
  9 10  1  0  0  0  0
  9 11  1  0  0  0  0
  9 16  1  0  0  0  0
 11 12  1  0  0  0  0
 11 13  1  0  0  0  0
 11 14  1  0  0  0  0
 14 15  1  0  0  0  0
 16 17  2  0  0  0  0
 16 18  1  0  0  0  0
 18 19  1  0  0  0  0
 18 20  1  0  0  0  0
 20 21  1  0  0  0  0
 20 22  1  0  0  0  0
 20 23  1  0  0  0  0
M  END
$$$$

  -OEChem-01062216073D

 23 22  0     1  0  0  0  0  0999 V2000
   -2.7138   -3.5773    1.2664 H   0  0  0  0  0  0  0  0  0  0  0  0
   -2.7128   -2.5814    0.8142 C   0  0  0  0  0  0  0  0  0  0  0  0
   -3.5109   -1.9884    1.2668 H   0  0  0  0  0  0  0  0  0  0  0  0
   -2.9023   -2.6834   -0.2568 H   0  0  0  0  0  0  0  0  0  0  0  0
   -1.3721   -1.9091    1.0432 C   0  0  0  0  0  0  0  0  0  0  0  0
   -0.5593   -2.4314    1.7850 O   0  0  0  0  0  0  0  0  0  0  0  0
   -1.1444   -0.6508    0.5190 N   0  0  0  0  0  0  0  0  0  0  0  0
   -1.9150   -0.2466   -0.0006 H   0  0  0  0  0  0  0  0  0  0  0  0
    0.1841   -0.0048    0.4233 C   0  0  1  0  0  0  0  0  0  0  0  0
    0.7317   -0.1444    1.3626 H   0  0  0  0  0  0  0  0  0  0  0  0
    1.0270   -0.5472   -0.7554 C   0  0  0  0  0  0  0  0  0  0  0  0
    0.4779   -0.4090   -1.6918 H   0  0  0  0  0  0  0  0  0  0  0  0
    1.9480    0.0431   -0.8219 H   0  0  0  0  0  0  0  0  0  0  0  0
    1.5057   -2.3174   -0.6169 S   0  0  0  0  0  0  0  0  0  0  0  0
    2.3416   -2.4544   -1.6683 H   0  0  0  0  0  0  0  0  0  0  0  0
    0.0497    1.5073    0.1534 C   0  0  0  0  0  0  0  0  0  0  0  0
    0.7739    2.3031    0.7322 O   0  0  0  0  0  0  0  0  0  0  0  0
   -0.8396    1.9811   -0.7983 N   0  0  0  0  0  0  0  0  0  0  0  0
   -1.3254    1.2974   -1.3681 H   0  0  0  0  0  0  0  0  0  0  0  0
   -0.9398    3.3916   -1.1566 C   0  0  0  0  0  0  0  0  0  0  0  0
    0.0088    3.7516   -1.5691 H   0  0  0  0  0  0  0  0  0  0  0  0
   -1.7220    3.5374   -1.9079 H   0  0  0  0  0  0  0  0  0  0  0  0
   -1.1914    3.9937   -0.2768 H   0  0  0  0  0  0  0  0  0  0  0  0
  1  2  1  0  0  0  0
  2  3  1  0  0  0  0
  2  4  1  0  0  0  0
  2  5  1  0  0  0  0
  5  6  2  0  0  0  0
  5  7  1  0  0  0  0
  7  8  1  0  0  0  0
  7  9  1  0  0  0  0
  9 10  1  0  0  0  0
  9 11  1  0  0  0  0
  9 16  1  0  0  0  0
 11 12  1  0  0  0  0
 11 13  1  0  0  0  0
 11 14  1  0  0  0  0
 14 15  1  0  0  0  0
 16 17  2  0  0  0  0
 16 18  1  0  0  0  0
 18 19  1  0  0  0  0
 18 20  1  0  0  0  0
 20 21  1  0  0  0  0
 20 22  1  0  0  0  0
 20 23  1  0  0  0  0
M  END
$$$$

  -OEChem-01062216073D

 23 22  0     1  0  0  0  0  0999 V2000
   -2.5722   -3.6379    1.2935 H   0  0  0  0  0  0  0  0  0  0  0  0
   -2.5931   -2.6834    0.7597 C   0  0  0  0  0  0  0  0  0  0  0  0
   -3.5060   -2.1482    1.0309 H   0  0  0  0  0  0  0  0  0  0  0  0
   -2.5970   -2.8835   -0.3143 H   0  0  0  0  0  0  0  0  0  0  0  0
   -1.3759   -1.8567    1.1283 C   0  0  0  0  0  0  0  0  0  0  0  0
   -0.6190   -2.2509    1.9984 O   0  0  0  0  0  0  0  0  0  0  0  0
   -1.2008   -0.6078    0.5622 N   0  0  0  0  0  0  0  0  0  0  0  0
   -1.8700   -0.4092   -0.1712 H   0  0  0  0  0  0  0  0  0  0  0  0
    0.1360    0.0173    0.4275 C   0  0  1  0  0  0  0  0  0  0  0  0
    0.7052   -0.1159    1.3548 H   0  0  0  0  0  0  0  0  0  0  0  0
    0.9268   -0.5813   -0.7596 C   0  0  0  0  0  0  0  0  0  0  0  0
    0.3546   -0.4503   -1.6832 H   0  0  0  0  0  0  0  0  0  0  0  0
    1.8632   -0.0229   -0.8713 H   0  0  0  0  0  0  0  0  0  0  0  0
    1.3598   -2.3599   -0.5731 S   0  0  0  0  0  0  0  0  0  0  0  0
    2.1949   -2.5402   -1.6192 H   0  0  0  0  0  0  0  0  0  0  0  0
    0.0546    1.5304    0.1277 C   0  0  0  0  0  0  0  0  0  0  0  0
    1.0130    2.2483    0.3746 O   0  0  0  0  0  0  0  0  0  0  0  0
   -1.0113    2.0729   -0.5721 N   0  0  0  0  0  0  0  0  0  0  0  0
   -1.8364    1.4966   -0.6831 H   0  0  0  0  0  0  0  0  0  0  0  0
   -1.1077    3.4939   -0.8886 C   0  0  0  0  0  0  0  0  0  0  0  0
   -0.2537    3.8114   -1.4966 H   0  0  0  0  0  0  0  0  0  0  0  0
   -2.0238    3.6951   -1.4522 H   0  0  0  0  0  0  0  0  0  0  0  0
   -1.1267    4.0907    0.0296 H   0  0  0  0  0  0  0  0  0  0  0  0
  1  2  1  0  0  0  0
  2  3  1  0  0  0  0
  2  4  1  0  0  0  0
  2  5  1  0  0  0  0
  5  6  2  0  0  0  0
  5  7  1  0  0  0  0
  7  8  1  0  0  0  0
  7  9  1  0  0  0  0
  9 10  1  0  0  0  0
  9 11  1  0  0  0  0
  9 16  1  0  0  0  0
 11 12  1  0  0  0  0
 11 13  1  0  0  0  0
 11 14  1  0  0  0  0
 14 15  1  0  0  0  0
 16 17  2  0  0  0  0
 16 18  1  0  0  0  0
 18 19  1  0  0  0  0
 18 20  1  0  0  0  0
 20 21  1  0  0  0  0
 20 22  1  0  0  0  0
 20 23  1  0  0  0  0
M  END
$$$$

  -OEChem-01062216073D

 23 22  0     1  0  0  0  0  0999 V2000
   -2.5432   -3.6548    1.2666 H   0  0  0  0  0  0  0  0  0  0  0  0
   -2.5656   -2.7041    0.7263 C   0  0  0  0  0  0  0  0  0  0  0  0
   -3.4962   -2.1846    0.9665 H   0  0  0  0  0  0  0  0  0  0  0  0
   -2.5338   -2.9109   -0.3460 H   0  0  0  0  0  0  0  0  0  0  0  0
   -1.3755   -1.8526    1.1260 C   0  0  0  0  0  0  0  0  0  0  0  0
   -0.6390   -2.2252    2.0228 O   0  0  0  0  0  0  0  0  0  0  0  0
   -1.2056   -0.6019    0.5623 N   0  0  0  0  0  0  0  0  0  0  0  0
   -1.8457   -0.4314   -0.2055 H   0  0  0  0  0  0  0  0  0  0  0  0
    0.1332    0.0206    0.4308 C   0  0  1  0  0  0  0  0  0  0  0  0
    0.7018   -0.1106    1.3584 H   0  0  0  0  0  0  0  0  0  0  0  0
    0.9190   -0.5891   -0.7567 C   0  0  0  0  0  0  0  0  0  0  0  0
    0.3465   -0.4566   -1.6800 H   0  0  0  0  0  0  0  0  0  0  0  0
    1.8605   -0.0406   -0.8737 H   0  0  0  0  0  0  0  0  0  0  0  0
    1.3411   -2.3701   -0.5637 S   0  0  0  0  0  0  0  0  0  0  0  0
    2.1739   -2.5579   -1.6103 H   0  0  0  0  0  0  0  0  0  0  0  0
    0.0431    1.5358    0.1357 C   0  0  0  0  0  0  0  0  0  0  0  0
    1.0584    2.2179    0.1154 O   0  0  0  0  0  0  0  0  0  0  0  0
   -1.1466    2.1119   -0.2783 N   0  0  0  0  0  0  0  0  0  0  0  0
   -1.9911    1.5937   -0.0622 H   0  0  0  0  0  0  0  0  0  0  0  0
   -1.2679    3.5355   -0.5738 C   0  0  0  0  0  0  0  0  0  0  0  0
   -0.5915    3.8173   -1.3880 H   0  0  0  0  0  0  0  0  0  0  0  0
   -2.2910    3.7731   -0.8808 H   0  0  0  0  0  0  0  0  0  0  0  0
   -1.0224    4.1337    0.3102 H   0  0  0  0  0  0  0  0  0  0  0  0
  1  2  1  0  0  0  0
  2  3  1  0  0  0  0
  2  4  1  0  0  0  0
  2  5  1  0  0  0  0
  5  6  2  0  0  0  0
  5  7  1  0  0  0  0
  7  8  1  0  0  0  0
  7  9  1  0  0  0  0
  9 10  1  0  0  0  0
  9 11  1  0  0  0  0
  9 16  1  0  0  0  0
 11 12  1  0  0  0  0
 11 13  1  0  0  0  0
 11 14  1  0  0  0  0
 14 15  1  0  0  0  0
 16 17  2  0  0  0  0
 16 18  1  0  0  0  0
 18 19  1  0  0  0  0
 18 20  1  0  0  0  0
 20 21  1  0  0  0  0
 20 22  1  0  0  0  0
 20 23  1  0  0  0  0
M  END
$$$$

  -OEChem-01062216073D

 23 22  0     1  0  0  0  0  0999 V2000
   -2.5622   -3.6352    1.2609 H   0  0  0  0  0  0  0  0  0  0  0  0
   -2.5592   -2.6963    0.6998 C   0  0  0  0  0  0  0  0  0  0  0  0
   -3.4917   -2.1636    0.8999 H   0  0  0  0  0  0  0  0  0  0  0  0
   -2.4965   -2.9264   -0.3664 H   0  0  0  0  0  0  0  0  0  0  0  0
   -1.3730   -1.8473    1.1160 C   0  0  0  0  0  0  0  0  0  0  0  0
   -0.6477   -2.2201    2.0220 O   0  0  0  0  0  0  0  0  0  0  0  0
   -1.1938   -0.5954    0.5588 N   0  0  0  0  0  0  0  0  0  0  0  0
   -1.8334   -0.4104   -0.2075 H   0  0  0  0  0  0  0  0  0  0  0  0
    0.1479    0.0212    0.4276 C   0  0  1  0  0  0  0  0  0  0  0  0
    0.7179   -0.1117    1.3538 H   0  0  0  0  0  0  0  0  0  0  0  0
    0.9268   -0.5995   -0.7603 C   0  0  0  0  0  0  0  0  0  0  0  0
    0.3529   -0.4644   -1.6824 H   0  0  0  0  0  0  0  0  0  0  0  0
    1.8738   -0.0622   -0.8830 H   0  0  0  0  0  0  0  0  0  0  0  0
    1.3360   -2.3831   -0.5607 S   0  0  0  0  0  0  0  0  0  0  0  0
    2.1482   -2.5863   -1.6206 H   0  0  0  0  0  0  0  0  0  0  0  0
    0.0432    1.5387    0.1400 C   0  0  0  0  0  0  0  0  0  0  0  0
    1.0406    2.1995   -0.1172 O   0  0  0  0  0  0  0  0  0  0  0  0
   -1.1959    2.1481    0.0394 N   0  0  0  0  0  0  0  0  0  0  0  0
   -1.9722    1.6373    0.4491 H   0  0  0  0  0  0  0  0  0  0  0  0
   -1.3565    3.5772   -0.2055 C   0  0  0  0  0  0  0  0  0  0  0  0
   -0.9020    3.8557   -1.1622 H   0  0  0  0  0  0  0  0  0  0  0  0
   -2.4187    3.8377   -0.2417 H   0  0  0  0  0  0  0  0  0  0  0  0
   -0.8825    4.1600    0.5916 H   0  0  0  0  0  0  0  0  0  0  0  0
  1  2  1  0  0  0  0
  2  3  1  0  0  0  0
  2  4  1  0  0  0  0
  2  5  1  0  0  0  0
  5  6  2  0  0  0  0
  5  7  1  0  0  0  0
  7  8  1  0  0  0  0
  7  9  1  0  0  0  0
  9 10  1  0  0  0  0
  9 11  1  0  0  0  0
  9 16  1  0  0  0  0
 11 12  1  0  0  0  0
 11 13  1  0  0  0  0
 11 14  1  0  0  0  0
 14 15  1  0  0  0  0
 16 17  2  0  0  0  0
 16 18  1  0  0  0  0
 18 19  1  0  0  0  0
 18 20  1  0  0  0  0
 20 21  1  0  0  0  0
 20 22  1  0  0  0  0
 20 23  1  0  0  0  0
M  END
$$$$

  -OEChem-01062216073D

 23 22  0     1  0  0  0  0  0999 V2000
   -2.5675   -3.6269    1.2397 H   0  0  0  0  0  0  0  0  0  0  0  0
   -2.5663   -2.6818    0.6891 C   0  0  0  0  0  0  0  0  0  0  0  0
   -3.4938   -2.1469    0.9058 H   0  0  0  0  0  0  0  0  0  0  0  0
   -2.5168   -2.9004   -0.3803 H   0  0  0  0  0  0  0  0  0  0  0  0
   -1.3718   -1.8431    1.1017 C   0  0  0  0  0  0  0  0  0  0  0  0
   -0.6504   -2.2186    2.0098 O   0  0  0  0  0  0  0  0  0  0  0  0
   -1.1841   -0.5910    0.5484 N   0  0  0  0  0  0  0  0  0  0  0  0
   -1.8328   -0.3843   -0.2053 H   0  0  0  0  0  0  0  0  0  0  0  0
    0.1586    0.0226    0.4179 C   0  0  1  0  0  0  0  0  0  0  0  0
    0.7249   -0.1063    1.3468 H   0  0  0  0  0  0  0  0  0  0  0  0
    0.9424   -0.6096   -0.7621 C   0  0  0  0  0  0  0  0  0  0  0  0
    0.3721   -0.4805   -1.6872 H   0  0  0  0  0  0  0  0  0  0  0  0
    1.8912   -0.0759   -0.8853 H   0  0  0  0  0  0  0  0  0  0  0  0
    1.3496   -2.3919   -0.5482 S   0  0  0  0  0  0  0  0  0  0  0  0
    2.1446   -2.6086   -1.6182 H   0  0  0  0  0  0  0  0  0  0  0  0
    0.0381    1.5412    0.1340 C   0  0  0  0  0  0  0  0  0  0  0  0
    0.9656    2.1810   -0.3445 O   0  0  0  0  0  0  0  0  0  0  0  0
   -1.1678    2.1874    0.3442 N   0  0  0  0  0  0  0  0  0  0  0  0
   -1.8554    1.6746    0.8896 H   0  0  0  0  0  0  0  0  0  0  0  0
   -1.3440    3.6241    0.1659 C   0  0  0  0  0  0  0  0  0  0  0  0
   -1.1196    3.9130   -0.8664 H   0  0  0  0  0  0  0  0  0  0  0  0
   -2.3776    3.9087    0.3851 H   0  0  0  0  0  0  0  0  0  0  0  0
   -0.6812    4.1785    0.8387 H   0  0  0  0  0  0  0  0  0  0  0  0
  1  2  1  0  0  0  0
  2  3  1  0  0  0  0
  2  4  1  0  0  0  0
  2  5  1  0  0  0  0
  5  6  2  0  0  0  0
  5  7  1  0  0  0  0
  7  8  1  0  0  0  0
  7  9  1  0  0  0  0
  9 10  1  0  0  0  0
  9 11  1  0  0  0  0
  9 16  1  0  0  0  0
 11 12  1  0  0  0  0
 11 13  1  0  0  0  0
 11 14  1  0  0  0  0
 14 15  1  0  0  0  0
 16 17  2  0  0  0  0
 16 18  1  0  0  0  0
 18 19  1  0  0  0  0
 18 20  1  0  0  0  0
 20 21  1  0  0  0  0
 20 22  1  0  0  0  0
 20 23  1  0  0  0  0
M  END
$$$$

  -OEChem-01062216073D

 23 22  0     1  0  0  0  0  0999 V2000
   -2.5989   -3.6024    1.2234 H   0  0  0  0  0  0  0  0  0  0  0  0
   -2.5856   -2.6531    0.6804 C   0  0  0  0  0  0  0  0  0  0  0  0
   -3.5005   -2.1025    0.9110 H   0  0  0  0  0  0  0  0  0  0  0  0
   -2.5515   -2.8632   -0.3913 H   0  0  0  0  0  0  0  0  0  0  0  0
   -1.3710   -1.8404    1.0862 C   0  0  0  0  0  0  0  0  0  0  0  0
   -0.6482   -2.2335    1.9858 O   0  0  0  0  0  0  0  0  0  0  0  0
   -1.1697   -0.5861    0.5443 N   0  0  0  0  0  0  0  0  0  0  0  0
   -1.8309   -0.3496   -0.1900 H   0  0  0  0  0  0  0  0  0  0  0  0
    0.1743    0.0217    0.4130 C   0  0  1  0  0  0  0  0  0  0  0  0
    0.7397   -0.1098    1.3420 H   0  0  0  0  0  0  0  0  0  0  0  0
    0.9631   -0.6128   -0.7631 C   0  0  0  0  0  0  0  0  0  0  0  0
    0.3961   -0.4850   -1.6906 H   0  0  0  0  0  0  0  0  0  0  0  0
    1.9122   -0.0788   -0.8827 H   0  0  0  0  0  0  0  0  0  0  0  0
    1.3687   -2.3949   -0.5449 S   0  0  0  0  0  0  0  0  0  0  0  0
    2.1624   -2.6140   -1.6154 H   0  0  0  0  0  0  0  0  0  0  0  0
    0.0383    1.5416    0.1427 C   0  0  0  0  0  0  0  0  0  0  0  0
    0.8323    2.1558   -0.5587 O   0  0  0  0  0  0  0  0  0  0  0  0
   -1.0520    2.2235    0.6530 N   0  0  0  0  0  0  0  0  0  0  0  0
   -1.6321    1.7129    1.3141 H   0  0  0  0  0  0  0  0  0  0  0  0
   -1.2428    3.6617    0.5061 C   0  0  0  0  0  0  0  0  0  0  0  0
   -1.2964    3.9356   -0.5529 H   0  0  0  0  0  0  0  0  0  0  0  0
   -2.1745    3.9714    0.9892 H   0  0  0  0  0  0  0  0  0  0  0  0
   -0.4141    4.2075    0.9693 H   0  0  0  0  0  0  0  0  0  0  0  0
  1  2  1  0  0  0  0
  2  3  1  0  0  0  0
  2  4  1  0  0  0  0
  2  5  1  0  0  0  0
  5  6  2  0  0  0  0
  5  7  1  0  0  0  0
  7  8  1  0  0  0  0
  7  9  1  0  0  0  0
  9 10  1  0  0  0  0
  9 11  1  0  0  0  0
  9 16  1  0  0  0  0
 11 12  1  0  0  0  0
 11 13  1  0  0  0  0
 11 14  1  0  0  0  0
 14 15  1  0  0  0  0
 16 17  2  0  0  0  0
 16 18  1  0  0  0  0
 18 19  1  0  0  0  0
 18 20  1  0  0  0  0
 20 21  1  0  0  0  0
 20 22  1  0  0  0  0
 20 23  1  0  0  0  0
M  END
$$$$

  -OEChem-01062216073D

 23 22  0     1  0  0  0  0  0999 V2000
   -2.6020   -3.5964    1.1904 H   0  0  0  0  0  0  0  0  0  0  0  0
   -2.5944   -2.6348    0.6698 C   0  0  0  0  0  0  0  0  0  0  0  0
   -3.5047   -2.0876    0.9253 H   0  0  0  0  0  0  0  0  0  0  0  0
   -2.5749   -2.8197   -0.4070 H   0  0  0  0  0  0  0  0  0  0  0  0
   -1.3734   -1.8339    1.0792 C   0  0  0  0  0  0  0  0  0  0  0  0
   -0.6523   -2.2375    1.9759 O   0  0  0  0  0  0  0  0  0  0  0  0
   -1.1630   -0.5779    0.5457 N   0  0  0  0  0  0  0  0  0  0  0  0
   -1.8288   -0.3230   -0.1784 H   0  0  0  0  0  0  0  0  0  0  0  0
    0.1829    0.0226    0.4181 C   0  0  1  0  0  0  0  0  0  0  0  0
    0.7459   -0.1140    1.3477 H   0  0  0  0  0  0  0  0  0  0  0  0
    0.9757   -0.6108   -0.7552 C   0  0  0  0  0  0  0  0  0  0  0  0
    0.4111   -0.4819   -1.6843 H   0  0  0  0  0  0  0  0  0  0  0  0
    1.9236   -0.0736   -0.8702 H   0  0  0  0  0  0  0  0  0  0  0  0
    1.3769   -2.3943   -0.5404 S   0  0  0  0  0  0  0  0  0  0  0  0
    2.1469   -2.6203   -1.6269 H   0  0  0  0  0  0  0  0  0  0  0  0
    0.0431    1.5425    0.1579 C   0  0  0  0  0  0  0  0  0  0  0  0
    0.6548    2.1213   -0.7318 O   0  0  0  0  0  0  0  0  0  0  0  0
   -0.8552    2.2669    0.9193 N   0  0  0  0  0  0  0  0  0  0  0  0
   -1.3205    1.7674    1.6734 H   0  0  0  0  0  0  0  0  0  0  0  0
   -1.0484    3.7063    0.7915 C   0  0  0  0  0  0  0  0  0  0  0  0
   -1.3854    3.9603   -0.2190 H   0  0  0  0  0  0  0  0  0  0  0  0
   -1.8042    4.0513    1.5038 H   0  0  0  0  0  0  0  0  0  0  0  0
   -0.1129    4.2380    0.9951 H   0  0  0  0  0  0  0  0  0  0  0  0
  1  2  1  0  0  0  0
  2  3  1  0  0  0  0
  2  4  1  0  0  0  0
  2  5  1  0  0  0  0
  5  6  2  0  0  0  0
  5  7  1  0  0  0  0
  7  8  1  0  0  0  0
  7  9  1  0  0  0  0
  9 10  1  0  0  0  0
  9 11  1  0  0  0  0
  9 16  1  0  0  0  0
 11 12  1  0  0  0  0
 11 13  1  0  0  0  0
 11 14  1  0  0  0  0
 14 15  1  0  0  0  0
 16 17  2  0  0  0  0
 16 18  1  0  0  0  0
 18 19  1  0  0  0  0
 18 20  1  0  0  0  0
 20 21  1  0  0  0  0
 20 22  1  0  0  0  0
 20 23  1  0  0  0  0
M  END
$$$$

  -OEChem-01062216073D

 23 22  0     1  0  0  0  0  0999 V2000
   -2.6334   -3.5719    1.1887 H   0  0  0  0  0  0  0  0  0  0  0  0
   -2.6087   -2.6124    0.6645 C   0  0  0  0  0  0  0  0  0  0  0  0
   -3.5107   -2.0495    0.9155 H   0  0  0  0  0  0  0  0  0  0  0  0
   -2.5899   -2.8016   -0.4115 H   0  0  0  0  0  0  0  0  0  0  0  0
   -1.3757   -1.8295    1.0728 C   0  0  0  0  0  0  0  0  0  0  0  0
   -0.6542   -2.2484    1.9623 O   0  0  0  0  0  0  0  0  0  0  0  0
   -1.1544   -0.5713    0.5497 N   0  0  0  0  0  0  0  0  0  0  0  0
   -1.8214   -0.3004   -0.1676 H   0  0  0  0  0  0  0  0  0  0  0  0
    0.1938    0.0208    0.4249 C   0  0  1  0  0  0  0  0  0  0  0  0
    0.7577   -0.1266    1.3523 H   0  0  0  0  0  0  0  0  0  0  0  0
    0.9869   -0.6065   -0.7511 C   0  0  0  0  0  0  0  0  0  0  0  0
    0.4215   -0.4735   -1.6796 H   0  0  0  0  0  0  0  0  0  0  0  0
    1.9335   -0.0667   -0.8638 H   0  0  0  0  0  0  0  0  0  0  0  0
    1.3816   -2.3928   -0.5478 S   0  0  0  0  0  0  0  0  0  0  0  0
    2.1506   -2.6156   -1.6356 H   0  0  0  0  0  0  0  0  0  0  0  0
    0.0578    1.5415    0.1779 C   0  0  0  0  0  0  0  0  0  0  0  0
    0.4381    2.0811   -0.8543 O   0  0  0  0  0  0  0  0  0  0  0  0
   -0.5834    2.3100    1.1309 N   0  0  0  0  0  0  0  0  0  0  0  0
   -0.9113    1.8293    1.9652 H   0  0  0  0  0  0  0  0  0  0  0  0
   -0.7914    3.7476    1.0080 C   0  0  0  0  0  0  0  0  0  0  0  0
   -1.4106    3.9726    0.1333 H   0  0  0  0  0  0  0  0  0  0  0  0
   -1.2974    4.1332    1.8984 H   0  0  0  0  0  0  0  0  0  0  0  0
    0.1675    4.2663    0.9041 H   0  0  0  0  0  0  0  0  0  0  0  0
  1  2  1  0  0  0  0
  2  3  1  0  0  0  0
  2  4  1  0  0  0  0
  2  5  1  0  0  0  0
  5  6  2  0  0  0  0
  5  7  1  0  0  0  0
  7  8  1  0  0  0  0
  7  9  1  0  0  0  0
  9 10  1  0  0  0  0
  9 11  1  0  0  0  0
  9 16  1  0  0  0  0
 11 12  1  0  0  0  0
 11 13  1  0  0  0  0
 11 14  1  0  0  0  0
 14 15  1  0  0  0  0
 16 17  2  0  0  0  0
 16 18  1  0  0  0  0
 18 19  1  0  0  0  0
 18 20  1  0  0  0  0
 20 21  1  0  0  0  0
 20 22  1  0  0  0  0
 20 23  1  0  0  0  0
M  END
$$$$

  -OEChem-01062216073D

 23 22  0     1  0  0  0  0  0999 V2000
   -2.6496   -3.5632    1.1706 H   0  0  0  0  0  0  0  0  0  0  0  0
   -2.6227   -2.5947    0.6631 C   0  0  0  0  0  0  0  0  0  0  0  0
   -3.5146   -2.0270    0.9381 H   0  0  0  0  0  0  0  0  0  0  0  0
   -2.6225   -2.7652   -0.4161 H   0  0  0  0  0  0  0  0  0  0  0  0
   -1.3761   -1.8309    1.0668 C   0  0  0  0  0  0  0  0  0  0  0  0
   -0.6520   -2.2673    1.9460 O   0  0  0  0  0  0  0  0  0  0  0  0
   -1.1437   -0.5709    0.5528 N   0  0  0  0  0  0  0  0  0  0  0  0
   -1.8108   -0.2814   -0.1574 H   0  0  0  0  0  0  0  0  0  0  0  0
    0.2059    0.0168    0.4399 C   0  0  1  0  0  0  0  0  0  0  0  0
    0.7656   -0.1427    1.3677 H   0  0  0  0  0  0  0  0  0  0  0  0
    1.0034   -0.5985   -0.7386 C   0  0  0  0  0  0  0  0  0  0  0  0
    0.4399   -0.4592   -1.6672 H   0  0  0  0  0  0  0  0  0  0  0  0
    1.9483   -0.0546   -0.8445 H   0  0  0  0  0  0  0  0  0  0  0  0
    1.3930   -2.3877   -0.5536 S   0  0  0  0  0  0  0  0  0  0  0  0
    2.1180   -2.6136   -1.6705 H   0  0  0  0  0  0  0  0  0  0  0  0
    0.0791    1.5381    0.2004 C   0  0  0  0  0  0  0  0  0  0  0  0
    0.2022    2.0359   -0.9125 O   0  0  0  0  0  0  0  0  0  0  0  0
   -0.2704    2.3534    1.2599 N   0  0  0  0  0  0  0  0  0  0  0  0
   -0.4409    1.9009    2.1547 H   0  0  0  0  0  0  0  0  0  0  0  0
   -0.4871    3.7897    1.1365 C   0  0  0  0  0  0  0  0  0  0  0  0
   -1.3199    3.9950    0.4558 H   0  0  0  0  0  0  0  0  0  0  0  0
   -0.7238    4.2216    2.1137 H   0  0  0  0  0  0  0  0  0  0  0  0
    0.4124    4.2813    0.7513 H   0  0  0  0  0  0  0  0  0  0  0  0
  1  2  1  0  0  0  0
  2  3  1  0  0  0  0
  2  4  1  0  0  0  0
  2  5  1  0  0  0  0
  5  6  2  0  0  0  0
  5  7  1  0  0  0  0
  7  8  1  0  0  0  0
  7  9  1  0  0  0  0
  9 10  1  0  0  0  0
  9 11  1  0  0  0  0
  9 16  1  0  0  0  0
 11 12  1  0  0  0  0
 11 13  1  0  0  0  0
 11 14  1  0  0  0  0
 14 15  1  0  0  0  0
 16 17  2  0  0  0  0
 16 18  1  0  0  0  0
 18 19  1  0  0  0  0
 18 20  1  0  0  0  0
 20 21  1  0  0  0  0
 20 22  1  0  0  0  0
 20 23  1  0  0  0  0
M  END
$$$$

  -OEChem-01062216073D

 23 22  0     1  0  0  0  0  0999 V2000
   -2.6717   -3.5526    1.1630 H   0  0  0  0  0  0  0  0  0  0  0  0
   -2.6398   -2.5783    0.6671 C   0  0  0  0  0  0  0  0  0  0  0  0
   -3.5214   -2.0035    0.9607 H   0  0  0  0  0  0  0  0  0  0  0  0
   -2.6556   -2.7345   -0.4142 H   0  0  0  0  0  0  0  0  0  0  0  0
   -1.3789   -1.8341    1.0633 C   0  0  0  0  0  0  0  0  0  0  0  0
   -0.6486   -2.2892    1.9281 O   0  0  0  0  0  0  0  0  0  0  0  0
   -1.1356   -0.5745    0.5545 N   0  0  0  0  0  0  0  0  0  0  0  0
   -1.8035   -0.2679   -0.1482 H   0  0  0  0  0  0  0  0  0  0  0  0
    0.2140    0.0113    0.4500 C   0  0  1  0  0  0  0  0  0  0  0  0
    0.7705   -0.1576    1.3779 H   0  0  0  0  0  0  0  0  0  0  0  0
    1.0148   -0.5910   -0.7320 C   0  0  0  0  0  0  0  0  0  0  0  0
    0.4518   -0.4464   -1.6602 H   0  0  0  0  0  0  0  0  0  0  0  0
    1.9583   -0.0443   -0.8330 H   0  0  0  0  0  0  0  0  0  0  0  0
    1.4028   -2.3822   -0.5638 S   0  0  0  0  0  0  0  0  0  0  0  0
    2.1199   -2.6013   -1.6871 H   0  0  0  0  0  0  0  0  0  0  0  0
    0.0954    1.5320    0.2127 C   0  0  0  0  0  0  0  0  0  0  0  0
   -0.0502    1.9929   -0.9133 O   0  0  0  0  0  0  0  0  0  0  0  0
    0.0550    2.3876    1.2974 N   0  0  0  0  0  0  0  0  0  0  0  0
    0.0726    1.9652    2.2222 H   0  0  0  0  0  0  0  0  0  0  0  0
   -0.1523    3.8262    1.1804 C   0  0  0  0  0  0  0  0  0  0  0  0
   -1.1330    4.0381    0.7414 H   0  0  0  0  0  0  0  0  0  0  0  0
   -0.1057    4.2967    2.1674 H   0  0  0  0  0  0  0  0  0  0  0  0
    0.6215    4.2751    0.5486 H   0  0  0  0  0  0  0  0  0  0  0  0
  1  2  1  0  0  0  0
  2  3  1  0  0  0  0
  2  4  1  0  0  0  0
  2  5  1  0  0  0  0
  5  6  2  0  0  0  0
  5  7  1  0  0  0  0
  7  8  1  0  0  0  0
  7  9  1  0  0  0  0
  9 10  1  0  0  0  0
  9 11  1  0  0  0  0
  9 16  1  0  0  0  0
 11 12  1  0  0  0  0
 11 13  1  0  0  0  0
 11 14  1  0  0  0  0
 14 15  1  0  0  0  0
 16 17  2  0  0  0  0
 16 18  1  0  0  0  0
 18 19  1  0  0  0  0
 18 20  1  0  0  0  0
 20 21  1  0  0  0  0
 20 22  1  0  0  0  0
 20 23  1  0  0  0  0
M  END
$$$$

  -OEChem-01062216073D

 23 22  0     1  0  0  0  0  0999 V2000
   -2.6968   -3.5374    1.1748 H   0  0  0  0  0  0  0  0  0  0  0  0
   -2.6541   -2.5655    0.6754 C   0  0  0  0  0  0  0  0  0  0  0  0
   -3.5265   -1.9781    0.9708 H   0  0  0  0  0  0  0  0  0  0  0  0
   -2.6776   -2.7254   -0.4050 H   0  0  0  0  0  0  0  0  0  0  0  0
   -1.3815   -1.8366    1.0626 C   0  0  0  0  0  0  0  0  0  0  0  0
   -0.6453   -2.3061    1.9150 O   0  0  0  0  0  0  0  0  0  0  0  0
   -1.1287   -0.5788    0.5544 N   0  0  0  0  0  0  0  0  0  0  0  0
   -1.8001   -0.2520   -0.1365 H   0  0  0  0  0  0  0  0  0  0  0  0
    0.2207    0.0062    0.4587 C   0  0  1  0  0  0  0  0  0  0  0  0
    0.7724   -0.1688    1.3881 H   0  0  0  0  0  0  0  0  0  0  0  0
    1.0248   -0.5804   -0.7270 C   0  0  0  0  0  0  0  0  0  0  0  0
    0.4638   -0.4243   -1.6546 H   0  0  0  0  0  0  0  0  0  0  0  0
    1.9689   -0.0331   -0.8190 H   0  0  0  0  0  0  0  0  0  0  0  0
    1.4113   -2.3733   -0.5769 S   0  0  0  0  0  0  0  0  0  0  0  0
    2.1188   -2.5853   -1.7076 H   0  0  0  0  0  0  0  0  0  0  0  0
    0.1081    1.5246    0.2178 C   0  0  0  0  0  0  0  0  0  0  0  0
   -0.2890    1.9585   -0.8574 O   0  0  0  0  0  0  0  0  0  0  0  0
    0.3702    2.4076    1.2481 N   0  0  0  0  0  0  0  0  0  0  0  0
    0.5859    2.0095    2.1584 H   0  0  0  0  0  0  0  0  0  0  0  0
    0.1869    3.8494    1.1341 C   0  0  0  0  0  0  0  0  0  0  0  0
   -0.8673    4.0893    0.9605 H   0  0  0  0  0  0  0  0  0  0  0  0
    0.5085    4.3452    2.0551 H   0  0  0  0  0  0  0  0  0  0  0  0
    0.7804    4.2473    0.3041 H   0  0  0  0  0  0  0  0  0  0  0  0
  1  2  1  0  0  0  0
  2  3  1  0  0  0  0
  2  4  1  0  0  0  0
  2  5  1  0  0  0  0
  5  6  2  0  0  0  0
  5  7  1  0  0  0  0
  7  8  1  0  0  0  0
  7  9  1  0  0  0  0
  9 10  1  0  0  0  0
  9 11  1  0  0  0  0
  9 16  1  0  0  0  0
 11 12  1  0  0  0  0
 11 13  1  0  0  0  0
 11 14  1  0  0  0  0
 14 15  1  0  0  0  0
 16 17  2  0  0  0  0
 16 18  1  0  0  0  0
 18 19  1  0  0  0  0
 18 20  1  0  0  0  0
 20 21  1  0  0  0  0
 20 22  1  0  0  0  0
 20 23  1  0  0  0  0
M  END
$$$$

  -OEChem-01062216073D

 23 22  0     1  0  0  0  0  0999 V2000
   -2.7233   -3.5214    1.1970 H   0  0  0  0  0  0  0  0  0  0  0  0
   -2.6726   -2.5522    0.6930 C   0  0  0  0  0  0  0  0  0  0  0  0
   -3.5308   -1.9495    0.9992 H   0  0  0  0  0  0  0  0  0  0  0  0
   -2.7139   -2.7153   -0.3865 H   0  0  0  0  0  0  0  0  0  0  0  0
   -1.3826   -1.8436    1.0587 C   0  0  0  0  0  0  0  0  0  0  0  0
   -0.6358   -2.3309    1.8916 O   0  0  0  0  0  0  0  0  0  0  0  0
   -1.1208   -0.5877    0.5505 N   0  0  0  0  0  0  0  0  0  0  0  0
   -1.8012   -0.2351   -0.1193 H   0  0  0  0  0  0  0  0  0  0  0  0
    0.2273    0.0008    0.4630 C   0  0  1  0  0  0  0  0  0  0  0  0
    0.7738   -0.1768    1.3951 H   0  0  0  0  0  0  0  0  0  0  0  0
    1.0353   -0.5704   -0.7257 C   0  0  0  0  0  0  0  0  0  0  0  0
    0.4754   -0.4040   -1.6525 H   0  0  0  0  0  0  0  0  0  0  0  0
    1.9787   -0.0208   -0.8090 H   0  0  0  0  0  0  0  0  0  0  0  0
    1.4257   -2.3635   -0.5929 S   0  0  0  0  0  0  0  0  0  0  0  0
    2.1336   -2.5638   -1.7254 H   0  0  0  0  0  0  0  0  0  0  0  0
    0.1167    1.5175    0.2166 C   0  0  0  0  0  0  0  0  0  0  0  0
   -0.4939    1.9388   -0.7592 O   0  0  0  0  0  0  0  0  0  0  0  0
    0.6566    2.4130    1.1206 N   0  0  0  0  0  0  0  0  0  0  0  0
    1.0684    2.0304    1.9676 H   0  0  0  0  0  0  0  0  0  0  0  0
    0.5044    3.8580    1.0017 C   0  0  0  0  0  0  0  0  0  0  0  0
   -0.5521    4.1386    1.0686 H   0  0  0  0  0  0  0  0  0  0  0  0
    1.0489    4.3631    1.8054 H   0  0  0  0  0  0  0  0  0  0  0  0
    0.9021    4.2085    0.0433 H   0  0  0  0  0  0  0  0  0  0  0  0
  1  2  1  0  0  0  0
  2  3  1  0  0  0  0
  2  4  1  0  0  0  0
  2  5  1  0  0  0  0
  5  6  2  0  0  0  0
  5  7  1  0  0  0  0
  7  8  1  0  0  0  0
  7  9  1  0  0  0  0
  9 10  1  0  0  0  0
  9 11  1  0  0  0  0
  9 16  1  0  0  0  0
 11 12  1  0  0  0  0
 11 13  1  0  0  0  0
 11 14  1  0  0  0  0
 14 15  1  0  0  0  0
 16 17  2  0  0  0  0
 16 18  1  0  0  0  0
 18 19  1  0  0  0  0
 18 20  1  0  0  0  0
 20 21  1  0  0  0  0
 20 22  1  0  0  0  0
 20 23  1  0  0  0  0
M  END
$$$$

  -OEChem-01062216073D

 23 22  0     1  0  0  0  0  0999 V2000
   -2.7227   -3.5348    1.1772 H   0  0  0  0  0  0  0  0  0  0  0  0
   -2.6848   -2.5475    0.7084 C   0  0  0  0  0  0  0  0  0  0  0  0
   -3.5289   -1.9533    1.0662 H   0  0  0  0  0  0  0  0  0  0  0  0
   -2.7650   -2.6699   -0.3744 H   0  0  0  0  0  0  0  0  0  0  0  0
   -1.3802   -1.8564    1.0555 C   0  0  0  0  0  0  0  0  0  0  0  0
   -0.6228   -2.3591    1.8696 O   0  0  0  0  0  0  0  0  0  0  0  0
   -1.1152   -0.6010    0.5486 N   0  0  0  0  0  0  0  0  0  0  0  0
   -1.8087   -0.2242   -0.0944 H   0  0  0  0  0  0  0  0  0  0  0  0
    0.2276    0.0000    0.4705 C   0  0  1  0  0  0  0  0  0  0  0  0
    0.7703   -0.1745    1.4052 H   0  0  0  0  0  0  0  0  0  0  0  0
    1.0403   -0.5569   -0.7204 C   0  0  0  0  0  0  0  0  0  0  0  0
    0.4784   -0.3869   -1.6452 H   0  0  0  0  0  0  0  0  0  0  0  0
    1.9804   -0.0010   -0.8002 H   0  0  0  0  0  0  0  0  0  0  0  0
    1.4437   -2.3480   -0.6006 S   0  0  0  0  0  0  0  0  0  0  0  0
    2.1393   -2.5404   -1.7420 H   0  0  0  0  0  0  0  0  0  0  0  0
    0.1127    1.5154    0.2190 C   0  0  0  0  0  0  0  0  0  0  0  0
   -0.6669    1.9383   -0.6277 O   0  0  0  0  0  0  0  0  0  0  0  0
    0.8879    2.4060    0.9377 N   0  0  0  0  0  0  0  0  0  0  0  0
    1.4637    2.0284    1.6855 H   0  0  0  0  0  0  0  0  0  0  0  0
    0.7925    3.8526    0.7830 C   0  0  0  0  0  0  0  0  0  0  0  0
   -0.2101    4.2014    1.0518 H   0  0  0  0  0  0  0  0  0  0  0  0
    1.5184    4.3513    1.4323 H   0  0  0  0  0  0  0  0  0  0  0  0
    1.0010    4.1424   -0.2523 H   0  0  0  0  0  0  0  0  0  0  0  0
  1  2  1  0  0  0  0
  2  3  1  0  0  0  0
  2  4  1  0  0  0  0
  2  5  1  0  0  0  0
  5  6  2  0  0  0  0
  5  7  1  0  0  0  0
  7  8  1  0  0  0  0
  7  9  1  0  0  0  0
  9 10  1  0  0  0  0
  9 11  1  0  0  0  0
  9 16  1  0  0  0  0
 11 12  1  0  0  0  0
 11 13  1  0  0  0  0
 11 14  1  0  0  0  0
 14 15  1  0  0  0  0
 16 17  2  0  0  0  0
 16 18  1  0  0  0  0
 18 19  1  0  0  0  0
 18 20  1  0  0  0  0
 20 21  1  0  0  0  0
 20 22  1  0  0  0  0
 20 23  1  0  0  0  0
M  END
$$$$

  -OEChem-01062216073D

 23 22  0     1  0  0  0  0  0999 V2000
   -2.7544   -3.5150    1.2065 H   0  0  0  0  0  0  0  0  0  0  0  0
   -2.7014   -2.5330    0.7281 C   0  0  0  0  0  0  0  0  0  0  0  0
   -3.5234   -1.9153    1.0975 H   0  0  0  0  0  0  0  0  0  0  0  0
   -2.8061   -2.6623   -0.3518 H   0  0  0  0  0  0  0  0  0  0  0  0
   -1.3736   -1.8707    1.0424 C   0  0  0  0  0  0  0  0  0  0  0  0
   -0.6041   -2.3954    1.8307 O   0  0  0  0  0  0  0  0  0  0  0  0
   -1.1011   -0.6159    0.5383 N   0  0  0  0  0  0  0  0  0  0  0  0
   -1.8136   -0.2029   -0.0608 H   0  0  0  0  0  0  0  0  0  0  0  0
    0.2369   -0.0025    0.4707 C   0  0  1  0  0  0  0  0  0  0  0  0
    0.7742   -0.1730    1.4093 H   0  0  0  0  0  0  0  0  0  0  0  0
    1.0561   -0.5499   -0.7205 C   0  0  0  0  0  0  0  0  0  0  0  0
    0.4932   -0.3794   -1.6447 H   0  0  0  0  0  0  0  0  0  0  0  0
    1.9933    0.0111   -0.7979 H   0  0  0  0  0  0  0  0  0  0  0  0
    1.4730   -2.3382   -0.6105 S   0  0  0  0  0  0  0  0  0  0  0  0
    2.1472   -2.5258   -1.7655 H   0  0  0  0  0  0  0  0  0  0  0  0
    0.1154    1.5128    0.2146 C   0  0  0  0  0  0  0  0  0  0  0  0
   -0.8074    1.9486   -0.4655 O   0  0  0  0  0  0  0  0  0  0  0  0
    1.0734    2.3848    0.6984 N   0  0  0  0  0  0  0  0  0  0  0  0
    1.7892    2.0027    1.3106 H   0  0  0  0  0  0  0  0  0  0  0  0
    1.0042    3.8293    0.5107 C   0  0  0  0  0  0  0  0  0  0  0  0
    0.1064    4.2353    0.9885 H   0  0  0  0  0  0  0  0  0  0  0  0
    1.8808    4.3111    0.9545 H   0  0  0  0  0  0  0  0  0  0  0  0
    0.9782    4.0774   -0.5557 H   0  0  0  0  0  0  0  0  0  0  0  0
  1  2  1  0  0  0  0
  2  3  1  0  0  0  0
  2  4  1  0  0  0  0
  2  5  1  0  0  0  0
  5  6  2  0  0  0  0
  5  7  1  0  0  0  0
  7  8  1  0  0  0  0
  7  9  1  0  0  0  0
  9 10  1  0  0  0  0
  9 11  1  0  0  0  0
  9 16  1  0  0  0  0
 11 12  1  0  0  0  0
 11 13  1  0  0  0  0
 11 14  1  0  0  0  0
 14 15  1  0  0  0  0
 16 17  2  0  0  0  0
 16 18  1  0  0  0  0
 18 19  1  0  0  0  0
 18 20  1  0  0  0  0
 20 21  1  0  0  0  0
 20 22  1  0  0  0  0
 20 23  1  0  0  0  0
M  END
$$$$

  -OEChem-01062216073D

 23 22  0     1  0  0  0  0  0999 V2000
   -2.7510   -3.5223    1.1835 H   0  0  0  0  0  0  0  0  0  0  0  0
   -2.7114   -2.5222    0.7429 C   0  0  0  0  0  0  0  0  0  0  0  0
   -3.5133   -1.9155    1.1700 H   0  0  0  0  0  0  0  0  0  0  0  0
   -2.8609   -2.6077   -0.3359 H   0  0  0  0  0  0  0  0  0  0  0  0
   -1.3674   -1.8801    1.0287 C   0  0  0  0  0  0  0  0  0  0  0  0
   -0.5883   -2.4218    1.7954 O   0  0  0  0  0  0  0  0  0  0  0  0
   -1.0900   -0.6256    0.5266 N   0  0  0  0  0  0  0  0  0  0  0  0
   -1.8233   -0.1764   -0.0196 H   0  0  0  0  0  0  0  0  0  0  0  0
    0.2435   -0.0004    0.4667 C   0  0  1  0  0  0  0  0  0  0  0  0
    0.7770   -0.1643    1.4087 H   0  0  0  0  0  0  0  0  0  0  0  0
    1.0678   -0.5509   -0.7215 C   0  0  0  0  0  0  0  0  0  0  0  0
    0.5032   -0.3872   -1.6457 H   0  0  0  0  0  0  0  0  0  0  0  0
    2.0037    0.0109   -0.8037 H   0  0  0  0  0  0  0  0  0  0  0  0
    1.4948   -2.3363   -0.6061 S   0  0  0  0  0  0  0  0  0  0  0  0
    2.1502   -2.5321   -1.7702 H   0  0  0  0  0  0  0  0  0  0  0  0
    0.1169    1.5160    0.2065 C   0  0  0  0  0  0  0  0  0  0  0  0
   -0.9148    1.9781   -0.2695 O   0  0  0  0  0  0  0  0  0  0  0  0
    1.1960    2.3558    0.4165 N   0  0  0  0  0  0  0  0  0  0  0  0
    2.0192    1.9591    0.8614 H   0  0  0  0  0  0  0  0  0  0  0  0
    1.1425    3.7958    0.1922 C   0  0  0  0  0  0  0  0  0  0  0  0
    0.3819    4.2558    0.8319 H   0  0  0  0  0  0  0  0  0  0  0  0
    2.1104    4.2510    0.4237 H   0  0  0  0  0  0  0  0  0  0  0  0
    0.9013    4.0133   -0.8537 H   0  0  0  0  0  0  0  0  0  0  0  0
  1  2  1  0  0  0  0
  2  3  1  0  0  0  0
  2  4  1  0  0  0  0
  2  5  1  0  0  0  0
  5  6  2  0  0  0  0
  5  7  1  0  0  0  0
  7  8  1  0  0  0  0
  7  9  1  0  0  0  0
  9 10  1  0  0  0  0
  9 11  1  0  0  0  0
  9 16  1  0  0  0  0
 11 12  1  0  0  0  0
 11 13  1  0  0  0  0
 11 14  1  0  0  0  0
 14 15  1  0  0  0  0
 16 17  2  0  0  0  0
 16 18  1  0  0  0  0
 18 19  1  0  0  0  0
 18 20  1  0  0  0  0
 20 21  1  0  0  0  0
 20 22  1  0  0  0  0
 20 23  1  0  0  0  0
M  END
$$$$

  -OEChem-01062216073D

 23 22  0     1  0  0  0  0  0999 V2000
   -2.7664   -3.5034    1.1884 H   0  0  0  0  0  0  0  0  0  0  0  0
   -2.7357   -2.4852    0.7908 C   0  0  0  0  0  0  0  0  0  0  0  0
   -3.4323   -1.8631    1.3575 H   0  0  0  0  0  0  0  0  0  0  0  0
   -3.0453   -2.5076   -0.2566 H   0  0  0  0  0  0  0  0  0  0  0  0
   -1.3310   -1.9240    0.9022 C   0  0  0  0  0  0  0  0  0  0  0  0
   -0.4722   -2.5564    1.4955 O   0  0  0  0  0  0  0  0  0  0  0  0
   -1.0646   -0.6596    0.4182 N   0  0  0  0  0  0  0  0  0  0  0  0
   -1.8571   -0.1013    0.1062 H   0  0  0  0  0  0  0  0  0  0  0  0
    0.2587   -0.0120    0.4049 C   0  0  1  0  0  0  0  0  0  0  0  0
    0.8717   -0.3755    1.2363 H   0  0  0  0  0  0  0  0  0  0  0  0
    0.9589   -0.3049   -0.9406 C   0  0  0  0  0  0  0  0  0  0  0  0
    0.3161    0.0375   -1.7584 H   0  0  0  0  0  0  0  0  0  0  0  0
    1.8964    0.2560   -0.9992 H   0  0  0  0  0  0  0  0  0  0  0  0
    1.3507   -2.0846   -1.1940 S   0  0  0  0  0  0  0  0  0  0  0  0
    1.9019   -2.0667   -2.4264 H   0  0  0  0  0  0  0  0  0  0  0  0
    0.1219    1.5230    0.5285 C   0  0  0  0  0  0  0  0  0  0  0  0
   -0.9859    2.0492    0.5070 O   0  0  0  0  0  0  0  0  0  0  0  0
    1.2423    2.3357    0.5402 N   0  0  0  0  0  0  0  0  0  0  0  0
    2.1487    1.8833    0.6198 H   0  0  0  0  0  0  0  0  0  0  0  0
    1.1717    3.7894    0.6363 C   0  0  0  0  0  0  0  0  0  0  0  0
    0.6649    4.0890    1.5597 H   0  0  0  0  0  0  0  0  0  0  0  0
    2.1783    4.2184    0.6397 H   0  0  0  0  0  0  0  0  0  0  0  0
    0.6235    4.2035   -0.2165 H   0  0  0  0  0  0  0  0  0  0  0  0
  1  2  1  0  0  0  0
  2  3  1  0  0  0  0
  2  4  1  0  0  0  0
  2  5  1  0  0  0  0
  5  6  2  0  0  0  0
  5  7  1  0  0  0  0
  7  8  1  0  0  0  0
  7  9  1  0  0  0  0
  9 10  1  0  0  0  0
  9 11  1  0  0  0  0
  9 16  1  0  0  0  0
 11 12  1  0  0  0  0
 11 13  1  0  0  0  0
 11 14  1  0  0  0  0
 14 15  1  0  0  0  0
 16 17  2  0  0  0  0
 16 18  1  0  0  0  0
 18 19  1  0  0  0  0
 18 20  1  0  0  0  0
 20 21  1  0  0  0  0
 20 22  1  0  0  0  0
 20 23  1  0  0  0  0
M  END
$$$$

  -OEChem-01062216073D

 23 22  0     1  0  0  0  0  0999 V2000
   -2.7855   -3.4783    1.1998 H   0  0  0  0  0  0  0  0  0  0  0  0
   -2.7446   -2.4584    0.8075 C   0  0  0  0  0  0  0  0  0  0  0  0
   -3.4085   -1.8247    1.4002 H   0  0  0  0  0  0  0  0  0  0  0  0
   -3.0878   -2.4668   -0.2296 H   0  0  0  0  0  0  0  0  0  0  0  0
   -1.3251   -1.9285    0.8766 C   0  0  0  0  0  0  0  0  0  0  0  0
   -0.4629   -2.5849    1.4375 O   0  0  0  0  0  0  0  0  0  0  0  0
   -1.0513   -0.6634    0.3979 N   0  0  0  0  0  0  0  0  0  0  0  0
   -1.8497   -0.0753    0.1655 H   0  0  0  0  0  0  0  0  0  0  0  0
    0.2753   -0.0209    0.3919 C   0  0  1  0  0  0  0  0  0  0  0  0
    0.8841   -0.3840    1.2267 H   0  0  0  0  0  0  0  0  0  0  0  0
    0.9794   -0.3278   -0.9519 C   0  0  0  0  0  0  0  0  0  0  0  0
    0.3424    0.0160   -1.7737 H   0  0  0  0  0  0  0  0  0  0  0  0
    1.9235    0.2206   -1.0111 H   0  0  0  0  0  0  0  0  0  0  0  0
    1.3644   -2.1097   -1.2001 S   0  0  0  0  0  0  0  0  0  0  0  0
    1.9149   -2.1007   -2.4329 H   0  0  0  0  0  0  0  0  0  0  0  0
    0.1291    1.5165    0.5213 C   0  0  0  0  0  0  0  0  0  0  0  0
   -0.9705    2.0119    0.7450 O   0  0  0  0  0  0  0  0  0  0  0  0
    1.1827    2.3706    0.2410 N   0  0  0  0  0  0  0  0  0  0  0  0
    2.1011    1.9560    0.1136 H   0  0  0  0  0  0  0  0  0  0  0  0
    1.0726    3.8239    0.3048 C   0  0  0  0  0  0  0  0  0  0  0  0
    0.7874    4.1438    1.3126 H   0  0  0  0  0  0  0  0  0  0  0  0
    2.0310    4.2878    0.0530 H   0  0  0  0  0  0  0  0  0  0  0  0
    0.3197    4.1830   -0.4047 H   0  0  0  0  0  0  0  0  0  0  0  0
  1  2  1  0  0  0  0
  2  3  1  0  0  0  0
  2  4  1  0  0  0  0
  2  5  1  0  0  0  0
  5  6  2  0  0  0  0
  5  7  1  0  0  0  0
  7  8  1  0  0  0  0
  7  9  1  0  0  0  0
  9 10  1  0  0  0  0
  9 11  1  0  0  0  0
  9 16  1  0  0  0  0
 11 12  1  0  0  0  0
 11 13  1  0  0  0  0
 11 14  1  0  0  0  0
 14 15  1  0  0  0  0
 16 17  2  0  0  0  0
 16 18  1  0  0  0  0
 18 19  1  0  0  0  0
 18 20  1  0  0  0  0
 20 21  1  0  0  0  0
 20 22  1  0  0  0  0
 20 23  1  0  0  0  0
M  END
$$$$

  -OEChem-01062216073D

 23 22  0     1  0  0  0  0  0999 V2000
   -2.7973   -3.4558    1.2172 H   0  0  0  0  0  0  0  0  0  0  0  0
   -2.7529   -2.4348    0.8280 C   0  0  0  0  0  0  0  0  0  0  0  0
   -3.3886   -1.7941    1.4437 H   0  0  0  0  0  0  0  0  0  0  0  0
   -3.1280   -2.4336   -0.1980 H   0  0  0  0  0  0  0  0  0  0  0  0
   -1.3239   -1.9271    0.8566 C   0  0  0  0  0  0  0  0  0  0  0  0
   -0.4583   -2.5995    1.3922 O   0  0  0  0  0  0  0  0  0  0  0  0
   -1.0466   -0.6625    0.3769 N   0  0  0  0  0  0  0  0  0  0  0  0
   -1.8467   -0.0566    0.2060 H   0  0  0  0  0  0  0  0  0  0  0  0
    0.2846   -0.0274    0.3702 C   0  0  1  0  0  0  0  0  0  0  0  0
    0.8871   -0.3865    1.2114 H   0  0  0  0  0  0  0  0  0  0  0  0
    0.9999   -0.3539   -0.9647 C   0  0  0  0  0  0  0  0  0  0  0  0
    0.3734   -0.0144   -1.7963 H   0  0  0  0  0  0  0  0  0  0  0  0
    1.9496    0.1854   -1.0170 H   0  0  0  0  0  0  0  0  0  0  0  0
    1.3831   -2.1380   -1.1975 S   0  0  0  0  0  0  0  0  0  0  0  0
    1.9427   -2.1394   -2.4263 H   0  0  0  0  0  0  0  0  0  0  0  0
    0.1338    1.5121    0.5010 C   0  0  0  0  0  0  0  0  0  0  0  0
   -0.8953    1.9811    0.9746 O   0  0  0  0  0  0  0  0  0  0  0  0
    1.0462    2.3971   -0.0514 N   0  0  0  0  0  0  0  0  0  0  0  0
    1.9192    2.0148   -0.4011 H   0  0  0  0  0  0  0  0  0  0  0  0
    0.8929    3.8469    0.0088 C   0  0  0  0  0  0  0  0  0  0  0  0
    0.8274    4.1838    1.0489 H   0  0  0  0  0  0  0  0  0  0  0  0
    1.7510    4.3382   -0.4598 H   0  0  0  0  0  0  0  0  0  0  0  0
   -0.0141    4.1583   -0.5201 H   0  0  0  0  0  0  0  0  0  0  0  0
  1  2  1  0  0  0  0
  2  3  1  0  0  0  0
  2  4  1  0  0  0  0
  2  5  1  0  0  0  0
  5  6  2  0  0  0  0
  5  7  1  0  0  0  0
  7  8  1  0  0  0  0
  7  9  1  0  0  0  0
  9 10  1  0  0  0  0
  9 11  1  0  0  0  0
  9 16  1  0  0  0  0
 11 12  1  0  0  0  0
 11 13  1  0  0  0  0
 11 14  1  0  0  0  0
 14 15  1  0  0  0  0
 16 17  2  0  0  0  0
 16 18  1  0  0  0  0
 18 19  1  0  0  0  0
 18 20  1  0  0  0  0
 20 21  1  0  0  0  0
 20 22  1  0  0  0  0
 20 23  1  0  0  0  0
M  END
$$$$

  -OEChem-01062216073D

 23 22  0     1  0  0  0  0  0999 V2000
   -2.8045   -3.4406    1.2335 H   0  0  0  0  0  0  0  0  0  0  0  0
   -2.7581   -2.4214    0.8397 C   0  0  0  0  0  0  0  0  0  0  0  0
   -3.3825   -1.7746    1.4606 H   0  0  0  0  0  0  0  0  0  0  0  0
   -3.1451   -2.4219   -0.1819 H   0  0  0  0  0  0  0  0  0  0  0  0
   -1.3257   -1.9224    0.8501 C   0  0  0  0  0  0  0  0  0  0  0  0
   -0.4587   -2.6023    1.3732 O   0  0  0  0  0  0  0  0  0  0  0  0
   -1.0480   -0.6582    0.3684 N   0  0  0  0  0  0  0  0  0  0  0  0
   -1.8495   -0.0512    0.2133 H   0  0  0  0  0  0  0  0  0  0  0  0
    0.2866   -0.0295    0.3532 C   0  0  1  0  0  0  0  0  0  0  0  0
    0.8859   -0.3843    1.1987 H   0  0  0  0  0  0  0  0  0  0  0  0
    1.0131   -0.3700   -0.9721 C   0  0  0  0  0  0  0  0  0  0  0  0
    0.3959   -0.0388   -1.8138 H   0  0  0  0  0  0  0  0  0  0  0  0
    1.9643    0.1683   -1.0140 H   0  0  0  0  0  0  0  0  0  0  0  0
    1.3989   -2.1556   -1.1870 S   0  0  0  0  0  0  0  0  0  0  0  0
    1.9861   -2.1664   -2.4026 H   0  0  0  0  0  0  0  0  0  0  0  0
    0.1354    1.5097    0.4862 C   0  0  0  0  0  0  0  0  0  0  0  0
   -0.7509    1.9640    1.1994 O   0  0  0  0  0  0  0  0  0  0  0  0
    0.8417    2.4067   -0.3007 N   0  0  0  0  0  0  0  0  0  0  0  0
    1.5790    2.0383   -0.8923 H   0  0  0  0  0  0  0  0  0  0  0  0
    0.6519    3.8522   -0.2389 C   0  0  0  0  0  0  0  0  0  0  0  0
    0.8357    4.2213    0.7759 H   0  0  0  0  0  0  0  0  0  0  0  0
    1.3460    4.3549   -0.9194 H   0  0  0  0  0  0  0  0  0  0  0  0
   -0.3698    4.1176   -0.5303 H   0  0  0  0  0  0  0  0  0  0  0  0
  1  2  1  0  0  0  0
  2  3  1  0  0  0  0
  2  4  1  0  0  0  0
  2  5  1  0  0  0  0
  5  6  2  0  0  0  0
  5  7  1  0  0  0  0
  7  8  1  0  0  0  0
  7  9  1  0  0  0  0
  9 10  1  0  0  0  0
  9 11  1  0  0  0  0
  9 16  1  0  0  0  0
 11 12  1  0  0  0  0
 11 13  1  0  0  0  0
 11 14  1  0  0  0  0
 14 15  1  0  0  0  0
 16 17  2  0  0  0  0
 16 18  1  0  0  0  0
 18 19  1  0  0  0  0
 18 20  1  0  0  0  0
 20 21  1  0  0  0  0
 20 22  1  0  0  0  0
 20 23  1  0  0  0  0
M  END
$$$$

  -OEChem-01062216073D

 23 22  0     1  0  0  0  0  0999 V2000
   -2.8027   -3.4381    1.2477 H   0  0  0  0  0  0  0  0  0  0  0  0
   -2.7592   -2.4216    0.8466 C   0  0  0  0  0  0  0  0  0  0  0  0
   -3.3876   -1.7730    1.4616 H   0  0  0  0  0  0  0  0  0  0  0  0
   -3.1436   -2.4310   -0.1759 H   0  0  0  0  0  0  0  0  0  0  0  0
   -1.3287   -1.9171    0.8572 C   0  0  0  0  0  0  0  0  0  0  0  0
   -0.4596   -2.5950    1.3789 O   0  0  0  0  0  0  0  0  0  0  0  0
   -1.0555   -0.6532    0.3716 N   0  0  0  0  0  0  0  0  0  0  0  0
   -1.8599   -0.0609    0.1840 H   0  0  0  0  0  0  0  0  0  0  0  0
    0.2799   -0.0263    0.3428 C   0  0  1  0  0  0  0  0  0  0  0  0
    0.8805   -0.3775    1.1893 H   0  0  0  0  0  0  0  0  0  0  0  0
    1.0129   -0.3721   -0.9765 C   0  0  0  0  0  0  0  0  0  0  0  0
    0.3981   -0.0531   -1.8244 H   0  0  0  0  0  0  0  0  0  0  0  0
    1.9598    0.1759   -1.0137 H   0  0  0  0  0  0  0  0  0  0  0  0
    1.4067   -2.1570   -1.1793 S   0  0  0  0  0  0  0  0  0  0  0  0
    2.0374   -2.1663   -2.3731 H   0  0  0  0  0  0  0  0  0  0  0  0
    0.1335    1.5114    0.4763 C   0  0  0  0  0  0  0  0  0  0  0  0
   -0.5418    1.9685    1.3885 O   0  0  0  0  0  0  0  0  0  0  0  0
    0.5836    2.3963   -0.4920 N   0  0  0  0  0  0  0  0  0  0  0  0
    1.1139    2.0180   -1.2699 H   0  0  0  0  0  0  0  0  0  0  0  0
    0.3687    3.8379   -0.4259 C   0  0  0  0  0  0  0  0  0  0  0  0
    0.8047    4.2498    0.4905 H   0  0  0  0  0  0  0  0  0  0  0  0
    0.8387    4.3304   -1.2827 H   0  0  0  0  0  0  0  0  0  0  0  0
   -0.7021    4.0670   -0.4407 H   0  0  0  0  0  0  0  0  0  0  0  0
  1  2  1  0  0  0  0
  2  3  1  0  0  0  0
  2  4  1  0  0  0  0
  2  5  1  0  0  0  0
  5  6  2  0  0  0  0
  5  7  1  0  0  0  0
  7  8  1  0  0  0  0
  7  9  1  0  0  0  0
  9 10  1  0  0  0  0
  9 11  1  0  0  0  0
  9 16  1  0  0  0  0
 11 12  1  0  0  0  0
 11 13  1  0  0  0  0
 11 14  1  0  0  0  0
 14 15  1  0  0  0  0
 16 17  2  0  0  0  0
 16 18  1  0  0  0  0
 18 19  1  0  0  0  0
 18 20  1  0  0  0  0
 20 21  1  0  0  0  0
 20 22  1  0  0  0  0
 20 23  1  0  0  0  0
M  END
$$$$

  -OEChem-01062216073D

 23 22  0     1  0  0  0  0  0999 V2000
   -2.7815   -3.4584    1.2511 H   0  0  0  0  0  0  0  0  0  0  0  0
   -2.7488   -2.4449    0.8416 C   0  0  0  0  0  0  0  0  0  0  0  0
   -3.4055   -1.8040    1.4346 H   0  0  0  0  0  0  0  0  0  0  0  0
   -3.1072   -2.4712   -0.1898 H   0  0  0  0  0  0  0  0  0  0  0  0
   -1.3295   -1.9112    0.8835 C   0  0  0  0  0  0  0  0  0  0  0  0
   -0.4588   -2.5684    1.4277 O   0  0  0  0  0  0  0  0  0  0  0  0
   -1.0693   -0.6479    0.3887 N   0  0  0  0  0  0  0  0  0  0  0  0
   -1.8760   -0.0945    0.1164 H   0  0  0  0  0  0  0  0  0  0  0  0
    0.2623   -0.0141    0.3376 C   0  0  1  0  0  0  0  0  0  0  0  0
    0.8716   -0.3575    1.1813 H   0  0  0  0  0  0  0  0  0  0  0  0
    0.9913   -0.3667   -0.9811 C   0  0  0  0  0  0  0  0  0  0  0  0
    0.3692   -0.0695   -1.8311 H   0  0  0  0  0  0  0  0  0  0  0  0
    1.9292    0.1966   -1.0299 H   0  0  0  0  0  0  0  0  0  0  0  0
    1.3969   -2.1517   -1.1612 S   0  0  0  0  0  0  0  0  0  0  0  0
    2.0684   -2.1685   -2.3322 H   0  0  0  0  0  0  0  0  0  0  0  0
    0.1221    1.5222    0.4654 C   0  0  0  0  0  0  0  0  0  0  0  0
   -0.2620    2.0037    1.5214 O   0  0  0  0  0  0  0  0  0  0  0  0
    0.2724    2.3764   -0.6164 N   0  0  0  0  0  0  0  0  0  0  0  0
    0.5456    1.9720   -1.5060 H   0  0  0  0  0  0  0  0  0  0  0  0
    0.0671    3.8185   -0.5337 C   0  0  0  0  0  0  0  0  0  0  0  0
    0.7384    4.2595    0.2110 H   0  0  0  0  0  0  0  0  0  0  0  0
    0.2714    4.2867   -1.5015 H   0  0  0  0  0  0  0  0  0  0  0  0
   -0.9671    4.0435   -0.2523 H   0  0  0  0  0  0  0  0  0  0  0  0
  1  2  1  0  0  0  0
  2  3  1  0  0  0  0
  2  4  1  0  0  0  0
  2  5  1  0  0  0  0
  5  6  2  0  0  0  0
  5  7  1  0  0  0  0
  7  8  1  0  0  0  0
  7  9  1  0  0  0  0
  9 10  1  0  0  0  0
  9 11  1  0  0  0  0
  9 16  1  0  0  0  0
 11 12  1  0  0  0  0
 11 13  1  0  0  0  0
 11 14  1  0  0  0  0
 14 15  1  0  0  0  0
 16 17  2  0  0  0  0
 16 18  1  0  0  0  0
 18 19  1  0  0  0  0
 18 20  1  0  0  0  0
 20 21  1  0  0  0  0
 20 22  1  0  0  0  0
 20 23  1  0  0  0  0
M  END
$$$$

  -OEChem-01062216073D

 23 22  0     1  0  0  0  0  0999 V2000
   -2.7489   -3.4946    1.2523 H   0  0  0  0  0  0  0  0  0  0  0  0
   -2.7322   -2.4862    0.8293 C   0  0  0  0  0  0  0  0  0  0  0  0
   -3.4310   -1.8585    1.3874 H   0  0  0  0  0  0  0  0  0  0  0  0
   -3.0493   -2.5386   -0.2148 H   0  0  0  0  0  0  0  0  0  0  0  0
   -1.3328   -1.9071    0.9178 C   0  0  0  0  0  0  0  0  0  0  0  0
   -0.4612   -2.5316    1.4976 O   0  0  0  0  0  0  0  0  0  0  0  0
   -1.0917   -0.6434    0.4136 N   0  0  0  0  0  0  0  0  0  0  0  0
   -1.8939   -0.1426    0.0450 H   0  0  0  0  0  0  0  0  0  0  0  0
    0.2358   -0.0018    0.3431 C   0  0  1  0  0  0  0  0  0  0  0  0
    0.8570   -0.3412    1.1802 H   0  0  0  0  0  0  0  0  0  0  0  0
    0.9557   -0.3492   -0.9805 C   0  0  0  0  0  0  0  0  0  0  0  0
    0.3282   -0.0608   -1.8289 H   0  0  0  0  0  0  0  0  0  0  0  0
    1.8873    0.2241   -1.0361 H   0  0  0  0  0  0  0  0  0  0  0  0
    1.3703   -2.1328   -1.1536 S   0  0  0  0  0  0  0  0  0  0  0  0
    2.0808   -2.1410   -2.3017 H   0  0  0  0  0  0  0  0  0  0  0  0
    0.0999    1.5328    0.4654 C   0  0  0  0  0  0  0  0  0  0  0  0
    0.0577    2.0546    1.5694 O   0  0  0  0  0  0  0  0  0  0  0  0
   -0.0674    2.3425   -0.6470 N   0  0  0  0  0  0  0  0  0  0  0  0
   -0.0628    1.9006   -1.5603 H   0  0  0  0  0  0  0  0  0  0  0  0
   -0.2363    3.7892   -0.5650 C   0  0  0  0  0  0  0  0  0  0  0  0
    0.6273    4.2488   -0.0726 H   0  0  0  0  0  0  0  0  0  0  0  0
   -0.3298    4.2175   -1.5676 H   0  0  0  0  0  0  0  0  0  0  0  0
   -1.1388    4.0387    0.0030 H   0  0  0  0  0  0  0  0  0  0  0  0
  1  2  1  0  0  0  0
  2  3  1  0  0  0  0
  2  4  1  0  0  0  0
  2  5  1  0  0  0  0
  5  6  2  0  0  0  0
  5  7  1  0  0  0  0
  7  8  1  0  0  0  0
  7  9  1  0  0  0  0
  9 10  1  0  0  0  0
  9 11  1  0  0  0  0
  9 16  1  0  0  0  0
 11 12  1  0  0  0  0
 11 13  1  0  0  0  0
 11 14  1  0  0  0  0
 14 15  1  0  0  0  0
 16 17  2  0  0  0  0
 16 18  1  0  0  0  0
 18 19  1  0  0  0  0
 18 20  1  0  0  0  0
 20 21  1  0  0  0  0
 20 22  1  0  0  0  0
 20 23  1  0  0  0  0
M  END
$$$$

  -OEChem-01062216073D

 23 22  0     1  0  0  0  0  0999 V2000
   -2.7181   -3.5359    1.2472 H   0  0  0  0  0  0  0  0  0  0  0  0
   -2.7181   -2.5295    0.8189 C   0  0  0  0  0  0  0  0  0  0  0  0
   -3.4488   -1.9191    1.3545 H   0  0  0  0  0  0  0  0  0  0  0  0
   -3.0058   -2.5962   -0.2328 H   0  0  0  0  0  0  0  0  0  0  0  0
   -1.3378   -1.9126    0.9410 C   0  0  0  0  0  0  0  0  0  0  0  0
   -0.4651   -2.5125    1.5443 O   0  0  0  0  0  0  0  0  0  0  0  0
   -1.1136   -0.6467    0.4335 N   0  0  0  0  0  0  0  0  0  0  0  0
   -1.9111   -0.1802    0.0145 H   0  0  0  0  0  0  0  0  0  0  0  0
    0.2101    0.0039    0.3598 C   0  0  1  0  0  0  0  0  0  0  0  0
    0.8383   -0.3362    1.1917 H   0  0  0  0  0  0  0  0  0  0  0  0
    0.9258   -0.3216   -0.9697 C   0  0  0  0  0  0  0  0  0  0  0  0
    0.2974   -0.0242   -1.8142 H   0  0  0  0  0  0  0  0  0  0  0  0
    1.8539    0.2580   -1.0203 H   0  0  0  0  0  0  0  0  0  0  0  0
    1.3484   -2.1015   -1.1578 S   0  0  0  0  0  0  0  0  0  0  0  0
    2.0662   -2.0921   -2.3013 H   0  0  0  0  0  0  0  0  0  0  0  0
    0.0726    1.5363    0.4798 C   0  0  0  0  0  0  0  0  0  0  0  0
    0.3659    2.1036    1.5212 O   0  0  0  0  0  0  0  0  0  0  0  0
   -0.3999    2.2963   -0.5784 N   0  0  0  0  0  0  0  0  0  0  0  0
   -0.6318    1.8149   -1.4409 H   0  0  0  0  0  0  0  0  0  0  0  0
   -0.5345    3.7476   -0.5214 C   0  0  0  0  0  0  0  0  0  0  0  0
    0.4352    4.2147   -0.3188 H   0  0  0  0  0  0  0  0  0  0  0  0
   -0.9097    4.1316   -1.4750 H   0  0  0  0  0  0  0  0  0  0  0  0
   -1.2363    4.0370    0.2680 H   0  0  0  0  0  0  0  0  0  0  0  0
  1  2  1  0  0  0  0
  2  3  1  0  0  0  0
  2  4  1  0  0  0  0
  2  5  1  0  0  0  0
  5  6  2  0  0  0  0
  5  7  1  0  0  0  0
  7  8  1  0  0  0  0
  7  9  1  0  0  0  0
  9 10  1  0  0  0  0
  9 11  1  0  0  0  0
  9 16  1  0  0  0  0
 11 12  1  0  0  0  0
 11 13  1  0  0  0  0
 11 14  1  0  0  0  0
 14 15  1  0  0  0  0
 16 17  2  0  0  0  0
 16 18  1  0  0  0  0
 18 19  1  0  0  0  0
 18 20  1  0  0  0  0
 20 21  1  0  0  0  0
 20 22  1  0  0  0  0
 20 23  1  0  0  0  0
M  END
$$$$

  -OEChem-01062216073D

 23 22  0     1  0  0  0  0  0999 V2000
   -2.6936   -3.5762    1.2387 H   0  0  0  0  0  0  0  0  0  0  0  0
   -2.7062   -2.5703    0.8095 C   0  0  0  0  0  0  0  0  0  0  0  0
   -3.4603   -1.9752    1.3297 H   0  0  0  0  0  0  0  0  0  0  0  0
   -2.9711   -2.6438   -0.2477 H   0  0  0  0  0  0  0  0  0  0  0  0
   -1.3414   -1.9251    0.9584 C   0  0  0  0  0  0  0  0  0  0  0  0
   -0.4689   -2.5052    1.5808 O   0  0  0  0  0  0  0  0  0  0  0  0
   -1.1313   -0.6563    0.4514 N   0  0  0  0  0  0  0  0  0  0  0  0
   -1.9245   -0.2165   -0.0021 H   0  0  0  0  0  0  0  0  0  0  0  0
    0.1888    0.0046    0.3815 C   0  0  1  0  0  0  0  0  0  0  0  0
    0.8226   -0.3381    1.2082 H   0  0  0  0  0  0  0  0  0  0  0  0
    0.8983   -0.2966   -0.9551 C   0  0  0  0  0  0  0  0  0  0  0  0
    0.2664    0.0145   -1.7920 H   0  0  0  0  0  0  0  0  0  0  0  0
    1.8244    0.2873   -1.0002 H   0  0  0  0  0  0  0  0  0  0  0  0
    1.3270   -2.0730   -1.1654 S   0  0  0  0  0  0  0  0  0  0  0  0
    2.0434   -2.0461   -2.3097 H   0  0  0  0  0  0  0  0  0  0  0  0
    0.0511    1.5355    0.5015 C   0  0  0  0  0  0  0  0  0  0  0  0
    0.6307    2.1430    1.3889 O   0  0  0  0  0  0  0  0  0  0  0  0
   -0.6949    2.2516   -0.4209 N   0  0  0  0  0  0  0  0  0  0  0  0
   -1.1080    1.7404   -1.1935 H   0  0  0  0  0  0  0  0  0  0  0  0
   -0.8114    3.7054   -0.3938 C   0  0  0  0  0  0  0  0  0  0  0  0
    0.1741    4.1711   -0.5008 H   0  0  0  0  0  0  0  0  0  0  0  0
   -1.4477    4.0506   -1.2143 H   0  0  0  0  0  0  0  0  0  0  0  0
   -1.2564    4.0370    0.5505 H   0  0  0  0  0  0  0  0  0  0  0  0
  1  2  1  0  0  0  0
  2  3  1  0  0  0  0
  2  4  1  0  0  0  0
  2  5  1  0  0  0  0
  5  6  2  0  0  0  0
  5  7  1  0  0  0  0
  7  8  1  0  0  0  0
  7  9  1  0  0  0  0
  9 10  1  0  0  0  0
  9 11  1  0  0  0  0
  9 16  1  0  0  0  0
 11 12  1  0  0  0  0
 11 13  1  0  0  0  0
 11 14  1  0  0  0  0
 14 15  1  0  0  0  0
 16 17  2  0  0  0  0
 16 18  1  0  0  0  0
 18 19  1  0  0  0  0
 18 20  1  0  0  0  0
 20 21  1  0  0  0  0
 20 22  1  0  0  0  0
 20 23  1  0  0  0  0
M  END
$$$$

  -OEChem-01062216073D

 23 22  0     1  0  0  0  0  0999 V2000
   -2.6103   -3.6436    1.2157 H   0  0  0  0  0  0  0  0  0  0  0  0
   -2.6458   -2.6516    0.7563 C   0  0  0  0  0  0  0  0  0  0  0  0
   -3.4883   -2.0983    1.1779 H   0  0  0  0  0  0  0  0  0  0  0  0
   -2.7935   -2.7692   -0.3197 H   0  0  0  0  0  0  0  0  0  0  0  0
   -1.3508   -1.9084    1.0242 C   0  0  0  0  0  0  0  0  0  0  0  0
   -0.5095   -2.4093    1.7500 O   0  0  0  0  0  0  0  0  0  0  0  0
   -1.1738   -0.6420    0.4983 N   0  0  0  0  0  0  0  0  0  0  0  0
   -1.9037   -0.3390   -0.1351 H   0  0  0  0  0  0  0  0  0  0  0  0
    0.1485    0.0160    0.4079 C   0  0  1  0  0  0  0  0  0  0  0  0
    0.7975   -0.3272    1.2223 H   0  0  0  0  0  0  0  0  0  0  0  0
    0.8230   -0.2948   -0.9419 C   0  0  0  0  0  0  0  0  0  0  0  0
    0.1775    0.0247   -1.7656 H   0  0  0  0  0  0  0  0  0  0  0  0
    1.7546    0.2785   -1.0076 H   0  0  0  0  0  0  0  0  0  0  0  0
    1.2299   -2.0771   -1.1465 S   0  0  0  0  0  0  0  0  0  0  0  0
    1.9712   -2.0532   -2.2752 H   0  0  0  0  0  0  0  0  0  0  0  0
    0.0484    1.5512    0.5139 C   0  0  0  0  0  0  0  0  0  0  0  0
    0.9040    2.1801    1.1188 O   0  0  0  0  0  0  0  0  0  0  0  0
   -0.9160    2.2533   -0.1908 N   0  0  0  0  0  0  0  0  0  0  0  0
   -1.6031    1.7218   -0.7121 H   0  0  0  0  0  0  0  0  0  0  0  0
   -1.0127    3.7086   -0.1758 C   0  0  0  0  0  0  0  0  0  0  0  0
   -0.1052    4.1575   -0.5934 H   0  0  0  0  0  0  0  0  0  0  0  0
   -1.8679    4.0384   -0.7735 H   0  0  0  0  0  0  0  0  0  0  0  0
   -1.1465    4.0732    0.8483 H   0  0  0  0  0  0  0  0  0  0  0  0
  1  2  1  0  0  0  0
  2  3  1  0  0  0  0
  2  4  1  0  0  0  0
  2  5  1  0  0  0  0
  5  6  2  0  0  0  0
  5  7  1  0  0  0  0
  7  8  1  0  0  0  0
  7  9  1  0  0  0  0
  9 10  1  0  0  0  0
  9 11  1  0  0  0  0
  9 16  1  0  0  0  0
 11 12  1  0  0  0  0
 11 13  1  0  0  0  0
 11 14  1  0  0  0  0
 14 15  1  0  0  0  0
 16 17  2  0  0  0  0
 16 18  1  0  0  0  0
 18 19  1  0  0  0  0
 18 20  1  0  0  0  0
 20 21  1  0  0  0  0
 20 22  1  0  0  0  0
 20 23  1  0  0  0  0
M  END
$$$$

  -OEChem-01062216073D

 23 22  0     1  0  0  0  0  0999 V2000
   -2.5560   -3.6667    1.2167 H   0  0  0  0  0  0  0  0  0  0  0  0
   -2.5823   -2.7044    0.6975 C   0  0  0  0  0  0  0  0  0  0  0  0
   -3.4901   -2.1717    0.9898 H   0  0  0  0  0  0  0  0  0  0  0  0
   -2.6026   -2.8883   -0.3792 H   0  0  0  0  0  0  0  0  0  0  0  0
   -1.3584   -1.8849    1.0598 C   0  0  0  0  0  0  0  0  0  0  0  0
   -0.5581   -2.3220    1.8688 O   0  0  0  0  0  0  0  0  0  0  0  0
   -1.2016   -0.6215    0.5194 N   0  0  0  0  0  0  0  0  0  0  0  0
   -1.8632   -0.4171   -0.2209 H   0  0  0  0  0  0  0  0  0  0  0  0
    0.1257    0.0263    0.4190 C   0  0  1  0  0  0  0  0  0  0  0  0
    0.7808   -0.3154    1.2287 H   0  0  0  0  0  0  0  0  0  0  0  0
    0.7778   -0.3054   -0.9374 C   0  0  0  0  0  0  0  0  0  0  0  0
    0.1246    0.0165   -1.7545 H   0  0  0  0  0  0  0  0  0  0  0  0
    1.7164    0.2540   -1.0238 H   0  0  0  0  0  0  0  0  0  0  0  0
    1.1576   -2.0963   -1.1242 S   0  0  0  0  0  0  0  0  0  0  0  0
    1.8821   -2.0948   -2.2644 H   0  0  0  0  0  0  0  0  0  0  0  0
    0.0458    1.5640    0.5152 C   0  0  0  0  0  0  0  0  0  0  0  0
    1.0456    2.2070    0.8021 O   0  0  0  0  0  0  0  0  0  0  0  0
   -1.0761    2.2458    0.0746 N   0  0  0  0  0  0  0  0  0  0  0  0
   -1.9265    1.7032   -0.0239 H   0  0  0  0  0  0  0  0  0  0  0  0
   -1.1802    3.7002    0.1119 C   0  0  0  0  0  0  0  0  0  0  0  0
   -0.3898    4.1573   -0.4930 H   0  0  0  0  0  0  0  0  0  0  0  0
   -2.1470    4.0207   -0.2880 H   0  0  0  0  0  0  0  0  0  0  0  0
   -1.0912    4.0651    1.1407 H   0  0  0  0  0  0  0  0  0  0  0  0
  1  2  1  0  0  0  0
  2  3  1  0  0  0  0
  2  4  1  0  0  0  0
  2  5  1  0  0  0  0
  5  6  2  0  0  0  0
  5  7  1  0  0  0  0
  7  8  1  0  0  0  0
  7  9  1  0  0  0  0
  9 10  1  0  0  0  0
  9 11  1  0  0  0  0
  9 16  1  0  0  0  0
 11 12  1  0  0  0  0
 11 13  1  0  0  0  0
 11 14  1  0  0  0  0
 14 15  1  0  0  0  0
 16 17  2  0  0  0  0
 16 18  1  0  0  0  0
 18 19  1  0  0  0  0
 18 20  1  0  0  0  0
 20 21  1  0  0  0  0
 20 22  1  0  0  0  0
 20 23  1  0  0  0  0
M  END
$$$$

  -OEChem-01062216073D

 23 22  0     1  0  0  0  0  0999 V2000
   -2.5361   -3.6808    1.1848 H   0  0  0  0  0  0  0  0  0  0  0  0
   -2.5678   -2.7159    0.6710 C   0  0  0  0  0  0  0  0  0  0  0  0
   -3.4857   -2.1961    0.9548 H   0  0  0  0  0  0  0  0  0  0  0  0
   -2.5721   -2.8938   -0.4070 H   0  0  0  0  0  0  0  0  0  0  0  0
   -1.3582   -1.8842    1.0532 C   0  0  0  0  0  0  0  0  0  0  0  0
   -0.5690   -2.3101    1.8791 O   0  0  0  0  0  0  0  0  0  0  0  0
   -1.2015   -0.6198    0.5156 N   0  0  0  0  0  0  0  0  0  0  0  0
   -1.8527   -0.4184   -0.2361 H   0  0  0  0  0  0  0  0  0  0  0  0
    0.1271    0.0271    0.4188 C   0  0  1  0  0  0  0  0  0  0  0  0
    0.7821   -0.3146    1.2286 H   0  0  0  0  0  0  0  0  0  0  0  0
    0.7742   -0.3129   -0.9391 C   0  0  0  0  0  0  0  0  0  0  0  0
    0.1199    0.0093   -1.7550 H   0  0  0  0  0  0  0  0  0  0  0  0
    1.7157    0.2402   -1.0330 H   0  0  0  0  0  0  0  0  0  0  0  0
    1.1464   -2.1064   -1.1199 S   0  0  0  0  0  0  0  0  0  0  0  0
    1.8605   -2.1122   -2.2665 H   0  0  0  0  0  0  0  0  0  0  0  0
    0.0425    1.5659    0.5189 C   0  0  0  0  0  0  0  0  0  0  0  0
    1.0659    2.2348    0.5615 O   0  0  0  0  0  0  0  0  0  0  0  0
   -1.1704    2.2171    0.3734 N   0  0  0  0  0  0  0  0  0  0  0  0
   -1.9986    1.6475    0.5131 H   0  0  0  0  0  0  0  0  0  0  0  0
   -1.3020    3.6674    0.4571 C   0  0  0  0  0  0  0  0  0  0  0  0
   -0.6936    4.1530   -0.3134 H   0  0  0  0  0  0  0  0  0  0  0  0
   -2.3450    3.9620    0.3069 H   0  0  0  0  0  0  0  0  0  0  0  0
   -0.9774    4.0264    1.4396 H   0  0  0  0  0  0  0  0  0  0  0  0
  1  2  1  0  0  0  0
  2  3  1  0  0  0  0
  2  4  1  0  0  0  0
  2  5  1  0  0  0  0
  5  6  2  0  0  0  0
  5  7  1  0  0  0  0
  7  8  1  0  0  0  0
  7  9  1  0  0  0  0
  9 10  1  0  0  0  0
  9 11  1  0  0  0  0
  9 16  1  0  0  0  0
 11 12  1  0  0  0  0
 11 13  1  0  0  0  0
 11 14  1  0  0  0  0
 14 15  1  0  0  0  0
 16 17  2  0  0  0  0
 16 18  1  0  0  0  0
 18 19  1  0  0  0  0
 18 20  1  0  0  0  0
 20 21  1  0  0  0  0
 20 22  1  0  0  0  0
 20 23  1  0  0  0  0
M  END
$$$$

  -OEChem-01062216073D

 23 22  0     1  0  0  0  0  0999 V2000
   -2.5527   -3.6667    1.1813 H   0  0  0  0  0  0  0  0  0  0  0  0
   -2.5709   -2.7067    0.6573 C   0  0  0  0  0  0  0  0  0  0  0  0
   -3.4858   -2.1745    0.9281 H   0  0  0  0  0  0  0  0  0  0  0  0
   -2.5687   -2.8955   -0.4189 H   0  0  0  0  0  0  0  0  0  0  0  0
   -1.3561   -1.8827    1.0398 C   0  0  0  0  0  0  0  0  0  0  0  0
   -0.5728   -2.3096    1.8707 O   0  0  0  0  0  0  0  0  0  0  0  0
   -1.1926   -0.6174    0.5072 N   0  0  0  0  0  0  0  0  0  0  0  0
   -1.8488   -0.3991   -0.2361 H   0  0  0  0  0  0  0  0  0  0  0  0
    0.1372    0.0276    0.4124 C   0  0  1  0  0  0  0  0  0  0  0  0
    0.7918   -0.3142    1.2220 H   0  0  0  0  0  0  0  0  0  0  0  0
    0.7815   -0.3208   -0.9462 C   0  0  0  0  0  0  0  0  0  0  0  0
    0.1261    0.0016   -1.7613 H   0  0  0  0  0  0  0  0  0  0  0  0
    1.7256    0.2262   -1.0462 H   0  0  0  0  0  0  0  0  0  0  0  0
    1.1480   -2.1161   -1.1217 S   0  0  0  0  0  0  0  0  0  0  0  0
    1.8584   -2.1273   -2.2705 H   0  0  0  0  0  0  0  0  0  0  0  0
    0.0422    1.5668    0.5190 C   0  0  0  0  0  0  0  0  0  0  0  0
    1.0292    2.2676    0.3396 O   0  0  0  0  0  0  0  0  0  0  0  0
   -1.1864    2.1816    0.6848 N   0  0  0  0  0  0  0  0  0  0  0  0
   -1.9447    1.5781    0.9892 H   0  0  0  0  0  0  0  0  0  0  0  0
   -1.3380    3.6248    0.8304 C   0  0  0  0  0  0  0  0  0  0  0  0
   -0.9500    4.1426   -0.0532 H   0  0  0  0  0  0  0  0  0  0  0  0
   -2.3948    3.8850    0.9440 H   0  0  0  0  0  0  0  0  0  0  0  0
   -0.7957    3.9803    1.7129 H   0  0  0  0  0  0  0  0  0  0  0  0
  1  2  1  0  0  0  0
  2  3  1  0  0  0  0
  2  4  1  0  0  0  0
  2  5  1  0  0  0  0
  5  6  2  0  0  0  0
  5  7  1  0  0  0  0
  7  8  1  0  0  0  0
  7  9  1  0  0  0  0
  9 10  1  0  0  0  0
  9 11  1  0  0  0  0
  9 16  1  0  0  0  0
 11 12  1  0  0  0  0
 11 13  1  0  0  0  0
 11 14  1  0  0  0  0
 14 15  1  0  0  0  0
 16 17  2  0  0  0  0
 16 18  1  0  0  0  0
 18 19  1  0  0  0  0
 18 20  1  0  0  0  0
 20 21  1  0  0  0  0
 20 22  1  0  0  0  0
 20 23  1  0  0  0  0
M  END
$$$$

  -OEChem-01062216073D

 23 22  0     1  0  0  0  0  0999 V2000
   -2.5736   -3.6458    1.1755 H   0  0  0  0  0  0  0  0  0  0  0  0
   -2.5793   -2.6891    0.6455 C   0  0  0  0  0  0  0  0  0  0  0  0
   -3.4883   -2.1445    0.9113 H   0  0  0  0  0  0  0  0  0  0  0  0
   -2.5765   -2.8843   -0.4297 H   0  0  0  0  0  0  0  0  0  0  0  0
   -1.3553   -1.8778    1.0257 C   0  0  0  0  0  0  0  0  0  0  0  0
   -0.5719   -2.3133    1.8522 O   0  0  0  0  0  0  0  0  0  0  0  0
   -1.1828   -0.6107    0.5012 N   0  0  0  0  0  0  0  0  0  0  0  0
   -1.8509   -0.3669   -0.2239 H   0  0  0  0  0  0  0  0  0  0  0  0
    0.1485    0.0302    0.4054 C   0  0  1  0  0  0  0  0  0  0  0  0
    0.8012   -0.3118    1.2161 H   0  0  0  0  0  0  0  0  0  0  0  0
    0.7947   -0.3272   -0.9516 C   0  0  0  0  0  0  0  0  0  0  0  0
    0.1416   -0.0066   -1.7692 H   0  0  0  0  0  0  0  0  0  0  0  0
    1.7413    0.2150   -1.0540 H   0  0  0  0  0  0  0  0  0  0  0  0
    1.1574   -2.1241   -1.1181 S   0  0  0  0  0  0  0  0  0  0  0  0
    1.8522   -2.1428   -2.2764 H   0  0  0  0  0  0  0  0  0  0  0  0
    0.0418    1.5693    0.5228 C   0  0  0  0  0  0  0  0  0  0  0  0
    0.9377    2.3021    0.1242 O   0  0  0  0  0  0  0  0  0  0  0  0
   -1.1220    2.1457    0.9994 N   0  0  0  0  0  0  0  0  0  0  0  0
   -1.7845    1.5121    1.4386 H   0  0  0  0  0  0  0  0  0  0  0  0
   -1.2808    3.5819    1.1959 C   0  0  0  0  0  0  0  0  0  0  0  0
   -1.1428    4.1163    0.2499 H   0  0  0  0  0  0  0  0  0  0  0  0
   -2.2838    3.8041    1.5728 H   0  0  0  0  0  0  0  0  0  0  0  0
   -0.5477    3.9533    1.9198 H   0  0  0  0  0  0  0  0  0  0  0  0
  1  2  1  0  0  0  0
  2  3  1  0  0  0  0
  2  4  1  0  0  0  0
  2  5  1  0  0  0  0
  5  6  2  0  0  0  0
  5  7  1  0  0  0  0
  7  8  1  0  0  0  0
  7  9  1  0  0  0  0
  9 10  1  0  0  0  0
  9 11  1  0  0  0  0
  9 16  1  0  0  0  0
 11 12  1  0  0  0  0
 11 13  1  0  0  0  0
 11 14  1  0  0  0  0
 14 15  1  0  0  0  0
 16 17  2  0  0  0  0
 16 18  1  0  0  0  0
 18 19  1  0  0  0  0
 18 20  1  0  0  0  0
 20 21  1  0  0  0  0
 20 22  1  0  0  0  0
 20 23  1  0  0  0  0
M  END
$$$$

  -OEChem-01062216073D

 23 22  0     1  0  0  0  0  0999 V2000
   -2.5857   -3.6309    1.1498 H   0  0  0  0  0  0  0  0  0  0  0  0
   -2.5906   -2.6642    0.6382 C   0  0  0  0  0  0  0  0  0  0  0  0
   -3.4921   -2.1179    0.9253 H   0  0  0  0  0  0  0  0  0  0  0  0
   -2.6029   -2.8389   -0.4404 H   0  0  0  0  0  0  0  0  0  0  0  0
   -1.3562   -1.8686    1.0172 C   0  0  0  0  0  0  0  0  0  0  0  0
   -0.5766   -2.3126    1.8430 O   0  0  0  0  0  0  0  0  0  0  0  0
   -1.1727   -0.6007    0.4999 N   0  0  0  0  0  0  0  0  0  0  0  0
   -1.8489   -0.3358   -0.2105 H   0  0  0  0  0  0  0  0  0  0  0  0
    0.1613    0.0319    0.4036 C   0  0  1  0  0  0  0  0  0  0  0  0
    0.8120   -0.3136    1.2143 H   0  0  0  0  0  0  0  0  0  0  0  0
    0.8093   -0.3305   -0.9519 C   0  0  0  0  0  0  0  0  0  0  0  0
    0.1595   -0.0067   -1.7711 H   0  0  0  0  0  0  0  0  0  0  0  0
    1.7585    0.2073   -1.0517 H   0  0  0  0  0  0  0  0  0  0  0  0
    1.1648   -2.1289   -1.1181 S   0  0  0  0  0  0  0  0  0  0  0  0
    1.8463   -2.1505   -2.2840 H   0  0  0  0  0  0  0  0  0  0  0  0
    0.0466    1.5696    0.5314 C   0  0  0  0  0  0  0  0  0  0  0  0
    0.7975    2.3278   -0.0691 O   0  0  0  0  0  0  0  0  0  0  0  0
   -0.9737    2.1121    1.2909 N   0  0  0  0  0  0  0  0  0  0  0  0
   -1.5244    1.4561    1.8392 H   0  0  0  0  0  0  0  0  0  0  0  0
   -1.1351    3.5427    1.5203 C   0  0  0  0  0  0  0  0  0  0  0  0
   -1.2736    4.0700    0.5706 H   0  0  0  0  0  0  0  0  0  0  0  0
   -2.0115    3.7288    2.1484 H   0  0  0  0  0  0  0  0  0  0  0  0
   -0.2536    3.9517    2.0252 H   0  0  0  0  0  0  0  0  0  0  0  0
  1  2  1  0  0  0  0
  2  3  1  0  0  0  0
  2  4  1  0  0  0  0
  2  5  1  0  0  0  0
  5  6  2  0  0  0  0
  5  7  1  0  0  0  0
  7  8  1  0  0  0  0
  7  9  1  0  0  0  0
  9 10  1  0  0  0  0
  9 11  1  0  0  0  0
  9 16  1  0  0  0  0
 11 12  1  0  0  0  0
 11 13  1  0  0  0  0
 11 14  1  0  0  0  0
 14 15  1  0  0  0  0
 16 17  2  0  0  0  0
 16 18  1  0  0  0  0
 18 19  1  0  0  0  0
 18 20  1  0  0  0  0
 20 21  1  0  0  0  0
 20 22  1  0  0  0  0
 20 23  1  0  0  0  0
M  END
$$$$

  -OEChem-01062216073D

 23 22  0     1  0  0  0  0  0999 V2000
   -2.6170   -3.6019    1.1477 H   0  0  0  0  0  0  0  0  0  0  0  0
   -2.6153   -2.6297    0.6468 C   0  0  0  0  0  0  0  0  0  0  0  0
   -3.4973   -2.0685    0.9636 H   0  0  0  0  0  0  0  0  0  0  0  0
   -2.6605   -2.7922   -0.4327 H   0  0  0  0  0  0  0  0  0  0  0  0
   -1.3554   -1.8636    1.0020 C   0  0  0  0  0  0  0  0  0  0  0  0
   -0.5702   -2.3271    1.8119 O   0  0  0  0  0  0  0  0  0  0  0  0
   -1.1582   -0.5936    0.4954 N   0  0  0  0  0  0  0  0  0  0  0  0
   -1.8436   -0.3016   -0.1954 H   0  0  0  0  0  0  0  0  0  0  0  0
    0.1784    0.0304    0.4009 C   0  0  1  0  0  0  0  0  0  0  0  0
    0.8268   -0.3222    1.2102 H   0  0  0  0  0  0  0  0  0  0  0  0
    0.8309   -0.3280   -0.9533 C   0  0  0  0  0  0  0  0  0  0  0  0
    0.1843    0.0005   -1.7735 H   0  0  0  0  0  0  0  0  0  0  0  0
    1.7804    0.2107   -1.0463 H   0  0  0  0  0  0  0  0  0  0  0  0
    1.1812   -2.1268   -1.1270 S   0  0  0  0  0  0  0  0  0  0  0  0
    1.8653   -2.1467   -2.2916 H   0  0  0  0  0  0  0  0  0  0  0  0
    0.0592    1.5656    0.5426 C   0  0  0  0  0  0  0  0  0  0  0  0
    0.6109    2.3397   -0.2299 O   0  0  0  0  0  0  0  0  0  0  0  0
   -0.7469    2.0827    1.5391 N   0  0  0  0  0  0  0  0  0  0  0  0
   -1.1673    1.4127    2.1786 H   0  0  0  0  0  0  0  0  0  0  0  0
   -0.9189    3.5092    1.7844 C   0  0  0  0  0  0  0  0  0  0  0  0
   -1.3333    4.0031    0.8993 H   0  0  0  0  0  0  0  0  0  0  0  0
   -1.6051    3.6688    2.6215 H   0  0  0  0  0  0  0  0  0  0  0  0
    0.0414    3.9744    2.0306 H   0  0  0  0  0  0  0  0  0  0  0  0
  1  2  1  0  0  0  0
  2  3  1  0  0  0  0
  2  4  1  0  0  0  0
  2  5  1  0  0  0  0
  5  6  2  0  0  0  0
  5  7  1  0  0  0  0
  7  8  1  0  0  0  0
  7  9  1  0  0  0  0
  9 10  1  0  0  0  0
  9 11  1  0  0  0  0
  9 16  1  0  0  0  0
 11 12  1  0  0  0  0
 11 13  1  0  0  0  0
 11 14  1  0  0  0  0
 14 15  1  0  0  0  0
 16 17  2  0  0  0  0
 16 18  1  0  0  0  0
 18 19  1  0  0  0  0
 18 20  1  0  0  0  0
 20 21  1  0  0  0  0
 20 22  1  0  0  0  0
 20 23  1  0  0  0  0
M  END
$$$$

  -OEChem-01062216073D

 23 22  0     1  0  0  0  0  0999 V2000
   -2.6309   -3.5828    1.1362 H   0  0  0  0  0  0  0  0  0  0  0  0
   -2.6229   -2.6059    0.6443 C   0  0  0  0  0  0  0  0  0  0  0  0
   -3.4989   -2.0396    0.9693 H   0  0  0  0  0  0  0  0  0  0  0  0
   -2.6729   -2.7578   -0.4366 H   0  0  0  0  0  0  0  0  0  0  0  0
   -1.3558   -1.8535    1.0024 C   0  0  0  0  0  0  0  0  0  0  0  0
   -0.5729   -2.3283    1.8085 O   0  0  0  0  0  0  0  0  0  0  0  0
   -1.1472   -0.5834    0.5019 N   0  0  0  0  0  0  0  0  0  0  0  0
   -1.8336   -0.2756   -0.1811 H   0  0  0  0  0  0  0  0  0  0  0  0
    0.1933    0.0280    0.4095 C   0  0  1  0  0  0  0  0  0  0  0  0
    0.8414   -0.3348    1.2146 H   0  0  0  0  0  0  0  0  0  0  0  0
    0.8429   -0.3263   -0.9467 C   0  0  0  0  0  0  0  0  0  0  0  0
    0.1966    0.0094   -1.7641 H   0  0  0  0  0  0  0  0  0  0  0  0
    1.7937    0.2104   -1.0374 H   0  0  0  0  0  0  0  0  0  0  0  0
    1.1783   -2.1266   -1.1322 S   0  0  0  0  0  0  0  0  0  0  0  0
    1.8286   -2.1476   -2.3160 H   0  0  0  0  0  0  0  0  0  0  0  0
    0.0803    1.5611    0.5594 C   0  0  0  0  0  0  0  0  0  0  0  0
    0.3987    2.3320   -0.3381 O   0  0  0  0  0  0  0  0  0  0  0  0
   -0.4549    2.0759    1.7247 N   0  0  0  0  0  0  0  0  0  0  0  0
   -0.7368    1.4058    2.4363 H   0  0  0  0  0  0  0  0  0  0  0  0
   -0.6398    3.5004    1.9717 C   0  0  0  0  0  0  0  0  0  0  0  0
   -1.3127    3.9349    1.2250 H   0  0  0  0  0  0  0  0  0  0  0  0
   -1.0752    3.6588    2.9631 H   0  0  0  0  0  0  0  0  0  0  0  0
    0.3207    4.0247    1.9285 H   0  0  0  0  0  0  0  0  0  0  0  0
  1  2  1  0  0  0  0
  2  3  1  0  0  0  0
  2  4  1  0  0  0  0
  2  5  1  0  0  0  0
  5  6  2  0  0  0  0
  5  7  1  0  0  0  0
  7  8  1  0  0  0  0
  7  9  1  0  0  0  0
  9 10  1  0  0  0  0
  9 11  1  0  0  0  0
  9 16  1  0  0  0  0
 11 12  1  0  0  0  0
 11 13  1  0  0  0  0
 11 14  1  0  0  0  0
 14 15  1  0  0  0  0
 16 17  2  0  0  0  0
 16 18  1  0  0  0  0
 18 19  1  0  0  0  0
 18 20  1  0  0  0  0
 20 21  1  0  0  0  0
 20 22  1  0  0  0  0
 20 23  1  0  0  0  0
M  END
$$$$

  -OEChem-01062216073D

 23 22  0     1  0  0  0  0  0999 V2000
   -2.6434   -3.5780    1.1200 H   0  0  0  0  0  0  0  0  0  0  0  0
   -2.6391   -2.5899    0.6511 C   0  0  0  0  0  0  0  0  0  0  0  0
   -3.5020   -2.0247    1.0110 H   0  0  0  0  0  0  0  0  0  0  0  0
   -2.7172   -2.7159   -0.4315 H   0  0  0  0  0  0  0  0  0  0  0  0
   -1.3571   -1.8558    0.9957 C   0  0  0  0  0  0  0  0  0  0  0  0
   -0.5671   -2.3477    1.7849 O   0  0  0  0  0  0  0  0  0  0  0  0
   -1.1390   -0.5851    0.5007 N   0  0  0  0  0  0  0  0  0  0  0  0
   -1.8295   -0.2580   -0.1692 H   0  0  0  0  0  0  0  0  0  0  0  0
    0.2018    0.0243    0.4165 C   0  0  1  0  0  0  0  0  0  0  0  0
    0.8470   -0.3451    1.2208 H   0  0  0  0  0  0  0  0  0  0  0  0
    0.8570   -0.3214   -0.9388 C   0  0  0  0  0  0  0  0  0  0  0  0
    0.2114    0.0154   -1.7565 H   0  0  0  0  0  0  0  0  0  0  0  0
    1.8055    0.2197   -1.0246 H   0  0  0  0  0  0  0  0  0  0  0  0
    1.1923   -2.1206   -1.1347 S   0  0  0  0  0  0  0  0  0  0  0  0
    1.8220   -2.1384   -2.3296 H   0  0  0  0  0  0  0  0  0  0  0  0
    0.0942    1.5563    0.5694 C   0  0  0  0  0  0  0  0  0  0  0  0
    0.1622    2.3095   -0.3948 O   0  0  0  0  0  0  0  0  0  0  0  0
   -0.1416    2.0891    1.8223 N   0  0  0  0  0  0  0  0  0  0  0  0
   -0.2625    1.4314    2.5888 H   0  0  0  0  0  0  0  0  0  0  0  0
   -0.3154    3.5145    2.0732 C   0  0  0  0  0  0  0  0  0  0  0  0
   -1.1854    3.8962    1.5288 H   0  0  0  0  0  0  0  0  0  0  0  0
   -0.4687    3.6950    3.1415 H   0  0  0  0  0  0  0  0  0  0  0  0
    0.5721    4.0708    1.7537 H   0  0  0  0  0  0  0  0  0  0  0  0
  1  2  1  0  0  0  0
  2  3  1  0  0  0  0
  2  4  1  0  0  0  0
  2  5  1  0  0  0  0
  5  6  2  0  0  0  0
  5  7  1  0  0  0  0
  7  8  1  0  0  0  0
  7  9  1  0  0  0  0
  9 10  1  0  0  0  0
  9 11  1  0  0  0  0
  9 16  1  0  0  0  0
 11 12  1  0  0  0  0
 11 13  1  0  0  0  0
 11 14  1  0  0  0  0
 14 15  1  0  0  0  0
 16 17  2  0  0  0  0
 16 18  1  0  0  0  0
 18 19  1  0  0  0  0
 18 20  1  0  0  0  0
 20 21  1  0  0  0  0
 20 22  1  0  0  0  0
 20 23  1  0  0  0  0
M  END
$$$$

  -OEChem-01062216073D

 23 22  0     1  0  0  0  0  0999 V2000
   -2.6831   -3.5459    1.1563 H   0  0  0  0  0  0  0  0  0  0  0  0
   -2.6508   -2.5735    0.6569 C   0  0  0  0  0  0  0  0  0  0  0  0
   -3.5062   -1.9791    0.9861 H   0  0  0  0  0  0  0  0  0  0  0  0
   -2.7163   -2.7310   -0.4223 H   0  0  0  0  0  0  0  0  0  0  0  0
   -1.3583   -1.8561    0.9959 C   0  0  0  0  0  0  0  0  0  0  0  0
   -0.5646   -2.3640    1.7714 O   0  0  0  0  0  0  0  0  0  0  0  0
   -1.1303   -0.5868    0.5029 N   0  0  0  0  0  0  0  0  0  0  0  0
   -1.8263   -0.2404   -0.1520 H   0  0  0  0  0  0  0  0  0  0  0  0
    0.2106    0.0191    0.4220 C   0  0  1  0  0  0  0  0  0  0  0  0
    0.8546   -0.3587    1.2233 H   0  0  0  0  0  0  0  0  0  0  0  0
    0.8664   -0.3150   -0.9345 C   0  0  0  0  0  0  0  0  0  0  0  0
    0.2195    0.0266   -1.7496 H   0  0  0  0  0  0  0  0  0  0  0  0
    1.8136    0.2284   -1.0166 H   0  0  0  0  0  0  0  0  0  0  0  0
    1.1988   -2.1132   -1.1438 S   0  0  0  0  0  0  0  0  0  0  0  0
    1.8141   -2.1257   -2.3461 H   0  0  0  0  0  0  0  0  0  0  0  0
    0.1106    1.5502    0.5741 C   0  0  0  0  0  0  0  0  0  0  0  0
   -0.0916    2.2735   -0.3943 O   0  0  0  0  0  0  0  0  0  0  0  0
    0.1888    2.1136    1.8335 N   0  0  0  0  0  0  0  0  0  0  0  0
    0.2577    1.4752    2.6222 H   0  0  0  0  0  0  0  0  0  0  0  0
    0.0233    3.5392    2.0886 C   0  0  0  0  0  0  0  0  0  0  0  0
   -0.9852    3.8636    1.8116 H   0  0  0  0  0  0  0  0  0  0  0  0
    0.1772    3.7533    3.1506 H   0  0  0  0  0  0  0  0  0  0  0  0
    0.7512    4.1195    1.5119 H   0  0  0  0  0  0  0  0  0  0  0  0
  1  2  1  0  0  0  0
  2  3  1  0  0  0  0
  2  4  1  0  0  0  0
  2  5  1  0  0  0  0
  5  6  2  0  0  0  0
  5  7  1  0  0  0  0
  7  8  1  0  0  0  0
  7  9  1  0  0  0  0
  9 10  1  0  0  0  0
  9 11  1  0  0  0  0
  9 16  1  0  0  0  0
 11 12  1  0  0  0  0
 11 13  1  0  0  0  0
 11 14  1  0  0  0  0
 14 15  1  0  0  0  0
 16 17  2  0  0  0  0
 16 18  1  0  0  0  0
 18 19  1  0  0  0  0
 18 20  1  0  0  0  0
 20 21  1  0  0  0  0
 20 22  1  0  0  0  0
 20 23  1  0  0  0  0
M  END
$$$$

  -OEChem-01062216073D

 23 22  0     1  0  0  0  0  0999 V2000
   -2.6960   -3.5436    1.1469 H   0  0  0  0  0  0  0  0  0  0  0  0
   -2.6728   -2.5541    0.6820 C   0  0  0  0  0  0  0  0  0  0  0  0
   -3.5034   -1.9612    1.0720 H   0  0  0  0  0  0  0  0  0  0  0  0
   -2.7904   -2.6710   -0.3979 H   0  0  0  0  0  0  0  0  0  0  0  0
   -1.3561   -1.8659    0.9866 C   0  0  0  0  0  0  0  0  0  0  0  0
   -0.5498   -2.3975    1.7331 O   0  0  0  0  0  0  0  0  0  0  0  0
   -1.1166   -0.5985    0.4947 N   0  0  0  0  0  0  0  0  0  0  0  0
   -1.8246   -0.2208   -0.1298 H   0  0  0  0  0  0  0  0  0  0  0  0
    0.2228    0.0103    0.4242 C   0  0  1  0  0  0  0  0  0  0  0  0
    0.8603   -0.3712    1.2285 H   0  0  0  0  0  0  0  0  0  0  0  0
    0.8876   -0.3082   -0.9306 C   0  0  0  0  0  0  0  0  0  0  0  0
    0.2429    0.0380   -1.7455 H   0  0  0  0  0  0  0  0  0  0  0  0
    1.8332    0.2394   -1.0032 H   0  0  0  0  0  0  0  0  0  0  0  0
    1.2270   -2.1029   -1.1557 S   0  0  0  0  0  0  0  0  0  0  0  0
    1.8214   -2.1062   -2.3685 H   0  0  0  0  0  0  0  0  0  0  0  0
    0.1223    1.5408    0.5708 C   0  0  0  0  0  0  0  0  0  0  0  0
   -0.3241    2.2265   -0.3415 O   0  0  0  0  0  0  0  0  0  0  0  0
    0.4928    2.1461    1.7566 N   0  0  0  0  0  0  0  0  0  0  0  0
    0.7584    1.5360    2.5255 H   0  0  0  0  0  0  0  0  0  0  0  0
    0.3472    3.5748    2.0070 C   0  0  0  0  0  0  0  0  0  0  0  0
   -0.7074    3.8664    1.9625 H   0  0  0  0  0  0  0  0  0  0  0  0
    0.7347    3.8254    2.9991 H   0  0  0  0  0  0  0  0  0  0  0  0
    0.9049    4.1538    1.2633 H   0  0  0  0  0  0  0  0  0  0  0  0
  1  2  1  0  0  0  0
  2  3  1  0  0  0  0
  2  4  1  0  0  0  0
  2  5  1  0  0  0  0
  5  6  2  0  0  0  0
  5  7  1  0  0  0  0
  7  8  1  0  0  0  0
  7  9  1  0  0  0  0
  9 10  1  0  0  0  0
  9 11  1  0  0  0  0
  9 16  1  0  0  0  0
 11 12  1  0  0  0  0
 11 13  1  0  0  0  0
 11 14  1  0  0  0  0
 14 15  1  0  0  0  0
 16 17  2  0  0  0  0
 16 18  1  0  0  0  0
 18 19  1  0  0  0  0
 18 20  1  0  0  0  0
 20 21  1  0  0  0  0
 20 22  1  0  0  0  0
 20 23  1  0  0  0  0
M  END
$$$$

  -OEChem-01062216073D

 23 22  0     1  0  0  0  0  0999 V2000
   -2.7156   -3.5346    1.1579 H   0  0  0  0  0  0  0  0  0  0  0  0
   -2.6901   -2.5401    0.7038 C   0  0  0  0  0  0  0  0  0  0  0  0
   -3.5007   -1.9390    1.1224 H   0  0  0  0  0  0  0  0  0  0  0  0
   -2.8383   -2.6422   -0.3738 H   0  0  0  0  0  0  0  0  0  0  0  0
   -1.3553   -1.8753    0.9808 C   0  0  0  0  0  0  0  0  0  0  0  0
   -0.5402   -2.4257    1.7038 O   0  0  0  0  0  0  0  0  0  0  0  0
   -1.1062   -0.6103    0.4886 N   0  0  0  0  0  0  0  0  0  0  0  0
   -1.8267   -0.2021   -0.1021 H   0  0  0  0  0  0  0  0  0  0  0  0
    0.2313    0.0020    0.4261 C   0  0  1  0  0  0  0  0  0  0  0  0
    0.8649   -0.3810    1.2328 H   0  0  0  0  0  0  0  0  0  0  0  0
    0.8997   -0.3005   -0.9291 C   0  0  0  0  0  0  0  0  0  0  0  0
    0.2554    0.0536   -1.7411 H   0  0  0  0  0  0  0  0  0  0  0  0
    1.8447    0.2487   -0.9943 H   0  0  0  0  0  0  0  0  0  0  0  0
    1.2445   -2.0918   -1.1718 S   0  0  0  0  0  0  0  0  0  0  0  0
    1.8422   -2.0819   -2.3829 H   0  0  0  0  0  0  0  0  0  0  0  0
    0.1277    1.5317    0.5663 C   0  0  0  0  0  0  0  0  0  0  0  0
   -0.5341    2.1786   -0.2373 O   0  0  0  0  0  0  0  0  0  0  0  0
    0.7621    2.1828    1.6075 N   0  0  0  0  0  0  0  0  0  0  0  0
    1.2242    1.6061    2.3057 H   0  0  0  0  0  0  0  0  0  0  0  0
    0.6456    3.6170    1.8419 C   0  0  0  0  0  0  0  0  0  0  0  0
   -0.3962    3.8899    2.0397 H   0  0  0  0  0  0  0  0  0  0  0  0
    1.2504    3.9091    2.7058 H   0  0  0  0  0  0  0  0  0  0  0  0
    0.9973    4.1781    0.9698 H   0  0  0  0  0  0  0  0  0  0  0  0
  1  2  1  0  0  0  0
  2  3  1  0  0  0  0
  2  4  1  0  0  0  0
  2  5  1  0  0  0  0
  5  6  2  0  0  0  0
  5  7  1  0  0  0  0
  7  8  1  0  0  0  0
  7  9  1  0  0  0  0
  9 10  1  0  0  0  0
  9 11  1  0  0  0  0
  9 16  1  0  0  0  0
 11 12  1  0  0  0  0
 11 13  1  0  0  0  0
 11 14  1  0  0  0  0
 14 15  1  0  0  0  0
 16 17  2  0  0  0  0
 16 18  1  0  0  0  0
 18 19  1  0  0  0  0
 18 20  1  0  0  0  0
 20 21  1  0  0  0  0
 20 22  1  0  0  0  0
 20 23  1  0  0  0  0
M  END
$$$$

  -OEChem-01062216073D

 23 22  0     1  0  0  0  0  0999 V2000
   -2.7057   -3.5595    1.1030 H   0  0  0  0  0  0  0  0  0  0  0  0
   -2.7041   -2.5329    0.7262 C   0  0  0  0  0  0  0  0  0  0  0  0
   -3.4852   -1.9667    1.2388 H   0  0  0  0  0  0  0  0  0  0  0  0
   -2.9187   -2.5523   -0.3448 H   0  0  0  0  0  0  0  0  0  0  0  0
   -1.3522   -1.8901    0.9714 C   0  0  0  0  0  0  0  0  0  0  0  0
   -0.5252   -2.4599    1.6652 O   0  0  0  0  0  0  0  0  0  0  0  0
   -1.0978   -0.6261    0.4794 N   0  0  0  0  0  0  0  0  0  0  0  0
   -1.8364   -0.1831   -0.0624 H   0  0  0  0  0  0  0  0  0  0  0  0
    0.2345   -0.0016    0.4289 C   0  0  1  0  0  0  0  0  0  0  0  0
    0.8615   -0.3799    1.2429 H   0  0  0  0  0  0  0  0  0  0  0  0
    0.9141   -0.2935   -0.9224 C   0  0  0  0  0  0  0  0  0  0  0  0
    0.2695    0.0580   -1.7354 H   0  0  0  0  0  0  0  0  0  0  0  0
    1.8547    0.2639   -0.9813 H   0  0  0  0  0  0  0  0  0  0  0  0
    1.2770   -2.0803   -1.1712 S   0  0  0  0  0  0  0  0  0  0  0  0
    1.8437   -2.0666   -2.3969 H   0  0  0  0  0  0  0  0  0  0  0  0
    0.1235    1.5285    0.5608 C   0  0  0  0  0  0  0  0  0  0  0  0
   -0.7096    2.1409   -0.0980 O   0  0  0  0  0  0  0  0  0  0  0  0
    0.9743    2.2238    1.3997 N   0  0  0  0  0  0  0  0  0  0  0  0
    1.6058    1.6802    1.9819 H   0  0  0  0  0  0  0  0  0  0  0  0
    0.8997    3.6666    1.5958 C   0  0  0  0  0  0  0  0  0  0  0  0
   -0.0866    3.9518    1.9769 H   0  0  0  0  0  0  0  0  0  0  0  0
    1.6557    3.9898    2.3179 H   0  0  0  0  0  0  0  0  0  0  0  0
    1.0780    4.1915    0.6513 H   0  0  0  0  0  0  0  0  0  0  0  0
  1  2  1  0  0  0  0
  2  3  1  0  0  0  0
  2  4  1  0  0  0  0
  2  5  1  0  0  0  0
  5  6  2  0  0  0  0
  5  7  1  0  0  0  0
  7  8  1  0  0  0  0
  7  9  1  0  0  0  0
  9 10  1  0  0  0  0
  9 11  1  0  0  0  0
  9 16  1  0  0  0  0
 11 12  1  0  0  0  0
 11 13  1  0  0  0  0
 11 14  1  0  0  0  0
 14 15  1  0  0  0  0
 16 17  2  0  0  0  0
 16 18  1  0  0  0  0
 18 19  1  0  0  0  0
 18 20  1  0  0  0  0
 20 21  1  0  0  0  0
 20 22  1  0  0  0  0
 20 23  1  0  0  0  0
M  END
$$$$

  -OEChem-01062216073D

 23 22  0     1  0  0  0  0  0999 V2000
   -2.7424   -3.5258    1.1758 H   0  0  0  0  0  0  0  0  0  0  0  0
   -2.7159   -2.5195    0.7486 C   0  0  0  0  0  0  0  0  0  0  0  0
   -3.4779   -1.9076    1.2369 H   0  0  0  0  0  0  0  0  0  0  0  0
   -2.9381   -2.5852   -0.3190 H   0  0  0  0  0  0  0  0  0  0  0  0
   -1.3459   -1.9020    0.9534 C   0  0  0  0  0  0  0  0  0  0  0  0
   -0.5061   -2.4921    1.6139 O   0  0  0  0  0  0  0  0  0  0  0  0
   -1.0879   -0.6387    0.4625 N   0  0  0  0  0  0  0  0  0  0  0  0
   -1.8478   -0.1571   -0.0137 H   0  0  0  0  0  0  0  0  0  0  0  0
    0.2395   -0.0031    0.4221 C   0  0  1  0  0  0  0  0  0  0  0  0
    0.8623   -0.3751    1.2423 H   0  0  0  0  0  0  0  0  0  0  0  0
    0.9262   -0.2891   -0.9271 C   0  0  0  0  0  0  0  0  0  0  0  0
    0.2796    0.0581   -1.7401 H   0  0  0  0  0  0  0  0  0  0  0  0
    1.8626    0.2753   -0.9845 H   0  0  0  0  0  0  0  0  0  0  0  0
    1.3047   -2.0717   -1.1804 S   0  0  0  0  0  0  0  0  0  0  0  0
    1.8719   -2.0518   -2.4056 H   0  0  0  0  0  0  0  0  0  0  0  0
    0.1214    1.5277    0.5483 C   0  0  0  0  0  0  0  0  0  0  0  0
   -0.8474    2.1113    0.0745 O   0  0  0  0  0  0  0  0  0  0  0  0
    1.1358    2.2602    1.1366 N   0  0  0  0  0  0  0  0  0  0  0  0
    1.8962    1.7436    1.5702 H   0  0  0  0  0  0  0  0  0  0  0  0
    1.0778    3.7067    1.3091 C   0  0  0  0  0  0  0  0  0  0  0  0
    0.2222    3.9840    1.9339 H   0  0  0  0  0  0  0  0  0  0  0  0
    1.9907    4.0671    1.7929 H   0  0  0  0  0  0  0  0  0  0  0  0
    0.9823    4.2054    0.3387 H   0  0  0  0  0  0  0  0  0  0  0  0
  1  2  1  0  0  0  0
  2  3  1  0  0  0  0
  2  4  1  0  0  0  0
  2  5  1  0  0  0  0
  5  6  2  0  0  0  0
  5  7  1  0  0  0  0
  7  8  1  0  0  0  0
  7  9  1  0  0  0  0
  9 10  1  0  0  0  0
  9 11  1  0  0  0  0
  9 16  1  0  0  0  0
 11 12  1  0  0  0  0
 11 13  1  0  0  0  0
 11 14  1  0  0  0  0
 14 15  1  0  0  0  0
 16 17  2  0  0  0  0
 16 18  1  0  0  0  0
 18 19  1  0  0  0  0
 18 20  1  0  0  0  0
 20 21  1  0  0  0  0
 20 22  1  0  0  0  0
 20 23  1  0  0  0  0
M  END
$$$$

  -OEChem-01062216073D

 23 22  0     1  0  0  0  0  0999 V2000
   -2.7511   -3.5186    1.1837 H   0  0  0  0  0  0  0  0  0  0  0  0
   -2.7255   -2.5065    0.7703 C   0  0  0  0  0  0  0  0  0  0  0  0
   -3.4583   -1.8908    1.2972 H   0  0  0  0  0  0  0  0  0  0  0  0
   -2.9899   -2.5531   -0.2887 H   0  0  0  0  0  0  0  0  0  0  0  0
   -1.3389   -1.9131    0.9303 C   0  0  0  0  0  0  0  0  0  0  0  0
   -0.4877   -2.5225    1.5577 O   0  0  0  0  0  0  0  0  0  0  0  0
   -1.0781   -0.6495    0.4414 N   0  0  0  0  0  0  0  0  0  0  0  0
   -1.8572   -0.1285    0.0435 H   0  0  0  0  0  0  0  0  0  0  0  0
    0.2457   -0.0051    0.4152 C   0  0  1  0  0  0  0  0  0  0  0  0
    0.8632   -0.3716    1.2418 H   0  0  0  0  0  0  0  0  0  0  0  0
    0.9411   -0.2914   -0.9316 C   0  0  0  0  0  0  0  0  0  0  0  0
    0.2961    0.0520   -1.7474 H   0  0  0  0  0  0  0  0  0  0  0  0
    1.8762    0.2750   -0.9882 H   0  0  0  0  0  0  0  0  0  0  0  0
    1.3308   -2.0717   -1.1855 S   0  0  0  0  0  0  0  0  0  0  0  0
    1.8866   -2.0524   -2.4160 H   0  0  0  0  0  0  0  0  0  0  0  0
    0.1187    1.5273    0.5373 C   0  0  0  0  0  0  0  0  0  0  0  0
   -0.9431    2.0832    0.2774 O   0  0  0  0  0  0  0  0  0  0  0  0
    1.2255    2.2978    0.8446 N   0  0  0  0  0  0  0  0  0  0  0  0
    2.0765    1.8103    1.1115 H   0  0  0  0  0  0  0  0  0  0  0  0
    1.1739    3.7488    0.9791 C   0  0  0  0  0  0  0  0  0  0  0  0
    0.4782    4.0356    1.7749 H   0  0  0  0  0  0  0  0  0  0  0  0
    2.1646    4.1415    1.2277 H   0  0  0  0  0  0  0  0  0  0  0  0
    0.8461    4.2098    0.0413 H   0  0  0  0  0  0  0  0  0  0  0  0
  1  2  1  0  0  0  0
  2  3  1  0  0  0  0
  2  4  1  0  0  0  0
  2  5  1  0  0  0  0
  5  6  2  0  0  0  0
  5  7  1  0  0  0  0
  7  8  1  0  0  0  0
  7  9  1  0  0  0  0
  9 10  1  0  0  0  0
  9 11  1  0  0  0  0
  9 16  1  0  0  0  0
 11 12  1  0  0  0  0
 11 13  1  0  0  0  0
 11 14  1  0  0  0  0
 14 15  1  0  0  0  0
 16 17  2  0  0  0  0
 16 18  1  0  0  0  0
 18 19  1  0  0  0  0
 18 20  1  0  0  0  0
 20 21  1  0  0  0  0
 20 22  1  0  0  0  0
 20 23  1  0  0  0  0
M  END
$$$$

  -OEChem-01062216073D

 23 22  0     1  0  0  0  0  0999 V2000
   -2.7602   -3.4796    1.2221 H   0  0  0  0  0  0  0  0  0  0  0  0
   -2.7374   -2.4587    0.8309 C   0  0  0  0  0  0  0  0  0  0  0  0
   -3.3548   -1.8221    1.4692 H   0  0  0  0  0  0  0  0  0  0  0  0
   -3.1498   -2.4603   -0.1808 H   0  0  0  0  0  0  0  0  0  0  0  0
   -1.3120   -1.9407    0.8060 C   0  0  0  0  0  0  0  0  0  0  0  0
   -0.4105   -2.6309    1.2543 O   0  0  0  0  0  0  0  0  0  0  0  0
   -1.0633   -0.6668    0.3367 N   0  0  0  0  0  0  0  0  0  0  0  0
   -1.8733   -0.0664    0.1951 H   0  0  0  0  0  0  0  0  0  0  0  0
    0.2561   -0.0115    0.3571 C   0  0  1  0  0  0  0  0  0  0  0  0
    0.9464   -0.5467    1.0175 H   0  0  0  0  0  0  0  0  0  0  0  0
    0.8185    0.0025   -1.0774 C   0  0  0  0  0  0  0  0  0  0  0  0
    0.1037    0.5004   -1.7412 H   0  0  0  0  0  0  0  0  0  0  0  0
    1.7524    0.5718   -1.1066 H   0  0  0  0  0  0  0  0  0  0  0  0
    1.1552   -1.6925   -1.7093 S   0  0  0  0  0  0  0  0  0  0  0  0
    1.5752   -1.4314   -2.9656 H   0  0  0  0  0  0  0  0  0  0  0  0
    0.1510    1.4455    0.8597 C   0  0  0  0  0  0  0  0  0  0  0  0
   -0.9470    1.9513    1.0661 O   0  0  0  0  0  0  0  0  0  0  0  0
    1.2796    2.2402    0.9583 N   0  0  0  0  0  0  0  0  0  0  0  0
    2.1818    1.7876    0.8419 H   0  0  0  0  0  0  0  0  0  0  0  0
    1.2418    3.6292    1.4014 C   0  0  0  0  0  0  0  0  0  0  0  0
    0.8054    3.7012    2.4032 H   0  0  0  0  0  0  0  0  0  0  0  0
    2.2540    4.0437    1.4352 H   0  0  0  0  0  0  0  0  0  0  0  0
    0.6438    4.2347    0.7122 H   0  0  0  0  0  0  0  0  0  0  0  0
  1  2  1  0  0  0  0
  2  3  1  0  0  0  0
  2  4  1  0  0  0  0
  2  5  1  0  0  0  0
  5  6  2  0  0  0  0
  5  7  1  0  0  0  0
  7  8  1  0  0  0  0
  7  9  1  0  0  0  0
  9 10  1  0  0  0  0
  9 11  1  0  0  0  0
  9 16  1  0  0  0  0
 11 12  1  0  0  0  0
 11 13  1  0  0  0  0
 11 14  1  0  0  0  0
 14 15  1  0  0  0  0
 16 17  2  0  0  0  0
 16 18  1  0  0  0  0
 18 19  1  0  0  0  0
 18 20  1  0  0  0  0
 20 21  1  0  0  0  0
 20 22  1  0  0  0  0
 20 23  1  0  0  0  0
M  END
$$$$

  -OEChem-01062216073D

 23 22  0     1  0  0  0  0  0999 V2000
   -2.7613   -3.4603    1.2412 H   0  0  0  0  0  0  0  0  0  0  0  0
   -2.7370   -2.4413    0.8452 C   0  0  0  0  0  0  0  0  0  0  0  0
   -3.3320   -1.7957    1.4954 H   0  0  0  0  0  0  0  0  0  0  0  0
   -3.1738   -2.4423   -0.1562 H   0  0  0  0  0  0  0  0  0  0  0  0
   -1.3071   -1.9389    0.7846 C   0  0  0  0  0  0  0  0  0  0  0  0
   -0.4023   -2.6425    1.2042 O   0  0  0  0  0  0  0  0  0  0  0  0
   -1.0590   -0.6640    0.3170 N   0  0  0  0  0  0  0  0  0  0  0  0
   -1.8680   -0.0513    0.2377 H   0  0  0  0  0  0  0  0  0  0  0  0
    0.2635   -0.0137    0.3435 C   0  0  1  0  0  0  0  0  0  0  0  0
    0.9502   -0.5473    1.0089 H   0  0  0  0  0  0  0  0  0  0  0  0
    0.8280   -0.0176   -1.0924 C   0  0  0  0  0  0  0  0  0  0  0  0
    0.1171    0.4793   -1.7608 H   0  0  0  0  0  0  0  0  0  0  0  0
    1.7677    0.5407   -1.1288 H   0  0  0  0  0  0  0  0  0  0  0  0
    1.1576   -1.7186   -1.7118 S   0  0  0  0  0  0  0  0  0  0  0  0
    1.5751   -1.4713   -2.9717 H   0  0  0  0  0  0  0  0  0  0  0  0
    0.1525    1.4446    0.8510 C   0  0  0  0  0  0  0  0  0  0  0  0
   -0.9144    1.8641    1.2864 O   0  0  0  0  0  0  0  0  0  0  0  0
    1.1900    2.3461    0.6811 N   0  0  0  0  0  0  0  0  0  0  0  0
    2.0859    1.9766    0.3770 H   0  0  0  0  0  0  0  0  0  0  0  0
    1.1142    3.7405    1.1024 C   0  0  0  0  0  0  0  0  0  0  0  0
    0.9209    3.8063    2.1783 H   0  0  0  0  0  0  0  0  0  0  0  0
    2.0572    4.2528    0.8887 H   0  0  0  0  0  0  0  0  0  0  0  0
    0.3116    4.2597    0.5679 H   0  0  0  0  0  0  0  0  0  0  0  0
  1  2  1  0  0  0  0
  2  3  1  0  0  0  0
  2  4  1  0  0  0  0
  2  5  1  0  0  0  0
  5  6  2  0  0  0  0
  5  7  1  0  0  0  0
  7  8  1  0  0  0  0
  7  9  1  0  0  0  0
  9 10  1  0  0  0  0
  9 11  1  0  0  0  0
  9 16  1  0  0  0  0
 11 12  1  0  0  0  0
 11 13  1  0  0  0  0
 11 14  1  0  0  0  0
 14 15  1  0  0  0  0
 16 17  2  0  0  0  0
 16 18  1  0  0  0  0
 18 19  1  0  0  0  0
 18 20  1  0  0  0  0
 20 21  1  0  0  0  0
 20 22  1  0  0  0  0
 20 23  1  0  0  0  0
M  END
$$$$

  -OEChem-01062216073D

 23 22  0     1  0  0  0  0  0999 V2000
   -2.7648   -3.4390    1.2656 H   0  0  0  0  0  0  0  0  0  0  0  0
   -2.7392   -2.4221    0.8640 C   0  0  0  0  0  0  0  0  0  0  0  0
   -3.3123   -1.7675    1.5248 H   0  0  0  0  0  0  0  0  0  0  0  0
   -3.1989   -2.4230   -0.1270 H   0  0  0  0  0  0  0  0  0  0  0  0
   -1.3061   -1.9344    0.7679 C   0  0  0  0  0  0  0  0  0  0  0  0
   -0.3996   -2.6501    1.1627 O   0  0  0  0  0  0  0  0  0  0  0  0
   -1.0582   -0.6592    0.2997 N   0  0  0  0  0  0  0  0  0  0  0  0
   -1.8653   -0.0410    0.2593 H   0  0  0  0  0  0  0  0  0  0  0  0
    0.2685   -0.0159    0.3245 C   0  0  1  0  0  0  0  0  0  0  0  0
    0.9504   -0.5476    0.9967 H   0  0  0  0  0  0  0  0  0  0  0  0
    0.8427   -0.0398   -1.1087 C   0  0  0  0  0  0  0  0  0  0  0  0
    0.1417    0.4562   -1.7882 H   0  0  0  0  0  0  0  0  0  0  0  0
    1.7893    0.5065   -1.1421 H   0  0  0  0  0  0  0  0  0  0  0  0
    1.1680   -1.7477   -1.7106 S   0  0  0  0  0  0  0  0  0  0  0  0
    1.5957   -1.5155   -2.9702 H   0  0  0  0  0  0  0  0  0  0  0  0
    0.1527    1.4430    0.8365 C   0  0  0  0  0  0  0  0  0  0  0  0
   -0.8220    1.7779    1.5003 O   0  0  0  0  0  0  0  0  0  0  0  0
    1.0244    2.4381    0.4244 N   0  0  0  0  0  0  0  0  0  0  0  0
    1.8556    2.1532   -0.0839 H   0  0  0  0  0  0  0  0  0  0  0  0
    0.9039    3.8308    0.8423 C   0  0  0  0  0  0  0  0  0  0  0  0
    0.9656    3.9112    1.9327 H   0  0  0  0  0  0  0  0  0  0  0  0
    1.7098    4.4285    0.4055 H   0  0  0  0  0  0  0  0  0  0  0  0
   -0.0528    4.2492    0.5119 H   0  0  0  0  0  0  0  0  0  0  0  0
  1  2  1  0  0  0  0
  2  3  1  0  0  0  0
  2  4  1  0  0  0  0
  2  5  1  0  0  0  0
  5  6  2  0  0  0  0
  5  7  1  0  0  0  0
  7  8  1  0  0  0  0
  7  9  1  0  0  0  0
  9 10  1  0  0  0  0
  9 11  1  0  0  0  0
  9 16  1  0  0  0  0
 11 12  1  0  0  0  0
 11 13  1  0  0  0  0
 11 14  1  0  0  0  0
 14 15  1  0  0  0  0
 16 17  2  0  0  0  0
 16 18  1  0  0  0  0
 18 19  1  0  0  0  0
 18 20  1  0  0  0  0
 20 21  1  0  0  0  0
 20 22  1  0  0  0  0
 20 23  1  0  0  0  0
M  END
$$$$

  -OEChem-01062216073D

 23 22  0     1  0  0  0  0  0999 V2000
   -2.7640   -3.4294    1.2824 H   0  0  0  0  0  0  0  0  0  0  0  0
   -2.7413   -2.4138    0.8774 C   0  0  0  0  0  0  0  0  0  0  0  0
   -3.3056   -1.7565    1.5433 H   0  0  0  0  0  0  0  0  0  0  0  0
   -3.2123   -2.4170   -0.1084 H   0  0  0  0  0  0  0  0  0  0  0  0
   -1.3083   -1.9294    0.7640 C   0  0  0  0  0  0  0  0  0  0  0  0
   -0.3998   -2.6500    1.1445 O   0  0  0  0  0  0  0  0  0  0  0  0
   -1.0634   -0.6540    0.2936 N   0  0  0  0  0  0  0  0  0  0  0  0
   -1.8726   -0.0398    0.2523 H   0  0  0  0  0  0  0  0  0  0  0  0
    0.2653   -0.0137    0.3091 C   0  0  1  0  0  0  0  0  0  0  0  0
    0.9448   -0.5416    0.9870 H   0  0  0  0  0  0  0  0  0  0  0  0
    0.8509   -0.0537   -1.1191 C   0  0  0  0  0  0  0  0  0  0  0  0
    0.1581    0.4365   -1.8110 H   0  0  0  0  0  0  0  0  0  0  0  0
    1.8004    0.4887   -1.1439 H   0  0  0  0  0  0  0  0  0  0  0  0
    1.1798   -1.7674   -1.7015 S   0  0  0  0  0  0  0  0  0  0  0  0
    1.6440   -1.5486   -2.9501 H   0  0  0  0  0  0  0  0  0  0  0  0
    0.1486    1.4445    0.8233 C   0  0  0  0  0  0  0  0  0  0  0  0
   -0.6606    1.7087    1.7039 O   0  0  0  0  0  0  0  0  0  0  0  0
    0.7926    2.5058    0.2065 N   0  0  0  0  0  0  0  0  0  0  0  0
    1.4691    2.2912   -0.5186 H   0  0  0  0  0  0  0  0  0  0  0  0
    0.6396    3.8931    0.6322 C   0  0  0  0  0  0  0  0  0  0  0  0
    0.9504    4.0106    1.6758 H   0  0  0  0  0  0  0  0  0  0  0  0
    1.2569    4.5501    0.0118 H   0  0  0  0  0  0  0  0  0  0  0  0
   -0.4043    4.2109    0.5378 H   0  0  0  0  0  0  0  0  0  0  0  0
  1  2  1  0  0  0  0
  2  3  1  0  0  0  0
  2  4  1  0  0  0  0
  2  5  1  0  0  0  0
  5  6  2  0  0  0  0
  5  7  1  0  0  0  0
  7  8  1  0  0  0  0
  7  9  1  0  0  0  0
  9 10  1  0  0  0  0
  9 11  1  0  0  0  0
  9 16  1  0  0  0  0
 11 12  1  0  0  0  0
 11 13  1  0  0  0  0
 11 14  1  0  0  0  0
 14 15  1  0  0  0  0
 16 17  2  0  0  0  0
 16 18  1  0  0  0  0
 18 19  1  0  0  0  0
 18 20  1  0  0  0  0
 20 21  1  0  0  0  0
 20 22  1  0  0  0  0
 20 23  1  0  0  0  0
M  END
$$$$

  -OEChem-01062216073D

 23 22  0     1  0  0  0  0  0999 V2000
   -2.7542   -3.4441    1.2810 H   0  0  0  0  0  0  0  0  0  0  0  0
   -2.7387   -2.4280    0.8766 C   0  0  0  0  0  0  0  0  0  0  0  0
   -3.3184   -1.7781    1.5363 H   0  0  0  0  0  0  0  0  0  0  0  0
   -3.1984   -2.4367   -0.1144 H   0  0  0  0  0  0  0  0  0  0  0  0
   -1.3101   -1.9268    0.7803 C   0  0  0  0  0  0  0  0  0  0  0  0
   -0.3985   -2.6385    1.1691 O   0  0  0  0  0  0  0  0  0  0  0  0
   -1.0733   -0.6509    0.3056 N   0  0  0  0  0  0  0  0  0  0  0  0
   -1.8903   -0.0542    0.2142 H   0  0  0  0  0  0  0  0  0  0  0  0
    0.2531   -0.0049    0.3060 C   0  0  1  0  0  0  0  0  0  0  0  0
    0.9364   -0.5276    0.9844 H   0  0  0  0  0  0  0  0  0  0  0  0
    0.8414   -0.0531   -1.1201 C   0  0  0  0  0  0  0  0  0  0  0  0
    0.1471    0.4239   -1.8194 H   0  0  0  0  0  0  0  0  0  0  0  0
    1.7863    0.4990   -1.1427 H   0  0  0  0  0  0  0  0  0  0  0  0
    1.1813   -1.7697   -1.6871 S   0  0  0  0  0  0  0  0  0  0  0  0
    1.6857   -1.5580   -2.9214 H   0  0  0  0  0  0  0  0  0  0  0  0
    0.1417    1.4530    0.8177 C   0  0  0  0  0  0  0  0  0  0  0  0
   -0.4307    1.6761    1.8758 O   0  0  0  0  0  0  0  0  0  0  0  0
    0.5106    2.5433    0.0447 N   0  0  0  0  0  0  0  0  0  0  0  0
    0.9636    2.3618   -0.8449 H   0  0  0  0  0  0  0  0  0  0  0  0
    0.3465    3.9267    0.4787 C   0  0  0  0  0  0  0  0  0  0  0  0
    0.8876    4.1020    1.4147 H   0  0  0  0  0  0  0  0  0  0  0  0
    0.7395    4.6106   -0.2798 H   0  0  0  0  0  0  0  0  0  0  0  0
   -0.7126    4.1569    0.6358 H   0  0  0  0  0  0  0  0  0  0  0  0
  1  2  1  0  0  0  0
  2  3  1  0  0  0  0
  2  4  1  0  0  0  0
  2  5  1  0  0  0  0
  5  6  2  0  0  0  0
  5  7  1  0  0  0  0
  7  8  1  0  0  0  0
  7  9  1  0  0  0  0
  9 10  1  0  0  0  0
  9 11  1  0  0  0  0
  9 16  1  0  0  0  0
 11 12  1  0  0  0  0
 11 13  1  0  0  0  0
 11 14  1  0  0  0  0
 14 15  1  0  0  0  0
 16 17  2  0  0  0  0
 16 18  1  0  0  0  0
 18 19  1  0  0  0  0
 18 20  1  0  0  0  0
 20 21  1  0  0  0  0
 20 22  1  0  0  0  0
 20 23  1  0  0  0  0
M  END
$$$$

  -OEChem-01062216073D

 23 22  0     1  0  0  0  0  0999 V2000
   -2.7397   -3.4683    1.2702 H   0  0  0  0  0  0  0  0  0  0  0  0
   -2.7334   -2.4514    0.8678 C   0  0  0  0  0  0  0  0  0  0  0  0
   -3.3406   -1.8134    1.5143 H   0  0  0  0  0  0  0  0  0  0  0  0
   -3.1684   -2.4670   -0.1341 H   0  0  0  0  0  0  0  0  0  0  0  0
   -1.3123   -1.9247    0.8072 C   0  0  0  0  0  0  0  0  0  0  0  0
   -0.3983   -2.6196    1.2189 O   0  0  0  0  0  0  0  0  0  0  0  0
   -1.0845   -0.6489    0.3275 N   0  0  0  0  0  0  0  0  0  0  0  0
   -1.9074   -0.0792    0.1572 H   0  0  0  0  0  0  0  0  0  0  0  0
    0.2381    0.0046    0.3094 C   0  0  1  0  0  0  0  0  0  0  0  0
    0.9293   -0.5135    0.9838 H   0  0  0  0  0  0  0  0  0  0  0  0
    0.8207   -0.0450   -1.1180 C   0  0  0  0  0  0  0  0  0  0  0  0
    0.1202    0.4180   -1.8199 H   0  0  0  0  0  0  0  0  0  0  0  0
    1.7577    0.5211   -1.1441 H   0  0  0  0  0  0  0  0  0  0  0  0
    1.1705   -1.7622   -1.6771 S   0  0  0  0  0  0  0  0  0  0  0  0
    1.7260   -1.5503   -2.8893 H   0  0  0  0  0  0  0  0  0  0  0  0
    0.1340    1.4619    0.8172 C   0  0  0  0  0  0  0  0  0  0  0  0
   -0.1419    1.6754    1.9889 O   0  0  0  0  0  0  0  0  0  0  0  0
    0.1942    2.5476   -0.0427 N   0  0  0  0  0  0  0  0  0  0  0  0
    0.3862    2.3663   -1.0224 H   0  0  0  0  0  0  0  0  0  0  0  0
    0.0315    3.9289    0.3977 C   0  0  0  0  0  0  0  0  0  0  0  0
    0.7722    4.1770    1.1655 H   0  0  0  0  0  0  0  0  0  0  0  0
    0.1671    4.6133   -0.4452 H   0  0  0  0  0  0  0  0  0  0  0  0
   -0.9703    4.0838    0.8119 H   0  0  0  0  0  0  0  0  0  0  0  0
  1  2  1  0  0  0  0
  2  3  1  0  0  0  0
  2  4  1  0  0  0  0
  2  5  1  0  0  0  0
  5  6  2  0  0  0  0
  5  7  1  0  0  0  0
  7  8  1  0  0  0  0
  7  9  1  0  0  0  0
  9 10  1  0  0  0  0
  9 11  1  0  0  0  0
  9 16  1  0  0  0  0
 11 12  1  0  0  0  0
 11 13  1  0  0  0  0
 11 14  1  0  0  0  0
 14 15  1  0  0  0  0
 16 17  2  0  0  0  0
 16 18  1  0  0  0  0
 18 19  1  0  0  0  0
 18 20  1  0  0  0  0
 20 21  1  0  0  0  0
 20 22  1  0  0  0  0
 20 23  1  0  0  0  0
M  END
$$$$

  -OEChem-01062216073D

 23 22  0     1  0  0  0  0  0999 V2000
   -2.7298   -3.4976    1.2512 H   0  0  0  0  0  0  0  0  0  0  0  0
   -2.7283   -2.4801    0.8502 C   0  0  0  0  0  0  0  0  0  0  0  0
   -3.3684   -1.8545    1.4767 H   0  0  0  0  0  0  0  0  0  0  0  0
   -3.1294   -2.5028   -0.1657 H   0  0  0  0  0  0  0  0  0  0  0  0
   -1.3157   -1.9270    0.8370 C   0  0  0  0  0  0  0  0  0  0  0  0
   -0.4045   -2.6000    1.2881 O   0  0  0  0  0  0  0  0  0  0  0  0
   -1.0946   -0.6515    0.3524 N   0  0  0  0  0  0  0  0  0  0  0  0
   -1.9173   -0.1164    0.0950 H   0  0  0  0  0  0  0  0  0  0  0  0
    0.2237    0.0111    0.3200 C   0  0  1  0  0  0  0  0  0  0  0  0
    0.9233   -0.5033    0.9889 H   0  0  0  0  0  0  0  0  0  0  0  0
    0.8015   -0.0300   -1.1088 C   0  0  0  0  0  0  0  0  0  0  0  0
    0.0974    0.4263   -1.8108 H   0  0  0  0  0  0  0  0  0  0  0  0
    1.7322    0.5468   -1.1355 H   0  0  0  0  0  0  0  0  0  0  0  0
    1.1615   -1.7454   -1.6669 S   0  0  0  0  0  0  0  0  0  0  0  0
    1.7403   -1.5279   -2.8675 H   0  0  0  0  0  0  0  0  0  0  0  0
    0.1205    1.4684    0.8224 C   0  0  0  0  0  0  0  0  0  0  0  0
    0.1841    1.7103    2.0185 O   0  0  0  0  0  0  0  0  0  0  0  0
   -0.1389    2.5176   -0.0452 N   0  0  0  0  0  0  0  0  0  0  0  0
   -0.2215    2.3061   -1.0340 H   0  0  0  0  0  0  0  0  0  0  0  0
   -0.2879    3.9006    0.3947 C   0  0  0  0  0  0  0  0  0  0  0  0
    0.6123    4.2349    0.9216 H   0  0  0  0  0  0  0  0  0  0  0  0
   -0.4469    4.5573   -0.4661 H   0  0  0  0  0  0  0  0  0  0  0  0
   -1.1461    3.9985    1.0679 H   0  0  0  0  0  0  0  0  0  0  0  0
  1  2  1  0  0  0  0
  2  3  1  0  0  0  0
  2  4  1  0  0  0  0
  2  5  1  0  0  0  0
  5  6  2  0  0  0  0
  5  7  1  0  0  0  0
  7  8  1  0  0  0  0
  7  9  1  0  0  0  0
  9 10  1  0  0  0  0
  9 11  1  0  0  0  0
  9 16  1  0  0  0  0
 11 12  1  0  0  0  0
 11 13  1  0  0  0  0
 11 14  1  0  0  0  0
 14 15  1  0  0  0  0
 16 17  2  0  0  0  0
 16 18  1  0  0  0  0
 18 19  1  0  0  0  0
 18 20  1  0  0  0  0
 20 21  1  0  0  0  0
 20 22  1  0  0  0  0
 20 23  1  0  0  0  0
M  END
$$$$

  -OEChem-01062216073D

 23 22  0     1  0  0  0  0  0999 V2000
   -2.7046   -3.5463    1.2252 H   0  0  0  0  0  0  0  0  0  0  0  0
   -2.7159   -2.5317    0.8170 C   0  0  0  0  0  0  0  0  0  0  0  0
   -3.4076   -1.9241    1.4051 H   0  0  0  0  0  0  0  0  0  0  0  0
   -3.0632   -2.5741   -0.2179 H   0  0  0  0  0  0  0  0  0  0  0  0
   -1.3230   -1.9328    0.8722 C   0  0  0  0  0  0  0  0  0  0  0  0
   -0.4153   -2.5735    1.3737 O   0  0  0  0  0  0  0  0  0  0  0  0
   -1.1149   -0.6560    0.3847 N   0  0  0  0  0  0  0  0  0  0  0  0
   -1.9299   -0.1663    0.0320 H   0  0  0  0  0  0  0  0  0  0  0  0
    0.1992    0.0163    0.3452 C   0  0  1  0  0  0  0  0  0  0  0  0
    0.9086   -0.4976    1.0047 H   0  0  0  0  0  0  0  0  0  0  0  0
    0.7656   -0.0050   -1.0865 C   0  0  0  0  0  0  0  0  0  0  0  0
    0.0586    0.4586   -1.7805 H   0  0  0  0  0  0  0  0  0  0  0  0
    1.6938    0.5761   -1.1109 H   0  0  0  0  0  0  0  0  0  0  0  0
    1.1296   -1.7155   -1.6569 S   0  0  0  0  0  0  0  0  0  0  0  0
    1.7256   -1.4851   -2.8464 H   0  0  0  0  0  0  0  0  0  0  0  0
    0.0973    1.4728    0.8446 C   0  0  0  0  0  0  0  0  0  0  0  0
    0.5065    1.7794    1.9541 O   0  0  0  0  0  0  0  0  0  0  0  0
   -0.4654    2.4585    0.0497 N   0  0  0  0  0  0  0  0  0  0  0  0
   -0.7894    2.1940   -0.8745 H   0  0  0  0  0  0  0  0  0  0  0  0
   -0.5723    3.8534    0.4631 C   0  0  0  0  0  0  0  0  0  0  0  0
    0.4199    4.2702    0.6668 H   0  0  0  0  0  0  0  0  0  0  0  0
   -1.0409    4.4484   -0.3268 H   0  0  0  0  0  0  0  0  0  0  0  0
   -1.1825    3.9397    1.3685 H   0  0  0  0  0  0  0  0  0  0  0  0
  1  2  1  0  0  0  0
  2  3  1  0  0  0  0
  2  4  1  0  0  0  0
  2  5  1  0  0  0  0
  5  6  2  0  0  0  0
  5  7  1  0  0  0  0
  7  8  1  0  0  0  0
  7  9  1  0  0  0  0
  9 10  1  0  0  0  0
  9 11  1  0  0  0  0
  9 16  1  0  0  0  0
 11 12  1  0  0  0  0
 11 13  1  0  0  0  0
 11 14  1  0  0  0  0
 14 15  1  0  0  0  0
 16 17  2  0  0  0  0
 16 18  1  0  0  0  0
 18 19  1  0  0  0  0
 18 20  1  0  0  0  0
 20 21  1  0  0  0  0
 20 22  1  0  0  0  0
 20 23  1  0  0  0  0
M  END
$$$$

  -OEChem-01062216073D

 23 22  0     1  0  0  0  0  0999 V2000
   -2.6578   -3.6075    1.1790 H   0  0  0  0  0  0  0  0  0  0  0  0
   -2.6851   -2.5963    0.7628 C   0  0  0  0  0  0  0  0  0  0  0  0
   -3.4533   -2.0215    1.2852 H   0  0  0  0  0  0  0  0  0  0  0  0
   -2.9415   -2.6610   -0.2972 H   0  0  0  0  0  0  0  0  0  0  0  0
   -1.3335   -1.9280    0.9305 C   0  0  0  0  0  0  0  0  0  0  0  0
   -0.4455   -2.5129    1.5263 O   0  0  0  0  0  0  0  0  0  0  0  0
   -1.1427   -0.6521    0.4333 N   0  0  0  0  0  0  0  0  0  0  0  0
   -1.9195   -0.2556   -0.0829 H   0  0  0  0  0  0  0  0  0  0  0  0
    0.1713    0.0218    0.3773 C   0  0  1  0  0  0  0  0  0  0  0  0
    0.8926   -0.4936    1.0226 H   0  0  0  0  0  0  0  0  0  0  0  0
    0.7099    0.0098   -1.0632 C   0  0  0  0  0  0  0  0  0  0  0  0
   -0.0065    0.4837   -1.7409 H   0  0  0  0  0  0  0  0  0  0  0  0
    1.6398    0.5881   -1.0993 H   0  0  0  0  0  0  0  0  0  0  0  0
    1.0594   -1.7007   -1.6439 S   0  0  0  0  0  0  0  0  0  0  0  0
    1.6724   -1.4647   -2.8241 H   0  0  0  0  0  0  0  0  0  0  0  0
    0.0911    1.4812    0.8685 C   0  0  0  0  0  0  0  0  0  0  0  0
    0.8142    1.8726    1.7724 O   0  0  0  0  0  0  0  0  0  0  0  0
   -0.7321    2.3965    0.2327 N   0  0  0  0  0  0  0  0  0  0  0  0
   -1.3041    2.0650   -0.5359 H   0  0  0  0  0  0  0  0  0  0  0  0
   -0.8113    3.8010    0.6185 C   0  0  0  0  0  0  0  0  0  0  0  0
    0.1655    4.2845    0.5105 H   0  0  0  0  0  0  0  0  0  0  0  0
   -1.5296    4.3288   -0.0163 H   0  0  0  0  0  0  0  0  0  0  0  0
   -1.1365    3.8945    1.6602 H   0  0  0  0  0  0  0  0  0  0  0  0
  1  2  1  0  0  0  0
  2  3  1  0  0  0  0
  2  4  1  0  0  0  0
  2  5  1  0  0  0  0
  5  6  2  0  0  0  0
  5  7  1  0  0  0  0
  7  8  1  0  0  0  0
  7  9  1  0  0  0  0
  9 10  1  0  0  0  0
  9 11  1  0  0  0  0
  9 16  1  0  0  0  0
 11 12  1  0  0  0  0
 11 13  1  0  0  0  0
 11 14  1  0  0  0  0
 14 15  1  0  0  0  0
 16 17  2  0  0  0  0
 16 18  1  0  0  0  0
 18 19  1  0  0  0  0
 18 20  1  0  0  0  0
 20 21  1  0  0  0  0
 20 22  1  0  0  0  0
 20 23  1  0  0  0  0
M  END
$$$$

  -OEChem-01062216073D

 23 22  0     1  0  0  0  0  0999 V2000
   -2.6010   -3.6505    1.1660 H   0  0  0  0  0  0  0  0  0  0  0  0
   -2.6267   -2.6691    0.6837 C   0  0  0  0  0  0  0  0  0  0  0  0
   -3.4942   -2.1179    1.0540 H   0  0  0  0  0  0  0  0  0  0  0  0
   -2.7230   -2.8117   -0.3952 H   0  0  0  0  0  0  0  0  0  0  0  0
   -1.3538   -1.9043    0.9936 C   0  0  0  0  0  0  0  0  0  0  0  0
   -0.5142   -2.4062    1.7209 O   0  0  0  0  0  0  0  0  0  0  0  0
   -1.1844   -0.6323    0.4782 N   0  0  0  0  0  0  0  0  0  0  0  0
   -1.8742   -0.3708   -0.2169 H   0  0  0  0  0  0  0  0  0  0  0  0
    0.1376    0.0277    0.4081 C   0  0  1  0  0  0  0  0  0  0  0  0
    0.8659   -0.4936    1.0402 H   0  0  0  0  0  0  0  0  0  0  0  0
    0.6471    0.0145   -1.0410 C   0  0  0  0  0  0  0  0  0  0  0  0
   -0.0736    0.5061   -1.7015 H   0  0  0  0  0  0  0  0  0  0  0  0
    1.5854    0.5784   -1.0920 H   0  0  0  0  0  0  0  0  0  0  0  0
    0.9610   -1.7003   -1.6293 S   0  0  0  0  0  0  0  0  0  0  0  0
    1.5684   -1.4669   -2.8131 H   0  0  0  0  0  0  0  0  0  0  0  0
    0.0928    1.4927    0.8859 C   0  0  0  0  0  0  0  0  0  0  0  0
    1.0484    1.9724    1.4782 O   0  0  0  0  0  0  0  0  0  0  0  0
   -0.9228    2.3379    0.4711 N   0  0  0  0  0  0  0  0  0  0  0  0
   -1.7362    1.9086    0.0454 H   0  0  0  0  0  0  0  0  0  0  0  0
   -0.9884    3.7448    0.8496 C   0  0  0  0  0  0  0  0  0  0  0  0
   -0.1005    4.2790    0.4951 H   0  0  0  0  0  0  0  0  0  0  0  0
   -1.8718    4.2153    0.4076 H   0  0  0  0  0  0  0  0  0  0  0  0
   -1.0491    3.8462    1.9384 H   0  0  0  0  0  0  0  0  0  0  0  0
  1  2  1  0  0  0  0
  2  3  1  0  0  0  0
  2  4  1  0  0  0  0
  2  5  1  0  0  0  0
  5  6  2  0  0  0  0
  5  7  1  0  0  0  0
  7  8  1  0  0  0  0
  7  9  1  0  0  0  0
  9 10  1  0  0  0  0
  9 11  1  0  0  0  0
  9 16  1  0  0  0  0
 11 12  1  0  0  0  0
 11 13  1  0  0  0  0
 11 14  1  0  0  0  0
 14 15  1  0  0  0  0
 16 17  2  0  0  0  0
 16 18  1  0  0  0  0
 18 19  1  0  0  0  0
 18 20  1  0  0  0  0
 20 21  1  0  0  0  0
 20 22  1  0  0  0  0
 20 23  1  0  0  0  0
M  END
$$$$

  -OEChem-01062216073D

 23 22  0     1  0  0  0  0  0999 V2000
   -2.5673   -3.6809    1.1246 H   0  0  0  0  0  0  0  0  0  0  0  0
   -2.5967   -2.7030    0.6358 C   0  0  0  0  0  0  0  0  0  0  0  0
   -3.4981   -2.1761    0.9569 H   0  0  0  0  0  0  0  0  0  0  0  0
   -2.6329   -2.8536   -0.4457 H   0  0  0  0  0  0  0  0  0  0  0  0
   -1.3642   -1.8997    1.0057 C   0  0  0  0  0  0  0  0  0  0  0  0
   -0.5528   -2.3678    1.7858 O   0  0  0  0  0  0  0  0  0  0  0  0
   -1.2013   -0.6277    0.4882 N   0  0  0  0  0  0  0  0  0  0  0  0
   -1.8565   -0.4027   -0.2528 H   0  0  0  0  0  0  0  0  0  0  0  0
    0.1237    0.0279    0.4207 C   0  0  1  0  0  0  0  0  0  0  0  0
    0.8524   -0.4963    1.0495 H   0  0  0  0  0  0  0  0  0  0  0  0
    0.6222    0.0119   -1.0325 C   0  0  0  0  0  0  0  0  0  0  0  0
   -0.1007    0.5084   -1.6870 H   0  0  0  0  0  0  0  0  0  0  0  0
    1.5635    0.5703   -1.0928 H   0  0  0  0  0  0  0  0  0  0  0  0
    0.9217   -1.7062   -1.6196 S   0  0  0  0  0  0  0  0  0  0  0  0
    1.5309   -1.4759   -2.8032 H   0  0  0  0  0  0  0  0  0  0  0  0
    0.0906    1.4938    0.8973 C   0  0  0  0  0  0  0  0  0  0  0  0
    1.1299    2.0542    1.2160 O   0  0  0  0  0  0  0  0  0  0  0  0
   -1.0556    2.2547    0.7455 N   0  0  0  0  0  0  0  0  0  0  0  0
   -1.9194    1.7409    0.6086 H   0  0  0  0  0  0  0  0  0  0  0  0
   -1.1318    3.6567    1.1402 C   0  0  0  0  0  0  0  0  0  0  0  0
   -0.3976    4.2516    0.5865 H   0  0  0  0  0  0  0  0  0  0  0  0
   -2.1278    4.0566    0.9272 H   0  0  0  0  0  0  0  0  0  0  0  0
   -0.9358    3.7642    2.2123 H   0  0  0  0  0  0  0  0  0  0  0  0
  1  2  1  0  0  0  0
  2  3  1  0  0  0  0
  2  4  1  0  0  0  0
  2  5  1  0  0  0  0
  5  6  2  0  0  0  0
  5  7  1  0  0  0  0
  7  8  1  0  0  0  0
  7  9  1  0  0  0  0
  9 10  1  0  0  0  0
  9 11  1  0  0  0  0
  9 16  1  0  0  0  0
 11 12  1  0  0  0  0
 11 13  1  0  0  0  0
 11 14  1  0  0  0  0
 14 15  1  0  0  0  0
 16 17  2  0  0  0  0
 16 18  1  0  0  0  0
 18 19  1  0  0  0  0
 18 20  1  0  0  0  0
 20 21  1  0  0  0  0
 20 22  1  0  0  0  0
 20 23  1  0  0  0  0
M  END
$$$$

  -OEChem-01062216073D

 23 22  0     1  0  0  0  0  0999 V2000
   -2.5779   -3.6742    1.1202 H   0  0  0  0  0  0  0  0  0  0  0  0
   -2.5949   -2.7026    0.6183 C   0  0  0  0  0  0  0  0  0  0  0  0
   -3.4966   -2.1658    0.9218 H   0  0  0  0  0  0  0  0  0  0  0  0
   -2.6189   -2.8667   -0.4617 H   0  0  0  0  0  0  0  0  0  0  0  0
   -1.3618   -1.9024    0.9925 C   0  0  0  0  0  0  0  0  0  0  0  0
   -0.5564   -2.3688    1.7798 O   0  0  0  0  0  0  0  0  0  0  0  0
   -1.1951   -0.6291    0.4799 N   0  0  0  0  0  0  0  0  0  0  0  0
   -1.8476   -0.3964   -0.2621 H   0  0  0  0  0  0  0  0  0  0  0  0
    0.1308    0.0264    0.4189 C   0  0  1  0  0  0  0  0  0  0  0  0
    0.8588   -0.4977    1.0481 H   0  0  0  0  0  0  0  0  0  0  0  0
    0.6258    0.0072   -1.0366 C   0  0  0  0  0  0  0  0  0  0  0  0
   -0.0991    0.5045   -1.6885 H   0  0  0  0  0  0  0  0  0  0  0  0
    1.5681    0.5629   -1.1031 H   0  0  0  0  0  0  0  0  0  0  0  0
    0.9216   -1.7120   -1.6233 S   0  0  0  0  0  0  0  0  0  0  0  0
    1.5157   -1.4811   -2.8146 H   0  0  0  0  0  0  0  0  0  0  0  0
    0.0922    1.4917    0.9012 C   0  0  0  0  0  0  0  0  0  0  0  0
    1.1292    2.1331    0.9991 O   0  0  0  0  0  0  0  0  0  0  0  0
   -1.1157    2.1529    1.0361 N   0  0  0  0  0  0  0  0  0  0  0  0
   -1.9397    1.5624    1.0902 H   0  0  0  0  0  0  0  0  0  0  0  0
   -1.2158    3.5382    1.4806 C   0  0  0  0  0  0  0  0  0  0  0  0
   -0.6763    4.2007    0.7953 H   0  0  0  0  0  0  0  0  0  0  0  0
   -2.2637    3.8524    1.5083 H   0  0  0  0  0  0  0  0  0  0  0  0
   -0.7928    3.6508    2.4845 H   0  0  0  0  0  0  0  0  0  0  0  0
  1  2  1  0  0  0  0
  2  3  1  0  0  0  0
  2  4  1  0  0  0  0
  2  5  1  0  0  0  0
  5  6  2  0  0  0  0
  5  7  1  0  0  0  0
  7  8  1  0  0  0  0
  7  9  1  0  0  0  0
  9 10  1  0  0  0  0
  9 11  1  0  0  0  0
  9 16  1  0  0  0  0
 11 12  1  0  0  0  0
 11 13  1  0  0  0  0
 11 14  1  0  0  0  0
 14 15  1  0  0  0  0
 16 17  2  0  0  0  0
 16 18  1  0  0  0  0
 18 19  1  0  0  0  0
 18 20  1  0  0  0  0
 20 21  1  0  0  0  0
 20 22  1  0  0  0  0
 20 23  1  0  0  0  0
M  END
$$$$

  -OEChem-01062216073D

 23 22  0     1  0  0  0  0  0999 V2000
   -2.5777   -3.6692    1.1014 H   0  0  0  0  0  0  0  0  0  0  0  0
   -2.5873   -2.7003    0.5940 C   0  0  0  0  0  0  0  0  0  0  0  0
   -3.4971   -2.1649    0.8748 H   0  0  0  0  0  0  0  0  0  0  0  0
   -2.5880   -2.8702   -0.4855 H   0  0  0  0  0  0  0  0  0  0  0  0
   -1.3645   -1.8941    0.9880 C   0  0  0  0  0  0  0  0  0  0  0  0
   -0.5689   -2.3538    1.7893 O   0  0  0  0  0  0  0  0  0  0  0  0
   -1.1939   -0.6206    0.4785 N   0  0  0  0  0  0  0  0  0  0  0  0
   -1.8514   -0.3749   -0.2553 H   0  0  0  0  0  0  0  0  0  0  0  0
    0.1339    0.0305    0.4150 C   0  0  1  0  0  0  0  0  0  0  0  0
    0.8612   -0.4947    1.0440 H   0  0  0  0  0  0  0  0  0  0  0  0
    0.6222   -0.0019   -1.0440 C   0  0  0  0  0  0  0  0  0  0  0  0
   -0.1036    0.4948   -1.6954 H   0  0  0  0  0  0  0  0  0  0  0  0
    1.5672    0.5471   -1.1220 H   0  0  0  0  0  0  0  0  0  0  0  0
    0.9081   -1.7267   -1.6194 S   0  0  0  0  0  0  0  0  0  0  0  0
    1.4996   -1.5072   -2.8142 H   0  0  0  0  0  0  0  0  0  0  0  0
    0.0939    1.4955    0.9029 C   0  0  0  0  0  0  0  0  0  0  0  0
    1.0768    2.2161    0.7919 O   0  0  0  0  0  0  0  0  0  0  0  0
   -1.0956    2.0533    1.3356 N   0  0  0  0  0  0  0  0  0  0  0  0
   -1.8432    1.3963    1.5396 H   0  0  0  0  0  0  0  0  0  0  0  0
   -1.2004    3.4187    1.8362 C   0  0  0  0  0  0  0  0  0  0  0  0
   -0.8887    4.1341    1.0678 H   0  0  0  0  0  0  0  0  0  0  0  0
   -2.2352    3.6419    2.1138 H   0  0  0  0  0  0  0  0  0  0  0  0
   -0.5670    3.5527    2.7195 H   0  0  0  0  0  0  0  0  0  0  0  0
  1  2  1  0  0  0  0
  2  3  1  0  0  0  0
  2  4  1  0  0  0  0
  2  5  1  0  0  0  0
  5  6  2  0  0  0  0
  5  7  1  0  0  0  0
  7  8  1  0  0  0  0
  7  9  1  0  0  0  0
  9 10  1  0  0  0  0
  9 11  1  0  0  0  0
  9 16  1  0  0  0  0
 11 12  1  0  0  0  0
 11 13  1  0  0  0  0
 11 14  1  0  0  0  0
 14 15  1  0  0  0  0
 16 17  2  0  0  0  0
 16 18  1  0  0  0  0
 18 19  1  0  0  0  0
 18 20  1  0  0  0  0
 20 21  1  0  0  0  0
 20 22  1  0  0  0  0
 20 23  1  0  0  0  0
M  END
$$$$

  -OEChem-01062216073D

 23 22  0     1  0  0  0  0  0999 V2000
   -2.5947   -3.6470    1.0970 H   0  0  0  0  0  0  0  0  0  0  0  0
   -2.5981   -2.6773    0.5914 C   0  0  0  0  0  0  0  0  0  0  0  0
   -3.4979   -2.1310    0.8832 H   0  0  0  0  0  0  0  0  0  0  0  0
   -2.6130   -2.8454   -0.4881 H   0  0  0  0  0  0  0  0  0  0  0  0
   -1.3614   -1.8867    0.9732 C   0  0  0  0  0  0  0  0  0  0  0  0
   -0.5652   -2.3531    1.7700 O   0  0  0  0  0  0  0  0  0  0  0  0
   -1.1836   -0.6122    0.4701 N   0  0  0  0  0  0  0  0  0  0  0  0
   -1.8530   -0.3449   -0.2454 H   0  0  0  0  0  0  0  0  0  0  0  0
    0.1451    0.0360    0.4054 C   0  0  1  0  0  0  0  0  0  0  0  0
    0.8712   -0.4894    1.0355 H   0  0  0  0  0  0  0  0  0  0  0  0
    0.6347   -0.0058   -1.0544 C   0  0  0  0  0  0  0  0  0  0  0  0
   -0.0892    0.4896   -1.7091 H   0  0  0  0  0  0  0  0  0  0  0  0
    1.5817    0.5392   -1.1360 H   0  0  0  0  0  0  0  0  0  0  0  0
    0.9174   -1.7350   -1.6194 S   0  0  0  0  0  0  0  0  0  0  0  0
    1.4996   -1.5242   -2.8203 H   0  0  0  0  0  0  0  0  0  0  0  0
    0.0951    1.4986    0.9030 C   0  0  0  0  0  0  0  0  0  0  0  0
    0.9714    2.2997    0.6047 O   0  0  0  0  0  0  0  0  0  0  0  0
   -1.0005    1.9459    1.6184 N   0  0  0  0  0  0  0  0  0  0  0  0
   -1.6449    1.2279    1.9388 H   0  0  0  0  0  0  0  0  0  0  0  0
   -1.1018    3.2896    2.1745 C   0  0  0  0  0  0  0  0  0  0  0  0
   -1.0356    4.0397    1.3792 H   0  0  0  0  0  0  0  0  0  0  0  0
   -2.0604    3.4151    2.6871 H   0  0  0  0  0  0  0  0  0  0  0  0
   -0.2965    3.4677    2.8951 H   0  0  0  0  0  0  0  0  0  0  0  0
  1  2  1  0  0  0  0
  2  3  1  0  0  0  0
  2  4  1  0  0  0  0
  2  5  1  0  0  0  0
  5  6  2  0  0  0  0
  5  7  1  0  0  0  0
  7  8  1  0  0  0  0
  7  9  1  0  0  0  0
  9 10  1  0  0  0  0
  9 11  1  0  0  0  0
  9 16  1  0  0  0  0
 11 12  1  0  0  0  0
 11 13  1  0  0  0  0
 11 14  1  0  0  0  0
 14 15  1  0  0  0  0
 16 17  2  0  0  0  0
 16 18  1  0  0  0  0
 18 19  1  0  0  0  0
 18 20  1  0  0  0  0
 20 21  1  0  0  0  0
 20 22  1  0  0  0  0
 20 23  1  0  0  0  0
M  END
$$$$

  -OEChem-01062216073D

 23 22  0     1  0  0  0  0  0999 V2000
   -2.5817   -3.6518    1.0319 H   0  0  0  0  0  0  0  0  0  0  0  0
   -2.6130   -2.6519    0.5899 C   0  0  0  0  0  0  0  0  0  0  0  0
   -3.5006   -2.1311    0.9567 H   0  0  0  0  0  0  0  0  0  0  0  0
   -2.6777   -2.7520   -0.4962 H   0  0  0  0  0  0  0  0  0  0  0  0
   -1.3631   -1.8784    0.9636 C   0  0  0  0  0  0  0  0  0  0  0  0
   -0.5662   -2.3559    1.7535 O   0  0  0  0  0  0  0  0  0  0  0  0
   -1.1750   -0.6027    0.4684 N   0  0  0  0  0  0  0  0  0  0  0  0
   -1.8553   -0.3114   -0.2273 H   0  0  0  0  0  0  0  0  0  0  0  0
    0.1559    0.0387    0.4029 C   0  0  1  0  0  0  0  0  0  0  0  0
    0.8783   -0.4894    1.0346 H   0  0  0  0  0  0  0  0  0  0  0  0
    0.6519   -0.0109   -1.0550 C   0  0  0  0  0  0  0  0  0  0  0  0
   -0.0678    0.4847   -1.7142 H   0  0  0  0  0  0  0  0  0  0  0  0
    1.6013    0.5304   -1.1348 H   0  0  0  0  0  0  0  0  0  0  0  0
    0.9308   -1.7428   -1.6133 S   0  0  0  0  0  0  0  0  0  0  0  0
    1.4958   -1.5348   -2.8228 H   0  0  0  0  0  0  0  0  0  0  0  0
    0.1005    1.4978    0.9115 C   0  0  0  0  0  0  0  0  0  0  0  0
    0.8136    2.3720    0.4351 O   0  0  0  0  0  0  0  0  0  0  0  0
   -0.8247    1.8475    1.8774 N   0  0  0  0  0  0  0  0  0  0  0  0
   -1.3393    1.0815    2.3050 H   0  0  0  0  0  0  0  0  0  0  0  0
   -0.9191    3.1815    2.4574 C   0  0  0  0  0  0  0  0  0  0  0  0
   -1.1159    3.9255    1.6782 H   0  0  0  0  0  0  0  0  0  0  0  0
   -1.7353    3.2213    3.1850 H   0  0  0  0  0  0  0  0  0  0  0  0
    0.0139    3.4437    2.9672 H   0  0  0  0  0  0  0  0  0  0  0  0
  1  2  1  0  0  0  0
  2  3  1  0  0  0  0
  2  4  1  0  0  0  0
  2  5  1  0  0  0  0
  5  6  2  0  0  0  0
  5  7  1  0  0  0  0
  7  8  1  0  0  0  0
  7  9  1  0  0  0  0
  9 10  1  0  0  0  0
  9 11  1  0  0  0  0
  9 16  1  0  0  0  0
 11 12  1  0  0  0  0
 11 13  1  0  0  0  0
 11 14  1  0  0  0  0
 14 15  1  0  0  0  0
 16 17  2  0  0  0  0
 16 18  1  0  0  0  0
 18 19  1  0  0  0  0
 18 20  1  0  0  0  0
 20 21  1  0  0  0  0
 20 22  1  0  0  0  0
 20 23  1  0  0  0  0
M  END
$$$$

  -OEChem-01062216073D

 23 22  0     1  0  0  0  0  0999 V2000
   -2.6273   -3.6035    1.0783 H   0  0  0  0  0  0  0  0  0  0  0  0
   -2.6316   -2.6171    0.6059 C   0  0  0  0  0  0  0  0  0  0  0  0
   -3.5038   -2.0615    0.9581 H   0  0  0  0  0  0  0  0  0  0  0  0
   -2.7016   -2.7479   -0.4767 H   0  0  0  0  0  0  0  0  0  0  0  0
   -1.3602   -1.8670    0.9549 C   0  0  0  0  0  0  0  0  0  0  0  0
   -0.5589   -2.3574    1.7328 O   0  0  0  0  0  0  0  0  0  0  0  0
   -1.1604   -0.5910    0.4661 N   0  0  0  0  0  0  0  0  0  0  0  0
   -1.8496   -0.2768   -0.2108 H   0  0  0  0  0  0  0  0  0  0  0  0
    0.1739    0.0398    0.3974 C   0  0  1  0  0  0  0  0  0  0  0  0
    0.8955   -0.4938    1.0254 H   0  0  0  0  0  0  0  0  0  0  0  0
    0.6707   -0.0070   -1.0603 C   0  0  0  0  0  0  0  0  0  0  0  0
   -0.0468    0.4943   -1.7178 H   0  0  0  0  0  0  0  0  0  0  0  0
    1.6213    0.5323   -1.1362 H   0  0  0  0  0  0  0  0  0  0  0  0
    0.9391   -1.7382   -1.6262 S   0  0  0  0  0  0  0  0  0  0  0  0
    1.4989   -1.5299   -2.8381 H   0  0  0  0  0  0  0  0  0  0  0  0
    0.1147    1.4933    0.9170 C   0  0  0  0  0  0  0  0  0  0  0  0
    0.6170    2.4249    0.3003 O   0  0  0  0  0  0  0  0  0  0  0  0
   -0.5763    1.7585    2.0841 N   0  0  0  0  0  0  0  0  0  0  0  0
   -0.9457    0.9544    2.5863 H   0  0  0  0  0  0  0  0  0  0  0  0
   -0.6748    3.0834    2.6834 C   0  0  0  0  0  0  0  0  0  0  0  0
   -1.1500    3.7843    1.9890 H   0  0  0  0  0  0  0  0  0  0  0  0
   -1.2761    3.0420    3.5967 H   0  0  0  0  0  0  0  0  0  0  0  0
    0.3201    3.4619    2.9404 H   0  0  0  0  0  0  0  0  0  0  0  0
  1  2  1  0  0  0  0
  2  3  1  0  0  0  0
  2  4  1  0  0  0  0
  2  5  1  0  0  0  0
  5  6  2  0  0  0  0
  5  7  1  0  0  0  0
  7  8  1  0  0  0  0
  7  9  1  0  0  0  0
  9 10  1  0  0  0  0
  9 11  1  0  0  0  0
  9 16  1  0  0  0  0
 11 12  1  0  0  0  0
 11 13  1  0  0  0  0
 11 14  1  0  0  0  0
 14 15  1  0  0  0  0
 16 17  2  0  0  0  0
 16 18  1  0  0  0  0
 18 19  1  0  0  0  0
 18 20  1  0  0  0  0
 20 21  1  0  0  0  0
 20 22  1  0  0  0  0
 20 23  1  0  0  0  0
M  END
$$$$

  -OEChem-01062216073D

 23 22  0     1  0  0  0  0  0999 V2000
   -2.6518   -3.5742    1.0975 H   0  0  0  0  0  0  0  0  0  0  0  0
   -2.6395   -2.5950    0.6107 C   0  0  0  0  0  0  0  0  0  0  0  0
   -3.5055   -2.0219    0.9499 H   0  0  0  0  0  0  0  0  0  0  0  0
   -2.7048   -2.7400   -0.4704 H   0  0  0  0  0  0  0  0  0  0  0  0
   -1.3598   -1.8578    0.9562 C   0  0  0  0  0  0  0  0  0  0  0  0
   -0.5568   -2.3597    1.7255 O   0  0  0  0  0  0  0  0  0  0  0  0
   -1.1501   -0.5822    0.4709 N   0  0  0  0  0  0  0  0  0  0  0  0
   -1.8432   -0.2525   -0.1946 H   0  0  0  0  0  0  0  0  0  0  0  0
    0.1875    0.0379    0.4026 C   0  0  1  0  0  0  0  0  0  0  0  0
    0.9073   -0.5031    1.0259 H   0  0  0  0  0  0  0  0  0  0  0  0
    0.6823   -0.0058   -1.0556 C   0  0  0  0  0  0  0  0  0  0  0  0
   -0.0350    0.5009   -1.7094 H   0  0  0  0  0  0  0  0  0  0  0  0
    1.6340    0.5319   -1.1301 H   0  0  0  0  0  0  0  0  0  0  0  0
    0.9380   -1.7357   -1.6309 S   0  0  0  0  0  0  0  0  0  0  0  0
    1.4663   -1.5246   -2.8562 H   0  0  0  0  0  0  0  0  0  0  0  0
    0.1352    1.4885    0.9267 C   0  0  0  0  0  0  0  0  0  0  0  0
    0.4078    2.4478    0.2149 O   0  0  0  0  0  0  0  0  0  0  0  0
   -0.2720    1.7102    2.2281 N   0  0  0  0  0  0  0  0  0  0  0  0
   -0.5102    0.8892    2.7804 H   0  0  0  0  0  0  0  0  0  0  0  0
   -0.3720    3.0328    2.8320 C   0  0  0  0  0  0  0  0  0  0  0  0
   -1.0998    3.6470    2.2915 H   0  0  0  0  0  0  0  0  0  0  0  0
   -0.6958    2.9491    3.8739 H   0  0  0  0  0  0  0  0  0  0  0  0
    0.5996    3.5377    2.8120 H   0  0  0  0  0  0  0  0  0  0  0  0
  1  2  1  0  0  0  0
  2  3  1  0  0  0  0
  2  4  1  0  0  0  0
  2  5  1  0  0  0  0
  5  6  2  0  0  0  0
  5  7  1  0  0  0  0
  7  8  1  0  0  0  0
  7  9  1  0  0  0  0
  9 10  1  0  0  0  0
  9 11  1  0  0  0  0
  9 16  1  0  0  0  0
 11 12  1  0  0  0  0
 11 13  1  0  0  0  0
 11 14  1  0  0  0  0
 14 15  1  0  0  0  0
 16 17  2  0  0  0  0
 16 18  1  0  0  0  0
 18 19  1  0  0  0  0
 18 20  1  0  0  0  0
 20 21  1  0  0  0  0
 20 22  1  0  0  0  0
 20 23  1  0  0  0  0
M  END
$$$$

  -OEChem-01062216073D

 23 22  0     1  0  0  0  0  0999 V2000
   -2.6631   -3.5625    1.0941 H   0  0  0  0  0  0  0  0  0  0  0  0
   -2.6533   -2.5742    0.6258 C   0  0  0  0  0  0  0  0  0  0  0  0
   -3.5049   -1.9995    0.9971 H   0  0  0  0  0  0  0  0  0  0  0  0
   -2.7470   -2.6982   -0.4557 H   0  0  0  0  0  0  0  0  0  0  0  0
   -1.3585   -1.8553    0.9536 C   0  0  0  0  0  0  0  0  0  0  0  0
   -0.5469   -2.3744    1.7029 O   0  0  0  0  0  0  0  0  0  0  0  0
   -1.1396   -0.5805    0.4707 N   0  0  0  0  0  0  0  0  0  0  0  0
   -1.8411   -0.2285   -0.1744 H   0  0  0  0  0  0  0  0  0  0  0  0
    0.1991    0.0343    0.4043 C   0  0  1  0  0  0  0  0  0  0  0  0
    0.9178   -0.5129    1.0237 H   0  0  0  0  0  0  0  0  0  0  0  0
    0.6962   -0.0035   -1.0527 C   0  0  0  0  0  0  0  0  0  0  0  0
   -0.0206    0.5056   -1.7056 H   0  0  0  0  0  0  0  0  0  0  0  0
    1.6474    0.5351   -1.1227 H   0  0  0  0  0  0  0  0  0  0  0  0
    0.9476   -1.7315   -1.6358 S   0  0  0  0  0  0  0  0  0  0  0  0
    1.4615   -1.5160   -2.8662 H   0  0  0  0  0  0  0  0  0  0  0  0
    0.1527    1.4835    0.9292 C   0  0  0  0  0  0  0  0  0  0  0  0
    0.1702    2.4456    0.1705 O   0  0  0  0  0  0  0  0  0  0  0  0
    0.0554    1.6972    2.2906 N   0  0  0  0  0  0  0  0  0  0  0  0
   -0.0237    0.8722    2.8812 H   0  0  0  0  0  0  0  0  0  0  0  0
   -0.0422    3.0193    2.8960 C   0  0  0  0  0  0  0  0  0  0  0  0
   -0.9528    3.5278    2.5626 H   0  0  0  0  0  0  0  0  0  0  0  0
   -0.0723    2.9340    3.9865 H   0  0  0  0  0  0  0  0  0  0  0  0
    0.8236    3.6315    2.6222 H   0  0  0  0  0  0  0  0  0  0  0  0
  1  2  1  0  0  0  0
  2  3  1  0  0  0  0
  2  4  1  0  0  0  0
  2  5  1  0  0  0  0
  5  6  2  0  0  0  0
  5  7  1  0  0  0  0
  7  8  1  0  0  0  0
  7  9  1  0  0  0  0
  9 10  1  0  0  0  0
  9 11  1  0  0  0  0
  9 16  1  0  0  0  0
 11 12  1  0  0  0  0
 11 13  1  0  0  0  0
 11 14  1  0  0  0  0
 14 15  1  0  0  0  0
 16 17  2  0  0  0  0
 16 18  1  0  0  0  0
 18 19  1  0  0  0  0
 18 20  1  0  0  0  0
 20 21  1  0  0  0  0
 20 22  1  0  0  0  0
 20 23  1  0  0  0  0
M  END
$$$$

  -OEChem-01062216073D

 23 22  0     1  0  0  0  0  0999 V2000
   -2.6753   -3.5591    1.0837 H   0  0  0  0  0  0  0  0  0  0  0  0
   -2.6734   -2.5535    0.6538 C   0  0  0  0  0  0  0  0  0  0  0  0
   -3.4967   -1.9821    1.0889 H   0  0  0  0  0  0  0  0  0  0  0  0
   -2.8223   -2.6336   -0.4256 H   0  0  0  0  0  0  0  0  0  0  0  0
   -1.3533   -1.8649    0.9440 C   0  0  0  0  0  0  0  0  0  0  0  0
   -0.5272   -2.4099    1.6585 O   0  0  0  0  0  0  0  0  0  0  0  0
   -1.1241   -0.5910    0.4638 N   0  0  0  0  0  0  0  0  0  0  0  0
   -1.8397   -0.2075   -0.1474 H   0  0  0  0  0  0  0  0  0  0  0  0
    0.2132    0.0249    0.4045 C   0  0  1  0  0  0  0  0  0  0  0  0
    0.9302   -0.5264    1.0220 H   0  0  0  0  0  0  0  0  0  0  0  0
    0.7152    0.0009   -1.0504 C   0  0  0  0  0  0  0  0  0  0  0  0
   -0.0025    0.5119   -1.7010 H   0  0  0  0  0  0  0  0  0  0  0  0
    1.6639    0.5441   -1.1139 H   0  0  0  0  0  0  0  0  0  0  0  0
    0.9713   -1.7210   -1.6485 S   0  0  0  0  0  0  0  0  0  0  0  0
    1.4756   -1.4950   -2.8812 H   0  0  0  0  0  0  0  0  0  0  0  0
    0.1657    1.4738    0.9273 C   0  0  0  0  0  0  0  0  0  0  0  0
   -0.0772    2.4114    0.1766 O   0  0  0  0  0  0  0  0  0  0  0  0
    0.3755    1.7178    2.2711 N   0  0  0  0  0  0  0  0  0  0  0  0
    0.4786    0.9070    2.8770 H   0  0  0  0  0  0  0  0  0  0  0  0
    0.2890    3.0438    2.8696 C   0  0  0  0  0  0  0  0  0  0  0  0
   -0.7213    3.4503    2.7562 H   0  0  0  0  0  0  0  0  0  0  0  0
    0.5247    2.9930    3.9369 H   0  0  0  0  0  0  0  0  0  0  0  0
    0.9996    3.7266    2.3922 H   0  0  0  0  0  0  0  0  0  0  0  0
  1  2  1  0  0  0  0
  2  3  1  0  0  0  0
  2  4  1  0  0  0  0
  2  5  1  0  0  0  0
  5  6  2  0  0  0  0
  5  7  1  0  0  0  0
  7  8  1  0  0  0  0
  7  9  1  0  0  0  0
  9 10  1  0  0  0  0
  9 11  1  0  0  0  0
  9 16  1  0  0  0  0
 11 12  1  0  0  0  0
 11 13  1  0  0  0  0
 11 14  1  0  0  0  0
 14 15  1  0  0  0  0
 16 17  2  0  0  0  0
 16 18  1  0  0  0  0
 18 19  1  0  0  0  0
 18 20  1  0  0  0  0
 20 21  1  0  0  0  0
 20 22  1  0  0  0  0
 20 23  1  0  0  0  0
M  END
$$$$

  -OEChem-01062216073D

 23 22  0     1  0  0  0  0  0999 V2000
   -2.6910   -3.5527    1.0811 H   0  0  0  0  0  0  0  0  0  0  0  0
   -2.6902   -2.5350    0.6811 C   0  0  0  0  0  0  0  0  0  0  0  0
   -3.4848   -1.9638    1.1671 H   0  0  0  0  0  0  0  0  0  0  0  0
   -2.8850   -2.5803   -0.3932 H   0  0  0  0  0  0  0  0  0  0  0  0
   -1.3476   -1.8769    0.9354 C   0  0  0  0  0  0  0  0  0  0  0  0
   -0.5085   -2.4498    1.6123 O   0  0  0  0  0  0  0  0  0  0  0  0
   -1.1074   -0.6053    0.4553 N   0  0  0  0  0  0  0  0  0  0  0  0
   -1.8390   -0.1870   -0.1130 H   0  0  0  0  0  0  0  0  0  0  0  0
    0.2280    0.0136    0.4050 C   0  0  1  0  0  0  0  0  0  0  0  0
    0.9408   -0.5406    1.0242 H   0  0  0  0  0  0  0  0  0  0  0  0
    0.7372    0.0035   -1.0467 C   0  0  0  0  0  0  0  0  0  0  0  0
    0.0195    0.5165   -1.6956 H   0  0  0  0  0  0  0  0  0  0  0  0
    1.6839    0.5512   -1.1019 H   0  0  0  0  0  0  0  0  0  0  0  0
    1.0018   -1.7115   -1.6606 S   0  0  0  0  0  0  0  0  0  0  0  0
    1.4609   -1.4720   -2.9082 H   0  0  0  0  0  0  0  0  0  0  0  0
    0.1776    1.4640    0.9212 C   0  0  0  0  0  0  0  0  0  0  0  0
   -0.3086    2.3532    0.2320 O   0  0  0  0  0  0  0  0  0  0  0  0
    0.6731    1.7699    2.1746 N   0  0  0  0  0  0  0  0  0  0  0  0
    0.9721    0.9917    2.7573 H   0  0  0  0  0  0  0  0  0  0  0  0
    0.5991    3.1026    2.7606 C   0  0  0  0  0  0  0  0  0  0  0  0
   -0.4445    3.4139    2.8756 H   0  0  0  0  0  0  0  0  0  0  0  0
    1.0732    3.1085    3.7469 H   0  0  0  0  0  0  0  0  0  0  0  0
    1.1161    3.8299    2.1256 H   0  0  0  0  0  0  0  0  0  0  0  0
  1  2  1  0  0  0  0
  2  3  1  0  0  0  0
  2  4  1  0  0  0  0
  2  5  1  0  0  0  0
  5  6  2  0  0  0  0
  5  7  1  0  0  0  0
  7  8  1  0  0  0  0
  7  9  1  0  0  0  0
  9 10  1  0  0  0  0
  9 11  1  0  0  0  0
  9 16  1  0  0  0  0
 11 12  1  0  0  0  0
 11 13  1  0  0  0  0
 11 14  1  0  0  0  0
 14 15  1  0  0  0  0
 16 17  2  0  0  0  0
 16 18  1  0  0  0  0
 18 19  1  0  0  0  0
 18 20  1  0  0  0  0
 20 21  1  0  0  0  0
 20 22  1  0  0  0  0
 20 23  1  0  0  0  0
M  END
$$$$

  -OEChem-01062216073D

 23 22  0     1  0  0  0  0  0999 V2000
   -2.7290   -3.5286    1.1319 H   0  0  0  0  0  0  0  0  0  0  0  0
   -2.7098   -2.5181    0.7144 C   0  0  0  0  0  0  0  0  0  0  0  0
   -3.4714   -1.9150    1.2142 H   0  0  0  0  0  0  0  0  0  0  0  0
   -2.9391   -2.5746   -0.3525 H   0  0  0  0  0  0  0  0  0  0  0  0
   -1.3414   -1.8958    0.9163 C   0  0  0  0  0  0  0  0  0  0  0  0
   -0.4867   -2.4979    1.5465 O   0  0  0  0  0  0  0  0  0  0  0  0
   -1.0931   -0.6249    0.4396 N   0  0  0  0  0  0  0  0  0  0  0  0
   -1.8475   -0.1619   -0.0607 H   0  0  0  0  0  0  0  0  0  0  0  0
    0.2376    0.0036    0.3989 C   0  0  1  0  0  0  0  0  0  0  0  0
    0.9475   -0.5495    1.0226 H   0  0  0  0  0  0  0  0  0  0  0  0
    0.7558    0.0111   -1.0485 C   0  0  0  0  0  0  0  0  0  0  0  0
    0.0360    0.5241   -1.6954 H   0  0  0  0  0  0  0  0  0  0  0  0
    1.6979    0.5671   -1.0941 H   0  0  0  0  0  0  0  0  0  0  0  0
    1.0380   -1.6952   -1.6778 S   0  0  0  0  0  0  0  0  0  0  0  0
    1.4988   -1.4416   -2.9221 H   0  0  0  0  0  0  0  0  0  0  0  0
    0.1766    1.4541    0.9116 C   0  0  0  0  0  0  0  0  0  0  0  0
   -0.5270    2.2782    0.3390 O   0  0  0  0  0  0  0  0  0  0  0  0
    0.9209    1.8399    2.0106 N   0  0  0  0  0  0  0  0  0  0  0  0
    1.4187    1.1109    2.5152 H   0  0  0  0  0  0  0  0  0  0  0  0
    0.8720    3.1825    2.5769 C   0  0  0  0  0  0  0  0  0  0  0  0
   -0.1374    3.4110    2.9346 H   0  0  0  0  0  0  0  0  0  0  0  0
    1.5653    3.2628    3.4197 H   0  0  0  0  0  0  0  0  0  0  0  0
    1.1566    3.9270    1.8256 H   0  0  0  0  0  0  0  0  0  0  0  0
  1  2  1  0  0  0  0
  2  3  1  0  0  0  0
  2  4  1  0  0  0  0
  2  5  1  0  0  0  0
  5  6  2  0  0  0  0
  5  7  1  0  0  0  0
  7  8  1  0  0  0  0
  7  9  1  0  0  0  0
  9 10  1  0  0  0  0
  9 11  1  0  0  0  0
  9 16  1  0  0  0  0
 11 12  1  0  0  0  0
 11 13  1  0  0  0  0
 11 14  1  0  0  0  0
 14 15  1  0  0  0  0
 16 17  2  0  0  0  0
 16 18  1  0  0  0  0
 18 19  1  0  0  0  0
 18 20  1  0  0  0  0
 20 21  1  0  0  0  0
 20 22  1  0  0  0  0
 20 23  1  0  0  0  0
M  END
$$$$

  -OEChem-01062216073D

 23 22  0     1  0  0  0  0  0999 V2000
   -2.7395   -3.5251    1.1340 H   0  0  0  0  0  0  0  0  0  0  0  0
   -2.7246   -2.4995    0.7547 C   0  0  0  0  0  0  0  0  0  0  0  0
   -3.4382   -1.9009    1.3259 H   0  0  0  0  0  0  0  0  0  0  0  0
   -3.0237   -2.5092   -0.2961 H   0  0  0  0  0  0  0  0  0  0  0  0
   -1.3321   -1.9140    0.8904 C   0  0  0  0  0  0  0  0  0  0  0  0
   -0.4620   -2.5451    1.4692 O   0  0  0  0  0  0  0  0  0  0  0  0
   -1.0784   -0.6437    0.4150 N   0  0  0  0  0  0  0  0  0  0  0  0
   -1.8564   -0.1317    0.0061 H   0  0  0  0  0  0  0  0  0  0  0  0
    0.2477   -0.0053    0.3898 C   0  0  1  0  0  0  0  0  0  0  0  0
    0.9519   -0.5537    1.0238 H   0  0  0  0  0  0  0  0  0  0  0  0
    0.7805    0.0145   -1.0516 C   0  0  0  0  0  0  0  0  0  0  0  0
    0.0621    0.5263   -1.7010 H   0  0  0  0  0  0  0  0  0  0  0  0
    1.7190    0.5772   -1.0855 H   0  0  0  0  0  0  0  0  0  0  0  0
    1.0833   -1.6845   -1.6907 S   0  0  0  0  0  0  0  0  0  0  0  0
    1.5187   -1.4207   -2.9415 H   0  0  0  0  0  0  0  0  0  0  0  0
    0.1720    1.4463    0.8963 C   0  0  0  0  0  0  0  0  0  0  0  0
   -0.7021    2.1959    0.4758 O   0  0  0  0  0  0  0  0  0  0  0  0
    1.1101    1.9266    1.7908 N   0  0  0  0  0  0  0  0  0  0  0  0
    1.7730    1.2594    2.1766 H   0  0  0  0  0  0  0  0  0  0  0  0
    1.0799    3.2817    2.3273 C   0  0  0  0  0  0  0  0  0  0  0  0
    0.1424    3.4613    2.8641 H   0  0  0  0  0  0  0  0  0  0  0  0
    1.9112    3.4322    3.0229 H   0  0  0  0  0  0  0  0  0  0  0  0
    1.1693    4.0152    1.5190 H   0  0  0  0  0  0  0  0  0  0  0  0
  1  2  1  0  0  0  0
  2  3  1  0  0  0  0
  2  4  1  0  0  0  0
  2  5  1  0  0  0  0
  5  6  2  0  0  0  0
  5  7  1  0  0  0  0
  7  8  1  0  0  0  0
  7  9  1  0  0  0  0
  9 10  1  0  0  0  0
  9 11  1  0  0  0  0
  9 16  1  0  0  0  0
 11 12  1  0  0  0  0
 11 13  1  0  0  0  0
 11 14  1  0  0  0  0
 14 15  1  0  0  0  0
 16 17  2  0  0  0  0
 16 18  1  0  0  0  0
 18 19  1  0  0  0  0
 18 20  1  0  0  0  0
 20 21  1  0  0  0  0
 20 22  1  0  0  0  0
 20 23  1  0  0  0  0
M  END
$$$$

  -OEChem-01062216073D

 23 22  0     1  0  0  0  0  0999 V2000
   -2.7536   -3.5071    1.1758 H   0  0  0  0  0  0  0  0  0  0  0  0
   -2.7327   -2.4877    0.7805 C   0  0  0  0  0  0  0  0  0  0  0  0
   -3.4188   -1.8684    1.3629 H   0  0  0  0  0  0  0  0  0  0  0  0
   -3.0632   -2.5075   -0.2606 H   0  0  0  0  0  0  0  0  0  0  0  0
   -1.3269   -1.9246    0.8657 C   0  0  0  0  0  0  0  0  0  0  0  0
   -0.4445   -2.5754    1.4024 O   0  0  0  0  0  0  0  0  0  0  0  0
   -1.0734   -0.6540    0.3912 N   0  0  0  0  0  0  0  0  0  0  0  0
   -1.8676   -0.1050    0.0693 H   0  0  0  0  0  0  0  0  0  0  0  0
    0.2490   -0.0066    0.3798 C   0  0  1  0  0  0  0  0  0  0  0  0
    0.9483   -0.5497    1.0236 H   0  0  0  0  0  0  0  0  0  0  0  0
    0.7924    0.0154   -1.0577 C   0  0  0  0  0  0  0  0  0  0  0  0
    0.0732    0.5208   -1.7110 H   0  0  0  0  0  0  0  0  0  0  0  0
    1.7270    0.5848   -1.0876 H   0  0  0  0  0  0  0  0  0  0  0  0
    1.1115   -1.6811   -1.6954 S   0  0  0  0  0  0  0  0  0  0  0  0
    1.5555   -1.4167   -2.9431 H   0  0  0  0  0  0  0  0  0  0  0  0
    0.1652    1.4473    0.8812 C   0  0  0  0  0  0  0  0  0  0  0  0
   -0.8349    2.1190    0.6538 O   0  0  0  0  0  0  0  0  0  0  0  0
    1.2412    2.0275    1.5274 N   0  0  0  0  0  0  0  0  0  0  0  0
    2.0294    1.4278    1.7563 H   0  0  0  0  0  0  0  0  0  0  0  0
    1.2225    3.3926    2.0392 C   0  0  0  0  0  0  0  0  0  0  0  0
    0.4284    3.5123    2.7837 H   0  0  0  0  0  0  0  0  0  0  0  0
    2.1794    3.6324    2.5127 H   0  0  0  0  0  0  0  0  0  0  0  0
    1.0527    4.1053    1.2251 H   0  0  0  0  0  0  0  0  0  0  0  0
  1  2  1  0  0  0  0
  2  3  1  0  0  0  0
  2  4  1  0  0  0  0
  2  5  1  0  0  0  0
  5  6  2  0  0  0  0
  5  7  1  0  0  0  0
  7  8  1  0  0  0  0
  7  9  1  0  0  0  0
  9 10  1  0  0  0  0
  9 11  1  0  0  0  0
  9 16  1  0  0  0  0
 11 12  1  0  0  0  0
 11 13  1  0  0  0  0
 11 14  1  0  0  0  0
 14 15  1  0  0  0  0
 16 17  2  0  0  0  0
 16 18  1  0  0  0  0
 18 19  1  0  0  0  0
 18 20  1  0  0  0  0
 20 21  1  0  0  0  0
 20 22  1  0  0  0  0
 20 23  1  0  0  0  0
M  END
$$$$

  -OEChem-01062216073D

 23 22  0     1  0  0  0  0  0999 V2000
   -2.7616   -3.4944    1.1984 H   0  0  0  0  0  0  0  0  0  0  0  0
   -2.7379   -2.4733    0.8077 C   0  0  0  0  0  0  0  0  0  0  0  0
   -3.3868   -1.8449    1.4222 H   0  0  0  0  0  0  0  0  0  0  0  0
   -3.1127   -2.4805   -0.2184 H   0  0  0  0  0  0  0  0  0  0  0  0
   -1.3197   -1.9364    0.8343 C   0  0  0  0  0  0  0  0  0  0  0  0
   -0.4255   -2.6109    1.3197 O   0  0  0  0  0  0  0  0  0  0  0  0
   -1.0678   -0.6641    0.3634 N   0  0  0  0  0  0  0  0  0  0  0  0
   -1.8736   -0.0828    0.1419 H   0  0  0  0  0  0  0  0  0  0  0  0
    0.2516   -0.0099    0.3698 C   0  0  1  0  0  0  0  0  0  0  0  0
    0.9461   -0.5483    1.0231 H   0  0  0  0  0  0  0  0  0  0  0  0
    0.8073    0.0132   -1.0644 C   0  0  0  0  0  0  0  0  0  0  0  0
    0.0905    0.5145   -1.7235 H   0  0  0  0  0  0  0  0  0  0  0  0
    1.7401    0.5855   -1.0903 H   0  0  0  0  0  0  0  0  0  0  0  0
    1.1404   -1.6807   -1.7015 S   0  0  0  0  0  0  0  0  0  0  0  0
    1.5772   -1.4143   -2.9513 H   0  0  0  0  0  0  0  0  0  0  0  0
    0.1558    1.4453    0.8707 C   0  0  0  0  0  0  0  0  0  0  0  0
   -0.9193    2.0351    0.8543 O   0  0  0  0  0  0  0  0  0  0  0  0
    1.2961    2.1315    1.2473 N   0  0  0  0  0  0  0  0  0  0  0  0
    2.1638    1.6052    1.3027 H   0  0  0  0  0  0  0  0  0  0  0  0
    1.2774    3.5108    1.7200 C   0  0  0  0  0  0  0  0  0  0  0  0
    0.6527    3.6017    2.6150 H   0  0  0  0  0  0  0  0  0  0  0  0
    2.2910    3.8381    1.9712 H   0  0  0  0  0  0  0  0  0  0  0  0
    0.8819    4.1762    0.9453 H   0  0  0  0  0  0  0  0  0  0  0  0
  1  2  1  0  0  0  0
  2  3  1  0  0  0  0
  2  4  1  0  0  0  0
  2  5  1  0  0  0  0
  5  6  2  0  0  0  0
  5  7  1  0  0  0  0
  7  8  1  0  0  0  0
  7  9  1  0  0  0  0
  9 10  1  0  0  0  0
  9 11  1  0  0  0  0
  9 16  1  0  0  0  0
 11 12  1  0  0  0  0
 11 13  1  0  0  0  0
 11 14  1  0  0  0  0
 14 15  1  0  0  0  0
 16 17  2  0  0  0  0
 16 18  1  0  0  0  0
 18 19  1  0  0  0  0
 18 20  1  0  0  0  0
 20 21  1  0  0  0  0
 20 22  1  0  0  0  0
 20 23  1  0  0  0  0
M  END
$$$$

  -OEChem-01062216073D

 23 22  0     1  0  0  0  0  0999 V2000
   -2.7459   -3.4629    1.2512 H   0  0  0  0  0  0  0  0  0  0  0  0
   -2.7307   -2.4443    0.8536 C   0  0  0  0  0  0  0  0  0  0  0  0
   -3.3087   -1.7974    1.5180 H   0  0  0  0  0  0  0  0  0  0  0  0
   -3.1922   -2.4463   -0.1367 H   0  0  0  0  0  0  0  0  0  0  0  0
   -1.3025   -1.9427    0.7559 C   0  0  0  0  0  0  0  0  0  0  0  0
   -0.3840   -2.6598    1.1207 O   0  0  0  0  0  0  0  0  0  0  0  0
   -1.0653   -0.6632    0.2958 N   0  0  0  0  0  0  0  0  0  0  0  0
   -1.8774   -0.0526    0.2445 H   0  0  0  0  0  0  0  0  0  0  0  0
    0.2544   -0.0079    0.3318 C   0  0  1  0  0  0  0  0  0  0  0  0
    1.0120   -0.6701    0.7636 H   0  0  0  0  0  0  0  0  0  0  0  0
    0.6532    0.3375   -1.1130 C   0  0  0  0  0  0  0  0  0  0  0  0
   -0.1248    0.9593   -1.5683 H   0  0  0  0  0  0  0  0  0  0  0  0
    1.5845    0.9119   -1.1180 H   0  0  0  0  0  0  0  0  0  0  0  0
    0.8973   -1.1815   -2.1232 S   0  0  0  0  0  0  0  0  0  0  0  0
    1.1771   -0.6545   -3.3349 H   0  0  0  0  0  0  0  0  0  0  0  0
    0.2263    1.2858    1.1750 C   0  0  0  0  0  0  0  0  0  0  0  0
   -0.8367    1.7265    1.5987 O   0  0  0  0  0  0  0  0  0  0  0  0
    1.3720    2.0455    1.3329 N   0  0  0  0  0  0  0  0  0  0  0  0
    2.2505    1.6347    1.0296 H   0  0  0  0  0  0  0  0  0  0  0  0
    1.4031    3.2956    2.0832 C   0  0  0  0  0  0  0  0  0  0  0  0
    1.0864    3.1302    3.1185 H   0  0  0  0  0  0  0  0  0  0  0  0
    2.4176    3.7055    2.0933 H   0  0  0  0  0  0  0  0  0  0  0  0
    0.7373    4.0346    1.6248 H   0  0  0  0  0  0  0  0  0  0  0  0
  1  2  1  0  0  0  0
  2  3  1  0  0  0  0
  2  4  1  0  0  0  0
  2  5  1  0  0  0  0
  5  6  2  0  0  0  0
  5  7  1  0  0  0  0
  7  8  1  0  0  0  0
  7  9  1  0  0  0  0
  9 10  1  0  0  0  0
  9 11  1  0  0  0  0
  9 16  1  0  0  0  0
 11 12  1  0  0  0  0
 11 13  1  0  0  0  0
 11 14  1  0  0  0  0
 14 15  1  0  0  0  0
 16 17  2  0  0  0  0
 16 18  1  0  0  0  0
 18 19  1  0  0  0  0
 18 20  1  0  0  0  0
 20 21  1  0  0  0  0
 20 22  1  0  0  0  0
 20 23  1  0  0  0  0
M  END
$$$$

  -OEChem-01062216073D

 23 22  0     1  0  0  0  0  0999 V2000
   -2.7386   -3.4426    1.2729 H   0  0  0  0  0  0  0  0  0  0  0  0
   -2.7263   -2.4236    0.8761 C   0  0  0  0  0  0  0  0  0  0  0  0
   -3.2743   -1.7720    1.5610 H   0  0  0  0  0  0  0  0  0  0  0  0
   -3.2213   -2.4185   -0.0979 H   0  0  0  0  0  0  0  0  0  0  0  0
   -1.2972   -1.9369    0.7312 C   0  0  0  0  0  0  0  0  0  0  0  0
   -0.3749   -2.6674    1.0579 O   0  0  0  0  0  0  0  0  0  0  0  0
   -1.0648   -0.6561    0.2720 N   0  0  0  0  0  0  0  0  0  0  0  0
   -1.8754   -0.0417    0.2686 H   0  0  0  0  0  0  0  0  0  0  0  0
    0.2573   -0.0042    0.3130 C   0  0  1  0  0  0  0  0  0  0  0  0
    1.0124   -0.6642    0.7526 H   0  0  0  0  0  0  0  0  0  0  0  0
    0.6599    0.3191   -1.1379 C   0  0  0  0  0  0  0  0  0  0  0  0
   -0.1150    0.9374   -1.6031 H   0  0  0  0  0  0  0  0  0  0  0  0
    1.5952    0.8857   -1.1539 H   0  0  0  0  0  0  0  0  0  0  0  0
    0.9016   -1.2152   -2.1257 S   0  0  0  0  0  0  0  0  0  0  0  0
    1.1920   -0.7110   -3.3445 H   0  0  0  0  0  0  0  0  0  0  0  0
    0.2222    1.2893    1.1622 C   0  0  0  0  0  0  0  0  0  0  0  0
   -0.7873    1.5864    1.7915 O   0  0  0  0  0  0  0  0  0  0  0  0
    1.2484    2.2168    1.0954 N   0  0  0  0  0  0  0  0  0  0  0  0
    2.1047    1.9330    0.6288 H   0  0  0  0  0  0  0  0  0  0  0  0
    1.2412    3.4695    1.8427 C   0  0  0  0  0  0  0  0  0  0  0  0
    1.1853    3.2739    2.9188 H   0  0  0  0  0  0  0  0  0  0  0  0
    2.1554    4.0360    1.6408 H   0  0  0  0  0  0  0  0  0  0  0  0
    0.3836    4.0853    1.5513 H   0  0  0  0  0  0  0  0  0  0  0  0
  1  2  1  0  0  0  0
  2  3  1  0  0  0  0
  2  4  1  0  0  0  0
  2  5  1  0  0  0  0
  5  6  2  0  0  0  0
  5  7  1  0  0  0  0
  7  8  1  0  0  0  0
  7  9  1  0  0  0  0
  9 10  1  0  0  0  0
  9 11  1  0  0  0  0
  9 16  1  0  0  0  0
 11 12  1  0  0  0  0
 11 13  1  0  0  0  0
 11 14  1  0  0  0  0
 14 15  1  0  0  0  0
 16 17  2  0  0  0  0
 16 18  1  0  0  0  0
 18 19  1  0  0  0  0
 18 20  1  0  0  0  0
 20 21  1  0  0  0  0
 20 22  1  0  0  0  0
 20 23  1  0  0  0  0
M  END
$$$$

  -OEChem-01062216073D

 23 22  0     1  0  0  0  0  0999 V2000
   -2.7338   -3.4290    1.2932 H   0  0  0  0  0  0  0  0  0  0  0  0
   -2.7236   -2.4128    0.8893 C   0  0  0  0  0  0  0  0  0  0  0  0
   -3.2619   -1.7556    1.5765 H   0  0  0  0  0  0  0  0  0  0  0  0
   -3.2304   -2.4132   -0.0786 H   0  0  0  0  0  0  0  0  0  0  0  0
   -1.2950   -1.9304    0.7239 C   0  0  0  0  0  0  0  0  0  0  0  0
   -0.3713   -2.6685    1.0280 O   0  0  0  0  0  0  0  0  0  0  0  0
   -1.0659   -0.6490    0.2630 N   0  0  0  0  0  0  0  0  0  0  0  0
   -1.8764   -0.0358    0.2767 H   0  0  0  0  0  0  0  0  0  0  0  0
    0.2582    0.0003    0.2991 C   0  0  1  0  0  0  0  0  0  0  0  0
    1.0116   -0.6572    0.7459 H   0  0  0  0  0  0  0  0  0  0  0  0
    0.6656    0.3010   -1.1564 C   0  0  0  0  0  0  0  0  0  0  0  0
   -0.1047    0.9160   -1.6335 H   0  0  0  0  0  0  0  0  0  0  0  0
    1.6057    0.8590   -1.1783 H   0  0  0  0  0  0  0  0  0  0  0  0
    0.9061   -1.2468   -2.1226 S   0  0  0  0  0  0  0  0  0  0  0  0
    1.1981   -0.7592   -3.3475 H   0  0  0  0  0  0  0  0  0  0  0  0
    0.2199    1.2939    1.1518 C   0  0  0  0  0  0  0  0  0  0  0  0
   -0.6713    1.4553    1.9773 O   0  0  0  0  0  0  0  0  0  0  0  0
    1.0552    2.3671    0.8870 N   0  0  0  0  0  0  0  0  0  0  0  0
    1.8264    2.2132    0.2452 H   0  0  0  0  0  0  0  0  0  0  0  0
    1.0100    3.6183    1.6363 C   0  0  0  0  0  0  0  0  0  0  0  0
    1.2017    3.4360    2.6991 H   0  0  0  0  0  0  0  0  0  0  0  0
    1.7692    4.3118    1.2618 H   0  0  0  0  0  0  0  0  0  0  0  0
    0.0288    4.0934    1.5317 H   0  0  0  0  0  0  0  0  0  0  0  0
  1  2  1  0  0  0  0
  2  3  1  0  0  0  0
  2  4  1  0  0  0  0
  2  5  1  0  0  0  0
  5  6  2  0  0  0  0
  5  7  1  0  0  0  0
  7  8  1  0  0  0  0
  7  9  1  0  0  0  0
  9 10  1  0  0  0  0
  9 11  1  0  0  0  0
  9 16  1  0  0  0  0
 11 12  1  0  0  0  0
 11 13  1  0  0  0  0
 11 14  1  0  0  0  0
 14 15  1  0  0  0  0
 16 17  2  0  0  0  0
 16 18  1  0  0  0  0
 18 19  1  0  0  0  0
 18 20  1  0  0  0  0
 20 21  1  0  0  0  0
 20 22  1  0  0  0  0
 20 23  1  0  0  0  0
M  END
$$$$

  -OEChem-01062216073D

 23 22  0     1  0  0  0  0  0999 V2000
   -2.7296   -3.4228    1.3088 H   0  0  0  0  0  0  0  0  0  0  0  0
   -2.7246   -2.4071    0.9035 C   0  0  0  0  0  0  0  0  0  0  0  0
   -3.2551   -1.7495    1.5965 H   0  0  0  0  0  0  0  0  0  0  0  0
   -3.2425   -2.4091   -0.0585 H   0  0  0  0  0  0  0  0  0  0  0  0
   -1.2979   -1.9248    0.7222 C   0  0  0  0  0  0  0  0  0  0  0  0
   -0.3722   -2.6659    1.0116 O   0  0  0  0  0  0  0  0  0  0  0  0
   -1.0733   -0.6430    0.2590 N   0  0  0  0  0  0  0  0  0  0  0  0
   -1.8879   -0.0363    0.2563 H   0  0  0  0  0  0  0  0  0  0  0  0
    0.2514    0.0063    0.2855 C   0  0  1  0  0  0  0  0  0  0  0  0
    1.0030   -0.6483    0.7397 H   0  0  0  0  0  0  0  0  0  0  0  0
    0.6716    0.2891   -1.1697 C   0  0  0  0  0  0  0  0  0  0  0  0
   -0.0914    0.9005   -1.6626 H   0  0  0  0  0  0  0  0  0  0  0  0
    1.6155    0.8418   -1.1844 H   0  0  0  0  0  0  0  0  0  0  0  0
    0.9184   -1.2700   -2.1156 S   0  0  0  0  0  0  0  0  0  0  0  0
    1.2544   -0.7995   -3.3358 H   0  0  0  0  0  0  0  0  0  0  0  0
    0.2119    1.2990    1.1399 C   0  0  0  0  0  0  0  0  0  0  0  0
   -0.4869    1.3396    2.1444 O   0  0  0  0  0  0  0  0  0  0  0  0
    0.7976    2.4827    0.7187 N   0  0  0  0  0  0  0  0  0  0  0  0
    1.3962    2.4483   -0.0998 H   0  0  0  0  0  0  0  0  0  0  0  0
    0.7248    3.7255    1.4798 C   0  0  0  0  0  0  0  0  0  0  0  0
    1.1663    3.5933    2.4733 H   0  0  0  0  0  0  0  0  0  0  0  0
    1.2709    4.5198    0.9619 H   0  0  0  0  0  0  0  0  0  0  0  0
   -0.3166    4.0437    1.5970 H   0  0  0  0  0  0  0  0  0  0  0  0
  1  2  1  0  0  0  0
  2  3  1  0  0  0  0
  2  4  1  0  0  0  0
  2  5  1  0  0  0  0
  5  6  2  0  0  0  0
  5  7  1  0  0  0  0
  7  8  1  0  0  0  0
  7  9  1  0  0  0  0
  9 10  1  0  0  0  0
  9 11  1  0  0  0  0
  9 16  1  0  0  0  0
 11 12  1  0  0  0  0
 11 13  1  0  0  0  0
 11 14  1  0  0  0  0
 14 15  1  0  0  0  0
 16 17  2  0  0  0  0
 16 18  1  0  0  0  0
 18 19  1  0  0  0  0
 18 20  1  0  0  0  0
 20 21  1  0  0  0  0
 20 22  1  0  0  0  0
 20 23  1  0  0  0  0
M  END
$$$$

  -OEChem-01062216073D

 23 22  0     1  0  0  0  0  0999 V2000
   -2.7258   -3.4399    1.2955 H   0  0  0  0  0  0  0  0  0  0  0  0
   -2.7251   -2.4223    0.8949 C   0  0  0  0  0  0  0  0  0  0  0  0
   -3.2756   -1.7740    1.5809 H   0  0  0  0  0  0  0  0  0  0  0  0
   -3.2249   -2.4262   -0.0766 H   0  0  0  0  0  0  0  0  0  0  0  0
   -1.3006   -1.9233    0.7427 C   0  0  0  0  0  0  0  0  0  0  0  0
   -0.3732   -2.6554    1.0478 O   0  0  0  0  0  0  0  0  0  0  0  0
   -1.0808   -0.6410    0.2773 N   0  0  0  0  0  0  0  0  0  0  0  0
   -1.9038   -0.0504    0.2136 H   0  0  0  0  0  0  0  0  0  0  0  0
    0.2409    0.0148    0.2886 C   0  0  1  0  0  0  0  0  0  0  0  0
    0.9960   -0.6358    0.7432 H   0  0  0  0  0  0  0  0  0  0  0  0
    0.6620    0.2901   -1.1670 C   0  0  0  0  0  0  0  0  0  0  0  0
   -0.1026    0.8926   -1.6679 H   0  0  0  0  0  0  0  0  0  0  0  0
    1.6028    0.8493   -1.1776 H   0  0  0  0  0  0  0  0  0  0  0  0
    0.9172   -1.2737   -2.1021 S   0  0  0  0  0  0  0  0  0  0  0  0
    1.3012   -0.8118   -3.3114 H   0  0  0  0  0  0  0  0  0  0  0  0
    0.2063    1.3071    1.1409 C   0  0  0  0  0  0  0  0  0  0  0  0
   -0.2312    1.2684    2.2825 O   0  0  0  0  0  0  0  0  0  0  0  0
    0.5000    2.5521    0.6064 N   0  0  0  0  0  0  0  0  0  0  0  0
    0.8531    2.5884   -0.3438 H   0  0  0  0  0  0  0  0  0  0  0  0
    0.4165    3.7918    1.3713 C   0  0  0  0  0  0  0  0  0  0  0  0
    1.0768    3.7489    2.2441 H   0  0  0  0  0  0  0  0  0  0  0  0
    0.7190    4.6412    0.7513 H   0  0  0  0  0  0  0  0  0  0  0  0
   -0.6094    3.9632    1.7142 H   0  0  0  0  0  0  0  0  0  0  0  0
  1  2  1  0  0  0  0
  2  3  1  0  0  0  0
  2  4  1  0  0  0  0
  2  5  1  0  0  0  0
  5  6  2  0  0  0  0
  5  7  1  0  0  0  0
  7  8  1  0  0  0  0
  7  9  1  0  0  0  0
  9 10  1  0  0  0  0
  9 11  1  0  0  0  0
  9 16  1  0  0  0  0
 11 12  1  0  0  0  0
 11 13  1  0  0  0  0
 11 14  1  0  0  0  0
 14 15  1  0  0  0  0
 16 17  2  0  0  0  0
 16 18  1  0  0  0  0
 18 19  1  0  0  0  0
 18 20  1  0  0  0  0
 20 21  1  0  0  0  0
 20 22  1  0  0  0  0
 20 23  1  0  0  0  0
M  END
$$$$

  -OEChem-01062216073D

 23 22  0     1  0  0  0  0  0999 V2000
   -2.7238   -3.4641    1.2724 H   0  0  0  0  0  0  0  0  0  0  0  0
   -2.7245   -2.4444    0.8771 C   0  0  0  0  0  0  0  0  0  0  0  0
   -3.3048   -1.8077    1.5493 H   0  0  0  0  0  0  0  0  0  0  0  0
   -3.1942   -2.4494   -0.1092 H   0  0  0  0  0  0  0  0  0  0  0  0
   -1.3031   -1.9253    0.7701 C   0  0  0  0  0  0  0  0  0  0  0  0
   -0.3759   -2.6418    1.1090 O   0  0  0  0  0  0  0  0  0  0  0  0
   -1.0876   -0.6434    0.3011 N   0  0  0  0  0  0  0  0  0  0  0  0
   -1.9160   -0.0763    0.1549 H   0  0  0  0  0  0  0  0  0  0  0  0
    0.2296    0.0212    0.2995 C   0  0  1  0  0  0  0  0  0  0  0  0
    0.9899   -0.6258    0.7515 H   0  0  0  0  0  0  0  0  0  0  0  0
    0.6481    0.2974   -1.1562 C   0  0  0  0  0  0  0  0  0  0  0  0
   -0.1211    0.8901   -1.6611 H   0  0  0  0  0  0  0  0  0  0  0  0
    1.5825    0.8682   -1.1635 H   0  0  0  0  0  0  0  0  0  0  0  0
    0.9132   -1.2662   -2.0891 S   0  0  0  0  0  0  0  0  0  0  0  0
    1.3273   -0.8042   -3.2886 H   0  0  0  0  0  0  0  0  0  0  0  0
    0.2001    1.3153    1.1462 C   0  0  0  0  0  0  0  0  0  0  0  0
    0.0692    1.2472    2.3595 O   0  0  0  0  0  0  0  0  0  0  0  0
    0.1793    2.5719    0.5613 N   0  0  0  0  0  0  0  0  0  0  0  0
    0.2619    2.6266   -0.4483 H   0  0  0  0  0  0  0  0  0  0  0  0
    0.0930    3.8103    1.3279 C   0  0  0  0  0  0  0  0  0  0  0  0
    0.9354    3.8909    2.0232 H   0  0  0  0  0  0  0  0  0  0  0  0
    0.1165    4.6739    0.6565 H   0  0  0  0  0  0  0  0  0  0  0  0
   -0.8399    3.8431    1.9006 H   0  0  0  0  0  0  0  0  0  0  0  0
  1  2  1  0  0  0  0
  2  3  1  0  0  0  0
  2  4  1  0  0  0  0
  2  5  1  0  0  0  0
  5  6  2  0  0  0  0
  5  7  1  0  0  0  0
  7  8  1  0  0  0  0
  7  9  1  0  0  0  0
  9 10  1  0  0  0  0
  9 11  1  0  0  0  0
  9 16  1  0  0  0  0
 11 12  1  0  0  0  0
 11 13  1  0  0  0  0
 11 14  1  0  0  0  0
 14 15  1  0  0  0  0
 16 17  2  0  0  0  0
 16 18  1  0  0  0  0
 18 19  1  0  0  0  0
 18 20  1  0  0  0  0
 20 21  1  0  0  0  0
 20 22  1  0  0  0  0
 20 23  1  0  0  0  0
M  END
$$$$

  -OEChem-01062216073D

 23 22  0     1  0  0  0  0  0999 V2000
   -2.7152   -3.5015    1.2396 H   0  0  0  0  0  0  0  0  0  0  0  0
   -2.7214   -2.4817    0.8445 C   0  0  0  0  0  0  0  0  0  0  0  0
   -3.3491   -1.8599    1.4872 H   0  0  0  0  0  0  0  0  0  0  0  0
   -3.1418   -2.4978   -0.1637 H   0  0  0  0  0  0  0  0  0  0  0  0
   -1.3094   -1.9284    0.8072 C   0  0  0  0  0  0  0  0  0  0  0  0
   -0.3849   -2.6178    1.2032 O   0  0  0  0  0  0  0  0  0  0  0  0
   -1.0993   -0.6471    0.3336 N   0  0  0  0  0  0  0  0  0  0  0  0
   -1.9264   -0.1167    0.0822 H   0  0  0  0  0  0  0  0  0  0  0  0
    0.2132    0.0271    0.3175 C   0  0  1  0  0  0  0  0  0  0  0  0
    0.9813   -0.6169    0.7615 H   0  0  0  0  0  0  0  0  0  0  0  0
    0.6222    0.3119   -1.1379 C   0  0  0  0  0  0  0  0  0  0  0  0
   -0.1511    0.9005   -1.6400 H   0  0  0  0  0  0  0  0  0  0  0  0
    1.5515    0.8917   -1.1448 H   0  0  0  0  0  0  0  0  0  0  0  0
    0.8921   -1.2485   -2.0743 S   0  0  0  0  0  0  0  0  0  0  0  0
    1.3413   -0.7819   -3.2594 H   0  0  0  0  0  0  0  0  0  0  0  0
    0.1890    1.3234    1.1574 C   0  0  0  0  0  0  0  0  0  0  0  0
    0.4080    1.2843    2.3588 O   0  0  0  0  0  0  0  0  0  0  0  0
   -0.1498    2.5427    0.5921 N   0  0  0  0  0  0  0  0  0  0  0  0
   -0.3509    2.5658   -0.4018 H   0  0  0  0  0  0  0  0  0  0  0  0
   -0.2151    3.7853    1.3537 C   0  0  0  0  0  0  0  0  0  0  0  0
    0.7520    3.9994    1.8212 H   0  0  0  0  0  0  0  0  0  0  0  0
   -0.4722    4.6207    0.6955 H   0  0  0  0  0  0  0  0  0  0  0  0
   -0.9769    3.7152    2.1374 H   0  0  0  0  0  0  0  0  0  0  0  0
  1  2  1  0  0  0  0
  2  3  1  0  0  0  0
  2  4  1  0  0  0  0
  2  5  1  0  0  0  0
  5  6  2  0  0  0  0
  5  7  1  0  0  0  0
  7  8  1  0  0  0  0
  7  9  1  0  0  0  0
  9 10  1  0  0  0  0
  9 11  1  0  0  0  0
  9 16  1  0  0  0  0
 11 12  1  0  0  0  0
 11 13  1  0  0  0  0
 11 14  1  0  0  0  0
 14 15  1  0  0  0  0
 16 17  2  0  0  0  0
 16 18  1  0  0  0  0
 18 19  1  0  0  0  0
 18 20  1  0  0  0  0
 20 21  1  0  0  0  0
 20 22  1  0  0  0  0
 20 23  1  0  0  0  0
M  END
$$$$

  -OEChem-01062216073D

 23 22  0     1  0  0  0  0  0999 V2000
   -2.6832   -3.5723    1.1643 H   0  0  0  0  0  0  0  0  0  0  0  0
   -2.7037   -2.5543    0.7647 C   0  0  0  0  0  0  0  0  0  0  0  0
   -3.4330   -1.9695    1.3299 H   0  0  0  0  0  0  0  0  0  0  0  0
   -3.0091   -2.5954   -0.2835 H   0  0  0  0  0  0  0  0  0  0  0  0
   -1.3297   -1.9215    0.8810 C   0  0  0  0  0  0  0  0  0  0  0  0
   -0.4259   -2.5461    1.4090 O   0  0  0  0  0  0  0  0  0  0  0  0
   -1.1299   -0.6425    0.3966 N   0  0  0  0  0  0  0  0  0  0  0  0
   -1.9206   -0.2080   -0.0655 H   0  0  0  0  0  0  0  0  0  0  0  0
    0.1825    0.0332    0.3576 C   0  0  1  0  0  0  0  0  0  0  0  0
    0.9593   -0.6120    0.7843 H   0  0  0  0  0  0  0  0  0  0  0  0
    0.5653    0.3298   -1.1012 C   0  0  0  0  0  0  0  0  0  0  0  0
   -0.2102    0.9288   -1.5873 H   0  0  0  0  0  0  0  0  0  0  0  0
    1.4969    0.9061   -1.1170 H   0  0  0  0  0  0  0  0  0  0  0  0
    0.8164   -1.2274   -2.0480 S   0  0  0  0  0  0  0  0  0  0  0  0
    1.2997   -0.7570   -3.2181 H   0  0  0  0  0  0  0  0  0  0  0  0
    0.1813    1.3347    1.1872 C   0  0  0  0  0  0  0  0  0  0  0  0
    0.7771    1.3958    2.2522 O   0  0  0  0  0  0  0  0  0  0  0  0
   -0.4478    2.4757    0.7156 N   0  0  0  0  0  0  0  0  0  0  0  0
   -0.9499    2.4105   -0.1629 H   0  0  0  0  0  0  0  0  0  0  0  0
   -0.4630    3.7382    1.4462 C   0  0  0  0  0  0  0  0  0  0  0  0
    0.5577    4.1034    1.6020 H   0  0  0  0  0  0  0  0  0  0  0  0
   -1.0179    4.4954    0.8840 H   0  0  0  0  0  0  0  0  0  0  0  0
   -0.9435    3.6110    2.4222 H   0  0  0  0  0  0  0  0  0  0  0  0
  1  2  1  0  0  0  0
  2  3  1  0  0  0  0
  2  4  1  0  0  0  0
  2  5  1  0  0  0  0
  5  6  2  0  0  0  0
  5  7  1  0  0  0  0
  7  8  1  0  0  0  0
  7  9  1  0  0  0  0
  9 10  1  0  0  0  0
  9 11  1  0  0  0  0
  9 16  1  0  0  0  0
 11 12  1  0  0  0  0
 11 13  1  0  0  0  0
 11 14  1  0  0  0  0
 14 15  1  0  0  0  0
 16 17  2  0  0  0  0
 16 18  1  0  0  0  0
 18 19  1  0  0  0  0
 18 20  1  0  0  0  0
 20 21  1  0  0  0  0
 20 22  1  0  0  0  0
 20 23  1  0  0  0  0
M  END
$$$$

  -OEChem-01062216073D

 23 22  0     1  0  0  0  0  0999 V2000
   -2.6454   -3.6185    1.1376 H   0  0  0  0  0  0  0  0  0  0  0  0
   -2.6629   -2.6270    0.6762 C   0  0  0  0  0  0  0  0  0  0  0  0
   -3.5002   -2.0614    1.0916 H   0  0  0  0  0  0  0  0  0  0  0  0
   -2.8058   -2.7440   -0.4006 H   0  0  0  0  0  0  0  0  0  0  0  0
   -1.3586   -1.9019    0.9504 C   0  0  0  0  0  0  0  0  0  0  0  0
   -0.5016   -2.4442    1.6264 O   0  0  0  0  0  0  0  0  0  0  0  0
   -1.1733   -0.6272    0.4489 N   0  0  0  0  0  0  0  0  0  0  0  0
   -1.8781   -0.3249   -0.2141 H   0  0  0  0  0  0  0  0  0  0  0  0
    0.1481    0.0323    0.3964 C   0  0  1  0  0  0  0  0  0  0  0  0
    0.9258   -0.6230    0.8065 H   0  0  0  0  0  0  0  0  0  0  0  0
    0.5066    0.3423   -1.0642 C   0  0  0  0  0  0  0  0  0  0  0  0
   -0.2659    0.9644   -1.5262 H   0  0  0  0  0  0  0  0  0  0  0  0
    1.4476    0.9035   -1.0885 H   0  0  0  0  0  0  0  0  0  0  0  0
    0.7171   -1.2086   -2.0314 S   0  0  0  0  0  0  0  0  0  0  0  0
    1.2044   -0.7310   -3.1975 H   0  0  0  0  0  0  0  0  0  0  0  0
    0.1800    1.3399    1.2133 C   0  0  0  0  0  0  0  0  0  0  0  0
    1.0664    1.5362    2.0316 O   0  0  0  0  0  0  0  0  0  0  0  0
   -0.6771    2.3827    0.9026 N   0  0  0  0  0  0  0  0  0  0  0  0
   -1.4435    2.1810    0.2702 H   0  0  0  0  0  0  0  0  0  0  0  0
   -0.6660    3.6573    1.6116 C   0  0  0  0  0  0  0  0  0  0  0  0
    0.3119    4.1411    1.5160 H   0  0  0  0  0  0  0  0  0  0  0  0
   -1.4239    4.3285    1.1966 H   0  0  0  0  0  0  0  0  0  0  0  0
   -0.8807    3.5063    2.6748 H   0  0  0  0  0  0  0  0  0  0  0  0
  1  2  1  0  0  0  0
  2  3  1  0  0  0  0
  2  4  1  0  0  0  0
  2  5  1  0  0  0  0
  5  6  2  0  0  0  0
  5  7  1  0  0  0  0
  7  8  1  0  0  0  0
  7  9  1  0  0  0  0
  9 10  1  0  0  0  0
  9 11  1  0  0  0  0
  9 16  1  0  0  0  0
 11 12  1  0  0  0  0
 11 13  1  0  0  0  0
 11 14  1  0  0  0  0
 14 15  1  0  0  0  0
 16 17  2  0  0  0  0
 16 18  1  0  0  0  0
 18 19  1  0  0  0  0
 18 20  1  0  0  0  0
 20 21  1  0  0  0  0
 20 22  1  0  0  0  0
 20 23  1  0  0  0  0
M  END
$$$$

  -OEChem-01062216073D

 23 22  0     1  0  0  0  0  0999 V2000
   -2.6239   -3.6490    1.1055 H   0  0  0  0  0  0  0  0  0  0  0  0
   -2.6367   -2.6685    0.6210 C   0  0  0  0  0  0  0  0  0  0  0  0
   -3.5168   -2.1190    0.9628 H   0  0  0  0  0  0  0  0  0  0  0  0
   -2.6995   -2.8130   -0.4602 H   0  0  0  0  0  0  0  0  0  0  0  0
   -1.3764   -1.8992    0.9688 C   0  0  0  0  0  0  0  0  0  0  0  0
   -0.5511   -2.4004    1.7126 O   0  0  0  0  0  0  0  0  0  0  0  0
   -1.1980   -0.6247    0.4645 N   0  0  0  0  0  0  0  0  0  0  0  0
   -1.8574   -0.3739   -0.2645 H   0  0  0  0  0  0  0  0  0  0  0  0
    0.1284    0.0263    0.4169 C   0  0  1  0  0  0  0  0  0  0  0  0
    0.9043   -0.6354    0.8196 H   0  0  0  0  0  0  0  0  0  0  0  0
    0.4770    0.3475   -1.0424 C   0  0  0  0  0  0  0  0  0  0  0  0
   -0.2945    0.9816   -1.4901 H   0  0  0  0  0  0  0  0  0  0  0  0
    1.4220    0.9020   -1.0693 H   0  0  0  0  0  0  0  0  0  0  0  0
    0.6684   -1.1980   -2.0228 S   0  0  0  0  0  0  0  0  0  0  0  0
    1.1693   -0.7156   -3.1815 H   0  0  0  0  0  0  0  0  0  0  0  0
    0.1768    1.3338    1.2310 C   0  0  0  0  0  0  0  0  0  0  0  0
    1.2110    1.6682    1.7910 O   0  0  0  0  0  0  0  0  0  0  0  0
   -0.8525    2.2541    1.1326 N   0  0  0  0  0  0  0  0  0  0  0  0
   -1.7299    1.9133    0.7546 H   0  0  0  0  0  0  0  0  0  0  0  0
   -0.8412    3.5314    1.8369 C   0  0  0  0  0  0  0  0  0  0  0  0
    0.0200    4.1328    1.5265 H   0  0  0  0  0  0  0  0  0  0  0  0
   -1.7520    4.0955    1.6140 H   0  0  0  0  0  0  0  0  0  0  0  0
   -0.7872    3.3721    2.9192 H   0  0  0  0  0  0  0  0  0  0  0  0
  1  2  1  0  0  0  0
  2  3  1  0  0  0  0
  2  4  1  0  0  0  0
  2  5  1  0  0  0  0
  5  6  2  0  0  0  0
  5  7  1  0  0  0  0
  7  8  1  0  0  0  0
  7  9  1  0  0  0  0
  9 10  1  0  0  0  0
  9 11  1  0  0  0  0
  9 16  1  0  0  0  0
 11 12  1  0  0  0  0
 11 13  1  0  0  0  0
 11 14  1  0  0  0  0
 14 15  1  0  0  0  0
 16 17  2  0  0  0  0
 16 18  1  0  0  0  0
 18 19  1  0  0  0  0
 18 20  1  0  0  0  0
 20 21  1  0  0  0  0
 20 22  1  0  0  0  0
 20 23  1  0  0  0  0
M  END
$$$$

  -OEChem-01062216073D

 23 22  0     1  0  0  0  0  0999 V2000
   -2.6056   -3.6709    1.0582 H   0  0  0  0  0  0  0  0  0  0  0  0
   -2.6247   -2.6845    0.5863 C   0  0  0  0  0  0  0  0  0  0  0  0
   -3.5210   -2.1537    0.9153 H   0  0  0  0  0  0  0  0  0  0  0  0
   -2.6619   -2.8161   -0.4978 H   0  0  0  0  0  0  0  0  0  0  0  0
   -1.3850   -1.8990    0.9704 C   0  0  0  0  0  0  0  0  0  0  0  0
   -0.5793   -2.3828    1.7466 O   0  0  0  0  0  0  0  0  0  0  0  0
   -1.2045   -0.6248    0.4671 N   0  0  0  0  0  0  0  0  0  0  0  0
   -1.8459   -0.3844   -0.2819 H   0  0  0  0  0  0  0  0  0  0  0  0
    0.1256    0.0204    0.4255 C   0  0  1  0  0  0  0  0  0  0  0  0
    0.8994   -0.6449    0.8257 H   0  0  0  0  0  0  0  0  0  0  0  0
    0.4684    0.3447   -1.0345 C   0  0  0  0  0  0  0  0  0  0  0  0
   -0.3029    0.9846   -1.4747 H   0  0  0  0  0  0  0  0  0  0  0  0
    1.4157    0.8951   -1.0658 H   0  0  0  0  0  0  0  0  0  0  0  0
    0.6485   -1.1987   -2.0206 S   0  0  0  0  0  0  0  0  0  0  0  0
    1.1371   -0.7109   -3.1824 H   0  0  0  0  0  0  0  0  0  0  0  0
    0.1810    1.3272    1.2402 C   0  0  0  0  0  0  0  0  0  0  0  0
    1.2615    1.7950    1.5714 O   0  0  0  0  0  0  0  0  0  0  0  0
   -0.9550    2.1029    1.3876 N   0  0  0  0  0  0  0  0  0  0  0  0
   -1.8385    1.6342    1.2144 H   0  0  0  0  0  0  0  0  0  0  0  0
   -0.9619    3.3668    2.1148 C   0  0  0  0  0  0  0  0  0  0  0  0
   -0.2632    4.0761    1.6581 H   0  0  0  0  0  0  0  0  0  0  0  0
   -1.9624    3.8096    2.0948 H   0  0  0  0  0  0  0  0  0  0  0  0
   -0.6715    3.2094    3.1591 H   0  0  0  0  0  0  0  0  0  0  0  0
  1  2  1  0  0  0  0
  2  3  1  0  0  0  0
  2  4  1  0  0  0  0
  2  5  1  0  0  0  0
  5  6  2  0  0  0  0
  5  7  1  0  0  0  0
  7  8  1  0  0  0  0
  7  9  1  0  0  0  0
  9 10  1  0  0  0  0
  9 11  1  0  0  0  0
  9 16  1  0  0  0  0
 11 12  1  0  0  0  0
 11 13  1  0  0  0  0
 11 14  1  0  0  0  0
 14 15  1  0  0  0  0
 16 17  2  0  0  0  0
 16 18  1  0  0  0  0
 18 19  1  0  0  0  0
 18 20  1  0  0  0  0
 20 21  1  0  0  0  0
 20 22  1  0  0  0  0
 20 23  1  0  0  0  0
M  END
$$$$

  -OEChem-01062216073D

 23 22  0     1  0  0  0  0  0999 V2000
   -2.6136   -3.6658    1.0528 H   0  0  0  0  0  0  0  0  0  0  0  0
   -2.6195   -2.6881    0.5622 C   0  0  0  0  0  0  0  0  0  0  0  0
   -3.5226   -2.1503    0.8598 H   0  0  0  0  0  0  0  0  0  0  0  0
   -2.6304   -2.8392   -0.5201 H   0  0  0  0  0  0  0  0  0  0  0  0
   -1.3876   -1.8980    0.9609 C   0  0  0  0  0  0  0  0  0  0  0  0
   -0.5920   -2.3748    1.7517 O   0  0  0  0  0  0  0  0  0  0  0  0
   -1.2044   -0.6228    0.4619 N   0  0  0  0  0  0  0  0  0  0  0  0
   -1.8435   -0.3766   -0.2877 H   0  0  0  0  0  0  0  0  0  0  0  0
    0.1273    0.0202    0.4245 C   0  0  1  0  0  0  0  0  0  0  0  0
    0.9001   -0.6467    0.8233 H   0  0  0  0  0  0  0  0  0  0  0  0
    0.4648    0.3399   -1.0388 C   0  0  0  0  0  0  0  0  0  0  0  0
   -0.3078    0.9797   -1.4768 H   0  0  0  0  0  0  0  0  0  0  0  0
    1.4128    0.8885   -1.0792 H   0  0  0  0  0  0  0  0  0  0  0  0
    0.6392   -1.2075   -2.0199 S   0  0  0  0  0  0  0  0  0  0  0  0
    1.1194   -0.7230   -3.1865 H   0  0  0  0  0  0  0  0  0  0  0  0
    0.1849    1.3259    1.2438 C   0  0  0  0  0  0  0  0  0  0  0  0
    1.2462    1.9194    1.3789 O   0  0  0  0  0  0  0  0  0  0  0  0
   -0.9826    1.9424    1.6558 N   0  0  0  0  0  0  0  0  0  0  0  0
   -1.8175    1.3646    1.6354 H   0  0  0  0  0  0  0  0  0  0  0  0
   -0.9997    3.1790    2.4280 C   0  0  0  0  0  0  0  0  0  0  0  0
   -0.5050    3.9838    1.8740 H   0  0  0  0  0  0  0  0  0  0  0  0
   -2.0307    3.4847    2.6302 H   0  0  0  0  0  0  0  0  0  0  0  0
   -0.4836    3.0415    3.3841 H   0  0  0  0  0  0  0  0  0  0  0  0
  1  2  1  0  0  0  0
  2  3  1  0  0  0  0
  2  4  1  0  0  0  0
  2  5  1  0  0  0  0
  5  6  2  0  0  0  0
  5  7  1  0  0  0  0
  7  8  1  0  0  0  0
  7  9  1  0  0  0  0
  9 10  1  0  0  0  0
  9 11  1  0  0  0  0
  9 16  1  0  0  0  0
 11 12  1  0  0  0  0
 11 13  1  0  0  0  0
 11 14  1  0  0  0  0
 14 15  1  0  0  0  0
 16 17  2  0  0  0  0
 16 18  1  0  0  0  0
 18 19  1  0  0  0  0
 18 20  1  0  0  0  0
 20 21  1  0  0  0  0
 20 22  1  0  0  0  0
 20 23  1  0  0  0  0
M  END
$$$$

  -OEChem-01062216073D

 23 22  0     1  0  0  0  0  0999 V2000
   -2.6157   -3.6587    1.0355 H   0  0  0  0  0  0  0  0  0  0  0  0
   -2.6192   -2.6805    0.5462 C   0  0  0  0  0  0  0  0  0  0  0  0
   -3.5233   -2.1426    0.8408 H   0  0  0  0  0  0  0  0  0  0  0  0
   -2.6259   -2.8305   -0.5363 H   0  0  0  0  0  0  0  0  0  0  0  0
   -1.3883   -1.8914    0.9504 C   0  0  0  0  0  0  0  0  0  0  0  0
   -0.5987   -2.3651    1.7493 O   0  0  0  0  0  0  0  0  0  0  0  0
   -1.2011   -0.6153    0.4563 N   0  0  0  0  0  0  0  0  0  0  0  0
   -1.8449   -0.3557   -0.2852 H   0  0  0  0  0  0  0  0  0  0  0  0
    0.1324    0.0247    0.4203 C   0  0  1  0  0  0  0  0  0  0  0  0
    0.9031   -0.6439    0.8200 H   0  0  0  0  0  0  0  0  0  0  0  0
    0.4676    0.3346   -1.0470 C   0  0  0  0  0  0  0  0  0  0  0  0
   -0.3050    0.9734   -1.4864 H   0  0  0  0  0  0  0  0  0  0  0  0
    1.4166    0.8805   -1.0960 H   0  0  0  0  0  0  0  0  0  0  0  0
    0.6369   -1.2197   -2.0185 S   0  0  0  0  0  0  0  0  0  0  0  0
    1.0998   -0.7409   -3.1945 H   0  0  0  0  0  0  0  0  0  0  0  0
    0.1889    1.3280    1.2466 C   0  0  0  0  0  0  0  0  0  0  0  0
    1.1809    2.0441    1.2103 O   0  0  0  0  0  0  0  0  0  0  0  0
   -0.9335    1.7754    1.9188 N   0  0  0  0  0  0  0  0  0  0  0  0
   -1.6860    1.1000    2.0202 H   0  0  0  0  0  0  0  0  0  0  0  0
   -0.9476    2.9799    2.7400 C   0  0  0  0  0  0  0  0  0  0  0  0
   -0.6763    3.8558    2.1410 H   0  0  0  0  0  0  0  0  0  0  0  0
   -1.9471    3.1435    3.1543 H   0  0  0  0  0  0  0  0  0  0  0  0
   -0.2384    2.8870    3.5693 H   0  0  0  0  0  0  0  0  0  0  0  0
  1  2  1  0  0  0  0
  2  3  1  0  0  0  0
  2  4  1  0  0  0  0
  2  5  1  0  0  0  0
  5  6  2  0  0  0  0
  5  7  1  0  0  0  0
  7  8  1  0  0  0  0
  7  9  1  0  0  0  0
  9 10  1  0  0  0  0
  9 11  1  0  0  0  0
  9 16  1  0  0  0  0
 11 12  1  0  0  0  0
 11 13  1  0  0  0  0
 11 14  1  0  0  0  0
 14 15  1  0  0  0  0
 16 17  2  0  0  0  0
 16 18  1  0  0  0  0
 18 19  1  0  0  0  0
 18 20  1  0  0  0  0
 20 21  1  0  0  0  0
 20 22  1  0  0  0  0
 20 23  1  0  0  0  0
M  END
$$$$

  -OEChem-01062216073D

 23 22  0     1  0  0  0  0  0999 V2000
   -2.6222   -3.6433    1.0208 H   0  0  0  0  0  0  0  0  0  0  0  0
   -2.6204   -2.6648    0.5321 C   0  0  0  0  0  0  0  0  0  0  0  0
   -3.5257   -2.1249    0.8193 H   0  0  0  0  0  0  0  0  0  0  0  0
   -2.6190   -2.8143   -0.5504 H   0  0  0  0  0  0  0  0  0  0  0  0
   -1.3911   -1.8780    0.9450 C   0  0  0  0  0  0  0  0  0  0  0  0
   -0.6090   -2.3491    1.7529 O   0  0  0  0  0  0  0  0  0  0  0  0
   -1.1980   -0.6015    0.4555 N   0  0  0  0  0  0  0  0  0  0  0  0
   -1.8497   -0.3264   -0.2733 H   0  0  0  0  0  0  0  0  0  0  0  0
    0.1377    0.0327    0.4162 C   0  0  1  0  0  0  0  0  0  0  0  0
    0.9059   -0.6377    0.8171 H   0  0  0  0  0  0  0  0  0  0  0  0
    0.4714    0.3298   -1.0554 C   0  0  0  0  0  0  0  0  0  0  0  0
   -0.2990    0.9694   -1.4975 H   0  0  0  0  0  0  0  0  0  0  0  0
    1.4233    0.8696   -1.1125 H   0  0  0  0  0  0  0  0  0  0  0  0
    0.6331   -1.2329   -2.0152 S   0  0  0  0  0  0  0  0  0  0  0  0
    1.0786   -0.7621   -3.2010 H   0  0  0  0  0  0  0  0  0  0  0  0
    0.1925    1.3327    1.2506 C   0  0  0  0  0  0  0  0  0  0  0  0
    1.0640    2.1706    1.0564 O   0  0  0  0  0  0  0  0  0  0  0  0
   -0.8087    1.6112    2.1622 N   0  0  0  0  0  0  0  0  0  0  0  0
   -1.4449    0.8455    2.3689 H   0  0  0  0  0  0  0  0  0  0  0  0
   -0.8049    2.7850    3.0266 C   0  0  0  0  0  0  0  0  0  0  0  0
   -0.7817    3.7020    2.4284 H   0  0  0  0  0  0  0  0  0  0  0  0
   -1.7070    2.8015    3.6457 H   0  0  0  0  0  0  0  0  0  0  0  0
    0.0693    2.7723    3.6861 H   0  0  0  0  0  0  0  0  0  0  0  0
  1  2  1  0  0  0  0
  2  3  1  0  0  0  0
  2  4  1  0  0  0  0
  2  5  1  0  0  0  0
  5  6  2  0  0  0  0
  5  7  1  0  0  0  0
  7  8  1  0  0  0  0
  7  9  1  0  0  0  0
  9 10  1  0  0  0  0
  9 11  1  0  0  0  0
  9 16  1  0  0  0  0
 11 12  1  0  0  0  0
 11 13  1  0  0  0  0
 11 14  1  0  0  0  0
 14 15  1  0  0  0  0
 16 17  2  0  0  0  0
 16 18  1  0  0  0  0
 18 19  1  0  0  0  0
 18 20  1  0  0  0  0
 20 21  1  0  0  0  0
 20 22  1  0  0  0  0
 20 23  1  0  0  0  0
M  END
$$$$

  -OEChem-01062216073D

 23 22  0     1  0  0  0  0  0999 V2000
   -2.6323   -3.6190    1.0199 H   0  0  0  0  0  0  0  0  0  0  0  0
   -2.6276   -2.6397    0.5330 C   0  0  0  0  0  0  0  0  0  0  0  0
   -3.5297   -2.0967    0.8242 H   0  0  0  0  0  0  0  0  0  0  0  0
   -2.6304   -2.7865   -0.5499 H   0  0  0  0  0  0  0  0  0  0  0  0
   -1.3937   -1.8593    0.9439 C   0  0  0  0  0  0  0  0  0  0  0  0
   -0.6186   -2.3268    1.7613 O   0  0  0  0  0  0  0  0  0  0  0  0
   -1.1927   -0.5838    0.4572 N   0  0  0  0  0  0  0  0  0  0  0  0
   -1.8500   -0.2962   -0.2618 H   0  0  0  0  0  0  0  0  0  0  0  0
    0.1462    0.0406    0.4112 C   0  0  1  0  0  0  0  0  0  0  0  0
    0.9111   -0.6334    0.8120 H   0  0  0  0  0  0  0  0  0  0  0  0
    0.4808    0.3284   -1.0626 C   0  0  0  0  0  0  0  0  0  0  0  0
   -0.2858    0.9712   -1.5070 H   0  0  0  0  0  0  0  0  0  0  0  0
    1.4360    0.8616   -1.1229 H   0  0  0  0  0  0  0  0  0  0  0  0
    0.6309   -1.2400   -2.0149 S   0  0  0  0  0  0  0  0  0  0  0  0
    1.0673   -0.7752   -3.2065 H   0  0  0  0  0  0  0  0  0  0  0  0
    0.1996    1.3355    1.2534 C   0  0  0  0  0  0  0  0  0  0  0  0
    0.9015    2.2842    0.9254 O   0  0  0  0  0  0  0  0  0  0  0  0
   -0.6114    1.4562    2.3659 N   0  0  0  0  0  0  0  0  0  0  0  0
   -1.1042    0.6130    2.6516 H   0  0  0  0  0  0  0  0  0  0  0  0
   -0.5881    2.6061    3.2609 C   0  0  0  0  0  0  0  0  0  0  0  0
   -0.8289    3.5235    2.7135 H   0  0  0  0  0  0  0  0  0  0  0  0
   -1.3254    2.4784    4.0593 H   0  0  0  0  0  0  0  0  0  0  0  0
    0.4016    2.7166    3.7163 H   0  0  0  0  0  0  0  0  0  0  0  0
  1  2  1  0  0  0  0
  2  3  1  0  0  0  0
  2  4  1  0  0  0  0
  2  5  1  0  0  0  0
  5  6  2  0  0  0  0
  5  7  1  0  0  0  0
  7  8  1  0  0  0  0
  7  9  1  0  0  0  0
  9 10  1  0  0  0  0
  9 11  1  0  0  0  0
  9 16  1  0  0  0  0
 11 12  1  0  0  0  0
 11 13  1  0  0  0  0
 11 14  1  0  0  0  0
 14 15  1  0  0  0  0
 16 17  2  0  0  0  0
 16 18  1  0  0  0  0
 18 19  1  0  0  0  0
 18 20  1  0  0  0  0
 20 21  1  0  0  0  0
 20 22  1  0  0  0  0
 20 23  1  0  0  0  0
M  END
$$$$

  -OEChem-01062216073D

 23 22  0     1  0  0  0  0  0999 V2000
   -2.6499   -3.5857    1.0410 H   0  0  0  0  0  0  0  0  0  0  0  0
   -2.6471   -2.6007    0.5655 C   0  0  0  0  0  0  0  0  0  0  0  0
   -3.5287   -2.0463    0.8961 H   0  0  0  0  0  0  0  0  0  0  0  0
   -2.6921   -2.7342   -0.5182 H   0  0  0  0  0  0  0  0  0  0  0  0
   -1.3865   -1.8454    0.9406 C   0  0  0  0  0  0  0  0  0  0  0  0
   -0.6004   -2.3249    1.7411 O   0  0  0  0  0  0  0  0  0  0  0  0
   -1.1770   -0.5709    0.4559 N   0  0  0  0  0  0  0  0  0  0  0  0
   -1.8493   -0.2603   -0.2392 H   0  0  0  0  0  0  0  0  0  0  0  0
    0.1638    0.0454    0.4013 C   0  0  1  0  0  0  0  0  0  0  0  0
    0.9281   -0.6303    0.8001 H   0  0  0  0  0  0  0  0  0  0  0  0
    0.5023    0.3309   -1.0719 C   0  0  0  0  0  0  0  0  0  0  0  0
   -0.2611    0.9766   -1.5180 H   0  0  0  0  0  0  0  0  0  0  0  0
    1.4593    0.8612   -1.1285 H   0  0  0  0  0  0  0  0  0  0  0  0
    0.6452   -1.2380   -2.0242 S   0  0  0  0  0  0  0  0  0  0  0  0
    1.0873   -0.7756   -3.2144 H   0  0  0  0  0  0  0  0  0  0  0  0
    0.2104    1.3341    1.2505 C   0  0  0  0  0  0  0  0  0  0  0  0
    0.6925    2.3761    0.8229 O   0  0  0  0  0  0  0  0  0  0  0  0
   -0.3521    1.3191    2.5123 N   0  0  0  0  0  0  0  0  0  0  0  0
   -0.6878    0.4172    2.8455 H   0  0  0  0  0  0  0  0  0  0  0  0
   -0.3248    2.4544    3.4252 C   0  0  0  0  0  0  0  0  0  0  0  0
   -0.8280    3.3181    2.9779 H   0  0  0  0  0  0  0  0  0  0  0  0
   -0.8377    2.2018    4.3583 H   0  0  0  0  0  0  0  0  0  0  0  0
    0.7082    2.7308    3.6613 H   0  0  0  0  0  0  0  0  0  0  0  0
  1  2  1  0  0  0  0
  2  3  1  0  0  0  0
  2  4  1  0  0  0  0
  2  5  1  0  0  0  0
  5  6  2  0  0  0  0
  5  7  1  0  0  0  0
  7  8  1  0  0  0  0
  7  9  1  0  0  0  0
  9 10  1  0  0  0  0
  9 11  1  0  0  0  0
  9 16  1  0  0  0  0
 11 12  1  0  0  0  0
 11 13  1  0  0  0  0
 11 14  1  0  0  0  0
 14 15  1  0  0  0  0
 16 17  2  0  0  0  0
 16 18  1  0  0  0  0
 18 19  1  0  0  0  0
 18 20  1  0  0  0  0
 20 21  1  0  0  0  0
 20 22  1  0  0  0  0
 20 23  1  0  0  0  0
M  END
$$$$

  -OEChem-01062216073D

 23 22  0     1  0  0  0  0  0999 V2000
   -2.6735   -3.5506    1.0734 H   0  0  0  0  0  0  0  0  0  0  0  0
   -2.6544   -2.5725    0.5846 C   0  0  0  0  0  0  0  0  0  0  0  0
   -3.5244   -1.9978    0.9107 H   0  0  0  0  0  0  0  0  0  0  0  0
   -2.7057   -2.7197   -0.4970 H   0  0  0  0  0  0  0  0  0  0  0  0
   -1.3794   -1.8343    0.9450 C   0  0  0  0  0  0  0  0  0  0  0  0
   -0.5866   -2.3274    1.7313 O   0  0  0  0  0  0  0  0  0  0  0  0
   -1.1605   -0.5612    0.4612 N   0  0  0  0  0  0  0  0  0  0  0  0
   -1.8395   -0.2332   -0.2193 H   0  0  0  0  0  0  0  0  0  0  0  0
    0.1841    0.0422    0.4023 C   0  0  1  0  0  0  0  0  0  0  0  0
    0.9461   -0.6404    0.7938 H   0  0  0  0  0  0  0  0  0  0  0  0
    0.5189    0.3314   -1.0706 C   0  0  0  0  0  0  0  0  0  0  0  0
   -0.2432    0.9832   -1.5102 H   0  0  0  0  0  0  0  0  0  0  0  0
    1.4779    0.8579   -1.1282 H   0  0  0  0  0  0  0  0  0  0  0  0
    0.6436   -1.2342   -2.0305 S   0  0  0  0  0  0  0  0  0  0  0  0
    1.0454   -0.7660   -3.2325 H   0  0  0  0  0  0  0  0  0  0  0  0
    0.2370    1.3267    1.2546 C   0  0  0  0  0  0  0  0  0  0  0  0
    0.4877    2.4225    0.7667 O   0  0  0  0  0  0  0  0  0  0  0  0
   -0.0322    1.2313    2.6059 N   0  0  0  0  0  0  0  0  0  0  0  0
   -0.2467    0.3020    2.9642 H   0  0  0  0  0  0  0  0  0  0  0  0
   -0.0165    2.3665    3.5188 C   0  0  0  0  0  0  0  0  0  0  0  0
   -0.7648    3.1082    3.2206 H   0  0  0  0  0  0  0  0  0  0  0  0
   -0.2436    2.0357    4.5368 H   0  0  0  0  0  0  0  0  0  0  0  0
    0.9700    2.8419    3.5218 H   0  0  0  0  0  0  0  0  0  0  0  0
  1  2  1  0  0  0  0
  2  3  1  0  0  0  0
  2  4  1  0  0  0  0
  2  5  1  0  0  0  0
  5  6  2  0  0  0  0
  5  7  1  0  0  0  0
  7  8  1  0  0  0  0
  7  9  1  0  0  0  0
  9 10  1  0  0  0  0
  9 11  1  0  0  0  0
  9 16  1  0  0  0  0
 11 12  1  0  0  0  0
 11 13  1  0  0  0  0
 11 14  1  0  0  0  0
 14 15  1  0  0  0  0
 16 17  2  0  0  0  0
 16 18  1  0  0  0  0
 18 19  1  0  0  0  0
 18 20  1  0  0  0  0
 20 21  1  0  0  0  0
 20 22  1  0  0  0  0
 20 23  1  0  0  0  0
M  END
$$$$

  -OEChem-01062216073D

 23 22  0     1  0  0  0  0  0999 V2000
   -2.6903   -3.5277    1.0989 H   0  0  0  0  0  0  0  0  0  0  0  0
   -2.6676   -2.5465    0.6167 C   0  0  0  0  0  0  0  0  0  0  0  0
   -3.5159   -1.9579    0.9739 H   0  0  0  0  0  0  0  0  0  0  0  0
   -2.7553   -2.6838   -0.4638 H   0  0  0  0  0  0  0  0  0  0  0  0
   -1.3681   -1.8356    0.9422 C   0  0  0  0  0  0  0  0  0  0  0  0
   -0.5567   -2.3543    1.6928 O   0  0  0  0  0  0  0  0  0  0  0  0
   -1.1408   -0.5634    0.4595 N   0  0  0  0  0  0  0  0  0  0  0  0
   -1.8340   -0.2099   -0.1934 H   0  0  0  0  0  0  0  0  0  0  0  0
    0.2038    0.0366    0.3996 C   0  0  1  0  0  0  0  0  0  0  0  0
    0.9665   -0.6486    0.7846 H   0  0  0  0  0  0  0  0  0  0  0  0
    0.5366    0.3332   -1.0721 C   0  0  0  0  0  0  0  0  0  0  0  0
   -0.2279    0.9855   -1.5072 H   0  0  0  0  0  0  0  0  0  0  0  0
    1.4938    0.8631   -1.1279 H   0  0  0  0  0  0  0  0  0  0  0  0
    0.6568   -1.2262   -2.0430 S   0  0  0  0  0  0  0  0  0  0  0  0
    1.0375   -0.7487   -3.2482 H   0  0  0  0  0  0  0  0  0  0  0  0
    0.2598    1.3201    1.2511 C   0  0  0  0  0  0  0  0  0  0  0  0
    0.2570    2.4350    0.7421 O   0  0  0  0  0  0  0  0  0  0  0  0
    0.3053    1.1991    2.6262 N   0  0  0  0  0  0  0  0  0  0  0  0
    0.2274    0.2566    3.0048 H   0  0  0  0  0  0  0  0  0  0  0  0
    0.3079    2.3361    3.5374 C   0  0  0  0  0  0  0  0  0  0  0  0
   -0.6146    2.9159    3.4288 H   0  0  0  0  0  0  0  0  0  0  0  0
    0.3805    1.9901    4.5729 H   0  0  0  0  0  0  0  0  0  0  0  0
    1.1621    2.9899    3.3321 H   0  0  0  0  0  0  0  0  0  0  0  0
  1  2  1  0  0  0  0
  2  3  1  0  0  0  0
  2  4  1  0  0  0  0
  2  5  1  0  0  0  0
  5  6  2  0  0  0  0
  5  7  1  0  0  0  0
  7  8  1  0  0  0  0
  7  9  1  0  0  0  0
  9 10  1  0  0  0  0
  9 11  1  0  0  0  0
  9 16  1  0  0  0  0
 11 12  1  0  0  0  0
 11 13  1  0  0  0  0
 11 14  1  0  0  0  0
 14 15  1  0  0  0  0
 16 17  2  0  0  0  0
 16 18  1  0  0  0  0
 18 19  1  0  0  0  0
 18 20  1  0  0  0  0
 20 21  1  0  0  0  0
 20 22  1  0  0  0  0
 20 23  1  0  0  0  0
M  END
$$$$

  -OEChem-01062216073D

 23 22  0     1  0  0  0  0  0999 V2000
   -2.6907   -3.5316    1.0891 H   0  0  0  0  0  0  0  0  0  0  0  0
   -2.6853   -2.5281    0.6543 C   0  0  0  0  0  0  0  0  0  0  0  0
   -3.5000   -1.9482    1.0944 H   0  0  0  0  0  0  0  0  0  0  0  0
   -2.8449   -2.6118   -0.4235 H   0  0  0  0  0  0  0  0  0  0  0  0
   -1.3578   -1.8482    0.9290 C   0  0  0  0  0  0  0  0  0  0  0  0
   -0.5231   -2.3979    1.6308 O   0  0  0  0  0  0  0  0  0  0  0  0
   -1.1252   -0.5761    0.4482 N   0  0  0  0  0  0  0  0  0  0  0  0
   -1.8416   -0.1855   -0.1569 H   0  0  0  0  0  0  0  0  0  0  0  0
    0.2156    0.0308    0.3929 C   0  0  1  0  0  0  0  0  0  0  0  0
    0.9797   -0.6537    0.7761 H   0  0  0  0  0  0  0  0  0  0  0  0
    0.5543    0.3366   -1.0753 C   0  0  0  0  0  0  0  0  0  0  0  0
   -0.2127    0.9856   -1.5116 H   0  0  0  0  0  0  0  0  0  0  0  0
    1.5078    0.8735   -1.1233 H   0  0  0  0  0  0  0  0  0  0  0  0
    0.6875   -1.2172   -2.0537 S   0  0  0  0  0  0  0  0  0  0  0  0
    1.0689   -0.7340   -3.2562 H   0  0  0  0  0  0  0  0  0  0  0  0
    0.2672    1.3158    1.2413 C   0  0  0  0  0  0  0  0  0  0  0  0
    0.0068    2.4109    0.7564 O   0  0  0  0  0  0  0  0  0  0  0  0
    0.6222    1.2264    2.5734 N   0  0  0  0  0  0  0  0  0  0  0  0
    0.7165    0.2886    2.9585 H   0  0  0  0  0  0  0  0  0  0  0  0
    0.6332    2.3674    3.4799 C   0  0  0  0  0  0  0  0  0  0  0  0
   -0.3723    2.7902    3.5763 H   0  0  0  0  0  0  0  0  0  0  0  0
    0.9760    2.0578    4.4719 H   0  0  0  0  0  0  0  0  0  0  0  0
    1.3094    3.1452    3.1097 H   0  0  0  0  0  0  0  0  0  0  0  0
  1  2  1  0  0  0  0
  2  3  1  0  0  0  0
  2  4  1  0  0  0  0
  2  5  1  0  0  0  0
  5  6  2  0  0  0  0
  5  7  1  0  0  0  0
  7  8  1  0  0  0  0
  7  9  1  0  0  0  0
  9 10  1  0  0  0  0
  9 11  1  0  0  0  0
  9 16  1  0  0  0  0
 11 12  1  0  0  0  0
 11 13  1  0  0  0  0
 11 14  1  0  0  0  0
 14 15  1  0  0  0  0
 16 17  2  0  0  0  0
 16 18  1  0  0  0  0
 18 19  1  0  0  0  0
 18 20  1  0  0  0  0
 20 21  1  0  0  0  0
 20 22  1  0  0  0  0
 20 23  1  0  0  0  0
M  END
$$$$

  -OEChem-01062216073D

 23 22  0     1  0  0  0  0  0999 V2000
   -2.7097   -3.5304    1.0883 H   0  0  0  0  0  0  0  0  0  0  0  0
   -2.7045   -2.5124    0.6890 C   0  0  0  0  0  0  0  0  0  0  0  0
   -3.4785   -1.9305    1.1950 H   0  0  0  0  0  0  0  0  0  0  0  0
   -2.9275   -2.5534   -0.3798 H   0  0  0  0  0  0  0  0  0  0  0  0
   -1.3470   -1.8726    0.9095 C   0  0  0  0  0  0  0  0  0  0  0  0
   -0.4924   -2.4603    1.5540 O   0  0  0  0  0  0  0  0  0  0  0  0
   -1.1043   -0.6013    0.4319 N   0  0  0  0  0  0  0  0  0  0  0  0
   -1.8469   -0.1621   -0.1045 H   0  0  0  0  0  0  0  0  0  0  0  0
    0.2313    0.0165    0.3887 C   0  0  1  0  0  0  0  0  0  0  0  0
    0.9961   -0.6652    0.7748 H   0  0  0  0  0  0  0  0  0  0  0  0
    0.5789    0.3378   -1.0734 C   0  0  0  0  0  0  0  0  0  0  0  0
   -0.1922    0.9823   -1.5089 H   0  0  0  0  0  0  0  0  0  0  0  0
    1.5270    0.8846   -1.1100 H   0  0  0  0  0  0  0  0  0  0  0  0
    0.7334   -1.2030   -2.0684 S   0  0  0  0  0  0  0  0  0  0  0  0
    1.0685   -0.6978   -3.2758 H   0  0  0  0  0  0  0  0  0  0  0  0
    0.2703    1.3045    1.2324 C   0  0  0  0  0  0  0  0  0  0  0  0
   -0.2330    2.3409    0.8142 O   0  0  0  0  0  0  0  0  0  0  0  0
    0.9015    1.3009    2.4618 N   0  0  0  0  0  0  0  0  0  0  0  0
    1.1992    0.3971    2.8222 H   0  0  0  0  0  0  0  0  0  0  0  0
    0.9281    2.4572    3.3491 C   0  0  0  0  0  0  0  0  0  0  0  0
   -0.0875    2.7289    3.6554 H   0  0  0  0  0  0  0  0  0  0  0  0
    1.5127    2.2321    4.2463 H   0  0  0  0  0  0  0  0  0  0  0  0
    1.3862    3.3159    2.8471 H   0  0  0  0  0  0  0  0  0  0  0  0
  1  2  1  0  0  0  0
  2  3  1  0  0  0  0
  2  4  1  0  0  0  0
  2  5  1  0  0  0  0
  5  6  2  0  0  0  0
  5  7  1  0  0  0  0
  7  8  1  0  0  0  0
  7  9  1  0  0  0  0
  9 10  1  0  0  0  0
  9 11  1  0  0  0  0
  9 16  1  0  0  0  0
 11 12  1  0  0  0  0
 11 13  1  0  0  0  0
 11 14  1  0  0  0  0
 14 15  1  0  0  0  0
 16 17  2  0  0  0  0
 16 18  1  0  0  0  0
 18 19  1  0  0  0  0
 18 20  1  0  0  0  0
 20 21  1  0  0  0  0
 20 22  1  0  0  0  0
 20 23  1  0  0  0  0
M  END
$$$$

  -OEChem-01062216073D

 23 22  0     1  0  0  0  0  0999 V2000
   -2.7265   -3.5244    1.1050 H   0  0  0  0  0  0  0  0  0  0  0  0
   -2.7195   -2.4977    0.7282 C   0  0  0  0  0  0  0  0  0  0  0  0
   -3.4494   -1.9102    1.2901 H   0  0  0  0  0  0  0  0  0  0  0  0
   -3.0033   -2.5092   -0.3269 H   0  0  0  0  0  0  0  0  0  0  0  0
   -1.3370   -1.8937    0.8850 C   0  0  0  0  0  0  0  0  0  0  0  0
   -0.4641   -2.5142    1.4714 O   0  0  0  0  0  0  0  0  0  0  0  0
   -1.0883   -0.6228    0.4097 N   0  0  0  0  0  0  0  0  0  0  0  0
   -1.8586   -0.1312   -0.0349 H   0  0  0  0  0  0  0  0  0  0  0  0
    0.2422    0.0062    0.3788 C   0  0  1  0  0  0  0  0  0  0  0  0
    1.0061   -0.6723    0.7720 H   0  0  0  0  0  0  0  0  0  0  0  0
    0.5997    0.3412   -1.0767 C   0  0  0  0  0  0  0  0  0  0  0  0
   -0.1743    0.9824   -1.5119 H   0  0  0  0  0  0  0  0  0  0  0  0
    1.5433    0.8960   -1.1022 H   0  0  0  0  0  0  0  0  0  0  0  0
    0.7758   -1.1896   -2.0835 S   0  0  0  0  0  0  0  0  0  0  0  0
    1.0972   -0.6722   -3.2894 H   0  0  0  0  0  0  0  0  0  0  0  0
    0.2672    1.2967    1.2175 C   0  0  0  0  0  0  0  0  0  0  0  0
   -0.4499    2.2428    0.9128 O   0  0  0  0  0  0  0  0  0  0  0  0
    1.1315    1.4123    2.2900 N   0  0  0  0  0  0  0  0  0  0  0  0
    1.6265    0.5715    2.5766 H   0  0  0  0  0  0  0  0  0  0  0  0
    1.1737    2.5835    3.1570 C   0  0  0  0  0  0  0  0  0  0  0  0
    0.2126    2.7199    3.6637 H   0  0  0  0  0  0  0  0  0  0  0  0
    1.9523    2.4637    3.9163 H   0  0  0  0  0  0  0  0  0  0  0  0
    1.3967    3.4841    2.5751 H   0  0  0  0  0  0  0  0  0  0  0  0
  1  2  1  0  0  0  0
  2  3  1  0  0  0  0
  2  4  1  0  0  0  0
  2  5  1  0  0  0  0
  5  6  2  0  0  0  0
  5  7  1  0  0  0  0
  7  8  1  0  0  0  0
  7  9  1  0  0  0  0
  9 10  1  0  0  0  0
  9 11  1  0  0  0  0
  9 16  1  0  0  0  0
 11 12  1  0  0  0  0
 11 13  1  0  0  0  0
 11 14  1  0  0  0  0
 14 15  1  0  0  0  0
 16 17  2  0  0  0  0
 16 18  1  0  0  0  0
 18 19  1  0  0  0  0
 18 20  1  0  0  0  0
 20 21  1  0  0  0  0
 20 22  1  0  0  0  0
 20 23  1  0  0  0  0
M  END
$$$$

  -OEChem-01062216073D

 23 22  0     1  0  0  0  0  0999 V2000
   -2.7520   -3.4991    1.1655 H   0  0  0  0  0  0  0  0  0  0  0  0
   -2.7322   -2.4773    0.7764 C   0  0  0  0  0  0  0  0  0  0  0  0
   -3.4069   -1.8589    1.3732 H   0  0  0  0  0  0  0  0  0  0  0  0
   -3.0782   -2.4890   -0.2599 H   0  0  0  0  0  0  0  0  0  0  0  0
   -1.3233   -1.9198    0.8442 C   0  0  0  0  0  0  0  0  0  0  0  0
   -0.4314   -2.5798    1.3540 O   0  0  0  0  0  0  0  0  0  0  0  0
   -1.0727   -0.6468    0.3756 N   0  0  0  0  0  0  0  0  0  0  0  0
   -1.8695   -0.0985    0.0625 H   0  0  0  0  0  0  0  0  0  0  0  0
    0.2517   -0.0043    0.3623 C   0  0  1  0  0  0  0  0  0  0  0  0
    1.0152   -0.6781    0.7639 H   0  0  0  0  0  0  0  0  0  0  0  0
    0.6221    0.3458   -1.0855 C   0  0  0  0  0  0  0  0  0  0  0  0
   -0.1557    0.9813   -1.5227 H   0  0  0  0  0  0  0  0  0  0  0  0
    1.5596    0.9112   -1.0971 H   0  0  0  0  0  0  0  0  0  0  0  0
    0.8256   -1.1741   -2.1034 S   0  0  0  0  0  0  0  0  0  0  0  0
    1.1468   -0.6449   -3.3038 H   0  0  0  0  0  0  0  0  0  0  0  0
    0.2575    1.2864    1.2011 C   0  0  0  0  0  0  0  0  0  0  0  0
   -0.6310    2.1174    1.0508 O   0  0  0  0  0  0  0  0  0  0  0  0
    1.2952    1.5482    2.0760 N   0  0  0  0  0  0  0  0  0  0  0  0
    1.9632    0.8001    2.2425 H   0  0  0  0  0  0  0  0  0  0  0  0
    1.3467    2.7379    2.9170 C   0  0  0  0  0  0  0  0  0  0  0  0
    0.4905    2.7623    3.5991 H   0  0  0  0  0  0  0  0  0  0  0  0
    2.2646    2.7409    3.5125 H   0  0  0  0  0  0  0  0  0  0  0  0
    1.3329    3.6438    2.3018 H   0  0  0  0  0  0  0  0  0  0  0  0
  1  2  1  0  0  0  0
  2  3  1  0  0  0  0
  2  4  1  0  0  0  0
  2  5  1  0  0  0  0
  5  6  2  0  0  0  0
  5  7  1  0  0  0  0
  7  8  1  0  0  0  0
  7  9  1  0  0  0  0
  9 10  1  0  0  0  0
  9 11  1  0  0  0  0
  9 16  1  0  0  0  0
 11 12  1  0  0  0  0
 11 13  1  0  0  0  0
 11 14  1  0  0  0  0
 14 15  1  0  0  0  0
 16 17  2  0  0  0  0
 16 18  1  0  0  0  0
 18 19  1  0  0  0  0
 18 20  1  0  0  0  0
 20 21  1  0  0  0  0
 20 22  1  0  0  0  0
 20 23  1  0  0  0  0
M  END
$$$$

  -OEChem-01062216073D

 23 22  0     1  0  0  0  0  0999 V2000
   -2.7526   -3.4842    1.2056 H   0  0  0  0  0  0  0  0  0  0  0  0
   -2.7346   -2.4626    0.8158 C   0  0  0  0  0  0  0  0  0  0  0  0
   -3.3652   -1.8325    1.4475 H   0  0  0  0  0  0  0  0  0  0  0  0
   -3.1353   -2.4667   -0.2007 H   0  0  0  0  0  0  0  0  0  0  0  0
   -1.3139   -1.9317    0.8080 C   0  0  0  0  0  0  0  0  0  0  0  0
   -0.4076   -2.6182    1.2531 O   0  0  0  0  0  0  0  0  0  0  0  0
   -1.0672   -0.6570    0.3416 N   0  0  0  0  0  0  0  0  0  0  0  0
   -1.8760   -0.0727    0.1439 H   0  0  0  0  0  0  0  0  0  0  0  0
    0.2540   -0.0068    0.3472 C   0  0  1  0  0  0  0  0  0  0  0  0
    1.0149   -0.6754    0.7624 H   0  0  0  0  0  0  0  0  0  0  0  0
    0.6389    0.3461   -1.0962 C   0  0  0  0  0  0  0  0  0  0  0  0
   -0.1390    0.9762   -1.5408 H   0  0  0  0  0  0  0  0  0  0  0  0
    1.5730    0.9170   -1.0990 H   0  0  0  0  0  0  0  0  0  0  0  0
    0.8637   -1.1707   -2.1140 S   0  0  0  0  0  0  0  0  0  0  0  0
    1.1745   -0.6384   -3.3155 H   0  0  0  0  0  0  0  0  0  0  0  0
    0.2449    1.2855    1.1844 C   0  0  0  0  0  0  0  0  0  0  0  0
   -0.7570    1.9916    1.2121 O   0  0  0  0  0  0  0  0  0  0  0  0
    1.3915    1.7067    1.8320 N   0  0  0  0  0  0  0  0  0  0  0  0
    2.1797    1.0652    1.8504 H   0  0  0  0  0  0  0  0  0  0  0  0
    1.4468    2.9132    2.6486 C   0  0  0  0  0  0  0  0  0  0  0  0
    0.7274    2.8521    3.4721 H   0  0  0  0  0  0  0  0  0  0  0  0
    2.4479    3.0379    3.0725 H   0  0  0  0  0  0  0  0  0  0  0  0
    1.2159    3.7965    2.0438 H   0  0  0  0  0  0  0  0  0  0  0  0
  1  2  1  0  0  0  0
  2  3  1  0  0  0  0
  2  4  1  0  0  0  0
  2  5  1  0  0  0  0
  5  6  2  0  0  0  0
  5  7  1  0  0  0  0
  7  8  1  0  0  0  0
  7  9  1  0  0  0  0
  9 10  1  0  0  0  0
  9 11  1  0  0  0  0
  9 16  1  0  0  0  0
 11 12  1  0  0  0  0
 11 13  1  0  0  0  0
 11 14  1  0  0  0  0
 14 15  1  0  0  0  0
 16 17  2  0  0  0  0
 16 18  1  0  0  0  0
 18 19  1  0  0  0  0
 18 20  1  0  0  0  0
 20 21  1  0  0  0  0
 20 22  1  0  0  0  0
 20 23  1  0  0  0  0
M  END
$$$$

  -OEChem-01062216073D

 23 22  0     1  0  0  0  0  0999 V2000
   -2.7496   -3.4753    1.2322 H   0  0  0  0  0  0  0  0  0  0  0  0
   -2.7331   -2.4551    0.8387 C   0  0  0  0  0  0  0  0  0  0  0  0
   -3.3342   -1.8159    1.4898 H   0  0  0  0  0  0  0  0  0  0  0  0
   -3.1686   -2.4573   -0.1633 H   0  0  0  0  0  0  0  0  0  0  0  0
   -1.3075   -1.9406    0.7802 C   0  0  0  0  0  0  0  0  0  0  0  0
   -0.3938   -2.6430    1.1834 O   0  0  0  0  0  0  0  0  0  0  0  0
   -1.0661   -0.6637    0.3164 N   0  0  0  0  0  0  0  0  0  0  0  0
   -1.8785   -0.0625    0.1991 H   0  0  0  0  0  0  0  0  0  0  0  0
    0.2534   -0.0089    0.3398 C   0  0  1  0  0  0  0  0  0  0  0  0
    1.0124   -0.6736    0.7651 H   0  0  0  0  0  0  0  0  0  0  0  0
    0.6486    0.3451   -1.1016 C   0  0  0  0  0  0  0  0  0  0  0  0
   -0.1297    0.9705   -1.5514 H   0  0  0  0  0  0  0  0  0  0  0  0
    1.5797    0.9206   -1.1003 H   0  0  0  0  0  0  0  0  0  0  0  0
    0.8884   -1.1684   -2.1207 S   0  0  0  0  0  0  0  0  0  0  0  0
    1.1756   -0.6326   -3.3267 H   0  0  0  0  0  0  0  0  0  0  0  0
    0.2326    1.2848    1.1780 C   0  0  0  0  0  0  0  0  0  0  0  0
   -0.8270    1.8604    1.4006 O   0  0  0  0  0  0  0  0  0  0  0  0
    1.4174    1.8738    1.5808 N   0  0  0  0  0  0  0  0  0  0  0  0
    2.2745    1.3469    1.4371 H   0  0  0  0  0  0  0  0  0  0  0  0
    1.4701    3.1044    2.3611 C   0  0  0  0  0  0  0  0  0  0  0  0
    0.9192    2.9877    3.3005 H   0  0  0  0  0  0  0  0  0  0  0  0
    2.5078    3.3575    2.5986 H   0  0  0  0  0  0  0  0  0  0  0  0
    1.0327    3.9348    1.7968 H   0  0  0  0  0  0  0  0  0  0  0  0
  1  2  1  0  0  0  0
  2  3  1  0  0  0  0
  2  4  1  0  0  0  0
  2  5  1  0  0  0  0
  5  6  2  0  0  0  0
  5  7  1  0  0  0  0
  7  8  1  0  0  0  0
  7  9  1  0  0  0  0
  9 10  1  0  0  0  0
  9 11  1  0  0  0  0
  9 16  1  0  0  0  0
 11 12  1  0  0  0  0
 11 13  1  0  0  0  0
 11 14  1  0  0  0  0
 14 15  1  0  0  0  0
 16 17  2  0  0  0  0
 16 18  1  0  0  0  0
 18 19  1  0  0  0  0
 18 20  1  0  0  0  0
 20 21  1  0  0  0  0
 20 22  1  0  0  0  0
 20 23  1  0  0  0  0
M  END
$$$$

  -OEChem-01062216073D

 23 22  0     1  0  0  0  0  0999 V2000
   -2.7199   -3.4589    1.2645 H   0  0  0  0  0  0  0  0  0  0  0  0
   -2.7183   -2.4359    0.8781 C   0  0  0  0  0  0  0  0  0  0  0  0
   -3.2662   -1.7958    1.5738 H   0  0  0  0  0  0  0  0  0  0  0  0
   -3.2208   -2.4250   -0.0920 H   0  0  0  0  0  0  0  0  0  0  0  0
   -1.2942   -1.9357    0.7283 C   0  0  0  0  0  0  0  0  0  0  0  0
   -0.3625   -2.6585    1.0461 O   0  0  0  0  0  0  0  0  0  0  0  0
   -1.0715   -0.6538    0.2682 N   0  0  0  0  0  0  0  0  0  0  0  0
   -1.8867   -0.0473    0.2524 H   0  0  0  0  0  0  0  0  0  0  0  0
    0.2483    0.0016    0.3112 C   0  0  1  0  0  0  0  0  0  0  0  0
    1.0440   -0.7302    0.4844 H   0  0  0  0  0  0  0  0  0  0  0  0
    0.4840    0.6681   -1.0538 C   0  0  0  0  0  0  0  0  0  0  0  0
   -0.3366    1.3597   -1.2718 H   0  0  0  0  0  0  0  0  0  0  0  0
    1.4123    1.2473   -1.0347 H   0  0  0  0  0  0  0  0  0  0  0  0
    0.6040   -0.5912   -2.3909 S   0  0  0  0  0  0  0  0  0  0  0  0
    0.7612    0.1900   -3.4812 H   0  0  0  0  0  0  0  0  0  0  0  0
    0.3341    1.0646    1.4291 C   0  0  0  0  0  0  0  0  0  0  0  0
   -0.6688    1.3926    2.0536 O   0  0  0  0  0  0  0  0  0  0  0  0
    1.5011    1.7829    1.6239 N   0  0  0  0  0  0  0  0  0  0  0  0
    2.3364    1.4502    1.1506 H   0  0  0  0  0  0  0  0  0  0  0  0
    1.6408    2.8108    2.6493 C   0  0  0  0  0  0  0  0  0  0  0  0
    1.4613    2.3880    3.6436 H   0  0  0  0  0  0  0  0  0  0  0  0
    2.6512    3.2307    2.6292 H   0  0  0  0  0  0  0  0  0  0  0  0
    0.9266    3.6234    2.4780 H   0  0  0  0  0  0  0  0  0  0  0  0
  1  2  1  0  0  0  0
  2  3  1  0  0  0  0
  2  4  1  0  0  0  0
  2  5  1  0  0  0  0
  5  6  2  0  0  0  0
  5  7  1  0  0  0  0
  7  8  1  0  0  0  0
  7  9  1  0  0  0  0
  9 10  1  0  0  0  0
  9 11  1  0  0  0  0
  9 16  1  0  0  0  0
 11 12  1  0  0  0  0
 11 13  1  0  0  0  0
 11 14  1  0  0  0  0
 14 15  1  0  0  0  0
 16 17  2  0  0  0  0
 16 18  1  0  0  0  0
 18 19  1  0  0  0  0
 18 20  1  0  0  0  0
 20 21  1  0  0  0  0
 20 22  1  0  0  0  0
 20 23  1  0  0  0  0
M  END
$$$$

  -OEChem-01062216073D

 23 22  0     1  0  0  0  0  0999 V2000
   -2.7105   -3.4429    1.2855 H   0  0  0  0  0  0  0  0  0  0  0  0
   -2.7121   -2.4198    0.8993 C   0  0  0  0  0  0  0  0  0  0  0  0
   -3.2349   -1.7759    1.6107 H   0  0  0  0  0  0  0  0  0  0  0  0
   -3.2415   -2.4046   -0.0562 H   0  0  0  0  0  0  0  0  0  0  0  0
   -1.2890   -1.9309    0.7088 C   0  0  0  0  0  0  0  0  0  0  0  0
   -0.3547   -2.6680    0.9827 O   0  0  0  0  0  0  0  0  0  0  0  0
   -1.0722   -0.6468    0.2511 N   0  0  0  0  0  0  0  0  0  0  0  0
   -1.8863   -0.0397    0.2743 H   0  0  0  0  0  0  0  0  0  0  0  0
    0.2491    0.0070    0.2976 C   0  0  1  0  0  0  0  0  0  0  0  0
    1.0450   -0.7232    0.4777 H   0  0  0  0  0  0  0  0  0  0  0  0
    0.4855    0.6559   -1.0778 C   0  0  0  0  0  0  0  0  0  0  0  0
   -0.3345    1.3451   -1.3052 H   0  0  0  0  0  0  0  0  0  0  0  0
    1.4152    1.2319   -1.0714 H   0  0  0  0  0  0  0  0  0  0  0  0
    0.6074   -0.6206   -2.3986 S   0  0  0  0  0  0  0  0  0  0  0  0
    0.7699    0.1451   -3.4993 H   0  0  0  0  0  0  0  0  0  0  0  0
    0.3290    1.0673    1.4230 C   0  0  0  0  0  0  0  0  0  0  0  0
   -0.5995    1.2058    2.2113 O   0  0  0  0  0  0  0  0  0  0  0  0
    1.3523    2.0001    1.4511 N   0  0  0  0  0  0  0  0  0  0  0  0
    2.1509    1.8321    0.8468 H   0  0  0  0  0  0  0  0  0  0  0  0
    1.4562    3.0376    2.4715 C   0  0  0  0  0  0  0  0  0  0  0  0
    1.5314    2.5895    3.4680 H   0  0  0  0  0  0  0  0  0  0  0  0
    2.3464    3.6502    2.2993 H   0  0  0  0  0  0  0  0  0  0  0  0
    0.5784    3.6918    2.4452 H   0  0  0  0  0  0  0  0  0  0  0  0
  1  2  1  0  0  0  0
  2  3  1  0  0  0  0
  2  4  1  0  0  0  0
  2  5  1  0  0  0  0
  5  6  2  0  0  0  0
  5  7  1  0  0  0  0
  7  8  1  0  0  0  0
  7  9  1  0  0  0  0
  9 10  1  0  0  0  0
  9 11  1  0  0  0  0
  9 16  1  0  0  0  0
 11 12  1  0  0  0  0
 11 13  1  0  0  0  0
 11 14  1  0  0  0  0
 14 15  1  0  0  0  0
 16 17  2  0  0  0  0
 16 18  1  0  0  0  0
 18 19  1  0  0  0  0
 18 20  1  0  0  0  0
 20 21  1  0  0  0  0
 20 22  1  0  0  0  0
 20 23  1  0  0  0  0
M  END
$$$$

  -OEChem-01062216073D

 23 22  0     1  0  0  0  0  0999 V2000
   -2.7044   -3.4303    1.3076 H   0  0  0  0  0  0  0  0  0  0  0  0
   -2.7090   -2.4128    0.9072 C   0  0  0  0  0  0  0  0  0  0  0  0
   -3.2326   -1.7607    1.6103 H   0  0  0  0  0  0  0  0  0  0  0  0
   -3.2395   -2.4120   -0.0478 H   0  0  0  0  0  0  0  0  0  0  0  0
   -1.2872   -1.9235    0.7084 C   0  0  0  0  0  0  0  0  0  0  0  0
   -0.3525   -2.6663    0.9647 O   0  0  0  0  0  0  0  0  0  0  0  0
   -1.0735   -0.6385    0.2502 N   0  0  0  0  0  0  0  0  0  0  0  0
   -1.8892   -0.0343    0.2715 H   0  0  0  0  0  0  0  0  0  0  0  0
    0.2494    0.0136    0.2884 C   0  0  1  0  0  0  0  0  0  0  0  0
    1.0451   -0.7161    0.4728 H   0  0  0  0  0  0  0  0  0  0  0  0
    0.4854    0.6433   -1.0968 C   0  0  0  0  0  0  0  0  0  0  0  0
   -0.3310    1.3337   -1.3329 H   0  0  0  0  0  0  0  0  0  0  0  0
    1.4199    1.2110   -1.1003 H   0  0  0  0  0  0  0  0  0  0  0  0
    0.6036   -0.6510   -2.4001 S   0  0  0  0  0  0  0  0  0  0  0  0
    0.7689    0.0975   -3.5119 H   0  0  0  0  0  0  0  0  0  0  0  0
    0.3295    1.0722    1.4188 C   0  0  0  0  0  0  0  0  0  0  0  0
   -0.4557    1.0302    2.3585 O   0  0  0  0  0  0  0  0  0  0  0  0
    1.1412    2.1901    1.3104 N   0  0  0  0  0  0  0  0  0  0  0  0
    1.8346    2.1945    0.5691 H   0  0  0  0  0  0  0  0  0  0  0  0
    1.2072    3.2294    2.3324 C   0  0  0  0  0  0  0  0  0  0  0  0
    1.5273    2.8059    3.2904 H   0  0  0  0  0  0  0  0  0  0  0  0
    1.9231    4.0036    2.0399 H   0  0  0  0  0  0  0  0  0  0  0  0
    0.2272    3.6999    2.4654 H   0  0  0  0  0  0  0  0  0  0  0  0
  1  2  1  0  0  0  0
  2  3  1  0  0  0  0
  2  4  1  0  0  0  0
  2  5  1  0  0  0  0
  5  6  2  0  0  0  0
  5  7  1  0  0  0  0
  7  8  1  0  0  0  0
  7  9  1  0  0  0  0
  9 10  1  0  0  0  0
  9 11  1  0  0  0  0
  9 16  1  0  0  0  0
 11 12  1  0  0  0  0
 11 13  1  0  0  0  0
 11 14  1  0  0  0  0
 14 15  1  0  0  0  0
 16 17  2  0  0  0  0
 16 18  1  0  0  0  0
 18 19  1  0  0  0  0
 18 20  1  0  0  0  0
 20 21  1  0  0  0  0
 20 22  1  0  0  0  0
 20 23  1  0  0  0  0
M  END
$$$$

  -OEChem-01062216073D

 23 22  0     1  0  0  0  0  0999 V2000
   -2.7004   -3.4251    1.3235 H   0  0  0  0  0  0  0  0  0  0  0  0
   -2.7098   -2.4079    0.9222 C   0  0  0  0  0  0  0  0  0  0  0  0
   -3.2266   -1.7559    1.6305 H   0  0  0  0  0  0  0  0  0  0  0  0
   -3.2501   -2.4082   -0.0273 H   0  0  0  0  0  0  0  0  0  0  0  0
   -1.2900   -1.9181    0.7095 C   0  0  0  0  0  0  0  0  0  0  0  0
   -0.3542   -2.6639    0.9512 O   0  0  0  0  0  0  0  0  0  0  0  0
   -1.0805   -0.6323    0.2497 N   0  0  0  0  0  0  0  0  0  0  0  0
   -1.9012   -0.0357    0.2442 H   0  0  0  0  0  0  0  0  0  0  0  0
    0.2416    0.0225    0.2777 C   0  0  1  0  0  0  0  0  0  0  0  0
    1.0365   -0.7057    0.4708 H   0  0  0  0  0  0  0  0  0  0  0  0
    0.4908    0.6345   -1.1128 C   0  0  0  0  0  0  0  0  0  0  0  0
   -0.3201    1.3249   -1.3668 H   0  0  0  0  0  0  0  0  0  0  0  0
    1.4300    1.1954   -1.1111 H   0  0  0  0  0  0  0  0  0  0  0  0
    0.6180   -0.6759   -2.3987 S   0  0  0  0  0  0  0  0  0  0  0  0
    0.8293    0.0554   -3.5143 H   0  0  0  0  0  0  0  0  0  0  0  0
    0.3193    1.0796    1.4098 C   0  0  0  0  0  0  0  0  0  0  0  0
   -0.2494    0.8778    2.4749 O   0  0  0  0  0  0  0  0  0  0  0  0
    0.8638    2.3381    1.2056 N   0  0  0  0  0  0  0  0  0  0  0  0
    1.3615    2.5020    0.3369 H   0  0  0  0  0  0  0  0  0  0  0  0
    0.9069    3.3664    2.2403 C   0  0  0  0  0  0  0  0  0  0  0  0
    1.4717    3.0125    3.1095 H   0  0  0  0  0  0  0  0  0  0  0  0
    1.3918    4.2696    1.8576 H   0  0  0  0  0  0  0  0  0  0  0  0
   -0.1063    3.6294    2.5624 H   0  0  0  0  0  0  0  0  0  0  0  0
  1  2  1  0  0  0  0
  2  3  1  0  0  0  0
  2  4  1  0  0  0  0
  2  5  1  0  0  0  0
  5  6  2  0  0  0  0
  5  7  1  0  0  0  0
  7  8  1  0  0  0  0
  7  9  1  0  0  0  0
  9 10  1  0  0  0  0
  9 11  1  0  0  0  0
  9 16  1  0  0  0  0
 11 12  1  0  0  0  0
 11 13  1  0  0  0  0
 11 14  1  0  0  0  0
 14 15  1  0  0  0  0
 16 17  2  0  0  0  0
 16 18  1  0  0  0  0
 18 19  1  0  0  0  0
 18 20  1  0  0  0  0
 20 21  1  0  0  0  0
 20 22  1  0  0  0  0
 20 23  1  0  0  0  0
M  END
$$$$

  -OEChem-01062216073D

 23 22  0     1  0  0  0  0  0999 V2000
   -2.7027   -3.4442    1.2984 H   0  0  0  0  0  0  0  0  0  0  0  0
   -2.7136   -2.4229    0.9075 C   0  0  0  0  0  0  0  0  0  0  0  0
   -3.2527   -1.7836    1.6107 H   0  0  0  0  0  0  0  0  0  0  0  0
   -3.2320   -2.4193   -0.0541 H   0  0  0  0  0  0  0  0  0  0  0  0
   -1.2944   -1.9172    0.7317 C   0  0  0  0  0  0  0  0  0  0  0  0
   -0.3580   -2.6557    0.9903 O   0  0  0  0  0  0  0  0  0  0  0  0
   -1.0869   -0.6311    0.2710 N   0  0  0  0  0  0  0  0  0  0  0  0
   -1.9144   -0.0485    0.2028 H   0  0  0  0  0  0  0  0  0  0  0  0
    0.2321    0.0299    0.2857 C   0  0  1  0  0  0  0  0  0  0  0  0
    1.0287   -0.6971    0.4793 H   0  0  0  0  0  0  0  0  0  0  0  0
    0.4826    0.6348   -1.1069 C   0  0  0  0  0  0  0  0  0  0  0  0
   -0.3295    1.3204   -1.3697 H   0  0  0  0  0  0  0  0  0  0  0  0
    1.4206    1.1988   -1.0996 H   0  0  0  0  0  0  0  0  0  0  0  0
    0.6148   -0.6828   -2.3845 S   0  0  0  0  0  0  0  0  0  0  0  0
    0.8718    0.0382   -3.4970 H   0  0  0  0  0  0  0  0  0  0  0  0
    0.3179    1.0876    1.4148 C   0  0  0  0  0  0  0  0  0  0  0  0
    0.0243    0.7823    2.5621 O   0  0  0  0  0  0  0  0  0  0  0  0
    0.5627    2.4267    1.1507 N   0  0  0  0  0  0  0  0  0  0  0  0
    0.8018    2.6863    0.1998 H   0  0  0  0  0  0  0  0  0  0  0  0
    0.5894    3.4548    2.1859 C   0  0  0  0  0  0  0  0  0  0  0  0
    1.3564    3.2264    2.9337 H   0  0  0  0  0  0  0  0  0  0  0  0
    0.8162    4.4307    1.7459 H   0  0  0  0  0  0  0  0  0  0  0  0
   -0.3823    3.5198    2.6869 H   0  0  0  0  0  0  0  0  0  0  0  0
  1  2  1  0  0  0  0
  2  3  1  0  0  0  0
  2  4  1  0  0  0  0
  2  5  1  0  0  0  0
  5  6  2  0  0  0  0
  5  7  1  0  0  0  0
  7  8  1  0  0  0  0
  7  9  1  0  0  0  0
  9 10  1  0  0  0  0
  9 11  1  0  0  0  0
  9 16  1  0  0  0  0
 11 12  1  0  0  0  0
 11 13  1  0  0  0  0
 11 14  1  0  0  0  0
 14 15  1  0  0  0  0
 16 17  2  0  0  0  0
 16 18  1  0  0  0  0
 18 19  1  0  0  0  0
 18 20  1  0  0  0  0
 20 21  1  0  0  0  0
 20 22  1  0  0  0  0
 20 23  1  0  0  0  0
M  END
$$$$

  -OEChem-01062216073D

 23 22  0     1  0  0  0  0  0999 V2000
   -2.7059   -3.4734    1.2656 H   0  0  0  0  0  0  0  0  0  0  0  0
   -2.7173   -2.4522    0.8742 C   0  0  0  0  0  0  0  0  0  0  0  0
   -3.3005   -1.8237    1.5513 H   0  0  0  0  0  0  0  0  0  0  0  0
   -3.1911   -2.4585   -0.1102 H   0  0  0  0  0  0  0  0  0  0  0  0
   -1.3006   -1.9203    0.7643 C   0  0  0  0  0  0  0  0  0  0  0  0
   -0.3650   -2.6390    1.0738 O   0  0  0  0  0  0  0  0  0  0  0  0
   -1.0947   -0.6348    0.3008 N   0  0  0  0  0  0  0  0  0  0  0  0
   -1.9263   -0.0794    0.1330 H   0  0  0  0  0  0  0  0  0  0  0  0
    0.2191    0.0365    0.3038 C   0  0  1  0  0  0  0  0  0  0  0  0
    1.0196   -0.6871    0.4950 H   0  0  0  0  0  0  0  0  0  0  0  0
    0.4656    0.6415   -1.0889 C   0  0  0  0  0  0  0  0  0  0  0  0
   -0.3504    1.3201   -1.3561 H   0  0  0  0  0  0  0  0  0  0  0  0
    1.3990    1.2143   -1.0770 H   0  0  0  0  0  0  0  0  0  0  0  0
    0.6049   -0.6772   -2.3645 S   0  0  0  0  0  0  0  0  0  0  0  0
    0.8925    0.0410   -3.4714 H   0  0  0  0  0  0  0  0  0  0  0  0
    0.3120    1.0988    1.4254 C   0  0  0  0  0  0  0  0  0  0  0  0
    0.3460    0.7556    2.5978 O   0  0  0  0  0  0  0  0  0  0  0  0
    0.2395    2.4560    1.1509 N   0  0  0  0  0  0  0  0  0  0  0  0
    0.1890    2.7418    0.1791 H   0  0  0  0  0  0  0  0  0  0  0  0
    0.2742    3.4846    2.1854 C   0  0  0  0  0  0  0  0  0  0  0  0
    1.1990    3.4119    2.7680 H   0  0  0  0  0  0  0  0  0  0  0  0
    0.2293    4.4798    1.7326 H   0  0  0  0  0  0  0  0  0  0  0  0
   -0.5784    3.3749    2.8640 H   0  0  0  0  0  0  0  0  0  0  0  0
  1  2  1  0  0  0  0
  2  3  1  0  0  0  0
  2  4  1  0  0  0  0
  2  5  1  0  0  0  0
  5  6  2  0  0  0  0
  5  7  1  0  0  0  0
  7  8  1  0  0  0  0
  7  9  1  0  0  0  0
  9 10  1  0  0  0  0
  9 11  1  0  0  0  0
  9 16  1  0  0  0  0
 11 12  1  0  0  0  0
 11 13  1  0  0  0  0
 11 14  1  0  0  0  0
 14 15  1  0  0  0  0
 16 17  2  0  0  0  0
 16 18  1  0  0  0  0
 18 19  1  0  0  0  0
 18 20  1  0  0  0  0
 20 21  1  0  0  0  0
 20 22  1  0  0  0  0
 20 23  1  0  0  0  0
M  END
$$$$

  -OEChem-01062216073D

 23 22  0     1  0  0  0  0  0999 V2000
   -2.7039   -3.5256    1.1875 H   0  0  0  0  0  0  0  0  0  0  0  0
   -2.7173   -2.5034    0.7986 C   0  0  0  0  0  0  0  0  0  0  0  0
   -3.3897   -1.9018    1.4146 H   0  0  0  0  0  0  0  0  0  0  0  0
   -3.0900   -2.5229   -0.2283 H   0  0  0  0  0  0  0  0  0  0  0  0
   -1.3193   -1.9154    0.8317 C   0  0  0  0  0  0  0  0  0  0  0  0
   -0.3971   -2.5854    1.2635 O   0  0  0  0  0  0  0  0  0  0  0  0
   -1.1134   -0.6337    0.3588 N   0  0  0  0  0  0  0  0  0  0  0  0
   -1.9245   -0.1479   -0.0074 H   0  0  0  0  0  0  0  0  0  0  0  0
    0.1981    0.0414    0.3394 C   0  0  1  0  0  0  0  0  0  0  0  0
    1.0012   -0.6828    0.5193 H   0  0  0  0  0  0  0  0  0  0  0  0
    0.4278    0.6503   -1.0530 C   0  0  0  0  0  0  0  0  0  0  0  0
   -0.3894    1.3299   -1.3123 H   0  0  0  0  0  0  0  0  0  0  0  0
    1.3602    1.2251   -1.0459 H   0  0  0  0  0  0  0  0  0  0  0  0
    0.5527   -0.6668   -2.3315 S   0  0  0  0  0  0  0  0  0  0  0  0
    0.8742    0.0506   -3.4299 H   0  0  0  0  0  0  0  0  0  0  0  0
    0.3097    1.1117    1.4489 C   0  0  0  0  0  0  0  0  0  0  0  0
    0.7283    0.8179    2.5583 O   0  0  0  0  0  0  0  0  0  0  0  0
   -0.0705    2.4249    1.2197 N   0  0  0  0  0  0  0  0  0  0  0  0
   -0.4488    2.6569    0.3080 H   0  0  0  0  0  0  0  0  0  0  0  0
   -0.0028    3.4652    2.2400 C   0  0  0  0  0  0  0  0  0  0  0  0
    1.0271    3.5913    2.5910 H   0  0  0  0  0  0  0  0  0  0  0  0
   -0.3471    4.4201    1.8313 H   0  0  0  0  0  0  0  0  0  0  0  0
   -0.6367    3.2057    3.0947 H   0  0  0  0  0  0  0  0  0  0  0  0
  1  2  1  0  0  0  0
  2  3  1  0  0  0  0
  2  4  1  0  0  0  0
  2  5  1  0  0  0  0
  5  6  2  0  0  0  0
  5  7  1  0  0  0  0
  7  8  1  0  0  0  0
  7  9  1  0  0  0  0
  9 10  1  0  0  0  0
  9 11  1  0  0  0  0
  9 16  1  0  0  0  0
 11 12  1  0  0  0  0
 11 13  1  0  0  0  0
 11 14  1  0  0  0  0
 14 15  1  0  0  0  0
 16 17  2  0  0  0  0
 16 18  1  0  0  0  0
 18 19  1  0  0  0  0
 18 20  1  0  0  0  0
 20 21  1  0  0  0  0
 20 22  1  0  0  0  0
 20 23  1  0  0  0  0
M  END
$$$$

  -OEChem-01062216073D

 23 22  0     1  0  0  0  0  0999 V2000
   -2.6540   -3.6052    1.0713 H   0  0  0  0  0  0  0  0  0  0  0  0
   -2.6903   -2.5844    0.6801 C   0  0  0  0  0  0  0  0  0  0  0  0
   -3.4954   -2.0431    1.1823 H   0  0  0  0  0  0  0  0  0  0  0  0
   -2.8983   -2.6272   -0.3916 H   0  0  0  0  0  0  0  0  0  0  0  0
   -1.3658   -1.8864    0.9247 C   0  0  0  0  0  0  0  0  0  0  0  0
   -0.4922   -2.4592    1.5518 O   0  0  0  0  0  0  0  0  0  0  0  0
   -1.1697   -0.6111    0.4306 N   0  0  0  0  0  0  0  0  0  0  0  0
   -1.8847   -0.2791   -0.2075 H   0  0  0  0  0  0  0  0  0  0  0  0
    0.1526    0.0431    0.3884 C   0  0  1  0  0  0  0  0  0  0  0  0
    0.9474   -0.6945    0.5514 H   0  0  0  0  0  0  0  0  0  0  0  0
    0.3647    0.6593   -1.0020 C   0  0  0  0  0  0  0  0  0  0  0  0
   -0.4397    1.3614   -1.2402 H   0  0  0  0  0  0  0  0  0  0  0  0
    1.3093    1.2145   -1.0067 H   0  0  0  0  0  0  0  0  0  0  0  0
    0.4398   -0.6543   -2.2882 S   0  0  0  0  0  0  0  0  0  0  0  0
    0.8035    0.0576   -3.3778 H   0  0  0  0  0  0  0  0  0  0  0  0
    0.3033    1.1227    1.4823 C   0  0  0  0  0  0  0  0  0  0  0  0
    1.0883    0.9674    2.4058 O   0  0  0  0  0  0  0  0  0  0  0  0
   -0.3319    2.3476    1.3568 N   0  0  0  0  0  0  0  0  0  0  0  0
   -1.0359    2.4335    0.6321 H   0  0  0  0  0  0  0  0  0  0  0  0
   -0.2127    3.4093    2.3497 C   0  0  0  0  0  0  0  0  0  0  0  0
    0.8341    3.7094    2.4671 H   0  0  0  0  0  0  0  0  0  0  0  0
   -0.7884    4.2859    2.0376 H   0  0  0  0  0  0  0  0  0  0  0  0
   -0.5925    3.0714    3.3197 H   0  0  0  0  0  0  0  0  0  0  0  0
  1  2  1  0  0  0  0
  2  3  1  0  0  0  0
  2  4  1  0  0  0  0
  2  5  1  0  0  0  0
  5  6  2  0  0  0  0
  5  7  1  0  0  0  0
  7  8  1  0  0  0  0
  7  9  1  0  0  0  0
  9 10  1  0  0  0  0
  9 11  1  0  0  0  0
  9 16  1  0  0  0  0
 11 12  1  0  0  0  0
 11 13  1  0  0  0  0
 11 14  1  0  0  0  0
 14 15  1  0  0  0  0
 16 17  2  0  0  0  0
 16 18  1  0  0  0  0
 18 19  1  0  0  0  0
 18 20  1  0  0  0  0
 20 21  1  0  0  0  0
 20 22  1  0  0  0  0
 20 23  1  0  0  0  0
M  END
$$$$

  -OEChem-01062216073D

 23 22  0     1  0  0  0  0  0999 V2000
   -2.6450   -3.6336    1.0490 H   0  0  0  0  0  0  0  0  0  0  0  0
   -2.6730   -2.6284    0.6188 C   0  0  0  0  0  0  0  0  0  0  0  0
   -3.5311   -2.0927    1.0317 H   0  0  0  0  0  0  0  0  0  0  0  0
   -2.7893   -2.7139   -0.4642 H   0  0  0  0  0  0  0  0  0  0  0  0
   -1.3914   -1.8855    0.9461 C   0  0  0  0  0  0  0  0  0  0  0  0
   -0.5530   -2.4119    1.6565 O   0  0  0  0  0  0  0  0  0  0  0  0
   -1.1995   -0.6109    0.4493 N   0  0  0  0  0  0  0  0  0  0  0  0
   -1.8603   -0.3401   -0.2717 H   0  0  0  0  0  0  0  0  0  0  0  0
    0.1297    0.0300    0.4131 C   0  0  1  0  0  0  0  0  0  0  0  0
    0.9195   -0.7154    0.5662 H   0  0  0  0  0  0  0  0  0  0  0  0
    0.3388    0.6688   -0.9660 C   0  0  0  0  0  0  0  0  0  0  0  0
   -0.4580    1.3870   -1.1832 H   0  0  0  0  0  0  0  0  0  0  0  0
    1.2898    1.2131   -0.9667 H   0  0  0  0  0  0  0  0  0  0  0  0
    0.3914   -0.6249   -2.2736 S   0  0  0  0  0  0  0  0  0  0  0  0
    0.7738    0.0990   -3.3487 H   0  0  0  0  0  0  0  0  0  0  0  0
    0.2939    1.1067    1.5046 C   0  0  0  0  0  0  0  0  0  0  0  0
    1.2946    1.1250    2.2064 O   0  0  0  0  0  0  0  0  0  0  0  0
   -0.5562    2.1993    1.5359 N   0  0  0  0  0  0  0  0  0  0  0  0
   -1.4243    2.1150    1.0179 H   0  0  0  0  0  0  0  0  0  0  0  0
   -0.4215    3.2789    2.5073 C   0  0  0  0  0  0  0  0  0  0  0  0
    0.5620    3.7531    2.4206 H   0  0  0  0  0  0  0  0  0  0  0  0
   -1.1862    4.0421    2.3345 H   0  0  0  0  0  0  0  0  0  0  0  0
   -0.5376    2.8944    3.5261 H   0  0  0  0  0  0  0  0  0  0  0  0
  1  2  1  0  0  0  0
  2  3  1  0  0  0  0
  2  4  1  0  0  0  0
  2  5  1  0  0  0  0
  5  6  2  0  0  0  0
  5  7  1  0  0  0  0
  7  8  1  0  0  0  0
  7  9  1  0  0  0  0
  9 10  1  0  0  0  0
  9 11  1  0  0  0  0
  9 16  1  0  0  0  0
 11 12  1  0  0  0  0
 11 13  1  0  0  0  0
 11 14  1  0  0  0  0
 14 15  1  0  0  0  0
 16 17  2  0  0  0  0
 16 18  1  0  0  0  0
 18 19  1  0  0  0  0
 18 20  1  0  0  0  0
 20 21  1  0  0  0  0
 20 22  1  0  0  0  0
 20 23  1  0  0  0  0
M  END
$$$$

  -OEChem-01062216073D

 23 22  0     1  0  0  0  0  0999 V2000
   -2.6407   -3.6480    1.0313 H   0  0  0  0  0  0  0  0  0  0  0  0
   -2.6627   -2.6524    0.5789 C   0  0  0  0  0  0  0  0  0  0  0  0
   -3.5491   -2.1228    0.9358 H   0  0  0  0  0  0  0  0  0  0  0  0
   -2.7216   -2.7621   -0.5067 H   0  0  0  0  0  0  0  0  0  0  0  0
   -1.4109   -1.8825    0.9547 C   0  0  0  0  0  0  0  0  0  0  0  0
   -0.5988   -2.3803    1.7148 O   0  0  0  0  0  0  0  0  0  0  0  0
   -1.2171   -0.6094    0.4558 N   0  0  0  0  0  0  0  0  0  0  0  0
   -1.8486   -0.3625   -0.3000 H   0  0  0  0  0  0  0  0  0  0  0  0
    0.1198    0.0168    0.4240 C   0  0  1  0  0  0  0  0  0  0  0  0
    0.9031   -0.7362    0.5705 H   0  0  0  0  0  0  0  0  0  0  0  0
    0.3283    0.6705   -0.9471 C   0  0  0  0  0  0  0  0  0  0  0  0
   -0.4610    1.4020   -1.1480 H   0  0  0  0  0  0  0  0  0  0  0  0
    1.2856    1.2041   -0.9461 H   0  0  0  0  0  0  0  0  0  0  0  0
    0.3596   -0.6067   -2.2712 S   0  0  0  0  0  0  0  0  0  0  0  0
    0.7526    0.1291   -3.3346 H   0  0  0  0  0  0  0  0  0  0  0  0
    0.2982    1.0909    1.5136 C   0  0  0  0  0  0  0  0  0  0  0  0
    1.4013    1.2894    2.0028 O   0  0  0  0  0  0  0  0  0  0  0  0
   -0.7057    2.0163    1.7380 N   0  0  0  0  0  0  0  0  0  0  0  0
   -1.6296    1.7607    1.4050 H   0  0  0  0  0  0  0  0  0  0  0  0
   -0.5852    3.0897    2.7172 C   0  0  0  0  0  0  0  0  0  0  0  0
    0.2651    3.7359    2.4750 H   0  0  0  0  0  0  0  0  0  0  0  0
   -1.4918    3.7023    2.7212 H   0  0  0  0  0  0  0  0  0  0  0  0
   -0.4391    2.6776    3.7213 H   0  0  0  0  0  0  0  0  0  0  0  0
  1  2  1  0  0  0  0
  2  3  1  0  0  0  0
  2  4  1  0  0  0  0
  2  5  1  0  0  0  0
  5  6  2  0  0  0  0
  5  7  1  0  0  0  0
  7  8  1  0  0  0  0
  7  9  1  0  0  0  0
  9 10  1  0  0  0  0
  9 11  1  0  0  0  0
  9 16  1  0  0  0  0
 11 12  1  0  0  0  0
 11 13  1  0  0  0  0
 11 14  1  0  0  0  0
 14 15  1  0  0  0  0
 16 17  2  0  0  0  0
 16 18  1  0  0  0  0
 18 19  1  0  0  0  0
 18 20  1  0  0  0  0
 20 21  1  0  0  0  0
 20 22  1  0  0  0  0
 20 23  1  0  0  0  0
M  END
$$$$

  -OEChem-01062216073D

 23 22  0     1  0  0  0  0  0999 V2000
   -2.6474   -3.6519    1.0169 H   0  0  0  0  0  0  0  0  0  0  0  0
   -2.6564   -2.6645    0.5464 C   0  0  0  0  0  0  0  0  0  0  0  0
   -3.5561   -2.1320    0.8635 H   0  0  0  0  0  0  0  0  0  0  0  0
   -2.6782   -2.7934   -0.5386 H   0  0  0  0  0  0  0  0  0  0  0  0
   -1.4198   -1.8838    0.9497 C   0  0  0  0  0  0  0  0  0  0  0  0
   -0.6230   -2.3697    1.7336 O   0  0  0  0  0  0  0  0  0  0  0  0
   -1.2223   -0.6106    0.4531 N   0  0  0  0  0  0  0  0  0  0  0  0
   -1.8423   -0.3659   -0.3134 H   0  0  0  0  0  0  0  0  0  0  0  0
    0.1184    0.0097    0.4283 C   0  0  1  0  0  0  0  0  0  0  0  0
    0.8995   -0.7465    0.5707 H   0  0  0  0  0  0  0  0  0  0  0  0
    0.3216    0.6675   -0.9417 C   0  0  0  0  0  0  0  0  0  0  0  0
   -0.4675    1.4016   -1.1338 H   0  0  0  0  0  0  0  0  0  0  0  0
    1.2798    1.1996   -0.9460 H   0  0  0  0  0  0  0  0  0  0  0  0
    0.3437   -0.6068   -2.2692 S   0  0  0  0  0  0  0  0  0  0  0  0
    0.7305    0.1328   -3.3322 H   0  0  0  0  0  0  0  0  0  0  0  0
    0.3044    1.0827    1.5186 C   0  0  0  0  0  0  0  0  0  0  0  0
    1.4297    1.4502    1.8272 O   0  0  0  0  0  0  0  0  0  0  0  0
   -0.7828    1.8138    1.9619 N   0  0  0  0  0  0  0  0  0  0  0  0
   -1.6945    1.4100    1.7705 H   0  0  0  0  0  0  0  0  0  0  0  0
   -0.6751    2.8636    2.9679 C   0  0  0  0  0  0  0  0  0  0  0  0
   -0.0014    3.6561    2.6250 H   0  0  0  0  0  0  0  0  0  0  0  0
   -1.6570    3.3071    3.1592 H   0  0  0  0  0  0  0  0  0  0  0  0
   -0.2887    2.4552    3.9078 H   0  0  0  0  0  0  0  0  0  0  0  0
  1  2  1  0  0  0  0
  2  3  1  0  0  0  0
  2  4  1  0  0  0  0
  2  5  1  0  0  0  0
  5  6  2  0  0  0  0
  5  7  1  0  0  0  0
  7  8  1  0  0  0  0
  7  9  1  0  0  0  0
  9 10  1  0  0  0  0
  9 11  1  0  0  0  0
  9 16  1  0  0  0  0
 11 12  1  0  0  0  0
 11 13  1  0  0  0  0
 11 14  1  0  0  0  0
 14 15  1  0  0  0  0
 16 17  2  0  0  0  0
 16 18  1  0  0  0  0
 18 19  1  0  0  0  0
 18 20  1  0  0  0  0
 20 21  1  0  0  0  0
 20 22  1  0  0  0  0
 20 23  1  0  0  0  0
M  END
$$$$

  -OEChem-01062216073D

 23 22  0     1  0  0  0  0  0999 V2000
   -2.6490   -3.6465    1.0031 H   0  0  0  0  0  0  0  0  0  0  0  0
   -2.6569   -2.6590    0.5329 C   0  0  0  0  0  0  0  0  0  0  0  0
   -3.5560   -2.1253    0.8499 H   0  0  0  0  0  0  0  0  0  0  0  0
   -2.6784   -2.7876   -0.5521 H   0  0  0  0  0  0  0  0  0  0  0  0
   -1.4196   -1.8802    0.9369 C   0  0  0  0  0  0  0  0  0  0  0  0
   -0.6312   -2.3585    1.7341 O   0  0  0  0  0  0  0  0  0  0  0  0
   -1.2189   -0.6066    0.4437 N   0  0  0  0  0  0  0  0  0  0  0  0
   -1.8365   -0.3565   -0.3234 H   0  0  0  0  0  0  0  0  0  0  0  0
    0.1236    0.0112    0.4237 C   0  0  1  0  0  0  0  0  0  0  0  0
    0.9036   -0.7458    0.5668 H   0  0  0  0  0  0  0  0  0  0  0  0
    0.3220    0.6645   -0.9502 C   0  0  0  0  0  0  0  0  0  0  0  0
   -0.4684    1.3973   -1.1420 H   0  0  0  0  0  0  0  0  0  0  0  0
    1.2797    1.1977   -0.9627 H   0  0  0  0  0  0  0  0  0  0  0  0
    0.3408   -0.6156   -2.2727 S   0  0  0  0  0  0  0  0  0  0  0  0
    0.7199    0.1216   -3.3403 H   0  0  0  0  0  0  0  0  0  0  0  0
    0.3102    1.0826    1.5176 C   0  0  0  0  0  0  0  0  0  0  0  0
    1.4014    1.6139    1.6754 O   0  0  0  0  0  0  0  0  0  0  0  0
   -0.7882    1.5965    2.1817 N   0  0  0  0  0  0  0  0  0  0  0  0
   -1.6411    1.0495    2.1069 H   0  0  0  0  0  0  0  0  0  0  0  0
   -0.6845    2.6029    3.2310 C   0  0  0  0  0  0  0  0  0  0  0  0
   -0.2058    3.5097    2.8465 H   0  0  0  0  0  0  0  0  0  0  0  0
   -1.6798    2.8697    3.5992 H   0  0  0  0  0  0  0  0  0  0  0  0
   -0.0937    2.2217    4.0705 H   0  0  0  0  0  0  0  0  0  0  0  0
  1  2  1  0  0  0  0
  2  3  1  0  0  0  0
  2  4  1  0  0  0  0
  2  5  1  0  0  0  0
  5  6  2  0  0  0  0
  5  7  1  0  0  0  0
  7  8  1  0  0  0  0
  7  9  1  0  0  0  0
  9 10  1  0  0  0  0
  9 11  1  0  0  0  0
  9 16  1  0  0  0  0
 11 12  1  0  0  0  0
 11 13  1  0  0  0  0
 11 14  1  0  0  0  0
 14 15  1  0  0  0  0
 16 17  2  0  0  0  0
 16 18  1  0  0  0  0
 18 19  1  0  0  0  0
 18 20  1  0  0  0  0
 20 21  1  0  0  0  0
 20 22  1  0  0  0  0
 20 23  1  0  0  0  0
M  END
$$$$

  -OEChem-01062216073D

 23 22  0     1  0  0  0  0  0999 V2000
   -2.6721   -3.6237    1.0130 H   0  0  0  0  0  0  0  0  0  0  0  0
   -2.6553   -2.6511    0.5130 C   0  0  0  0  0  0  0  0  0  0  0  0
   -3.5574   -2.0988    0.7864 H   0  0  0  0  0  0  0  0  0  0  0  0
   -2.6466   -2.8124   -0.5678 H   0  0  0  0  0  0  0  0  0  0  0  0
   -1.4220   -1.8723    0.9288 C   0  0  0  0  0  0  0  0  0  0  0  0
   -0.6442   -2.3452    1.7395 O   0  0  0  0  0  0  0  0  0  0  0  0
   -1.2160   -0.5982    0.4406 N   0  0  0  0  0  0  0  0  0  0  0  0
   -1.8396   -0.3336   -0.3166 H   0  0  0  0  0  0  0  0  0  0  0  0
    0.1281    0.0164    0.4217 C   0  0  1  0  0  0  0  0  0  0  0  0
    0.9058   -0.7423    0.5646 H   0  0  0  0  0  0  0  0  0  0  0  0
    0.3215    0.6619   -0.9581 C   0  0  0  0  0  0  0  0  0  0  0  0
   -0.4696    1.3939   -1.1497 H   0  0  0  0  0  0  0  0  0  0  0  0
    1.2792    1.1944   -0.9809 H   0  0  0  0  0  0  0  0  0  0  0  0
    0.3355   -0.6255   -2.2737 S   0  0  0  0  0  0  0  0  0  0  0  0
    0.6849    0.1127   -3.3506 H   0  0  0  0  0  0  0  0  0  0  0  0
    0.3165    1.0847    1.5214 C   0  0  0  0  0  0  0  0  0  0  0  0
    1.3276    1.7746    1.5479 O   0  0  0  0  0  0  0  0  0  0  0  0
   -0.7153    1.3749    2.3943 N   0  0  0  0  0  0  0  0  0  0  0  0
   -1.4739    0.6988    2.4153 H   0  0  0  0  0  0  0  0  0  0  0  0
   -0.5961    2.3383    3.4814 C   0  0  0  0  0  0  0  0  0  0  0  0
   -0.3386    3.3282    3.0902 H   0  0  0  0  0  0  0  0  0  0  0  0
   -1.5446    2.4184    4.0210 H   0  0  0  0  0  0  0  0  0  0  0  0
    0.1807    2.0255    4.1871 H   0  0  0  0  0  0  0  0  0  0  0  0
  1  2  1  0  0  0  0
  2  3  1  0  0  0  0
  2  4  1  0  0  0  0
  2  5  1  0  0  0  0
  5  6  2  0  0  0  0
  5  7  1  0  0  0  0
  7  8  1  0  0  0  0
  7  9  1  0  0  0  0
  9 10  1  0  0  0  0
  9 11  1  0  0  0  0
  9 16  1  0  0  0  0
 11 12  1  0  0  0  0
 11 13  1  0  0  0  0
 11 14  1  0  0  0  0
 14 15  1  0  0  0  0
 16 17  2  0  0  0  0
 16 18  1  0  0  0  0
 18 19  1  0  0  0  0
 18 20  1  0  0  0  0
 20 21  1  0  0  0  0
 20 22  1  0  0  0  0
 20 23  1  0  0  0  0
M  END
$$$$

  -OEChem-01062216073D

 23 22  0     1  0  0  0  0  0999 V2000
   -2.6703   -3.6101    0.9931 H   0  0  0  0  0  0  0  0  0  0  0  0
   -2.6576   -2.6319    0.5041 C   0  0  0  0  0  0  0  0  0  0  0  0
   -3.5616   -2.0858    0.7840 H   0  0  0  0  0  0  0  0  0  0  0  0
   -2.6488   -2.7807   -0.5785 H   0  0  0  0  0  0  0  0  0  0  0  0
   -1.4271   -1.8531    0.9274 C   0  0  0  0  0  0  0  0  0  0  0  0
   -0.6605   -2.3161    1.7550 O   0  0  0  0  0  0  0  0  0  0  0  0
   -1.2168   -0.5792    0.4431 N   0  0  0  0  0  0  0  0  0  0  0  0
   -1.8456   -0.3053   -0.3066 H   0  0  0  0  0  0  0  0  0  0  0  0
    0.1294    0.0300    0.4171 C   0  0  1  0  0  0  0  0  0  0  0  0
    0.9034   -0.7320    0.5617 H   0  0  0  0  0  0  0  0  0  0  0  0
    0.3224    0.6609   -0.9709 C   0  0  0  0  0  0  0  0  0  0  0  0
   -0.4662    1.3940   -1.1685 H   0  0  0  0  0  0  0  0  0  0  0  0
    1.2820    1.1890   -1.0036 H   0  0  0  0  0  0  0  0  0  0  0  0
    0.3294   -0.6420   -2.2716 S   0  0  0  0  0  0  0  0  0  0  0  0
    0.6825    0.0819   -3.3569 H   0  0  0  0  0  0  0  0  0  0  0  0
    0.3195    1.0926    1.5240 C   0  0  0  0  0  0  0  0  0  0  0  0
    1.1992    1.9405    1.4371 O   0  0  0  0  0  0  0  0  0  0  0  0
   -0.5730    1.1592    2.5772 N   0  0  0  0  0  0  0  0  0  0  0  0
   -1.1884    0.3555    2.6785 H   0  0  0  0  0  0  0  0  0  0  0  0
   -0.4237    2.0801    3.6967 C   0  0  0  0  0  0  0  0  0  0  0  0
   -0.3995    3.1157    3.3414 H   0  0  0  0  0  0  0  0  0  0  0  0
   -1.2654    1.9738    4.3877 H   0  0  0  0  0  0  0  0  0  0  0  0
    0.5030    1.8731    4.2422 H   0  0  0  0  0  0  0  0  0  0  0  0
  1  2  1  0  0  0  0
  2  3  1  0  0  0  0
  2  4  1  0  0  0  0
  2  5  1  0  0  0  0
  5  6  2  0  0  0  0
  5  7  1  0  0  0  0
  7  8  1  0  0  0  0
  7  9  1  0  0  0  0
  9 10  1  0  0  0  0
  9 11  1  0  0  0  0
  9 16  1  0  0  0  0
 11 12  1  0  0  0  0
 11 13  1  0  0  0  0
 11 14  1  0  0  0  0
 14 15  1  0  0  0  0
 16 17  2  0  0  0  0
 16 18  1  0  0  0  0
 18 19  1  0  0  0  0
 18 20  1  0  0  0  0
 20 21  1  0  0  0  0
 20 22  1  0  0  0  0
 20 23  1  0  0  0  0
M  END
$$$$

  -OEChem-01062216073D

 23 22  0     1  0  0  0  0  0999 V2000
   -2.6770   -3.5799    1.0113 H   0  0  0  0  0  0  0  0  0  0  0  0
   -2.6617   -2.6040    0.5178 C   0  0  0  0  0  0  0  0  0  0  0  0
   -3.5626   -2.0529    0.7979 H   0  0  0  0  0  0  0  0  0  0  0  0
   -2.6567   -2.7577   -0.5641 H   0  0  0  0  0  0  0  0  0  0  0  0
   -1.4270   -1.8287    0.9347 C   0  0  0  0  0  0  0  0  0  0  0  0
   -0.6697   -2.2793    1.7787 O   0  0  0  0  0  0  0  0  0  0  0  0
   -1.2101   -0.5574    0.4484 N   0  0  0  0  0  0  0  0  0  0  0  0
   -1.8432   -0.2758   -0.2947 H   0  0  0  0  0  0  0  0  0  0  0  0
    0.1407    0.0385    0.4119 C   0  0  1  0  0  0  0  0  0  0  0  0
    0.9097   -0.7287    0.5556 H   0  0  0  0  0  0  0  0  0  0  0  0
    0.3350    0.6618   -0.9794 C   0  0  0  0  0  0  0  0  0  0  0  0
   -0.4466    1.4027   -1.1761 H   0  0  0  0  0  0  0  0  0  0  0  0
    1.2999    1.1796   -1.0169 H   0  0  0  0  0  0  0  0  0  0  0  0
    0.3242   -0.6456   -2.2753 S   0  0  0  0  0  0  0  0  0  0  0  0
    0.6568    0.0765   -3.3684 H   0  0  0  0  0  0  0  0  0  0  0  0
    0.3300    1.0952    1.5245 C   0  0  0  0  0  0  0  0  0  0  0  0
    1.0321    2.0849    1.3552 O   0  0  0  0  0  0  0  0  0  0  0  0
   -0.3635    0.9566    2.7114 N   0  0  0  0  0  0  0  0  0  0  0  0
   -0.8154    0.0538    2.8504 H   0  0  0  0  0  0  0  0  0  0  0  0
   -0.1907    1.8458    3.8525 C   0  0  0  0  0  0  0  0  0  0  0  0
   -0.4135    2.8804    3.5709 H   0  0  0  0  0  0  0  0  0  0  0  0
   -0.8681    1.5567    4.6617 H   0  0  0  0  0  0  0  0  0  0  0  0
    0.8378    1.7952    4.2248 H   0  0  0  0  0  0  0  0  0  0  0  0
  1  2  1  0  0  0  0
  2  3  1  0  0  0  0
  2  4  1  0  0  0  0
  2  5  1  0  0  0  0
  5  6  2  0  0  0  0
  5  7  1  0  0  0  0
  7  8  1  0  0  0  0
  7  9  1  0  0  0  0
  9 10  1  0  0  0  0
  9 11  1  0  0  0  0
  9 16  1  0  0  0  0
 11 12  1  0  0  0  0
 11 13  1  0  0  0  0
 11 14  1  0  0  0  0
 14 15  1  0  0  0  0
 16 17  2  0  0  0  0
 16 18  1  0  0  0  0
 18 19  1  0  0  0  0
 18 20  1  0  0  0  0
 20 21  1  0  0  0  0
 20 22  1  0  0  0  0
 20 23  1  0  0  0  0
M  END
$$$$

  -OEChem-01062216073D

 23 22  0     1  0  0  0  0  0999 V2000
   -2.6718   -3.5581    1.0248 H   0  0  0  0  0  0  0  0  0  0  0  0
   -2.6648   -2.5764    0.5428 C   0  0  0  0  0  0  0  0  0  0  0  0
   -3.5604   -2.0282    0.8447 H   0  0  0  0  0  0  0  0  0  0  0  0
   -2.6787   -2.7174   -0.5407 H   0  0  0  0  0  0  0  0  0  0  0  0
   -1.4227   -1.8062    0.9476 C   0  0  0  0  0  0  0  0  0  0  0  0
   -0.6579   -2.2597    1.7846 O   0  0  0  0  0  0  0  0  0  0  0  0
   -1.2020   -0.5370    0.4581 N   0  0  0  0  0  0  0  0  0  0  0  0
   -1.8447   -0.2444   -0.2723 H   0  0  0  0  0  0  0  0  0  0  0  0
    0.1526    0.0455    0.4077 C   0  0  1  0  0  0  0  0  0  0  0  0
    0.9176   -0.7263    0.5480 H   0  0  0  0  0  0  0  0  0  0  0  0
    0.3471    0.6631   -0.9859 C   0  0  0  0  0  0  0  0  0  0  0  0
   -0.4286    1.4109   -1.1810 H   0  0  0  0  0  0  0  0  0  0  0  0
    1.3163    1.1723   -1.0269 H   0  0  0  0  0  0  0  0  0  0  0  0
    0.3163   -0.6480   -2.2780 S   0  0  0  0  0  0  0  0  0  0  0  0
    0.6551    0.0662   -3.3745 H   0  0  0  0  0  0  0  0  0  0  0  0
    0.3455    1.0959    1.5231 C   0  0  0  0  0  0  0  0  0  0  0  0
    0.8396    2.1953    1.3019 O   0  0  0  0  0  0  0  0  0  0  0  0
   -0.0901    0.7915    2.7980 N   0  0  0  0  0  0  0  0  0  0  0  0
   -0.4138   -0.1657    2.9416 H   0  0  0  0  0  0  0  0  0  0  0  0
    0.0951    1.6657    3.9482 C   0  0  0  0  0  0  0  0  0  0  0  0
   -0.3850    2.6345    3.7752 H   0  0  0  0  0  0  0  0  0  0  0  0
   -0.3503    1.2150    4.8403 H   0  0  0  0  0  0  0  0  0  0  0  0
    1.1612    1.8292    4.1367 H   0  0  0  0  0  0  0  0  0  0  0  0
  1  2  1  0  0  0  0
  2  3  1  0  0  0  0
  2  4  1  0  0  0  0
  2  5  1  0  0  0  0
  5  6  2  0  0  0  0
  5  7  1  0  0  0  0
  7  8  1  0  0  0  0
  7  9  1  0  0  0  0
  9 10  1  0  0  0  0
  9 11  1  0  0  0  0
  9 16  1  0  0  0  0
 11 12  1  0  0  0  0
 11 13  1  0  0  0  0
 11 14  1  0  0  0  0
 14 15  1  0  0  0  0
 16 17  2  0  0  0  0
 16 18  1  0  0  0  0
 18 19  1  0  0  0  0
 18 20  1  0  0  0  0
 20 21  1  0  0  0  0
 20 22  1  0  0  0  0
 20 23  1  0  0  0  0
M  END
$$$$

  -OEChem-01062216073D

 23 22  0     1  0  0  0  0  0999 V2000
   -2.6882   -3.5176    1.0832 H   0  0  0  0  0  0  0  0  0  0  0  0
   -2.6688   -2.5437    0.5863 C   0  0  0  0  0  0  0  0  0  0  0  0
   -3.5469   -1.9720    0.8958 H   0  0  0  0  0  0  0  0  0  0  0  0
   -2.7050   -2.7002   -0.4946 H   0  0  0  0  0  0  0  0  0  0  0  0
   -1.4043   -1.7933    0.9569 C   0  0  0  0  0  0  0  0  0  0  0  0
   -0.6170   -2.2649    1.7637 O   0  0  0  0  0  0  0  0  0  0  0  0
   -1.1798   -0.5256    0.4644 N   0  0  0  0  0  0  0  0  0  0  0  0
   -1.8372   -0.2154   -0.2454 H   0  0  0  0  0  0  0  0  0  0  0  0
    0.1774    0.0458    0.4001 C   0  0  1  0  0  0  0  0  0  0  0  0
    0.9401   -0.7296    0.5315 H   0  0  0  0  0  0  0  0  0  0  0  0
    0.3668    0.6647   -0.9933 C   0  0  0  0  0  0  0  0  0  0  0  0
   -0.4060    1.4174   -1.1822 H   0  0  0  0  0  0  0  0  0  0  0  0
    1.3383    1.1692   -1.0378 H   0  0  0  0  0  0  0  0  0  0  0  0
    0.3150   -0.6436   -2.2875 S   0  0  0  0  0  0  0  0  0  0  0  0
    0.6313    0.0733   -3.3887 H   0  0  0  0  0  0  0  0  0  0  0  0
    0.3767    1.0915    1.5159 C   0  0  0  0  0  0  0  0  0  0  0  0
    0.6458    2.2627    1.2752 O   0  0  0  0  0  0  0  0  0  0  0  0
    0.2402    0.6754    2.8254 N   0  0  0  0  0  0  0  0  0  0  0  0
    0.0007   -0.3074    2.9652 H   0  0  0  0  0  0  0  0  0  0  0  0
    0.3982    1.5493    3.9796 C   0  0  0  0  0  0  0  0  0  0  0  0
   -0.3427    2.3550    3.9543 H   0  0  0  0  0  0  0  0  0  0  0  0
    0.2607    0.9813    4.9047 H   0  0  0  0  0  0  0  0  0  0  0  0
    1.4001    1.9909    3.9911 H   0  0  0  0  0  0  0  0  0  0  0  0
  1  2  1  0  0  0  0
  2  3  1  0  0  0  0
  2  4  1  0  0  0  0
  2  5  1  0  0  0  0
  5  6  2  0  0  0  0
  5  7  1  0  0  0  0
  7  8  1  0  0  0  0
  7  9  1  0  0  0  0
  9 10  1  0  0  0  0
  9 11  1  0  0  0  0
  9 16  1  0  0  0  0
 11 12  1  0  0  0  0
 11 13  1  0  0  0  0
 11 14  1  0  0  0  0
 14 15  1  0  0  0  0
 16 17  2  0  0  0  0
 16 18  1  0  0  0  0
 18 19  1  0  0  0  0
 18 20  1  0  0  0  0
 20 21  1  0  0  0  0
 20 22  1  0  0  0  0
 20 23  1  0  0  0  0
M  END
$$$$

  -OEChem-01062216073D

 23 22  0     1  0  0  0  0  0999 V2000
   -2.6566   -3.5258    1.0575 H   0  0  0  0  0  0  0  0  0  0  0  0
   -2.6742   -2.5189    0.6312 C   0  0  0  0  0  0  0  0  0  0  0  0
   -3.5253   -1.9740    1.0466 H   0  0  0  0  0  0  0  0  0  0  0  0
   -2.7931   -2.5986   -0.4521 H   0  0  0  0  0  0  0  0  0  0  0  0
   -1.3843   -1.7915    0.9578 C   0  0  0  0  0  0  0  0  0  0  0  0
   -0.5720   -2.2868    1.7253 O   0  0  0  0  0  0  0  0  0  0  0  0
   -1.1564   -0.5259    0.4609 N   0  0  0  0  0  0  0  0  0  0  0  0
   -1.8304   -0.1931   -0.2225 H   0  0  0  0  0  0  0  0  0  0  0  0
    0.2005    0.0412    0.3926 C   0  0  1  0  0  0  0  0  0  0  0  0
    0.9638   -0.7343    0.5189 H   0  0  0  0  0  0  0  0  0  0  0  0
    0.3894    0.6631   -0.9992 C   0  0  0  0  0  0  0  0  0  0  0  0
   -0.3839    1.4161   -1.1852 H   0  0  0  0  0  0  0  0  0  0  0  0
    1.3602    1.1688   -1.0420 H   0  0  0  0  0  0  0  0  0  0  0  0
    0.3317   -0.6395   -2.2988 S   0  0  0  0  0  0  0  0  0  0  0  0
    0.6189    0.0872   -3.4015 H   0  0  0  0  0  0  0  0  0  0  0  0
    0.3996    1.0886    1.5047 C   0  0  0  0  0  0  0  0  0  0  0  0
    0.4309    2.2913    1.2701 O   0  0  0  0  0  0  0  0  0  0  0  0
    0.5757    0.6352    2.7968 N   0  0  0  0  0  0  0  0  0  0  0  0
    0.4294   -0.3640    2.9462 H   0  0  0  0  0  0  0  0  0  0  0  0
    0.7132    1.5157    3.9488 C   0  0  0  0  0  0  0  0  0  0  0  0
   -0.1944    2.1127    4.0854 H   0  0  0  0  0  0  0  0  0  0  0  0
    0.8818    0.9264    4.8552 H   0  0  0  0  0  0  0  0  0  0  0  0
    1.5638    2.1923    3.8147 H   0  0  0  0  0  0  0  0  0  0  0  0
  1  2  1  0  0  0  0
  2  3  1  0  0  0  0
  2  4  1  0  0  0  0
  2  5  1  0  0  0  0
  5  6  2  0  0  0  0
  5  7  1  0  0  0  0
  7  8  1  0  0  0  0
  7  9  1  0  0  0  0
  9 10  1  0  0  0  0
  9 11  1  0  0  0  0
  9 16  1  0  0  0  0
 11 12  1  0  0  0  0
 11 13  1  0  0  0  0
 11 14  1  0  0  0  0
 14 15  1  0  0  0  0
 16 17  2  0  0  0  0
 16 18  1  0  0  0  0
 18 19  1  0  0  0  0
 18 20  1  0  0  0  0
 20 21  1  0  0  0  0
 20 22  1  0  0  0  0
 20 23  1  0  0  0  0
M  END
$$$$

  -OEChem-01062216073D

 23 22  0     1  0  0  0  0  0999 V2000
   -2.6862   -3.5082    1.1109 H   0  0  0  0  0  0  0  0  0  0  0  0
   -2.6873   -2.5094    0.6656 C   0  0  0  0  0  0  0  0  0  0  0  0
   -3.5082   -1.9314    1.0967 H   0  0  0  0  0  0  0  0  0  0  0  0
   -2.8427   -2.6050   -0.4117 H   0  0  0  0  0  0  0  0  0  0  0  0
   -1.3667   -1.8154    0.9378 C   0  0  0  0  0  0  0  0  0  0  0  0
   -0.5240   -2.3481    1.6448 O   0  0  0  0  0  0  0  0  0  0  0  0
   -1.1388   -0.5474    0.4465 N   0  0  0  0  0  0  0  0  0  0  0  0
   -1.8403   -0.1773   -0.1880 H   0  0  0  0  0  0  0  0  0  0  0  0
    0.2098    0.0379    0.3863 C   0  0  1  0  0  0  0  0  0  0  0  0
    0.9820   -0.7292    0.5097 H   0  0  0  0  0  0  0  0  0  0  0  0
    0.3989    0.6702   -1.0006 C   0  0  0  0  0  0  0  0  0  0  0  0
   -0.3855    1.4116   -1.1876 H   0  0  0  0  0  0  0  0  0  0  0  0
    1.3616    1.1915   -1.0333 H   0  0  0  0  0  0  0  0  0  0  0  0
    0.3662   -0.6235   -2.3100 S   0  0  0  0  0  0  0  0  0  0  0  0
    0.6372    0.1153   -3.4086 H   0  0  0  0  0  0  0  0  0  0  0  0
    0.3977    1.0886    1.4971 C   0  0  0  0  0  0  0  0  0  0  0  0
    0.1727    2.2777    1.3014 O   0  0  0  0  0  0  0  0  0  0  0  0
    0.8847    0.6744    2.7213 N   0  0  0  0  0  0  0  0  0  0  0  0
    0.9107   -0.3332    2.8748 H   0  0  0  0  0  0  0  0  0  0  0  0
    1.0378    1.5649    3.8644 C   0  0  0  0  0  0  0  0  0  0  0  0
    0.0653    1.9604    4.1755 H   0  0  0  0  0  0  0  0  0  0  0  0
    1.4790    1.0239    4.7071 H   0  0  0  0  0  0  0  0  0  0  0  0
    1.6954    2.4036    3.6124 H   0  0  0  0  0  0  0  0  0  0  0  0
  1  2  1  0  0  0  0
  2  3  1  0  0  0  0
  2  4  1  0  0  0  0
  2  5  1  0  0  0  0
  5  6  2  0  0  0  0
  5  7  1  0  0  0  0
  7  8  1  0  0  0  0
  7  9  1  0  0  0  0
  9 10  1  0  0  0  0
  9 11  1  0  0  0  0
  9 16  1  0  0  0  0
 11 12  1  0  0  0  0
 11 13  1  0  0  0  0
 11 14  1  0  0  0  0
 14 15  1  0  0  0  0
 16 17  2  0  0  0  0
 16 18  1  0  0  0  0
 18 19  1  0  0  0  0
 18 20  1  0  0  0  0
 20 21  1  0  0  0  0
 20 22  1  0  0  0  0
 20 23  1  0  0  0  0
M  END
$$$$

  -OEChem-01062216073D

 23 22  0     1  0  0  0  0  0999 V2000
   -2.6982   -3.5169    1.0987 H   0  0  0  0  0  0  0  0  0  0  0  0
   -2.7064   -2.4953    0.7086 C   0  0  0  0  0  0  0  0  0  0  0  0
   -3.4732   -1.9222    1.2354 H   0  0  0  0  0  0  0  0  0  0  0  0
   -2.9508   -2.5278   -0.3559 H   0  0  0  0  0  0  0  0  0  0  0  0
   -1.3488   -1.8495    0.9082 C   0  0  0  0  0  0  0  0  0  0  0  0
   -0.4801   -2.4294    1.5423 O   0  0  0  0  0  0  0  0  0  0  0  0
   -1.1121   -0.5808    0.4224 N   0  0  0  0  0  0  0  0  0  0  0  0
   -1.8504   -0.1505   -0.1266 H   0  0  0  0  0  0  0  0  0  0  0  0
    0.2284    0.0231    0.3751 C   0  0  1  0  0  0  0  0  0  0  0  0
    1.0069   -0.7369    0.5002 H   0  0  0  0  0  0  0  0  0  0  0  0
    0.4223    0.6702   -1.0042 C   0  0  0  0  0  0  0  0  0  0  0  0
   -0.3713    1.4018   -1.1911 H   0  0  0  0  0  0  0  0  0  0  0  0
    1.3775    1.2059   -1.0239 H   0  0  0  0  0  0  0  0  0  0  0  0
    0.4189   -0.6081   -2.3288 S   0  0  0  0  0  0  0  0  0  0  0  0
    0.6459    0.1534   -3.4216 H   0  0  0  0  0  0  0  0  0  0  0  0
    0.3984    1.0796    1.4831 C   0  0  0  0  0  0  0  0  0  0  0  0
   -0.0808    2.2013    1.3615 O   0  0  0  0  0  0  0  0  0  0  0  0
    1.1583    0.7780    2.5969 N   0  0  0  0  0  0  0  0  0  0  0  0
    1.3995   -0.2028    2.7247 H   0  0  0  0  0  0  0  0  0  0  0  0
    1.3113    1.6887    3.7245 C   0  0  0  0  0  0  0  0  0  0  0  0
    0.3422    1.8803    4.1969 H   0  0  0  0  0  0  0  0  0  0  0  0
    1.9825    1.2544    4.4716 H   0  0  0  0  0  0  0  0  0  0  0  0
    1.7365    2.6422    3.3936 H   0  0  0  0  0  0  0  0  0  0  0  0
  1  2  1  0  0  0  0
  2  3  1  0  0  0  0
  2  4  1  0  0  0  0
  2  5  1  0  0  0  0
  5  6  2  0  0  0  0
  5  7  1  0  0  0  0
  7  8  1  0  0  0  0
  7  9  1  0  0  0  0
  9 10  1  0  0  0  0
  9 11  1  0  0  0  0
  9 16  1  0  0  0  0
 11 12  1  0  0  0  0
 11 13  1  0  0  0  0
 11 14  1  0  0  0  0
 14 15  1  0  0  0  0
 16 17  2  0  0  0  0
 16 18  1  0  0  0  0
 18 19  1  0  0  0  0
 18 20  1  0  0  0  0
 20 21  1  0  0  0  0
 20 22  1  0  0  0  0
 20 23  1  0  0  0  0
M  END
$$$$

  -OEChem-01062216073D

 23 22  0     1  0  0  0  0  0999 V2000
   -2.7252   -3.5062    1.1401 H   0  0  0  0  0  0  0  0  0  0  0  0
   -2.7236   -2.4805    0.7608 C   0  0  0  0  0  0  0  0  0  0  0  0
   -3.4245   -1.8849    1.3505 H   0  0  0  0  0  0  0  0  0  0  0  0
   -3.0504   -2.4909   -0.2818 H   0  0  0  0  0  0  0  0  0  0  0  0
   -1.3305   -1.8892    0.8601 C   0  0  0  0  0  0  0  0  0  0  0  0
   -0.4352   -2.5201    1.4008 O   0  0  0  0  0  0  0  0  0  0  0  0
   -1.0896   -0.6172    0.3849 N   0  0  0  0  0  0  0  0  0  0  0  0
   -1.8733   -0.1063   -0.0109 H   0  0  0  0  0  0  0  0  0  0  0  0
    0.2410    0.0099    0.3562 C   0  0  1  0  0  0  0  0  0  0  0  0
    1.0269   -0.7411    0.4883 H   0  0  0  0  0  0  0  0  0  0  0  0
    0.4455    0.6738   -1.0126 C   0  0  0  0  0  0  0  0  0  0  0  0
   -0.3577    1.3941   -1.2022 H   0  0  0  0  0  0  0  0  0  0  0  0
    1.3920    1.2245   -1.0133 H   0  0  0  0  0  0  0  0  0  0  0  0
    0.4820   -0.5883   -2.3520 S   0  0  0  0  0  0  0  0  0  0  0  0
    0.6992    0.1893   -3.4354 H   0  0  0  0  0  0  0  0  0  0  0  0
    0.3862    1.0679    1.4657 C   0  0  0  0  0  0  0  0  0  0  0  0
   -0.3212    2.0690    1.4602 O   0  0  0  0  0  0  0  0  0  0  0  0
    1.3660    0.9299    2.4305 N   0  0  0  0  0  0  0  0  0  0  0  0
    1.8364    0.0294    2.4781 H   0  0  0  0  0  0  0  0  0  0  0  0
    1.5259    1.8624    3.5395 C   0  0  0  0  0  0  0  0  0  0  0  0
    0.6265    1.8735    4.1643 H   0  0  0  0  0  0  0  0  0  0  0  0
    2.3766    1.5674    4.1613 H   0  0  0  0  0  0  0  0  0  0  0  0
    1.7081    2.8757    3.1661 H   0  0  0  0  0  0  0  0  0  0  0  0
  1  2  1  0  0  0  0
  2  3  1  0  0  0  0
  2  4  1  0  0  0  0
  2  5  1  0  0  0  0
  5  6  2  0  0  0  0
  5  7  1  0  0  0  0
  7  8  1  0  0  0  0
  7  9  1  0  0  0  0
  9 10  1  0  0  0  0
  9 11  1  0  0  0  0
  9 16  1  0  0  0  0
 11 12  1  0  0  0  0
 11 13  1  0  0  0  0
 11 14  1  0  0  0  0
 14 15  1  0  0  0  0
 16 17  2  0  0  0  0
 16 18  1  0  0  0  0
 18 19  1  0  0  0  0
 18 20  1  0  0  0  0
 20 21  1  0  0  0  0
 20 22  1  0  0  0  0
 20 23  1  0  0  0  0
M  END
$$$$

  -OEChem-01062216073D

 23 22  0     1  0  0  0  0  0999 V2000
   -2.7377   -3.4867    1.1981 H   0  0  0  0  0  0  0  0  0  0  0  0
   -2.7294   -2.4646    0.8093 C   0  0  0  0  0  0  0  0  0  0  0  0
   -3.3702   -1.8422    1.4385 H   0  0  0  0  0  0  0  0  0  0  0  0
   -3.1253   -2.4723   -0.2091 H   0  0  0  0  0  0  0  0  0  0  0  0
   -1.3146   -1.9178    0.8094 C   0  0  0  0  0  0  0  0  0  0  0  0
   -0.4006   -2.5915    1.2591 O   0  0  0  0  0  0  0  0  0  0  0  0
   -1.0752   -0.6423    0.3427 N   0  0  0  0  0  0  0  0  0  0  0  0
   -1.8834   -0.0715    0.1112 H   0  0  0  0  0  0  0  0  0  0  0  0
    0.2495   -0.0009    0.3372 C   0  0  1  0  0  0  0  0  0  0  0  0
    1.0397   -0.7451    0.4790 H   0  0  0  0  0  0  0  0  0  0  0  0
    0.4673    0.6760   -1.0220 C   0  0  0  0  0  0  0  0  0  0  0  0
   -0.3426    1.3874   -1.2161 H   0  0  0  0  0  0  0  0  0  0  0  0
    1.4071    1.2376   -1.0052 H   0  0  0  0  0  0  0  0  0  0  0  0
    0.5372   -0.5723   -2.3727 S   0  0  0  0  0  0  0  0  0  0  0  0
    0.7341    0.2198   -3.4491 H   0  0  0  0  0  0  0  0  0  0  0  0
    0.3713    1.0571    1.4491 C   0  0  0  0  0  0  0  0  0  0  0  0
   -0.5006    1.9085    1.5818 O   0  0  0  0  0  0  0  0  0  0  0  0
    1.5040    1.1133    2.2396 N   0  0  0  0  0  0  0  0  0  0  0  0
    2.1511    0.3317    2.1760 H   0  0  0  0  0  0  0  0  0  0  0  0
    1.6693    2.0743    3.3235 C   0  0  0  0  0  0  0  0  0  0  0  0
    0.8885    1.9381    4.0791 H   0  0  0  0  0  0  0  0  0  0  0  0
    2.6435    1.9396    3.8034 H   0  0  0  0  0  0  0  0  0  0  0  0
    1.6138    3.0986    2.9397 H   0  0  0  0  0  0  0  0  0  0  0  0
  1  2  1  0  0  0  0
  2  3  1  0  0  0  0
  2  4  1  0  0  0  0
  2  5  1  0  0  0  0
  5  6  2  0  0  0  0
  5  7  1  0  0  0  0
  7  8  1  0  0  0  0
  7  9  1  0  0  0  0
  9 10  1  0  0  0  0
  9 11  1  0  0  0  0
  9 16  1  0  0  0  0
 11 12  1  0  0  0  0
 11 13  1  0  0  0  0
 11 14  1  0  0  0  0
 14 15  1  0  0  0  0
 16 17  2  0  0  0  0
 16 18  1  0  0  0  0
 18 19  1  0  0  0  0
 18 20  1  0  0  0  0
 20 21  1  0  0  0  0
 20 22  1  0  0  0  0
 20 23  1  0  0  0  0
M  END
$$$$

  -OEChem-01062216073D

 23 22  0     1  0  0  0  0  0999 V2000
   -2.7362   -3.4736    1.2305 H   0  0  0  0  0  0  0  0  0  0  0  0
   -2.7284   -2.4512    0.8428 C   0  0  0  0  0  0  0  0  0  0  0  0
   -3.3275   -1.8192    1.5027 H   0  0  0  0  0  0  0  0  0  0  0  0
   -3.1723   -2.4502   -0.1555 H   0  0  0  0  0  0  0  0  0  0  0  0
   -1.3060   -1.9288    0.7764 C   0  0  0  0  0  0  0  0  0  0  0  0
   -0.3840   -2.6240    1.1741 O   0  0  0  0  0  0  0  0  0  0  0  0
   -1.0713   -0.6519    0.3108 N   0  0  0  0  0  0  0  0  0  0  0  0
   -1.8855   -0.0585    0.1767 H   0  0  0  0  0  0  0  0  0  0  0  0
    0.2503   -0.0026    0.3245 C   0  0  1  0  0  0  0  0  0  0  0  0
    1.0423   -0.7422    0.4803 H   0  0  0  0  0  0  0  0  0  0  0  0
    0.4801    0.6756   -1.0324 C   0  0  0  0  0  0  0  0  0  0  0  0
   -0.3339    1.3797   -1.2356 H   0  0  0  0  0  0  0  0  0  0  0  0
    1.4148    1.2452   -1.0061 H   0  0  0  0  0  0  0  0  0  0  0  0
    0.5751   -0.5710   -2.3835 S   0  0  0  0  0  0  0  0  0  0  0  0
    0.7605    0.2215   -3.4614 H   0  0  0  0  0  0  0  0  0  0  0  0
    0.3554    1.0591    1.4357 C   0  0  0  0  0  0  0  0  0  0  0  0
   -0.6199    1.7421    1.7279 O   0  0  0  0  0  0  0  0  0  0  0  0
    1.5750    1.3283    2.0290 N   0  0  0  0  0  0  0  0  0  0  0  0
    2.3389    0.6880    1.8300 H   0  0  0  0  0  0  0  0  0  0  0  0
    1.7416    2.3090    3.0950 C   0  0  0  0  0  0  0  0  0  0  0  0
    1.1407    2.0323    3.9677 H   0  0  0  0  0  0  0  0  0  0  0  0
    2.7914    2.3621    3.3994 H   0  0  0  0  0  0  0  0  0  0  0  0
    1.4318    3.3027    2.7547 H   0  0  0  0  0  0  0  0  0  0  0  0
  1  2  1  0  0  0  0
  2  3  1  0  0  0  0
  2  4  1  0  0  0  0
  2  5  1  0  0  0  0
  5  6  2  0  0  0  0
  5  7  1  0  0  0  0
  7  8  1  0  0  0  0
  7  9  1  0  0  0  0
  9 10  1  0  0  0  0
  9 11  1  0  0  0  0
  9 16  1  0  0  0  0
 11 12  1  0  0  0  0
 11 13  1  0  0  0  0
 11 14  1  0  0  0  0
 14 15  1  0  0  0  0
 16 17  2  0  0  0  0
 16 18  1  0  0  0  0
 18 19  1  0  0  0  0
 18 20  1  0  0  0  0
 20 21  1  0  0  0  0
 20 22  1  0  0  0  0
 20 23  1  0  0  0  0
M  END
$$$$

  -OEChem-01062216073D

 23 22  0     1  0  0  0  0  0999 V2000
   -2.7276   -3.4664    1.2506 H   0  0  0  0  0  0  0  0  0  0  0  0
   -2.7239   -2.4425    0.8666 C   0  0  0  0  0  0  0  0  0  0  0  0
   -3.2903   -1.8067    1.5513 H   0  0  0  0  0  0  0  0  0  0  0  0
   -3.2054   -2.4324   -0.1142 H   0  0  0  0  0  0  0  0  0  0  0  0
   -1.2997   -1.9345    0.7484 C   0  0  0  0  0  0  0  0  0  0  0  0
   -0.3714   -2.6449    1.1021 O   0  0  0  0  0  0  0  0  0  0  0  0
   -1.0715   -0.6554    0.2845 N   0  0  0  0  0  0  0  0  0  0  0  0
   -1.8868   -0.0515    0.2229 H   0  0  0  0  0  0  0  0  0  0  0  0
    0.2488   -0.0020    0.3160 C   0  0  1  0  0  0  0  0  0  0  0  0
    1.0426   -0.7373    0.4829 H   0  0  0  0  0  0  0  0  0  0  0  0
    0.4857    0.6734   -1.0422 C   0  0  0  0  0  0  0  0  0  0  0  0
   -0.3313    1.3715   -1.2534 H   0  0  0  0  0  0  0  0  0  0  0  0
    1.4169    1.2482   -1.0137 H   0  0  0  0  0  0  0  0  0  0  0  0
    0.5980   -0.5754   -2.3896 S   0  0  0  0  0  0  0  0  0  0  0  0
    0.7710    0.2156   -3.4706 H   0  0  0  0  0  0  0  0  0  0  0  0
    0.3415    1.0617    1.4289 C   0  0  0  0  0  0  0  0  0  0  0  0
   -0.6763    1.5705    1.8857 O   0  0  0  0  0  0  0  0  0  0  0  0
    1.5736    1.5548    1.8191 N   0  0  0  0  0  0  0  0  0  0  0  0
    2.3980    1.0647    1.4831 H   0  0  0  0  0  0  0  0  0  0  0  0
    1.7326    2.5597    2.8637 C   0  0  0  0  0  0  0  0  0  0  0  0
    1.3326    2.1905    3.8141 H   0  0  0  0  0  0  0  0  0  0  0  0
    2.7918    2.7972    3.0024 H   0  0  0  0  0  0  0  0  0  0  0  0
    1.2059    3.4812    2.5935 H   0  0  0  0  0  0  0  0  0  0  0  0
  1  2  1  0  0  0  0
  2  3  1  0  0  0  0
  2  4  1  0  0  0  0
  2  5  1  0  0  0  0
  5  6  2  0  0  0  0
  5  7  1  0  0  0  0
  7  8  1  0  0  0  0
  7  9  1  0  0  0  0
  9 10  1  0  0  0  0
  9 11  1  0  0  0  0
  9 16  1  0  0  0  0
 11 12  1  0  0  0  0
 11 13  1  0  0  0  0
 11 14  1  0  0  0  0
 14 15  1  0  0  0  0
 16 17  2  0  0  0  0
 16 18  1  0  0  0  0
 18 19  1  0  0  0  0
 18 20  1  0  0  0  0
 20 21  1  0  0  0  0
 20 22  1  0  0  0  0
 20 23  1  0  0  0  0
M  END
$$$$

  -OEChem-01062216073D

 23 22  0     1  0  0  0  0  0999 V2000
   -2.6820   -3.4605    1.2850 H   0  0  0  0  0  0  0  0  0  0  0  0
   -2.6999   -2.4340    0.9087 C   0  0  0  0  0  0  0  0  0  0  0  0
   -3.2200   -1.8024    1.6329 H   0  0  0  0  0  0  0  0  0  0  0  0
   -3.2421   -2.4152   -0.0396 H   0  0  0  0  0  0  0  0  0  0  0  0
   -1.2847   -1.9281    0.7052 C   0  0  0  0  0  0  0  0  0  0  0  0
   -0.3370   -2.6519    0.9703 O   0  0  0  0  0  0  0  0  0  0  0  0
   -1.0805   -0.6430    0.2457 N   0  0  0  0  0  0  0  0  0  0  0  0
   -1.8975   -0.0403    0.2582 H   0  0  0  0  0  0  0  0  0  0  0  0
    0.2413    0.0070    0.2939 C   0  0  1  0  0  0  0  0  0  0  0  0
    1.0386   -0.7373    0.1954 H   0  0  0  0  0  0  0  0  0  0  0  0
    0.3311    0.9764   -0.8950 C   0  0  0  0  0  0  0  0  0  0  0  0
   -0.5002    1.6880   -0.8538 H   0  0  0  0  0  0  0  0  0  0  0  0
    1.2624    1.5489   -0.8436 H   0  0  0  0  0  0  0  0  0  0  0  0
    0.2901    0.0627   -2.4922 S   0  0  0  0  0  0  0  0  0  0  0  0
    0.3434    1.0778   -3.3818 H   0  0  0  0  0  0  0  0  0  0  0  0
    0.4690    0.7795    1.6136 C   0  0  0  0  0  0  0  0  0  0  0  0
   -0.4553    0.9580    2.3992 O   0  0  0  0  0  0  0  0  0  0  0  0
    1.6601    1.4496    1.8332 N   0  0  0  0  0  0  0  0  0  0  0  0
    2.4370    1.2270    1.2177 H   0  0  0  0  0  0  0  0  0  0  0  0
    1.9276    2.2144    3.0460 C   0  0  0  0  0  0  0  0  0  0  0  0
    1.8667    1.5682    3.9281 H   0  0  0  0  0  0  0  0  0  0  0  0
    2.9302    2.6510    3.0050 H   0  0  0  0  0  0  0  0  0  0  0  0
    1.2025    3.0279    3.1551 H   0  0  0  0  0  0  0  0  0  0  0  0
  1  2  1  0  0  0  0
  2  3  1  0  0  0  0
  2  4  1  0  0  0  0
  2  5  1  0  0  0  0
  5  6  2  0  0  0  0
  5  7  1  0  0  0  0
  7  8  1  0  0  0  0
  7  9  1  0  0  0  0
  9 10  1  0  0  0  0
  9 11  1  0  0  0  0
  9 16  1  0  0  0  0
 11 12  1  0  0  0  0
 11 13  1  0  0  0  0
 11 14  1  0  0  0  0
 14 15  1  0  0  0  0
 16 17  2  0  0  0  0
 16 18  1  0  0  0  0
 18 19  1  0  0  0  0
 18 20  1  0  0  0  0
 20 21  1  0  0  0  0
 20 22  1  0  0  0  0
 20 23  1  0  0  0  0
M  END
$$$$

  -OEChem-01062216073D

 23 22  0     1  0  0  0  0  0999 V2000
   -2.6747   -3.4493    1.3000 H   0  0  0  0  0  0  0  0  0  0  0  0
   -2.6941   -2.4244    0.9194 C   0  0  0  0  0  0  0  0  0  0  0  0
   -3.2023   -1.7886    1.6484 H   0  0  0  0  0  0  0  0  0  0  0  0
   -3.2490   -2.4078   -0.0215 H   0  0  0  0  0  0  0  0  0  0  0  0
   -1.2803   -1.9237    0.6940 C   0  0  0  0  0  0  0  0  0  0  0  0
   -0.3326   -2.6597    0.9224 O   0  0  0  0  0  0  0  0  0  0  0  0
   -1.0809   -0.6359    0.2384 N   0  0  0  0  0  0  0  0  0  0  0  0
   -1.8989   -0.0359    0.2695 H   0  0  0  0  0  0  0  0  0  0  0  0
    0.2409    0.0151    0.2891 C   0  0  1  0  0  0  0  0  0  0  0  0
    1.0406   -0.7275    0.1960 H   0  0  0  0  0  0  0  0  0  0  0  0
    0.3249    0.9694   -0.9154 C   0  0  0  0  0  0  0  0  0  0  0  0
   -0.5087    1.6789   -0.8838 H   0  0  0  0  0  0  0  0  0  0  0  0
    1.2546    1.5445   -0.8797 H   0  0  0  0  0  0  0  0  0  0  0  0
    0.2883    0.0323   -2.4994 S   0  0  0  0  0  0  0  0  0  0  0  0
    0.3340    1.0332   -3.4051 H   0  0  0  0  0  0  0  0  0  0  0  0
    0.4671    0.7845    1.6154 C   0  0  0  0  0  0  0  0  0  0  0  0
   -0.3664    0.7399    2.5132 O   0  0  0  0  0  0  0  0  0  0  0  0
    1.4985    1.7014    1.7350 N   0  0  0  0  0  0  0  0  0  0  0  0
    2.2252    1.6766    1.0261 H   0  0  0  0  0  0  0  0  0  0  0  0
    1.7347    2.4781    2.9471 C   0  0  0  0  0  0  0  0  0  0  0  0
    1.9183    1.8141    3.7985 H   0  0  0  0  0  0  0  0  0  0  0  0
    2.6075    3.1253    2.8180 H   0  0  0  0  0  0  0  0  0  0  0  0
    0.8690    3.1096    3.1735 H   0  0  0  0  0  0  0  0  0  0  0  0
  1  2  1  0  0  0  0
  2  3  1  0  0  0  0
  2  4  1  0  0  0  0
  2  5  1  0  0  0  0
  5  6  2  0  0  0  0
  5  7  1  0  0  0  0
  7  8  1  0  0  0  0
  7  9  1  0  0  0  0
  9 10  1  0  0  0  0
  9 11  1  0  0  0  0
  9 16  1  0  0  0  0
 11 12  1  0  0  0  0
 11 13  1  0  0  0  0
 11 14  1  0  0  0  0
 14 15  1  0  0  0  0
 16 17  2  0  0  0  0
 16 18  1  0  0  0  0
 18 19  1  0  0  0  0
 18 20  1  0  0  0  0
 20 21  1  0  0  0  0
 20 22  1  0  0  0  0
 20 23  1  0  0  0  0
M  END
$$$$

  -OEChem-01062216073D

 23 22  0     1  0  0  0  0  0999 V2000
   -2.6687   -3.4356    1.3273 H   0  0  0  0  0  0  0  0  0  0  0  0
   -2.6916   -2.4167    0.9309 C   0  0  0  0  0  0  0  0  0  0  0  0
   -3.1975   -1.7706    1.6523 H   0  0  0  0  0  0  0  0  0  0  0  0
   -3.2505   -2.4154   -0.0077 H   0  0  0  0  0  0  0  0  0  0  0  0
   -1.2792   -1.9178    0.6926 C   0  0  0  0  0  0  0  0  0  0  0  0
   -0.3321   -2.6620    0.8945 O   0  0  0  0  0  0  0  0  0  0  0  0
   -1.0829   -0.6282    0.2389 N   0  0  0  0  0  0  0  0  0  0  0  0
   -1.9034   -0.0321    0.2624 H   0  0  0  0  0  0  0  0  0  0  0  0
    0.2389    0.0246    0.2821 C   0  0  1  0  0  0  0  0  0  0  0  0
    1.0389   -0.7184    0.1933 H   0  0  0  0  0  0  0  0  0  0  0  0
    0.3218    0.9616   -0.9368 C   0  0  0  0  0  0  0  0  0  0  0  0
   -0.5109    1.6723   -0.9156 H   0  0  0  0  0  0  0  0  0  0  0  0
    1.2537    1.5332   -0.9129 H   0  0  0  0  0  0  0  0  0  0  0  0
    0.2864    0.0017   -2.5069 S   0  0  0  0  0  0  0  0  0  0  0  0
    0.3458    0.9874   -3.4286 H   0  0  0  0  0  0  0  0  0  0  0  0
    0.4670    0.7909    1.6127 C   0  0  0  0  0  0  0  0  0  0  0  0
   -0.2066    0.5315    2.6027 O   0  0  0  0  0  0  0  0  0  0  0  0
    1.2732    1.9170    1.6684 N   0  0  0  0  0  0  0  0  0  0  0  0
    1.8823    2.0942    0.8762 H   0  0  0  0  0  0  0  0  0  0  0  0
    1.4738    2.6938    2.8873 C   0  0  0  0  0  0  0  0  0  0  0  0
    1.9028    2.0664    3.6759 H   0  0  0  0  0  0  0  0  0  0  0  0
    2.1574    3.5269    2.6976 H   0  0  0  0  0  0  0  0  0  0  0  0
    0.5223    3.1040    3.2424 H   0  0  0  0  0  0  0  0  0  0  0  0
  1  2  1  0  0  0  0
  2  3  1  0  0  0  0
  2  4  1  0  0  0  0
  2  5  1  0  0  0  0
  5  6  2  0  0  0  0
  5  7  1  0  0  0  0
  7  8  1  0  0  0  0
  7  9  1  0  0  0  0
  9 10  1  0  0  0  0
  9 11  1  0  0  0  0
  9 16  1  0  0  0  0
 11 12  1  0  0  0  0
 11 13  1  0  0  0  0
 11 14  1  0  0  0  0
 14 15  1  0  0  0  0
 16 17  2  0  0  0  0
 16 18  1  0  0  0  0
 18 19  1  0  0  0  0
 18 20  1  0  0  0  0
 20 21  1  0  0  0  0
 20 22  1  0  0  0  0
 20 23  1  0  0  0  0
M  END
$$$$

  -OEChem-01062216073D

 23 22  0     1  0  0  0  0  0999 V2000
   -2.6659   -3.4343    1.3382 H   0  0  0  0  0  0  0  0  0  0  0  0
   -2.6928   -2.4159    0.9408 C   0  0  0  0  0  0  0  0  0  0  0  0
   -3.1989   -1.7711    1.6631 H   0  0  0  0  0  0  0  0  0  0  0  0
   -3.2540   -2.4177    0.0036 H   0  0  0  0  0  0  0  0  0  0  0  0
   -1.2821   -1.9133    0.6987 C   0  0  0  0  0  0  0  0  0  0  0  0
   -0.3352   -2.6608    0.8855 O   0  0  0  0  0  0  0  0  0  0  0  0
   -1.0893   -0.6227    0.2444 N   0  0  0  0  0  0  0  0  0  0  0  0
   -1.9155   -0.0348    0.2369 H   0  0  0  0  0  0  0  0  0  0  0  0
    0.2299    0.0364    0.2780 C   0  0  1  0  0  0  0  0  0  0  0  0
    1.0310   -0.7067    0.1986 H   0  0  0  0  0  0  0  0  0  0  0  0
    0.3229    0.9564   -0.9526 C   0  0  0  0  0  0  0  0  0  0  0  0
   -0.5063    1.6713   -0.9493 H   0  0  0  0  0  0  0  0  0  0  0  0
    1.2601    1.5201   -0.9274 H   0  0  0  0  0  0  0  0  0  0  0  0
    0.2987   -0.0247   -2.5095 S   0  0  0  0  0  0  0  0  0  0  0  0
    0.4002    0.9447   -3.4447 H   0  0  0  0  0  0  0  0  0  0  0  0
    0.4568    0.8026    1.6095 C   0  0  0  0  0  0  0  0  0  0  0  0
    0.0166    0.3591    2.6620 O   0  0  0  0  0  0  0  0  0  0  0  0
    0.9865    2.0839    1.6349 N   0  0  0  0  0  0  0  0  0  0  0  0
    1.3822    2.4475    0.7747 H   0  0  0  0  0  0  0  0  0  0  0  0
    1.1711    2.8471    2.8650 C   0  0  0  0  0  0  0  0  0  0  0  0
    1.8316    2.3100    3.5540 H   0  0  0  0  0  0  0  0  0  0  0  0
    1.6199    3.8201    2.6437 H   0  0  0  0  0  0  0  0  0  0  0  0
    0.2089    3.0162    3.3601 H   0  0  0  0  0  0  0  0  0  0  0  0
  1  2  1  0  0  0  0
  2  3  1  0  0  0  0
  2  4  1  0  0  0  0
  2  5  1  0  0  0  0
  5  6  2  0  0  0  0
  5  7  1  0  0  0  0
  7  8  1  0  0  0  0
  7  9  1  0  0  0  0
  9 10  1  0  0  0  0
  9 11  1  0  0  0  0
  9 16  1  0  0  0  0
 11 12  1  0  0  0  0
 11 13  1  0  0  0  0
 11 14  1  0  0  0  0
 14 15  1  0  0  0  0
 16 17  2  0  0  0  0
 16 18  1  0  0  0  0
 18 19  1  0  0  0  0
 18 20  1  0  0  0  0
 20 21  1  0  0  0  0
 20 22  1  0  0  0  0
 20 23  1  0  0  0  0
M  END
$$$$

  -OEChem-01062216073D

 23 22  0     1  0  0  0  0  0999 V2000
   -2.6754   -3.4479    1.3116 H   0  0  0  0  0  0  0  0  0  0  0  0
   -2.7004   -2.4235    0.9296 C   0  0  0  0  0  0  0  0  0  0  0  0
   -3.2186   -1.7913    1.6544 H   0  0  0  0  0  0  0  0  0  0  0  0
   -3.2487   -2.4126   -0.0152 H   0  0  0  0  0  0  0  0  0  0  0  0
   -1.2878   -1.9140    0.7154 C   0  0  0  0  0  0  0  0  0  0  0  0
   -0.3425   -2.6608    0.9096 O   0  0  0  0  0  0  0  0  0  0  0  0
   -1.0933   -0.6229    0.2629 N   0  0  0  0  0  0  0  0  0  0  0  0
   -1.9243   -0.0452    0.2009 H   0  0  0  0  0  0  0  0  0  0  0  0
    0.2229    0.0422    0.2866 C   0  0  1  0  0  0  0  0  0  0  0  0
    1.0241   -0.7014    0.2093 H   0  0  0  0  0  0  0  0  0  0  0  0
    0.3209    0.9552   -0.9477 C   0  0  0  0  0  0  0  0  0  0  0  0
   -0.5093    1.6687   -0.9549 H   0  0  0  0  0  0  0  0  0  0  0  0
    1.2588    1.5186   -0.9150 H   0  0  0  0  0  0  0  0  0  0  0  0
    0.3023   -0.0351   -2.4985 S   0  0  0  0  0  0  0  0  0  0  0  0
    0.4528    0.9236   -3.4378 H   0  0  0  0  0  0  0  0  0  0  0  0
    0.4562    0.8084    1.6151 C   0  0  0  0  0  0  0  0  0  0  0  0
    0.2994    0.2474    2.6902 O   0  0  0  0  0  0  0  0  0  0  0  0
    0.6832    2.1763    1.6380 N   0  0  0  0  0  0  0  0  0  0  0  0
    0.8082    2.6510    0.7506 H   0  0  0  0  0  0  0  0  0  0  0  0
    0.8463    2.9401    2.8707 C   0  0  0  0  0  0  0  0  0  0  0  0
    1.7018    2.5663    3.4433 H   0  0  0  0  0  0  0  0  0  0  0  0
    1.0186    3.9961    2.6418 H   0  0  0  0  0  0  0  0  0  0  0  0
   -0.0527    2.8641    3.4916 H   0  0  0  0  0  0  0  0  0  0  0  0
  1  2  1  0  0  0  0
  2  3  1  0  0  0  0
  2  4  1  0  0  0  0
  2  5  1  0  0  0  0
  5  6  2  0  0  0  0
  5  7  1  0  0  0  0
  7  8  1  0  0  0  0
  7  9  1  0  0  0  0
  9 10  1  0  0  0  0
  9 11  1  0  0  0  0
  9 16  1  0  0  0  0
 11 12  1  0  0  0  0
 11 13  1  0  0  0  0
 11 14  1  0  0  0  0
 14 15  1  0  0  0  0
 16 17  2  0  0  0  0
 16 18  1  0  0  0  0
 18 19  1  0  0  0  0
 18 20  1  0  0  0  0
 20 21  1  0  0  0  0
 20 22  1  0  0  0  0
 20 23  1  0  0  0  0
M  END
$$$$

  -OEChem-01062216073D

 23 22  0     1  0  0  0  0  0999 V2000
   -2.6970   -3.4848    1.2504 H   0  0  0  0  0  0  0  0  0  0  0  0
   -2.7155   -2.4613    0.8652 C   0  0  0  0  0  0  0  0  0  0  0  0
   -3.3063   -1.8418    1.5438 H   0  0  0  0  0  0  0  0  0  0  0  0
   -3.1854   -2.4647   -0.1210 H   0  0  0  0  0  0  0  0  0  0  0  0
   -1.3030   -1.9174    0.7647 C   0  0  0  0  0  0  0  0  0  0  0  0
   -0.3607   -2.6355    1.0527 O   0  0  0  0  0  0  0  0  0  0  0  0
   -1.1030   -0.6289    0.3076 N   0  0  0  0  0  0  0  0  0  0  0  0
   -1.9334   -0.0886    0.0921 H   0  0  0  0  0  0  0  0  0  0  0  0
    0.2075    0.0470    0.3184 C   0  0  1  0  0  0  0  0  0  0  0  0
    1.0102   -0.6954    0.2399 H   0  0  0  0  0  0  0  0  0  0  0  0
    0.2994    0.9575   -0.9173 C   0  0  0  0  0  0  0  0  0  0  0  0
   -0.5349    1.6655   -0.9295 H   0  0  0  0  0  0  0  0  0  0  0  0
    1.2335    1.5284   -0.8805 H   0  0  0  0  0  0  0  0  0  0  0  0
    0.2827   -0.0369   -2.4653 S   0  0  0  0  0  0  0  0  0  0  0  0
    0.4558    0.9174   -3.4055 H   0  0  0  0  0  0  0  0  0  0  0  0
    0.4516    0.8248    1.6361 C   0  0  0  0  0  0  0  0  0  0  0  0
    0.6574    0.2306    2.6834 O   0  0  0  0  0  0  0  0  0  0  0  0
    0.3642    2.2079    1.6876 N   0  0  0  0  0  0  0  0  0  0  0  0
    0.1702    2.7040    0.8247 H   0  0  0  0  0  0  0  0  0  0  0  0
    0.5567    2.9767    2.9129 C   0  0  0  0  0  0  0  0  0  0  0  0
    1.5543    2.7951    3.3270 H   0  0  0  0  0  0  0  0  0  0  0  0
    0.4581    4.0472    2.7086 H   0  0  0  0  0  0  0  0  0  0  0  0
   -0.1912    2.6973    3.6626 H   0  0  0  0  0  0  0  0  0  0  0  0
  1  2  1  0  0  0  0
  2  3  1  0  0  0  0
  2  4  1  0  0  0  0
  2  5  1  0  0  0  0
  5  6  2  0  0  0  0
  5  7  1  0  0  0  0
  7  8  1  0  0  0  0
  7  9  1  0  0  0  0
  9 10  1  0  0  0  0
  9 11  1  0  0  0  0
  9 16  1  0  0  0  0
 11 12  1  0  0  0  0
 11 13  1  0  0  0  0
 11 14  1  0  0  0  0
 14 15  1  0  0  0  0
 16 17  2  0  0  0  0
 16 18  1  0  0  0  0
 18 19  1  0  0  0  0
 18 20  1  0  0  0  0
 20 21  1  0  0  0  0
 20 22  1  0  0  0  0
 20 23  1  0  0  0  0
M  END
$$$$

  -OEChem-01062216073D

 23 22  0     1  0  0  0  0  0999 V2000
   -2.6969   -3.5603    1.0988 H   0  0  0  0  0  0  0  0  0  0  0  0
   -2.7213   -2.5342    0.7210 C   0  0  0  0  0  0  0  0  0  0  0  0
   -3.4690   -1.9705    1.2838 H   0  0  0  0  0  0  0  0  0  0  0  0
   -3.0044   -2.5551   -0.3340 H   0  0  0  0  0  0  0  0  0  0  0  0
   -1.3579   -1.8887    0.8810 C   0  0  0  0  0  0  0  0  0  0  0  0
   -0.4552   -2.5141    1.4078 O   0  0  0  0  0  0  0  0  0  0  0  0
   -1.1536   -0.6089    0.4033 N   0  0  0  0  0  0  0  0  0  0  0  0
   -1.8930   -0.2285   -0.1779 H   0  0  0  0  0  0  0  0  0  0  0  0
    0.1645    0.0514    0.3792 C   0  0  1  0  0  0  0  0  0  0  0  0
    0.9541   -0.7037    0.2851 H   0  0  0  0  0  0  0  0  0  0  0  0
    0.2388    0.9606   -0.8569 C   0  0  0  0  0  0  0  0  0  0  0  0
   -0.5818    1.6842   -0.8524 H   0  0  0  0  0  0  0  0  0  0  0  0
    1.1825    1.5170   -0.8381 H   0  0  0  0  0  0  0  0  0  0  0  0
    0.1700   -0.0397   -2.3994 S   0  0  0  0  0  0  0  0  0  0  0  0
    0.4120    0.8993   -3.3406 H   0  0  0  0  0  0  0  0  0  0  0  0
    0.4534    0.8432    1.6773 C   0  0  0  0  0  0  0  0  0  0  0  0
    1.0979    0.3423    2.5862 O   0  0  0  0  0  0  0  0  0  0  0  0
    0.0899    2.1760    1.7951 N   0  0  0  0  0  0  0  0  0  0  0  0
   -0.5065    2.5632    1.0725 H   0  0  0  0  0  0  0  0  0  0  0  0
    0.3439    2.9680    2.9938 C   0  0  0  0  0  0  0  0  0  0  0  0
    1.4176    3.0105    3.2058 H   0  0  0  0  0  0  0  0  0  0  0  0
   -0.0200    3.9908    2.8565 H   0  0  0  0  0  0  0  0  0  0  0  0
   -0.1680    2.5309    3.8577 H   0  0  0  0  0  0  0  0  0  0  0  0
  1  2  1  0  0  0  0
  2  3  1  0  0  0  0
  2  4  1  0  0  0  0
  2  5  1  0  0  0  0
  5  6  2  0  0  0  0
  5  7  1  0  0  0  0
  7  8  1  0  0  0  0
  7  9  1  0  0  0  0
  9 10  1  0  0  0  0
  9 11  1  0  0  0  0
  9 16  1  0  0  0  0
 11 12  1  0  0  0  0
 11 13  1  0  0  0  0
 11 14  1  0  0  0  0
 14 15  1  0  0  0  0
 16 17  2  0  0  0  0
 16 18  1  0  0  0  0
 18 19  1  0  0  0  0
 18 20  1  0  0  0  0
 20 21  1  0  0  0  0
 20 22  1  0  0  0  0
 20 23  1  0  0  0  0
M  END
$$$$

  -OEChem-01062216073D

 23 22  0     1  0  0  0  0  0999 V2000
   -2.6759   -3.6056    1.0299 H   0  0  0  0  0  0  0  0  0  0  0  0
   -2.7076   -2.5881    0.6297 C   0  0  0  0  0  0  0  0  0  0  0  0
   -3.5411   -2.0539    1.0914 H   0  0  0  0  0  0  0  0  0  0  0  0
   -2.8679   -2.6412   -0.4497 H   0  0  0  0  0  0  0  0  0  0  0  0
   -1.4046   -1.8708    0.9275 C   0  0  0  0  0  0  0  0  0  0  0  0
   -0.5481   -2.4273    1.5905 O   0  0  0  0  0  0  0  0  0  0  0  0
   -1.2019   -0.5953    0.4386 N   0  0  0  0  0  0  0  0  0  0  0  0
   -1.8704   -0.2980   -0.2653 H   0  0  0  0  0  0  0  0  0  0  0  0
    0.1282    0.0402    0.4119 C   0  0  1  0  0  0  0  0  0  0  0  0
    0.9035   -0.7289    0.3094 H   0  0  0  0  0  0  0  0  0  0  0  0
    0.2124    0.9634   -0.8111 C   0  0  0  0  0  0  0  0  0  0  0  0
   -0.5902    1.7069   -0.7903 H   0  0  0  0  0  0  0  0  0  0  0  0
    1.1682    1.4989   -0.7908 H   0  0  0  0  0  0  0  0  0  0  0  0
    0.1121   -0.0197   -2.3629 S   0  0  0  0  0  0  0  0  0  0  0  0
    0.3834    0.9237   -3.2920 H   0  0  0  0  0  0  0  0  0  0  0  0
    0.4367    0.8310    1.7029 C   0  0  0  0  0  0  0  0  0  0  0  0
    1.3662    0.5011    2.4247 O   0  0  0  0  0  0  0  0  0  0  0  0
   -0.1670    2.0568    1.9323 N   0  0  0  0  0  0  0  0  0  0  0  0
   -0.9922    2.2694    1.3822 H   0  0  0  0  0  0  0  0  0  0  0  0
    0.1201    2.8726    3.1070 C   0  0  0  0  0  0  0  0  0  0  0  0
    1.1838    3.1309    3.1450 H   0  0  0  0  0  0  0  0  0  0  0  0
   -0.4572    3.8016    3.0735 H   0  0  0  0  0  0  0  0  0  0  0  0
   -0.1433    2.3320    4.0223 H   0  0  0  0  0  0  0  0  0  0  0  0
  1  2  1  0  0  0  0
  2  3  1  0  0  0  0
  2  4  1  0  0  0  0
  2  5  1  0  0  0  0
  5  6  2  0  0  0  0
  5  7  1  0  0  0  0
  7  8  1  0  0  0  0
  7  9  1  0  0  0  0
  9 10  1  0  0  0  0
  9 11  1  0  0  0  0
  9 16  1  0  0  0  0
 11 12  1  0  0  0  0
 11 13  1  0  0  0  0
 11 14  1  0  0  0  0
 14 15  1  0  0  0  0
 16 17  2  0  0  0  0
 16 18  1  0  0  0  0
 18 19  1  0  0  0  0
 18 20  1  0  0  0  0
 20 21  1  0  0  0  0
 20 22  1  0  0  0  0
 20 23  1  0  0  0  0
M  END
$$$$

  -OEChem-01062216073D

 23 22  0     1  0  0  0  0  0999 V2000
   -2.6893   -3.6144    1.0274 H   0  0  0  0  0  0  0  0  0  0  0  0
   -2.7028   -2.6147    0.5838 C   0  0  0  0  0  0  0  0  0  0  0  0
   -3.5701   -2.0715    0.9663 H   0  0  0  0  0  0  0  0  0  0  0  0
   -2.7901   -2.7140   -0.5008 H   0  0  0  0  0  0  0  0  0  0  0  0
   -1.4284   -1.8712    0.9361 C   0  0  0  0  0  0  0  0  0  0  0  0
   -0.5994   -2.3966    1.6576 O   0  0  0  0  0  0  0  0  0  0  0  0
   -1.2237   -0.5965    0.4468 N   0  0  0  0  0  0  0  0  0  0  0  0
   -1.8598   -0.3270   -0.2979 H   0  0  0  0  0  0  0  0  0  0  0  0
    0.1145    0.0226    0.4240 C   0  0  1  0  0  0  0  0  0  0  0  0
    0.8818   -0.7530    0.3122 H   0  0  0  0  0  0  0  0  0  0  0  0
    0.2039    0.9657   -0.7814 C   0  0  0  0  0  0  0  0  0  0  0  0
   -0.5875    1.7204   -0.7395 H   0  0  0  0  0  0  0  0  0  0  0  0
    1.1671    1.4879   -0.7558 H   0  0  0  0  0  0  0  0  0  0  0  0
    0.0824    0.0112   -2.3497 S   0  0  0  0  0  0  0  0  0  0  0  0
    0.3775    0.9653   -3.2605 H   0  0  0  0  0  0  0  0  0  0  0  0
    0.4345    0.8064    1.7132 C   0  0  0  0  0  0  0  0  0  0  0  0
    1.5246    0.6810    2.2528 O   0  0  0  0  0  0  0  0  0  0  0  0
   -0.3697    1.8680    2.0907 N   0  0  0  0  0  0  0  0  0  0  0  0
   -1.3037    1.8871    1.6944 H   0  0  0  0  0  0  0  0  0  0  0  0
   -0.0866    2.6966    3.2568 C   0  0  0  0  0  0  0  0  0  0  0  0
    0.8879    3.1857    3.1523 H   0  0  0  0  0  0  0  0  0  0  0  0
   -0.8506    3.4725    3.3646 H   0  0  0  0  0  0  0  0  0  0  0  0
   -0.0782    2.0871    4.1667 H   0  0  0  0  0  0  0  0  0  0  0  0
  1  2  1  0  0  0  0
  2  3  1  0  0  0  0
  2  4  1  0  0  0  0
  2  5  1  0  0  0  0
  5  6  2  0  0  0  0
  5  7  1  0  0  0  0
  7  8  1  0  0  0  0
  7  9  1  0  0  0  0
  9 10  1  0  0  0  0
  9 11  1  0  0  0  0
  9 16  1  0  0  0  0
 11 12  1  0  0  0  0
 11 13  1  0  0  0  0
 11 14  1  0  0  0  0
 14 15  1  0  0  0  0
 16 17  2  0  0  0  0
 16 18  1  0  0  0  0
 18 19  1  0  0  0  0
 18 20  1  0  0  0  0
 20 21  1  0  0  0  0
 20 22  1  0  0  0  0
 20 23  1  0  0  0  0
M  END
$$$$

  -OEChem-01062216073D

 23 22  0     1  0  0  0  0  0999 V2000
   -2.7039   -3.6104    1.0315 H   0  0  0  0  0  0  0  0  0  0  0  0
   -2.7020   -2.6229    0.5614 C   0  0  0  0  0  0  0  0  0  0  0  0
   -3.5803   -2.0695    0.9021 H   0  0  0  0  0  0  0  0  0  0  0  0
   -2.7553   -2.7502   -0.5226 H   0  0  0  0  0  0  0  0  0  0  0  0
   -1.4379   -1.8713    0.9328 C   0  0  0  0  0  0  0  0  0  0  0  0
   -0.6210   -2.3837    1.6776 O   0  0  0  0  0  0  0  0  0  0  0  0
   -1.2294   -0.5974    0.4441 N   0  0  0  0  0  0  0  0  0  0  0  0
   -1.8519   -0.3343   -0.3150 H   0  0  0  0  0  0  0  0  0  0  0  0
    0.1151    0.0097    0.4237 C   0  0  1  0  0  0  0  0  0  0  0  0
    0.8774   -0.7696    0.3043 H   0  0  0  0  0  0  0  0  0  0  0  0
    0.2040    0.9666   -0.7696 C   0  0  0  0  0  0  0  0  0  0  0  0
   -0.5804    1.7278   -0.7102 H   0  0  0  0  0  0  0  0  0  0  0  0
    1.1714    1.4811   -0.7452 H   0  0  0  0  0  0  0  0  0  0  0  0
    0.0641    0.0302   -2.3473 S   0  0  0  0  0  0  0  0  0  0  0  0
    0.3628    0.9923   -3.2484 H   0  0  0  0  0  0  0  0  0  0  0  0
    0.4445    0.7884    1.7120 C   0  0  0  0  0  0  0  0  0  0  0  0
    1.6032    0.8718    2.0952 O   0  0  0  0  0  0  0  0  0  0  0  0
   -0.4999    1.6399    2.2570 N   0  0  0  0  0  0  0  0  0  0  0  0
   -1.4619    1.4694    1.9810 H   0  0  0  0  0  0  0  0  0  0  0  0
   -0.2420    2.4510    3.4406 C   0  0  0  0  0  0  0  0  0  0  0  0
    0.5912    3.1386    3.2600 H   0  0  0  0  0  0  0  0  0  0  0  0
   -1.1268    3.0426    3.6942 H   0  0  0  0  0  0  0  0  0  0  0  0
    0.0071    1.8131    4.2953 H   0  0  0  0  0  0  0  0  0  0  0  0
  1  2  1  0  0  0  0
  2  3  1  0  0  0  0
  2  4  1  0  0  0  0
  2  5  1  0  0  0  0
  5  6  2  0  0  0  0
  5  7  1  0  0  0  0
  7  8  1  0  0  0  0
  7  9  1  0  0  0  0
  9 10  1  0  0  0  0
  9 11  1  0  0  0  0
  9 16  1  0  0  0  0
 11 12  1  0  0  0  0
 11 13  1  0  0  0  0
 11 14  1  0  0  0  0
 14 15  1  0  0  0  0
 16 17  2  0  0  0  0
 16 18  1  0  0  0  0
 18 19  1  0  0  0  0
 18 20  1  0  0  0  0
 20 21  1  0  0  0  0
 20 22  1  0  0  0  0
 20 23  1  0  0  0  0
M  END
$$$$

  -OEChem-01062216073D

 23 22  0     1  0  0  0  0  0999 V2000
   -2.7124   -3.6076    1.0217 H   0  0  0  0  0  0  0  0  0  0  0  0
   -2.7018   -2.6259    0.5398 C   0  0  0  0  0  0  0  0  0  0  0  0
   -3.5862   -2.0687    0.8573 H   0  0  0  0  0  0  0  0  0  0  0  0
   -2.7352   -2.7667   -0.5434 H   0  0  0  0  0  0  0  0  0  0  0  0
   -1.4444   -1.8700    0.9253 C   0  0  0  0  0  0  0  0  0  0  0  0
   -0.6413   -2.3707    1.6930 O   0  0  0  0  0  0  0  0  0  0  0  0
   -1.2304   -0.5971    0.4374 N   0  0  0  0  0  0  0  0  0  0  0  0
   -1.8441   -0.3337   -0.3288 H   0  0  0  0  0  0  0  0  0  0  0  0
    0.1182    0.0024    0.4222 C   0  0  1  0  0  0  0  0  0  0  0  0
    0.8780   -0.7783    0.2989 H   0  0  0  0  0  0  0  0  0  0  0  0
    0.2014    0.9641   -0.7678 C   0  0  0  0  0  0  0  0  0  0  0  0
   -0.5819    1.7258   -0.6988 H   0  0  0  0  0  0  0  0  0  0  0  0
    1.1691    1.4783   -0.7481 H   0  0  0  0  0  0  0  0  0  0  0  0
    0.0519    0.0353   -2.3493 S   0  0  0  0  0  0  0  0  0  0  0  0
    0.3464    1.0032   -3.2457 H   0  0  0  0  0  0  0  0  0  0  0  0
    0.4544    0.7804    1.7098 C   0  0  0  0  0  0  0  0  0  0  0  0
    1.6174    1.0637    1.9638 O   0  0  0  0  0  0  0  0  0  0  0  0
   -0.5565    1.3911    2.4288 N   0  0  0  0  0  0  0  0  0  0  0  0
   -1.4937    1.0434    2.2502 H   0  0  0  0  0  0  0  0  0  0  0  0
   -0.3115    2.1658    3.6390 C   0  0  0  0  0  0  0  0  0  0  0  0
    0.3503    3.0119    3.4252 H   0  0  0  0  0  0  0  0  0  0  0  0
   -1.2535    2.5578    4.0343 H   0  0  0  0  0  0  0  0  0  0  0  0
    0.1546    1.5395    4.4070 H   0  0  0  0  0  0  0  0  0  0  0  0
  1  2  1  0  0  0  0
  2  3  1  0  0  0  0
  2  4  1  0  0  0  0
  2  5  1  0  0  0  0
  5  6  2  0  0  0  0
  5  7  1  0  0  0  0
  7  8  1  0  0  0  0
  7  9  1  0  0  0  0
  9 10  1  0  0  0  0
  9 11  1  0  0  0  0
  9 16  1  0  0  0  0
 11 12  1  0  0  0  0
 11 13  1  0  0  0  0
 11 14  1  0  0  0  0
 14 15  1  0  0  0  0
 16 17  2  0  0  0  0
 16 18  1  0  0  0  0
 18 19  1  0  0  0  0
 18 20  1  0  0  0  0
 20 21  1  0  0  0  0
 20 22  1  0  0  0  0
 20 23  1  0  0  0  0
M  END
$$$$

  -OEChem-01062216073D

 23 22  0     1  0  0  0  0  0999 V2000
   -2.7104   -3.6082    0.9900 H   0  0  0  0  0  0  0  0  0  0  0  0
   -2.6993   -2.6238    0.5134 C   0  0  0  0  0  0  0  0  0  0  0  0
   -3.5919   -2.0736    0.8203 H   0  0  0  0  0  0  0  0  0  0  0  0
   -2.7158   -2.7588   -0.5709 H   0  0  0  0  0  0  0  0  0  0  0  0
   -1.4528   -1.8614    0.9200 C   0  0  0  0  0  0  0  0  0  0  0  0
   -0.6655   -2.3497    1.7119 O   0  0  0  0  0  0  0  0  0  0  0  0
   -1.2333   -0.5898    0.4324 N   0  0  0  0  0  0  0  0  0  0  0  0
   -1.8416   -0.3242   -0.3378 H   0  0  0  0  0  0  0  0  0  0  0  0
    0.1182    0.0052    0.4224 C   0  0  1  0  0  0  0  0  0  0  0  0
    0.8756   -0.7778    0.3014 H   0  0  0  0  0  0  0  0  0  0  0  0
    0.1972    0.9598   -0.7751 C   0  0  0  0  0  0  0  0  0  0  0  0
   -0.5881    1.7198   -0.7080 H   0  0  0  0  0  0  0  0  0  0  0  0
    1.1632    1.4774   -0.7642 H   0  0  0  0  0  0  0  0  0  0  0  0
    0.0464    0.0199   -2.3504 S   0  0  0  0  0  0  0  0  0  0  0  0
    0.3215    0.9874   -3.2532 H   0  0  0  0  0  0  0  0  0  0  0  0
    0.4588    0.7850    1.7103 C   0  0  0  0  0  0  0  0  0  0  0  0
    1.5794    1.2544    1.8610 O   0  0  0  0  0  0  0  0  0  0  0  0
   -0.5420    1.1401    2.5953 N   0  0  0  0  0  0  0  0  0  0  0  0
   -1.4114    0.6236    2.4983 H   0  0  0  0  0  0  0  0  0  0  0  0
   -0.2848    1.8581    3.8375 C   0  0  0  0  0  0  0  0  0  0  0  0
    0.1905    2.8229    3.6317 H   0  0  0  0  0  0  0  0  0  0  0  0
   -1.2235    2.0446    4.3679 H   0  0  0  0  0  0  0  0  0  0  0  0
    0.3732    1.2733    4.4890 H   0  0  0  0  0  0  0  0  0  0  0  0
  1  2  1  0  0  0  0
  2  3  1  0  0  0  0
  2  4  1  0  0  0  0
  2  5  1  0  0  0  0
  5  6  2  0  0  0  0
  5  7  1  0  0  0  0
  7  8  1  0  0  0  0
  7  9  1  0  0  0  0
  9 10  1  0  0  0  0
  9 11  1  0  0  0  0
  9 16  1  0  0  0  0
 11 12  1  0  0  0  0
 11 13  1  0  0  0  0
 11 14  1  0  0  0  0
 14 15  1  0  0  0  0
 16 17  2  0  0  0  0
 16 18  1  0  0  0  0
 18 19  1  0  0  0  0
 18 20  1  0  0  0  0
 20 21  1  0  0  0  0
 20 22  1  0  0  0  0
 20 23  1  0  0  0  0
M  END
$$$$

  -OEChem-01062216073D

 23 22  0     1  0  0  0  0  0999 V2000
   -2.7219   -3.5928    0.9779 H   0  0  0  0  0  0  0  0  0  0  0  0
   -2.7001   -2.6124    0.4939 C   0  0  0  0  0  0  0  0  0  0  0  0
   -3.5957   -2.0570    0.7815 H   0  0  0  0  0  0  0  0  0  0  0  0
   -2.6996   -2.7560   -0.5893 H   0  0  0  0  0  0  0  0  0  0  0  0
   -1.4587   -1.8498    0.9147 C   0  0  0  0  0  0  0  0  0  0  0  0
   -0.6896   -2.3263    1.7315 O   0  0  0  0  0  0  0  0  0  0  0  0
   -1.2320   -0.5786    0.4314 N   0  0  0  0  0  0  0  0  0  0  0  0
   -1.8410   -0.3046   -0.3352 H   0  0  0  0  0  0  0  0  0  0  0  0
    0.1207    0.0141    0.4228 C   0  0  1  0  0  0  0  0  0  0  0  0
    0.8768   -0.7701    0.3035 H   0  0  0  0  0  0  0  0  0  0  0  0
    0.1941    0.9601   -0.7838 C   0  0  0  0  0  0  0  0  0  0  0  0
   -0.5921    1.7195   -0.7199 H   0  0  0  0  0  0  0  0  0  0  0  0
    1.1586    1.4802   -0.7837 H   0  0  0  0  0  0  0  0  0  0  0  0
    0.0417    0.0058   -2.3508 S   0  0  0  0  0  0  0  0  0  0  0  0
    0.2958    0.9697   -3.2637 H   0  0  0  0  0  0  0  0  0  0  0  0
    0.4633    0.7914    1.7144 C   0  0  0  0  0  0  0  0  0  0  0  0
    1.4952    1.4475    1.7823 O   0  0  0  0  0  0  0  0  0  0  0  0
   -0.4568    0.8807    2.7417 N   0  0  0  0  0  0  0  0  0  0  0  0
   -1.2042    0.1922    2.7094 H   0  0  0  0  0  0  0  0  0  0  0  0
   -0.1715    1.5446    4.0071 C   0  0  0  0  0  0  0  0  0  0  0  0
    0.0982    2.5925    3.8387 H   0  0  0  0  0  0  0  0  0  0  0  0
   -1.0526    1.5170    4.6552 H   0  0  0  0  0  0  0  0  0  0  0  0
    0.6561    1.0464    4.5228 H   0  0  0  0  0  0  0  0  0  0  0  0
  1  2  1  0  0  0  0
  2  3  1  0  0  0  0
  2  4  1  0  0  0  0
  2  5  1  0  0  0  0
  5  6  2  0  0  0  0
  5  7  1  0  0  0  0
  7  8  1  0  0  0  0
  7  9  1  0  0  0  0
  9 10  1  0  0  0  0
  9 11  1  0  0  0  0
  9 16  1  0  0  0  0
 11 12  1  0  0  0  0
 11 13  1  0  0  0  0
 11 14  1  0  0  0  0
 14 15  1  0  0  0  0
 16 17  2  0  0  0  0
 16 18  1  0  0  0  0
 18 19  1  0  0  0  0
 18 20  1  0  0  0  0
 20 21  1  0  0  0  0
 20 22  1  0  0  0  0
 20 23  1  0  0  0  0
M  END
$$$$

  -OEChem-01062216073D

 23 22  0     1  0  0  0  0  0999 V2000
   -2.7322   -3.5706    0.9753 H   0  0  0  0  0  0  0  0  0  0  0  0
   -2.7028   -2.5944    0.4830 C   0  0  0  0  0  0  0  0  0  0  0  0
   -3.6035   -2.0369    0.7505 H   0  0  0  0  0  0  0  0  0  0  0  0
   -2.6835   -2.7473   -0.5989 H   0  0  0  0  0  0  0  0  0  0  0  0
   -1.4690   -1.8281    0.9187 C   0  0  0  0  0  0  0  0  0  0  0  0
   -0.7171   -2.2920    1.7597 O   0  0  0  0  0  0  0  0  0  0  0  0
   -1.2357   -0.5572    0.4396 N   0  0  0  0  0  0  0  0  0  0  0  0
   -1.8477   -0.2750   -0.3216 H   0  0  0  0  0  0  0  0  0  0  0  0
    0.1197    0.0286    0.4240 C   0  0  1  0  0  0  0  0  0  0  0  0
    0.8698   -0.7610    0.3044 H   0  0  0  0  0  0  0  0  0  0  0  0
    0.1924    0.9627   -0.7933 C   0  0  0  0  0  0  0  0  0  0  0  0
   -0.5906    1.7255   -0.7337 H   0  0  0  0  0  0  0  0  0  0  0  0
    1.1587    1.4791   -0.8043 H   0  0  0  0  0  0  0  0  0  0  0  0
    0.0317   -0.0076   -2.3498 S   0  0  0  0  0  0  0  0  0  0  0  0
    0.2840    0.9468   -3.2734 H   0  0  0  0  0  0  0  0  0  0  0  0
    0.4686    0.7980    1.7212 C   0  0  0  0  0  0  0  0  0  0  0  0
    1.3631    1.6352    1.7298 O   0  0  0  0  0  0  0  0  0  0  0  0
   -0.3017    0.6287    2.8560 N   0  0  0  0  0  0  0  0  0  0  0  0
   -0.8769   -0.2126    2.8541 H   0  0  0  0  0  0  0  0  0  0  0  0
    0.0238    1.2456    4.1353 C   0  0  0  0  0  0  0  0  0  0  0  0
    0.0669    2.3354    4.0366 H   0  0  0  0  0  0  0  0  0  0  0  0
   -0.7404    0.9987    4.8785 H   0  0  0  0  0  0  0  0  0  0  0  0
    0.9922    0.8858    4.4984 H   0  0  0  0  0  0  0  0  0  0  0  0
  1  2  1  0  0  0  0
  2  3  1  0  0  0  0
  2  4  1  0  0  0  0
  2  5  1  0  0  0  0
  5  6  2  0  0  0  0
  5  7  1  0  0  0  0
  7  8  1  0  0  0  0
  7  9  1  0  0  0  0
  9 10  1  0  0  0  0
  9 11  1  0  0  0  0
  9 16  1  0  0  0  0
 11 12  1  0  0  0  0
 11 13  1  0  0  0  0
 11 14  1  0  0  0  0
 14 15  1  0  0  0  0
 16 17  2  0  0  0  0
 16 18  1  0  0  0  0
 18 19  1  0  0  0  0
 18 20  1  0  0  0  0
 20 21  1  0  0  0  0
 20 22  1  0  0  0  0
 20 23  1  0  0  0  0
M  END
$$$$

  -OEChem-01062216073D

 23 22  0     1  0  0  0  0  0999 V2000
   -2.7392   -3.5498    0.9970 H   0  0  0  0  0  0  0  0  0  0  0  0
   -2.7137   -2.5679    0.5161 C   0  0  0  0  0  0  0  0  0  0  0  0
   -3.5979   -2.0028    0.8205 H   0  0  0  0  0  0  0  0  0  0  0  0
   -2.7330   -2.7069   -0.5676 H   0  0  0  0  0  0  0  0  0  0  0  0
   -1.4566   -1.8219    0.9193 C   0  0  0  0  0  0  0  0  0  0  0  0
   -0.6848   -2.3049    1.7325 O   0  0  0  0  0  0  0  0  0  0  0  0
   -1.2214   -0.5498    0.4437 N   0  0  0  0  0  0  0  0  0  0  0  0
   -1.8522   -0.2476   -0.2938 H   0  0  0  0  0  0  0  0  0  0  0  0
    0.1327    0.0380    0.4191 C   0  0  1  0  0  0  0  0  0  0  0  0
    0.8830   -0.7507    0.2972 H   0  0  0  0  0  0  0  0  0  0  0  0
    0.2024    0.9673   -0.8027 C   0  0  0  0  0  0  0  0  0  0  0  0
   -0.5801    1.7310   -0.7438 H   0  0  0  0  0  0  0  0  0  0  0  0
    1.1689    1.4833   -0.8183 H   0  0  0  0  0  0  0  0  0  0  0  0
    0.0382   -0.0097   -2.3545 S   0  0  0  0  0  0  0  0  0  0  0  0
    0.2894    0.9419   -3.2811 H   0  0  0  0  0  0  0  0  0  0  0  0
    0.4788    0.8012    1.7214 C   0  0  0  0  0  0  0  0  0  0  0  0
    1.1932    1.7967    1.7047 O   0  0  0  0  0  0  0  0  0  0  0  0
   -0.0802    0.3976    2.9185 N   0  0  0  0  0  0  0  0  0  0  0  0
   -0.5042   -0.5317    2.9015 H   0  0  0  0  0  0  0  0  0  0  0  0
    0.2647    0.9888    4.2044 C   0  0  0  0  0  0  0  0  0  0  0  0
    0.0691    2.0662    4.1970 H   0  0  0  0  0  0  0  0  0  0  0  0
   -0.3354    0.5362    4.9996 H   0  0  0  0  0  0  0  0  0  0  0  0
    1.3234    0.8241    4.4303 H   0  0  0  0  0  0  0  0  0  0  0  0
  1  2  1  0  0  0  0
  2  3  1  0  0  0  0
  2  4  1  0  0  0  0
  2  5  1  0  0  0  0
  5  6  2  0  0  0  0
  5  7  1  0  0  0  0
  7  8  1  0  0  0  0
  7  9  1  0  0  0  0
  9 10  1  0  0  0  0
  9 11  1  0  0  0  0
  9 16  1  0  0  0  0
 11 12  1  0  0  0  0
 11 13  1  0  0  0  0
 11 14  1  0  0  0  0
 14 15  1  0  0  0  0
 16 17  2  0  0  0  0
 16 18  1  0  0  0  0
 18 19  1  0  0  0  0
 18 20  1  0  0  0  0
 20 21  1  0  0  0  0
 20 22  1  0  0  0  0
 20 23  1  0  0  0  0
M  END
$$$$

  -OEChem-01062216073D

 23 22  0     1  0  0  0  0  0999 V2000
   -2.7401   -3.5299    1.0265 H   0  0  0  0  0  0  0  0  0  0  0  0
   -2.7194   -2.5405    0.5609 C   0  0  0  0  0  0  0  0  0  0  0  0
   -3.5817   -1.9679    0.9109 H   0  0  0  0  0  0  0  0  0  0  0  0
   -2.7853   -2.6607   -0.5232 H   0  0  0  0  0  0  0  0  0  0  0  0
   -1.4355   -1.8197    0.9232 C   0  0  0  0  0  0  0  0  0  0  0  0
   -0.6341   -2.3326    1.6897 O   0  0  0  0  0  0  0  0  0  0  0  0
   -1.1981   -0.5477    0.4471 N   0  0  0  0  0  0  0  0  0  0  0  0
   -1.8495   -0.2235   -0.2624 H   0  0  0  0  0  0  0  0  0  0  0  0
    0.1544    0.0402    0.4128 C   0  0  1  0  0  0  0  0  0  0  0  0
    0.9061   -0.7469    0.2887 H   0  0  0  0  0  0  0  0  0  0  0  0
    0.2215    0.9680   -0.8105 C   0  0  0  0  0  0  0  0  0  0  0  0
   -0.5607    1.7318   -0.7496 H   0  0  0  0  0  0  0  0  0  0  0  0
    1.1881    1.4838   -0.8268 H   0  0  0  0  0  0  0  0  0  0  0  0
    0.0513   -0.0076   -2.3623 S   0  0  0  0  0  0  0  0  0  0  0  0
    0.2709    0.9507   -3.2902 H   0  0  0  0  0  0  0  0  0  0  0  0
    0.4947    0.7997    1.7179 C   0  0  0  0  0  0  0  0  0  0  0  0
    1.0018    1.9156    1.7002 O   0  0  0  0  0  0  0  0  0  0  0  0
    0.1961    0.2170    2.9338 N   0  0  0  0  0  0  0  0  0  0  0  0
   -0.1249   -0.7535    2.8924 H   0  0  0  0  0  0  0  0  0  0  0  0
    0.5460    0.7992    4.2218 C   0  0  0  0  0  0  0  0  0  0  0  0
    0.0923    1.7898    4.3310 H   0  0  0  0  0  0  0  0  0  0  0  0
    0.1829    0.1625    5.0342 H   0  0  0  0  0  0  0  0  0  0  0  0
    1.6326    0.8962    4.3151 H   0  0  0  0  0  0  0  0  0  0  0  0
  1  2  1  0  0  0  0
  2  3  1  0  0  0  0
  2  4  1  0  0  0  0
  2  5  1  0  0  0  0
  5  6  2  0  0  0  0
  5  7  1  0  0  0  0
  7  8  1  0  0  0  0
  7  9  1  0  0  0  0
  9 10  1  0  0  0  0
  9 11  1  0  0  0  0
  9 16  1  0  0  0  0
 11 12  1  0  0  0  0
 11 13  1  0  0  0  0
 11 14  1  0  0  0  0
 14 15  1  0  0  0  0
 16 17  2  0  0  0  0
 16 18  1  0  0  0  0
 18 19  1  0  0  0  0
 18 20  1  0  0  0  0
 20 21  1  0  0  0  0
 20 22  1  0  0  0  0
 20 23  1  0  0  0  0
M  END
$$$$

  -OEChem-01062216073D

 23 22  0     1  0  0  0  0  0999 V2000
   -2.7094   -3.5244    1.0309 H   0  0  0  0  0  0  0  0  0  0  0  0
   -2.7187   -2.5076    0.6286 C   0  0  0  0  0  0  0  0  0  0  0  0
   -3.5435   -1.9551    1.0850 H   0  0  0  0  0  0  0  0  0  0  0  0
   -2.8759   -2.5595   -0.4516 H   0  0  0  0  0  0  0  0  0  0  0  0
   -1.4035   -1.8149    0.9290 C   0  0  0  0  0  0  0  0  0  0  0  0
   -0.5710   -2.3534    1.6440 O   0  0  0  0  0  0  0  0  0  0  0  0
   -1.1666   -0.5436    0.4499 N   0  0  0  0  0  0  0  0  0  0  0  0
   -1.8433   -0.1940   -0.2228 H   0  0  0  0  0  0  0  0  0  0  0  0
    0.1871    0.0366    0.3955 C   0  0  1  0  0  0  0  0  0  0  0  0
    0.9353   -0.7522    0.2597 H   0  0  0  0  0  0  0  0  0  0  0  0
    0.2493    0.9677   -0.8248 C   0  0  0  0  0  0  0  0  0  0  0  0
   -0.5277    1.7362   -0.7542 H   0  0  0  0  0  0  0  0  0  0  0  0
    1.2188    1.4778   -0.8445 H   0  0  0  0  0  0  0  0  0  0  0  0
    0.0546    0.0006   -2.3790 S   0  0  0  0  0  0  0  0  0  0  0  0
    0.2596    0.9635   -3.3050 H   0  0  0  0  0  0  0  0  0  0  0  0
    0.5363    0.7893    1.6999 C   0  0  0  0  0  0  0  0  0  0  0  0
    0.8142    1.9833    1.7050 O   0  0  0  0  0  0  0  0  0  0  0  0
    0.5371    0.0894    2.8897 N   0  0  0  0  0  0  0  0  0  0  0  0
    0.2650   -0.8956    2.8332 H   0  0  0  0  0  0  0  0  0  0  0  0
    0.8291    0.6830    4.1868 C   0  0  0  0  0  0  0  0  0  0  0  0
    0.0980    1.4628    4.4239 H   0  0  0  0  0  0  0  0  0  0  0  0
    0.7876   -0.0811    4.9688 H   0  0  0  0  0  0  0  0  0  0  0  0
    1.8307    1.1254    4.1890 H   0  0  0  0  0  0  0  0  0  0  0  0
  1  2  1  0  0  0  0
  2  3  1  0  0  0  0
  2  4  1  0  0  0  0
  2  5  1  0  0  0  0
  5  6  2  0  0  0  0
  5  7  1  0  0  0  0
  7  8  1  0  0  0  0
  7  9  1  0  0  0  0
  9 10  1  0  0  0  0
  9 11  1  0  0  0  0
  9 16  1  0  0  0  0
 11 12  1  0  0  0  0
 11 13  1  0  0  0  0
 11 14  1  0  0  0  0
 14 15  1  0  0  0  0
 16 17  2  0  0  0  0
 16 18  1  0  0  0  0
 18 19  1  0  0  0  0
 18 20  1  0  0  0  0
 20 21  1  0  0  0  0
 20 22  1  0  0  0  0
 20 23  1  0  0  0  0
M  END
$$$$

  -OEChem-01062216073D

 23 22  0     1  0  0  0  0  0999 V2000
   -2.6910   -3.5001    1.1023 H   0  0  0  0  0  0  0  0  0  0  0  0
   -2.7008   -2.4932    0.6758 C   0  0  0  0  0  0  0  0  0  0  0  0
   -3.5190   -1.9269    1.1272 H   0  0  0  0  0  0  0  0  0  0  0  0
   -2.8691   -2.5696   -0.4012 H   0  0  0  0  0  0  0  0  0  0  0  0
   -1.3797   -1.7990    0.9450 C   0  0  0  0  0  0  0  0  0  0  0  0
   -0.5269   -2.3387    1.6359 O   0  0  0  0  0  0  0  0  0  0  0  0
   -1.1515   -0.5305    0.4542 N   0  0  0  0  0  0  0  0  0  0  0  0
   -1.8395   -0.1772   -0.2050 H   0  0  0  0  0  0  0  0  0  0  0  0
    0.2034    0.0407    0.3836 C   0  0  1  0  0  0  0  0  0  0  0  0
    0.9484   -0.7494    0.2395 H   0  0  0  0  0  0  0  0  0  0  0  0
    0.2619    0.9743   -0.8345 C   0  0  0  0  0  0  0  0  0  0  0  0
   -0.5109    1.7467   -0.7563 H   0  0  0  0  0  0  0  0  0  0  0  0
    1.2337    1.4798   -0.8583 H   0  0  0  0  0  0  0  0  0  0  0  0
    0.0448    0.0127   -2.3891 S   0  0  0  0  0  0  0  0  0  0  0  0
    0.2381    0.9783   -3.3147 H   0  0  0  0  0  0  0  0  0  0  0  0
    0.5574    0.7947    1.6832 C   0  0  0  0  0  0  0  0  0  0  0  0
    0.6151    2.0186    1.7285 O   0  0  0  0  0  0  0  0  0  0  0  0
    0.8639    0.0532    2.8064 N   0  0  0  0  0  0  0  0  0  0  0  0
    0.6516   -0.9459    2.7463 H   0  0  0  0  0  0  0  0  0  0  0  0
    1.1407    0.6425    4.1092 C   0  0  0  0  0  0  0  0  0  0  0  0
    0.2626    1.1807    4.4807 H   0  0  0  0  0  0  0  0  0  0  0  0
    1.4000   -0.1398    4.8290 H   0  0  0  0  0  0  0  0  0  0  0  0
    1.9812    1.3413    4.0431 H   0  0  0  0  0  0  0  0  0  0  0  0
  1  2  1  0  0  0  0
  2  3  1  0  0  0  0
  2  4  1  0  0  0  0
  2  5  1  0  0  0  0
  5  6  2  0  0  0  0
  5  7  1  0  0  0  0
  7  8  1  0  0  0  0
  7  9  1  0  0  0  0
  9 10  1  0  0  0  0
  9 11  1  0  0  0  0
  9 16  1  0  0  0  0
 11 12  1  0  0  0  0
 11 13  1  0  0  0  0
 11 14  1  0  0  0  0
 14 15  1  0  0  0  0
 16 17  2  0  0  0  0
 16 18  1  0  0  0  0
 18 19  1  0  0  0  0
 18 20  1  0  0  0  0
 20 21  1  0  0  0  0
 20 22  1  0  0  0  0
 20 23  1  0  0  0  0
M  END
$$$$

  -OEChem-01062216073D

 23 22  0     1  0  0  0  0  0999 V2000
   -2.6749   -3.4954    1.1386 H   0  0  0  0  0  0  0  0  0  0  0  0
   -2.6909   -2.4907    0.7068 C   0  0  0  0  0  0  0  0  0  0  0  0
   -3.4957   -1.9188    1.1748 H   0  0  0  0  0  0  0  0  0  0  0  0
   -2.8857   -2.5722   -0.3653 H   0  0  0  0  0  0  0  0  0  0  0  0
   -1.3609   -1.8003    0.9402 C   0  0  0  0  0  0  0  0  0  0  0  0
   -0.4869   -2.3468    1.5992 O   0  0  0  0  0  0  0  0  0  0  0  0
   -1.1414   -0.5324    0.4439 N   0  0  0  0  0  0  0  0  0  0  0  0
   -1.8445   -0.1638   -0.1902 H   0  0  0  0  0  0  0  0  0  0  0  0
    0.2099    0.0431    0.3759 C   0  0  1  0  0  0  0  0  0  0  0  0
    0.9595   -0.7426    0.2303 H   0  0  0  0  0  0  0  0  0  0  0  0
    0.2694    0.9805   -0.8387 C   0  0  0  0  0  0  0  0  0  0  0  0
   -0.5076    1.7488   -0.7611 H   0  0  0  0  0  0  0  0  0  0  0  0
    1.2387    1.4906   -0.8566 H   0  0  0  0  0  0  0  0  0  0  0  0
    0.0590    0.0244   -2.3976 S   0  0  0  0  0  0  0  0  0  0  0  0
    0.2305    0.9983   -3.3186 H   0  0  0  0  0  0  0  0  0  0  0  0
    0.5510    0.8022    1.6743 C   0  0  0  0  0  0  0  0  0  0  0  0
    0.3820    2.0124    1.7756 O   0  0  0  0  0  0  0  0  0  0  0  0
    1.1516    0.1046    2.7033 N   0  0  0  0  0  0  0  0  0  0  0  0
    1.0747   -0.9119    2.6404 H   0  0  0  0  0  0  0  0  0  0  0  0
    1.4521    0.7027    3.9975 C   0  0  0  0  0  0  0  0  0  0  0  0
    0.5306    1.0188    4.4974 H   0  0  0  0  0  0  0  0  0  0  0  0
    1.9648   -0.0218    4.6375 H   0  0  0  0  0  0  0  0  0  0  0  0
    2.1036    1.5745    3.8759 H   0  0  0  0  0  0  0  0  0  0  0  0
  1  2  1  0  0  0  0
  2  3  1  0  0  0  0
  2  4  1  0  0  0  0
  2  5  1  0  0  0  0
  5  6  2  0  0  0  0
  5  7  1  0  0  0  0
  7  8  1  0  0  0  0
  7  9  1  0  0  0  0
  9 10  1  0  0  0  0
  9 11  1  0  0  0  0
  9 16  1  0  0  0  0
 11 12  1  0  0  0  0
 11 13  1  0  0  0  0
 11 14  1  0  0  0  0
 14 15  1  0  0  0  0
 16 17  2  0  0  0  0
 16 18  1  0  0  0  0
 18 19  1  0  0  0  0
 18 20  1  0  0  0  0
 20 21  1  0  0  0  0
 20 22  1  0  0  0  0
 20 23  1  0  0  0  0
M  END
$$$$

  -OEChem-01062216073D

 23 22  0     1  0  0  0  0  0999 V2000
   -2.6773   -3.5055    1.1315 H   0  0  0  0  0  0  0  0  0  0  0  0
   -2.7009   -2.4846    0.7400 C   0  0  0  0  0  0  0  0  0  0  0  0
   -3.4602   -1.9163    1.2827 H   0  0  0  0  0  0  0  0  0  0  0  0
   -2.9680   -2.5205   -0.3189 H   0  0  0  0  0  0  0  0  0  0  0  0
   -1.3441   -1.8285    0.9106 C   0  0  0  0  0  0  0  0  0  0  0  0
   -0.4500   -2.4063    1.5123 O   0  0  0  0  0  0  0  0  0  0  0  0
   -1.1213   -0.5600    0.4179 N   0  0  0  0  0  0  0  0  0  0  0  0
   -1.8553   -0.1438   -0.1475 H   0  0  0  0  0  0  0  0  0  0  0  0
    0.2225    0.0331    0.3638 C   0  0  1  0  0  0  0  0  0  0  0  0
    0.9814   -0.7436    0.2215 H   0  0  0  0  0  0  0  0  0  0  0  0
    0.2845    0.9810   -0.8422 C   0  0  0  0  0  0  0  0  0  0  0  0
   -0.5030    1.7386   -0.7664 H   0  0  0  0  0  0  0  0  0  0  0  0
    1.2471    1.5035   -0.8454 H   0  0  0  0  0  0  0  0  0  0  0  0
    0.1012    0.0391   -2.4131 S   0  0  0  0  0  0  0  0  0  0  0  0
    0.2280    1.0308   -3.3225 H   0  0  0  0  0  0  0  0  0  0  0  0
    0.5437    0.7997    1.6621 C   0  0  0  0  0  0  0  0  0  0  0  0
    0.1244    1.9374    1.8442 O   0  0  0  0  0  0  0  0  0  0  0  0
    1.4103    0.2357    2.5780 N   0  0  0  0  0  0  0  0  0  0  0  0
    1.5593   -0.7675    2.4793 H   0  0  0  0  0  0  0  0  0  0  0  0
    1.7169    0.8580    3.8595 C   0  0  0  0  0  0  0  0  0  0  0  0
    0.8129    0.9394    4.4721 H   0  0  0  0  0  0  0  0  0  0  0  0
    2.4533    0.2584    4.4033 H   0  0  0  0  0  0  0  0  0  0  0  0
    2.1331    1.8600    3.7103 H   0  0  0  0  0  0  0  0  0  0  0  0
  1  2  1  0  0  0  0
  2  3  1  0  0  0  0
  2  4  1  0  0  0  0
  2  5  1  0  0  0  0
  5  6  2  0  0  0  0
  5  7  1  0  0  0  0
  7  8  1  0  0  0  0
  7  9  1  0  0  0  0
  9 10  1  0  0  0  0
  9 11  1  0  0  0  0
  9 16  1  0  0  0  0
 11 12  1  0  0  0  0
 11 13  1  0  0  0  0
 11 14  1  0  0  0  0
 14 15  1  0  0  0  0
 16 17  2  0  0  0  0
 16 18  1  0  0  0  0
 18 19  1  0  0  0  0
 18 20  1  0  0  0  0
 20 21  1  0  0  0  0
 20 22  1  0  0  0  0
 20 23  1  0  0  0  0
M  END
$$$$

  -OEChem-01062216073D

 23 22  0     1  0  0  0  0  0999 V2000
   -2.7005   -3.4976    1.1764 H   0  0  0  0  0  0  0  0  0  0  0  0
   -2.7149   -2.4737    0.7929 C   0  0  0  0  0  0  0  0  0  0  0  0
   -3.3997   -1.8783    1.4015 H   0  0  0  0  0  0  0  0  0  0  0  0
   -3.0730   -2.4898   -0.2393 H   0  0  0  0  0  0  0  0  0  0  0  0
   -1.3218   -1.8767    0.8486 C   0  0  0  0  0  0  0  0  0  0  0  0
   -0.4014   -2.5079    1.3463 O   0  0  0  0  0  0  0  0  0  0  0  0
   -1.0967   -0.6032    0.3709 N   0  0  0  0  0  0  0  0  0  0  0  0
   -1.8863   -0.0906   -0.0099 H   0  0  0  0  0  0  0  0  0  0  0  0
    0.2345    0.0197    0.3397 C   0  0  1  0  0  0  0  0  0  0  0  0
    1.0074   -0.7438    0.2022 H   0  0  0  0  0  0  0  0  0  0  0  0
    0.3015    0.9833   -0.8524 C   0  0  0  0  0  0  0  0  0  0  0  0
   -0.5014    1.7248   -0.7798 H   0  0  0  0  0  0  0  0  0  0  0  0
    1.2541    1.5229   -0.8318 H   0  0  0  0  0  0  0  0  0  0  0  0
    0.1638    0.0612   -2.4396 S   0  0  0  0  0  0  0  0  0  0  0  0
    0.2911    1.0649   -3.3349 H   0  0  0  0  0  0  0  0  0  0  0  0
    0.5277    0.7887    1.6426 C   0  0  0  0  0  0  0  0  0  0  0  0
   -0.1297    1.7809    1.9366 O   0  0  0  0  0  0  0  0  0  0  0  0
    1.6068    0.4292    2.4274 N   0  0  0  0  0  0  0  0  0  0  0  0
    2.0124   -0.4849    2.2407 H   0  0  0  0  0  0  0  0  0  0  0  0
    1.9081    1.0762    3.6984 C   0  0  0  0  0  0  0  0  0  0  0  0
    1.0851    0.9321    4.4064 H   0  0  0  0  0  0  0  0  0  0  0  0
    2.8185    0.6511    4.1320 H   0  0  0  0  0  0  0  0  0  0  0  0
    2.0655    2.1505    3.5548 H   0  0  0  0  0  0  0  0  0  0  0  0
  1  2  1  0  0  0  0
  2  3  1  0  0  0  0
  2  4  1  0  0  0  0
  2  5  1  0  0  0  0
  5  6  2  0  0  0  0
  5  7  1  0  0  0  0
  7  8  1  0  0  0  0
  7  9  1  0  0  0  0
  9 10  1  0  0  0  0
  9 11  1  0  0  0  0
  9 16  1  0  0  0  0
 11 12  1  0  0  0  0
 11 13  1  0  0  0  0
 11 14  1  0  0  0  0
 14 15  1  0  0  0  0
 16 17  2  0  0  0  0
 16 18  1  0  0  0  0
 18 19  1  0  0  0  0
 18 20  1  0  0  0  0
 20 21  1  0  0  0  0
 20 22  1  0  0  0  0
 20 23  1  0  0  0  0
M  END
$$$$

  -OEChem-01062216073D

 23 22  0     1  0  0  0  0  0999 V2000
   -2.7068   -3.4834    1.2315 H   0  0  0  0  0  0  0  0  0  0  0  0
   -2.7157   -2.4619    0.8410 C   0  0  0  0  0  0  0  0  0  0  0  0
   -3.3336   -1.8406    1.4936 H   0  0  0  0  0  0  0  0  0  0  0  0
   -3.1505   -2.4717   -0.1614 H   0  0  0  0  0  0  0  0  0  0  0  0
   -1.3033   -1.9114    0.7868 C   0  0  0  0  0  0  0  0  0  0  0  0
   -0.3671   -2.5846    1.1902 O   0  0  0  0  0  0  0  0  0  0  0  0
   -1.0823   -0.6332    0.3194 N   0  0  0  0  0  0  0  0  0  0  0  0
   -1.8974   -0.0595    0.1246 H   0  0  0  0  0  0  0  0  0  0  0  0
    0.2417    0.0077    0.3184 C   0  0  1  0  0  0  0  0  0  0  0  0
    1.0260   -0.7460    0.1924 H   0  0  0  0  0  0  0  0  0  0  0  0
    0.3210    0.9834   -0.8622 C   0  0  0  0  0  0  0  0  0  0  0  0
   -0.4943    1.7120   -0.7974 H   0  0  0  0  0  0  0  0  0  0  0  0
    1.2653    1.5362   -0.8176 H   0  0  0  0  0  0  0  0  0  0  0  0
    0.2271    0.0802   -2.4632 S   0  0  0  0  0  0  0  0  0  0  0  0
    0.3186    1.1005   -3.3440 H   0  0  0  0  0  0  0  0  0  0  0  0
    0.5055    0.7780    1.6261 C   0  0  0  0  0  0  0  0  0  0  0  0
   -0.3180    1.5874    2.0379 O   0  0  0  0  0  0  0  0  0  0  0  0
    1.7224    0.6565    2.2706 N   0  0  0  0  0  0  0  0  0  0  0  0
    2.3215   -0.1100    1.9751 H   0  0  0  0  0  0  0  0  0  0  0  0
    2.0274    1.3379    3.5227 C   0  0  0  0  0  0  0  0  0  0  0  0
    1.3308    1.0268    4.3083 H   0  0  0  0  0  0  0  0  0  0  0  0
    3.0447    1.0968    3.8459 H   0  0  0  0  0  0  0  0  0  0  0  0
    1.9547    2.4234    3.3965 H   0  0  0  0  0  0  0  0  0  0  0  0
  1  2  1  0  0  0  0
  2  3  1  0  0  0  0
  2  4  1  0  0  0  0
  2  5  1  0  0  0  0
  5  6  2  0  0  0  0
  5  7  1  0  0  0  0
  7  8  1  0  0  0  0
  7  9  1  0  0  0  0
  9 10  1  0  0  0  0
  9 11  1  0  0  0  0
  9 16  1  0  0  0  0
 11 12  1  0  0  0  0
 11 13  1  0  0  0  0
 11 14  1  0  0  0  0
 14 15  1  0  0  0  0
 16 17  2  0  0  0  0
 16 18  1  0  0  0  0
 18 19  1  0  0  0  0
 18 20  1  0  0  0  0
 20 21  1  0  0  0  0
 20 22  1  0  0  0  0
 20 23  1  0  0  0  0
M  END
$$$$

  -OEChem-01062216073D

 23 22  0     1  0  0  0  0  0999 V2000
   -2.6989   -3.4741    1.2576 H   0  0  0  0  0  0  0  0  0  0  0  0
   -2.7111   -2.4502    0.8741 C   0  0  0  0  0  0  0  0  0  0  0  0
   -3.2858   -1.8235    1.5604 H   0  0  0  0  0  0  0  0  0  0  0  0
   -3.1945   -2.4468   -0.1056 H   0  0  0  0  0  0  0  0  0  0  0  0
   -1.2947   -1.9217    0.7535 C   0  0  0  0  0  0  0  0  0  0  0  0
   -0.3521   -2.6162    1.1020 O   0  0  0  0  0  0  0  0  0  0  0  0
   -1.0794   -0.6421    0.2867 N   0  0  0  0  0  0  0  0  0  0  0  0
   -1.8977   -0.0476    0.1939 H   0  0  0  0  0  0  0  0  0  0  0  0
    0.2431    0.0040    0.3045 C   0  0  1  0  0  0  0  0  0  0  0  0
    1.0323   -0.7466    0.1901 H   0  0  0  0  0  0  0  0  0  0  0  0
    0.3305    0.9823   -0.8737 C   0  0  0  0  0  0  0  0  0  0  0  0
   -0.4901    1.7054   -0.8161 H   0  0  0  0  0  0  0  0  0  0  0  0
    1.2707    1.5408   -0.8192 H   0  0  0  0  0  0  0  0  0  0  0  0
    0.2592    0.0829   -2.4780 S   0  0  0  0  0  0  0  0  0  0  0  0
    0.3415    1.1057   -3.3566 H   0  0  0  0  0  0  0  0  0  0  0  0
    0.4901    0.7781    1.6142 C   0  0  0  0  0  0  0  0  0  0  0  0
   -0.4285    1.3863    2.1520 O   0  0  0  0  0  0  0  0  0  0  0  0
    1.7739    0.9150    2.1091 N   0  0  0  0  0  0  0  0  0  0  0  0
    2.4903    0.3200    1.7023 H   0  0  0  0  0  0  0  0  0  0  0  0
    2.0737    1.6218    3.3486 C   0  0  0  0  0  0  0  0  0  0  0  0
    1.5675    1.1440    4.1940 H   0  0  0  0  0  0  0  0  0  0  0  0
    3.1512    1.6118    3.5388 H   0  0  0  0  0  0  0  0  0  0  0  0
    1.7457    2.6646    3.2850 H   0  0  0  0  0  0  0  0  0  0  0  0
  1  2  1  0  0  0  0
  2  3  1  0  0  0  0
  2  4  1  0  0  0  0
  2  5  1  0  0  0  0
  5  6  2  0  0  0  0
  5  7  1  0  0  0  0
  7  8  1  0  0  0  0
  7  9  1  0  0  0  0
  9 10  1  0  0  0  0
  9 11  1  0  0  0  0
  9 16  1  0  0  0  0
 11 12  1  0  0  0  0
 11 13  1  0  0  0  0
 11 14  1  0  0  0  0
 14 15  1  0  0  0  0
 16 17  2  0  0  0  0
 16 18  1  0  0  0  0
 18 19  1  0  0  0  0
 18 20  1  0  0  0  0
 20 21  1  0  0  0  0
 20 22  1  0  0  0  0
 20 23  1  0  0  0  0
M  END
$$$$

  -OEChem-01062216073D

 23 22  0     1  0  0  0  0  0999 V2000
   -2.6935   -3.4705    1.2698 H   0  0  0  0  0  0  0  0  0  0  0  0
   -2.7067   -2.4452    0.8896 C   0  0  0  0  0  0  0  0  0  0  0  0
   -3.2553   -1.8151    1.5938 H   0  0  0  0  0  0  0  0  0  0  0  0
   -3.2178   -2.4339   -0.0760 H   0  0  0  0  0  0  0  0  0  0  0  0
   -1.2897   -1.9282    0.7305 C   0  0  0  0  0  0  0  0  0  0  0  0
   -0.3442   -2.6373    1.0394 O   0  0  0  0  0  0  0  0  0  0  0  0
   -1.0799   -0.6463    0.2660 N   0  0  0  0  0  0  0  0  0  0  0  0
   -1.8981   -0.0457    0.2331 H   0  0  0  0  0  0  0  0  0  0  0  0
    0.2415    0.0031    0.3007 C   0  0  1  0  0  0  0  0  0  0  0  0
    1.0351   -0.7439    0.1953 H   0  0  0  0  0  0  0  0  0  0  0  0
    0.3309    0.9800   -0.8796 C   0  0  0  0  0  0  0  0  0  0  0  0
   -0.4957    1.6968   -0.8285 H   0  0  0  0  0  0  0  0  0  0  0  0
    1.2663    1.5458   -0.8230 H   0  0  0  0  0  0  0  0  0  0  0  0
    0.2772    0.0796   -2.4838 S   0  0  0  0  0  0  0  0  0  0  0  0
    0.3456    1.1029   -3.3630 H   0  0  0  0  0  0  0  0  0  0  0  0
    0.4782    0.7791    1.6132 C   0  0  0  0  0  0  0  0  0  0  0  0
   -0.4719    1.1788    2.2771 O   0  0  0  0  0  0  0  0  0  0  0  0
    1.7548    1.1844    1.9595 N   0  0  0  0  0  0  0  0  0  0  0  0
    2.5273    0.7725    1.4435 H   0  0  0  0  0  0  0  0  0  0  0  0
    2.0457    1.9236    3.1824 C   0  0  0  0  0  0  0  0  0  0  0  0
    1.7437    1.3442    4.0614 H   0  0  0  0  0  0  0  0  0  0  0  0
    3.1180    2.1291    3.2548 H   0  0  0  0  0  0  0  0  0  0  0  0
    1.5106    2.8792    3.1901 H   0  0  0  0  0  0  0  0  0  0  0  0
  1  2  1  0  0  0  0
  2  3  1  0  0  0  0
  2  4  1  0  0  0  0
  2  5  1  0  0  0  0
  5  6  2  0  0  0  0
  5  7  1  0  0  0  0
  7  8  1  0  0  0  0
  7  9  1  0  0  0  0
  9 10  1  0  0  0  0
  9 11  1  0  0  0  0
  9 16  1  0  0  0  0
 11 12  1  0  0  0  0
 11 13  1  0  0  0  0
 11 14  1  0  0  0  0
 14 15  1  0  0  0  0
 16 17  2  0  0  0  0
 16 18  1  0  0  0  0
 18 19  1  0  0  0  0
 18 20  1  0  0  0  0
 20 21  1  0  0  0  0
 20 22  1  0  0  0  0
 20 23  1  0  0  0  0
M  END
$$$$

  -OEChem-01062216073D

 23 22  0     1  0  0  0  0  0999 V2000
   -2.6455   -3.4678    1.3001 H   0  0  0  0  0  0  0  0  0  0  0  0
   -2.6804   -2.4403    0.9277 C   0  0  0  0  0  0  0  0  0  0  0  0
   -3.1785   -1.8134    1.6713 H   0  0  0  0  0  0  0  0  0  0  0  0
   -3.2537   -2.4207   -0.0021 H   0  0  0  0  0  0  0  0  0  0  0  0
   -1.2748   -1.9280    0.6800 C   0  0  0  0  0  0  0  0  0  0  0  0
   -0.3144   -2.6570    0.8779 O   0  0  0  0  0  0  0  0  0  0  0  0
   -1.0866   -0.6374    0.2283 N   0  0  0  0  0  0  0  0  0  0  0  0
   -1.9066   -0.0403    0.2503 H   0  0  0  0  0  0  0  0  0  0  0  0
    0.2351    0.0104    0.2859 C   0  0  1  0  0  0  0  0  0  0  0  0
    1.0032   -0.6816   -0.0759 H   0  0  0  0  0  0  0  0  0  0  0  0
    0.1972    1.2357   -0.6408 C   0  0  0  0  0  0  0  0  0  0  0  0
   -0.6186    1.9017   -0.3405 H   0  0  0  0  0  0  0  0  0  0  0  0
    1.1323    1.7982   -0.5584 H   0  0  0  0  0  0  0  0  0  0  0  0
   -0.0256    0.7234   -2.3944 S   0  0  0  0  0  0  0  0  0  0  0  0
   -0.0581    1.9208   -3.0191 H   0  0  0  0  0  0  0  0  0  0  0  0
    0.6263    0.4545    1.7166 C   0  0  0  0  0  0  0  0  0  0  0  0
   -0.2037    0.4603    2.6192 O   0  0  0  0  0  0  0  0  0  0  0  0
    1.8423    1.0767    1.9421 N   0  0  0  0  0  0  0  0  0  0  0  0
    2.5437    0.9993    1.2114 H   0  0  0  0  0  0  0  0  0  0  0  0
    2.2536    1.5591    3.2558 C   0  0  0  0  0  0  0  0  0  0  0  0
    2.2792    0.7345    3.9762 H   0  0  0  0  0  0  0  0  0  0  0  0
    3.2525    2.0023    3.2007 H   0  0  0  0  0  0  0  0  0  0  0  0
    1.5578    2.3229    3.6193 H   0  0  0  0  0  0  0  0  0  0  0  0
  1  2  1  0  0  0  0
  2  3  1  0  0  0  0
  2  4  1  0  0  0  0
  2  5  1  0  0  0  0
  5  6  2  0  0  0  0
  5  7  1  0  0  0  0
  7  8  1  0  0  0  0
  7  9  1  0  0  0  0
  9 10  1  0  0  0  0
  9 11  1  0  0  0  0
  9 16  1  0  0  0  0
 11 12  1  0  0  0  0
 11 13  1  0  0  0  0
 11 14  1  0  0  0  0
 14 15  1  0  0  0  0
 16 17  2  0  0  0  0
 16 18  1  0  0  0  0
 18 19  1  0  0  0  0
 18 20  1  0  0  0  0
 20 21  1  0  0  0  0
 20 22  1  0  0  0  0
 20 23  1  0  0  0  0
M  END
$$$$

  -OEChem-01062216073D

 23 22  0     1  0  0  0  0  0999 V2000
   -2.6353   -3.4610    1.3114 H   0  0  0  0  0  0  0  0  0  0  0  0
   -2.6749   -2.4335    0.9394 C   0  0  0  0  0  0  0  0  0  0  0  0
   -3.1601   -1.8064    1.6913 H   0  0  0  0  0  0  0  0  0  0  0  0
   -3.2633   -2.4133    0.0191 H   0  0  0  0  0  0  0  0  0  0  0  0
   -1.2725   -1.9232    0.6696 C   0  0  0  0  0  0  0  0  0  0  0  0
   -0.3137   -2.6637    0.8284 O   0  0  0  0  0  0  0  0  0  0  0  0
   -1.0880   -0.6293    0.2235 N   0  0  0  0  0  0  0  0  0  0  0  0
   -1.9088   -0.0344    0.2578 H   0  0  0  0  0  0  0  0  0  0  0  0
    0.2343    0.0194    0.2847 C   0  0  1  0  0  0  0  0  0  0  0  0
    1.0045   -0.6721   -0.0736 H   0  0  0  0  0  0  0  0  0  0  0  0
    0.1881    1.2334   -0.6600 C   0  0  0  0  0  0  0  0  0  0  0  0
   -0.6323    1.8977   -0.3690 H   0  0  0  0  0  0  0  0  0  0  0  0
    1.1188    1.8039   -0.5912 H   0  0  0  0  0  0  0  0  0  0  0  0
   -0.0281    0.6961   -2.4070 S   0  0  0  0  0  0  0  0  0  0  0  0
   -0.0679    1.8833   -3.0501 H   0  0  0  0  0  0  0  0  0  0  0  0
    0.6285    0.4597    1.7202 C   0  0  0  0  0  0  0  0  0  0  0  0
   -0.1090    0.2307    2.6722 O   0  0  0  0  0  0  0  0  0  0  0  0
    1.6771    1.3424    1.9229 N   0  0  0  0  0  0  0  0  0  0  0  0
    2.3273    1.4715    1.1539 H   0  0  0  0  0  0  0  0  0  0  0  0
    2.0544    1.8375    3.2425 C   0  0  0  0  0  0  0  0  0  0  0  0
    2.3202    1.0050    3.9028 H   0  0  0  0  0  0  0  0  0  0  0  0
    2.9169    2.5062    3.1637 H   0  0  0  0  0  0  0  0  0  0  0  0
    1.2271    2.3950    3.6944 H   0  0  0  0  0  0  0  0  0  0  0  0
  1  2  1  0  0  0  0
  2  3  1  0  0  0  0
  2  4  1  0  0  0  0
  2  5  1  0  0  0  0
  5  6  2  0  0  0  0
  5  7  1  0  0  0  0
  7  8  1  0  0  0  0
  7  9  1  0  0  0  0
  9 10  1  0  0  0  0
  9 11  1  0  0  0  0
  9 16  1  0  0  0  0
 11 12  1  0  0  0  0
 11 13  1  0  0  0  0
 11 14  1  0  0  0  0
 14 15  1  0  0  0  0
 16 17  2  0  0  0  0
 16 18  1  0  0  0  0
 18 19  1  0  0  0  0
 18 20  1  0  0  0  0
 20 21  1  0  0  0  0
 20 22  1  0  0  0  0
 20 23  1  0  0  0  0
M  END
$$$$

  -OEChem-01062216073D

 23 22  0     1  0  0  0  0  0999 V2000
   -2.6309   -3.4647    1.2921 H   0  0  0  0  0  0  0  0  0  0  0  0
   -2.6693   -2.4222    0.9642 C   0  0  0  0  0  0  0  0  0  0  0  0
   -3.1145   -1.8203    1.7601 H   0  0  0  0  0  0  0  0  0  0  0  0
   -3.2926   -2.3558    0.0695 H   0  0  0  0  0  0  0  0  0  0  0  0
   -1.2708   -1.9209    0.6597 C   0  0  0  0  0  0  0  0  0  0  0  0
   -0.3169   -2.6760    0.7687 O   0  0  0  0  0  0  0  0  0  0  0  0
   -1.0895   -0.6242    0.2184 N   0  0  0  0  0  0  0  0  0  0  0  0
   -1.9126   -0.0335    0.2605 H   0  0  0  0  0  0  0  0  0  0  0  0
    0.2303    0.0315    0.2800 C   0  0  1  0  0  0  0  0  0  0  0  0
    1.0038   -0.6614   -0.0690 H   0  0  0  0  0  0  0  0  0  0  0  0
    0.1873    1.2283   -0.6880 C   0  0  0  0  0  0  0  0  0  0  0  0
   -0.6361    1.8970   -0.4160 H   0  0  0  0  0  0  0  0  0  0  0  0
    1.1183    1.7986   -0.6274 H   0  0  0  0  0  0  0  0  0  0  0  0
   -0.0112    0.6589   -2.4268 S   0  0  0  0  0  0  0  0  0  0  0  0
   -0.0424    1.8328   -3.0943 H   0  0  0  0  0  0  0  0  0  0  0  0
    0.6233    0.4706    1.7198 C   0  0  0  0  0  0  0  0  0  0  0  0
    0.0496    0.0076    2.6983 O   0  0  0  0  0  0  0  0  0  0  0  0
    1.4397    1.5705    1.9354 N   0  0  0  0  0  0  0  0  0  0  0  0
    1.9660    1.9214    1.1421 H   0  0  0  0  0  0  0  0  0  0  0  0
    1.7846    2.0585    3.2669 C   0  0  0  0  0  0  0  0  0  0  0  0
    2.2964    1.2782    3.8403 H   0  0  0  0  0  0  0  0  0  0  0  0
    2.4482    2.9254    3.1924 H   0  0  0  0  0  0  0  0  0  0  0  0
    0.8835    2.3614    3.8109 H   0  0  0  0  0  0  0  0  0  0  0  0
  1  2  1  0  0  0  0
  2  3  1  0  0  0  0
  2  4  1  0  0  0  0
  2  5  1  0  0  0  0
  5  6  2  0  0  0  0
  5  7  1  0  0  0  0
  7  8  1  0  0  0  0
  7  9  1  0  0  0  0
  9 10  1  0  0  0  0
  9 11  1  0  0  0  0
  9 16  1  0  0  0  0
 11 12  1  0  0  0  0
 11 13  1  0  0  0  0
 11 14  1  0  0  0  0
 14 15  1  0  0  0  0
 16 17  2  0  0  0  0
 16 18  1  0  0  0  0
 18 19  1  0  0  0  0
 18 20  1  0  0  0  0
 20 21  1  0  0  0  0
 20 22  1  0  0  0  0
 20 23  1  0  0  0  0
M  END
$$$$

  -OEChem-01062216073D

 23 22  0     1  0  0  0  0  0999 V2000
   -2.6385   -3.4634    1.2909 H   0  0  0  0  0  0  0  0  0  0  0  0
   -2.6739   -2.4192    0.9682 C   0  0  0  0  0  0  0  0  0  0  0  0
   -3.1169   -1.8200    1.7671 H   0  0  0  0  0  0  0  0  0  0  0  0
   -3.2977   -2.3468    0.0743 H   0  0  0  0  0  0  0  0  0  0  0  0
   -1.2737   -1.9206    0.6662 C   0  0  0  0  0  0  0  0  0  0  0  0
   -0.3258   -2.6853    0.7524 O   0  0  0  0  0  0  0  0  0  0  0  0
   -1.0901   -0.6223    0.2294 N   0  0  0  0  0  0  0  0  0  0  0  0
   -1.9168   -0.0358    0.2471 H   0  0  0  0  0  0  0  0  0  0  0  0
    0.2270    0.0399    0.2836 C   0  0  1  0  0  0  0  0  0  0  0  0
    1.0006   -0.6553   -0.0606 H   0  0  0  0  0  0  0  0  0  0  0  0
    0.1881    1.2247   -0.6987 C   0  0  0  0  0  0  0  0  0  0  0  0
   -0.6342    1.8995   -0.4393 H   0  0  0  0  0  0  0  0  0  0  0  0
    1.1234    1.7891   -0.6417 H   0  0  0  0  0  0  0  0  0  0  0  0
   -0.0031    0.6327   -2.4305 S   0  0  0  0  0  0  0  0  0  0  0  0
   -0.0106    1.7956   -3.1176 H   0  0  0  0  0  0  0  0  0  0  0  0
    0.6256    0.4781    1.7230 C   0  0  0  0  0  0  0  0  0  0  0  0
    0.2896   -0.1788    2.6992 O   0  0  0  0  0  0  0  0  0  0  0  0
    1.1670    1.7305    1.9727 N   0  0  0  0  0  0  0  0  0  0  0  0
    1.4752    2.2770    1.1761 H   0  0  0  0  0  0  0  0  0  0  0  0
    1.4797    2.2163    3.3129 C   0  0  0  0  0  0  0  0  0  0  0  0
    2.2098    1.5601    3.7984 H   0  0  0  0  0  0  0  0  0  0  0  0
    1.9012    3.2247    3.2615 H   0  0  0  0  0  0  0  0  0  0  0  0
    0.5751    2.2526    3.9291 H   0  0  0  0  0  0  0  0  0  0  0  0
  1  2  1  0  0  0  0
  2  3  1  0  0  0  0
  2  4  1  0  0  0  0
  2  5  1  0  0  0  0
  5  6  2  0  0  0  0
  5  7  1  0  0  0  0
  7  8  1  0  0  0  0
  7  9  1  0  0  0  0
  9 10  1  0  0  0  0
  9 11  1  0  0  0  0
  9 16  1  0  0  0  0
 11 12  1  0  0  0  0
 11 13  1  0  0  0  0
 11 14  1  0  0  0  0
 14 15  1  0  0  0  0
 16 17  2  0  0  0  0
 16 18  1  0  0  0  0
 18 19  1  0  0  0  0
 18 20  1  0  0  0  0
 20 21  1  0  0  0  0
 20 22  1  0  0  0  0
 20 23  1  0  0  0  0
M  END
$$$$

  -OEChem-01062216073D

 23 22  0     1  0  0  0  0  0999 V2000
   -2.6578   -3.4582    1.3115 H   0  0  0  0  0  0  0  0  0  0  0  0
   -2.6899   -2.4282    0.9452 C   0  0  0  0  0  0  0  0  0  0  0  0
   -3.1803   -1.8041    1.6959 H   0  0  0  0  0  0  0  0  0  0  0  0
   -3.2688   -2.4005    0.0190 H   0  0  0  0  0  0  0  0  0  0  0  0
   -1.2825   -1.9225    0.6915 C   0  0  0  0  0  0  0  0  0  0  0  0
   -0.3378   -2.6870    0.7971 O   0  0  0  0  0  0  0  0  0  0  0  0
   -1.0947   -0.6248    0.2545 N   0  0  0  0  0  0  0  0  0  0  0  0
   -1.9279   -0.0489    0.2118 H   0  0  0  0  0  0  0  0  0  0  0  0
    0.2167    0.0490    0.2983 C   0  0  1  0  0  0  0  0  0  0  0  0
    0.9921   -0.6477   -0.0397 H   0  0  0  0  0  0  0  0  0  0  0  0
    0.1826    1.2242   -0.6942 C   0  0  0  0  0  0  0  0  0  0  0  0
   -0.6420    1.9010   -0.4489 H   0  0  0  0  0  0  0  0  0  0  0  0
    1.1196    1.7865   -0.6300 H   0  0  0  0  0  0  0  0  0  0  0  0
    0.0007    0.6180   -2.4219 S   0  0  0  0  0  0  0  0  0  0  0  0
    0.0499    1.7712   -3.1236 H   0  0  0  0  0  0  0  0  0  0  0  0
    0.6198    0.4940    1.7323 C   0  0  0  0  0  0  0  0  0  0  0  0
    0.6069   -0.2925    2.6675 O   0  0  0  0  0  0  0  0  0  0  0  0
    0.8560    1.8268    2.0364 N   0  0  0  0  0  0  0  0  0  0  0  0
    0.8572    2.4946    1.2735 H   0  0  0  0  0  0  0  0  0  0  0  0
    1.1760    2.2978    3.3801 C   0  0  0  0  0  0  0  0  0  0  0  0
    2.0984    1.8299    3.7403 H   0  0  0  0  0  0  0  0  0  0  0  0
    1.3168    3.3829    3.3786 H   0  0  0  0  0  0  0  0  0  0  0  0
    0.3643    2.0566    4.0749 H   0  0  0  0  0  0  0  0  0  0  0  0
  1  2  1  0  0  0  0
  2  3  1  0  0  0  0
  2  4  1  0  0  0  0
  2  5  1  0  0  0  0
  5  6  2  0  0  0  0
  5  7  1  0  0  0  0
  7  8  1  0  0  0  0
  7  9  1  0  0  0  0
  9 10  1  0  0  0  0
  9 11  1  0  0  0  0
  9 16  1  0  0  0  0
 11 12  1  0  0  0  0
 11 13  1  0  0  0  0
 11 14  1  0  0  0  0
 14 15  1  0  0  0  0
 16 17  2  0  0  0  0
 16 18  1  0  0  0  0
 18 19  1  0  0  0  0
 18 20  1  0  0  0  0
 20 21  1  0  0  0  0
 20 22  1  0  0  0  0
 20 23  1  0  0  0  0
M  END
$$$$

  -OEChem-01062216073D

 23 22  0     1  0  0  0  0  0999 V2000
   -2.7245   -3.5065    1.1833 H   0  0  0  0  0  0  0  0  0  0  0  0
   -2.7339   -2.4779    0.8117 C   0  0  0  0  0  0  0  0  0  0  0  0
   -3.3632   -1.8732    1.4688 H   0  0  0  0  0  0  0  0  0  0  0  0
   -3.1545   -2.4718   -0.1966 H   0  0  0  0  0  0  0  0  0  0  0  0
   -1.3234   -1.9204    0.7889 C   0  0  0  0  0  0  0  0  0  0  0  0
   -0.3893   -2.6388    1.0960 O   0  0  0  0  0  0  0  0  0  0  0  0
   -1.1115   -0.6305    0.3430 N   0  0  0  0  0  0  0  0  0  0  0  0
   -1.9217   -0.1274   -0.0018 H   0  0  0  0  0  0  0  0  0  0  0  0
    0.1953    0.0520    0.3591 C   0  0  1  0  0  0  0  0  0  0  0  0
    0.9664   -0.6475    0.0157 H   0  0  0  0  0  0  0  0  0  0  0  0
    0.1417    1.2191   -0.6400 C   0  0  0  0  0  0  0  0  0  0  0  0
   -0.6832    1.8946   -0.3923 H   0  0  0  0  0  0  0  0  0  0  0  0
    1.0772    1.7863   -0.5858 H   0  0  0  0  0  0  0  0  0  0  0  0
   -0.0633    0.5951   -2.3587 S   0  0  0  0  0  0  0  0  0  0  0  0
    0.0328    1.7357   -3.0769 H   0  0  0  0  0  0  0  0  0  0  0  0
    0.6272    0.5199    1.7749 C   0  0  0  0  0  0  0  0  0  0  0  0
    1.0577   -0.2684    2.6021 O   0  0  0  0  0  0  0  0  0  0  0  0
    0.5631    1.8563    2.1411 N   0  0  0  0  0  0  0  0  0  0  0  0
    0.1723    2.5123    1.4744 H   0  0  0  0  0  0  0  0  0  0  0  0
    0.9472    2.3423    3.4621 C   0  0  0  0  0  0  0  0  0  0  0  0
    1.9930    2.0944    3.6725 H   0  0  0  0  0  0  0  0  0  0  0  0
    0.8336    3.4292    3.5148 H   0  0  0  0  0  0  0  0  0  0  0  0
    0.3161    1.8904    4.2347 H   0  0  0  0  0  0  0  0  0  0  0  0
  1  2  1  0  0  0  0
  2  3  1  0  0  0  0
  2  4  1  0  0  0  0
  2  5  1  0  0  0  0
  5  6  2  0  0  0  0
  5  7  1  0  0  0  0
  7  8  1  0  0  0  0
  7  9  1  0  0  0  0
  9 10  1  0  0  0  0
  9 11  1  0  0  0  0
  9 16  1  0  0  0  0
 11 12  1  0  0  0  0
 11 13  1  0  0  0  0
 11 14  1  0  0  0  0
 14 15  1  0  0  0  0
 16 17  2  0  0  0  0
 16 18  1  0  0  0  0
 18 19  1  0  0  0  0
 18 20  1  0  0  0  0
 20 21  1  0  0  0  0
 20 22  1  0  0  0  0
 20 23  1  0  0  0  0
M  END
$$$$

  -OEChem-01062216073D

 23 22  0     1  0  0  0  0  0999 V2000
   -2.7607   -3.5481    1.0763 H   0  0  0  0  0  0  0  0  0  0  0  0
   -2.7496   -2.5421    0.6471 C   0  0  0  0  0  0  0  0  0  0  0  0
   -3.5440   -1.9532    1.1115 H   0  0  0  0  0  0  0  0  0  0  0  0
   -2.9374   -2.6159   -0.4267 H   0  0  0  0  0  0  0  0  0  0  0  0
   -1.4051   -1.8846    0.8951 C   0  0  0  0  0  0  0  0  0  0  0  0
   -0.5333   -2.5010    1.4787 O   0  0  0  0  0  0  0  0  0  0  0  0
   -1.1814   -0.6045    0.4281 N   0  0  0  0  0  0  0  0  0  0  0  0
   -1.8726   -0.2556   -0.2292 H   0  0  0  0  0  0  0  0  0  0  0  0
    0.1414    0.0459    0.4233 C   0  0  1  0  0  0  0  0  0  0  0  0
    0.8893   -0.6739    0.0701 H   0  0  0  0  0  0  0  0  0  0  0  0
    0.0982    1.2152   -0.5709 C   0  0  0  0  0  0  0  0  0  0  0  0
   -0.7047    1.9116   -0.3101 H   0  0  0  0  0  0  0  0  0  0  0  0
    1.0476    1.7602   -0.5281 H   0  0  0  0  0  0  0  0  0  0  0  0
   -0.1526    0.5905   -2.2833 S   0  0  0  0  0  0  0  0  0  0  0  0
    0.0000    1.7226   -3.0057 H   0  0  0  0  0  0  0  0  0  0  0  0
    0.6080    0.5199    1.8226 C   0  0  0  0  0  0  0  0  0  0  0  0
    1.4395   -0.1175    2.4516 O   0  0  0  0  0  0  0  0  0  0  0  0
    0.2961    1.7919    2.2773 N   0  0  0  0  0  0  0  0  0  0  0  0
   -0.4436    2.2871    1.7917 H   0  0  0  0  0  0  0  0  0  0  0  0
    0.7632    2.3139    3.5568 C   0  0  0  0  0  0  0  0  0  0  0  0
    1.8575    2.3502    3.5797 H   0  0  0  0  0  0  0  0  0  0  0  0
    0.3819    3.3272    3.7147 H   0  0  0  0  0  0  0  0  0  0  0  0
    0.4149    1.6798    4.3791 H   0  0  0  0  0  0  0  0  0  0  0  0
  1  2  1  0  0  0  0
  2  3  1  0  0  0  0
  2  4  1  0  0  0  0
  2  5  1  0  0  0  0
  5  6  2  0  0  0  0
  5  7  1  0  0  0  0
  7  8  1  0  0  0  0
  7  9  1  0  0  0  0
  9 10  1  0  0  0  0
  9 11  1  0  0  0  0
  9 16  1  0  0  0  0
 11 12  1  0  0  0  0
 11 13  1  0  0  0  0
 11 14  1  0  0  0  0
 14 15  1  0  0  0  0
 16 17  2  0  0  0  0
 16 18  1  0  0  0  0
 18 19  1  0  0  0  0
 18 20  1  0  0  0  0
 20 21  1  0  0  0  0
 20 22  1  0  0  0  0
 20 23  1  0  0  0  0
M  END
$$$$

  -OEChem-01062216073D

 23 22  0     1  0  0  0  0  0999 V2000
   -2.7537   -3.5737    1.0363 H   0  0  0  0  0  0  0  0  0  0  0  0
   -2.7473   -2.5697    0.6023 C   0  0  0  0  0  0  0  0  0  0  0  0
   -3.5792   -1.9996    1.0226 H   0  0  0  0  0  0  0  0  0  0  0  0
   -2.8792   -2.6542   -0.4790 H   0  0  0  0  0  0  0  0  0  0  0  0
   -1.4345   -1.8758    0.9126 C   0  0  0  0  0  0  0  0  0  0  0  0
   -0.5904   -2.4483    1.5770 O   0  0  0  0  0  0  0  0  0  0  0  0
   -1.2109   -0.5983    0.4395 N   0  0  0  0  0  0  0  0  0  0  0  0
   -1.8667   -0.2845   -0.2703 H   0  0  0  0  0  0  0  0  0  0  0  0
    0.1225    0.0296    0.4310 C   0  0  1  0  0  0  0  0  0  0  0  0
    0.8579   -0.6985    0.0688 H   0  0  0  0  0  0  0  0  0  0  0  0
    0.0999    1.2154   -0.5421 C   0  0  0  0  0  0  0  0  0  0  0  0
   -0.6839    1.9269   -0.2645 H   0  0  0  0  0  0  0  0  0  0  0  0
    1.0619    1.7379   -0.4936 H   0  0  0  0  0  0  0  0  0  0  0  0
   -0.1744    0.6230   -2.2624 S   0  0  0  0  0  0  0  0  0  0  0  0
    0.0178    1.7604   -2.9668 H   0  0  0  0  0  0  0  0  0  0  0  0
    0.5965    0.4930    1.8276 C   0  0  0  0  0  0  0  0  0  0  0  0
    1.6331    0.0515    2.3026 O   0  0  0  0  0  0  0  0  0  0  0  0
    0.0507    1.6293    2.4021 N   0  0  0  0  0  0  0  0  0  0  0  0
   -0.8516    1.9272    2.0467 H   0  0  0  0  0  0  0  0  0  0  0  0
    0.5149    2.1730    3.6734 C   0  0  0  0  0  0  0  0  0  0  0  0
    1.5714    2.4541    3.6074 H   0  0  0  0  0  0  0  0  0  0  0  0
   -0.0617    3.0647    3.9373 H   0  0  0  0  0  0  0  0  0  0  0  0
    0.3971    1.4334    4.4725 H   0  0  0  0  0  0  0  0  0  0  0  0
  1  2  1  0  0  0  0
  2  3  1  0  0  0  0
  2  4  1  0  0  0  0
  2  5  1  0  0  0  0
  5  6  2  0  0  0  0
  5  7  1  0  0  0  0
  7  8  1  0  0  0  0
  7  9  1  0  0  0  0
  9 10  1  0  0  0  0
  9 11  1  0  0  0  0
  9 16  1  0  0  0  0
 11 12  1  0  0  0  0
 11 13  1  0  0  0  0
 11 14  1  0  0  0  0
 14 15  1  0  0  0  0
 16 17  2  0  0  0  0
 16 18  1  0  0  0  0
 18 19  1  0  0  0  0
 18 20  1  0  0  0  0
 20 21  1  0  0  0  0
 20 22  1  0  0  0  0
 20 23  1  0  0  0  0
M  END
$$$$

  -OEChem-01062216073D

 23 22  0     1  0  0  0  0  0999 V2000
   -2.7478   -3.5817    1.0230 H   0  0  0  0  0  0  0  0  0  0  0  0
   -2.7439   -2.5808    0.5818 C   0  0  0  0  0  0  0  0  0  0  0  0
   -3.5946   -2.0195    0.9752 H   0  0  0  0  0  0  0  0  0  0  0  0
   -2.8455   -2.6748   -0.5021 H   0  0  0  0  0  0  0  0  0  0  0  0
   -1.4493   -1.8669    0.9214 C   0  0  0  0  0  0  0  0  0  0  0  0
   -0.6196   -2.4155    1.6240 O   0  0  0  0  0  0  0  0  0  0  0  0
   -1.2244   -0.5922    0.4421 N   0  0  0  0  0  0  0  0  0  0  0  0
   -1.8649   -0.2924   -0.2883 H   0  0  0  0  0  0  0  0  0  0  0  0
    0.1176    0.0171    0.4262 C   0  0  1  0  0  0  0  0  0  0  0  0
    0.8423   -0.7172    0.0553 H   0  0  0  0  0  0  0  0  0  0  0  0
    0.1034    1.2149   -0.5296 C   0  0  0  0  0  0  0  0  0  0  0  0
   -0.6640    1.9363   -0.2313 H   0  0  0  0  0  0  0  0  0  0  0  0
    1.0747    1.7205   -0.4853 H   0  0  0  0  0  0  0  0  0  0  0  0
   -0.1984    0.6466   -2.2536 S   0  0  0  0  0  0  0  0  0  0  0  0
    0.0206    1.7868   -2.9459 H   0  0  0  0  0  0  0  0  0  0  0  0
    0.6025    0.4744    1.8183 C   0  0  0  0  0  0  0  0  0  0  0  0
    1.7530    0.2495    2.1678 O   0  0  0  0  0  0  0  0  0  0  0  0
   -0.1283    1.4163    2.5215 N   0  0  0  0  0  0  0  0  0  0  0  0
   -1.1050    1.5067    2.2612 H   0  0  0  0  0  0  0  0  0  0  0  0
    0.3028    1.9445    3.8104 C   0  0  0  0  0  0  0  0  0  0  0  0
    1.2683    2.4523    3.7135 H   0  0  0  0  0  0  0  0  0  0  0  0
   -0.4282    2.6657    4.1878 H   0  0  0  0  0  0  0  0  0  0  0  0
    0.4029    1.1353    4.5416 H   0  0  0  0  0  0  0  0  0  0  0  0
  1  2  1  0  0  0  0
  2  3  1  0  0  0  0
  2  4  1  0  0  0  0
  2  5  1  0  0  0  0
  5  6  2  0  0  0  0
  5  7  1  0  0  0  0
  7  8  1  0  0  0  0
  7  9  1  0  0  0  0
  9 10  1  0  0  0  0
  9 11  1  0  0  0  0
  9 16  1  0  0  0  0
 11 12  1  0  0  0  0
 11 13  1  0  0  0  0
 11 14  1  0  0  0  0
 14 15  1  0  0  0  0
 16 17  2  0  0  0  0
 16 18  1  0  0  0  0
 18 19  1  0  0  0  0
 18 20  1  0  0  0  0
 20 21  1  0  0  0  0
 20 22  1  0  0  0  0
 20 23  1  0  0  0  0
M  END
$$$$

  -OEChem-01062216073D

 23 22  0     1  0  0  0  0  0999 V2000
   -2.7540   -3.5832    1.0108 H   0  0  0  0  0  0  0  0  0  0  0  0
   -2.7460   -2.5853    0.5633 C   0  0  0  0  0  0  0  0  0  0  0  0
   -3.6042   -2.0239    0.9401 H   0  0  0  0  0  0  0  0  0  0  0  0
   -2.8313   -2.6862   -0.5213 H   0  0  0  0  0  0  0  0  0  0  0  0
   -1.4584   -1.8663    0.9173 C   0  0  0  0  0  0  0  0  0  0  0  0
   -0.6398   -2.4031    1.6423 O   0  0  0  0  0  0  0  0  0  0  0  0
   -1.2282   -0.5935    0.4363 N   0  0  0  0  0  0  0  0  0  0  0  0
   -1.8559   -0.2994   -0.3080 H   0  0  0  0  0  0  0  0  0  0  0  0
    0.1197    0.0043    0.4222 C   0  0  1  0  0  0  0  0  0  0  0  0
    0.8401   -0.7305    0.0445 H   0  0  0  0  0  0  0  0  0  0  0  0
    0.1055    1.2124   -0.5195 C   0  0  0  0  0  0  0  0  0  0  0  0
   -0.6558    1.9337   -0.2048 H   0  0  0  0  0  0  0  0  0  0  0  0
    1.0793    1.7134   -0.4769 H   0  0  0  0  0  0  0  0  0  0  0  0
   -0.2114    0.6648   -2.2476 S   0  0  0  0  0  0  0  0  0  0  0  0
    0.0098    1.8125   -2.9268 H   0  0  0  0  0  0  0  0  0  0  0  0
    0.6119    0.4597    1.8111 C   0  0  0  0  0  0  0  0  0  0  0  0
    1.8102    0.4624    2.0593 O   0  0  0  0  0  0  0  0  0  0  0  0
   -0.2437    1.1589    2.6431 N   0  0  0  0  0  0  0  0  0  0  0  0
   -1.2343    1.0401    2.4547 H   0  0  0  0  0  0  0  0  0  0  0  0
    0.1647    1.6627    3.9487 C   0  0  0  0  0  0  0  0  0  0  0  0
    0.9954    2.3688    3.8451 H   0  0  0  0  0  0  0  0  0  0  0  0
   -0.6686    2.1819    4.4314 H   0  0  0  0  0  0  0  0  0  0  0  0
    0.4827    0.8378    4.5953 H   0  0  0  0  0  0  0  0  0  0  0  0
  1  2  1  0  0  0  0
  2  3  1  0  0  0  0
  2  4  1  0  0  0  0
  2  5  1  0  0  0  0
  5  6  2  0  0  0  0
  5  7  1  0  0  0  0
  7  8  1  0  0  0  0
  7  9  1  0  0  0  0
  9 10  1  0  0  0  0
  9 11  1  0  0  0  0
  9 16  1  0  0  0  0
 11 12  1  0  0  0  0
 11 13  1  0  0  0  0
 11 14  1  0  0  0  0
 14 15  1  0  0  0  0
 16 17  2  0  0  0  0
 16 18  1  0  0  0  0
 18 19  1  0  0  0  0
 18 20  1  0  0  0  0
 20 21  1  0  0  0  0
 20 22  1  0  0  0  0
 20 23  1  0  0  0  0
M  END
$$$$

  -OEChem-01062216073D

 23 22  0     1  0  0  0  0  0999 V2000
   -2.7563   -3.5848    0.9854 H   0  0  0  0  0  0  0  0  0  0  0  0
   -2.7492   -2.5837    0.5449 C   0  0  0  0  0  0  0  0  0  0  0  0
   -3.6102   -2.0268    0.9218 H   0  0  0  0  0  0  0  0  0  0  0  0
   -2.8302   -2.6777   -0.5408 H   0  0  0  0  0  0  0  0  0  0  0  0
   -1.4652   -1.8633    0.9093 C   0  0  0  0  0  0  0  0  0  0  0  0
   -0.6590   -2.3903    1.6555 O   0  0  0  0  0  0  0  0  0  0  0  0
   -1.2286   -0.5924    0.4269 N   0  0  0  0  0  0  0  0  0  0  0  0
   -1.8503   -0.2969   -0.3221 H   0  0  0  0  0  0  0  0  0  0  0  0
    0.1219    0.0020    0.4194 C   0  0  1  0  0  0  0  0  0  0  0  0
    0.8432   -0.7326    0.0435 H   0  0  0  0  0  0  0  0  0  0  0  0
    0.1028    1.2098   -0.5228 C   0  0  0  0  0  0  0  0  0  0  0  0
   -0.6606    1.9279   -0.2055 H   0  0  0  0  0  0  0  0  0  0  0  0
    1.0744    1.7154   -0.4824 H   0  0  0  0  0  0  0  0  0  0  0  0
   -0.2137    0.6612   -2.2508 S   0  0  0  0  0  0  0  0  0  0  0  0
   -0.0002    1.8114   -2.9279 H   0  0  0  0  0  0  0  0  0  0  0  0
    0.6176    0.4630    1.8062 C   0  0  0  0  0  0  0  0  0  0  0  0
    1.8087    0.6864    1.9787 O   0  0  0  0  0  0  0  0  0  0  0  0
   -0.2897    0.8885    2.7589 N   0  0  0  0  0  0  0  0  0  0  0  0
   -1.2437    0.5681    2.6227 H   0  0  0  0  0  0  0  0  0  0  0  0
    0.1153    1.3350    4.0860 C   0  0  0  0  0  0  0  0  0  0  0  0
    0.7892    2.1951    4.0128 H   0  0  0  0  0  0  0  0  0  0  0  0
   -0.7615    1.6345    4.6680 H   0  0  0  0  0  0  0  0  0  0  0  0
    0.6298    0.5293    4.6204 H   0  0  0  0  0  0  0  0  0  0  0  0
  1  2  1  0  0  0  0
  2  3  1  0  0  0  0
  2  4  1  0  0  0  0
  2  5  1  0  0  0  0
  5  6  2  0  0  0  0
  5  7  1  0  0  0  0
  7  8  1  0  0  0  0
  7  9  1  0  0  0  0
  9 10  1  0  0  0  0
  9 11  1  0  0  0  0
  9 16  1  0  0  0  0
 11 12  1  0  0  0  0
 11 13  1  0  0  0  0
 11 14  1  0  0  0  0
 14 15  1  0  0  0  0
 16 17  2  0  0  0  0
 16 18  1  0  0  0  0
 18 19  1  0  0  0  0
 18 20  1  0  0  0  0
 20 21  1  0  0  0  0
 20 22  1  0  0  0  0
 20 23  1  0  0  0  0
M  END
$$$$

  -OEChem-01062216073D

 23 22  0     1  0  0  0  0  0999 V2000
   -2.8023   -3.5542    0.9998 H   0  0  0  0  0  0  0  0  0  0  0  0
   -2.7525   -2.5813    0.5027 C   0  0  0  0  0  0  0  0  0  0  0  0
   -3.6272   -1.9937    0.7912 H   0  0  0  0  0  0  0  0  0  0  0  0
   -2.7668   -2.7382   -0.5786 H   0  0  0  0  0  0  0  0  0  0  0  0
   -1.4826   -1.8553    0.9030 C   0  0  0  0  0  0  0  0  0  0  0  0
   -0.6993   -2.3725    1.6799 O   0  0  0  0  0  0  0  0  0  0  0  0
   -1.2352   -0.5852    0.4259 N   0  0  0  0  0  0  0  0  0  0  0  0
   -1.8504   -0.2841   -0.3262 H   0  0  0  0  0  0  0  0  0  0  0  0
    0.1176    0.0057    0.4260 C   0  0  1  0  0  0  0  0  0  0  0  0
    0.8377   -0.7296    0.0502 H   0  0  0  0  0  0  0  0  0  0  0  0
    0.0906    1.2098   -0.5230 C   0  0  0  0  0  0  0  0  0  0  0  0
   -0.6763    1.9249   -0.2074 H   0  0  0  0  0  0  0  0  0  0  0  0
    1.0584    1.7229   -0.4892 H   0  0  0  0  0  0  0  0  0  0  0  0
   -0.2238    0.6503   -2.2486 S   0  0  0  0  0  0  0  0  0  0  0  0
   -0.0330    1.8018   -2.9305 H   0  0  0  0  0  0  0  0  0  0  0  0
    0.6214    0.4676    1.8123 C   0  0  0  0  0  0  0  0  0  0  0  0
    1.7627    0.8962    1.9289 O   0  0  0  0  0  0  0  0  0  0  0  0
   -0.2585    0.6055    2.8695 N   0  0  0  0  0  0  0  0  0  0  0  0
   -1.1216    0.0772    2.7758 H   0  0  0  0  0  0  0  0  0  0  0  0
    0.1735    0.9969    4.2052 C   0  0  0  0  0  0  0  0  0  0  0  0
    0.6540    1.9807    4.1808 H   0  0  0  0  0  0  0  0  0  0  0  0
   -0.6864    1.0517    4.8796 H   0  0  0  0  0  0  0  0  0  0  0  0
    0.8849    0.2674    4.6064 H   0  0  0  0  0  0  0  0  0  0  0  0
  1  2  1  0  0  0  0
  2  3  1  0  0  0  0
  2  4  1  0  0  0  0
  2  5  1  0  0  0  0
  5  6  2  0  0  0  0
  5  7  1  0  0  0  0
  7  8  1  0  0  0  0
  7  9  1  0  0  0  0
  9 10  1  0  0  0  0
  9 11  1  0  0  0  0
  9 16  1  0  0  0  0
 11 12  1  0  0  0  0
 11 13  1  0  0  0  0
 11 14  1  0  0  0  0
 14 15  1  0  0  0  0
 16 17  2  0  0  0  0
 16 18  1  0  0  0  0
 18 19  1  0  0  0  0
 18 20  1  0  0  0  0
 20 21  1  0  0  0  0
 20 22  1  0  0  0  0
 20 23  1  0  0  0  0
M  END
$$$$

  -OEChem-01062216073D

 23 22  0     1  0  0  0  0  0999 V2000
   -2.8242   -3.5488    0.9481 H   0  0  0  0  0  0  0  0  0  0  0  0
   -2.7670   -2.5664    0.4707 C   0  0  0  0  0  0  0  0  0  0  0  0
   -3.6411   -1.9804    0.7645 H   0  0  0  0  0  0  0  0  0  0  0  0
   -2.7746   -2.7022   -0.6136 H   0  0  0  0  0  0  0  0  0  0  0  0
   -1.4971   -1.8532    0.8931 C   0  0  0  0  0  0  0  0  0  0  0  0
   -0.7358   -2.3724    1.6913 O   0  0  0  0  0  0  0  0  0  0  0  0
   -1.2321   -0.5831    0.4271 N   0  0  0  0  0  0  0  0  0  0  0  0
   -1.8461   -0.2670   -0.3198 H   0  0  0  0  0  0  0  0  0  0  0  0
    0.1215    0.0080    0.4347 C   0  0  1  0  0  0  0  0  0  0  0  0
    0.8419   -0.7263    0.0581 H   0  0  0  0  0  0  0  0  0  0  0  0
    0.0835    1.2076   -0.5226 C   0  0  0  0  0  0  0  0  0  0  0  0
   -0.6890    1.9179   -0.2097 H   0  0  0  0  0  0  0  0  0  0  0  0
    1.0460    1.7310   -0.4968 H   0  0  0  0  0  0  0  0  0  0  0  0
   -0.2266    0.6345   -2.2446 S   0  0  0  0  0  0  0  0  0  0  0  0
   -0.0652    1.7884   -2.9297 H   0  0  0  0  0  0  0  0  0  0  0  0
    0.6297    0.4667    1.8243 C   0  0  0  0  0  0  0  0  0  0  0  0
    1.6724    1.1041    1.9112 O   0  0  0  0  0  0  0  0  0  0  0  0
   -0.1551    0.3144    2.9516 N   0  0  0  0  0  0  0  0  0  0  0  0
   -0.8570   -0.4191    2.8700 H   0  0  0  0  0  0  0  0  0  0  0  0
    0.3088    0.6735    4.2857 C   0  0  0  0  0  0  0  0  0  0  0  0
    0.5764    1.7346    4.3275 H   0  0  0  0  0  0  0  0  0  0  0  0
   -0.4800    0.4895    5.0212 H   0  0  0  0  0  0  0  0  0  0  0  0
    1.1861    0.0779    4.5591 H   0  0  0  0  0  0  0  0  0  0  0  0
  1  2  1  0  0  0  0
  2  3  1  0  0  0  0
  2  4  1  0  0  0  0
  2  5  1  0  0  0  0
  5  6  2  0  0  0  0
  5  7  1  0  0  0  0
  7  8  1  0  0  0  0
  7  9  1  0  0  0  0
  9 10  1  0  0  0  0
  9 11  1  0  0  0  0
  9 16  1  0  0  0  0
 11 12  1  0  0  0  0
 11 13  1  0  0  0  0
 11 14  1  0  0  0  0
 14 15  1  0  0  0  0
 16 17  2  0  0  0  0
 16 18  1  0  0  0  0
 18 19  1  0  0  0  0
 18 20  1  0  0  0  0
 20 21  1  0  0  0  0
 20 22  1  0  0  0  0
 20 23  1  0  0  0  0
M  END
$$$$

  -OEChem-01062216073D

 23 22  0     1  0  0  0  0  0999 V2000
   -2.8368   -3.5409    0.9269 H   0  0  0  0  0  0  0  0  0  0  0  0
   -2.7865   -2.5419    0.4847 C   0  0  0  0  0  0  0  0  0  0  0  0
   -3.6367   -1.9553    0.8410 H   0  0  0  0  0  0  0  0  0  0  0  0
   -2.8465   -2.6358   -0.6022 H   0  0  0  0  0  0  0  0  0  0  0  0
   -1.4877   -1.8627    0.8738 C   0  0  0  0  0  0  0  0  0  0  0  0
   -0.7048   -2.4200    1.6252 O   0  0  0  0  0  0  0  0  0  0  0  0
   -1.2158   -0.5882    0.4228 N   0  0  0  0  0  0  0  0  0  0  0  0
   -1.8511   -0.2411   -0.2914 H   0  0  0  0  0  0  0  0  0  0  0  0
    0.1324    0.0161    0.4367 C   0  0  1  0  0  0  0  0  0  0  0  0
    0.8594   -0.7119    0.0610 H   0  0  0  0  0  0  0  0  0  0  0  0
    0.0836    1.2100   -0.5297 C   0  0  0  0  0  0  0  0  0  0  0  0
   -0.6972    1.9141   -0.2234 H   0  0  0  0  0  0  0  0  0  0  0  0
    1.0397    1.7445   -0.5075 H   0  0  0  0  0  0  0  0  0  0  0  0
   -0.2114    0.6235   -2.2500 S   0  0  0  0  0  0  0  0  0  0  0  0
   -0.0611    1.7757   -2.9406 H   0  0  0  0  0  0  0  0  0  0  0  0
    0.6355    0.4701    1.8332 C   0  0  0  0  0  0  0  0  0  0  0  0
    1.5335    1.2988    1.9262 O   0  0  0  0  0  0  0  0  0  0  0  0
    0.0121    0.0397    2.9887 N   0  0  0  0  0  0  0  0  0  0  0  0
   -0.5331   -0.8158    2.8725 H   0  0  0  0  0  0  0  0  0  0  0  0
    0.5014    0.3662    4.3218 C   0  0  0  0  0  0  0  0  0  0  0  0
    0.5391    1.4515    4.4626 H   0  0  0  0  0  0  0  0  0  0  0  0
   -0.1646   -0.0551    5.0808 H   0  0  0  0  0  0  0  0  0  0  0  0
    1.5053   -0.0443    4.4724 H   0  0  0  0  0  0  0  0  0  0  0  0
  1  2  1  0  0  0  0
  2  3  1  0  0  0  0
  2  4  1  0  0  0  0
  2  5  1  0  0  0  0
  5  6  2  0  0  0  0
  5  7  1  0  0  0  0
  7  8  1  0  0  0  0
  7  9  1  0  0  0  0
  9 10  1  0  0  0  0
  9 11  1  0  0  0  0
  9 16  1  0  0  0  0
 11 12  1  0  0  0  0
 11 13  1  0  0  0  0
 11 14  1  0  0  0  0
 14 15  1  0  0  0  0
 16 17  2  0  0  0  0
 16 18  1  0  0  0  0
 18 19  1  0  0  0  0
 18 20  1  0  0  0  0
 20 21  1  0  0  0  0
 20 22  1  0  0  0  0
 20 23  1  0  0  0  0
M  END
$$$$

  -OEChem-01062216073D

 23 22  0     1  0  0  0  0  0999 V2000
   -2.8312   -3.5433    0.9045 H   0  0  0  0  0  0  0  0  0  0  0  0
   -2.8017   -2.5178    0.5255 C   0  0  0  0  0  0  0  0  0  0  0  0
   -3.6133   -1.9483    0.9849 H   0  0  0  0  0  0  0  0  0  0  0  0
   -2.9476   -2.5399   -0.5571 H   0  0  0  0  0  0  0  0  0  0  0  0
   -1.4672   -1.8771    0.8548 C   0  0  0  0  0  0  0  0  0  0  0  0
   -0.6468   -2.4838    1.5246 O   0  0  0  0  0  0  0  0  0  0  0  0
   -1.1937   -0.5978    0.4166 N   0  0  0  0  0  0  0  0  0  0  0  0
   -1.8639   -0.2082   -0.2412 H   0  0  0  0  0  0  0  0  0  0  0  0
    0.1479    0.0208    0.4330 C   0  0  1  0  0  0  0  0  0  0  0  0
    0.8813   -0.7019    0.0595 H   0  0  0  0  0  0  0  0  0  0  0  0
    0.0970    1.2101   -0.5408 C   0  0  0  0  0  0  0  0  0  0  0  0
   -0.6900    1.9105   -0.2426 H   0  0  0  0  0  0  0  0  0  0  0  0
    1.0495    1.7509   -0.5154 H   0  0  0  0  0  0  0  0  0  0  0  0
   -0.1811    0.6144   -2.2607 S   0  0  0  0  0  0  0  0  0  0  0  0
   -0.0491    1.7675   -2.9537 H   0  0  0  0  0  0  0  0  0  0  0  0
    0.6417    0.4688    1.8365 C   0  0  0  0  0  0  0  0  0  0  0  0
    1.3521    1.4597    1.9618 O   0  0  0  0  0  0  0  0  0  0  0  0
    0.2394   -0.1953    2.9791 N   0  0  0  0  0  0  0  0  0  0  0  0
   -0.1808   -1.1133    2.8173 H   0  0  0  0  0  0  0  0  0  0  0  0
    0.7441    0.1163    4.3099 C   0  0  0  0  0  0  0  0  0  0  0  0
    0.5282    1.1583    4.5681 H   0  0  0  0  0  0  0  0  0  0  0  0
    0.2667   -0.5281    5.0542 H   0  0  0  0  0  0  0  0  0  0  0  0
    1.8265   -0.0421    4.3558 H   0  0  0  0  0  0  0  0  0  0  0  0
  1  2  1  0  0  0  0
  2  3  1  0  0  0  0
  2  4  1  0  0  0  0
  2  5  1  0  0  0  0
  5  6  2  0  0  0  0
  5  7  1  0  0  0  0
  7  8  1  0  0  0  0
  7  9  1  0  0  0  0
  9 10  1  0  0  0  0
  9 11  1  0  0  0  0
  9 16  1  0  0  0  0
 11 12  1  0  0  0  0
 11 13  1  0  0  0  0
 11 14  1  0  0  0  0
 14 15  1  0  0  0  0
 16 17  2  0  0  0  0
 16 18  1  0  0  0  0
 18 19  1  0  0  0  0
 18 20  1  0  0  0  0
 20 21  1  0  0  0  0
 20 22  1  0  0  0  0
 20 23  1  0  0  0  0
M  END
$$$$

  -OEChem-01062216073D

 23 22  0     1  0  0  0  0  0999 V2000
   -2.8168   -3.5350    0.9266 H   0  0  0  0  0  0  0  0  0  0  0  0
   -2.7999   -2.4937    0.5925 C   0  0  0  0  0  0  0  0  0  0  0  0
   -3.5618   -1.9346    1.1413 H   0  0  0  0  0  0  0  0  0  0  0  0
   -3.0325   -2.4641   -0.4749 H   0  0  0  0  0  0  0  0  0  0  0  0
   -1.4326   -1.8869    0.8429 C   0  0  0  0  0  0  0  0  0  0  0  0
   -0.5790   -2.5294    1.4343 O   0  0  0  0  0  0  0  0  0  0  0  0
   -1.1625   -0.6049    0.4098 N   0  0  0  0  0  0  0  0  0  0  0  0
   -1.8649   -0.1814   -0.1904 H   0  0  0  0  0  0  0  0  0  0  0  0
    0.1755    0.0196    0.4157 C   0  0  1  0  0  0  0  0  0  0  0  0
    0.9101   -0.6973    0.0342 H   0  0  0  0  0  0  0  0  0  0  0  0
    0.1175    1.2118   -0.5540 C   0  0  0  0  0  0  0  0  0  0  0  0
   -0.6696    1.9094   -0.2493 H   0  0  0  0  0  0  0  0  0  0  0  0
    1.0693    1.7541   -0.5286 H   0  0  0  0  0  0  0  0  0  0  0  0
   -0.1694    0.6238   -2.2750 S   0  0  0  0  0  0  0  0  0  0  0  0
   -0.0567    1.7826   -2.9618 H   0  0  0  0  0  0  0  0  0  0  0  0
    0.6674    0.4583    1.8224 C   0  0  0  0  0  0  0  0  0  0  0  0
    1.1644    1.5646    2.0015 O   0  0  0  0  0  0  0  0  0  0  0  0
    0.5288   -0.3790    2.9115 N   0  0  0  0  0  0  0  0  0  0  0  0
    0.1863   -1.3219    2.7097 H   0  0  0  0  0  0  0  0  0  0  0  0
    1.0067   -0.0661    4.2514 C   0  0  0  0  0  0  0  0  0  0  0  0
    0.5268    0.8438    4.6268 H   0  0  0  0  0  0  0  0  0  0  0  0
    0.7723   -0.8871    4.9358 H   0  0  0  0  0  0  0  0  0  0  0  0
    2.0915    0.0824    4.2466 H   0  0  0  0  0  0  0  0  0  0  0  0
  1  2  1  0  0  0  0
  2  3  1  0  0  0  0
  2  4  1  0  0  0  0
  2  5  1  0  0  0  0
  5  6  2  0  0  0  0
  5  7  1  0  0  0  0
  7  8  1  0  0  0  0
  7  9  1  0  0  0  0
  9 10  1  0  0  0  0
  9 11  1  0  0  0  0
  9 16  1  0  0  0  0
 11 12  1  0  0  0  0
 11 13  1  0  0  0  0
 11 14  1  0  0  0  0
 14 15  1  0  0  0  0
 16 17  2  0  0  0  0
 16 18  1  0  0  0  0
 18 19  1  0  0  0  0
 18 20  1  0  0  0  0
 20 21  1  0  0  0  0
 20 22  1  0  0  0  0
 20 23  1  0  0  0  0
M  END
$$$$

  -OEChem-01062216073D

 23 22  0     1  0  0  0  0  0999 V2000
   -2.7963   -3.5104    1.0174 H   0  0  0  0  0  0  0  0  0  0  0  0
   -2.7779   -2.4766    0.6605 C   0  0  0  0  0  0  0  0  0  0  0  0
   -3.5164   -1.8972    1.2200 H   0  0  0  0  0  0  0  0  0  0  0  0
   -3.0427   -2.4662   -0.3997 H   0  0  0  0  0  0  0  0  0  0  0  0
   -1.3969   -1.8805    0.8555 C   0  0  0  0  0  0  0  0  0  0  0  0
   -0.5194   -2.5353    1.3976 O   0  0  0  0  0  0  0  0  0  0  0  0
   -1.1363   -0.5986    0.4164 N   0  0  0  0  0  0  0  0  0  0  0  0
   -1.8619   -0.1579   -0.1424 H   0  0  0  0  0  0  0  0  0  0  0  0
    0.2028    0.0196    0.3928 C   0  0  1  0  0  0  0  0  0  0  0  0
    0.9275   -0.6985   -0.0056 H   0  0  0  0  0  0  0  0  0  0  0  0
    0.1363    1.2182   -0.5675 C   0  0  0  0  0  0  0  0  0  0  0  0
   -0.6403    1.9190   -0.2434 H   0  0  0  0  0  0  0  0  0  0  0  0
    1.0924    1.7530   -0.5513 H   0  0  0  0  0  0  0  0  0  0  0  0
   -0.1901    0.6482   -2.2873 S   0  0  0  0  0  0  0  0  0  0  0  0
   -0.0891    1.8138   -2.9642 H   0  0  0  0  0  0  0  0  0  0  0  0
    0.7126    0.4485    1.7938 C   0  0  0  0  0  0  0  0  0  0  0  0
    0.9866    1.6178    2.0404 O   0  0  0  0  0  0  0  0  0  0  0  0
    0.8674   -0.4899    2.7941 N   0  0  0  0  0  0  0  0  0  0  0  0
    0.5598   -1.4403    2.5698 H   0  0  0  0  0  0  0  0  0  0  0  0
    1.2831   -0.1751    4.1540 C   0  0  0  0  0  0  0  0  0  0  0  0
    0.5707    0.5113    4.6233 H   0  0  0  0  0  0  0  0  0  0  0  0
    1.3311   -1.0890    4.7540 H   0  0  0  0  0  0  0  0  0  0  0  0
    2.2743    0.2903    4.1539 H   0  0  0  0  0  0  0  0  0  0  0  0
  1  2  1  0  0  0  0
  2  3  1  0  0  0  0
  2  4  1  0  0  0  0
  2  5  1  0  0  0  0
  5  6  2  0  0  0  0
  5  7  1  0  0  0  0
  7  8  1  0  0  0  0
  7  9  1  0  0  0  0
  9 10  1  0  0  0  0
  9 11  1  0  0  0  0
  9 16  1  0  0  0  0
 11 12  1  0  0  0  0
 11 13  1  0  0  0  0
 11 14  1  0  0  0  0
 14 15  1  0  0  0  0
 16 17  2  0  0  0  0
 16 18  1  0  0  0  0
 18 19  1  0  0  0  0
 18 20  1  0  0  0  0
 20 21  1  0  0  0  0
 20 22  1  0  0  0  0
 20 23  1  0  0  0  0
M  END
$$$$

  -OEChem-01062216073D

 23 22  0     1  0  0  0  0  0999 V2000
   -2.7412   -3.5032    1.0752 H   0  0  0  0  0  0  0  0  0  0  0  0
   -2.7421   -2.4707    0.7147 C   0  0  0  0  0  0  0  0  0  0  0  0
   -3.4761   -1.8981    1.2869 H   0  0  0  0  0  0  0  0  0  0  0  0
   -3.0279   -2.4672   -0.3400 H   0  0  0  0  0  0  0  0  0  0  0  0
   -1.3647   -1.8580    0.8804 C   0  0  0  0  0  0  0  0  0  0  0  0
   -0.4696   -2.4970    1.4141 O   0  0  0  0  0  0  0  0  0  0  0  0
   -1.1211   -0.5793    0.4222 N   0  0  0  0  0  0  0  0  0  0  0  0
   -1.8549   -0.1449   -0.1308 H   0  0  0  0  0  0  0  0  0  0  0  0
    0.2192    0.0302    0.3770 C   0  0  1  0  0  0  0  0  0  0  0  0
    0.9387   -0.6904   -0.0262 H   0  0  0  0  0  0  0  0  0  0  0  0
    0.1530    1.2282   -0.5827 C   0  0  0  0  0  0  0  0  0  0  0  0
   -0.6158    1.9347   -0.2519 H   0  0  0  0  0  0  0  0  0  0  0  0
    1.1133    1.7555   -0.5736 H   0  0  0  0  0  0  0  0  0  0  0  0
   -0.1993    0.6573   -2.2972 S   0  0  0  0  0  0  0  0  0  0  0  0
   -0.1294    1.8248   -2.9744 H   0  0  0  0  0  0  0  0  0  0  0  0
    0.7283    0.4610    1.7744 C   0  0  0  0  0  0  0  0  0  0  0  0
    0.7966    1.6433    2.0922 O   0  0  0  0  0  0  0  0  0  0  0  0
    1.1672   -0.5002    2.6629 N   0  0  0  0  0  0  0  0  0  0  0  0
    0.9079   -1.4615    2.4244 H   0  0  0  0  0  0  0  0  0  0  0  0
    1.5730   -0.2031    4.0300 C   0  0  0  0  0  0  0  0  0  0  0  0
    0.7388    0.2293    4.5921 H   0  0  0  0  0  0  0  0  0  0  0  0
    1.8948   -1.1193    4.5344 H   0  0  0  0  0  0  0  0  0  0  0  0
    2.4081    0.5051    4.0371 H   0  0  0  0  0  0  0  0  0  0  0  0
  1  2  1  0  0  0  0
  2  3  1  0  0  0  0
  2  4  1  0  0  0  0
  2  5  1  0  0  0  0
  5  6  2  0  0  0  0
  5  7  1  0  0  0  0
  7  8  1  0  0  0  0
  7  9  1  0  0  0  0
  9 10  1  0  0  0  0
  9 11  1  0  0  0  0
  9 16  1  0  0  0  0
 11 12  1  0  0  0  0
 11 13  1  0  0  0  0
 11 14  1  0  0  0  0
 14 15  1  0  0  0  0
 16 17  2  0  0  0  0
 16 18  1  0  0  0  0
 18 19  1  0  0  0  0
 18 20  1  0  0  0  0
 20 21  1  0  0  0  0
 20 22  1  0  0  0  0
 20 23  1  0  0  0  0
M  END
$$$$

  -OEChem-01062216073D

 23 22  0     1  0  0  0  0  0999 V2000
   -2.6906   -3.5009    1.1372 H   0  0  0  0  0  0  0  0  0  0  0  0
   -2.7102   -2.4748    0.7592 C   0  0  0  0  0  0  0  0  0  0  0  0
   -3.4405   -1.9009    1.3348 H   0  0  0  0  0  0  0  0  0  0  0  0
   -3.0152   -2.4922   -0.2898 H   0  0  0  0  0  0  0  0  0  0  0  0
   -1.3372   -1.8440    0.8901 C   0  0  0  0  0  0  0  0  0  0  0  0
   -0.4226   -2.4621    1.4169 O   0  0  0  0  0  0  0  0  0  0  0  0
   -1.1146   -0.5682    0.4140 N   0  0  0  0  0  0  0  0  0  0  0  0
   -1.8577   -0.1368   -0.1285 H   0  0  0  0  0  0  0  0  0  0  0  0
    0.2245    0.0381    0.3617 C   0  0  1  0  0  0  0  0  0  0  0  0
    0.9459   -0.6812   -0.0403 H   0  0  0  0  0  0  0  0  0  0  0  0
    0.1641    1.2391   -0.5929 C   0  0  0  0  0  0  0  0  0  0  0  0
   -0.6031    1.9465   -0.2596 H   0  0  0  0  0  0  0  0  0  0  0  0
    1.1260    1.7630   -0.5792 H   0  0  0  0  0  0  0  0  0  0  0  0
   -0.1950    0.6794   -2.3093 S   0  0  0  0  0  0  0  0  0  0  0  0
   -0.1321    1.8530   -2.9766 H   0  0  0  0  0  0  0  0  0  0  0  0
    0.7150    0.4741    1.7610 C   0  0  0  0  0  0  0  0  0  0  0  0
    0.5737    1.6269    2.1547 O   0  0  0  0  0  0  0  0  0  0  0  0
    1.4236   -0.4273    2.5302 N   0  0  0  0  0  0  0  0  0  0  0  0
    1.2796   -1.4060    2.2717 H   0  0  0  0  0  0  0  0  0  0  0  0
    1.8553   -0.1320    3.8900 C   0  0  0  0  0  0  0  0  0  0  0  0
    0.9905    0.0593    4.5337 H   0  0  0  0  0  0  0  0  0  0  0  0
    2.4140   -0.9787    4.3002 H   0  0  0  0  0  0  0  0  0  0  0  0
    2.5066    0.7483    3.9035 H   0  0  0  0  0  0  0  0  0  0  0  0
  1  2  1  0  0  0  0
  2  3  1  0  0  0  0
  2  4  1  0  0  0  0
  2  5  1  0  0  0  0
  5  6  2  0  0  0  0
  5  7  1  0  0  0  0
  7  8  1  0  0  0  0
  7  9  1  0  0  0  0
  9 10  1  0  0  0  0
  9 11  1  0  0  0  0
  9 16  1  0  0  0  0
 11 12  1  0  0  0  0
 11 13  1  0  0  0  0
 11 14  1  0  0  0  0
 14 15  1  0  0  0  0
 16 17  2  0  0  0  0
 16 18  1  0  0  0  0
 18 19  1  0  0  0  0
 18 20  1  0  0  0  0
 20 21  1  0  0  0  0
 20 22  1  0  0  0  0
 20 23  1  0  0  0  0
M  END
$$$$

  -OEChem-01062216073D

 23 22  0     1  0  0  0  0  0999 V2000
   -2.6708   -3.5017    1.1658 H   0  0  0  0  0  0  0  0  0  0  0  0
   -2.7004   -2.4763    0.7870 C   0  0  0  0  0  0  0  0  0  0  0  0
   -3.4138   -1.9009    1.3819 H   0  0  0  0  0  0  0  0  0  0  0  0
   -3.0339   -2.4950   -0.2534 H   0  0  0  0  0  0  0  0  0  0  0  0
   -1.3239   -1.8465    0.8793 C   0  0  0  0  0  0  0  0  0  0  0  0
   -0.3937   -2.4650    1.3774 O   0  0  0  0  0  0  0  0  0  0  0  0
   -1.1110   -0.5717    0.3979 N   0  0  0  0  0  0  0  0  0  0  0  0
   -1.8730   -0.1174   -0.0972 H   0  0  0  0  0  0  0  0  0  0  0  0
    0.2247    0.0388    0.3489 C   0  0  1  0  0  0  0  0  0  0  0  0
    0.9486   -0.6784   -0.0525 H   0  0  0  0  0  0  0  0  0  0  0  0
    0.1711    1.2449   -0.5983 C   0  0  0  0  0  0  0  0  0  0  0  0
   -0.5969    1.9514   -0.2654 H   0  0  0  0  0  0  0  0  0  0  0  0
    1.1335    1.7672   -0.5764 H   0  0  0  0  0  0  0  0  0  0  0  0
   -0.1807    0.6951   -2.3193 S   0  0  0  0  0  0  0  0  0  0  0  0
   -0.1232    1.8722   -2.9811 H   0  0  0  0  0  0  0  0  0  0  0  0
    0.7014    0.4794    1.7502 C   0  0  0  0  0  0  0  0  0  0  0  0
    0.3338    1.5451    2.2327 O   0  0  0  0  0  0  0  0  0  0  0  0
    1.6583   -0.2721    2.4039 N   0  0  0  0  0  0  0  0  0  0  0  0
    1.7284   -1.2389    2.0882 H   0  0  0  0  0  0  0  0  0  0  0  0
    2.1062    0.0391    3.7554 C   0  0  0  0  0  0  0  0  0  0  0  0
    1.2711   -0.0293    4.4604 H   0  0  0  0  0  0  0  0  0  0  0  0
    2.8834   -0.6655    4.0668 H   0  0  0  0  0  0  0  0  0  0  0  0
    2.5230    1.0509    3.7993 H   0  0  0  0  0  0  0  0  0  0  0  0
  1  2  1  0  0  0  0
  2  3  1  0  0  0  0
  2  4  1  0  0  0  0
  2  5  1  0  0  0  0
  5  6  2  0  0  0  0
  5  7  1  0  0  0  0
  7  8  1  0  0  0  0
  7  9  1  0  0  0  0
  9 10  1  0  0  0  0
  9 11  1  0  0  0  0
  9 16  1  0  0  0  0
 11 12  1  0  0  0  0
 11 13  1  0  0  0  0
 11 14  1  0  0  0  0
 14 15  1  0  0  0  0
 16 17  2  0  0  0  0
 16 18  1  0  0  0  0
 18 19  1  0  0  0  0
 18 20  1  0  0  0  0
 20 21  1  0  0  0  0
 20 22  1  0  0  0  0
 20 23  1  0  0  0  0
M  END
$$$$

  -OEChem-01062216073D

 23 22  0     1  0  0  0  0  0999 V2000
   -2.6786   -3.4946    1.2118 H   0  0  0  0  0  0  0  0  0  0  0  0
   -2.7036   -2.4714    0.8271 C   0  0  0  0  0  0  0  0  0  0  0  0
   -3.3595   -1.8717    1.4628 H   0  0  0  0  0  0  0  0  0  0  0  0
   -3.1050   -2.4868   -0.1891 H   0  0  0  0  0  0  0  0  0  0  0  0
   -1.3066   -1.8814    0.8235 C   0  0  0  0  0  0  0  0  0  0  0  0
   -0.3607   -2.5309    1.2449 O   0  0  0  0  0  0  0  0  0  0  0  0
   -1.0959   -0.6035    0.3509 N   0  0  0  0  0  0  0  0  0  0  0  0
   -1.8978   -0.0774    0.0171 H   0  0  0  0  0  0  0  0  0  0  0  0
    0.2312    0.0270    0.3260 C   0  0  1  0  0  0  0  0  0  0  0  0
    0.9684   -0.6797   -0.0691 H   0  0  0  0  0  0  0  0  0  0  0  0
    0.1820    1.2440   -0.6066 C   0  0  0  0  0  0  0  0  0  0  0  0
   -0.5991    1.9376   -0.2769 H   0  0  0  0  0  0  0  0  0  0  0  0
    1.1382    1.7760   -0.5617 H   0  0  0  0  0  0  0  0  0  0  0  0
   -0.1347    0.7172   -2.3415 S   0  0  0  0  0  0  0  0  0  0  0  0
   -0.0882    1.9050   -2.9841 H   0  0  0  0  0  0  0  0  0  0  0  0
    0.6816    0.4726    1.7330 C   0  0  0  0  0  0  0  0  0  0  0  0
    0.0918    1.3780    2.3126 O   0  0  0  0  0  0  0  0  0  0  0  0
    1.8372   -0.0487    2.2829 N   0  0  0  0  0  0  0  0  0  0  0  0
    2.1677   -0.9181    1.8706 H   0  0  0  0  0  0  0  0  0  0  0  0
    2.2871    0.2901    3.6272 C   0  0  0  0  0  0  0  0  0  0  0  0
    1.5444   -0.0212    4.3693 H   0  0  0  0  0  0  0  0  0  0  0  0
    3.2321   -0.2155    3.8478 H   0  0  0  0  0  0  0  0  0  0  0  0
    2.4461    1.3697    3.7187 H   0  0  0  0  0  0  0  0  0  0  0  0
  1  2  1  0  0  0  0
  2  3  1  0  0  0  0
  2  4  1  0  0  0  0
  2  5  1  0  0  0  0
  5  6  2  0  0  0  0
  5  7  1  0  0  0  0
  7  8  1  0  0  0  0
  7  9  1  0  0  0  0
  9 10  1  0  0  0  0
  9 11  1  0  0  0  0
  9 16  1  0  0  0  0
 11 12  1  0  0  0  0
 11 13  1  0  0  0  0
 11 14  1  0  0  0  0
 14 15  1  0  0  0  0
 16 17  2  0  0  0  0
 16 18  1  0  0  0  0
 18 19  1  0  0  0  0
 18 20  1  0  0  0  0
 20 21  1  0  0  0  0
 20 22  1  0  0  0  0
 20 23  1  0  0  0  0
M  END
$$$$

  -OEChem-01062216073D

 23 22  0     1  0  0  0  0  0999 V2000
   -2.6701   -3.4835    1.2592 H   0  0  0  0  0  0  0  0  0  0  0  0
   -2.6962   -2.4597    0.8754 C   0  0  0  0  0  0  0  0  0  0  0  0
   -3.2862   -1.8425    1.5573 H   0  0  0  0  0  0  0  0  0  0  0  0
   -3.1728   -2.4638   -0.1078 H   0  0  0  0  0  0  0  0  0  0  0  0
   -1.2881   -1.9070    0.7656 C   0  0  0  0  0  0  0  0  0  0  0  0
   -0.3312   -2.5875    1.1042 O   0  0  0  0  0  0  0  0  0  0  0  0
   -1.0848   -0.6262    0.2974 N   0  0  0  0  0  0  0  0  0  0  0  0
   -1.9055   -0.0502    0.1382 H   0  0  0  0  0  0  0  0  0  0  0  0
    0.2375    0.0169    0.2996 C   0  0  1  0  0  0  0  0  0  0  0  0
    0.9868   -0.6832   -0.0844 H   0  0  0  0  0  0  0  0  0  0  0  0
    0.1972    1.2419   -0.6218 C   0  0  0  0  0  0  0  0  0  0  0  0
   -0.5958    1.9249   -0.2985 H   0  0  0  0  0  0  0  0  0  0  0  0
    1.1479    1.7814   -0.5543 H   0  0  0  0  0  0  0  0  0  0  0  0
   -0.0840    0.7337   -2.3683 S   0  0  0  0  0  0  0  0  0  0  0  0
   -0.0673    1.9313   -2.9934 H   0  0  0  0  0  0  0  0  0  0  0  0
    0.6604    0.4667    1.7127 C   0  0  0  0  0  0  0  0  0  0  0  0
   -0.0917    1.1645    2.3842 O   0  0  0  0  0  0  0  0  0  0  0  0
    1.9414    0.2163    2.1678 N   0  0  0  0  0  0  0  0  0  0  0  0
    2.4729   -0.4833    1.6565 H   0  0  0  0  0  0  0  0  0  0  0  0
    2.3845    0.5811    3.5079 C   0  0  0  0  0  0  0  0  0  0  0  0
    1.7920    0.0543    4.2634 H   0  0  0  0  0  0  0  0  0  0  0  0
    3.4370    0.3146    3.6437 H   0  0  0  0  0  0  0  0  0  0  0  0
    2.2804    1.6596    3.6673 H   0  0  0  0  0  0  0  0  0  0  0  0
  1  2  1  0  0  0  0
  2  3  1  0  0  0  0
  2  4  1  0  0  0  0
  2  5  1  0  0  0  0
  5  6  2  0  0  0  0
  5  7  1  0  0  0  0
  7  8  1  0  0  0  0
  7  9  1  0  0  0  0
  9 10  1  0  0  0  0
  9 11  1  0  0  0  0
  9 16  1  0  0  0  0
 11 12  1  0  0  0  0
 11 13  1  0  0  0  0
 11 14  1  0  0  0  0
 14 15  1  0  0  0  0
 16 17  2  0  0  0  0
 16 18  1  0  0  0  0
 18 19  1  0  0  0  0
 18 20  1  0  0  0  0
 20 21  1  0  0  0  0
 20 22  1  0  0  0  0
 20 23  1  0  0  0  0
M  END
$$$$

  -OEChem-01062216073D

 23 22  0     1  0  0  0  0  0999 V2000
   -2.6602   -3.4816    1.2791 H   0  0  0  0  0  0  0  0  0  0  0  0
   -2.6910   -2.4569    0.8984 C   0  0  0  0  0  0  0  0  0  0  0  0
   -3.2448   -1.8349    1.6058 H   0  0  0  0  0  0  0  0  0  0  0  0
   -3.2080   -2.4535   -0.0640 H   0  0  0  0  0  0  0  0  0  0  0  0
   -1.2825   -1.9200    0.7305 C   0  0  0  0  0  0  0  0  0  0  0  0
   -0.3216   -2.6175    1.0189 O   0  0  0  0  0  0  0  0  0  0  0  0
   -1.0862   -0.6364    0.2657 N   0  0  0  0  0  0  0  0  0  0  0  0
   -1.9083   -0.0448    0.1980 H   0  0  0  0  0  0  0  0  0  0  0  0
    0.2350    0.0103    0.2906 C   0  0  1  0  0  0  0  0  0  0  0  0
    0.9920   -0.6870   -0.0837 H   0  0  0  0  0  0  0  0  0  0  0  0
    0.2024    1.2404   -0.6246 C   0  0  0  0  0  0  0  0  0  0  0  0
   -0.5982    1.9170   -0.3071 H   0  0  0  0  0  0  0  0  0  0  0  0
    1.1491    1.7847   -0.5428 H   0  0  0  0  0  0  0  0  0  0  0  0
   -0.0533    0.7444   -2.3783 S   0  0  0  0  0  0  0  0  0  0  0  0
   -0.0490    1.9470   -2.9942 H   0  0  0  0  0  0  0  0  0  0  0  0
    0.6406    0.4611    1.7090 C   0  0  0  0  0  0  0  0  0  0  0  0
   -0.1973    0.9399    2.4654 O   0  0  0  0  0  0  0  0  0  0  0  0
    1.9751    0.4987    2.0692 N   0  0  0  0  0  0  0  0  0  0  0  0
    2.6251   -0.0036    1.4710 H   0  0  0  0  0  0  0  0  0  0  0  0
    2.4225    0.9084    3.3947 C   0  0  0  0  0  0  0  0  0  0  0  0
    2.0034    0.2480    4.1613 H   0  0  0  0  0  0  0  0  0  0  0  0
    3.5141    0.8628    3.4563 H   0  0  0  0  0  0  0  0  0  0  0  0
    2.1090    1.9364    3.6053 H   0  0  0  0  0  0  0  0  0  0  0  0
  1  2  1  0  0  0  0
  2  3  1  0  0  0  0
  2  4  1  0  0  0  0
  2  5  1  0  0  0  0
  5  6  2  0  0  0  0
  5  7  1  0  0  0  0
  7  8  1  0  0  0  0
  7  9  1  0  0  0  0
  9 10  1  0  0  0  0
  9 11  1  0  0  0  0
  9 16  1  0  0  0  0
 11 12  1  0  0  0  0
 11 13  1  0  0  0  0
 11 14  1  0  0  0  0
 14 15  1  0  0  0  0
 16 17  2  0  0  0  0
 16 18  1  0  0  0  0
 18 19  1  0  0  0  0
 18 20  1  0  0  0  0
 20 21  1  0  0  0  0
 20 22  1  0  0  0  0
 20 23  1  0  0  0  0
M  END
$$$$

  -OEChem-01062216073D

 23 22  0     1  0  0  0  0  0999 V2000
   -2.6516   -3.4764    1.2909 H   0  0  0  0  0  0  0  0  0  0  0  0
   -2.6855   -2.4492    0.9176 C   0  0  0  0  0  0  0  0  0  0  0  0
   -3.2039   -1.8254    1.6498 H   0  0  0  0  0  0  0  0  0  0  0  0
   -3.2392   -2.4341   -0.0241 H   0  0  0  0  0  0  0  0  0  0  0  0
   -1.2785   -1.9271    0.6994 C   0  0  0  0  0  0  0  0  0  0  0  0
   -0.3165   -2.6408    0.9412 O   0  0  0  0  0  0  0  0  0  0  0  0
   -1.0873   -0.6401    0.2408 N   0  0  0  0  0  0  0  0  0  0  0  0
   -1.9085   -0.0437    0.2285 H   0  0  0  0  0  0  0  0  0  0  0  0
    0.2338    0.0080    0.2864 C   0  0  1  0  0  0  0  0  0  0  0  0
    0.9977   -0.6859   -0.0801 H   0  0  0  0  0  0  0  0  0  0  0  0
    0.2029    1.2382   -0.6303 C   0  0  0  0  0  0  0  0  0  0  0  0
   -0.6060    1.9091   -0.3219 H   0  0  0  0  0  0  0  0  0  0  0  0
    1.1442    1.7900   -0.5413 H   0  0  0  0  0  0  0  0  0  0  0  0
   -0.0306    0.7410   -2.3868 S   0  0  0  0  0  0  0  0  0  0  0  0
   -0.0410    1.9439   -3.0019 H   0  0  0  0  0  0  0  0  0  0  0  0
    0.6278    0.4564    1.7111 C   0  0  0  0  0  0  0  0  0  0  0  0
   -0.2359    0.7014    2.5463 O   0  0  0  0  0  0  0  0  0  0  0  0
    1.9407    0.7906    1.9917 N   0  0  0  0  0  0  0  0  0  0  0  0
    2.6441    0.4987    1.3191 H   0  0  0  0  0  0  0  0  0  0  0  0
    2.3777    1.2417    3.3078 C   0  0  0  0  0  0  0  0  0  0  0  0
    2.1751    0.4743    4.0626 H   0  0  0  0  0  0  0  0  0  0  0  0
    3.4527    1.4456    3.3005 H   0  0  0  0  0  0  0  0  0  0  0  0
    1.8552    2.1615    3.5915 H   0  0  0  0  0  0  0  0  0  0  0  0
  1  2  1  0  0  0  0
  2  3  1  0  0  0  0
  2  4  1  0  0  0  0
  2  5  1  0  0  0  0
  5  6  2  0  0  0  0
  5  7  1  0  0  0  0
  7  8  1  0  0  0  0
  7  9  1  0  0  0  0
  9 10  1  0  0  0  0
  9 11  1  0  0  0  0
  9 16  1  0  0  0  0
 11 12  1  0  0  0  0
 11 13  1  0  0  0  0
 11 14  1  0  0  0  0
 14 15  1  0  0  0  0
 16 17  2  0  0  0  0
 16 18  1  0  0  0  0
 18 19  1  0  0  0  0
 18 20  1  0  0  0  0
 20 21  1  0  0  0  0
 20 22  1  0  0  0  0
 20 23  1  0  0  0  0
M  END
$$$$

  -OEChem-01062216073D

 23 22  0     1  0  0  0  0  0999 V2000
   -2.6373   -3.4816    1.2792 H   0  0  0  0  0  0  0  0  0  0  0  0
   -2.6756   -2.4469    0.9274 C   0  0  0  0  0  0  0  0  0  0  0  0
   -3.1453   -1.8314    1.6984 H   0  0  0  0  0  0  0  0  0  0  0  0
   -3.2774   -2.4052    0.0167 H   0  0  0  0  0  0  0  0  0  0  0  0
   -1.2742   -1.9407    0.6457 C   0  0  0  0  0  0  0  0  0  0  0  0
   -0.3167   -2.6914    0.7597 O   0  0  0  0  0  0  0  0  0  0  0  0
   -1.0835   -0.6441    0.2104 N   0  0  0  0  0  0  0  0  0  0  0  0
   -1.9039   -0.0477    0.2269 H   0  0  0  0  0  0  0  0  0  0  0  0
    0.2376    0.0046    0.2872 C   0  0  1  0  0  0  0  0  0  0  0  0
    0.9536   -0.5673   -0.3126 H   0  0  0  0  0  0  0  0  0  0  0  0
    0.0931    1.4151   -0.3056 C   0  0  0  0  0  0  0  0  0  0  0  0
   -0.6866    1.9642    0.2327 H   0  0  0  0  0  0  0  0  0  0  0  0
    1.0290    1.9702   -0.1894 H   0  0  0  0  0  0  0  0  0  0  0  0
   -0.3188    1.3317   -2.0973 S   0  0  0  0  0  0  0  0  0  0  0  0
   -0.4117    2.6427   -2.4100 H   0  0  0  0  0  0  0  0  0  0  0  0
    0.8028    0.1136    1.7276 C   0  0  0  0  0  0  0  0  0  0  0  0
    0.0739   -0.0455    2.7009 O   0  0  0  0  0  0  0  0  0  0  0  0
    2.0402    0.6985    1.9397 N   0  0  0  0  0  0  0  0  0  0  0  0
    2.6581    0.7716    1.1371 H   0  0  0  0  0  0  0  0  0  0  0  0
    2.6023    0.9024    3.2704 C   0  0  0  0  0  0  0  0  0  0  0  0
    2.6927   -0.0527    3.7986 H   0  0  0  0  0  0  0  0  0  0  0  0
    3.5967    1.3529    3.1965 H   0  0  0  0  0  0  0  0  0  0  0  0
    1.9647    1.5709    3.8586 H   0  0  0  0  0  0  0  0  0  0  0  0
  1  2  1  0  0  0  0
  2  3  1  0  0  0  0
  2  4  1  0  0  0  0
  2  5  1  0  0  0  0
  5  6  2  0  0  0  0
  5  7  1  0  0  0  0
  7  8  1  0  0  0  0
  7  9  1  0  0  0  0
  9 10  1  0  0  0  0
  9 11  1  0  0  0  0
  9 16  1  0  0  0  0
 11 12  1  0  0  0  0
 11 13  1  0  0  0  0
 11 14  1  0  0  0  0
 14 15  1  0  0  0  0
 16 17  2  0  0  0  0
 16 18  1  0  0  0  0
 18 19  1  0  0  0  0
 18 20  1  0  0  0  0
 20 21  1  0  0  0  0
 20 22  1  0  0  0  0
 20 23  1  0  0  0  0
M  END
$$$$

  -OEChem-01062216073D

 23 22  0     1  0  0  0  0  0999 V2000
   -2.6376   -3.4889    1.2431 H   0  0  0  0  0  0  0  0  0  0  0  0
   -2.6710   -2.4383    0.9419 C   0  0  0  0  0  0  0  0  0  0  0  0
   -3.0967   -1.8519    1.7596 H   0  0  0  0  0  0  0  0  0  0  0  0
   -3.3084   -2.3437    0.0599 H   0  0  0  0  0  0  0  0  0  0  0  0
   -1.2729   -1.9424    0.6283 C   0  0  0  0  0  0  0  0  0  0  0  0
   -0.3237   -2.7098    0.6830 O   0  0  0  0  0  0  0  0  0  0  0  0
   -1.0821   -0.6407    0.2071 N   0  0  0  0  0  0  0  0  0  0  0  0
   -1.9027   -0.0459    0.2422 H   0  0  0  0  0  0  0  0  0  0  0  0
    0.2382    0.0114    0.2931 C   0  0  1  0  0  0  0  0  0  0  0  0
    0.9579   -0.5592   -0.3033 H   0  0  0  0  0  0  0  0  0  0  0  0
    0.0793    1.4137   -0.3218 C   0  0  0  0  0  0  0  0  0  0  0  0
   -0.7096    1.9620    0.2039 H   0  0  0  0  0  0  0  0  0  0  0  0
    1.0068    1.9837   -0.2162 H   0  0  0  0  0  0  0  0  0  0  0  0
   -0.3184    1.2991   -2.1152 S   0  0  0  0  0  0  0  0  0  0  0  0
   -0.4071    2.6037   -2.4549 H   0  0  0  0  0  0  0  0  0  0  0  0
    0.8124    0.1159    1.7357 C   0  0  0  0  0  0  0  0  0  0  0  0
    0.1763   -0.2887    2.7022 O   0  0  0  0  0  0  0  0  0  0  0  0
    1.8792    0.9603    2.0011 N   0  0  0  0  0  0  0  0  0  0  0  0
    2.4398    1.2581    1.2089 H   0  0  0  0  0  0  0  0  0  0  0  0
    2.4044    1.1812    3.3447 C   0  0  0  0  0  0  0  0  0  0  0  0
    2.7304    0.2348    3.7891 H   0  0  0  0  0  0  0  0  0  0  0  0
    3.2613    1.8608    3.3100 H   0  0  0  0  0  0  0  0  0  0  0  0
    1.6382    1.6267    3.9879 H   0  0  0  0  0  0  0  0  0  0  0  0
  1  2  1  0  0  0  0
  2  3  1  0  0  0  0
  2  4  1  0  0  0  0
  2  5  1  0  0  0  0
  5  6  2  0  0  0  0
  5  7  1  0  0  0  0
  7  8  1  0  0  0  0
  7  9  1  0  0  0  0
  9 10  1  0  0  0  0
  9 11  1  0  0  0  0
  9 16  1  0  0  0  0
 11 12  1  0  0  0  0
 11 13  1  0  0  0  0
 11 14  1  0  0  0  0
 14 15  1  0  0  0  0
 16 17  2  0  0  0  0
 16 18  1  0  0  0  0
 18 19  1  0  0  0  0
 18 20  1  0  0  0  0
 20 21  1  0  0  0  0
 20 22  1  0  0  0  0
 20 23  1  0  0  0  0
M  END
$$$$

  -OEChem-01062216073D

 23 22  0     1  0  0  0  0  0999 V2000
   -2.6342   -3.4852    1.2487 H   0  0  0  0  0  0  0  0  0  0  0  0
   -2.6664   -2.4306    0.9612 C   0  0  0  0  0  0  0  0  0  0  0  0
   -3.0668   -1.8512    1.7966 H   0  0  0  0  0  0  0  0  0  0  0  0
   -3.3247   -2.3199    0.0965 H   0  0  0  0  0  0  0  0  0  0  0  0
   -1.2717   -1.9429    0.6186 C   0  0  0  0  0  0  0  0  0  0  0  0
   -0.3346   -2.7261    0.6126 O   0  0  0  0  0  0  0  0  0  0  0  0
   -1.0805   -0.6375    0.2075 N   0  0  0  0  0  0  0  0  0  0  0  0
   -1.9029   -0.0465    0.2537 H   0  0  0  0  0  0  0  0  0  0  0  0
    0.2360    0.0246    0.2970 C   0  0  1  0  0  0  0  0  0  0  0  0
    0.9601   -0.5478   -0.2927 H   0  0  0  0  0  0  0  0  0  0  0  0
    0.0717    1.4153   -0.3460 C   0  0  0  0  0  0  0  0  0  0  0  0
   -0.7238    1.9697    0.1628 H   0  0  0  0  0  0  0  0  0  0  0  0
    0.9959    1.9917   -0.2502 H   0  0  0  0  0  0  0  0  0  0  0  0
   -0.3069    1.2650   -2.1408 S   0  0  0  0  0  0  0  0  0  0  0  0
   -0.4027    2.5617   -2.5078 H   0  0  0  0  0  0  0  0  0  0  0  0
    0.8169    0.1302    1.7412 C   0  0  0  0  0  0  0  0  0  0  0  0
    0.3480   -0.5152    2.6703 O   0  0  0  0  0  0  0  0  0  0  0  0
    1.6524    1.1804    2.0921 N   0  0  0  0  0  0  0  0  0  0  0  0
    2.0889    1.6979    1.3365 H   0  0  0  0  0  0  0  0  0  0  0  0
    2.1460    1.3899    3.4499 C   0  0  0  0  0  0  0  0  0  0  0  0
    2.7064    0.5138    3.7937 H   0  0  0  0  0  0  0  0  0  0  0  0
    2.8092    2.2596    3.4823 H   0  0  0  0  0  0  0  0  0  0  0  0
    1.3129    1.5670    4.1385 H   0  0  0  0  0  0  0  0  0  0  0  0
  1  2  1  0  0  0  0
  2  3  1  0  0  0  0
  2  4  1  0  0  0  0
  2  5  1  0  0  0  0
  5  6  2  0  0  0  0
  5  7  1  0  0  0  0
  7  8  1  0  0  0  0
  7  9  1  0  0  0  0
  9 10  1  0  0  0  0
  9 11  1  0  0  0  0
  9 16  1  0  0  0  0
 11 12  1  0  0  0  0
 11 13  1  0  0  0  0
 11 14  1  0  0  0  0
 14 15  1  0  0  0  0
 16 17  2  0  0  0  0
 16 18  1  0  0  0  0
 18 19  1  0  0  0  0
 18 20  1  0  0  0  0
 20 21  1  0  0  0  0
 20 22  1  0  0  0  0
 20 23  1  0  0  0  0
M  END
$$$$

  -OEChem-01062216073D

 23 22  0     1  0  0  0  0  0999 V2000
   -2.6377   -3.4756    1.2716 H   0  0  0  0  0  0  0  0  0  0  0  0
   -2.6679   -2.4231    0.9761 C   0  0  0  0  0  0  0  0  0  0  0  0
   -3.0603   -1.8364    1.8099 H   0  0  0  0  0  0  0  0  0  0  0  0
   -3.3315   -2.3159    0.1150 H   0  0  0  0  0  0  0  0  0  0  0  0
   -1.2739   -1.9440    0.6194 C   0  0  0  0  0  0  0  0  0  0  0  0
   -0.3506   -2.7409    0.5734 O   0  0  0  0  0  0  0  0  0  0  0  0
   -1.0805   -0.6370    0.2138 N   0  0  0  0  0  0  0  0  0  0  0  0
   -1.9068   -0.0507    0.2478 H   0  0  0  0  0  0  0  0  0  0  0  0
    0.2306    0.0369    0.3028 C   0  0  1  0  0  0  0  0  0  0  0  0
    0.9588   -0.5404   -0.2776 H   0  0  0  0  0  0  0  0  0  0  0  0
    0.0717    1.4157   -0.3655 C   0  0  0  0  0  0  0  0  0  0  0  0
   -0.7281    1.9807    0.1244 H   0  0  0  0  0  0  0  0  0  0  0  0
    0.9990    1.9879   -0.2721 H   0  0  0  0  0  0  0  0  0  0  0  0
   -0.2861    1.2348   -2.1613 S   0  0  0  0  0  0  0  0  0  0  0  0
   -0.3616    2.5250   -2.5553 H   0  0  0  0  0  0  0  0  0  0  0  0
    0.8135    0.1472    1.7473 C   0  0  0  0  0  0  0  0  0  0  0  0
    0.6062   -0.7067    2.5978 O   0  0  0  0  0  0  0  0  0  0  0  0
    1.3743    1.3319    2.2033 N   0  0  0  0  0  0  0  0  0  0  0  0
    1.5758    2.0510    1.5177 H   0  0  0  0  0  0  0  0  0  0  0  0
    1.8499    1.5219    3.5703 C   0  0  0  0  0  0  0  0  0  0  0  0
    2.6364    0.7974    3.8069 H   0  0  0  0  0  0  0  0  0  0  0  0
    2.2589    2.5293    3.6923 H   0  0  0  0  0  0  0  0  0  0  0  0
    1.0285    1.3952    4.2836 H   0  0  0  0  0  0  0  0  0  0  0  0
  1  2  1  0  0  0  0
  2  3  1  0  0  0  0
  2  4  1  0  0  0  0
  2  5  1  0  0  0  0
  5  6  2  0  0  0  0
  5  7  1  0  0  0  0
  7  8  1  0  0  0  0
  7  9  1  0  0  0  0
  9 10  1  0  0  0  0
  9 11  1  0  0  0  0
  9 16  1  0  0  0  0
 11 12  1  0  0  0  0
 11 13  1  0  0  0  0
 11 14  1  0  0  0  0
 14 15  1  0  0  0  0
 16 17  2  0  0  0  0
 16 18  1  0  0  0  0
 18 19  1  0  0  0  0
 18 20  1  0  0  0  0
 20 21  1  0  0  0  0
 20 22  1  0  0  0  0
 20 23  1  0  0  0  0
M  END
$$$$

  -OEChem-01062216073D

 23 22  0     1  0  0  0  0  0999 V2000
   -2.6997   -3.4724    1.2573 H   0  0  0  0  0  0  0  0  0  0  0  0
   -2.7126   -2.4329    0.9174 C   0  0  0  0  0  0  0  0  0  0  0  0
   -3.1847   -1.8185    1.6875 H   0  0  0  0  0  0  0  0  0  0  0  0
   -3.2971   -2.3696   -0.0034 H   0  0  0  0  0  0  0  0  0  0  0  0
   -1.2965   -1.9508    0.6660 C   0  0  0  0  0  0  0  0  0  0  0  0
   -0.3763   -2.7491    0.6931 O   0  0  0  0  0  0  0  0  0  0  0  0
   -1.0844   -0.6477    0.2586 N   0  0  0  0  0  0  0  0  0  0  0  0
   -1.9165   -0.0735    0.1808 H   0  0  0  0  0  0  0  0  0  0  0  0
    0.2182    0.0433    0.3386 C   0  0  1  0  0  0  0  0  0  0  0  0
    0.9506   -0.5388   -0.2320 H   0  0  0  0  0  0  0  0  0  0  0  0
    0.0635    1.4112   -0.3498 C   0  0  0  0  0  0  0  0  0  0  0  0
   -0.7413    1.9845    0.1219 H   0  0  0  0  0  0  0  0  0  0  0  0
    0.9936    1.9802   -0.2515 H   0  0  0  0  0  0  0  0  0  0  0  0
   -0.2808    1.2023   -2.1450 S   0  0  0  0  0  0  0  0  0  0  0  0
   -0.3023    2.4846   -2.5705 H   0  0  0  0  0  0  0  0  0  0  0  0
    0.8028    0.1723    1.7778 C   0  0  0  0  0  0  0  0  0  0  0  0
    0.9918   -0.7978    2.4947 O   0  0  0  0  0  0  0  0  0  0  0  0
    1.0621    1.4153    2.3377 N   0  0  0  0  0  0  0  0  0  0  0  0
    0.9132    2.2354    1.7607 H   0  0  0  0  0  0  0  0  0  0  0  0
    1.5904    1.5952    3.6865 C   0  0  0  0  0  0  0  0  0  0  0  0
    2.5809    1.1361    3.7746 H   0  0  0  0  0  0  0  0  0  0  0  0
    1.6810    2.6606    3.9188 H   0  0  0  0  0  0  0  0  0  0  0  0
    0.9238    1.1372    4.4251 H   0  0  0  0  0  0  0  0  0  0  0  0
  1  2  1  0  0  0  0
  2  3  1  0  0  0  0
  2  4  1  0  0  0  0
  2  5  1  0  0  0  0
  5  6  2  0  0  0  0
  5  7  1  0  0  0  0
  7  8  1  0  0  0  0
  7  9  1  0  0  0  0
  9 10  1  0  0  0  0
  9 11  1  0  0  0  0
  9 16  1  0  0  0  0
 11 12  1  0  0  0  0
 11 13  1  0  0  0  0
 11 14  1  0  0  0  0
 14 15  1  0  0  0  0
 16 17  2  0  0  0  0
 16 18  1  0  0  0  0
 18 19  1  0  0  0  0
 18 20  1  0  0  0  0
 20 21  1  0  0  0  0
 20 22  1  0  0  0  0
 20 23  1  0  0  0  0
M  END
$$$$

  -OEChem-01062216073D

 23 22  0     1  0  0  0  0  0999 V2000
   -2.8402   -3.5379    0.9741 H   0  0  0  0  0  0  0  0  0  0  0  0
   -2.8061   -2.4995    0.6318 C   0  0  0  0  0  0  0  0  0  0  0  0
   -3.5517   -1.9225    1.1838 H   0  0  0  0  0  0  0  0  0  0  0  0
   -3.0475   -2.4734   -0.4334 H   0  0  0  0  0  0  0  0  0  0  0  0
   -1.4242   -1.9184    0.8660 C   0  0  0  0  0  0  0  0  0  0  0  0
   -0.5743   -2.6058    1.3969 O   0  0  0  0  0  0  0  0  0  0  0  0
   -1.1528   -0.6366    0.4283 N   0  0  0  0  0  0  0  0  0  0  0  0
   -1.8585   -0.2268   -0.1768 H   0  0  0  0  0  0  0  0  0  0  0  0
    0.1638    0.0305    0.4608 C   0  0  1  0  0  0  0  0  0  0  0  0
    0.8698   -0.5745   -0.1194 H   0  0  0  0  0  0  0  0  0  0  0  0
    0.0037    1.3867   -0.2437 C   0  0  0  0  0  0  0  0  0  0  0  0
   -0.7820    1.9775    0.2377 H   0  0  0  0  0  0  0  0  0  0  0  0
    0.9430    1.9465   -0.1746 H   0  0  0  0  0  0  0  0  0  0  0  0
   -0.4002    1.1396   -2.0219 S   0  0  0  0  0  0  0  0  0  0  0  0
   -0.3607    2.4086   -2.4855 H   0  0  0  0  0  0  0  0  0  0  0  0
    0.7995    0.1926    1.8703 C   0  0  0  0  0  0  0  0  0  0  0  0
    1.5386   -0.6666    2.3261 O   0  0  0  0  0  0  0  0  0  0  0  0
    0.8113    1.4245    2.5090 N   0  0  0  0  0  0  0  0  0  0  0  0
    0.1832    2.1383    2.1572 H   0  0  0  0  0  0  0  0  0  0  0  0
    1.4964    1.6593    3.7761 C   0  0  0  0  0  0  0  0  0  0  0  0
    2.5737    1.4972    3.6650 H   0  0  0  0  0  0  0  0  0  0  0  0
    1.3357    2.6890    4.1091 H   0  0  0  0  0  0  0  0  0  0  0  0
    1.1167    0.9823    4.5487 H   0  0  0  0  0  0  0  0  0  0  0  0
  1  2  1  0  0  0  0
  2  3  1  0  0  0  0
  2  4  1  0  0  0  0
  2  5  1  0  0  0  0
  5  6  2  0  0  0  0
  5  7  1  0  0  0  0
  7  8  1  0  0  0  0
  7  9  1  0  0  0  0
  9 10  1  0  0  0  0
  9 11  1  0  0  0  0
  9 16  1  0  0  0  0
 11 12  1  0  0  0  0
 11 13  1  0  0  0  0
 11 14  1  0  0  0  0
 14 15  1  0  0  0  0
 16 17  2  0  0  0  0
 16 18  1  0  0  0  0
 18 19  1  0  0  0  0
 18 20  1  0  0  0  0
 20 21  1  0  0  0  0
 20 22  1  0  0  0  0
 20 23  1  0  0  0  0
M  END
$$$$

  -OEChem-01062216073D

 23 22  0     1  0  0  0  0  0999 V2000
   -2.8473   -3.5299    1.0221 H   0  0  0  0  0  0  0  0  0  0  0  0
   -2.7963   -2.5265    0.5897 C   0  0  0  0  0  0  0  0  0  0  0  0
   -3.6013   -1.9203    1.0117 H   0  0  0  0  0  0  0  0  0  0  0  0
   -2.9327   -2.6027   -0.4917 H   0  0  0  0  0  0  0  0  0  0  0  0
   -1.4531   -1.8931    0.8996 C   0  0  0  0  0  0  0  0  0  0  0  0
   -0.6300   -2.5194    1.5390 O   0  0  0  0  0  0  0  0  0  0  0  0
   -1.1896   -0.6153    0.4471 N   0  0  0  0  0  0  0  0  0  0  0  0
   -1.8582   -0.2526   -0.2271 H   0  0  0  0  0  0  0  0  0  0  0  0
    0.1387    0.0263    0.4602 C   0  0  1  0  0  0  0  0  0  0  0  0
    0.8253   -0.5903   -0.1314 H   0  0  0  0  0  0  0  0  0  0  0  0
    0.0076    1.3928   -0.2269 C   0  0  0  0  0  0  0  0  0  0  0  0
   -0.7546    2.0013    0.2700 H   0  0  0  0  0  0  0  0  0  0  0  0
    0.9635    1.9246   -0.1595 H   0  0  0  0  0  0  0  0  0  0  0  0
   -0.4278    1.1712   -2.0012 S   0  0  0  0  0  0  0  0  0  0  0  0
   -0.3443    2.4415   -2.4551 H   0  0  0  0  0  0  0  0  0  0  0  0
    0.7848    0.1739    1.8620 C   0  0  0  0  0  0  0  0  0  0  0  0
    1.7387   -0.5259    2.1712 O   0  0  0  0  0  0  0  0  0  0  0  0
    0.5548    1.3077    2.6261 N   0  0  0  0  0  0  0  0  0  0  0  0
   -0.2774    1.8442    2.4067 H   0  0  0  0  0  0  0  0  0  0  0  0
    1.2232    1.5508    3.8998 C   0  0  0  0  0  0  0  0  0  0  0  0
    2.3062    1.6284    3.7558 H   0  0  0  0  0  0  0  0  0  0  0  0
    0.8675    2.4861    4.3422 H   0  0  0  0  0  0  0  0  0  0  0  0
    1.0193    0.7350    4.6016 H   0  0  0  0  0  0  0  0  0  0  0  0
  1  2  1  0  0  0  0
  2  3  1  0  0  0  0
  2  4  1  0  0  0  0
  2  5  1  0  0  0  0
  5  6  2  0  0  0  0
  5  7  1  0  0  0  0
  7  8  1  0  0  0  0
  7  9  1  0  0  0  0
  9 10  1  0  0  0  0
  9 11  1  0  0  0  0
  9 16  1  0  0  0  0
 11 12  1  0  0  0  0
 11 13  1  0  0  0  0
 11 14  1  0  0  0  0
 14 15  1  0  0  0  0
 16 17  2  0  0  0  0
 16 18  1  0  0  0  0
 18 19  1  0  0  0  0
 18 20  1  0  0  0  0
 20 21  1  0  0  0  0
 20 22  1  0  0  0  0
 20 23  1  0  0  0  0
M  END
$$$$

  -OEChem-01062216073D

 23 22  0     1  0  0  0  0  0999 V2000
   -2.8292   -3.5456    1.0076 H   0  0  0  0  0  0  0  0  0  0  0  0
   -2.7918   -2.5392    0.5810 C   0  0  0  0  0  0  0  0  0  0  0  0
   -3.6108   -1.9495    0.9991 H   0  0  0  0  0  0  0  0  0  0  0  0
   -2.9174   -2.6122   -0.5019 H   0  0  0  0  0  0  0  0  0  0  0  0
   -1.4626   -1.8842    0.9059 C   0  0  0  0  0  0  0  0  0  0  0  0
   -0.6437   -2.4846    1.5763 O   0  0  0  0  0  0  0  0  0  0  0  0
   -1.2035   -0.6085    0.4449 N   0  0  0  0  0  0  0  0  0  0  0  0
   -1.8606   -0.2600   -0.2485 H   0  0  0  0  0  0  0  0  0  0  0  0
    0.1324    0.0163    0.4477 C   0  0  1  0  0  0  0  0  0  0  0  0
    0.8075   -0.6047   -0.1520 H   0  0  0  0  0  0  0  0  0  0  0  0
    0.0202    1.3937   -0.2175 C   0  0  0  0  0  0  0  0  0  0  0  0
   -0.7228    2.0108    0.2972 H   0  0  0  0  0  0  0  0  0  0  0  0
    0.9869    1.9056   -0.1523 H   0  0  0  0  0  0  0  0  0  0  0  0
   -0.4384    1.2034   -1.9897 S   0  0  0  0  0  0  0  0  0  0  0  0
   -0.3259    2.4773   -2.4277 H   0  0  0  0  0  0  0  0  0  0  0  0
    0.7822    0.1543    1.8452 C   0  0  0  0  0  0  0  0  0  0  0  0
    1.8770   -0.3486    2.0576 O   0  0  0  0  0  0  0  0  0  0  0  0
    0.3306    1.1238    2.7255 N   0  0  0  0  0  0  0  0  0  0  0  0
   -0.6171    1.4555    2.5793 H   0  0  0  0  0  0  0  0  0  0  0  0
    0.9582    1.3624    4.0201 C   0  0  0  0  0  0  0  0  0  0  0  0
    2.0009    1.6712    3.8900 H   0  0  0  0  0  0  0  0  0  0  0  0
    0.4296    2.1558    4.5570 H   0  0  0  0  0  0  0  0  0  0  0  0
    0.9343    0.4533    4.6306 H   0  0  0  0  0  0  0  0  0  0  0  0
  1  2  1  0  0  0  0
  2  3  1  0  0  0  0
  2  4  1  0  0  0  0
  2  5  1  0  0  0  0
  5  6  2  0  0  0  0
  5  7  1  0  0  0  0
  7  8  1  0  0  0  0
  7  9  1  0  0  0  0
  9 10  1  0  0  0  0
  9 11  1  0  0  0  0
  9 16  1  0  0  0  0
 11 12  1  0  0  0  0
 11 13  1  0  0  0  0
 11 14  1  0  0  0  0
 14 15  1  0  0  0  0
 16 17  2  0  0  0  0
 16 18  1  0  0  0  0
 18 19  1  0  0  0  0
 18 20  1  0  0  0  0
 20 21  1  0  0  0  0
 20 22  1  0  0  0  0
 20 23  1  0  0  0  0
M  END
$$$$

  -OEChem-01062216073D

 23 22  0     1  0  0  0  0  0999 V2000
   -2.8286   -3.5479    1.0047 H   0  0  0  0  0  0  0  0  0  0  0  0
   -2.7941   -2.5420    0.5766 C   0  0  0  0  0  0  0  0  0  0  0  0
   -3.6157   -1.9541    0.9924 H   0  0  0  0  0  0  0  0  0  0  0  0
   -2.9186   -2.6171   -0.5063 H   0  0  0  0  0  0  0  0  0  0  0  0
   -1.4671   -1.8831    0.9021 C   0  0  0  0  0  0  0  0  0  0  0  0
   -0.6509   -2.4735    1.5857 O   0  0  0  0  0  0  0  0  0  0  0  0
   -1.2058   -0.6100    0.4362 N   0  0  0  0  0  0  0  0  0  0  0  0
   -1.8571   -0.2640   -0.2645 H   0  0  0  0  0  0  0  0  0  0  0  0
    0.1359    0.0026    0.4343 C   0  0  1  0  0  0  0  0  0  0  0  0
    0.8054   -0.6176   -0.1725 H   0  0  0  0  0  0  0  0  0  0  0  0
    0.0313    1.3902   -0.2071 C   0  0  0  0  0  0  0  0  0  0  0  0
   -0.6988    2.0058    0.3277 H   0  0  0  0  0  0  0  0  0  0  0  0
    1.0039    1.8910   -0.1426 H   0  0  0  0  0  0  0  0  0  0  0  0
   -0.4474    1.2336   -1.9772 S   0  0  0  0  0  0  0  0  0  0  0  0
   -0.3221    2.5130   -2.3949 H   0  0  0  0  0  0  0  0  0  0  0  0
    0.7885    0.1364    1.8280 C   0  0  0  0  0  0  0  0  0  0  0  0
    1.9743   -0.1313    1.9686 O   0  0  0  0  0  0  0  0  0  0  0  0
    0.1583    0.8828    2.8085 N   0  0  0  0  0  0  0  0  0  0  0  0
   -0.8458    0.9894    2.7044 H   0  0  0  0  0  0  0  0  0  0  0  0
    0.7479    1.1054    4.1231 C   0  0  0  0  0  0  0  0  0  0  0  0
    1.7028    1.6338    4.0312 H   0  0  0  0  0  0  0  0  0  0  0  0
    0.0780    1.7117    4.7401 H   0  0  0  0  0  0  0  0  0  0  0  0
    0.9212    0.1509    4.6315 H   0  0  0  0  0  0  0  0  0  0  0  0
  1  2  1  0  0  0  0
  2  3  1  0  0  0  0
  2  4  1  0  0  0  0
  2  5  1  0  0  0  0
  5  6  2  0  0  0  0
  5  7  1  0  0  0  0
  7  8  1  0  0  0  0
  7  9  1  0  0  0  0
  9 10  1  0  0  0  0
  9 11  1  0  0  0  0
  9 16  1  0  0  0  0
 11 12  1  0  0  0  0
 11 13  1  0  0  0  0
 11 14  1  0  0  0  0
 14 15  1  0  0  0  0
 16 17  2  0  0  0  0
 16 18  1  0  0  0  0
 18 19  1  0  0  0  0
 18 20  1  0  0  0  0
 20 21  1  0  0  0  0
 20 22  1  0  0  0  0
 20 23  1  0  0  0  0
M  END
$$$$

  -OEChem-01062216073D

 23 22  0     1  0  0  0  0  0999 V2000
   -2.8360   -3.5488    0.9903 H   0  0  0  0  0  0  0  0  0  0  0  0
   -2.7987   -2.5431    0.5619 C   0  0  0  0  0  0  0  0  0  0  0  0
   -3.6246   -1.9556    0.9700 H   0  0  0  0  0  0  0  0  0  0  0  0
   -2.9140   -2.6195   -0.5219 H   0  0  0  0  0  0  0  0  0  0  0  0
   -1.4756   -1.8816    0.8977 C   0  0  0  0  0  0  0  0  0  0  0  0
   -0.6668   -2.4641    1.5973 O   0  0  0  0  0  0  0  0  0  0  0  0
   -1.2081   -0.6113    0.4280 N   0  0  0  0  0  0  0  0  0  0  0  0
   -1.8543   -0.2656   -0.2777 H   0  0  0  0  0  0  0  0  0  0  0  0
    0.1380   -0.0061    0.4264 C   0  0  1  0  0  0  0  0  0  0  0  0
    0.8052   -0.6249   -0.1837 H   0  0  0  0  0  0  0  0  0  0  0  0
    0.0333    1.3866   -0.2028 C   0  0  0  0  0  0  0  0  0  0  0  0
   -0.6918    1.9981    0.3440 H   0  0  0  0  0  0  0  0  0  0  0  0
    1.0073    1.8855   -0.1401 H   0  0  0  0  0  0  0  0  0  0  0  0
   -0.4550    1.2477   -1.9719 S   0  0  0  0  0  0  0  0  0  0  0  0
   -0.3278    2.5321   -2.3737 H   0  0  0  0  0  0  0  0  0  0  0  0
    0.7954    0.1318    1.8167 C   0  0  0  0  0  0  0  0  0  0  0  0
    2.0152    0.1005    1.9117 O   0  0  0  0  0  0  0  0  0  0  0  0
    0.0532    0.6104    2.8812 N   0  0  0  0  0  0  0  0  0  0  0  0
   -0.9517    0.4927    2.7969 H   0  0  0  0  0  0  0  0  0  0  0  0
    0.6221    0.7946    4.2105 C   0  0  0  0  0  0  0  0  0  0  0  0
    1.4518    1.5086    4.1778 H   0  0  0  0  0  0  0  0  0  0  0  0
   -0.1372    1.1820    4.8963 H   0  0  0  0  0  0  0  0  0  0  0  0
    0.9929   -0.1581    4.6032 H   0  0  0  0  0  0  0  0  0  0  0  0
  1  2  1  0  0  0  0
  2  3  1  0  0  0  0
  2  4  1  0  0  0  0
  2  5  1  0  0  0  0
  5  6  2  0  0  0  0
  5  7  1  0  0  0  0
  7  8  1  0  0  0  0
  7  9  1  0  0  0  0
  9 10  1  0  0  0  0
  9 11  1  0  0  0  0
  9 16  1  0  0  0  0
 11 12  1  0  0  0  0
 11 13  1  0  0  0  0
 11 14  1  0  0  0  0
 14 15  1  0  0  0  0
 16 17  2  0  0  0  0
 16 18  1  0  0  0  0
 18 19  1  0  0  0  0
 18 20  1  0  0  0  0
 20 21  1  0  0  0  0
 20 22  1  0  0  0  0
 20 23  1  0  0  0  0
M  END
$$$$

  -OEChem-01062216073D

 23 22  0     1  0  0  0  0  0999 V2000
   -2.8638   -3.5343    0.9758 H   0  0  0  0  0  0  0  0  0  0  0  0
   -2.8109   -2.5344    0.5357 C   0  0  0  0  0  0  0  0  0  0  0  0
   -3.6380   -1.9348    0.9234 H   0  0  0  0  0  0  0  0  0  0  0  0
   -2.9101   -2.6226   -0.5489 H   0  0  0  0  0  0  0  0  0  0  0  0
   -1.4868   -1.8812    0.8830 C   0  0  0  0  0  0  0  0  0  0  0  0
   -0.6907   -2.4626    1.5984 O   0  0  0  0  0  0  0  0  0  0  0  0
   -1.2064   -0.6127    0.4172 N   0  0  0  0  0  0  0  0  0  0  0  0
   -1.8481   -0.2569   -0.2878 H   0  0  0  0  0  0  0  0  0  0  0  0
    0.1412   -0.0086    0.4274 C   0  0  1  0  0  0  0  0  0  0  0  0
    0.8129   -0.6242   -0.1810 H   0  0  0  0  0  0  0  0  0  0  0  0
    0.0253    1.3835   -0.2018 C   0  0  0  0  0  0  0  0  0  0  0  0
   -0.7067    1.9875    0.3444 H   0  0  0  0  0  0  0  0  0  0  0  0
    0.9936    1.8930   -0.1375 H   0  0  0  0  0  0  0  0  0  0  0  0
   -0.4567    1.2386   -1.9726 S   0  0  0  0  0  0  0  0  0  0  0  0
   -0.3414    2.5239   -2.3752 H   0  0  0  0  0  0  0  0  0  0  0  0
    0.8010    0.1367    1.8175 C   0  0  0  0  0  0  0  0  0  0  0  0
    2.0060    0.3414    1.8907 O   0  0  0  0  0  0  0  0  0  0  0  0
    0.0195    0.3183    2.9434 N   0  0  0  0  0  0  0  0  0  0  0  0
   -0.9296   -0.0338    2.8609 H   0  0  0  0  0  0  0  0  0  0  0  0
    0.5914    0.4508    4.2773 C   0  0  0  0  0  0  0  0  0  0  0  0
    1.2620    1.3154    4.3246 H   0  0  0  0  0  0  0  0  0  0  0  0
   -0.2033    0.5925    5.0159 H   0  0  0  0  0  0  0  0  0  0  0  0
    1.1571   -0.4488    4.5420 H   0  0  0  0  0  0  0  0  0  0  0  0
  1  2  1  0  0  0  0
  2  3  1  0  0  0  0
  2  4  1  0  0  0  0
  2  5  1  0  0  0  0
  5  6  2  0  0  0  0
  5  7  1  0  0  0  0
  7  8  1  0  0  0  0
  7  9  1  0  0  0  0
  9 10  1  0  0  0  0
  9 11  1  0  0  0  0
  9 16  1  0  0  0  0
 11 12  1  0  0  0  0
 11 13  1  0  0  0  0
 11 14  1  0  0  0  0
 14 15  1  0  0  0  0
 16 17  2  0  0  0  0
 16 18  1  0  0  0  0
 18 19  1  0  0  0  0
 18 20  1  0  0  0  0
 20 21  1  0  0  0  0
 20 22  1  0  0  0  0
 20 23  1  0  0  0  0
M  END
$$$$

  -OEChem-01062216073D

 23 22  0     1  0  0  0  0  0999 V2000
   -2.9112   -3.5221    0.9202 H   0  0  0  0  0  0  0  0  0  0  0  0
   -2.8361   -2.5220    0.4843 C   0  0  0  0  0  0  0  0  0  0  0  0
   -3.6636   -1.9127    0.8555 H   0  0  0  0  0  0  0  0  0  0  0  0
   -2.9133   -2.6067   -0.6024 H   0  0  0  0  0  0  0  0  0  0  0  0
   -1.5122   -1.8855    0.8617 C   0  0  0  0  0  0  0  0  0  0  0  0
   -0.7388   -2.4768    1.5941 O   0  0  0  0  0  0  0  0  0  0  0  0
   -1.2103   -0.6170    0.4114 N   0  0  0  0  0  0  0  0  0  0  0  0
   -1.8474   -0.2422   -0.2880 H   0  0  0  0  0  0  0  0  0  0  0  0
    0.1377   -0.0116    0.4412 C   0  0  1  0  0  0  0  0  0  0  0  0
    0.8144   -0.6231   -0.1653 H   0  0  0  0  0  0  0  0  0  0  0  0
    0.0094    1.3785   -0.1949 C   0  0  0  0  0  0  0  0  0  0  0  0
   -0.7348    1.9744    0.3438 H   0  0  0  0  0  0  0  0  0  0  0  0
    0.9686    1.9044   -0.1279 H   0  0  0  0  0  0  0  0  0  0  0  0
   -0.4543    1.2209   -1.9698 S   0  0  0  0  0  0  0  0  0  0  0  0
   -0.3488    2.5058   -2.3758 H   0  0  0  0  0  0  0  0  0  0  0  0
    0.8025    0.1368    1.8324 C   0  0  0  0  0  0  0  0  0  0  0  0
    1.9469    0.5681    1.9036 O   0  0  0  0  0  0  0  0  0  0  0  0
    0.0629    0.0116    2.9935 N   0  0  0  0  0  0  0  0  0  0  0  0
   -0.7566   -0.5835    2.8934 H   0  0  0  0  0  0  0  0  0  0  0  0
    0.6666    0.1163    4.3159 C   0  0  0  0  0  0  0  0  0  0  0  0
    1.1354    1.0972    4.4485 H   0  0  0  0  0  0  0  0  0  0  0  0
   -0.0975   -0.0061    5.0895 H   0  0  0  0  0  0  0  0  0  0  0  0
    1.4275   -0.6594    4.4520 H   0  0  0  0  0  0  0  0  0  0  0  0
  1  2  1  0  0  0  0
  2  3  1  0  0  0  0
  2  4  1  0  0  0  0
  2  5  1  0  0  0  0
  5  6  2  0  0  0  0
  5  7  1  0  0  0  0
  7  8  1  0  0  0  0
  7  9  1  0  0  0  0
  9 10  1  0  0  0  0
  9 11  1  0  0  0  0
  9 16  1  0  0  0  0
 11 12  1  0  0  0  0
 11 13  1  0  0  0  0
 11 14  1  0  0  0  0
 14 15  1  0  0  0  0
 16 17  2  0  0  0  0
 16 18  1  0  0  0  0
 18 19  1  0  0  0  0
 18 20  1  0  0  0  0
 20 21  1  0  0  0  0
 20 22  1  0  0  0  0
 20 23  1  0  0  0  0
M  END
$$$$

  -OEChem-01062216073D

 23 22  0     1  0  0  0  0  0999 V2000
   -2.9424   -3.5169    0.8622 H   0  0  0  0  0  0  0  0  0  0  0  0
   -2.8645   -2.4994    0.4686 C   0  0  0  0  0  0  0  0  0  0  0  0
   -3.6659   -1.8929    0.8975 H   0  0  0  0  0  0  0  0  0  0  0  0
   -2.9829   -2.5335   -0.6172 H   0  0  0  0  0  0  0  0  0  0  0  0
   -1.5161   -1.9030    0.8244 C   0  0  0  0  0  0  0  0  0  0  0  0
   -0.7337   -2.5383    1.5099 O   0  0  0  0  0  0  0  0  0  0  0  0
   -1.1974   -0.6305    0.3968 N   0  0  0  0  0  0  0  0  0  0  0  0
   -1.8482   -0.2207   -0.2693 H   0  0  0  0  0  0  0  0  0  0  0  0
    0.1458   -0.0130    0.4490 C   0  0  1  0  0  0  0  0  0  0  0  0
    0.8332   -0.6150   -0.1544 H   0  0  0  0  0  0  0  0  0  0  0  0
   -0.0007    1.3746   -0.1939 C   0  0  0  0  0  0  0  0  0  0  0  0
   -0.7598    1.9596    0.3358 H   0  0  0  0  0  0  0  0  0  0  0  0
    0.9476    1.9190   -0.1223 H   0  0  0  0  0  0  0  0  0  0  0  0
   -0.4395    1.2067   -1.9745 S   0  0  0  0  0  0  0  0  0  0  0  0
   -0.3621    2.4944   -2.3785 H   0  0  0  0  0  0  0  0  0  0  0  0
    0.8065    0.1353    1.8471 C   0  0  0  0  0  0  0  0  0  0  0  0
    1.8482    0.7719    1.9540 O   0  0  0  0  0  0  0  0  0  0  0  0
    0.1755   -0.2901    3.0007 N   0  0  0  0  0  0  0  0  0  0  0  0
   -0.4964   -1.0414    2.8427 H   0  0  0  0  0  0  0  0  0  0  0  0
    0.8035   -0.2111    4.3135 C   0  0  0  0  0  0  0  0  0  0  0  0
    1.0564    0.8259    4.5578 H   0  0  0  0  0  0  0  0  0  0  0  0
    0.1198   -0.5873    5.0805 H   0  0  0  0  0  0  0  0  0  0  0  0
    1.7184   -0.8123    4.3375 H   0  0  0  0  0  0  0  0  0  0  0  0
  1  2  1  0  0  0  0
  2  3  1  0  0  0  0
  2  4  1  0  0  0  0
  2  5  1  0  0  0  0
  5  6  2  0  0  0  0
  5  7  1  0  0  0  0
  7  8  1  0  0  0  0
  7  9  1  0  0  0  0
  9 10  1  0  0  0  0
  9 11  1  0  0  0  0
  9 16  1  0  0  0  0
 11 12  1  0  0  0  0
 11 13  1  0  0  0  0
 11 14  1  0  0  0  0
 14 15  1  0  0  0  0
 16 17  2  0  0  0  0
 16 18  1  0  0  0  0
 18 19  1  0  0  0  0
 18 20  1  0  0  0  0
 20 21  1  0  0  0  0
 20 22  1  0  0  0  0
 20 23  1  0  0  0  0
M  END
$$$$

  -OEChem-01062216073D

 23 22  0     1  0  0  0  0  0999 V2000
   -2.9788   -3.4991    0.8484 H   0  0  0  0  0  0  0  0  0  0  0  0
   -2.8873   -2.4767    0.4710 C   0  0  0  0  0  0  0  0  0  0  0  0
   -3.6576   -1.8586    0.9385 H   0  0  0  0  0  0  0  0  0  0  0  0
   -3.0437   -2.4866   -0.6104 H   0  0  0  0  0  0  0  0  0  0  0  0
   -1.5118   -1.9227    0.7904 C   0  0  0  0  0  0  0  0  0  0  0  0
   -0.7063   -2.6140    1.3907 O   0  0  0  0  0  0  0  0  0  0  0  0
   -1.1830   -0.6446    0.3865 N   0  0  0  0  0  0  0  0  0  0  0  0
   -1.8574   -0.1943   -0.2275 H   0  0  0  0  0  0  0  0  0  0  0  0
    0.1531   -0.0125    0.4561 C   0  0  1  0  0  0  0  0  0  0  0  0
    0.8503   -0.6054   -0.1450 H   0  0  0  0  0  0  0  0  0  0  0  0
   -0.0091    1.3725   -0.1941 C   0  0  0  0  0  0  0  0  0  0  0  0
   -0.7815    1.9479    0.3269 H   0  0  0  0  0  0  0  0  0  0  0  0
    0.9290    1.9334   -0.1188 H   0  0  0  0  0  0  0  0  0  0  0  0
   -0.4254    1.1936   -1.9789 S   0  0  0  0  0  0  0  0  0  0  0  0
   -0.3582    2.4811   -2.3852 H   0  0  0  0  0  0  0  0  0  0  0  0
    0.8093    0.1319    1.8605 C   0  0  0  0  0  0  0  0  0  0  0  0
    1.7141    0.9421    2.0256 O   0  0  0  0  0  0  0  0  0  0  0  0
    0.3534   -0.5583    2.9672 N   0  0  0  0  0  0  0  0  0  0  0  0
   -0.2054   -1.3848    2.7467 H   0  0  0  0  0  0  0  0  0  0  0  0
    1.0129   -0.5047    4.2659 C   0  0  0  0  0  0  0  0  0  0  0  0
    1.0476    0.5250    4.6370 H   0  0  0  0  0  0  0  0  0  0  0  0
    0.4648   -1.1130    4.9918 H   0  0  0  0  0  0  0  0  0  0  0  0
    2.0360   -0.8881    4.1928 H   0  0  0  0  0  0  0  0  0  0  0  0
  1  2  1  0  0  0  0
  2  3  1  0  0  0  0
  2  4  1  0  0  0  0
  2  5  1  0  0  0  0
  5  6  2  0  0  0  0
  5  7  1  0  0  0  0
  7  8  1  0  0  0  0
  7  9  1  0  0  0  0
  9 10  1  0  0  0  0
  9 11  1  0  0  0  0
  9 16  1  0  0  0  0
 11 12  1  0  0  0  0
 11 13  1  0  0  0  0
 11 14  1  0  0  0  0
 14 15  1  0  0  0  0
 16 17  2  0  0  0  0
 16 18  1  0  0  0  0
 18 19  1  0  0  0  0
 18 20  1  0  0  0  0
 20 21  1  0  0  0  0
 20 22  1  0  0  0  0
 20 23  1  0  0  0  0
M  END
$$$$

  -OEChem-01062216073D

 23 22  0     1  0  0  0  0  0999 V2000
   -2.9711   -3.4978    0.8398 H   0  0  0  0  0  0  0  0  0  0  0  0
   -2.8926   -2.4518    0.5297 C   0  0  0  0  0  0  0  0  0  0  0  0
   -3.6003   -1.8577    1.1130 H   0  0  0  0  0  0  0  0  0  0  0  0
   -3.1515   -2.3792   -0.5295 H   0  0  0  0  0  0  0  0  0  0  0  0
   -1.4816   -1.9432    0.7546 C   0  0  0  0  0  0  0  0  0  0  0  0
   -0.6436   -2.6822    1.2447 O   0  0  0  0  0  0  0  0  0  0  0  0
   -1.1556   -0.6589    0.3686 N   0  0  0  0  0  0  0  0  0  0  0  0
   -1.8671   -0.1666   -0.1655 H   0  0  0  0  0  0  0  0  0  0  0  0
    0.1729   -0.0119    0.4437 C   0  0  1  0  0  0  0  0  0  0  0  0
    0.8770   -0.5958   -0.1580 H   0  0  0  0  0  0  0  0  0  0  0  0
    0.0023    1.3720   -0.2088 C   0  0  0  0  0  0  0  0  0  0  0  0
   -0.7766    1.9416    0.3084 H   0  0  0  0  0  0  0  0  0  0  0  0
    0.9356    1.9401   -0.1301 H   0  0  0  0  0  0  0  0  0  0  0  0
   -0.4023    1.1921   -1.9959 S   0  0  0  0  0  0  0  0  0  0  0  0
   -0.3516    2.4817   -2.3979 H   0  0  0  0  0  0  0  0  0  0  0  0
    0.8202    0.1200    1.8558 C   0  0  0  0  0  0  0  0  0  0  0  0
    1.5356    1.0808    2.1165 O   0  0  0  0  0  0  0  0  0  0  0  0
    0.5829   -0.7872    2.8699 N   0  0  0  0  0  0  0  0  0  0  0  0
    0.1316   -1.6580    2.5808 H   0  0  0  0  0  0  0  0  0  0  0  0
    1.2394   -0.7412    4.1701 C   0  0  0  0  0  0  0  0  0  0  0  0
    1.0234    0.2055    4.6764 H   0  0  0  0  0  0  0  0  0  0  0  0
    0.8792   -1.5588    4.8019 H   0  0  0  0  0  0  0  0  0  0  0  0
    2.3238   -0.8414    4.0559 H   0  0  0  0  0  0  0  0  0  0  0  0
  1  2  1  0  0  0  0
  2  3  1  0  0  0  0
  2  4  1  0  0  0  0
  2  5  1  0  0  0  0
  5  6  2  0  0  0  0
  5  7  1  0  0  0  0
  7  8  1  0  0  0  0
  7  9  1  0  0  0  0
  9 10  1  0  0  0  0
  9 11  1  0  0  0  0
  9 16  1  0  0  0  0
 11 12  1  0  0  0  0
 11 13  1  0  0  0  0
 11 14  1  0  0  0  0
 14 15  1  0  0  0  0
 16 17  2  0  0  0  0
 16 18  1  0  0  0  0
 18 19  1  0  0  0  0
 18 20  1  0  0  0  0
 20 21  1  0  0  0  0
 20 22  1  0  0  0  0
 20 23  1  0  0  0  0
M  END
$$$$

  -OEChem-01062216073D

 23 22  0     1  0  0  0  0  0999 V2000
   -2.9502   -3.4862    0.9094 H   0  0  0  0  0  0  0  0  0  0  0  0
   -2.8772   -2.4405    0.5973 C   0  0  0  0  0  0  0  0  0  0  0  0
   -3.5443   -1.8401    1.2205 H   0  0  0  0  0  0  0  0  0  0  0  0
   -3.1939   -2.3621   -0.4456 H   0  0  0  0  0  0  0  0  0  0  0  0
   -1.4498   -1.9488    0.7438 C   0  0  0  0  0  0  0  0  0  0  0  0
   -0.5874   -2.7106    1.1505 O   0  0  0  0  0  0  0  0  0  0  0  0
   -1.1346   -0.6599    0.3638 N   0  0  0  0  0  0  0  0  0  0  0  0
   -1.8767   -0.1390   -0.0958 H   0  0  0  0  0  0  0  0  0  0  0  0
    0.1922   -0.0091    0.4227 C   0  0  1  0  0  0  0  0  0  0  0  0
    0.8897   -0.5891   -0.1904 H   0  0  0  0  0  0  0  0  0  0  0  0
    0.0206    1.3779   -0.2225 C   0  0  0  0  0  0  0  0  0  0  0  0
   -0.7505    1.9486    0.3053 H   0  0  0  0  0  0  0  0  0  0  0  0
    0.9582    1.9398   -0.1477 H   0  0  0  0  0  0  0  0  0  0  0  0
   -0.4023    1.2087   -2.0064 S   0  0  0  0  0  0  0  0  0  0  0  0
   -0.3687    2.5016   -2.3993 H   0  0  0  0  0  0  0  0  0  0  0  0
    0.8485    0.1054    1.8317 C   0  0  0  0  0  0  0  0  0  0  0  0
    1.3522    1.1614    2.1987 O   0  0  0  0  0  0  0  0  0  0  0  0
    0.8692   -0.9495    2.7220 N   0  0  0  0  0  0  0  0  0  0  0  0
    0.4799   -1.8334    2.3840 H   0  0  0  0  0  0  0  0  0  0  0  0
    1.4944   -0.9049    4.0373 C   0  0  0  0  0  0  0  0  0  0  0  0
    1.0370   -0.1239    4.6535 H   0  0  0  0  0  0  0  0  0  0  0  0
    1.3678   -1.8648    4.5470 H   0  0  0  0  0  0  0  0  0  0  0  0
    2.5661   -0.7002    3.9452 H   0  0  0  0  0  0  0  0  0  0  0  0
  1  2  1  0  0  0  0
  2  3  1  0  0  0  0
  2  4  1  0  0  0  0
  2  5  1  0  0  0  0
  5  6  2  0  0  0  0
  5  7  1  0  0  0  0
  7  8  1  0  0  0  0
  7  9  1  0  0  0  0
  9 10  1  0  0  0  0
  9 11  1  0  0  0  0
  9 16  1  0  0  0  0
 11 12  1  0  0  0  0
 11 13  1  0  0  0  0
 11 14  1  0  0  0  0
 14 15  1  0  0  0  0
 16 17  2  0  0  0  0
 16 18  1  0  0  0  0
 18 19  1  0  0  0  0
 18 20  1  0  0  0  0
 20 21  1  0  0  0  0
 20 22  1  0  0  0  0
 20 23  1  0  0  0  0
M  END
$$$$

  -OEChem-01062216073D

 23 22  0     1  0  0  0  0  0999 V2000
   -2.9034   -3.4798    0.9866 H   0  0  0  0  0  0  0  0  0  0  0  0
   -2.8428   -2.4365    0.6644 C   0  0  0  0  0  0  0  0  0  0  0  0
   -3.4934   -1.8331    1.3020 H   0  0  0  0  0  0  0  0  0  0  0  0
   -3.1901   -2.3672   -0.3693 H   0  0  0  0  0  0  0  0  0  0  0  0
   -1.4132   -1.9394    0.7652 C   0  0  0  0  0  0  0  0  0  0  0  0
   -0.5337   -2.6980    1.1409 O   0  0  0  0  0  0  0  0  0  0  0  0
   -1.1144   -0.6500    0.3736 N   0  0  0  0  0  0  0  0  0  0  0  0
   -1.8748   -0.1219   -0.0462 H   0  0  0  0  0  0  0  0  0  0  0  0
    0.2138   -0.0028    0.3984 C   0  0  1  0  0  0  0  0  0  0  0  0
    0.8965   -0.5840   -0.2299 H   0  0  0  0  0  0  0  0  0  0  0  0
    0.0406    1.3869   -0.2379 C   0  0  0  0  0  0  0  0  0  0  0  0
   -0.7155    1.9611    0.3078 H   0  0  0  0  0  0  0  0  0  0  0  0
    0.9848    1.9393   -0.1755 H   0  0  0  0  0  0  0  0  0  0  0  0
   -0.4245    1.2285   -2.0122 S   0  0  0  0  0  0  0  0  0  0  0  0
   -0.4013    2.5238   -2.3975 H   0  0  0  0  0  0  0  0  0  0  0  0
    0.8899    0.1026    1.7957 C   0  0  0  0  0  0  0  0  0  0  0  0
    1.1852    1.1954    2.2674 O   0  0  0  0  0  0  0  0  0  0  0  0
    1.1840   -1.0217    2.5404 N   0  0  0  0  0  0  0  0  0  0  0  0
    0.8179   -1.9064    2.1780 H   0  0  0  0  0  0  0  0  0  0  0  0
    1.7557   -0.9885    3.8798 C   0  0  0  0  0  0  0  0  0  0  0  0
    1.0841   -0.4688    4.5710 H   0  0  0  0  0  0  0  0  0  0  0  0
    1.9118   -2.0074    4.2472 H   0  0  0  0  0  0  0  0  0  0  0  0
    2.7221   -0.4734    3.8717 H   0  0  0  0  0  0  0  0  0  0  0  0
  1  2  1  0  0  0  0
  2  3  1  0  0  0  0
  2  4  1  0  0  0  0
  2  5  1  0  0  0  0
  5  6  2  0  0  0  0
  5  7  1  0  0  0  0
  7  8  1  0  0  0  0
  7  9  1  0  0  0  0
  9 10  1  0  0  0  0
  9 11  1  0  0  0  0
  9 16  1  0  0  0  0
 11 12  1  0  0  0  0
 11 13  1  0  0  0  0
 11 14  1  0  0  0  0
 14 15  1  0  0  0  0
 16 17  2  0  0  0  0
 16 18  1  0  0  0  0
 18 19  1  0  0  0  0
 18 20  1  0  0  0  0
 20 21  1  0  0  0  0
 20 22  1  0  0  0  0
 20 23  1  0  0  0  0
M  END
$$$$

  -OEChem-01062216073D

 23 22  0     1  0  0  0  0  0999 V2000
   -2.8191   -3.4830    1.0845 H   0  0  0  0  0  0  0  0  0  0  0  0
   -2.7871   -2.4467    0.7364 C   0  0  0  0  0  0  0  0  0  0  0  0
   -3.4328   -1.8407    1.3766 H   0  0  0  0  0  0  0  0  0  0  0  0
   -3.1618   -2.4086   -0.2893 H   0  0  0  0  0  0  0  0  0  0  0  0
   -1.3651   -1.9212    0.7889 C   0  0  0  0  0  0  0  0  0  0  0  0
   -0.4594   -2.6547    1.1540 O   0  0  0  0  0  0  0  0  0  0  0  0
   -1.0963   -0.6329    0.3730 N   0  0  0  0  0  0  0  0  0  0  0  0
   -1.8704   -0.1110   -0.0290 H   0  0  0  0  0  0  0  0  0  0  0  0
    0.2308    0.0121    0.3716 C   0  0  1  0  0  0  0  0  0  0  0  0
    0.9078   -0.5692   -0.2628 H   0  0  0  0  0  0  0  0  0  0  0  0
    0.0602    1.4049   -0.2569 C   0  0  0  0  0  0  0  0  0  0  0  0
   -0.6851    1.9819    0.3007 H   0  0  0  0  0  0  0  0  0  0  0  0
    1.0095    1.9491   -0.2008 H   0  0  0  0  0  0  0  0  0  0  0  0
   -0.4352    1.2586   -2.0239 S   0  0  0  0  0  0  0  0  0  0  0  0
   -0.4273    2.5572   -2.3987 H   0  0  0  0  0  0  0  0  0  0  0  0
    0.8998    0.1164    1.7689 C   0  0  0  0  0  0  0  0  0  0  0  0
    0.9962    1.1970    2.3410 O   0  0  0  0  0  0  0  0  0  0  0  0
    1.4543   -0.9988    2.3645 N   0  0  0  0  0  0  0  0  0  0  0  0
    1.1403   -1.8916    1.9741 H   0  0  0  0  0  0  0  0  0  0  0  0
    2.0062   -0.9904    3.7129 C   0  0  0  0  0  0  0  0  0  0  0  0
    1.2341   -0.7219    4.4413 H   0  0  0  0  0  0  0  0  0  0  0  0
    2.3946   -1.9813    3.9671 H   0  0  0  0  0  0  0  0  0  0  0  0
    2.8276   -0.2700    3.7871 H   0  0  0  0  0  0  0  0  0  0  0  0
  1  2  1  0  0  0  0
  2  3  1  0  0  0  0
  2  4  1  0  0  0  0
  2  5  1  0  0  0  0
  5  6  2  0  0  0  0
  5  7  1  0  0  0  0
  7  8  1  0  0  0  0
  7  9  1  0  0  0  0
  9 10  1  0  0  0  0
  9 11  1  0  0  0  0
  9 16  1  0  0  0  0
 11 12  1  0  0  0  0
 11 13  1  0  0  0  0
 11 14  1  0  0  0  0
 14 15  1  0  0  0  0
 16 17  2  0  0  0  0
 16 18  1  0  0  0  0
 18 19  1  0  0  0  0
 18 20  1  0  0  0  0
 20 21  1  0  0  0  0
 20 22  1  0  0  0  0
 20 23  1  0  0  0  0
M  END
$$$$

  -OEChem-01062216073D

 23 22  0     1  0  0  0  0  0999 V2000
   -2.7406   -3.4933    1.1498 H   0  0  0  0  0  0  0  0  0  0  0  0
   -2.7387   -2.4622    0.7852 C   0  0  0  0  0  0  0  0  0  0  0  0
   -3.3841   -1.8603    1.4294 H   0  0  0  0  0  0  0  0  0  0  0  0
   -3.1349   -2.4486   -0.2329 H   0  0  0  0  0  0  0  0  0  0  0  0
   -1.3282   -1.9049    0.8002 C   0  0  0  0  0  0  0  0  0  0  0  0
   -0.3959   -2.6078    1.1622 O   0  0  0  0  0  0  0  0  0  0  0  0
   -1.0924   -0.6173    0.3632 N   0  0  0  0  0  0  0  0  0  0  0  0
   -1.8801   -0.0986   -0.0156 H   0  0  0  0  0  0  0  0  0  0  0  0
    0.2318    0.0271    0.3537 C   0  0  1  0  0  0  0  0  0  0  0  0
    0.9116   -0.5547   -0.2773 H   0  0  0  0  0  0  0  0  0  0  0  0
    0.0722    1.4222   -0.2689 C   0  0  0  0  0  0  0  0  0  0  0  0
   -0.6705    2.0016    0.2902 H   0  0  0  0  0  0  0  0  0  0  0  0
    1.0251    1.9592   -0.2074 H   0  0  0  0  0  0  0  0  0  0  0  0
   -0.4284    1.2851   -2.0350 S   0  0  0  0  0  0  0  0  0  0  0  0
   -0.4121    2.5849   -2.4057 H   0  0  0  0  0  0  0  0  0  0  0  0
    0.8750    0.1315    1.7593 C   0  0  0  0  0  0  0  0  0  0  0  0
    0.7725    1.1573    2.4237 O   0  0  0  0  0  0  0  0  0  0  0  0
    1.6762   -0.8938    2.2212 N   0  0  0  0  0  0  0  0  0  0  0  0
    1.4818   -1.7989    1.7879 H   0  0  0  0  0  0  0  0  0  0  0  0
    2.2593   -0.8913    3.5565 C   0  0  0  0  0  0  0  0  0  0  0  0
    1.4732   -0.8671    4.3186 H   0  0  0  0  0  0  0  0  0  0  0  0
    2.8614   -1.7926    3.7061 H   0  0  0  0  0  0  0  0  0  0  0  0
    2.9078   -0.0191    3.6903 H   0  0  0  0  0  0  0  0  0  0  0  0
  1  2  1  0  0  0  0
  2  3  1  0  0  0  0
  2  4  1  0  0  0  0
  2  5  1  0  0  0  0
  5  6  2  0  0  0  0
  5  7  1  0  0  0  0
  7  8  1  0  0  0  0
  7  9  1  0  0  0  0
  9 10  1  0  0  0  0
  9 11  1  0  0  0  0
  9 16  1  0  0  0  0
 11 12  1  0  0  0  0
 11 13  1  0  0  0  0
 11 14  1  0  0  0  0
 14 15  1  0  0  0  0
 16 17  2  0  0  0  0
 16 18  1  0  0  0  0
 18 19  1  0  0  0  0
 18 20  1  0  0  0  0
 20 21  1  0  0  0  0
 20 22  1  0  0  0  0
 20 23  1  0  0  0  0
M  END
$$$$

  -OEChem-01062216073D

 23 22  0     1  0  0  0  0  0999 V2000
   -2.6943   -3.4941    1.1966 H   0  0  0  0  0  0  0  0  0  0  0  0
   -2.7107   -2.4672    0.8211 C   0  0  0  0  0  0  0  0  0  0  0  0
   -3.3442   -1.8635    1.4755 H   0  0  0  0  0  0  0  0  0  0  0  0
   -3.1335   -2.4677   -0.1865 H   0  0  0  0  0  0  0  0  0  0  0  0
   -1.3048   -1.8986    0.7935 C   0  0  0  0  0  0  0  0  0  0  0  0
   -0.3556   -2.5874    1.1390 O   0  0  0  0  0  0  0  0  0  0  0  0
   -1.0876   -0.6127    0.3430 N   0  0  0  0  0  0  0  0  0  0  0  0
   -1.8897   -0.0801    0.0188 H   0  0  0  0  0  0  0  0  0  0  0  0
    0.2348    0.0312    0.3332 C   0  0  1  0  0  0  0  0  0  0  0  0
    0.9170   -0.5502   -0.2955 H   0  0  0  0  0  0  0  0  0  0  0  0
    0.0844    1.4302   -0.2806 C   0  0  0  0  0  0  0  0  0  0  0  0
   -0.6575    2.0087    0.2809 H   0  0  0  0  0  0  0  0  0  0  0  0
    1.0394    1.9622   -0.2128 H   0  0  0  0  0  0  0  0  0  0  0  0
   -0.4161    1.3080   -2.0478 S   0  0  0  0  0  0  0  0  0  0  0  0
   -0.4281    2.6124   -2.4015 H   0  0  0  0  0  0  0  0  0  0  0  0
    0.8576    0.1381    1.7453 C   0  0  0  0  0  0  0  0  0  0  0  0
    0.5409    1.0523    2.4990 O   0  0  0  0  0  0  0  0  0  0  0  0
    1.8841   -0.7139    2.1038 N   0  0  0  0  0  0  0  0  0  0  0  0
    1.9016   -1.5916    1.5861 H   0  0  0  0  0  0  0  0  0  0  0  0
    2.4779   -0.7005    3.4347 C   0  0  0  0  0  0  0  0  0  0  0  0
    1.7230   -0.9330    4.1932 H   0  0  0  0  0  0  0  0  0  0  0  0
    3.2767   -1.4456    3.4987 H   0  0  0  0  0  0  0  0  0  0  0  0
    2.9076    0.2826    3.6540 H   0  0  0  0  0  0  0  0  0  0  0  0
  1  2  1  0  0  0  0
  2  3  1  0  0  0  0
  2  4  1  0  0  0  0
  2  5  1  0  0  0  0
  5  6  2  0  0  0  0
  5  7  1  0  0  0  0
  7  8  1  0  0  0  0
  7  9  1  0  0  0  0
  9 10  1  0  0  0  0
  9 11  1  0  0  0  0
  9 16  1  0  0  0  0
 11 12  1  0  0  0  0
 11 13  1  0  0  0  0
 11 14  1  0  0  0  0
 14 15  1  0  0  0  0
 16 17  2  0  0  0  0
 16 18  1  0  0  0  0
 18 19  1  0  0  0  0
 18 20  1  0  0  0  0
 20 21  1  0  0  0  0
 20 22  1  0  0  0  0
 20 23  1  0  0  0  0
M  END
$$$$

  -OEChem-01062216073D

 23 22  0     1  0  0  0  0  0999 V2000
   -2.6756   -3.4905    1.2336 H   0  0  0  0  0  0  0  0  0  0  0  0
   -2.6998   -2.4658    0.8522 C   0  0  0  0  0  0  0  0  0  0  0  0
   -3.3021   -1.8530    1.5273 H   0  0  0  0  0  0  0  0  0  0  0  0
   -3.1621   -2.4687   -0.1379 H   0  0  0  0  0  0  0  0  0  0  0  0
   -1.2920   -1.9081    0.7647 C   0  0  0  0  0  0  0  0  0  0  0  0
   -0.3337   -2.6030    1.0691 O   0  0  0  0  0  0  0  0  0  0  0  0
   -1.0850   -0.6221    0.3108 N   0  0  0  0  0  0  0  0  0  0  0  0
   -1.9014   -0.0626    0.0828 H   0  0  0  0  0  0  0  0  0  0  0  0
    0.2348    0.0265    0.3134 C   0  0  1  0  0  0  0  0  0  0  0  0
    0.9222   -0.5534   -0.3107 H   0  0  0  0  0  0  0  0  0  0  0  0
    0.0913    1.4298   -0.2895 C   0  0  0  0  0  0  0  0  0  0  0  0
   -0.6550    2.0032    0.2712 H   0  0  0  0  0  0  0  0  0  0  0  0
    1.0459    1.9607   -0.2095 H   0  0  0  0  0  0  0  0  0  0  0  0
   -0.3951    1.3256   -2.0617 S   0  0  0  0  0  0  0  0  0  0  0  0
   -0.4241    2.6341   -2.3985 H   0  0  0  0  0  0  0  0  0  0  0  0
    0.8415    0.1390    1.7305 C   0  0  0  0  0  0  0  0  0  0  0  0
    0.3289    0.8816    2.5611 O   0  0  0  0  0  0  0  0  0  0  0  0
    2.0499   -0.4684    2.0149 N   0  0  0  0  0  0  0  0  0  0  0  0
    2.3117   -1.2302    1.3938 H   0  0  0  0  0  0  0  0  0  0  0  0
    2.6466   -0.4347    3.3445 C   0  0  0  0  0  0  0  0  0  0  0  0
    1.9850   -0.9137    4.0740 H   0  0  0  0  0  0  0  0  0  0  0  0
    3.6036   -0.9652    3.3422 H   0  0  0  0  0  0  0  0  0  0  0  0
    2.8281    0.5987    3.6585 H   0  0  0  0  0  0  0  0  0  0  0  0
  1  2  1  0  0  0  0
  2  3  1  0  0  0  0
  2  4  1  0  0  0  0
  2  5  1  0  0  0  0
  5  6  2  0  0  0  0
  5  7  1  0  0  0  0
  7  8  1  0  0  0  0
  7  9  1  0  0  0  0
  9 10  1  0  0  0  0
  9 11  1  0  0  0  0
  9 16  1  0  0  0  0
 11 12  1  0  0  0  0
 11 13  1  0  0  0  0
 11 14  1  0  0  0  0
 14 15  1  0  0  0  0
 16 17  2  0  0  0  0
 16 18  1  0  0  0  0
 18 19  1  0  0  0  0
 18 20  1  0  0  0  0
 20 21  1  0  0  0  0
 20 22  1  0  0  0  0
 20 23  1  0  0  0  0
M  END
$$$$

  -OEChem-01062216073D

 23 22  0     1  0  0  0  0  0999 V2000
   -2.6543   -3.4885    1.2633 H   0  0  0  0  0  0  0  0  0  0  0  0
   -2.6870   -2.4606    0.8914 C   0  0  0  0  0  0  0  0  0  0  0  0
   -3.2404   -1.8457    1.6052 H   0  0  0  0  0  0  0  0  0  0  0  0
   -3.2059   -2.4493   -0.0699 H   0  0  0  0  0  0  0  0  0  0  0  0
   -1.2794   -1.9208    0.7264 C   0  0  0  0  0  0  0  0  0  0  0  0
   -0.3154   -2.6279    0.9796 O   0  0  0  0  0  0  0  0  0  0  0  0
   -1.0823   -0.6340    0.2697 N   0  0  0  0  0  0  0  0  0  0  0  0
   -1.9061   -0.0541    0.1439 H   0  0  0  0  0  0  0  0  0  0  0  0
    0.2356    0.0193    0.2907 C   0  0  1  0  0  0  0  0  0  0  0  0
    0.9321   -0.5586   -0.3250 H   0  0  0  0  0  0  0  0  0  0  0  0
    0.0985    1.4274   -0.3008 C   0  0  0  0  0  0  0  0  0  0  0  0
   -0.6543    1.9940    0.2581 H   0  0  0  0  0  0  0  0  0  0  0  0
    1.0515    1.9585   -0.2056 H   0  0  0  0  0  0  0  0  0  0  0  0
   -0.3677    1.3424   -2.0789 S   0  0  0  0  0  0  0  0  0  0  0  0
   -0.4027    2.6546   -2.4001 H   0  0  0  0  0  0  0  0  0  0  0  0
    0.8215    0.1377    1.7150 C   0  0  0  0  0  0  0  0  0  0  0  0
    0.1634    0.6678    2.6037 O   0  0  0  0  0  0  0  0  0  0  0  0
    2.1455   -0.1828    1.9509 N   0  0  0  0  0  0  0  0  0  0  0  0
    2.5994   -0.7587    1.2472 H   0  0  0  0  0  0  0  0  0  0  0  0
    2.7400   -0.1231    3.2806 C   0  0  0  0  0  0  0  0  0  0  0  0
    2.2337   -0.8196    3.9574 H   0  0  0  0  0  0  0  0  0  0  0  0
    3.7996   -0.3923    3.2333 H   0  0  0  0  0  0  0  0  0  0  0  0
    2.6611    0.8887    3.6923 H   0  0  0  0  0  0  0  0  0  0  0  0
  1  2  1  0  0  0  0
  2  3  1  0  0  0  0
  2  4  1  0  0  0  0
  2  5  1  0  0  0  0
  5  6  2  0  0  0  0
  5  7  1  0  0  0  0
  7  8  1  0  0  0  0
  7  9  1  0  0  0  0
  9 10  1  0  0  0  0
  9 11  1  0  0  0  0
  9 16  1  0  0  0  0
 11 12  1  0  0  0  0
 11 13  1  0  0  0  0
 11 14  1  0  0  0  0
 14 15  1  0  0  0  0
 16 17  2  0  0  0  0
 16 18  1  0  0  0  0
 18 19  1  0  0  0  0
 18 20  1  0  0  0  0
 20 21  1  0  0  0  0
 20 22  1  0  0  0  0
 20 23  1  0  0  0  0
M  END
$$$$

  -OEChem-01062216073D

 23 22  0     1  0  0  0  0  0999 V2000
   -2.6436   -3.4890    1.2725 H   0  0  0  0  0  0  0  0  0  0  0  0
   -2.6806   -2.4582    0.9095 C   0  0  0  0  0  0  0  0  0  0  0  0
   -3.1995   -1.8436    1.6490 H   0  0  0  0  0  0  0  0  0  0  0  0
   -3.2362   -2.4348   -0.0309 H   0  0  0  0  0  0  0  0  0  0  0  0
   -1.2751   -1.9305    0.6945 C   0  0  0  0  0  0  0  0  0  0  0  0
   -0.3095   -2.6503    0.9022 O   0  0  0  0  0  0  0  0  0  0  0  0
   -1.0844   -0.6413    0.2409 N   0  0  0  0  0  0  0  0  0  0  0  0
   -1.9088   -0.0518    0.1850 H   0  0  0  0  0  0  0  0  0  0  0  0
    0.2335    0.0124    0.2838 C   0  0  1  0  0  0  0  0  0  0  0  0
    0.9388   -0.5648   -0.3229 H   0  0  0  0  0  0  0  0  0  0  0  0
    0.1015    1.4234   -0.3025 C   0  0  0  0  0  0  0  0  0  0  0  0
   -0.6604    1.9845    0.2495 H   0  0  0  0  0  0  0  0  0  0  0  0
    1.0514    1.9572   -0.1928 H   0  0  0  0  0  0  0  0  0  0  0  0
   -0.3410    1.3489   -2.0872 S   0  0  0  0  0  0  0  0  0  0  0  0
   -0.3932    2.6628   -2.3984 H   0  0  0  0  0  0  0  0  0  0  0  0
    0.8042    0.1311    1.7148 C   0  0  0  0  0  0  0  0  0  0  0  0
    0.0673    0.4366    2.6463 O   0  0  0  0  0  0  0  0  0  0  0  0
    2.1722    0.1160    1.9175 N   0  0  0  0  0  0  0  0  0  0  0  0
    2.7409   -0.2459    1.1574 H   0  0  0  0  0  0  0  0  0  0  0  0
    2.7716    0.2230    3.2422 C   0  0  0  0  0  0  0  0  0  0  0  0
    2.4424   -0.6048    3.8792 H   0  0  0  0  0  0  0  0  0  0  0  0
    3.8628    0.1908    3.1671 H   0  0  0  0  0  0  0  0  0  0  0  0
    2.4874    1.1679    3.7174 H   0  0  0  0  0  0  0  0  0  0  0  0
  1  2  1  0  0  0  0
  2  3  1  0  0  0  0
  2  4  1  0  0  0  0
  2  5  1  0  0  0  0
  5  6  2  0  0  0  0
  5  7  1  0  0  0  0
  7  8  1  0  0  0  0
  7  9  1  0  0  0  0
  9 10  1  0  0  0  0
  9 11  1  0  0  0  0
  9 16  1  0  0  0  0
 11 12  1  0  0  0  0
 11 13  1  0  0  0  0
 11 14  1  0  0  0  0
 14 15  1  0  0  0  0
 16 17  2  0  0  0  0
 16 18  1  0  0  0  0
 18 19  1  0  0  0  0
 18 20  1  0  0  0  0
 20 21  1  0  0  0  0
 20 22  1  0  0  0  0
 20 23  1  0  0  0  0
M  END
$$$$

  -OEChem-01062216073D

 23 22  0     1  0  0  0  0  0999 V2000
   -2.6487   -3.4885    1.2660 H   0  0  0  0  0  0  0  0  0  0  0  0
   -2.6834   -2.4555    0.9091 C   0  0  0  0  0  0  0  0  0  0  0  0
   -3.1840   -1.8403    1.6606 H   0  0  0  0  0  0  0  0  0  0  0  0
   -3.2540   -2.4222   -0.0219 H   0  0  0  0  0  0  0  0  0  0  0  0
   -1.2778   -1.9383    0.6735 C   0  0  0  0  0  0  0  0  0  0  0  0
   -0.3158   -2.6721    0.8451 O   0  0  0  0  0  0  0  0  0  0  0  0
   -1.0857   -0.6463    0.2279 N   0  0  0  0  0  0  0  0  0  0  0  0
   -1.9083   -0.0529    0.2015 H   0  0  0  0  0  0  0  0  0  0  0  0
    0.2336    0.0046    0.2897 C   0  0  1  0  0  0  0  0  0  0  0  0
    0.9443   -0.5702   -0.3131 H   0  0  0  0  0  0  0  0  0  0  0  0
    0.0974    1.4166   -0.2953 C   0  0  0  0  0  0  0  0  0  0  0  0
   -0.6736    1.9706    0.2511 H   0  0  0  0  0  0  0  0  0  0  0  0
    1.0413    1.9591   -0.1783 H   0  0  0  0  0  0  0  0  0  0  0  0
   -0.3289    1.3428   -2.0840 S   0  0  0  0  0  0  0  0  0  0  0  0
   -0.3962    2.6565   -2.3934 H   0  0  0  0  0  0  0  0  0  0  0  0
    0.8008    0.1212    1.7245 C   0  0  0  0  0  0  0  0  0  0  0  0
    0.0442    0.1996    2.6866 O   0  0  0  0  0  0  0  0  0  0  0  0
    2.1403    0.4143    1.9120 N   0  0  0  0  0  0  0  0  0  0  0  0
    2.7573    0.2689    1.1183 H   0  0  0  0  0  0  0  0  0  0  0  0
    2.7341    0.5802    3.2336 C   0  0  0  0  0  0  0  0  0  0  0  0
    2.6031   -0.3296    3.8292 H   0  0  0  0  0  0  0  0  0  0  0  0
    3.8055    0.7849    3.1447 H   0  0  0  0  0  0  0  0  0  0  0  0
    2.2667    1.4177    3.7624 H   0  0  0  0  0  0  0  0  0  0  0  0
  1  2  1  0  0  0  0
  2  3  1  0  0  0  0
  2  4  1  0  0  0  0
  2  5  1  0  0  0  0
  5  6  2  0  0  0  0
  5  7  1  0  0  0  0
  7  8  1  0  0  0  0
  7  9  1  0  0  0  0
  9 10  1  0  0  0  0
  9 11  1  0  0  0  0
  9 16  1  0  0  0  0
 11 12  1  0  0  0  0
 11 13  1  0  0  0  0
 11 14  1  0  0  0  0
 14 15  1  0  0  0  0
 16 17  2  0  0  0  0
 16 18  1  0  0  0  0
 18 19  1  0  0  0  0
 18 20  1  0  0  0  0
 20 21  1  0  0  0  0
 20 22  1  0  0  0  0
 20 23  1  0  0  0  0
M  END
$$$$

  -OEChem-01062216073D

 23 22  0     1  0  0  0  0  0999 V2000
   -2.7005   -3.4823    1.2081 H   0  0  0  0  0  0  0  0  0  0  0  0
   -2.7079   -2.4328    0.9008 C   0  0  0  0  0  0  0  0  0  0  0  0
   -3.1294   -1.8334    1.7113 H   0  0  0  0  0  0  0  0  0  0  0  0
   -3.3348   -2.3287    0.0121 H   0  0  0  0  0  0  0  0  0  0  0  0
   -1.2960   -1.9692    0.5980 C   0  0  0  0  0  0  0  0  0  0  0  0
   -0.3725   -2.7689    0.6091 O   0  0  0  0  0  0  0  0  0  0  0  0
   -1.0691   -0.6682    0.1931 N   0  0  0  0  0  0  0  0  0  0  0  0
   -1.8809   -0.0596    0.1947 H   0  0  0  0  0  0  0  0  0  0  0  0
    0.2541   -0.0233    0.2972 C   0  0  1  0  0  0  0  0  0  0  0  0
    0.8970   -0.4111   -0.4994 H   0  0  0  0  0  0  0  0  0  0  0  0
    0.0263    1.4829    0.0907 C   0  0  0  0  0  0  0  0  0  0  0  0
   -0.6958    1.8520    0.8271 H   0  0  0  0  0  0  0  0  0  0  0  0
    0.9616    2.0308    0.2417 H   0  0  0  0  0  0  0  0  0  0  0  0
   -0.5770    1.8216   -1.6146 S   0  0  0  0  0  0  0  0  0  0  0  0
   -0.6938    3.1677   -1.5926 H   0  0  0  0  0  0  0  0  0  0  0  0
    1.0006   -0.2298    1.6445 C   0  0  0  0  0  0  0  0  0  0  0  0
    0.3892   -0.5522    2.6574 O   0  0  0  0  0  0  0  0  0  0  0  0
    2.2524    0.3371    1.8224 N   0  0  0  0  0  0  0  0  0  0  0  0
    2.7702    0.5822    0.9839 H   0  0  0  0  0  0  0  0  0  0  0  0
    2.9655    0.3041    3.0949 C   0  0  0  0  0  0  0  0  0  0  0  0
    3.1095   -0.7298    3.4263 H   0  0  0  0  0  0  0  0  0  0  0  0
    3.9479    0.7745    2.9913 H   0  0  0  0  0  0  0  0  0  0  0  0
    2.4044    0.8456    3.8639 H   0  0  0  0  0  0  0  0  0  0  0  0
  1  2  1  0  0  0  0
  2  3  1  0  0  0  0
  2  4  1  0  0  0  0
  2  5  1  0  0  0  0
  5  6  2  0  0  0  0
  5  7  1  0  0  0  0
  7  8  1  0  0  0  0
  7  9  1  0  0  0  0
  9 10  1  0  0  0  0
  9 11  1  0  0  0  0
  9 16  1  0  0  0  0
 11 12  1  0  0  0  0
 11 13  1  0  0  0  0
 11 14  1  0  0  0  0
 14 15  1  0  0  0  0
 16 17  2  0  0  0  0
 16 18  1  0  0  0  0
 18 19  1  0  0  0  0
 18 20  1  0  0  0  0
 20 21  1  0  0  0  0
 20 22  1  0  0  0  0
 20 23  1  0  0  0  0
M  END
$$$$

  -OEChem-01062216073D

 23 22  0     1  0  0  0  0  0999 V2000
   -2.7007   -3.4912    1.1638 H   0  0  0  0  0  0  0  0  0  0  0  0
   -2.6984   -2.4250    0.9209 C   0  0  0  0  0  0  0  0  0  0  0  0
   -3.0647   -1.8677    1.7864 H   0  0  0  0  0  0  0  0  0  0  0  0
   -3.3652   -2.2537    0.0727 H   0  0  0  0  0  0  0  0  0  0  0  0
   -1.2924   -1.9734    0.5759 C   0  0  0  0  0  0  0  0  0  0  0  0
   -0.3850   -2.7890    0.5154 O   0  0  0  0  0  0  0  0  0  0  0  0
   -1.0626   -0.6675    0.1871 N   0  0  0  0  0  0  0  0  0  0  0  0
   -1.8744   -0.0602    0.2166 H   0  0  0  0  0  0  0  0  0  0  0  0
    0.2592   -0.0182    0.3044 C   0  0  1  0  0  0  0  0  0  0  0  0
    0.9075   -0.4045   -0.4887 H   0  0  0  0  0  0  0  0  0  0  0  0
    0.0114    1.4847    0.0733 C   0  0  0  0  0  0  0  0  0  0  0  0
   -0.7242    1.8547    0.7956 H   0  0  0  0  0  0  0  0  0  0  0  0
    0.9339    2.0532    0.2209 H   0  0  0  0  0  0  0  0  0  0  0  0
   -0.5735    1.7931   -1.6442 S   0  0  0  0  0  0  0  0  0  0  0  0
   -0.7091    3.1376   -1.6433 H   0  0  0  0  0  0  0  0  0  0  0  0
    1.0167   -0.2242    1.6524 C   0  0  0  0  0  0  0  0  0  0  0  0
    0.4871   -0.7873    2.6032 O   0  0  0  0  0  0  0  0  0  0  0  0
    2.1013    0.5836    1.9603 N   0  0  0  0  0  0  0  0  0  0  0  0
    2.5688    1.0402    1.1836 H   0  0  0  0  0  0  0  0  0  0  0  0
    2.7764    0.5563    3.2543 C   0  0  0  0  0  0  0  0  0  0  0  0
    3.1398   -0.4528    3.4759 H   0  0  0  0  0  0  0  0  0  0  0  0
    3.6316    1.2388    3.2496 H   0  0  0  0  0  0  0  0  0  0  0  0
    2.0928    0.8671    4.0516 H   0  0  0  0  0  0  0  0  0  0  0  0
  1  2  1  0  0  0  0
  2  3  1  0  0  0  0
  2  4  1  0  0  0  0
  2  5  1  0  0  0  0
  5  6  2  0  0  0  0
  5  7  1  0  0  0  0
  7  8  1  0  0  0  0
  7  9  1  0  0  0  0
  9 10  1  0  0  0  0
  9 11  1  0  0  0  0
  9 16  1  0  0  0  0
 11 12  1  0  0  0  0
 11 13  1  0  0  0  0
 11 14  1  0  0  0  0
 14 15  1  0  0  0  0
 16 17  2  0  0  0  0
 16 18  1  0  0  0  0
 18 19  1  0  0  0  0
 18 20  1  0  0  0  0
 20 21  1  0  0  0  0
 20 22  1  0  0  0  0
 20 23  1  0  0  0  0
M  END
$$$$

  -OEChem-01062216073D

 23 22  0     1  0  0  0  0  0999 V2000
   -2.7049   -3.4816    1.1764 H   0  0  0  0  0  0  0  0  0  0  0  0
   -2.6966   -2.4147    0.9369 C   0  0  0  0  0  0  0  0  0  0  0  0
   -3.0407   -1.8568    1.8108 H   0  0  0  0  0  0  0  0  0  0  0  0
   -3.3779   -2.2341    0.1023 H   0  0  0  0  0  0  0  0  0  0  0  0
   -1.2926   -1.9770    0.5664 C   0  0  0  0  0  0  0  0  0  0  0  0
   -0.4098   -2.8099    0.4348 O   0  0  0  0  0  0  0  0  0  0  0  0
   -1.0558   -0.6680    0.1933 N   0  0  0  0  0  0  0  0  0  0  0  0
   -1.8693   -0.0637    0.2268 H   0  0  0  0  0  0  0  0  0  0  0  0
    0.2609   -0.0068    0.3177 C   0  0  1  0  0  0  0  0  0  0  0  0
    0.9142   -0.3954   -0.4702 H   0  0  0  0  0  0  0  0  0  0  0  0
   -0.0055    1.4892    0.0532 C   0  0  0  0  0  0  0  0  0  0  0  0
   -0.7514    1.8666    0.7608 H   0  0  0  0  0  0  0  0  0  0  0  0
    0.9087    2.0729    0.1894 H   0  0  0  0  0  0  0  0  0  0  0  0
   -0.5722    1.7554   -1.6773 S   0  0  0  0  0  0  0  0  0  0  0  0
   -0.7178    3.0984   -1.7108 H   0  0  0  0  0  0  0  0  0  0  0  0
    1.0328   -0.2054    1.6645 C   0  0  0  0  0  0  0  0  0  0  0  0
    0.6816   -1.0217    2.5056 O   0  0  0  0  0  0  0  0  0  0  0  0
    1.8934    0.7804    2.1276 N   0  0  0  0  0  0  0  0  0  0  0  0
    2.2329    1.4533    1.4487 H   0  0  0  0  0  0  0  0  0  0  0  0
    2.5401    0.7351    3.4361 C   0  0  0  0  0  0  0  0  0  0  0  0
    3.1427   -0.1740    3.5354 H   0  0  0  0  0  0  0  0  0  0  0  0
    3.1966    1.6010    3.5640 H   0  0  0  0  0  0  0  0  0  0  0  0
    1.7919    0.7504    4.2356 H   0  0  0  0  0  0  0  0  0  0  0  0
  1  2  1  0  0  0  0
  2  3  1  0  0  0  0
  2  4  1  0  0  0  0
  2  5  1  0  0  0  0
  5  6  2  0  0  0  0
  5  7  1  0  0  0  0
  7  8  1  0  0  0  0
  7  9  1  0  0  0  0
  9 10  1  0  0  0  0
  9 11  1  0  0  0  0
  9 16  1  0  0  0  0
 11 12  1  0  0  0  0
 11 13  1  0  0  0  0
 11 14  1  0  0  0  0
 14 15  1  0  0  0  0
 16 17  2  0  0  0  0
 16 18  1  0  0  0  0
 18 19  1  0  0  0  0
 18 20  1  0  0  0  0
 20 21  1  0  0  0  0
 20 22  1  0  0  0  0
 20 23  1  0  0  0  0
M  END
$$$$

  -OEChem-01062216073D

 23 22  0     1  0  0  0  0  0999 V2000
   -2.7221   -3.4675    1.2045 H   0  0  0  0  0  0  0  0  0  0  0  0
   -2.7069   -2.4062    0.9405 C   0  0  0  0  0  0  0  0  0  0  0  0
   -3.0624   -1.8274    1.7961 H   0  0  0  0  0  0  0  0  0  0  0  0
   -3.3750   -2.2436    0.0916 H   0  0  0  0  0  0  0  0  0  0  0  0
   -1.2963   -1.9817    0.5795 C   0  0  0  0  0  0  0  0  0  0  0  0
   -0.4342   -2.8295    0.4244 O   0  0  0  0  0  0  0  0  0  0  0  0
   -1.0513   -0.6728    0.2108 N   0  0  0  0  0  0  0  0  0  0  0  0
   -1.8711   -0.0760    0.2087 H   0  0  0  0  0  0  0  0  0  0  0  0
    0.2544    0.0110    0.3386 C   0  0  1  0  0  0  0  0  0  0  0  0
    0.9195   -0.3861   -0.4356 H   0  0  0  0  0  0  0  0  0  0  0  0
   -0.0151    1.4975    0.0312 C   0  0  0  0  0  0  0  0  0  0  0  0
   -0.7729    1.8930    0.7159 H   0  0  0  0  0  0  0  0  0  0  0  0
    0.8997    2.0827    0.1616 H   0  0  0  0  0  0  0  0  0  0  0  0
   -0.5529    1.7143   -1.7155 S   0  0  0  0  0  0  0  0  0  0  0  0
   -0.6889    3.0563   -1.7972 H   0  0  0  0  0  0  0  0  0  0  0  0
    1.0239   -0.1697    1.6900 C   0  0  0  0  0  0  0  0  0  0  0  0
    0.9933   -1.2020    2.3415 O   0  0  0  0  0  0  0  0  0  0  0  0
    1.6139    0.9151    2.3251 N   0  0  0  0  0  0  0  0  0  0  0  0
    1.6799    1.7847    1.8087 H   0  0  0  0  0  0  0  0  0  0  0  0
    2.2824    0.8254    3.6202 C   0  0  0  0  0  0  0  0  0  0  0  0
    3.1132    0.1132    3.5750 H   0  0  0  0  0  0  0  0  0  0  0  0
    2.6806    1.8025    3.9098 H   0  0  0  0  0  0  0  0  0  0  0  0
    1.5795    0.4974    4.3934 H   0  0  0  0  0  0  0  0  0  0  0  0
  1  2  1  0  0  0  0
  2  3  1  0  0  0  0
  2  4  1  0  0  0  0
  2  5  1  0  0  0  0
  5  6  2  0  0  0  0
  5  7  1  0  0  0  0
  7  8  1  0  0  0  0
  7  9  1  0  0  0  0
  9 10  1  0  0  0  0
  9 11  1  0  0  0  0
  9 16  1  0  0  0  0
 11 12  1  0  0  0  0
 11 13  1  0  0  0  0
 11 14  1  0  0  0  0
 14 15  1  0  0  0  0
 16 17  2  0  0  0  0
 16 18  1  0  0  0  0
 18 19  1  0  0  0  0
 18 20  1  0  0  0  0
 20 21  1  0  0  0  0
 20 22  1  0  0  0  0
 20 23  1  0  0  0  0
M  END
$$$$

  -OEChem-01062216073D

 23 22  0     1  0  0  0  0  0999 V2000
   -2.9911   -3.4812    0.9004 H   0  0  0  0  0  0  0  0  0  0  0  0
   -2.8729   -2.4549    0.5413 C   0  0  0  0  0  0  0  0  0  0  0  0
   -3.6362   -1.8286    1.0088 H   0  0  0  0  0  0  0  0  0  0  0  0
   -3.0135   -2.4446   -0.5421 H   0  0  0  0  0  0  0  0  0  0  0  0
   -1.4907   -1.9349    0.8903 C   0  0  0  0  0  0  0  0  0  0  0  0
   -0.7403   -2.6513    1.5202 O   0  0  0  0  0  0  0  0  0  0  0  0
   -1.1426   -0.6630    0.4757 N   0  0  0  0  0  0  0  0  0  0  0  0
   -1.8186   -0.2275   -0.1461 H   0  0  0  0  0  0  0  0  0  0  0  0
    0.1827   -0.0070    0.5273 C   0  0  1  0  0  0  0  0  0  0  0  0
    0.8088   -0.4514   -0.2538 H   0  0  0  0  0  0  0  0  0  0  0  0
   -0.0732    1.4648    0.1607 C   0  0  0  0  0  0  0  0  0  0  0  0
   -0.8047    1.9057    0.8463 H   0  0  0  0  0  0  0  0  0  0  0  0
    0.8590    2.0344    0.2390 H   0  0  0  0  0  0  0  0  0  0  0  0
   -0.6703    1.5926   -1.5763 S   0  0  0  0  0  0  0  0  0  0  0  0
   -0.7292    2.9330   -1.7423 H   0  0  0  0  0  0  0  0  0  0  0  0
    1.0141   -0.1372    1.8394 C   0  0  0  0  0  0  0  0  0  0  0  0
    1.6693   -1.1447    2.0583 O   0  0  0  0  0  0  0  0  0  0  0  0
    1.3862    0.9864    2.5656 N   0  0  0  0  0  0  0  0  0  0  0  0
    0.8648    1.8400    2.4022 H   0  0  0  0  0  0  0  0  0  0  0  0
    2.3074    0.9404    3.6972 C   0  0  0  0  0  0  0  0  0  0  0  0
    3.2944    0.5914    3.3752 H   0  0  0  0  0  0  0  0  0  0  0  0
    2.4210    1.9369    4.1345 H   0  0  0  0  0  0  0  0  0  0  0  0
    1.9302    0.2632    4.4710 H   0  0  0  0  0  0  0  0  0  0  0  0
  1  2  1  0  0  0  0
  2  3  1  0  0  0  0
  2  4  1  0  0  0  0
  2  5  1  0  0  0  0
  5  6  2  0  0  0  0
  5  7  1  0  0  0  0
  7  8  1  0  0  0  0
  7  9  1  0  0  0  0
  9 10  1  0  0  0  0
  9 11  1  0  0  0  0
  9 16  1  0  0  0  0
 11 12  1  0  0  0  0
 11 13  1  0  0  0  0
 11 14  1  0  0  0  0
 14 15  1  0  0  0  0
 16 17  2  0  0  0  0
 16 18  1  0  0  0  0
 18 19  1  0  0  0  0
 18 20  1  0  0  0  0
 20 21  1  0  0  0  0
 20 22  1  0  0  0  0
 20 23  1  0  0  0  0
M  END
$$$$

  -OEChem-01062216073D

 23 22  0     1  0  0  0  0  0999 V2000
   -2.9579   -3.4942    0.9365 H   0  0  0  0  0  0  0  0  0  0  0  0
   -2.8541   -2.4809    0.5380 C   0  0  0  0  0  0  0  0  0  0  0  0
   -3.6506   -1.8572    0.9504 H   0  0  0  0  0  0  0  0  0  0  0  0
   -2.9545   -2.5194   -0.5493 H   0  0  0  0  0  0  0  0  0  0  0  0
   -1.5004   -1.9081    0.9138 C   0  0  0  0  0  0  0  0  0  0  0  0
   -0.7543   -2.5656    1.6119 O   0  0  0  0  0  0  0  0  0  0  0  0
   -1.1719   -0.6386    0.4781 N   0  0  0  0  0  0  0  0  0  0  0  0
   -1.8322   -0.2359   -0.1820 H   0  0  0  0  0  0  0  0  0  0  0  0
    0.1614   -0.0022    0.5080 C   0  0  1  0  0  0  0  0  0  0  0  0
    0.7716   -0.4579   -0.2796 H   0  0  0  0  0  0  0  0  0  0  0  0
   -0.0568    1.4765    0.1528 C   0  0  0  0  0  0  0  0  0  0  0  0
   -0.7693    1.9343    0.8467 H   0  0  0  0  0  0  0  0  0  0  0  0
    0.8934    2.0163    0.2321 H   0  0  0  0  0  0  0  0  0  0  0  0
   -0.6738    1.6292   -1.5748 S   0  0  0  0  0  0  0  0  0  0  0  0
   -0.6899    2.9718   -1.7327 H   0  0  0  0  0  0  0  0  0  0  0  0
    0.9900   -0.1496    1.8152 C   0  0  0  0  0  0  0  0  0  0  0  0
    1.8266   -1.0378    1.9002 O   0  0  0  0  0  0  0  0  0  0  0  0
    1.1218    0.9119    2.6988 N   0  0  0  0  0  0  0  0  0  0  0  0
    0.4063    1.6292    2.6618 H   0  0  0  0  0  0  0  0  0  0  0  0
    2.0035    0.8711    3.8609 C   0  0  0  0  0  0  0  0  0  0  0  0
    3.0475    0.7656    3.5473 H   0  0  0  0  0  0  0  0  0  0  0  0
    1.9100    1.7950    4.4395 H   0  0  0  0  0  0  0  0  0  0  0  0
    1.7439    0.0275    4.5094 H   0  0  0  0  0  0  0  0  0  0  0  0
  1  2  1  0  0  0  0
  2  3  1  0  0  0  0
  2  4  1  0  0  0  0
  2  5  1  0  0  0  0
  5  6  2  0  0  0  0
  5  7  1  0  0  0  0
  7  8  1  0  0  0  0
  7  9  1  0  0  0  0
  9 10  1  0  0  0  0
  9 11  1  0  0  0  0
  9 16  1  0  0  0  0
 11 12  1  0  0  0  0
 11 13  1  0  0  0  0
 11 14  1  0  0  0  0
 14 15  1  0  0  0  0
 16 17  2  0  0  0  0
 16 18  1  0  0  0  0
 18 19  1  0  0  0  0
 18 20  1  0  0  0  0
 20 21  1  0  0  0  0
 20 22  1  0  0  0  0
 20 23  1  0  0  0  0
M  END
$$$$

  -OEChem-01062216073D

 23 22  0     1  0  0  0  0  0999 V2000
   -2.9310   -3.5040    0.9661 H   0  0  0  0  0  0  0  0  0  0  0  0
   -2.8444   -2.4942    0.5547 C   0  0  0  0  0  0  0  0  0  0  0  0
   -3.6445   -1.8760    0.9687 H   0  0  0  0  0  0  0  0  0  0  0  0
   -2.9561   -2.5470   -0.5309 H   0  0  0  0  0  0  0  0  0  0  0  0
   -1.4939   -1.9003    0.9083 C   0  0  0  0  0  0  0  0  0  0  0  0
   -0.7252   -2.5413    1.5989 O   0  0  0  0  0  0  0  0  0  0  0  0
   -1.1836   -0.6291    0.4650 N   0  0  0  0  0  0  0  0  0  0  0  0
   -1.8472   -0.2343   -0.1969 H   0  0  0  0  0  0  0  0  0  0  0  0
    0.1521    0.0007    0.4834 C   0  0  1  0  0  0  0  0  0  0  0  0
    0.7532   -0.4564   -0.3105 H   0  0  0  0  0  0  0  0  0  0  0  0
   -0.0403    1.4855    0.1464 C   0  0  0  0  0  0  0  0  0  0  0  0
   -0.7378    1.9508    0.8499 H   0  0  0  0  0  0  0  0  0  0  0  0
    0.9214    2.0043    0.2284 H   0  0  0  0  0  0  0  0  0  0  0  0
   -0.6698    1.6663   -1.5740 S   0  0  0  0  0  0  0  0  0  0  0  0
   -0.6346    3.0091   -1.7266 H   0  0  0  0  0  0  0  0  0  0  0  0
    0.9779   -0.1590    1.7867 C   0  0  0  0  0  0  0  0  0  0  0  0
    1.9664   -0.8803    1.7839 O   0  0  0  0  0  0  0  0  0  0  0  0
    0.8680    0.7707    2.8091 N   0  0  0  0  0  0  0  0  0  0  0  0
    0.0008    1.2954    2.8473 H   0  0  0  0  0  0  0  0  0  0  0  0
    1.6988    0.7207    4.0072 C   0  0  0  0  0  0  0  0  0  0  0  0
    2.7562    0.8370    3.7466 H   0  0  0  0  0  0  0  0  0  0  0  0
    1.4235    1.5275    4.6929 H   0  0  0  0  0  0  0  0  0  0  0  0
    1.5673   -0.2356    4.5247 H   0  0  0  0  0  0  0  0  0  0  0  0
  1  2  1  0  0  0  0
  2  3  1  0  0  0  0
  2  4  1  0  0  0  0
  2  5  1  0  0  0  0
  5  6  2  0  0  0  0
  5  7  1  0  0  0  0
  7  8  1  0  0  0  0
  7  9  1  0  0  0  0
  9 10  1  0  0  0  0
  9 11  1  0  0  0  0
  9 16  1  0  0  0  0
 11 12  1  0  0  0  0
 11 13  1  0  0  0  0
 11 14  1  0  0  0  0
 14 15  1  0  0  0  0
 16 17  2  0  0  0  0
 16 18  1  0  0  0  0
 18 19  1  0  0  0  0
 18 20  1  0  0  0  0
 20 21  1  0  0  0  0
 20 22  1  0  0  0  0
 20 23  1  0  0  0  0
M  END
$$$$

  -OEChem-01062216073D

 23 22  0     1  0  0  0  0  0999 V2000
   -2.9219   -3.5089    0.9772 H   0  0  0  0  0  0  0  0  0  0  0  0
   -2.8426   -2.5013    0.5588 C   0  0  0  0  0  0  0  0  0  0  0  0
   -3.6446   -1.8846    0.9712 H   0  0  0  0  0  0  0  0  0  0  0  0
   -2.9583   -2.5622   -0.5259 H   0  0  0  0  0  0  0  0  0  0  0  0
   -1.4939   -1.8977    0.9025 C   0  0  0  0  0  0  0  0  0  0  0  0
   -0.7128   -2.5310    1.5878 O   0  0  0  0  0  0  0  0  0  0  0  0
   -1.1902   -0.6270    0.4533 N   0  0  0  0  0  0  0  0  0  0  0  0
   -1.8556   -0.2327   -0.2075 H   0  0  0  0  0  0  0  0  0  0  0  0
    0.1487   -0.0047    0.4641 C   0  0  1  0  0  0  0  0  0  0  0  0
    0.7422   -0.4614   -0.3354 H   0  0  0  0  0  0  0  0  0  0  0  0
   -0.0255    1.4863    0.1499 C   0  0  0  0  0  0  0  0  0  0  0  0
   -0.7079    1.9524    0.8676 H   0  0  0  0  0  0  0  0  0  0  0  0
    0.9447    1.9892    0.2313 H   0  0  0  0  0  0  0  0  0  0  0  0
   -0.6692    1.6989   -1.5613 S   0  0  0  0  0  0  0  0  0  0  0  0
   -0.6022    3.0417   -1.7013 H   0  0  0  0  0  0  0  0  0  0  0  0
    0.9732   -0.1709    1.7640 C   0  0  0  0  0  0  0  0  0  0  0  0
    2.0833   -0.6834    1.7070 O   0  0  0  0  0  0  0  0  0  0  0  0
    0.6494    0.5659    2.8911 N   0  0  0  0  0  0  0  0  0  0  0  0
   -0.3149    0.8753    2.9550 H   0  0  0  0  0  0  0  0  0  0  0  0
    1.4371    0.5029    4.1166 C   0  0  0  0  0  0  0  0  0  0  0  0
    2.4608    0.8461    3.9330 H   0  0  0  0  0  0  0  0  0  0  0  0
    0.9933    1.1426    4.8853 H   0  0  0  0  0  0  0  0  0  0  0  0
    1.4731   -0.5238    4.4965 H   0  0  0  0  0  0  0  0  0  0  0  0
  1  2  1  0  0  0  0
  2  3  1  0  0  0  0
  2  4  1  0  0  0  0
  2  5  1  0  0  0  0
  5  6  2  0  0  0  0
  5  7  1  0  0  0  0
  7  8  1  0  0  0  0
  7  9  1  0  0  0  0
  9 10  1  0  0  0  0
  9 11  1  0  0  0  0
  9 16  1  0  0  0  0
 11 12  1  0  0  0  0
 11 13  1  0  0  0  0
 11 14  1  0  0  0  0
 14 15  1  0  0  0  0
 16 17  2  0  0  0  0
 16 18  1  0  0  0  0
 18 19  1  0  0  0  0
 18 20  1  0  0  0  0
 20 21  1  0  0  0  0
 20 22  1  0  0  0  0
 20 23  1  0  0  0  0
M  END
$$$$

  -OEChem-01062216073D

 23 22  0     1  0  0  0  0  0999 V2000
   -2.9209   -3.5108    0.9730 H   0  0  0  0  0  0  0  0  0  0  0  0
   -2.8480   -2.4994    0.5628 C   0  0  0  0  0  0  0  0  0  0  0  0
   -3.6426   -1.8864    0.9947 H   0  0  0  0  0  0  0  0  0  0  0  0
   -2.9827   -2.5506   -0.5203 H   0  0  0  0  0  0  0  0  0  0  0  0
   -1.4933   -1.8996    0.8897 C   0  0  0  0  0  0  0  0  0  0  0  0
   -0.7040   -2.5346    1.5647 O   0  0  0  0  0  0  0  0  0  0  0  0
   -1.1870   -0.6309    0.4363 N   0  0  0  0  0  0  0  0  0  0  0  0
   -1.8544   -0.2308   -0.2192 H   0  0  0  0  0  0  0  0  0  0  0  0
    0.1549   -0.0134    0.4459 C   0  0  1  0  0  0  0  0  0  0  0  0
    0.7476   -0.4668   -0.3563 H   0  0  0  0  0  0  0  0  0  0  0  0
   -0.0126    1.4817    0.1536 C   0  0  0  0  0  0  0  0  0  0  0  0
   -0.6855    1.9416    0.8846 H   0  0  0  0  0  0  0  0  0  0  0  0
    0.9611    1.9777    0.2350 H   0  0  0  0  0  0  0  0  0  0  0  0
   -0.6668    1.7220   -1.5501 S   0  0  0  0  0  0  0  0  0  0  0  0
   -0.6002    3.0672   -1.6657 H   0  0  0  0  0  0  0  0  0  0  0  0
    0.9777   -0.1775    1.7443 C   0  0  0  0  0  0  0  0  0  0  0  0
    2.1684   -0.4517    1.6689 O   0  0  0  0  0  0  0  0  0  0  0  0
    0.4824    0.3150    2.9390 N   0  0  0  0  0  0  0  0  0  0  0  0
   -0.5282    0.3952    2.9904 H   0  0  0  0  0  0  0  0  0  0  0  0
    1.2310    0.2231    4.1865 C   0  0  0  0  0  0  0  0  0  0  0  0
    2.1814    0.7610    4.1046 H   0  0  0  0  0  0  0  0  0  0  0  0
    0.6564    0.6645    5.0062 H   0  0  0  0  0  0  0  0  0  0  0  0
    1.4392   -0.8239    4.4312 H   0  0  0  0  0  0  0  0  0  0  0  0
  1  2  1  0  0  0  0
  2  3  1  0  0  0  0
  2  4  1  0  0  0  0
  2  5  1  0  0  0  0
  5  6  2  0  0  0  0
  5  7  1  0  0  0  0
  7  8  1  0  0  0  0
  7  9  1  0  0  0  0
  9 10  1  0  0  0  0
  9 11  1  0  0  0  0
  9 16  1  0  0  0  0
 11 12  1  0  0  0  0
 11 13  1  0  0  0  0
 11 14  1  0  0  0  0
 14 15  1  0  0  0  0
 16 17  2  0  0  0  0
 16 18  1  0  0  0  0
 18 19  1  0  0  0  0
 18 20  1  0  0  0  0
 20 21  1  0  0  0  0
 20 22  1  0  0  0  0
 20 23  1  0  0  0  0
M  END
$$$$

  -OEChem-01062216073D

 23 22  0     1  0  0  0  0  0999 V2000
   -2.9373   -3.5068    0.9401 H   0  0  0  0  0  0  0  0  0  0  0  0
   -2.8619   -2.4889    0.5469 C   0  0  0  0  0  0  0  0  0  0  0  0
   -3.6504   -1.8788    0.9940 H   0  0  0  0  0  0  0  0  0  0  0  0
   -3.0038   -2.5203   -0.5361 H   0  0  0  0  0  0  0  0  0  0  0  0
   -1.5023   -1.9019    0.8750 C   0  0  0  0  0  0  0  0  0  0  0  0
   -0.7190   -2.5396    1.5549 O   0  0  0  0  0  0  0  0  0  0  0  0
   -1.1842   -0.6370    0.4212 N   0  0  0  0  0  0  0  0  0  0  0  0
   -1.8499   -0.2269   -0.2301 H   0  0  0  0  0  0  0  0  0  0  0  0
    0.1599   -0.0228    0.4387 C   0  0  1  0  0  0  0  0  0  0  0  0
    0.7568   -0.4706   -0.3631 H   0  0  0  0  0  0  0  0  0  0  0  0
   -0.0140    1.4730    0.1580 C   0  0  0  0  0  0  0  0  0  0  0  0
   -0.6879    1.9229    0.8944 H   0  0  0  0  0  0  0  0  0  0  0  0
    0.9572    1.9737    0.2429 H   0  0  0  0  0  0  0  0  0  0  0  0
   -0.6685    1.7227   -1.5444 S   0  0  0  0  0  0  0  0  0  0  0  0
   -0.6024    3.0688   -1.6495 H   0  0  0  0  0  0  0  0  0  0  0  0
    0.9827   -0.1772    1.7382 C   0  0  0  0  0  0  0  0  0  0  0  0
    2.2050   -0.1994    1.6710 O   0  0  0  0  0  0  0  0  0  0  0  0
    0.3815    0.0325    2.9661 N   0  0  0  0  0  0  0  0  0  0  0  0
   -0.6185   -0.1437    2.9814 H   0  0  0  0  0  0  0  0  0  0  0  0
    1.1154   -0.0945    4.2191 C   0  0  0  0  0  0  0  0  0  0  0  0
    1.9506    0.6133    4.2500 H   0  0  0  0  0  0  0  0  0  0  0  0
    0.4557    0.1166    5.0660 H   0  0  0  0  0  0  0  0  0  0  0  0
    1.5100   -1.1102    4.3293 H   0  0  0  0  0  0  0  0  0  0  0  0
  1  2  1  0  0  0  0
  2  3  1  0  0  0  0
  2  4  1  0  0  0  0
  2  5  1  0  0  0  0
  5  6  2  0  0  0  0
  5  7  1  0  0  0  0
  7  8  1  0  0  0  0
  7  9  1  0  0  0  0
  9 10  1  0  0  0  0
  9 11  1  0  0  0  0
  9 16  1  0  0  0  0
 11 12  1  0  0  0  0
 11 13  1  0  0  0  0
 11 14  1  0  0  0  0
 14 15  1  0  0  0  0
 16 17  2  0  0  0  0
 16 18  1  0  0  0  0
 18 19  1  0  0  0  0
 18 20  1  0  0  0  0
 20 21  1  0  0  0  0
 20 22  1  0  0  0  0
 20 23  1  0  0  0  0
M  END
$$$$

  -OEChem-01062216073D

 23 22  0     1  0  0  0  0  0999 V2000
   -3.0104   -3.4797    0.9005 H   0  0  0  0  0  0  0  0  0  0  0  0
   -2.9019   -2.4694    0.4956 C   0  0  0  0  0  0  0  0  0  0  0  0
   -3.6834   -1.8341    0.9192 H   0  0  0  0  0  0  0  0  0  0  0  0
   -3.0239   -2.5119   -0.5895 H   0  0  0  0  0  0  0  0  0  0  0  0
   -1.5345   -1.9113    0.8418 C   0  0  0  0  0  0  0  0  0  0  0  0
   -0.7720   -2.5671    1.5284 O   0  0  0  0  0  0  0  0  0  0  0  0
   -1.1878   -0.6486    0.4050 N   0  0  0  0  0  0  0  0  0  0  0  0
   -1.8467   -0.2145   -0.2380 H   0  0  0  0  0  0  0  0  0  0  0  0
    0.1594   -0.0389    0.4468 C   0  0  1  0  0  0  0  0  0  0  0  0
    0.7640   -0.4797   -0.3531 H   0  0  0  0  0  0  0  0  0  0  0  0
   -0.0257    1.4579    0.1727 C   0  0  0  0  0  0  0  0  0  0  0  0
   -0.7117    1.8952    0.9055 H   0  0  0  0  0  0  0  0  0  0  0  0
    0.9385    1.9699    0.2709 H   0  0  0  0  0  0  0  0  0  0  0  0
   -0.6618    1.7138   -1.5360 S   0  0  0  0  0  0  0  0  0  0  0  0
   -0.6071    3.0614   -1.6287 H   0  0  0  0  0  0  0  0  0  0  0  0
    0.9852   -0.1876    1.7481 C   0  0  0  0  0  0  0  0  0  0  0  0
    2.1873    0.0445    1.7124 O   0  0  0  0  0  0  0  0  0  0  0  0
    0.3605   -0.2865    2.9775 N   0  0  0  0  0  0  0  0  0  0  0  0
   -0.5507   -0.7372    2.9346 H   0  0  0  0  0  0  0  0  0  0  0  0
    1.1138   -0.4110    4.2192 C   0  0  0  0  0  0  0  0  0  0  0  0
    1.7623    0.4594    4.3646 H   0  0  0  0  0  0  0  0  0  0  0  0
    0.4293   -0.4751    5.0704 H   0  0  0  0  0  0  0  0  0  0  0  0
    1.7337   -1.3137    4.2024 H   0  0  0  0  0  0  0  0  0  0  0  0
  1  2  1  0  0  0  0
  2  3  1  0  0  0  0
  2  4  1  0  0  0  0
  2  5  1  0  0  0  0
  5  6  2  0  0  0  0
  5  7  1  0  0  0  0
  7  8  1  0  0  0  0
  7  9  1  0  0  0  0
  9 10  1  0  0  0  0
  9 11  1  0  0  0  0
  9 16  1  0  0  0  0
 11 12  1  0  0  0  0
 11 13  1  0  0  0  0
 11 14  1  0  0  0  0
 14 15  1  0  0  0  0
 16 17  2  0  0  0  0
 16 18  1  0  0  0  0
 18 19  1  0  0  0  0
 18 20  1  0  0  0  0
 20 21  1  0  0  0  0
 20 22  1  0  0  0  0
 20 23  1  0  0  0  0
M  END
$$$$

  -OEChem-01062216073D

 23 22  0     1  0  0  0  0  0999 V2000
   -3.0728   -3.4613    0.8254 H   0  0  0  0  0  0  0  0  0  0  0  0
   -2.9450   -2.4410    0.4524 C   0  0  0  0  0  0  0  0  0  0  0  0
   -3.7061   -1.8020    0.9068 H   0  0  0  0  0  0  0  0  0  0  0  0
   -3.0818   -2.4446   -0.6318 H   0  0  0  0  0  0  0  0  0  0  0  0
   -1.5604   -1.9268    0.7983 C   0  0  0  0  0  0  0  0  0  0  0  0
   -0.8032   -2.6288    1.4446 O   0  0  0  0  0  0  0  0  0  0  0  0
   -1.1851   -0.6639    0.3860 N   0  0  0  0  0  0  0  0  0  0  0  0
   -1.8460   -0.1944   -0.2294 H   0  0  0  0  0  0  0  0  0  0  0  0
    0.1608   -0.0508    0.4594 C   0  0  1  0  0  0  0  0  0  0  0  0
    0.7785   -0.4815   -0.3357 H   0  0  0  0  0  0  0  0  0  0  0  0
   -0.0462    1.4453    0.1835 C   0  0  0  0  0  0  0  0  0  0  0  0
   -0.7521    1.8693    0.9053 H   0  0  0  0  0  0  0  0  0  0  0  0
    0.9048    1.9780    0.2966 H   0  0  0  0  0  0  0  0  0  0  0  0
   -0.6545    1.6941   -1.5367 S   0  0  0  0  0  0  0  0  0  0  0  0
   -0.6043    3.0417   -1.6317 H   0  0  0  0  0  0  0  0  0  0  0  0
    0.9869   -0.1908    1.7662 C   0  0  0  0  0  0  0  0  0  0  0  0
    2.1296    0.2511    1.7870 O   0  0  0  0  0  0  0  0  0  0  0  0
    0.4158   -0.5951    2.9580 N   0  0  0  0  0  0  0  0  0  0  0  0
   -0.3788   -1.2220    2.8308 H   0  0  0  0  0  0  0  0  0  0  0  0
    1.1934   -0.7405    4.1823 C   0  0  0  0  0  0  0  0  0  0  0  0
    1.6484    0.2147    4.4649 H   0  0  0  0  0  0  0  0  0  0  0  0
    0.5470   -1.0682    5.0021 H   0  0  0  0  0  0  0  0  0  0  0  0
    1.9871   -1.4826    4.0463 H   0  0  0  0  0  0  0  0  0  0  0  0
  1  2  1  0  0  0  0
  2  3  1  0  0  0  0
  2  4  1  0  0  0  0
  2  5  1  0  0  0  0
  5  6  2  0  0  0  0
  5  7  1  0  0  0  0
  7  8  1  0  0  0  0
  7  9  1  0  0  0  0
  9 10  1  0  0  0  0
  9 11  1  0  0  0  0
  9 16  1  0  0  0  0
 11 12  1  0  0  0  0
 11 13  1  0  0  0  0
 11 14  1  0  0  0  0
 14 15  1  0  0  0  0
 16 17  2  0  0  0  0
 16 18  1  0  0  0  0
 18 19  1  0  0  0  0
 18 20  1  0  0  0  0
 20 21  1  0  0  0  0
 20 22  1  0  0  0  0
 20 23  1  0  0  0  0
M  END
$$$$

  -OEChem-01062216073D

 23 22  0     1  0  0  0  0  0999 V2000
   -3.1093   -3.4474    0.7511 H   0  0  0  0  0  0  0  0  0  0  0  0
   -2.9763   -2.4050    0.4477 C   0  0  0  0  0  0  0  0  0  0  0  0
   -3.6886   -1.7847    0.9972 H   0  0  0  0  0  0  0  0  0  0  0  0
   -3.1809   -2.3228   -0.6227 H   0  0  0  0  0  0  0  0  0  0  0  0
   -1.5588   -1.9505    0.7410 C   0  0  0  0  0  0  0  0  0  0  0  0
   -0.7854   -2.7166    1.2884 O   0  0  0  0  0  0  0  0  0  0  0  0
   -1.1657   -0.6837    0.3583 N   0  0  0  0  0  0  0  0  0  0  0  0
   -1.8447   -0.1703   -0.1994 H   0  0  0  0  0  0  0  0  0  0  0  0
    0.1732   -0.0580    0.4645 C   0  0  1  0  0  0  0  0  0  0  0  0
    0.8084   -0.4758   -0.3233 H   0  0  0  0  0  0  0  0  0  0  0  0
   -0.0613    1.4353    0.1815 C   0  0  0  0  0  0  0  0  0  0  0  0
   -0.7907    1.8443    0.8884 H   0  0  0  0  0  0  0  0  0  0  0  0
    0.8730    1.9930    0.3099 H   0  0  0  0  0  0  0  0  0  0  0  0
   -0.6379    1.6717   -1.5518 S   0  0  0  0  0  0  0  0  0  0  0  0
   -0.6249    3.0205   -1.6428 H   0  0  0  0  0  0  0  0  0  0  0  0
    0.9900   -0.1954    1.7829 C   0  0  0  0  0  0  0  0  0  0  0  0
    2.0390    0.4286    1.8932 O   0  0  0  0  0  0  0  0  0  0  0  0
    0.5317   -0.8832    2.8903 N   0  0  0  0  0  0  0  0  0  0  0  0
   -0.1636   -1.5996    2.6749 H   0  0  0  0  0  0  0  0  0  0  0  0
    1.3290   -1.0577    4.0983 C   0  0  0  0  0  0  0  0  0  0  0  0
    1.5873   -0.0862    4.5326 H   0  0  0  0  0  0  0  0  0  0  0  0
    0.7641   -1.6270    4.8425 H   0  0  0  0  0  0  0  0  0  0  0  0
    2.2529   -1.6006    3.8730 H   0  0  0  0  0  0  0  0  0  0  0  0
  1  2  1  0  0  0  0
  2  3  1  0  0  0  0
  2  4  1  0  0  0  0
  2  5  1  0  0  0  0
  5  6  2  0  0  0  0
  5  7  1  0  0  0  0
  7  8  1  0  0  0  0
  7  9  1  0  0  0  0
  9 10  1  0  0  0  0
  9 11  1  0  0  0  0
  9 16  1  0  0  0  0
 11 12  1  0  0  0  0
 11 13  1  0  0  0  0
 11 14  1  0  0  0  0
 14 15  1  0  0  0  0
 16 17  2  0  0  0  0
 16 18  1  0  0  0  0
 18 19  1  0  0  0  0
 18 20  1  0  0  0  0
 20 21  1  0  0  0  0
 20 22  1  0  0  0  0
 20 23  1  0  0  0  0
M  END
$$$$

  -OEChem-01062216073D

 23 22  0     1  0  0  0  0  0999 V2000
   -3.1391   -3.4232    0.7590 H   0  0  0  0  0  0  0  0  0  0  0  0
   -2.9932   -2.3784    0.4701 C   0  0  0  0  0  0  0  0  0  0  0  0
   -3.6558   -1.7516    1.0718 H   0  0  0  0  0  0  0  0  0  0  0  0
   -3.2547   -2.2664   -0.5851 H   0  0  0  0  0  0  0  0  0  0  0  0
   -1.5494   -1.9700    0.6928 C   0  0  0  0  0  0  0  0  0  0  0  0
   -0.7575   -2.7890    1.1258 O   0  0  0  0  0  0  0  0  0  0  0  0
   -1.1501   -0.6970    0.3376 N   0  0  0  0  0  0  0  0  0  0  0  0
   -1.8532   -0.1449   -0.1482 H   0  0  0  0  0  0  0  0  0  0  0  0
    0.1831   -0.0611    0.4627 C   0  0  1  0  0  0  0  0  0  0  0  0
    0.8272   -0.4680   -0.3234 H   0  0  0  0  0  0  0  0  0  0  0  0
   -0.0689    1.4316    0.1781 C   0  0  0  0  0  0  0  0  0  0  0  0
   -0.8089    1.8315    0.8791 H   0  0  0  0  0  0  0  0  0  0  0  0
    0.8560    2.0030    0.3120 H   0  0  0  0  0  0  0  0  0  0  0  0
   -0.6285    1.6659   -1.5610 S   0  0  0  0  0  0  0  0  0  0  0  0
   -0.6221    3.0149   -1.6500 H   0  0  0  0  0  0  0  0  0  0  0  0
    0.9952   -0.2096    1.7873 C   0  0  0  0  0  0  0  0  0  0  0  0
    1.9133    0.5704    2.0139 O   0  0  0  0  0  0  0  0  0  0  0  0
    0.7049   -1.1382    2.7679 N   0  0  0  0  0  0  0  0  0  0  0  0
    0.1001   -1.9060    2.4700 H   0  0  0  0  0  0  0  0  0  0  0  0
    1.5190   -1.3289    3.9620 C   0  0  0  0  0  0  0  0  0  0  0  0
    1.5630   -0.4050    4.5481 H   0  0  0  0  0  0  0  0  0  0  0  0
    1.0873   -2.1138    4.5904 H   0  0  0  0  0  0  0  0  0  0  0  0
    2.5378   -1.6233    3.6892 H   0  0  0  0  0  0  0  0  0  0  0  0
  1  2  1  0  0  0  0
  2  3  1  0  0  0  0
  2  4  1  0  0  0  0
  2  5  1  0  0  0  0
  5  6  2  0  0  0  0
  5  7  1  0  0  0  0
  7  8  1  0  0  0  0
  7  9  1  0  0  0  0
  9 10  1  0  0  0  0
  9 11  1  0  0  0  0
  9 16  1  0  0  0  0
 11 12  1  0  0  0  0
 11 13  1  0  0  0  0
 11 14  1  0  0  0  0
 14 15  1  0  0  0  0
 16 17  2  0  0  0  0
 16 18  1  0  0  0  0
 18 19  1  0  0  0  0
 18 20  1  0  0  0  0
 20 21  1  0  0  0  0
 20 22  1  0  0  0  0
 20 23  1  0  0  0  0
M  END
$$$$

  -OEChem-01062216073D

 23 22  0     1  0  0  0  0  0999 V2000
   -3.2368   -3.3119    0.9439 H   0  0  0  0  0  0  0  0  0  0  0  0
   -3.0606   -2.2840    0.6145 C   0  0  0  0  0  0  0  0  0  0  0  0
   -3.6435   -1.6087    1.2454 H   0  0  0  0  0  0  0  0  0  0  0  0
   -3.3951   -2.1843   -0.4210 H   0  0  0  0  0  0  0  0  0  0  0  0
   -1.5853   -1.9463    0.7175 C   0  0  0  0  0  0  0  0  0  0  0  0
   -0.7963   -2.8171    1.0415 O   0  0  0  0  0  0  0  0  0  0  0  0
   -1.1596   -0.6846    0.3525 N   0  0  0  0  0  0  0  0  0  0  0  0
   -1.8781   -0.0896   -0.0527 H   0  0  0  0  0  0  0  0  0  0  0  0
    0.1932   -0.0832    0.4318 C   0  0  1  0  0  0  0  0  0  0  0  0
    0.8001   -0.5143   -0.3706 H   0  0  0  0  0  0  0  0  0  0  0  0
   -0.0239    1.4134    0.1337 C   0  0  0  0  0  0  0  0  0  0  0  0
   -0.7302    1.8446    0.8506 H   0  0  0  0  0  0  0  0  0  0  0  0
    0.9207    1.9592    0.2312 H   0  0  0  0  0  0  0  0  0  0  0  0
   -0.6243    1.6414   -1.5923 S   0  0  0  0  0  0  0  0  0  0  0  0
   -0.6062    2.9893   -1.6923 H   0  0  0  0  0  0  0  0  0  0  0  0
    1.0405   -0.2610    1.7331 C   0  0  0  0  0  0  0  0  0  0  0  0
    1.8272    0.6177    2.0679 O   0  0  0  0  0  0  0  0  0  0  0  0
    0.9484   -1.3570    2.5679 N   0  0  0  0  0  0  0  0  0  0  0  0
    0.3868   -2.1373    2.2208 H   0  0  0  0  0  0  0  0  0  0  0  0
    1.7877   -1.5672    3.7408 C   0  0  0  0  0  0  0  0  0  0  0  0
    1.6674   -0.7434    4.4521 H   0  0  0  0  0  0  0  0  0  0  0  0
    1.5064   -2.4983    4.2420 H   0  0  0  0  0  0  0  0  0  0  0  0
    2.8416   -1.6331    3.4512 H   0  0  0  0  0  0  0  0  0  0  0  0
  1  2  1  0  0  0  0
  2  3  1  0  0  0  0
  2  4  1  0  0  0  0
  2  5  1  0  0  0  0
  5  6  2  0  0  0  0
  5  7  1  0  0  0  0
  7  8  1  0  0  0  0
  7  9  1  0  0  0  0
  9 10  1  0  0  0  0
  9 11  1  0  0  0  0
  9 16  1  0  0  0  0
 11 12  1  0  0  0  0
 11 13  1  0  0  0  0
 11 14  1  0  0  0  0
 14 15  1  0  0  0  0
 16 17  2  0  0  0  0
 16 18  1  0  0  0  0
 18 19  1  0  0  0  0
 18 20  1  0  0  0  0
 20 21  1  0  0  0  0
 20 22  1  0  0  0  0
 20 23  1  0  0  0  0
M  END
$$$$

  -OEChem-01062216073D

 23 22  0     1  0  0  0  0  0999 V2000
   -3.1010   -3.4048    0.8903 H   0  0  0  0  0  0  0  0  0  0  0  0
   -2.9645   -2.3607    0.5942 C   0  0  0  0  0  0  0  0  0  0  0  0
   -3.5472   -1.7262    1.2663 H   0  0  0  0  0  0  0  0  0  0  0  0
   -3.3321   -2.2340   -0.4271 H   0  0  0  0  0  0  0  0  0  0  0  0
   -1.4972   -1.9827    0.6680 C   0  0  0  0  0  0  0  0  0  0  0  0
   -0.6738   -2.8412    0.9347 O   0  0  0  0  0  0  0  0  0  0  0  0
   -1.1195   -0.6974    0.3331 N   0  0  0  0  0  0  0  0  0  0  0  0
   -1.8684   -0.1082   -0.0223 H   0  0  0  0  0  0  0  0  0  0  0  0
    0.2108   -0.0509    0.4255 C   0  0  1  0  0  0  0  0  0  0  0  0
    0.8331   -0.4461   -0.3835 H   0  0  0  0  0  0  0  0  0  0  0  0
   -0.0443    1.4446    0.1547 C   0  0  0  0  0  0  0  0  0  0  0  0
   -0.7631    1.8440    0.8779 H   0  0  0  0  0  0  0  0  0  0  0  0
    0.8879    2.0088    0.2677 H   0  0  0  0  0  0  0  0  0  0  0  0
   -0.6455    1.6930   -1.5680 S   0  0  0  0  0  0  0  0  0  0  0  0
   -0.6636    3.0430   -1.6380 H   0  0  0  0  0  0  0  0  0  0  0  0
    1.0527   -0.2417    1.7274 C   0  0  0  0  0  0  0  0  0  0  0  0
    1.6027    0.7215    2.2504 O   0  0  0  0  0  0  0  0  0  0  0  0
    1.2139   -1.4611    2.3532 N   0  0  0  0  0  0  0  0  0  0  0  0
    0.7237   -2.2550    1.9340 H   0  0  0  0  0  0  0  0  0  0  0  0
    1.9731   -1.6666    3.5798 C   0  0  0  0  0  0  0  0  0  0  0  0
    1.5487   -1.0745    4.3972 H   0  0  0  0  0  0  0  0  0  0  0  0
    1.9456   -2.7223    3.8666 H   0  0  0  0  0  0  0  0  0  0  0  0
    3.0187   -1.3745    3.4368 H   0  0  0  0  0  0  0  0  0  0  0  0
  1  2  1  0  0  0  0
  2  3  1  0  0  0  0
  2  4  1  0  0  0  0
  2  5  1  0  0  0  0
  5  6  2  0  0  0  0
  5  7  1  0  0  0  0
  7  8  1  0  0  0  0
  7  9  1  0  0  0  0
  9 10  1  0  0  0  0
  9 11  1  0  0  0  0
  9 16  1  0  0  0  0
 11 12  1  0  0  0  0
 11 13  1  0  0  0  0
 11 14  1  0  0  0  0
 14 15  1  0  0  0  0
 16 17  2  0  0  0  0
 16 18  1  0  0  0  0
 18 19  1  0  0  0  0
 18 20  1  0  0  0  0
 20 21  1  0  0  0  0
 20 22  1  0  0  0  0
 20 23  1  0  0  0  0
M  END
$$$$

  -OEChem-01062216073D

 23 22  0     1  0  0  0  0  0999 V2000
   -3.0213   -3.4191    0.9783 H   0  0  0  0  0  0  0  0  0  0  0  0
   -2.9117   -2.3761    0.6679 C   0  0  0  0  0  0  0  0  0  0  0  0
   -3.4885   -1.7452    1.3487 H   0  0  0  0  0  0  0  0  0  0  0  0
   -3.3081   -2.2668   -0.3444 H   0  0  0  0  0  0  0  0  0  0  0  0
   -1.4499   -1.9717    0.6984 C   0  0  0  0  0  0  0  0  0  0  0  0
   -0.6024   -2.8127    0.9467 O   0  0  0  0  0  0  0  0  0  0  0  0
   -1.1018   -0.6833    0.3448 N   0  0  0  0  0  0  0  0  0  0  0  0
   -1.8680   -0.0974    0.0227 H   0  0  0  0  0  0  0  0  0  0  0  0
    0.2275   -0.0344    0.3993 C   0  0  1  0  0  0  0  0  0  0  0  0
    0.8320   -0.4298   -0.4229 H   0  0  0  0  0  0  0  0  0  0  0  0
   -0.0231    1.4619    0.1370 C   0  0  0  0  0  0  0  0  0  0  0  0
   -0.7225    1.8643    0.8775 H   0  0  0  0  0  0  0  0  0  0  0  0
    0.9168    2.0168    0.2334 H   0  0  0  0  0  0  0  0  0  0  0  0
   -0.6673    1.7156   -1.5691 S   0  0  0  0  0  0  0  0  0  0  0  0
   -0.6787    3.0657   -1.6379 H   0  0  0  0  0  0  0  0  0  0  0  0
    1.0847   -0.2340    1.6867 C   0  0  0  0  0  0  0  0  0  0  0  0
    1.4456    0.7345    2.3471 O   0  0  0  0  0  0  0  0  0  0  0  0
    1.4869   -1.4821    2.1177 N   0  0  0  0  0  0  0  0  0  0  0  0
    1.0185   -2.2731    1.6677 H   0  0  0  0  0  0  0  0  0  0  0  0
    2.1994   -1.7163    3.3671 C   0  0  0  0  0  0  0  0  0  0  0  0
    1.5964   -1.3866    4.2195 H   0  0  0  0  0  0  0  0  0  0  0  0
    2.4128   -2.7831    3.4844 H   0  0  0  0  0  0  0  0  0  0  0  0
    3.1498   -1.1723    3.3744 H   0  0  0  0  0  0  0  0  0  0  0  0
  1  2  1  0  0  0  0
  2  3  1  0  0  0  0
  2  4  1  0  0  0  0
  2  5  1  0  0  0  0
  5  6  2  0  0  0  0
  5  7  1  0  0  0  0
  7  8  1  0  0  0  0
  7  9  1  0  0  0  0
  9 10  1  0  0  0  0
  9 11  1  0  0  0  0
  9 16  1  0  0  0  0
 11 12  1  0  0  0  0
 11 13  1  0  0  0  0
 11 14  1  0  0  0  0
 14 15  1  0  0  0  0
 16 17  2  0  0  0  0
 16 18  1  0  0  0  0
 18 19  1  0  0  0  0
 18 20  1  0  0  0  0
 20 21  1  0  0  0  0
 20 22  1  0  0  0  0
 20 23  1  0  0  0  0
M  END
$$$$

  -OEChem-01062216073D

 23 22  0     1  0  0  0  0  0999 V2000
   -2.9171   -3.4440    1.0602 H   0  0  0  0  0  0  0  0  0  0  0  0
   -2.8451   -2.4043    0.7290 C   0  0  0  0  0  0  0  0  0  0  0  0
   -3.4254   -1.7778    1.4105 H   0  0  0  0  0  0  0  0  0  0  0  0
   -3.2659   -2.3253   -0.2763 H   0  0  0  0  0  0  0  0  0  0  0  0
   -1.3958   -1.9567    0.7212 C   0  0  0  0  0  0  0  0  0  0  0  0
   -0.5150   -2.7629    0.9727 O   0  0  0  0  0  0  0  0  0  0  0  0
   -1.0872   -0.6663    0.3398 N   0  0  0  0  0  0  0  0  0  0  0  0
   -1.8683   -0.0915    0.0342 H   0  0  0  0  0  0  0  0  0  0  0  0
    0.2376   -0.0127    0.3772 C   0  0  1  0  0  0  0  0  0  0  0  0
    0.8428   -0.4096   -0.4440 H   0  0  0  0  0  0  0  0  0  0  0  0
   -0.0037    1.4840    0.1191 C   0  0  0  0  0  0  0  0  0  0  0  0
   -0.6957    1.8896    0.8650 H   0  0  0  0  0  0  0  0  0  0  0  0
    0.9422    2.0286    0.2144 H   0  0  0  0  0  0  0  0  0  0  0  0
   -0.6633    1.7457   -1.5797 S   0  0  0  0  0  0  0  0  0  0  0  0
   -0.6841    3.0959   -1.6378 H   0  0  0  0  0  0  0  0  0  0  0  0
    1.0739   -0.2128    1.6737 C   0  0  0  0  0  0  0  0  0  0  0  0
    1.2511    0.7187    2.4521 O   0  0  0  0  0  0  0  0  0  0  0  0
    1.7059   -1.4131    1.9326 N   0  0  0  0  0  0  0  0  0  0  0  0
    1.2993   -2.2126    1.4398 H   0  0  0  0  0  0  0  0  0  0  0  0
    2.4283   -1.6754    3.1709 C   0  0  0  0  0  0  0  0  0  0  0  0
    1.7534   -1.6074    4.0303 H   0  0  0  0  0  0  0  0  0  0  0  0
    2.8621   -2.6795    3.1477 H   0  0  0  0  0  0  0  0  0  0  0  0
    3.2411   -0.9535    3.3023 H   0  0  0  0  0  0  0  0  0  0  0  0
  1  2  1  0  0  0  0
  2  3  1  0  0  0  0
  2  4  1  0  0  0  0
  2  5  1  0  0  0  0
  5  6  2  0  0  0  0
  5  7  1  0  0  0  0
  7  8  1  0  0  0  0
  7  9  1  0  0  0  0
  9 10  1  0  0  0  0
  9 11  1  0  0  0  0
  9 16  1  0  0  0  0
 11 12  1  0  0  0  0
 11 13  1  0  0  0  0
 11 14  1  0  0  0  0
 14 15  1  0  0  0  0
 16 17  2  0  0  0  0
 16 18  1  0  0  0  0
 18 19  1  0  0  0  0
 18 20  1  0  0  0  0
 20 21  1  0  0  0  0
 20 22  1  0  0  0  0
 20 23  1  0  0  0  0
M  END
$$$$

  -OEChem-01062216073D

 23 22  0     1  0  0  0  0  0999 V2000
   -2.8097   -3.4638    1.1364 H   0  0  0  0  0  0  0  0  0  0  0  0
   -2.7771   -2.4291    0.7838 C   0  0  0  0  0  0  0  0  0  0  0  0
   -3.3564   -1.8061    1.4695 H   0  0  0  0  0  0  0  0  0  0  0  0
   -3.2269   -2.3815   -0.2109 H   0  0  0  0  0  0  0  0  0  0  0  0
   -1.3423   -1.9411    0.7275 C   0  0  0  0  0  0  0  0  0  0  0  0
   -0.4274   -2.7139    0.9674 O   0  0  0  0  0  0  0  0  0  0  0  0
   -1.0755   -0.6493    0.3210 N   0  0  0  0  0  0  0  0  0  0  0  0
   -1.8735   -0.0781    0.0562 H   0  0  0  0  0  0  0  0  0  0  0  0
    0.2449    0.0072    0.3506 C   0  0  1  0  0  0  0  0  0  0  0  0
    0.8555   -0.3882   -0.4673 H   0  0  0  0  0  0  0  0  0  0  0  0
    0.0120    1.5057    0.1020 C   0  0  0  0  0  0  0  0  0  0  0  0
   -0.6773    1.9094    0.8517 H   0  0  0  0  0  0  0  0  0  0  0  0
    0.9613    2.0434    0.2019 H   0  0  0  0  0  0  0  0  0  0  0  0
   -0.6557    1.7815   -1.5912 S   0  0  0  0  0  0  0  0  0  0  0  0
   -0.6959    3.1318   -1.6311 H   0  0  0  0  0  0  0  0  0  0  0  0
    1.0491   -0.1976    1.6622 C   0  0  0  0  0  0  0  0  0  0  0  0
    1.0283    0.6525    2.5464 O   0  0  0  0  0  0  0  0  0  0  0  0
    1.9054   -1.2742    1.7867 N   0  0  0  0  0  0  0  0  0  0  0  0
    1.6369   -2.0759    1.2138 H   0  0  0  0  0  0  0  0  0  0  0  0
    2.6372   -1.5463    3.0175 C   0  0  0  0  0  0  0  0  0  0  0  0
    1.9428   -1.7119    3.8479 H   0  0  0  0  0  0  0  0  0  0  0  0
    3.2558   -2.4408    2.8975 H   0  0  0  0  0  0  0  0  0  0  0  0
    3.2935   -0.7064    3.2689 H   0  0  0  0  0  0  0  0  0  0  0  0
  1  2  1  0  0  0  0
  2  3  1  0  0  0  0
  2  4  1  0  0  0  0
  2  5  1  0  0  0  0
  5  6  2  0  0  0  0
  5  7  1  0  0  0  0
  7  8  1  0  0  0  0
  7  9  1  0  0  0  0
  9 10  1  0  0  0  0
  9 11  1  0  0  0  0
  9 16  1  0  0  0  0
 11 12  1  0  0  0  0
 11 13  1  0  0  0  0
 11 14  1  0  0  0  0
 14 15  1  0  0  0  0
 16 17  2  0  0  0  0
 16 18  1  0  0  0  0
 18 19  1  0  0  0  0
 18 20  1  0  0  0  0
 20 21  1  0  0  0  0
 20 22  1  0  0  0  0
 20 23  1  0  0  0  0
M  END
$$$$

  -OEChem-01062216073D

 23 22  0     1  0  0  0  0  0999 V2000
   -2.7459   -3.4753    1.1859 H   0  0  0  0  0  0  0  0  0  0  0  0
   -2.7395   -2.4429    0.8253 C   0  0  0  0  0  0  0  0  0  0  0  0
   -3.3086   -1.8239    1.5231 H   0  0  0  0  0  0  0  0  0  0  0  0
   -3.2173   -2.4094   -0.1568 H   0  0  0  0  0  0  0  0  0  0  0  0
   -1.3146   -1.9335    0.7251 C   0  0  0  0  0  0  0  0  0  0  0  0
   -0.3794   -2.6864    0.9509 O   0  0  0  0  0  0  0  0  0  0  0  0
   -1.0749   -0.6415    0.3026 N   0  0  0  0  0  0  0  0  0  0  0  0
   -1.8842   -0.0687    0.0798 H   0  0  0  0  0  0  0  0  0  0  0  0
    0.2427    0.0172    0.3303 C   0  0  1  0  0  0  0  0  0  0  0  0
    0.8554   -0.3797   -0.4851 H   0  0  0  0  0  0  0  0  0  0  0  0
    0.0215    1.5178    0.0895 C   0  0  0  0  0  0  0  0  0  0  0  0
   -0.6669    1.9221    0.8397 H   0  0  0  0  0  0  0  0  0  0  0  0
    0.9741    2.0481    0.1951 H   0  0  0  0  0  0  0  0  0  0  0  0
   -0.6462    1.8074   -1.6012 S   0  0  0  0  0  0  0  0  0  0  0  0
   -0.6895    3.1580   -1.6309 H   0  0  0  0  0  0  0  0  0  0  0  0
    1.0276   -0.1866    1.6508 C   0  0  0  0  0  0  0  0  0  0  0  0
    0.8014    0.5283    2.6215 O   0  0  0  0  0  0  0  0  0  0  0  0
    2.0950   -1.0636    1.6890 N   0  0  0  0  0  0  0  0  0  0  0  0
    2.0513   -1.8073    0.9947 H   0  0  0  0  0  0  0  0  0  0  0  0
    2.8319   -1.3341    2.9171 C   0  0  0  0  0  0  0  0  0  0  0  0
    2.1688   -1.7663    3.6740 H   0  0  0  0  0  0  0  0  0  0  0  0
    3.6434   -2.0414    2.7212 H   0  0  0  0  0  0  0  0  0  0  0  0
    3.2692   -0.4123    3.3155 H   0  0  0  0  0  0  0  0  0  0  0  0
  1  2  1  0  0  0  0
  2  3  1  0  0  0  0
  2  4  1  0  0  0  0
  2  5  1  0  0  0  0
  5  6  2  0  0  0  0
  5  7  1  0  0  0  0
  7  8  1  0  0  0  0
  7  9  1  0  0  0  0
  9 10  1  0  0  0  0
  9 11  1  0  0  0  0
  9 16  1  0  0  0  0
 11 12  1  0  0  0  0
 11 13  1  0  0  0  0
 11 14  1  0  0  0  0
 14 15  1  0  0  0  0
 16 17  2  0  0  0  0
 16 18  1  0  0  0  0
 18 19  1  0  0  0  0
 18 20  1  0  0  0  0
 20 21  1  0  0  0  0
 20 22  1  0  0  0  0
 20 23  1  0  0  0  0
M  END
$$$$

  -OEChem-01062216073D

 23 22  0     1  0  0  0  0  0999 V2000
   -2.7121   -3.4789    1.2108 H   0  0  0  0  0  0  0  0  0  0  0  0
   -2.7181   -2.4449    0.8551 C   0  0  0  0  0  0  0  0  0  0  0  0
   -3.2665   -1.8297    1.5724 H   0  0  0  0  0  0  0  0  0  0  0  0
   -3.2256   -2.4076   -0.1117 H   0  0  0  0  0  0  0  0  0  0  0  0
   -1.2972   -1.9335    0.7151 C   0  0  0  0  0  0  0  0  0  0  0  0
   -0.3540   -2.6817    0.9229 O   0  0  0  0  0  0  0  0  0  0  0  0
   -1.0713   -0.6434    0.2796 N   0  0  0  0  0  0  0  0  0  0  0  0
   -1.8877   -0.0641    0.1070 H   0  0  0  0  0  0  0  0  0  0  0  0
    0.2443    0.0177    0.3093 C   0  0  1  0  0  0  0  0  0  0  0  0
    0.8597   -0.3808   -0.5031 H   0  0  0  0  0  0  0  0  0  0  0  0
    0.0268    1.5190    0.0780 C   0  0  0  0  0  0  0  0  0  0  0  0
   -0.6612    1.9185    0.8315 H   0  0  0  0  0  0  0  0  0  0  0  0
    0.9801    2.0470    0.1872 H   0  0  0  0  0  0  0  0  0  0  0  0
   -0.6411    1.8214   -1.6102 S   0  0  0  0  0  0  0  0  0  0  0  0
   -0.7077    3.1713   -1.6219 H   0  0  0  0  0  0  0  0  0  0  0  0
    1.0160   -0.1770    1.6369 C   0  0  0  0  0  0  0  0  0  0  0  0
    0.6073    0.3517    2.6654 O   0  0  0  0  0  0  0  0  0  0  0  0
    2.2523   -0.7955    1.6375 N   0  0  0  0  0  0  0  0  0  0  0  0
    2.4415   -1.3911    0.8359 H   0  0  0  0  0  0  0  0  0  0  0  0
    2.9850   -1.0608    2.8694 C   0  0  0  0  0  0  0  0  0  0  0  0
    2.4042   -1.7175    3.5258 H   0  0  0  0  0  0  0  0  0  0  0  0
    3.9381   -1.5487    2.6444 H   0  0  0  0  0  0  0  0  0  0  0  0
    3.1946   -0.1266    3.4010 H   0  0  0  0  0  0  0  0  0  0  0  0
  1  2  1  0  0  0  0
  2  3  1  0  0  0  0
  2  4  1  0  0  0  0
  2  5  1  0  0  0  0
  5  6  2  0  0  0  0
  5  7  1  0  0  0  0
  7  8  1  0  0  0  0
  7  9  1  0  0  0  0
  9 10  1  0  0  0  0
  9 11  1  0  0  0  0
  9 16  1  0  0  0  0
 11 12  1  0  0  0  0
 11 13  1  0  0  0  0
 11 14  1  0  0  0  0
 14 15  1  0  0  0  0
 16 17  2  0  0  0  0
 16 18  1  0  0  0  0
 18 19  1  0  0  0  0
 18 20  1  0  0  0  0
 20 21  1  0  0  0  0
 20 22  1  0  0  0  0
 20 23  1  0  0  0  0
M  END
$$$$

  -OEChem-01062216073D

 23 22  0     1  0  0  0  0  0999 V2000
   -2.6973   -3.4817    1.2301 H   0  0  0  0  0  0  0  0  0  0  0  0
   -2.7103   -2.4460    0.8790 C   0  0  0  0  0  0  0  0  0  0  0  0
   -3.2208   -1.8297    1.6228 H   0  0  0  0  0  0  0  0  0  0  0  0
   -3.2597   -2.3995   -0.0643 H   0  0  0  0  0  0  0  0  0  0  0  0
   -1.2929   -1.9450    0.6791 C   0  0  0  0  0  0  0  0  0  0  0  0
   -0.3474   -2.7015    0.8412 O   0  0  0  0  0  0  0  0  0  0  0  0
   -1.0750   -0.6528    0.2447 N   0  0  0  0  0  0  0  0  0  0  0  0
   -1.8947   -0.0623    0.1411 H   0  0  0  0  0  0  0  0  0  0  0  0
    0.2404    0.0084    0.2955 C   0  0  1  0  0  0  0  0  0  0  0  0
    0.8655   -0.3884   -0.5102 H   0  0  0  0  0  0  0  0  0  0  0  0
    0.0313    1.5120    0.0772 C   0  0  0  0  0  0  0  0  0  0  0  0
   -0.6642    1.9047    0.8274 H   0  0  0  0  0  0  0  0  0  0  0  0
    0.9846    2.0366    0.2022 H   0  0  0  0  0  0  0  0  0  0  0  0
   -0.6154    1.8351   -1.6152 S   0  0  0  0  0  0  0  0  0  0  0  0
   -0.6794    3.1851   -1.6160 H   0  0  0  0  0  0  0  0  0  0  0  0
    0.9937   -0.1858    1.6327 C   0  0  0  0  0  0  0  0  0  0  0  0
    0.4556    0.1365    2.6867 O   0  0  0  0  0  0  0  0  0  0  0  0
    2.3378   -0.5110    1.6326 N   0  0  0  0  0  0  0  0  0  0  0  0
    2.7032   -0.9077    0.7717 H   0  0  0  0  0  0  0  0  0  0  0  0
    3.0889   -0.7263    2.8633 C   0  0  0  0  0  0  0  0  0  0  0  0
    2.6649   -1.5632    3.4284 H   0  0  0  0  0  0  0  0  0  0  0  0
    4.1337   -0.9557    2.6331 H   0  0  0  0  0  0  0  0  0  0  0  0
    3.0642    0.1709    3.4908 H   0  0  0  0  0  0  0  0  0  0  0  0
  1  2  1  0  0  0  0
  2  3  1  0  0  0  0
  2  4  1  0  0  0  0
  2  5  1  0  0  0  0
  5  6  2  0  0  0  0
  5  7  1  0  0  0  0
  7  8  1  0  0  0  0
  7  9  1  0  0  0  0
  9 10  1  0  0  0  0
  9 11  1  0  0  0  0
  9 16  1  0  0  0  0
 11 12  1  0  0  0  0
 11 13  1  0  0  0  0
 11 14  1  0  0  0  0
 14 15  1  0  0  0  0
 16 17  2  0  0  0  0
 16 18  1  0  0  0  0
 18 19  1  0  0  0  0
 18 20  1  0  0  0  0
 20 21  1  0  0  0  0
 20 22  1  0  0  0  0
 20 23  1  0  0  0  0
M  END
$$$$

  -OEChem-01062216073D

 23 22  0     1  0  0  0  0  0999 V2000
   -2.6954   -3.4845    1.2270 H   0  0  0  0  0  0  0  0  0  0  0  0
   -2.7099   -2.4462    0.8840 C   0  0  0  0  0  0  0  0  0  0  0  0
   -3.2013   -1.8329    1.6430 H   0  0  0  0  0  0  0  0  0  0  0  0
   -3.2783   -2.3900   -0.0472 H   0  0  0  0  0  0  0  0  0  0  0  0
   -1.2938   -1.9523    0.6580 C   0  0  0  0  0  0  0  0  0  0  0  0
   -0.3510   -2.7189    0.7848 O   0  0  0  0  0  0  0  0  0  0  0  0
   -1.0756   -0.6591    0.2258 N   0  0  0  0  0  0  0  0  0  0  0  0
   -1.8940   -0.0624    0.1555 H   0  0  0  0  0  0  0  0  0  0  0  0
    0.2418   -0.0020    0.2937 C   0  0  1  0  0  0  0  0  0  0  0  0
    0.8739   -0.3991   -0.5063 H   0  0  0  0  0  0  0  0  0  0  0  0
    0.0325    1.5025    0.0819 C   0  0  0  0  0  0  0  0  0  0  0  0
   -0.6709    1.8881    0.8281 H   0  0  0  0  0  0  0  0  0  0  0  0
    0.9827    2.0297    0.2186 H   0  0  0  0  0  0  0  0  0  0  0  0
   -0.5990    1.8368   -1.6142 S   0  0  0  0  0  0  0  0  0  0  0  0
   -0.6834    3.1856   -1.5997 H   0  0  0  0  0  0  0  0  0  0  0  0
    0.9864   -0.1943    1.6369 C   0  0  0  0  0  0  0  0  0  0  0  0
    0.3780   -0.0771    2.6955 O   0  0  0  0  0  0  0  0  0  0  0  0
    2.3695   -0.2120    1.6629 N   0  0  0  0  0  0  0  0  0  0  0  0
    2.8386   -0.3974    0.7815 H   0  0  0  0  0  0  0  0  0  0  0  0
    3.1280   -0.3719    2.8979 C   0  0  0  0  0  0  0  0  0  0  0  0
    2.8657   -1.3154    3.3884 H   0  0  0  0  0  0  0  0  0  0  0  0
    4.2013   -0.3787    2.6848 H   0  0  0  0  0  0  0  0  0  0  0  0
    2.9194    0.4533    3.5869 H   0  0  0  0  0  0  0  0  0  0  0  0
  1  2  1  0  0  0  0
  2  3  1  0  0  0  0
  2  4  1  0  0  0  0
  2  5  1  0  0  0  0
  5  6  2  0  0  0  0
  5  7  1  0  0  0  0
  7  8  1  0  0  0  0
  7  9  1  0  0  0  0
  9 10  1  0  0  0  0
  9 11  1  0  0  0  0
  9 16  1  0  0  0  0
 11 12  1  0  0  0  0
 11 13  1  0  0  0  0
 11 14  1  0  0  0  0
 14 15  1  0  0  0  0
 16 17  2  0  0  0  0
 16 18  1  0  0  0  0
 18 19  1  0  0  0  0
 18 20  1  0  0  0  0
 20 21  1  0  0  0  0
 20 22  1  0  0  0  0
 20 23  1  0  0  0  0
M  END
$$$$

  -OEChem-01062216073D

 23 22  0     1  0  0  0  0  0999 V2000
   -2.6992   -3.4838    1.2225 H   0  0  0  0  0  0  0  0  0  0  0  0
   -2.7115   -2.4423    0.8895 C   0  0  0  0  0  0  0  0  0  0  0  0
   -3.1726   -1.8299    1.6681 H   0  0  0  0  0  0  0  0  0  0  0  0
   -3.3059   -2.3705   -0.0243 H   0  0  0  0  0  0  0  0  0  0  0  0
   -1.2967   -1.9625    0.6277 C   0  0  0  0  0  0  0  0  0  0  0  0
   -0.3610   -2.7442    0.7057 O   0  0  0  0  0  0  0  0  0  0  0  0
   -1.0748   -0.6661    0.2063 N   0  0  0  0  0  0  0  0  0  0  0  0
   -1.8902   -0.0628    0.1714 H   0  0  0  0  0  0  0  0  0  0  0  0
    0.2459   -0.0162    0.2947 C   0  0  1  0  0  0  0  0  0  0  0  0
    0.8847   -0.4098   -0.5019 H   0  0  0  0  0  0  0  0  0  0  0  0
    0.0347    1.4904    0.0905 C   0  0  0  0  0  0  0  0  0  0  0  0
   -0.6769    1.8692    0.8322 H   0  0  0  0  0  0  0  0  0  0  0  0
    0.9808    2.0219    0.2382 H   0  0  0  0  0  0  0  0  0  0  0  0
   -0.5795    1.8362   -1.6094 S   0  0  0  0  0  0  0  0  0  0  0  0
   -0.6840    3.1833   -1.5812 H   0  0  0  0  0  0  0  0  0  0  0  0
    0.9859   -0.2147    1.6418 C   0  0  0  0  0  0  0  0  0  0  0  0
    0.3518   -0.3084    2.6876 O   0  0  0  0  0  0  0  0  0  0  0  0
    2.3378    0.0713    1.7251 N   0  0  0  0  0  0  0  0  0  0  0  0
    2.8551    0.0992    0.8516 H   0  0  0  0  0  0  0  0  0  0  0  0
    3.0867   -0.0143    2.9736 C   0  0  0  0  0  0  0  0  0  0  0  0
    3.0204   -1.0248    3.3909 H   0  0  0  0  0  0  0  0  0  0  0  0
    4.1413    0.2200    2.7995 H   0  0  0  0  0  0  0  0  0  0  0  0
    2.6925    0.6968    3.7073 H   0  0  0  0  0  0  0  0  0  0  0  0
  1  2  1  0  0  0  0
  2  3  1  0  0  0  0
  2  4  1  0  0  0  0
  2  5  1  0  0  0  0
  5  6  2  0  0  0  0
  5  7  1  0  0  0  0
  7  8  1  0  0  0  0
  7  9  1  0  0  0  0
  9 10  1  0  0  0  0
  9 11  1  0  0  0  0
  9 16  1  0  0  0  0
 11 12  1  0  0  0  0
 11 13  1  0  0  0  0
 11 14  1  0  0  0  0
 14 15  1  0  0  0  0
 16 17  2  0  0  0  0
 16 18  1  0  0  0  0
 18 19  1  0  0  0  0
 18 20  1  0  0  0  0
 20 21  1  0  0  0  0
 20 22  1  0  0  0  0
 20 23  1  0  0  0  0
M  END
$$$$

  -OEChem-01062216073D

 23 22  0     1  0  0  0  0  0999 V2000
   -2.7993   -3.4506    1.1403 H   0  0  0  0  0  0  0  0  0  0  0  0
   -2.7559   -2.3851    0.8976 C   0  0  0  0  0  0  0  0  0  0  0  0
   -3.0884   -1.8136    1.7673 H   0  0  0  0  0  0  0  0  0  0  0  0
   -3.4252   -2.1857    0.0576 H   0  0  0  0  0  0  0  0  0  0  0  0
   -1.3364   -1.9923    0.5366 C   0  0  0  0  0  0  0  0  0  0  0  0
   -0.4769   -2.8522    0.4210 O   0  0  0  0  0  0  0  0  0  0  0  0
   -1.0554   -0.6924    0.1620 N   0  0  0  0  0  0  0  0  0  0  0  0
   -1.8493   -0.0601    0.1817 H   0  0  0  0  0  0  0  0  0  0  0  0
    0.2761   -0.0638    0.2920 C   0  0  1  0  0  0  0  0  0  0  0  0
    0.8271   -0.2264   -0.6395 H   0  0  0  0  0  0  0  0  0  0  0  0
    0.0098    1.4387    0.4847 C   0  0  0  0  0  0  0  0  0  0  0  0
   -0.6366    1.5913    1.3560 H   0  0  0  0  0  0  0  0  0  0  0  0
    0.9479    1.9696    0.6740 H   0  0  0  0  0  0  0  0  0  0  0  0
   -0.7689    2.1574   -1.0203 S   0  0  0  0  0  0  0  0  0  0  0  0
   -0.8875    3.4551   -0.6611 H   0  0  0  0  0  0  0  0  0  0  0  0
    1.1902   -0.5444    1.4561 C   0  0  0  0  0  0  0  0  0  0  0  0
    0.7075   -1.0363    2.4700 O   0  0  0  0  0  0  0  0  0  0  0  0
    2.4478    0.0215    1.5974 N   0  0  0  0  0  0  0  0  0  0  0  0
    2.8603    0.4381    0.7683 H   0  0  0  0  0  0  0  0  0  0  0  0
    3.3072   -0.2242    2.7510 C   0  0  0  0  0  0  0  0  0  0  0  0
    3.4837   -1.2980    2.8759 H   0  0  0  0  0  0  0  0  0  0  0  0
    4.2733    0.2716    2.6164 H   0  0  0  0  0  0  0  0  0  0  0  0
    2.8446    0.1650    3.6642 H   0  0  0  0  0  0  0  0  0  0  0  0
  1  2  1  0  0  0  0
  2  3  1  0  0  0  0
  2  4  1  0  0  0  0
  2  5  1  0  0  0  0
  5  6  2  0  0  0  0
  5  7  1  0  0  0  0
  7  8  1  0  0  0  0
  7  9  1  0  0  0  0
  9 10  1  0  0  0  0
  9 11  1  0  0  0  0
  9 16  1  0  0  0  0
 11 12  1  0  0  0  0
 11 13  1  0  0  0  0
 11 14  1  0  0  0  0
 14 15  1  0  0  0  0
 16 17  2  0  0  0  0
 16 18  1  0  0  0  0
 18 19  1  0  0  0  0
 18 20  1  0  0  0  0
 20 21  1  0  0  0  0
 20 22  1  0  0  0  0
 20 23  1  0  0  0  0
M  END
$$$$

  -OEChem-01062216073D

 23 22  0     1  0  0  0  0  0999 V2000
   -2.8166   -3.4428    1.1220 H   0  0  0  0  0  0  0  0  0  0  0  0
   -2.7568   -2.3722    0.9069 C   0  0  0  0  0  0  0  0  0  0  0  0
   -3.0581   -1.8181    1.7990 H   0  0  0  0  0  0  0  0  0  0  0  0
   -3.4403   -2.1370    0.0877 H   0  0  0  0  0  0  0  0  0  0  0  0
   -1.3376   -1.9988    0.5238 C   0  0  0  0  0  0  0  0  0  0  0  0
   -0.5092   -2.8752    0.3350 O   0  0  0  0  0  0  0  0  0  0  0  0
   -1.0421   -0.6971    0.1678 N   0  0  0  0  0  0  0  0  0  0  0  0
   -1.8342   -0.0632    0.1935 H   0  0  0  0  0  0  0  0  0  0  0  0
    0.2888   -0.0651    0.3075 C   0  0  1  0  0  0  0  0  0  0  0  0
    0.8420   -0.2254   -0.6230 H   0  0  0  0  0  0  0  0  0  0  0  0
   -0.0112    1.4375    0.4784 C   0  0  0  0  0  0  0  0  0  0  0  0
   -0.6706    1.5887    1.3402 H   0  0  0  0  0  0  0  0  0  0  0  0
    0.9092    1.9972    0.6665 H   0  0  0  0  0  0  0  0  0  0  0  0
   -0.7821    2.1239   -1.0456 S   0  0  0  0  0  0  0  0  0  0  0  0
   -0.9340    3.4235   -0.7058 H   0  0  0  0  0  0  0  0  0  0  0  0
    1.2243   -0.5364    1.4671 C   0  0  0  0  0  0  0  0  0  0  0  0
    0.8242   -1.2717    2.3605 O   0  0  0  0  0  0  0  0  0  0  0  0
    2.3279    0.2357    1.8019 N   0  0  0  0  0  0  0  0  0  0  0  0
    2.6902    0.8536    1.0827 H   0  0  0  0  0  0  0  0  0  0  0  0
    3.1537   -0.0106    2.9808 C   0  0  0  0  0  0  0  0  0  0  0  0
    3.5476   -1.0325    2.9663 H   0  0  0  0  0  0  0  0  0  0  0  0
    3.9979    0.6852    3.0039 H   0  0  0  0  0  0  0  0  0  0  0  0
    2.5684    0.1283    3.8960 H   0  0  0  0  0  0  0  0  0  0  0  0
  1  2  1  0  0  0  0
  2  3  1  0  0  0  0
  2  4  1  0  0  0  0
  2  5  1  0  0  0  0
  5  6  2  0  0  0  0
  5  7  1  0  0  0  0
  7  8  1  0  0  0  0
  7  9  1  0  0  0  0
  9 10  1  0  0  0  0
  9 11  1  0  0  0  0
  9 16  1  0  0  0  0
 11 12  1  0  0  0  0
 11 13  1  0  0  0  0
 11 14  1  0  0  0  0
 14 15  1  0  0  0  0
 16 17  2  0  0  0  0
 16 18  1  0  0  0  0
 18 19  1  0  0  0  0
 18 20  1  0  0  0  0
 20 21  1  0  0  0  0
 20 22  1  0  0  0  0
 20 23  1  0  0  0  0
M  END
$$$$

  -OEChem-01062216073D

 23 22  0     1  0  0  0  0  0999 V2000
   -2.8297   -3.4300    1.1242 H   0  0  0  0  0  0  0  0  0  0  0  0
   -2.7538   -2.3583    0.9198 C   0  0  0  0  0  0  0  0  0  0  0  0
   -3.0301   -1.8092    1.8229 H   0  0  0  0  0  0  0  0  0  0  0  0
   -3.4470   -2.1017    0.1153 H   0  0  0  0  0  0  0  0  0  0  0  0
   -1.3348   -2.0067    0.5157 C   0  0  0  0  0  0  0  0  0  0  0  0
   -0.5444   -2.8995    0.2611 O   0  0  0  0  0  0  0  0  0  0  0  0
   -1.0263   -0.7038    0.1763 N   0  0  0  0  0  0  0  0  0  0  0  0
   -1.8220   -0.0743    0.1890 H   0  0  0  0  0  0  0  0  0  0  0  0
    0.2947   -0.0523    0.3318 C   0  0  1  0  0  0  0  0  0  0  0  0
    0.8604   -0.2166   -0.5908 H   0  0  0  0  0  0  0  0  0  0  0  0
   -0.0405    1.4491    0.4589 C   0  0  0  0  0  0  0  0  0  0  0  0
   -0.7200    1.6100    1.3030 H   0  0  0  0  0  0  0  0  0  0  0  0
    0.8631    2.0357    0.6432 H   0  0  0  0  0  0  0  0  0  0  0  0
   -0.7886    2.0816   -1.0993 S   0  0  0  0  0  0  0  0  0  0  0  0
   -0.9685    3.3876   -0.8017 H   0  0  0  0  0  0  0  0  0  0  0  0
    1.2417   -0.5020    1.4970 C   0  0  0  0  0  0  0  0  0  0  0  0
    1.0454   -1.5019    2.1708 O   0  0  0  0  0  0  0  0  0  0  0  0
    2.1316    0.4049    2.0572 N   0  0  0  0  0  0  0  0  0  0  0  0
    2.3518    1.2323    1.5136 H   0  0  0  0  0  0  0  0  0  0  0  0
    2.9540    0.1110    3.2277 C   0  0  0  0  0  0  0  0  0  0  0  0
    3.5814   -0.7682    3.0455 H   0  0  0  0  0  0  0  0  0  0  0  0
    3.6057    0.9601    3.4547 H   0  0  0  0  0  0  0  0  0  0  0  0
    2.3231   -0.0820    4.1020 H   0  0  0  0  0  0  0  0  0  0  0  0
  1  2  1  0  0  0  0
  2  3  1  0  0  0  0
  2  4  1  0  0  0  0
  2  5  1  0  0  0  0
  5  6  2  0  0  0  0
  5  7  1  0  0  0  0
  7  8  1  0  0  0  0
  7  9  1  0  0  0  0
  9 10  1  0  0  0  0
  9 11  1  0  0  0  0
  9 16  1  0  0  0  0
 11 12  1  0  0  0  0
 11 13  1  0  0  0  0
 11 14  1  0  0  0  0
 14 15  1  0  0  0  0
 16 17  2  0  0  0  0
 16 18  1  0  0  0  0
 18 19  1  0  0  0  0
 18 20  1  0  0  0  0
 20 21  1  0  0  0  0
 20 22  1  0  0  0  0
 20 23  1  0  0  0  0
M  END
$$$$

  -OEChem-01062216073D

 23 22  0     1  0  0  0  0  0999 V2000
   -3.0254   -3.4643    0.8534 H   0  0  0  0  0  0  0  0  0  0  0  0
   -2.8710   -2.4551    0.4609 C   0  0  0  0  0  0  0  0  0  0  0  0
   -3.7249   -1.8332    0.7394 H   0  0  0  0  0  0  0  0  0  0  0  0
   -2.8063   -2.5099   -0.6283 H   0  0  0  0  0  0  0  0  0  0  0  0
   -1.5929   -1.8650    1.0268 C   0  0  0  0  0  0  0  0  0  0  0  0
   -1.0484   -2.4341    1.9520 O   0  0  0  0  0  0  0  0  0  0  0  0
   -1.1895   -0.6203    0.5808 N   0  0  0  0  0  0  0  0  0  0  0  0
   -1.7998   -0.2346   -0.1353 H   0  0  0  0  0  0  0  0  0  0  0  0
    0.1683   -0.0278    0.5908 C   0  0  1  0  0  0  0  0  0  0  0  0
    0.6609   -0.3040   -0.3470 H   0  0  0  0  0  0  0  0  0  0  0  0
   -0.0775    1.4908    0.5770 C   0  0  0  0  0  0  0  0  0  0  0  0
   -0.6991    1.7796    1.4316 H   0  0  0  0  0  0  0  0  0  0  0  0
    0.8714    2.0318    0.6435 H   0  0  0  0  0  0  0  0  0  0  0  0
   -0.8879    1.9810   -1.0032 S   0  0  0  0  0  0  0  0  0  0  0  0
   -0.9765    3.3213   -0.8511 H   0  0  0  0  0  0  0  0  0  0  0  0
    1.1791   -0.4449    1.7018 C   0  0  0  0  0  0  0  0  0  0  0  0
    1.6608   -1.5687    1.6715 O   0  0  0  0  0  0  0  0  0  0  0  0
    1.9412    0.5002    2.3757 N   0  0  0  0  0  0  0  0  0  0  0  0
    1.5853    1.4487    2.4042 H   0  0  0  0  0  0  0  0  0  0  0  0
    3.0577    0.1535    3.2506 C   0  0  0  0  0  0  0  0  0  0  0  0
    3.8533   -0.3385    2.6808 H   0  0  0  0  0  0  0  0  0  0  0  0
    3.4721    1.0553    3.7113 H   0  0  0  0  0  0  0  0  0  0  0  0
    2.7259   -0.5218    4.0468 H   0  0  0  0  0  0  0  0  0  0  0  0
  1  2  1  0  0  0  0
  2  3  1  0  0  0  0
  2  4  1  0  0  0  0
  2  5  1  0  0  0  0
  5  6  2  0  0  0  0
  5  7  1  0  0  0  0
  7  8  1  0  0  0  0
  7  9  1  0  0  0  0
  9 10  1  0  0  0  0
  9 11  1  0  0  0  0
  9 16  1  0  0  0  0
 11 12  1  0  0  0  0
 11 13  1  0  0  0  0
 11 14  1  0  0  0  0
 14 15  1  0  0  0  0
 16 17  2  0  0  0  0
 16 18  1  0  0  0  0
 18 19  1  0  0  0  0
 18 20  1  0  0  0  0
 20 21  1  0  0  0  0
 20 22  1  0  0  0  0
 20 23  1  0  0  0  0
M  END
$$$$

  -OEChem-01062216073D

 23 22  0     1  0  0  0  0  0999 V2000
   -3.0220   -3.4601    0.9119 H   0  0  0  0  0  0  0  0  0  0  0  0
   -2.8794   -2.4553    0.5041 C   0  0  0  0  0  0  0  0  0  0  0  0
   -3.7086   -1.8220    0.8283 H   0  0  0  0  0  0  0  0  0  0  0  0
   -2.8795   -2.5173   -0.5867 H   0  0  0  0  0  0  0  0  0  0  0  0
   -1.5638   -1.8771    0.9908 C   0  0  0  0  0  0  0  0  0  0  0  0
   -0.9397   -2.4784    1.8432 O   0  0  0  0  0  0  0  0  0  0  0  0
   -1.1853   -0.6246    0.5438 N   0  0  0  0  0  0  0  0  0  0  0  0
   -1.8196   -0.2250   -0.1435 H   0  0  0  0  0  0  0  0  0  0  0  0
    0.1668   -0.0225    0.5505 C   0  0  1  0  0  0  0  0  0  0  0  0
    0.6595   -0.2953   -0.3887 H   0  0  0  0  0  0  0  0  0  0  0  0
   -0.0638    1.4971    0.5455 C   0  0  0  0  0  0  0  0  0  0  0  0
   -0.6807    1.7893    1.4020 H   0  0  0  0  0  0  0  0  0  0  0  0
    0.8953    2.0211    0.6170 H   0  0  0  0  0  0  0  0  0  0  0  0
   -0.8758    2.0039   -1.0278 S   0  0  0  0  0  0  0  0  0  0  0  0
   -0.9230    3.3467   -0.8801 H   0  0  0  0  0  0  0  0  0  0  0  0
    1.1661   -0.4501    1.6644 C   0  0  0  0  0  0  0  0  0  0  0  0
    1.8100   -1.4790    1.5079 O   0  0  0  0  0  0  0  0  0  0  0  0
    1.6947    0.4706    2.5585 N   0  0  0  0  0  0  0  0  0  0  0  0
    1.1538    1.3122    2.7231 H   0  0  0  0  0  0  0  0  0  0  0  0
    2.7575    0.1368    3.5015 C   0  0  0  0  0  0  0  0  0  0  0  0
    3.6715   -0.1427    2.9668 H   0  0  0  0  0  0  0  0  0  0  0  0
    2.9822    0.9967    4.1395 H   0  0  0  0  0  0  0  0  0  0  0  0
    2.4544   -0.6996    4.1406 H   0  0  0  0  0  0  0  0  0  0  0  0
  1  2  1  0  0  0  0
  2  3  1  0  0  0  0
  2  4  1  0  0  0  0
  2  5  1  0  0  0  0
  5  6  2  0  0  0  0
  5  7  1  0  0  0  0
  7  8  1  0  0  0  0
  7  9  1  0  0  0  0
  9 10  1  0  0  0  0
  9 11  1  0  0  0  0
  9 16  1  0  0  0  0
 11 12  1  0  0  0  0
 11 13  1  0  0  0  0
 11 14  1  0  0  0  0
 14 15  1  0  0  0  0
 16 17  2  0  0  0  0
 16 18  1  0  0  0  0
 18 19  1  0  0  0  0
 18 20  1  0  0  0  0
 20 21  1  0  0  0  0
 20 22  1  0  0  0  0
 20 23  1  0  0  0  0
M  END
$$$$

  -OEChem-01062216073D

 23 22  0     1  0  0  0  0  0999 V2000
   -3.0029   -3.4642    0.9470 H   0  0  0  0  0  0  0  0  0  0  0  0
   -2.8792   -2.4558    0.5415 C   0  0  0  0  0  0  0  0  0  0  0  0
   -3.6862   -1.8229    0.9182 H   0  0  0  0  0  0  0  0  0  0  0  0
   -2.9408   -2.5068   -0.5482 H   0  0  0  0  0  0  0  0  0  0  0  0
   -1.5358   -1.8872    0.9587 C   0  0  0  0  0  0  0  0  0  0  0  0
   -0.8495   -2.5148    1.7422 O   0  0  0  0  0  0  0  0  0  0  0  0
   -1.1772   -0.6293    0.5102 N   0  0  0  0  0  0  0  0  0  0  0  0
   -1.8325   -0.2172   -0.1494 H   0  0  0  0  0  0  0  0  0  0  0  0
    0.1697   -0.0181    0.5135 C   0  0  1  0  0  0  0  0  0  0  0  0
    0.6607   -0.2864   -0.4282 H   0  0  0  0  0  0  0  0  0  0  0  0
   -0.0479    1.5022    0.5229 C   0  0  0  0  0  0  0  0  0  0  0  0
   -0.6596    1.7936    1.3829 H   0  0  0  0  0  0  0  0  0  0  0  0
    0.9186    2.0123    0.6015 H   0  0  0  0  0  0  0  0  0  0  0  0
   -0.8650    2.0307   -1.0407 S   0  0  0  0  0  0  0  0  0  0  0  0
   -0.8912    3.3732   -0.8841 H   0  0  0  0  0  0  0  0  0  0  0  0
    1.1618   -0.4498    1.6283 C   0  0  0  0  0  0  0  0  0  0  0  0
    1.9612   -1.3448    1.3864 O   0  0  0  0  0  0  0  0  0  0  0  0
    1.4460    0.3790    2.7034 N   0  0  0  0  0  0  0  0  0  0  0  0
    0.7378    1.0635    2.9447 H   0  0  0  0  0  0  0  0  0  0  0  0
    2.4423    0.0345    3.7120 C   0  0  0  0  0  0  0  0  0  0  0  0
    3.4383   -0.0297    3.2613 H   0  0  0  0  0  0  0  0  0  0  0  0
    2.4683    0.7973    4.4959 H   0  0  0  0  0  0  0  0  0  0  0  0
    2.2021   -0.9295    4.1735 H   0  0  0  0  0  0  0  0  0  0  0  0
  1  2  1  0  0  0  0
  2  3  1  0  0  0  0
  2  4  1  0  0  0  0
  2  5  1  0  0  0  0
  5  6  2  0  0  0  0
  5  7  1  0  0  0  0
  7  8  1  0  0  0  0
  7  9  1  0  0  0  0
  9 10  1  0  0  0  0
  9 11  1  0  0  0  0
  9 16  1  0  0  0  0
 11 12  1  0  0  0  0
 11 13  1  0  0  0  0
 11 14  1  0  0  0  0
 14 15  1  0  0  0  0
 16 17  2  0  0  0  0
 16 18  1  0  0  0  0
 18 19  1  0  0  0  0
 18 20  1  0  0  0  0
 20 21  1  0  0  0  0
 20 22  1  0  0  0  0
 20 23  1  0  0  0  0
M  END
$$$$

  -OEChem-01062216073D

 23 22  0     1  0  0  0  0  0999 V2000
   -2.9963   -3.4667    0.9620 H   0  0  0  0  0  0  0  0  0  0  0  0
   -2.8818   -2.4569    0.5576 C   0  0  0  0  0  0  0  0  0  0  0  0
   -3.6695   -1.8213    0.9690 H   0  0  0  0  0  0  0  0  0  0  0  0
   -2.9868   -2.5009   -0.5292 H   0  0  0  0  0  0  0  0  0  0  0  0
   -1.5199   -1.8986    0.9255 C   0  0  0  0  0  0  0  0  0  0  0  0
   -0.7926   -2.5463    1.6548 O   0  0  0  0  0  0  0  0  0  0  0  0
   -1.1735   -0.6360    0.4811 N   0  0  0  0  0  0  0  0  0  0  0  0
   -1.8438   -0.2079   -0.1532 H   0  0  0  0  0  0  0  0  0  0  0  0
    0.1699   -0.0187    0.4897 C   0  0  1  0  0  0  0  0  0  0  0  0
    0.6627   -0.2786   -0.4535 H   0  0  0  0  0  0  0  0  0  0  0  0
   -0.0374    1.5016    0.5198 C   0  0  0  0  0  0  0  0  0  0  0  0
   -0.6460    1.7873    1.3838 H   0  0  0  0  0  0  0  0  0  0  0  0
    0.9339    2.0008    0.6083 H   0  0  0  0  0  0  0  0  0  0  0  0
   -0.8540    2.0550   -1.0348 S   0  0  0  0  0  0  0  0  0  0  0  0
   -0.8398    3.3972   -0.8754 H   0  0  0  0  0  0  0  0  0  0  0  0
    1.1556   -0.4526    1.6058 C   0  0  0  0  0  0  0  0  0  0  0  0
    2.1048   -1.1667    1.3095 O   0  0  0  0  0  0  0  0  0  0  0  0
    1.1990    0.2171    2.8182 N   0  0  0  0  0  0  0  0  0  0  0  0
    0.3452    0.6914    3.0922 H   0  0  0  0  0  0  0  0  0  0  0  0
    2.1534   -0.1338    3.8637 C   0  0  0  0  0  0  0  0  0  0  0  0
    3.1805    0.0063    3.5100 H   0  0  0  0  0  0  0  0  0  0  0  0
    2.0036    0.5011    4.7421 H   0  0  0  0  0  0  0  0  0  0  0  0
    2.0244   -1.1794    4.1636 H   0  0  0  0  0  0  0  0  0  0  0  0
  1  2  1  0  0  0  0
  2  3  1  0  0  0  0
  2  4  1  0  0  0  0
  2  5  1  0  0  0  0
  5  6  2  0  0  0  0
  5  7  1  0  0  0  0
  7  8  1  0  0  0  0
  7  9  1  0  0  0  0
  9 10  1  0  0  0  0
  9 11  1  0  0  0  0
  9 16  1  0  0  0  0
 11 12  1  0  0  0  0
 11 13  1  0  0  0  0
 11 14  1  0  0  0  0
 14 15  1  0  0  0  0
 16 17  2  0  0  0  0
 16 18  1  0  0  0  0
 18 19  1  0  0  0  0
 18 20  1  0  0  0  0
 20 21  1  0  0  0  0
 20 22  1  0  0  0  0
 20 23  1  0  0  0  0
M  END
$$$$

  -OEChem-01062216073D

 23 22  0     1  0  0  0  0  0999 V2000
   -3.0000   -3.4654    0.9718 H   0  0  0  0  0  0  0  0  0  0  0  0
   -2.8884   -2.4559    0.5659 C   0  0  0  0  0  0  0  0  0  0  0  0
   -3.6642   -1.8167    0.9939 H   0  0  0  0  0  0  0  0  0  0  0  0
   -3.0163   -2.4982   -0.5184 H   0  0  0  0  0  0  0  0  0  0  0  0
   -1.5157   -1.9055    0.9046 C   0  0  0  0  0  0  0  0  0  0  0  0
   -0.7659   -2.5665    1.5991 O   0  0  0  0  0  0  0  0  0  0  0  0
   -1.1715   -0.6427    0.4596 N   0  0  0  0  0  0  0  0  0  0  0  0
   -1.8516   -0.2023   -0.1558 H   0  0  0  0  0  0  0  0  0  0  0  0
    0.1716   -0.0245    0.4684 C   0  0  1  0  0  0  0  0  0  0  0  0
    0.6631   -0.2777   -0.4773 H   0  0  0  0  0  0  0  0  0  0  0  0
   -0.0235    1.4956    0.5228 C   0  0  0  0  0  0  0  0  0  0  0  0
   -0.6219    1.7734    1.3965 H   0  0  0  0  0  0  0  0  0  0  0  0
    0.9528    1.9851    0.6127 H   0  0  0  0  0  0  0  0  0  0  0  0
   -0.8466    2.0793   -1.0172 S   0  0  0  0  0  0  0  0  0  0  0  0
   -0.7993    3.4193   -0.8446 H   0  0  0  0  0  0  0  0  0  0  0  0
    1.1529   -0.4581    1.5848 C   0  0  0  0  0  0  0  0  0  0  0  0
    2.2310   -0.9468    1.2718 O   0  0  0  0  0  0  0  0  0  0  0  0
    0.9827   -0.0011    2.8807 N   0  0  0  0  0  0  0  0  0  0  0  0
    0.0299    0.2413    3.1325 H   0  0  0  0  0  0  0  0  0  0  0  0
    1.8997   -0.3661    3.9537 C   0  0  0  0  0  0  0  0  0  0  0  0
    2.9125   -0.0144    3.7301 H   0  0  0  0  0  0  0  0  0  0  0  0
    1.5791    0.0880    4.8961 H   0  0  0  0  0  0  0  0  0  0  0  0
    1.9246   -1.4536    4.0815 H   0  0  0  0  0  0  0  0  0  0  0  0
  1  2  1  0  0  0  0
  2  3  1  0  0  0  0
  2  4  1  0  0  0  0
  2  5  1  0  0  0  0
  5  6  2  0  0  0  0
  5  7  1  0  0  0  0
  7  8  1  0  0  0  0
  7  9  1  0  0  0  0
  9 10  1  0  0  0  0
  9 11  1  0  0  0  0
  9 16  1  0  0  0  0
 11 12  1  0  0  0  0
 11 13  1  0  0  0  0
 11 14  1  0  0  0  0
 14 15  1  0  0  0  0
 16 17  2  0  0  0  0
 16 18  1  0  0  0  0
 18 19  1  0  0  0  0
 18 20  1  0  0  0  0
 20 21  1  0  0  0  0
 20 22  1  0  0  0  0
 20 23  1  0  0  0  0
M  END
$$$$

  -OEChem-01062216073D

 23 22  0     1  0  0  0  0  0999 V2000
   -3.0202   -3.4627    0.9323 H   0  0  0  0  0  0  0  0  0  0  0  0
   -2.9085   -2.4420    0.5553 C   0  0  0  0  0  0  0  0  0  0  0  0
   -3.6696   -1.8099    1.0188 H   0  0  0  0  0  0  0  0  0  0  0  0
   -3.0599   -2.4499   -0.5269 H   0  0  0  0  0  0  0  0  0  0  0  0
   -1.5248   -1.9123    0.8812 C   0  0  0  0  0  0  0  0  0  0  0  0
   -0.7722   -2.5868    1.5599 O   0  0  0  0  0  0  0  0  0  0  0  0
   -1.1683   -0.6530    0.4380 N   0  0  0  0  0  0  0  0  0  0  0  0
   -1.8494   -0.1971   -0.1652 H   0  0  0  0  0  0  0  0  0  0  0  0
    0.1769   -0.0388    0.4555 C   0  0  1  0  0  0  0  0  0  0  0  0
    0.6727   -0.2865   -0.4893 H   0  0  0  0  0  0  0  0  0  0  0  0
   -0.0164    1.4798    0.5288 C   0  0  0  0  0  0  0  0  0  0  0  0
   -0.6119    1.7468    1.4080 H   0  0  0  0  0  0  0  0  0  0  0  0
    0.9608    1.9666    0.6242 H   0  0  0  0  0  0  0  0  0  0  0  0
   -0.8382    2.0829   -1.0046 S   0  0  0  0  0  0  0  0  0  0  0  0
   -0.7977    3.4199   -0.8101 H   0  0  0  0  0  0  0  0  0  0  0  0
    1.1548   -0.4658    1.5757 C   0  0  0  0  0  0  0  0  0  0  0  0
    2.3222   -0.6975    1.2884 O   0  0  0  0  0  0  0  0  0  0  0  0
    0.8183   -0.2661    2.9030 N   0  0  0  0  0  0  0  0  0  0  0  0
   -0.1795   -0.2852    3.0911 H   0  0  0  0  0  0  0  0  0  0  0  0
    1.7176   -0.6371    3.9885 C   0  0  0  0  0  0  0  0  0  0  0  0
    2.6647   -0.0937    3.9068 H   0  0  0  0  0  0  0  0  0  0  0  0
    1.2649   -0.3934    4.9542 H   0  0  0  0  0  0  0  0  0  0  0  0
    1.9250   -1.7121    3.9624 H   0  0  0  0  0  0  0  0  0  0  0  0
  1  2  1  0  0  0  0
  2  3  1  0  0  0  0
  2  4  1  0  0  0  0
  2  5  1  0  0  0  0
  5  6  2  0  0  0  0
  5  7  1  0  0  0  0
  7  8  1  0  0  0  0
  7  9  1  0  0  0  0
  9 10  1  0  0  0  0
  9 11  1  0  0  0  0
  9 16  1  0  0  0  0
 11 12  1  0  0  0  0
 11 13  1  0  0  0  0
 11 14  1  0  0  0  0
 14 15  1  0  0  0  0
 16 17  2  0  0  0  0
 16 18  1  0  0  0  0
 18 19  1  0  0  0  0
 18 20  1  0  0  0  0
 20 21  1  0  0  0  0
 20 22  1  0  0  0  0
 20 23  1  0  0  0  0
M  END
$$$$

  -OEChem-01062216073D

 23 22  0     1  0  0  0  0  0999 V2000
   -3.0808   -3.4432    0.8752 H   0  0  0  0  0  0  0  0  0  0  0  0
   -2.9528   -2.4163    0.5210 C   0  0  0  0  0  0  0  0  0  0  0  0
   -3.6974   -1.7810    1.0065 H   0  0  0  0  0  0  0  0  0  0  0  0
   -3.1146   -2.3957   -0.5594 H   0  0  0  0  0  0  0  0  0  0  0  0
   -1.5561   -1.9211    0.8456 C   0  0  0  0  0  0  0  0  0  0  0  0
   -0.8140   -2.6206    1.5105 O   0  0  0  0  0  0  0  0  0  0  0  0
   -1.1717   -0.6665    0.4143 N   0  0  0  0  0  0  0  0  0  0  0  0
   -1.8473   -0.1856   -0.1758 H   0  0  0  0  0  0  0  0  0  0  0  0
    0.1780   -0.0599    0.4547 C   0  0  1  0  0  0  0  0  0  0  0  0
    0.6838   -0.3005   -0.4865 H   0  0  0  0  0  0  0  0  0  0  0  0
   -0.0200    1.4573    0.5412 C   0  0  0  0  0  0  0  0  0  0  0  0
   -0.6255    1.7116    1.4175 H   0  0  0  0  0  0  0  0  0  0  0  0
    0.9542    1.9471    0.6534 H   0  0  0  0  0  0  0  0  0  0  0  0
   -0.8240    2.0757   -0.9958 S   0  0  0  0  0  0  0  0  0  0  0  0
   -0.7881    3.4103   -0.7843 H   0  0  0  0  0  0  0  0  0  0  0  0
    1.1559   -0.4759    1.5804 C   0  0  0  0  0  0  0  0  0  0  0  0
    2.3590   -0.4408    1.3541 O   0  0  0  0  0  0  0  0  0  0  0  0
    0.7240   -0.5669    2.8911 N   0  0  0  0  0  0  0  0  0  0  0  0
   -0.2452   -0.8636    2.9772 H   0  0  0  0  0  0  0  0  0  0  0  0
    1.6300   -0.9290    3.9741 C   0  0  0  0  0  0  0  0  0  0  0  0
    2.4528   -0.2099    4.0454 H   0  0  0  0  0  0  0  0  0  0  0  0
    1.0948   -0.9325    4.9283 H   0  0  0  0  0  0  0  0  0  0  0  0
    2.0485   -1.9268    3.8049 H   0  0  0  0  0  0  0  0  0  0  0  0
  1  2  1  0  0  0  0
  2  3  1  0  0  0  0
  2  4  1  0  0  0  0
  2  5  1  0  0  0  0
  5  6  2  0  0  0  0
  5  7  1  0  0  0  0
  7  8  1  0  0  0  0
  7  9  1  0  0  0  0
  9 10  1  0  0  0  0
  9 11  1  0  0  0  0
  9 16  1  0  0  0  0
 11 12  1  0  0  0  0
 11 13  1  0  0  0  0
 11 14  1  0  0  0  0
 14 15  1  0  0  0  0
 16 17  2  0  0  0  0
 16 18  1  0  0  0  0
 18 19  1  0  0  0  0
 18 20  1  0  0  0  0
 20 21  1  0  0  0  0
 20 22  1  0  0  0  0
 20 23  1  0  0  0  0
M  END
$$$$

  -OEChem-01062216073D

 23 22  0     1  0  0  0  0  0999 V2000
   -3.1766   -3.3951    0.8352 H   0  0  0  0  0  0  0  0  0  0  0  0
   -3.0092   -2.3734    0.4826 C   0  0  0  0  0  0  0  0  0  0  0  0
   -3.7187   -1.7084    0.9810 H   0  0  0  0  0  0  0  0  0  0  0  0
   -3.1857   -2.3418   -0.5954 H   0  0  0  0  0  0  0  0  0  0  0  0
   -1.5882   -1.9391    0.7888 C   0  0  0  0  0  0  0  0  0  0  0  0
   -0.8526   -2.6935    1.3990 O   0  0  0  0  0  0  0  0  0  0  0  0
   -1.1690   -0.6872    0.3836 N   0  0  0  0  0  0  0  0  0  0  0  0
   -1.8469   -0.1623   -0.1650 H   0  0  0  0  0  0  0  0  0  0  0  0
    0.1814   -0.0819    0.4596 C   0  0  1  0  0  0  0  0  0  0  0  0
    0.7044   -0.3095   -0.4751 H   0  0  0  0  0  0  0  0  0  0  0  0
   -0.0393    1.4330    0.5543 C   0  0  0  0  0  0  0  0  0  0  0  0
   -0.6662    1.6709    1.4201 H   0  0  0  0  0  0  0  0  0  0  0  0
    0.9241    1.9374    0.6909 H   0  0  0  0  0  0  0  0  0  0  0  0
   -0.8163    2.0568   -0.9948 S   0  0  0  0  0  0  0  0  0  0  0  0
   -0.7890    3.3906   -0.7758 H   0  0  0  0  0  0  0  0  0  0  0  0
    1.1594   -0.4844    1.5943 C   0  0  0  0  0  0  0  0  0  0  0  0
    2.3462   -0.2132    1.4584 O   0  0  0  0  0  0  0  0  0  0  0  0
    0.7114   -0.8801    2.8406 N   0  0  0  0  0  0  0  0  0  0  0  0
   -0.1768   -1.3801    2.8036 H   0  0  0  0  0  0  0  0  0  0  0  0
    1.6308   -1.2409    3.9129 C   0  0  0  0  0  0  0  0  0  0  0  0
    2.2799   -0.3956    4.1644 H   0  0  0  0  0  0  0  0  0  0  0  0
    1.0714   -1.5226    4.8101 H   0  0  0  0  0  0  0  0  0  0  0  0
    2.2561   -2.0882    3.6120 H   0  0  0  0  0  0  0  0  0  0  0  0
  1  2  1  0  0  0  0
  2  3  1  0  0  0  0
  2  4  1  0  0  0  0
  2  5  1  0  0  0  0
  5  6  2  0  0  0  0
  5  7  1  0  0  0  0
  7  8  1  0  0  0  0
  7  9  1  0  0  0  0
  9 10  1  0  0  0  0
  9 11  1  0  0  0  0
  9 16  1  0  0  0  0
 11 12  1  0  0  0  0
 11 13  1  0  0  0  0
 11 14  1  0  0  0  0
 14 15  1  0  0  0  0
 16 17  2  0  0  0  0
 16 18  1  0  0  0  0
 18 19  1  0  0  0  0
 18 20  1  0  0  0  0
 20 21  1  0  0  0  0
 20 22  1  0  0  0  0
 20 23  1  0  0  0  0
M  END
$$$$

  -OEChem-01062216073D

 23 22  0     1  0  0  0  0  0999 V2000
   -3.2437   -3.3578    0.7751 H   0  0  0  0  0  0  0  0  0  0  0  0
   -3.0537   -2.3266    0.4637 C   0  0  0  0  0  0  0  0  0  0  0  0
   -3.7129   -1.6619    1.0271 H   0  0  0  0  0  0  0  0  0  0  0  0
   -3.2788   -2.2351   -0.6017 H   0  0  0  0  0  0  0  0  0  0  0  0
   -1.6045   -1.9594    0.7213 C   0  0  0  0  0  0  0  0  0  0  0  0
   -0.8667   -2.7805    1.2355 O   0  0  0  0  0  0  0  0  0  0  0  0
   -1.1566   -0.7080    0.3462 N   0  0  0  0  0  0  0  0  0  0  0  0
   -1.8407   -0.1408   -0.1504 H   0  0  0  0  0  0  0  0  0  0  0  0
    0.1905   -0.0986    0.4632 C   0  0  1  0  0  0  0  0  0  0  0  0
    0.7355   -0.3136   -0.4618 H   0  0  0  0  0  0  0  0  0  0  0  0
   -0.0640    1.4135    0.5595 C   0  0  0  0  0  0  0  0  0  0  0  0
   -0.7187    1.6336    1.4092 H   0  0  0  0  0  0  0  0  0  0  0  0
    0.8823    1.9415    0.7241 H   0  0  0  0  0  0  0  0  0  0  0  0
   -0.8093    2.0334   -1.0070 S   0  0  0  0  0  0  0  0  0  0  0  0
   -0.8115    3.3658   -0.7785 H   0  0  0  0  0  0  0  0  0  0  0  0
    1.1619   -0.4886    1.6133 C   0  0  0  0  0  0  0  0  0  0  0  0
    2.2983   -0.0309    1.5876 O   0  0  0  0  0  0  0  0  0  0  0  0
    0.7642   -1.1695    2.7479 N   0  0  0  0  0  0  0  0  0  0  0  0
   -0.0498   -1.7685    2.6016 H   0  0  0  0  0  0  0  0  0  0  0  0
    1.6991   -1.5576    3.7968 C   0  0  0  0  0  0  0  0  0  0  0  0
    2.1935   -0.6760    4.2180 H   0  0  0  0  0  0  0  0  0  0  0  0
    1.1668   -2.0705    4.6035 H   0  0  0  0  0  0  0  0  0  0  0  0
    2.4629   -2.2335    3.3982 H   0  0  0  0  0  0  0  0  0  0  0  0
  1  2  1  0  0  0  0
  2  3  1  0  0  0  0
  2  4  1  0  0  0  0
  2  5  1  0  0  0  0
  5  6  2  0  0  0  0
  5  7  1  0  0  0  0
  7  8  1  0  0  0  0
  7  9  1  0  0  0  0
  9 10  1  0  0  0  0
  9 11  1  0  0  0  0
  9 16  1  0  0  0  0
 11 12  1  0  0  0  0
 11 13  1  0  0  0  0
 11 14  1  0  0  0  0
 14 15  1  0  0  0  0
 16 17  2  0  0  0  0
 16 18  1  0  0  0  0
 18 19  1  0  0  0  0
 18 20  1  0  0  0  0
 20 21  1  0  0  0  0
 20 22  1  0  0  0  0
 20 23  1  0  0  0  0
M  END
$$$$

  -OEChem-01062216073D

 23 22  0     1  0  0  0  0  0999 V2000
   -3.3058   -3.3151    0.7525 H   0  0  0  0  0  0  0  0  0  0  0  0
   -3.0909   -2.2843    0.4564 C   0  0  0  0  0  0  0  0  0  0  0  0
   -3.7047   -1.6106    1.0593 H   0  0  0  0  0  0  0  0  0  0  0  0
   -3.3526   -2.1603   -0.5973 H   0  0  0  0  0  0  0  0  0  0  0  0
   -1.6207   -1.9739    0.6659 C   0  0  0  0  0  0  0  0  0  0  0  0
   -0.8840   -2.8525    1.0761 O   0  0  0  0  0  0  0  0  0  0  0  0
   -1.1504   -0.7218    0.3218 N   0  0  0  0  0  0  0  0  0  0  0  0
   -1.8417   -0.1187   -0.1191 H   0  0  0  0  0  0  0  0  0  0  0  0
    0.1954   -0.1129    0.4666 C   0  0  1  0  0  0  0  0  0  0  0  0
    0.7516   -0.3155   -0.4542 H   0  0  0  0  0  0  0  0  0  0  0  0
   -0.0825    1.3978    0.5648 C   0  0  0  0  0  0  0  0  0  0  0  0
   -0.7538    1.6056    1.4048 H   0  0  0  0  0  0  0  0  0  0  0  0
    0.8506    1.9430    0.7452 H   0  0  0  0  0  0  0  0  0  0  0  0
   -0.8069    2.0152   -1.0125 S   0  0  0  0  0  0  0  0  0  0  0  0
   -0.8253    3.3469   -0.7803 H   0  0  0  0  0  0  0  0  0  0  0  0
    1.1658   -0.5065    1.6220 C   0  0  0  0  0  0  0  0  0  0  0  0
    2.2246    0.1030    1.7207 O   0  0  0  0  0  0  0  0  0  0  0  0
    0.8803   -1.4357    2.6031 N   0  0  0  0  0  0  0  0  0  0  0  0
    0.1316   -2.0898    2.3688 H   0  0  0  0  0  0  0  0  0  0  0  0
    1.8379   -1.8373    3.6260 C   0  0  0  0  0  0  0  0  0  0  0  0
    2.1463   -0.9737    4.2244 H   0  0  0  0  0  0  0  0  0  0  0  0
    1.3855   -2.5751    4.2956 H   0  0  0  0  0  0  0  0  0  0  0  0
    2.7258   -2.2833    3.1658 H   0  0  0  0  0  0  0  0  0  0  0  0
  1  2  1  0  0  0  0
  2  3  1  0  0  0  0
  2  4  1  0  0  0  0
  2  5  1  0  0  0  0
  5  6  2  0  0  0  0
  5  7  1  0  0  0  0
  7  8  1  0  0  0  0
  7  9  1  0  0  0  0
  9 10  1  0  0  0  0
  9 11  1  0  0  0  0
  9 16  1  0  0  0  0
 11 12  1  0  0  0  0
 11 13  1  0  0  0  0
 11 14  1  0  0  0  0
 14 15  1  0  0  0  0
 16 17  2  0  0  0  0
 16 18  1  0  0  0  0
 18 19  1  0  0  0  0
 18 20  1  0  0  0  0
 20 21  1  0  0  0  0
 20 22  1  0  0  0  0
 20 23  1  0  0  0  0
M  END
$$$$

  -OEChem-01062216073D

 23 22  0     1  0  0  0  0  0999 V2000
   -3.0755   -3.4080    0.9870 H   0  0  0  0  0  0  0  0  0  0  0  0
   -2.8869   -2.3929    0.6260 C   0  0  0  0  0  0  0  0  0  0  0  0
   -3.5110   -1.6980    1.1931 H   0  0  0  0  0  0  0  0  0  0  0  0
   -3.1592   -2.3393   -0.4310 H   0  0  0  0  0  0  0  0  0  0  0  0
   -1.4226   -2.0372    0.8039 C   0  0  0  0  0  0  0  0  0  0  0  0
   -0.6532   -2.9004    1.1752 O   0  0  0  0  0  0  0  0  0  0  0  0
   -0.9848   -0.8058    0.3626 N   0  0  0  0  0  0  0  0  0  0  0  0
   -1.6997   -0.2665   -0.1187 H   0  0  0  0  0  0  0  0  0  0  0  0
    0.2583   -0.0477    0.6455 C   0  0  1  0  0  0  0  0  0  0  0  0
    0.9928   -0.3408   -0.1106 H   0  0  0  0  0  0  0  0  0  0  0  0
   -0.1450    1.4209    0.3954 C   0  0  0  0  0  0  0  0  0  0  0  0
   -0.9846    1.6990    1.0410 H   0  0  0  0  0  0  0  0  0  0  0  0
    0.6886    2.0909    0.6309 H   0  0  0  0  0  0  0  0  0  0  0  0
   -0.5694    1.6779   -1.3785 S   0  0  0  0  0  0  0  0  0  0  0  0
   -0.7419    3.0182   -1.4085 H   0  0  0  0  0  0  0  0  0  0  0  0
    1.0242   -0.1730    2.0085 C   0  0  0  0  0  0  0  0  0  0  0  0
    1.5849    0.8056    2.4814 O   0  0  0  0  0  0  0  0  0  0  0  0
    0.8918   -1.1275    2.9861 N   0  0  0  0  0  0  0  0  0  0  0  0
    1.0678   -0.6962    3.8892 H   0  0  0  0  0  0  0  0  0  0  0  0
    1.6315   -2.3732    2.8139 C   0  0  0  0  0  0  0  0  0  0  0  0
    2.5914   -2.3149    3.3362 H   0  0  0  0  0  0  0  0  0  0  0  0
    1.0600   -3.2105    3.2270 H   0  0  0  0  0  0  0  0  0  0  0  0
    1.8333   -2.5803    1.7572 H   0  0  0  0  0  0  0  0  0  0  0  0
  1  2  1  0  0  0  0
  2  3  1  0  0  0  0
  2  4  1  0  0  0  0
  2  5  1  0  0  0  0
  5  6  2  0  0  0  0
  5  7  1  0  0  0  0
  7  8  1  0  0  0  0
  7  9  1  0  0  0  0
  9 10  1  0  0  0  0
  9 11  1  0  0  0  0
  9 16  1  0  0  0  0
 11 12  1  0  0  0  0
 11 13  1  0  0  0  0
 11 14  1  0  0  0  0
 14 15  1  0  0  0  0
 16 17  2  0  0  0  0
 16 18  1  0  0  0  0
 18 19  1  0  0  0  0
 18 20  1  0  0  0  0
 20 21  1  0  0  0  0
 20 22  1  0  0  0  0
 20 23  1  0  0  0  0
M  END
$$$$

  -OEChem-01062216073D

 23 22  0     1  0  0  0  0  0999 V2000
   -2.8346   -3.5315    1.3731 H   0  0  0  0  0  0  0  0  0  0  0  0
   -2.7654   -2.4647    1.1417 C   0  0  0  0  0  0  0  0  0  0  0  0
   -3.0931   -1.8942    2.0138 H   0  0  0  0  0  0  0  0  0  0  0  0
   -3.4261   -2.2443    0.2998 H   0  0  0  0  0  0  0  0  0  0  0  0
   -1.3364   -2.0977    0.7885 C   0  0  0  0  0  0  0  0  0  0  0  0
   -0.5086   -2.9823    0.6873 O   0  0  0  0  0  0  0  0  0  0  0  0
   -1.0537   -0.7973    0.4266 N   0  0  0  0  0  0  0  0  0  0  0  0
   -1.8702   -0.1972    0.3397 H   0  0  0  0  0  0  0  0  0  0  0  0
    0.2458   -0.1017    0.2710 C   0  0  1  0  0  0  0  0  0  0  0  0
    0.5522   -0.2264   -0.7725 H   0  0  0  0  0  0  0  0  0  0  0  0
   -0.1032    1.3800    0.5181 C   0  0  0  0  0  0  0  0  0  0  0  0
   -0.5561    1.5029    1.5074 H   0  0  0  0  0  0  0  0  0  0  0  0
    0.8028    1.9949    0.4921 H   0  0  0  0  0  0  0  0  0  0  0  0
   -1.2351    2.0017   -0.7954 S   0  0  0  0  0  0  0  0  0  0  0  0
   -1.2573    3.3230   -0.5103 H   0  0  0  0  0  0  0  0  0  0  0  0
    1.5260   -0.4550    1.1010 C   0  0  0  0  0  0  0  0  0  0  0  0
    2.4878    0.2965    1.0321 O   0  0  0  0  0  0  0  0  0  0  0  0
    1.9258   -1.6520    1.6429 N   0  0  0  0  0  0  0  0  0  0  0  0
    2.9405   -1.6812    1.6894 H   0  0  0  0  0  0  0  0  0  0  0  0
    1.2709   -2.1525    2.8454 C   0  0  0  0  0  0  0  0  0  0  0  0
    0.2953   -1.6814    2.9998 H   0  0  0  0  0  0  0  0  0  0  0  0
    1.1276   -3.2353    2.7734 H   0  0  0  0  0  0  0  0  0  0  0  0
    1.8900   -1.9419    3.7230 H   0  0  0  0  0  0  0  0  0  0  0  0
  1  2  1  0  0  0  0
  2  3  1  0  0  0  0
  2  4  1  0  0  0  0
  2  5  1  0  0  0  0
  5  6  2  0  0  0  0
  5  7  1  0  0  0  0
  7  8  1  0  0  0  0
  7  9  1  0  0  0  0
  9 10  1  0  0  0  0
  9 11  1  0  0  0  0
  9 16  1  0  0  0  0
 11 12  1  0  0  0  0
 11 13  1  0  0  0  0
 11 14  1  0  0  0  0
 14 15  1  0  0  0  0
 16 17  2  0  0  0  0
 16 18  1  0  0  0  0
 18 19  1  0  0  0  0
 18 20  1  0  0  0  0
 20 21  1  0  0  0  0
 20 22  1  0  0  0  0
 20 23  1  0  0  0  0
M  END
$$$$

  -OEChem-01062216073D

 23 22  0     1  0  0  0  0  0999 V2000
   -3.2647   -3.2972    0.8925 H   0  0  0  0  0  0  0  0  0  0  0  0
   -3.0627   -2.2612    0.6060 C   0  0  0  0  0  0  0  0  0  0  0  0
   -3.5868   -1.5980    1.2982 H   0  0  0  0  0  0  0  0  0  0  0  0
   -3.4422   -2.0957   -0.4052 H   0  0  0  0  0  0  0  0  0  0  0  0
   -1.5716   -1.9855    0.6515 C   0  0  0  0  0  0  0  0  0  0  0  0
   -0.8105   -2.9103    0.8700 O   0  0  0  0  0  0  0  0  0  0  0  0
   -1.1248   -0.7163    0.3381 N   0  0  0  0  0  0  0  0  0  0  0  0
   -1.8600   -0.0787    0.0403 H   0  0  0  0  0  0  0  0  0  0  0  0
    0.2219   -0.0976    0.4254 C   0  0  1  0  0  0  0  0  0  0  0  0
    0.7284   -0.2799   -0.5275 H   0  0  0  0  0  0  0  0  0  0  0  0
   -0.0605    1.4136    0.5437 C   0  0  0  0  0  0  0  0  0  0  0  0
   -0.6883    1.6152    1.4180 H   0  0  0  0  0  0  0  0  0  0  0  0
    0.8775    1.9641    0.6752 H   0  0  0  0  0  0  0  0  0  0  0  0
   -0.8590    2.0371   -0.9946 S   0  0  0  0  0  0  0  0  0  0  0  0
   -0.8704    3.3669   -0.7518 H   0  0  0  0  0  0  0  0  0  0  0  0
    1.2492   -0.5530    1.5137 C   0  0  0  0  0  0  0  0  0  0  0  0
    1.8960    0.2859    2.1318 O   0  0  0  0  0  0  0  0  0  0  0  0
    1.5064   -1.8737    1.8203 N   0  0  0  0  0  0  0  0  0  0  0  0
    0.8724   -2.5607    1.4057 H   0  0  0  0  0  0  0  0  0  0  0  0
    2.4094   -2.3088    2.8785 C   0  0  0  0  0  0  0  0  0  0  0  0
    2.0682   -1.9381    3.8505 H   0  0  0  0  0  0  0  0  0  0  0  0
    2.4440   -3.4018    2.9166 H   0  0  0  0  0  0  0  0  0  0  0  0
    3.4234   -1.9385    2.6949 H   0  0  0  0  0  0  0  0  0  0  0  0
  1  2  1  0  0  0  0
  2  3  1  0  0  0  0
  2  4  1  0  0  0  0
  2  5  1  0  0  0  0
  5  6  2  0  0  0  0
  5  7  1  0  0  0  0
  7  8  1  0  0  0  0
  7  9  1  0  0  0  0
  9 10  1  0  0  0  0
  9 11  1  0  0  0  0
  9 16  1  0  0  0  0
 11 12  1  0  0  0  0
 11 13  1  0  0  0  0
 11 14  1  0  0  0  0
 14 15  1  0  0  0  0
 16 17  2  0  0  0  0
 16 18  1  0  0  0  0
 18 19  1  0  0  0  0
 18 20  1  0  0  0  0
 20 21  1  0  0  0  0
 20 22  1  0  0  0  0
 20 23  1  0  0  0  0
M  END
$$$$

  -OEChem-01062216073D

 23 22  0     1  0  0  0  0  0999 V2000
   -3.1494   -3.3394    0.9858 H   0  0  0  0  0  0  0  0  0  0  0  0
   -2.9879   -2.3034    0.6744 C   0  0  0  0  0  0  0  0  0  0  0  0
   -3.5173   -1.6434    1.3659 H   0  0  0  0  0  0  0  0  0  0  0  0
   -3.3951   -2.1700   -0.3307 H   0  0  0  0  0  0  0  0  0  0  0  0
   -1.5058   -1.9793    0.6796 C   0  0  0  0  0  0  0  0  0  0  0  0
   -0.7060   -2.8741    0.8883 O   0  0  0  0  0  0  0  0  0  0  0  0
   -1.1031   -0.7015    0.3430 N   0  0  0  0  0  0  0  0  0  0  0  0
   -1.8581   -0.0771    0.0687 H   0  0  0  0  0  0  0  0  0  0  0  0
    0.2365   -0.0693    0.4033 C   0  0  1  0  0  0  0  0  0  0  0  0
    0.7339   -0.2504   -0.5544 H   0  0  0  0  0  0  0  0  0  0  0  0
   -0.0393    1.4410    0.5253 C   0  0  0  0  0  0  0  0  0  0  0  0
   -0.6511    1.6444    1.4107 H   0  0  0  0  0  0  0  0  0  0  0  0
    0.9052    1.9838    0.6430 H   0  0  0  0  0  0  0  0  0  0  0  0
   -0.8669    2.0645   -0.9973 S   0  0  0  0  0  0  0  0  0  0  0  0
   -0.8816    3.3938   -0.7510 H   0  0  0  0  0  0  0  0  0  0  0  0
    1.2599   -0.5305    1.4878 C   0  0  0  0  0  0  0  0  0  0  0  0
    1.7390    0.2821    2.2722 O   0  0  0  0  0  0  0  0  0  0  0  0
    1.7137   -1.8320    1.5659 N   0  0  0  0  0  0  0  0  0  0  0  0
    1.1147   -2.5182    1.0996 H   0  0  0  0  0  0  0  0  0  0  0  0
    2.5923   -2.3088    2.6266 C   0  0  0  0  0  0  0  0  0  0  0  0
    2.1104   -2.1950    3.6032 H   0  0  0  0  0  0  0  0  0  0  0  0
    2.8244   -3.3673    2.4748 H   0  0  0  0  0  0  0  0  0  0  0  0
    3.5326   -1.7475    2.6287 H   0  0  0  0  0  0  0  0  0  0  0  0
  1  2  1  0  0  0  0
  2  3  1  0  0  0  0
  2  4  1  0  0  0  0
  2  5  1  0  0  0  0
  5  6  2  0  0  0  0
  5  7  1  0  0  0  0
  7  8  1  0  0  0  0
  7  9  1  0  0  0  0
  9 10  1  0  0  0  0
  9 11  1  0  0  0  0
  9 16  1  0  0  0  0
 11 12  1  0  0  0  0
 11 13  1  0  0  0  0
 11 14  1  0  0  0  0
 14 15  1  0  0  0  0
 16 17  2  0  0  0  0
 16 18  1  0  0  0  0
 18 19  1  0  0  0  0
 18 20  1  0  0  0  0
 20 21  1  0  0  0  0
 20 22  1  0  0  0  0
 20 23  1  0  0  0  0
M  END
$$$$

  -OEChem-01062216073D

 23 22  0     1  0  0  0  0  0999 V2000
   -3.0158   -3.3830    1.0692 H   0  0  0  0  0  0  0  0  0  0  0  0
   -2.9046   -2.3478    0.7342 C   0  0  0  0  0  0  0  0  0  0  0  0
   -3.4369   -1.6952    1.4306 H   0  0  0  0  0  0  0  0  0  0  0  0
   -3.3482   -2.2493   -0.2595 H   0  0  0  0  0  0  0  0  0  0  0  0
   -1.4367   -1.9682    0.6859 C   0  0  0  0  0  0  0  0  0  0  0  0
   -0.5914   -2.8272    0.8702 O   0  0  0  0  0  0  0  0  0  0  0  0
   -1.0856   -0.6825    0.3244 N   0  0  0  0  0  0  0  0  0  0  0  0
   -1.8605   -0.0695    0.0830 H   0  0  0  0  0  0  0  0  0  0  0  0
    0.2459   -0.0397    0.3811 C   0  0  1  0  0  0  0  0  0  0  0  0
    0.7535   -0.2219   -0.5711 H   0  0  0  0  0  0  0  0  0  0  0  0
   -0.0204    1.4705    0.5063 C   0  0  0  0  0  0  0  0  0  0  0  0
   -0.6323    1.6744    1.3917 H   0  0  0  0  0  0  0  0  0  0  0  0
    0.9294    2.0025    0.6305 H   0  0  0  0  0  0  0  0  0  0  0  0
   -0.8501    2.1022   -1.0114 S   0  0  0  0  0  0  0  0  0  0  0  0
   -0.8769    3.4287   -0.7516 H   0  0  0  0  0  0  0  0  0  0  0  0
    1.2357   -0.5096    1.4872 C   0  0  0  0  0  0  0  0  0  0  0  0
    1.5366    0.2372    2.4130 O   0  0  0  0  0  0  0  0  0  0  0  0
    1.8914   -1.7209    1.3817 N   0  0  0  0  0  0  0  0  0  0  0  0
    1.3759   -2.4141    0.8348 H   0  0  0  0  0  0  0  0  0  0  0  0
    2.7806   -2.2218    2.4228 C   0  0  0  0  0  0  0  0  0  0  0  0
    2.2352   -2.3522    3.3635 H   0  0  0  0  0  0  0  0  0  0  0  0
    3.1989   -3.1886    2.1265 H   0  0  0  0  0  0  0  0  0  0  0  0
    3.6095   -1.5257    2.5891 H   0  0  0  0  0  0  0  0  0  0  0  0
  1  2  1  0  0  0  0
  2  3  1  0  0  0  0
  2  4  1  0  0  0  0
  2  5  1  0  0  0  0
  5  6  2  0  0  0  0
  5  7  1  0  0  0  0
  7  8  1  0  0  0  0
  7  9  1  0  0  0  0
  9 10  1  0  0  0  0
  9 11  1  0  0  0  0
  9 16  1  0  0  0  0
 11 12  1  0  0  0  0
 11 13  1  0  0  0  0
 11 14  1  0  0  0  0
 14 15  1  0  0  0  0
 16 17  2  0  0  0  0
 16 18  1  0  0  0  0
 18 19  1  0  0  0  0
 18 20  1  0  0  0  0
 20 21  1  0  0  0  0
 20 22  1  0  0  0  0
 20 23  1  0  0  0  0
M  END
$$$$

  -OEChem-01062216073D

 23 22  0     1  0  0  0  0  0999 V2000
   -2.8970   -3.4167    1.1374 H   0  0  0  0  0  0  0  0  0  0  0  0
   -2.8307   -2.3832    0.7859 C   0  0  0  0  0  0  0  0  0  0  0  0
   -3.3594   -1.7382    1.4918 H   0  0  0  0  0  0  0  0  0  0  0  0
   -3.3105   -2.3120   -0.1931 H   0  0  0  0  0  0  0  0  0  0  0  0
   -1.3782   -1.9587    0.6830 C   0  0  0  0  0  0  0  0  0  0  0  0
   -0.4955   -2.7860    0.8423 O   0  0  0  0  0  0  0  0  0  0  0  0
   -1.0737   -0.6674    0.2994 N   0  0  0  0  0  0  0  0  0  0  0  0
   -1.8661   -0.0622    0.0993 H   0  0  0  0  0  0  0  0  0  0  0  0
    0.2508   -0.0157    0.3549 C   0  0  1  0  0  0  0  0  0  0  0  0
    0.7670   -0.1951   -0.5932 H   0  0  0  0  0  0  0  0  0  0  0  0
   -0.0067    1.4936    0.4904 C   0  0  0  0  0  0  0  0  0  0  0  0
   -0.6179    1.6938    1.3773 H   0  0  0  0  0  0  0  0  0  0  0  0
    0.9470    2.0168    0.6212 H   0  0  0  0  0  0  0  0  0  0  0  0
   -0.8395    2.1408   -1.0186 S   0  0  0  0  0  0  0  0  0  0  0  0
   -0.8782    3.4628   -0.7390 H   0  0  0  0  0  0  0  0  0  0  0  0
    1.2090   -0.4927    1.4807 C   0  0  0  0  0  0  0  0  0  0  0  0
    1.3109    0.1445    2.5243 O   0  0  0  0  0  0  0  0  0  0  0  0
    2.0761   -1.5434    1.2492 N   0  0  0  0  0  0  0  0  0  0  0  0
    1.7281   -2.2129    0.5636 H   0  0  0  0  0  0  0  0  0  0  0  0
    2.9612   -2.0563    2.2876 C   0  0  0  0  0  0  0  0  0  0  0  0
    2.3798   -2.4250    3.1392 H   0  0  0  0  0  0  0  0  0  0  0  0
    3.5637   -2.8809    1.8951 H   0  0  0  0  0  0  0  0  0  0  0  0
    3.6402   -1.2713    2.6368 H   0  0  0  0  0  0  0  0  0  0  0  0
  1  2  1  0  0  0  0
  2  3  1  0  0  0  0
  2  4  1  0  0  0  0
  2  5  1  0  0  0  0
  5  6  2  0  0  0  0
  5  7  1  0  0  0  0
  7  8  1  0  0  0  0
  7  9  1  0  0  0  0
  9 10  1  0  0  0  0
  9 11  1  0  0  0  0
  9 16  1  0  0  0  0
 11 12  1  0  0  0  0
 11 13  1  0  0  0  0
 11 14  1  0  0  0  0
 14 15  1  0  0  0  0
 16 17  2  0  0  0  0
 16 18  1  0  0  0  0
 18 19  1  0  0  0  0
 18 20  1  0  0  0  0
 20 21  1  0  0  0  0
 20 22  1  0  0  0  0
 20 23  1  0  0  0  0
M  END
$$$$

  -OEChem-01062216073D

 23 22  0     1  0  0  0  0  0999 V2000
   -2.8294   -3.4363    1.1715 H   0  0  0  0  0  0  0  0  0  0  0  0
   -2.7885   -2.4001    0.8241 C   0  0  0  0  0  0  0  0  0  0  0  0
   -3.3031   -1.7663    1.5502 H   0  0  0  0  0  0  0  0  0  0  0  0
   -3.2996   -2.3304   -0.1390 H   0  0  0  0  0  0  0  0  0  0  0  0
   -1.3458   -1.9547    0.6785 C   0  0  0  0  0  0  0  0  0  0  0  0
   -0.4449   -2.7658    0.8221 O   0  0  0  0  0  0  0  0  0  0  0  0
   -1.0691   -0.6622    0.2774 N   0  0  0  0  0  0  0  0  0  0  0  0
   -1.8719   -0.0591    0.1185 H   0  0  0  0  0  0  0  0  0  0  0  0
    0.2513   -0.0049    0.3311 C   0  0  1  0  0  0  0  0  0  0  0  0
    0.7698   -0.1842   -0.6155 H   0  0  0  0  0  0  0  0  0  0  0  0
    0.0027    1.5036    0.4759 C   0  0  0  0  0  0  0  0  0  0  0  0
   -0.6068    1.7006    1.3649 H   0  0  0  0  0  0  0  0  0  0  0  0
    0.9594    2.0204    0.6098 H   0  0  0  0  0  0  0  0  0  0  0  0
   -0.8332    2.1632   -1.0257 S   0  0  0  0  0  0  0  0  0  0  0  0
   -0.8942    3.4796   -0.7246 H   0  0  0  0  0  0  0  0  0  0  0  0
    1.1930   -0.4788    1.4686 C   0  0  0  0  0  0  0  0  0  0  0  0
    1.0922    0.0010    2.5932 O   0  0  0  0  0  0  0  0  0  0  0  0
    2.2620   -1.3066    1.1807 N   0  0  0  0  0  0  0  0  0  0  0  0
    2.1493   -1.8684    0.3405 H   0  0  0  0  0  0  0  0  0  0  0  0
    3.1378   -1.8250    2.2241 C   0  0  0  0  0  0  0  0  0  0  0  0
    2.5679   -2.4348    2.9331 H   0  0  0  0  0  0  0  0  0  0  0  0
    3.9234   -2.4461    1.7835 H   0  0  0  0  0  0  0  0  0  0  0  0
    3.6148   -1.0036    2.7692 H   0  0  0  0  0  0  0  0  0  0  0  0
  1  2  1  0  0  0  0
  2  3  1  0  0  0  0
  2  4  1  0  0  0  0
  2  5  1  0  0  0  0
  5  6  2  0  0  0  0
  5  7  1  0  0  0  0
  7  8  1  0  0  0  0
  7  9  1  0  0  0  0
  9 10  1  0  0  0  0
  9 11  1  0  0  0  0
  9 16  1  0  0  0  0
 11 12  1  0  0  0  0
 11 13  1  0  0  0  0
 11 14  1  0  0  0  0
 14 15  1  0  0  0  0
 16 17  2  0  0  0  0
 16 18  1  0  0  0  0
 18 19  1  0  0  0  0
 18 20  1  0  0  0  0
 20 21  1  0  0  0  0
 20 22  1  0  0  0  0
 20 23  1  0  0  0  0
M  END
$$$$

  -OEChem-01062216073D

 23 22  0     1  0  0  0  0  0999 V2000
   -2.8001   -3.4465    1.1825 H   0  0  0  0  0  0  0  0  0  0  0  0
   -2.7698   -2.4052    0.8498 C   0  0  0  0  0  0  0  0  0  0  0  0
   -3.2574   -1.7822    1.6035 H   0  0  0  0  0  0  0  0  0  0  0  0
   -3.3144   -2.3202   -0.0936 H   0  0  0  0  0  0  0  0  0  0  0  0
   -1.3325   -1.9588    0.6607 C   0  0  0  0  0  0  0  0  0  0  0  0
   -0.4259   -2.7686    0.7741 O   0  0  0  0  0  0  0  0  0  0  0  0
   -1.0686   -0.6660    0.2515 N   0  0  0  0  0  0  0  0  0  0  0  0
   -1.8759   -0.0602    0.1332 H   0  0  0  0  0  0  0  0  0  0  0  0
    0.2499   -0.0070    0.3142 C   0  0  1  0  0  0  0  0  0  0  0  0
    0.7742   -0.1857   -0.6291 H   0  0  0  0  0  0  0  0  0  0  0  0
    0.0049    1.5001    0.4690 C   0  0  0  0  0  0  0  0  0  0  0  0
   -0.6076    1.6915    1.3572 H   0  0  0  0  0  0  0  0  0  0  0  0
    0.9617    2.0142    0.6106 H   0  0  0  0  0  0  0  0  0  0  0  0
   -0.8250    2.1726   -1.0301 S   0  0  0  0  0  0  0  0  0  0  0  0
   -0.8903    3.4864   -0.7185 H   0  0  0  0  0  0  0  0  0  0  0  0
    1.1777   -0.4758    1.4631 C   0  0  0  0  0  0  0  0  0  0  0  0
    0.9100   -0.1783    2.6227 O   0  0  0  0  0  0  0  0  0  0  0  0
    2.4088   -1.0368    1.1772 N   0  0  0  0  0  0  0  0  0  0  0  0
    2.5069   -1.4299    0.2455 H   0  0  0  0  0  0  0  0  0  0  0  0
    3.2954   -1.5328    2.2227 C   0  0  0  0  0  0  0  0  0  0  0  0
    2.8139   -2.3449    2.7780 H   0  0  0  0  0  0  0  0  0  0  0  0
    4.2222   -1.9136    1.7831 H   0  0  0  0  0  0  0  0  0  0  0  0
    3.5523   -0.7306    2.9226 H   0  0  0  0  0  0  0  0  0  0  0  0
  1  2  1  0  0  0  0
  2  3  1  0  0  0  0
  2  4  1  0  0  0  0
  2  5  1  0  0  0  0
  5  6  2  0  0  0  0
  5  7  1  0  0  0  0
  7  8  1  0  0  0  0
  7  9  1  0  0  0  0
  9 10  1  0  0  0  0
  9 11  1  0  0  0  0
  9 16  1  0  0  0  0
 11 12  1  0  0  0  0
 11 13  1  0  0  0  0
 11 14  1  0  0  0  0
 14 15  1  0  0  0  0
 16 17  2  0  0  0  0
 16 18  1  0  0  0  0
 18 19  1  0  0  0  0
 18 20  1  0  0  0  0
 20 21  1  0  0  0  0
 20 22  1  0  0  0  0
 20 23  1  0  0  0  0
M  END
$$$$

  -OEChem-01062216073D

 23 22  0     1  0  0  0  0  0999 V2000
   -2.7880   -3.4525    1.1889 H   0  0  0  0  0  0  0  0  0  0  0  0
   -2.7644   -2.4083    0.8643 C   0  0  0  0  0  0  0  0  0  0  0  0
   -3.2228   -1.7896    1.6397 H   0  0  0  0  0  0  0  0  0  0  0  0
   -3.3398   -2.3128   -0.0595 H   0  0  0  0  0  0  0  0  0  0  0  0
   -1.3319   -1.9673    0.6317 C   0  0  0  0  0  0  0  0  0  0  0  0
   -0.4267   -2.7839    0.7019 O   0  0  0  0  0  0  0  0  0  0  0  0
   -1.0718   -0.6733    0.2233 N   0  0  0  0  0  0  0  0  0  0  0  0
   -1.8790   -0.0620    0.1408 H   0  0  0  0  0  0  0  0  0  0  0  0
    0.2482   -0.0186    0.3025 C   0  0  1  0  0  0  0  0  0  0  0  0
    0.7801   -0.1968   -0.6366 H   0  0  0  0  0  0  0  0  0  0  0  0
    0.0103    1.4875    0.4712 C   0  0  0  0  0  0  0  0  0  0  0  0
   -0.6066    1.6716    1.3578 H   0  0  0  0  0  0  0  0  0  0  0  0
    0.9688    1.9953    0.6238 H   0  0  0  0  0  0  0  0  0  0  0  0
   -0.8051    2.1822   -1.0255 S   0  0  0  0  0  0  0  0  0  0  0  0
   -0.8723    3.4919   -0.6979 H   0  0  0  0  0  0  0  0  0  0  0  0
    1.1627   -0.4886    1.4608 C   0  0  0  0  0  0  0  0  0  0  0  0
    0.7762   -0.3823    2.6201 O   0  0  0  0  0  0  0  0  0  0  0  0
    2.4982   -0.7596    1.2233 N   0  0  0  0  0  0  0  0  0  0  0  0
    2.7530   -0.9574    0.2604 H   0  0  0  0  0  0  0  0  0  0  0  0
    3.4053   -1.1934    2.2791 C   0  0  0  0  0  0  0  0  0  0  0  0
    3.0632   -2.1395    2.7120 H   0  0  0  0  0  0  0  0  0  0  0  0
    4.4123   -1.3393    1.8767 H   0  0  0  0  0  0  0  0  0  0  0  0
    3.4588   -0.4414    3.0734 H   0  0  0  0  0  0  0  0  0  0  0  0
  1  2  1  0  0  0  0
  2  3  1  0  0  0  0
  2  4  1  0  0  0  0
  2  5  1  0  0  0  0
  5  6  2  0  0  0  0
  5  7  1  0  0  0  0
  7  8  1  0  0  0  0
  7  9  1  0  0  0  0
  9 10  1  0  0  0  0
  9 11  1  0  0  0  0
  9 16  1  0  0  0  0
 11 12  1  0  0  0  0
 11 13  1  0  0  0  0
 11 14  1  0  0  0  0
 14 15  1  0  0  0  0
 16 17  2  0  0  0  0
 16 18  1  0  0  0  0
 18 19  1  0  0  0  0
 18 20  1  0  0  0  0
 20 21  1  0  0  0  0
 20 22  1  0  0  0  0
 20 23  1  0  0  0  0
M  END
$$$$

  -OEChem-01062216073D

 23 22  0     1  0  0  0  0  0999 V2000
   -2.7882   -3.4518    1.1891 H   0  0  0  0  0  0  0  0  0  0  0  0
   -2.7640   -2.4057    0.8713 C   0  0  0  0  0  0  0  0  0  0  0  0
   -3.1912   -1.7883    1.6650 H   0  0  0  0  0  0  0  0  0  0  0  0
   -3.3669   -2.2971   -0.0332 H   0  0  0  0  0  0  0  0  0  0  0  0
   -1.3349   -1.9783    0.5975 C   0  0  0  0  0  0  0  0  0  0  0  0
   -0.4388   -2.8077    0.6163 O   0  0  0  0  0  0  0  0  0  0  0  0
   -1.0715   -0.6827    0.1959 N   0  0  0  0  0  0  0  0  0  0  0  0
   -1.8751   -0.0632    0.1522 H   0  0  0  0  0  0  0  0  0  0  0  0
    0.2522   -0.0372    0.2939 C   0  0  1  0  0  0  0  0  0  0  0  0
    0.7921   -0.2119   -0.6413 H   0  0  0  0  0  0  0  0  0  0  0  0
    0.0170    1.4673    0.4789 C   0  0  0  0  0  0  0  0  0  0  0  0
   -0.6060    1.6405    1.3633 H   0  0  0  0  0  0  0  0  0  0  0  0
    0.9750    1.9714    0.6456 H   0  0  0  0  0  0  0  0  0  0  0  0
   -0.7836    2.1862   -1.0143 S   0  0  0  0  0  0  0  0  0  0  0  0
   -0.8609    3.4893   -0.6632 H   0  0  0  0  0  0  0  0  0  0  0  0
    1.1576   -0.5116    1.4581 C   0  0  0  0  0  0  0  0  0  0  0  0
    0.6978   -0.5925    2.5925 O   0  0  0  0  0  0  0  0  0  0  0  0
    2.5330   -0.4863    1.3092 N   0  0  0  0  0  0  0  0  0  0  0  0
    2.8889   -0.4800    0.3582 H   0  0  0  0  0  0  0  0  0  0  0  0
    3.4465   -0.8377    2.3901 C   0  0  0  0  0  0  0  0  0  0  0  0
    3.2647   -1.8642    2.7260 H   0  0  0  0  0  0  0  0  0  0  0  0
    4.4833   -0.7623    2.0489 H   0  0  0  0  0  0  0  0  0  0  0  0
    3.3144   -0.1600    3.2403 H   0  0  0  0  0  0  0  0  0  0  0  0
  1  2  1  0  0  0  0
  2  3  1  0  0  0  0
  2  4  1  0  0  0  0
  2  5  1  0  0  0  0
  5  6  2  0  0  0  0
  5  7  1  0  0  0  0
  7  8  1  0  0  0  0
  7  9  1  0  0  0  0
  9 10  1  0  0  0  0
  9 11  1  0  0  0  0
  9 16  1  0  0  0  0
 11 12  1  0  0  0  0
 11 13  1  0  0  0  0
 11 14  1  0  0  0  0
 14 15  1  0  0  0  0
 16 17  2  0  0  0  0
 16 18  1  0  0  0  0
 18 19  1  0  0  0  0
 18 20  1  0  0  0  0
 20 21  1  0  0  0  0
 20 22  1  0  0  0  0
 20 23  1  0  0  0  0
M  END
$$$$

  -OEChem-01062216073D

 23 22  0     1  0  0  0  0  0999 V2000
   -2.7929   -3.4616    1.1398 H   0  0  0  0  0  0  0  0  0  0  0  0
   -2.7583   -2.3988    0.8839 C   0  0  0  0  0  0  0  0  0  0  0  0
   -3.1297   -1.8210    1.7337 H   0  0  0  0  0  0  0  0  0  0  0  0
   -3.4022   -2.2223    0.0191 H   0  0  0  0  0  0  0  0  0  0  0  0
   -1.3341   -1.9867    0.5649 C   0  0  0  0  0  0  0  0  0  0  0  0
   -0.4514   -2.8296    0.5230 O   0  0  0  0  0  0  0  0  0  0  0  0
   -1.0650   -0.6893    0.1731 N   0  0  0  0  0  0  0  0  0  0  0  0
   -1.8643   -0.0633    0.1633 H   0  0  0  0  0  0  0  0  0  0  0  0
    0.2626   -0.0529    0.2888 C   0  0  1  0  0  0  0  0  0  0  0  0
    0.8096   -0.2229   -0.6432 H   0  0  0  0  0  0  0  0  0  0  0  0
    0.0183    1.4506    0.4820 C   0  0  0  0  0  0  0  0  0  0  0  0
   -0.6165    1.6131    1.3601 H   0  0  0  0  0  0  0  0  0  0  0  0
    0.9695    1.9623    0.6631 H   0  0  0  0  0  0  0  0  0  0  0  0
   -0.7688    2.1767   -1.0147 S   0  0  0  0  0  0  0  0  0  0  0  0
   -0.8668    3.4755   -0.6539 H   0  0  0  0  0  0  0  0  0  0  0  0
    1.1663   -0.5303    1.4560 C   0  0  0  0  0  0  0  0  0  0  0  0
    0.6703   -0.8054    2.5436 O   0  0  0  0  0  0  0  0  0  0  0  0
    2.5156   -0.2193    1.4355 N   0  0  0  0  0  0  0  0  0  0  0  0
    2.9252   -0.0129    0.5295 H   0  0  0  0  0  0  0  0  0  0  0  0
    3.4086   -0.5057    2.5529 C   0  0  0  0  0  0  0  0  0  0  0  0
    3.4000   -1.5762    2.7847 H   0  0  0  0  0  0  0  0  0  0  0  0
    4.4331   -0.2130    2.3040 H   0  0  0  0  0  0  0  0  0  0  0  0
    3.0988    0.0499    3.4444 H   0  0  0  0  0  0  0  0  0  0  0  0
  1  2  1  0  0  0  0
  2  3  1  0  0  0  0
  2  4  1  0  0  0  0
  2  5  1  0  0  0  0
  5  6  2  0  0  0  0
  5  7  1  0  0  0  0
  7  8  1  0  0  0  0
  7  9  1  0  0  0  0
  9 10  1  0  0  0  0
  9 11  1  0  0  0  0
  9 16  1  0  0  0  0
 11 12  1  0  0  0  0
 11 13  1  0  0  0  0
 11 14  1  0  0  0  0
 14 15  1  0  0  0  0
 16 17  2  0  0  0  0
 16 18  1  0  0  0  0
 18 19  1  0  0  0  0
 18 20  1  0  0  0  0
 20 21  1  0  0  0  0
 20 22  1  0  0  0  0
 20 23  1  0  0  0  0
M  END
$$$$

  -OEChem-01062216073D

 23 22  0     1  0  0  0  0  0999 V2000
   -2.9207   -3.3780    1.1349 H   0  0  0  0  0  0  0  0  0  0  0  0
   -2.8160   -2.3106    0.9218 C   0  0  0  0  0  0  0  0  0  0  0  0
   -3.0600   -1.7473    1.8254 H   0  0  0  0  0  0  0  0  0  0  0  0
   -3.5145   -2.0381    0.1274 H   0  0  0  0  0  0  0  0  0  0  0  0
   -1.3945   -2.0042    0.4911 C   0  0  0  0  0  0  0  0  0  0  0  0
   -0.6276   -2.9208    0.2456 O   0  0  0  0  0  0  0  0  0  0  0  0
   -1.0502   -0.7140    0.1373 N   0  0  0  0  0  0  0  0  0  0  0  0
   -1.8177   -0.0507    0.1897 H   0  0  0  0  0  0  0  0  0  0  0  0
    0.2959   -0.1143    0.2744 C   0  0  1  0  0  0  0  0  0  0  0  0
    0.7349   -0.0354   -0.7244 H   0  0  0  0  0  0  0  0  0  0  0  0
    0.0421    1.2915    0.8467 C   0  0  0  0  0  0  0  0  0  0  0  0
   -0.5124    1.2132    1.7885 H   0  0  0  0  0  0  0  0  0  0  0  0
    0.9905    1.7926    1.0652 H   0  0  0  0  0  0  0  0  0  0  0  0
   -0.8908    2.3207   -0.3613 S   0  0  0  0  0  0  0  0  0  0  0  0
   -0.9911    3.4892    0.3112 H   0  0  0  0  0  0  0  0  0  0  0  0
    1.3591   -0.8092    1.1753 C   0  0  0  0  0  0  0  0  0  0  0  0
    1.0220   -1.4846    2.1401 O   0  0  0  0  0  0  0  0  0  0  0  0
    2.6151   -0.2293    1.2767 N   0  0  0  0  0  0  0  0  0  0  0  0
    2.9120    0.3607    0.5057 H   0  0  0  0  0  0  0  0  0  0  0  0
    3.6160   -0.6486    2.2530 C   0  0  0  0  0  0  0  0  0  0  0  0
    3.8242   -1.7192    2.1526 H   0  0  0  0  0  0  0  0  0  0  0  0
    4.5492   -0.0987    2.0985 H   0  0  0  0  0  0  0  0  0  0  0  0
    3.2649   -0.4518    3.2715 H   0  0  0  0  0  0  0  0  0  0  0  0
  1  2  1  0  0  0  0
  2  3  1  0  0  0  0
  2  4  1  0  0  0  0
  2  5  1  0  0  0  0
  5  6  2  0  0  0  0
  5  7  1  0  0  0  0
  7  8  1  0  0  0  0
  7  9  1  0  0  0  0
  9 10  1  0  0  0  0
  9 11  1  0  0  0  0
  9 16  1  0  0  0  0
 11 12  1  0  0  0  0
 11 13  1  0  0  0  0
 11 14  1  0  0  0  0
 14 15  1  0  0  0  0
 16 17  2  0  0  0  0
 16 18  1  0  0  0  0
 18 19  1  0  0  0  0
 18 20  1  0  0  0  0
 20 21  1  0  0  0  0
 20 22  1  0  0  0  0
 20 23  1  0  0  0  0
M  END
$$$$

  -OEChem-01062216073D

 23 22  0     1  0  0  0  0  0999 V2000
   -2.9173   -3.3588    1.1602 H   0  0  0  0  0  0  0  0  0  0  0  0
   -2.8023   -2.2937    0.9401 C   0  0  0  0  0  0  0  0  0  0  0  0
   -3.0120   -1.7244    1.8487 H   0  0  0  0  0  0  0  0  0  0  0  0
   -3.5190   -2.0127    0.1649 H   0  0  0  0  0  0  0  0  0  0  0  0
   -1.3890   -2.0120    0.4675 C   0  0  0  0  0  0  0  0  0  0  0  0
   -0.6721   -2.9412    0.1367 O   0  0  0  0  0  0  0  0  0  0  0  0
   -1.0283   -0.7212    0.1339 N   0  0  0  0  0  0  0  0  0  0  0  0
   -1.7958   -0.0584    0.1913 H   0  0  0  0  0  0  0  0  0  0  0  0
    0.3135   -0.1120    0.2898 C   0  0  1  0  0  0  0  0  0  0  0  0
    0.7615   -0.0290   -0.7050 H   0  0  0  0  0  0  0  0  0  0  0  0
    0.0073    1.2964    0.8394 C   0  0  0  0  0  0  0  0  0  0  0  0
   -0.5681    1.2148    1.7684 H   0  0  0  0  0  0  0  0  0  0  0  0
    0.9300    1.8352    1.0719 H   0  0  0  0  0  0  0  0  0  0  0  0
   -0.9189    2.2877   -0.4054 S   0  0  0  0  0  0  0  0  0  0  0  0
   -1.0627    3.4647    0.2440 H   0  0  0  0  0  0  0  0  0  0  0  0
    1.3966   -0.7858    1.1944 C   0  0  0  0  0  0  0  0  0  0  0  0
    1.1389   -1.7153    1.9454 O   0  0  0  0  0  0  0  0  0  0  0  0
    2.5162   -0.0513    1.5611 N   0  0  0  0  0  0  0  0  0  0  0  0
    2.7668    0.7310    0.9650 H   0  0  0  0  0  0  0  0  0  0  0  0
    3.4941   -0.5093    2.5448 C   0  0  0  0  0  0  0  0  0  0  0  0
    3.8994   -1.4853    2.2571 H   0  0  0  0  0  0  0  0  0  0  0  0
    4.3227    0.2019    2.6145 H   0  0  0  0  0  0  0  0  0  0  0  0
    3.0325   -0.5980    3.5340 H   0  0  0  0  0  0  0  0  0  0  0  0
  1  2  1  0  0  0  0
  2  3  1  0  0  0  0
  2  4  1  0  0  0  0
  2  5  1  0  0  0  0
  5  6  2  0  0  0  0
  5  7  1  0  0  0  0
  7  8  1  0  0  0  0
  7  9  1  0  0  0  0
  9 10  1  0  0  0  0
  9 11  1  0  0  0  0
  9 16  1  0  0  0  0
 11 12  1  0  0  0  0
 11 13  1  0  0  0  0
 11 14  1  0  0  0  0
 14 15  1  0  0  0  0
 16 17  2  0  0  0  0
 16 18  1  0  0  0  0
 18 19  1  0  0  0  0
 18 20  1  0  0  0  0
 20 21  1  0  0  0  0
 20 22  1  0  0  0  0
 20 23  1  0  0  0  0
M  END
$$$$

  -OEChem-01062216073D

 23 22  0     1  0  0  0  0  0999 V2000
   -2.9589   -3.4495    1.0167 H   0  0  0  0  0  0  0  0  0  0  0  0
   -2.7738   -2.5033    0.5003 C   0  0  0  0  0  0  0  0  0  0  0  0
   -3.6723   -1.8851    0.5623 H   0  0  0  0  0  0  0  0  0  0  0  0
   -2.5536   -2.7144   -0.5487 H   0  0  0  0  0  0  0  0  0  0  0  0
   -1.6015   -1.7834    1.1393 C   0  0  0  0  0  0  0  0  0  0  0  0
   -1.1848   -2.1697    2.2170 O   0  0  0  0  0  0  0  0  0  0  0  0
   -1.2149   -0.5527    0.6446 N   0  0  0  0  0  0  0  0  0  0  0  0
   -1.8113   -0.2223   -0.1088 H   0  0  0  0  0  0  0  0  0  0  0  0
    0.1638   -0.0123    0.5878 C   0  0  1  0  0  0  0  0  0  0  0  0
    0.5104   -0.0768   -0.4483 H   0  0  0  0  0  0  0  0  0  0  0  0
    0.0040    1.4728    0.9552 C   0  0  0  0  0  0  0  0  0  0  0  0
   -0.4828    1.5631    1.9327 H   0  0  0  0  0  0  0  0  0  0  0  0
    0.9772    1.9678    1.0117 H   0  0  0  0  0  0  0  0  0  0  0  0
   -0.9873    2.3336   -0.3377 S   0  0  0  0  0  0  0  0  0  0  0  0
   -1.0723    3.5783    0.1827 H   0  0  0  0  0  0  0  0  0  0  0  0
    1.2864   -0.7005    1.4206 C   0  0  0  0  0  0  0  0  0  0  0  0
    1.5014   -1.8930    1.2458 O   0  0  0  0  0  0  0  0  0  0  0  0
    2.3615    0.0243    1.9156 N   0  0  0  0  0  0  0  0  0  0  0  0
    2.2386    1.0239    2.0288 H   0  0  0  0  0  0  0  0  0  0  0  0
    3.5447   -0.5991    2.5010 C   0  0  0  0  0  0  0  0  0  0  0  0
    4.0687   -1.2052    1.7542 H   0  0  0  0  0  0  0  0  0  0  0  0
    4.2348    0.1666    2.8680 H   0  0  0  0  0  0  0  0  0  0  0  0
    3.2624   -1.2424    3.3413 H   0  0  0  0  0  0  0  0  0  0  0  0
  1  2  1  0  0  0  0
  2  3  1  0  0  0  0
  2  4  1  0  0  0  0
  2  5  1  0  0  0  0
  5  6  2  0  0  0  0
  5  7  1  0  0  0  0
  7  8  1  0  0  0  0
  7  9  1  0  0  0  0
  9 10  1  0  0  0  0
  9 11  1  0  0  0  0
  9 16  1  0  0  0  0
 11 12  1  0  0  0  0
 11 13  1  0  0  0  0
 11 14  1  0  0  0  0
 14 15  1  0  0  0  0
 16 17  2  0  0  0  0
 16 18  1  0  0  0  0
 18 19  1  0  0  0  0
 18 20  1  0  0  0  0
 20 21  1  0  0  0  0
 20 22  1  0  0  0  0
 20 23  1  0  0  0  0
M  END
$$$$

  -OEChem-01062216073D

 23 22  0     1  0  0  0  0  0999 V2000
   -2.9774   -3.4471    1.0211 H   0  0  0  0  0  0  0  0  0  0  0  0
   -2.8177   -2.4806    0.5347 C   0  0  0  0  0  0  0  0  0  0  0  0
   -3.6947   -1.8512    0.7033 H   0  0  0  0  0  0  0  0  0  0  0  0
   -2.6943   -2.6455   -0.5383 H   0  0  0  0  0  0  0  0  0  0  0  0
   -1.5799   -1.8107    1.1009 C   0  0  0  0  0  0  0  0  0  0  0  0
   -1.0630   -2.2729    2.1024 O   0  0  0  0  0  0  0  0  0  0  0  0
   -1.2032   -0.5739    0.6121 N   0  0  0  0  0  0  0  0  0  0  0  0
   -1.8253   -0.2158   -0.1075 H   0  0  0  0  0  0  0  0  0  0  0  0
    0.1670   -0.0144    0.5581 C   0  0  1  0  0  0  0  0  0  0  0  0
    0.5180   -0.0818   -0.4764 H   0  0  0  0  0  0  0  0  0  0  0  0
    0.0053    1.4722    0.9136 C   0  0  0  0  0  0  0  0  0  0  0  0
   -0.4814    1.5725    1.8900 H   0  0  0  0  0  0  0  0  0  0  0  0
    0.9828    1.9616    0.9638 H   0  0  0  0  0  0  0  0  0  0  0  0
   -0.9854    2.3222   -0.3866 S   0  0  0  0  0  0  0  0  0  0  0  0
   -1.0376    3.5804    0.1045 H   0  0  0  0  0  0  0  0  0  0  0  0
    1.2833   -0.7023    1.3964 C   0  0  0  0  0  0  0  0  0  0  0  0
    1.6454   -1.8237    1.0626 O   0  0  0  0  0  0  0  0  0  0  0  0
    2.1810    0.0272    2.1626 N   0  0  0  0  0  0  0  0  0  0  0  0
    1.8856    0.9485    2.4654 H   0  0  0  0  0  0  0  0  0  0  0  0
    3.3317   -0.5806    2.8231 C   0  0  0  0  0  0  0  0  0  0  0  0
    4.0237   -0.9968    2.0832 H   0  0  0  0  0  0  0  0  0  0  0  0
    3.8689    0.1678    3.4134 H   0  0  0  0  0  0  0  0  0  0  0  0
    3.0082   -1.3841    3.4935 H   0  0  0  0  0  0  0  0  0  0  0  0
  1  2  1  0  0  0  0
  2  3  1  0  0  0  0
  2  4  1  0  0  0  0
  2  5  1  0  0  0  0
  5  6  2  0  0  0  0
  5  7  1  0  0  0  0
  7  8  1  0  0  0  0
  7  9  1  0  0  0  0
  9 10  1  0  0  0  0
  9 11  1  0  0  0  0
  9 16  1  0  0  0  0
 11 12  1  0  0  0  0
 11 13  1  0  0  0  0
 11 14  1  0  0  0  0
 14 15  1  0  0  0  0
 16 17  2  0  0  0  0
 16 18  1  0  0  0  0
 18 19  1  0  0  0  0
 18 20  1  0  0  0  0
 20 21  1  0  0  0  0
 20 22  1  0  0  0  0
 20 23  1  0  0  0  0
M  END
$$$$

  -OEChem-01062216073D

 23 22  0     1  0  0  0  0  0999 V2000
   -2.9841   -3.4549    1.0080 H   0  0  0  0  0  0  0  0  0  0  0  0
   -2.8511   -2.4642    0.5639 C   0  0  0  0  0  0  0  0  0  0  0  0
   -3.6994   -1.8351    0.8437 H   0  0  0  0  0  0  0  0  0  0  0  0
   -2.8246   -2.5694   -0.5233 H   0  0  0  0  0  0  0  0  0  0  0  0
   -1.5576   -1.8417    1.0552 C   0  0  0  0  0  0  0  0  0  0  0  0
   -0.9564   -2.3748    1.9704 O   0  0  0  0  0  0  0  0  0  0  0  0
   -1.1903   -0.5974    0.5764 N   0  0  0  0  0  0  0  0  0  0  0  0
   -1.8375   -0.2085   -0.1045 H   0  0  0  0  0  0  0  0  0  0  0  0
    0.1713   -0.0185    0.5293 C   0  0  1  0  0  0  0  0  0  0  0  0
    0.5255   -0.0789   -0.5052 H   0  0  0  0  0  0  0  0  0  0  0  0
    0.0068    1.4657    0.8901 C   0  0  0  0  0  0  0  0  0  0  0  0
   -0.4820    1.5635    1.8654 H   0  0  0  0  0  0  0  0  0  0  0  0
    0.9875    1.9496    0.9459 H   0  0  0  0  0  0  0  0  0  0  0  0
   -0.9848    2.3198   -0.4062 S   0  0  0  0  0  0  0  0  0  0  0  0
   -0.9905    3.5888    0.0597 H   0  0  0  0  0  0  0  0  0  0  0  0
    1.2877   -0.7001    1.3692 C   0  0  0  0  0  0  0  0  0  0  0  0
    1.8085   -1.7134    0.9196 O   0  0  0  0  0  0  0  0  0  0  0  0
    1.9721   -0.0260    2.3694 N   0  0  0  0  0  0  0  0  0  0  0  0
    1.4936    0.7611    2.7932 H   0  0  0  0  0  0  0  0  0  0  0  0
    3.0800   -0.6312    3.1007 C   0  0  0  0  0  0  0  0  0  0  0  0
    3.9154   -0.8441    2.4254 H   0  0  0  0  0  0  0  0  0  0  0  0
    3.4337    0.0476    3.8823 H   0  0  0  0  0  0  0  0  0  0  0  0
    2.7615   -1.5673    3.5719 H   0  0  0  0  0  0  0  0  0  0  0  0
  1  2  1  0  0  0  0
  2  3  1  0  0  0  0
  2  4  1  0  0  0  0
  2  5  1  0  0  0  0
  5  6  2  0  0  0  0
  5  7  1  0  0  0  0
  7  8  1  0  0  0  0
  7  9  1  0  0  0  0
  9 10  1  0  0  0  0
  9 11  1  0  0  0  0
  9 16  1  0  0  0  0
 11 12  1  0  0  0  0
 11 13  1  0  0  0  0
 11 14  1  0  0  0  0
 14 15  1  0  0  0  0
 16 17  2  0  0  0  0
 16 18  1  0  0  0  0
 18 19  1  0  0  0  0
 18 20  1  0  0  0  0
 20 21  1  0  0  0  0
 20 22  1  0  0  0  0
 20 23  1  0  0  0  0
M  END
$$$$

  -OEChem-01062216073D

 23 22  0     1  0  0  0  0  0999 V2000
   -3.0103   -3.4442    1.0058 H   0  0  0  0  0  0  0  0  0  0  0  0
   -2.8789   -2.4451    0.5804 C   0  0  0  0  0  0  0  0  0  0  0  0
   -3.6874   -1.8016    0.9352 H   0  0  0  0  0  0  0  0  0  0  0  0
   -2.9304   -2.5192   -0.5085 H   0  0  0  0  0  0  0  0  0  0  0  0
   -1.5377   -1.8719    0.9983 C   0  0  0  0  0  0  0  0  0  0  0  0
   -0.8695   -2.4718    1.8206 O   0  0  0  0  0  0  0  0  0  0  0  0
   -1.1736   -0.6209    0.5349 N   0  0  0  0  0  0  0  0  0  0  0  0
   -1.8444   -0.1946   -0.0996 H   0  0  0  0  0  0  0  0  0  0  0  0
    0.1803   -0.0243    0.5055 C   0  0  1  0  0  0  0  0  0  0  0  0
    0.5417   -0.0732   -0.5271 H   0  0  0  0  0  0  0  0  0  0  0  0
    0.0101    1.4548    0.8793 C   0  0  0  0  0  0  0  0  0  0  0  0
   -0.4860    1.5449    1.8512 H   0  0  0  0  0  0  0  0  0  0  0  0
    0.9925    1.9344    0.9501 H   0  0  0  0  0  0  0  0  0  0  0  0
   -0.9758    2.3180   -0.4149 S   0  0  0  0  0  0  0  0  0  0  0  0
   -0.9709    3.5855    0.0541 H   0  0  0  0  0  0  0  0  0  0  0  0
    1.2956   -0.6963    1.3511 C   0  0  0  0  0  0  0  0  0  0  0  0
    1.9868   -1.5571    0.8210 O   0  0  0  0  0  0  0  0  0  0  0  0
    1.7438   -0.1436    2.5408 N   0  0  0  0  0  0  0  0  0  0  0  0
    1.0884    0.4605    3.0246 H   0  0  0  0  0  0  0  0  0  0  0  0
    2.8142   -0.7534    3.3216 C   0  0  0  0  0  0  0  0  0  0  0  0
    3.7450   -0.7767    2.7451 H   0  0  0  0  0  0  0  0  0  0  0  0
    2.9908   -0.1788    4.2358 H   0  0  0  0  0  0  0  0  0  0  0  0
    2.5476   -1.7784    3.6011 H   0  0  0  0  0  0  0  0  0  0  0  0
  1  2  1  0  0  0  0
  2  3  1  0  0  0  0
  2  4  1  0  0  0  0
  2  5  1  0  0  0  0
  5  6  2  0  0  0  0
  5  7  1  0  0  0  0
  7  8  1  0  0  0  0
  7  9  1  0  0  0  0
  9 10  1  0  0  0  0
  9 11  1  0  0  0  0
  9 16  1  0  0  0  0
 11 12  1  0  0  0  0
 11 13  1  0  0  0  0
 11 14  1  0  0  0  0
 14 15  1  0  0  0  0
 16 17  2  0  0  0  0
 16 18  1  0  0  0  0
 18 19  1  0  0  0  0
 18 20  1  0  0  0  0
 20 21  1  0  0  0  0
 20 22  1  0  0  0  0
 20 23  1  0  0  0  0
M  END
$$$$

  -OEChem-01062216073D

 23 22  0     1  0  0  0  0  0999 V2000
   -3.0307   -3.4344    1.0100 H   0  0  0  0  0  0  0  0  0  0  0  0
   -2.8972   -2.4339    0.5886 C   0  0  0  0  0  0  0  0  0  0  0  0
   -3.6785   -1.7789    0.9816 H   0  0  0  0  0  0  0  0  0  0  0  0
   -2.9935   -2.4959   -0.4981 H   0  0  0  0  0  0  0  0  0  0  0  0
   -1.5299   -1.8900    0.9575 C   0  0  0  0  0  0  0  0  0  0  0  0
   -0.8254   -2.5276    1.7190 O   0  0  0  0  0  0  0  0  0  0  0  0
   -1.1661   -0.6359    0.5024 N   0  0  0  0  0  0  0  0  0  0  0  0
   -1.8499   -0.1856   -0.1012 H   0  0  0  0  0  0  0  0  0  0  0  0
    0.1839   -0.0308    0.4857 C   0  0  1  0  0  0  0  0  0  0  0  0
    0.5502   -0.0686   -0.5459 H   0  0  0  0  0  0  0  0  0  0  0  0
    0.0178    1.4429    0.8787 C   0  0  0  0  0  0  0  0  0  0  0  0
   -0.4790    1.5231    1.8510 H   0  0  0  0  0  0  0  0  0  0  0  0
    1.0033    1.9152    0.9603 H   0  0  0  0  0  0  0  0  0  0  0  0
   -0.9643    2.3261   -0.4046 S   0  0  0  0  0  0  0  0  0  0  0  0
   -0.9286    3.5927    0.0656 H   0  0  0  0  0  0  0  0  0  0  0  0
    1.2950   -0.6971    1.3374 C   0  0  0  0  0  0  0  0  0  0  0  0
    2.1534   -1.3593    0.7678 O   0  0  0  0  0  0  0  0  0  0  0  0
    1.5098   -0.3237    2.6540 N   0  0  0  0  0  0  0  0  0  0  0  0
    0.6986    0.0507    3.1354 H   0  0  0  0  0  0  0  0  0  0  0  0
    2.5540   -0.9384    3.4649 C   0  0  0  0  0  0  0  0  0  0  0  0
    3.5399   -0.7565    3.0242 H   0  0  0  0  0  0  0  0  0  0  0  0
    2.5463   -0.5174    4.4747 H   0  0  0  0  0  0  0  0  0  0  0  0
    2.3946   -2.0197    3.5369 H   0  0  0  0  0  0  0  0  0  0  0  0
  1  2  1  0  0  0  0
  2  3  1  0  0  0  0
  2  4  1  0  0  0  0
  2  5  1  0  0  0  0
  5  6  2  0  0  0  0
  5  7  1  0  0  0  0
  7  8  1  0  0  0  0
  7  9  1  0  0  0  0
  9 10  1  0  0  0  0
  9 11  1  0  0  0  0
  9 16  1  0  0  0  0
 11 12  1  0  0  0  0
 11 13  1  0  0  0  0
 11 14  1  0  0  0  0
 14 15  1  0  0  0  0
 16 17  2  0  0  0  0
 16 18  1  0  0  0  0
 18 19  1  0  0  0  0
 18 20  1  0  0  0  0
 20 21  1  0  0  0  0
 20 22  1  0  0  0  0
 20 23  1  0  0  0  0
M  END
$$$$

  -OEChem-01062216073D

 23 22  0     1  0  0  0  0  0999 V2000
   -3.0593   -3.4282    0.9765 H   0  0  0  0  0  0  0  0  0  0  0  0
   -2.9278   -2.4135    0.5899 C   0  0  0  0  0  0  0  0  0  0  0  0
   -3.6786   -1.7629    1.0446 H   0  0  0  0  0  0  0  0  0  0  0  0
   -3.0757   -2.4299   -0.4926 H   0  0  0  0  0  0  0  0  0  0  0  0
   -1.5355   -1.9062    0.9156 C   0  0  0  0  0  0  0  0  0  0  0  0
   -0.8089   -2.5820    1.6214 O   0  0  0  0  0  0  0  0  0  0  0  0
   -1.1598   -0.6526    0.4694 N   0  0  0  0  0  0  0  0  0  0  0  0
   -1.8533   -0.1716   -0.0987 H   0  0  0  0  0  0  0  0  0  0  0  0
    0.1898   -0.0455    0.4691 C   0  0  1  0  0  0  0  0  0  0  0  0
    0.5643   -0.0739   -0.5599 H   0  0  0  0  0  0  0  0  0  0  0  0
    0.0254    1.4223    0.8815 C   0  0  0  0  0  0  0  0  0  0  0  0
   -0.4727    1.4912    1.8540 H   0  0  0  0  0  0  0  0  0  0  0  0
    1.0123    1.8892    0.9739 H   0  0  0  0  0  0  0  0  0  0  0  0
   -0.9486    2.3256   -0.3938 S   0  0  0  0  0  0  0  0  0  0  0  0
   -0.8937    3.5886    0.0846 H   0  0  0  0  0  0  0  0  0  0  0  0
    1.2968   -0.7040    1.3293 C   0  0  0  0  0  0  0  0  0  0  0  0
    2.3047   -1.1247    0.7756 O   0  0  0  0  0  0  0  0  0  0  0  0
    1.2988   -0.5588    2.7061 N   0  0  0  0  0  0  0  0  0  0  0  0
    0.3780   -0.4370    3.1169 H   0  0  0  0  0  0  0  0  0  0  0  0
    2.3296   -1.1679    3.5381 C   0  0  0  0  0  0  0  0  0  0  0  0
    3.3198   -0.7893    3.2633 H   0  0  0  0  0  0  0  0  0  0  0  0
    2.1530   -0.9319    4.5918 H   0  0  0  0  0  0  0  0  0  0  0  0
    2.3231   -2.2568    3.4189 H   0  0  0  0  0  0  0  0  0  0  0  0
  1  2  1  0  0  0  0
  2  3  1  0  0  0  0
  2  4  1  0  0  0  0
  2  5  1  0  0  0  0
  5  6  2  0  0  0  0
  5  7  1  0  0  0  0
  7  8  1  0  0  0  0
  7  9  1  0  0  0  0
  9 10  1  0  0  0  0
  9 11  1  0  0  0  0
  9 16  1  0  0  0  0
 11 12  1  0  0  0  0
 11 13  1  0  0  0  0
 11 14  1  0  0  0  0
 14 15  1  0  0  0  0
 16 17  2  0  0  0  0
 16 18  1  0  0  0  0
 18 19  1  0  0  0  0
 18 20  1  0  0  0  0
 20 21  1  0  0  0  0
 20 22  1  0  0  0  0
 20 23  1  0  0  0  0
M  END
$$$$

  -OEChem-01062216073D

 23 22  0     1  0  0  0  0  0999 V2000
   -3.1329   -3.4049    0.9200 H   0  0  0  0  0  0  0  0  0  0  0  0
   -2.9836   -2.3825    0.5610 C   0  0  0  0  0  0  0  0  0  0  0  0
   -3.7132   -1.7291    1.0450 H   0  0  0  0  0  0  0  0  0  0  0  0
   -3.1474   -2.3637   -0.5192 H   0  0  0  0  0  0  0  0  0  0  0  0
   -1.5757   -1.9162    0.8809 C   0  0  0  0  0  0  0  0  0  0  0  0
   -0.8579   -2.6225    1.5654 O   0  0  0  0  0  0  0  0  0  0  0  0
   -1.1683   -0.6704    0.4432 N   0  0  0  0  0  0  0  0  0  0  0  0
   -1.8566   -0.1610   -0.1066 H   0  0  0  0  0  0  0  0  0  0  0  0
    0.1881   -0.0760    0.4609 C   0  0  1  0  0  0  0  0  0  0  0  0
    0.5699   -0.0979   -0.5656 H   0  0  0  0  0  0  0  0  0  0  0  0
    0.0307    1.3857    0.8933 C   0  0  0  0  0  0  0  0  0  0  0  0
   -0.4708    1.4417    1.8650 H   0  0  0  0  0  0  0  0  0  0  0  0
    1.0206    1.8438    0.9988 H   0  0  0  0  0  0  0  0  0  0  0  0
   -0.9273    2.3184   -0.3732 S   0  0  0  0  0  0  0  0  0  0  0  0
   -0.8598    3.5724    0.1274 H   0  0  0  0  0  0  0  0  0  0  0  0
    1.2950   -0.7242    1.3286 C   0  0  0  0  0  0  0  0  0  0  0  0
    2.4102   -0.8683    0.8438 O   0  0  0  0  0  0  0  0  0  0  0  0
    1.1397   -0.8405    2.6985 N   0  0  0  0  0  0  0  0  0  0  0  0
    0.1764   -1.0062    2.9814 H   0  0  0  0  0  0  0  0  0  0  0  0
    2.1852   -1.4091    3.5405 C   0  0  0  0  0  0  0  0  0  0  0  0
    3.1081   -0.8257    3.4553 H   0  0  0  0  0  0  0  0  0  0  0  0
    1.8713   -1.4020    4.5884 H   0  0  0  0  0  0  0  0  0  0  0  0
    2.3929   -2.4433    3.2459 H   0  0  0  0  0  0  0  0  0  0  0  0
  1  2  1  0  0  0  0
  2  3  1  0  0  0  0
  2  4  1  0  0  0  0
  2  5  1  0  0  0  0
  5  6  2  0  0  0  0
  5  7  1  0  0  0  0
  7  8  1  0  0  0  0
  7  9  1  0  0  0  0
  9 10  1  0  0  0  0
  9 11  1  0  0  0  0
  9 16  1  0  0  0  0
 11 12  1  0  0  0  0
 11 13  1  0  0  0  0
 11 14  1  0  0  0  0
 14 15  1  0  0  0  0
 16 17  2  0  0  0  0
 16 18  1  0  0  0  0
 18 19  1  0  0  0  0
 18 20  1  0  0  0  0
 20 21  1  0  0  0  0
 20 22  1  0  0  0  0
 20 23  1  0  0  0  0
M  END
$$$$

  -OEChem-01062216073D

 23 22  0     1  0  0  0  0  0999 V2000
   -3.2406   -3.3429    0.8914 H   0  0  0  0  0  0  0  0  0  0  0  0
   -3.0495   -2.3256    0.5382 C   0  0  0  0  0  0  0  0  0  0  0  0
   -3.7304   -1.6413    1.0502 H   0  0  0  0  0  0  0  0  0  0  0  0
   -3.2430   -2.2858   -0.5366 H   0  0  0  0  0  0  0  0  0  0  0  0
   -1.6112   -1.9347    0.8209 C   0  0  0  0  0  0  0  0  0  0  0  0
   -0.8982   -2.7069    1.4352 O   0  0  0  0  0  0  0  0  0  0  0  0
   -1.1648   -0.6948    0.4061 N   0  0  0  0  0  0  0  0  0  0  0  0
   -1.8541   -0.1386   -0.0958 H   0  0  0  0  0  0  0  0  0  0  0  0
    0.1943   -0.1047    0.4570 C   0  0  1  0  0  0  0  0  0  0  0  0
    0.5931   -0.1147   -0.5629 H   0  0  0  0  0  0  0  0  0  0  0  0
    0.0162    1.3506    0.9035 C   0  0  0  0  0  0  0  0  0  0  0  0
   -0.5046    1.3906    1.8658 H   0  0  0  0  0  0  0  0  0  0  0  0
    0.9995    1.8169    1.0351 H   0  0  0  0  0  0  0  0  0  0  0  0
   -0.9206    2.2900   -0.3741 S   0  0  0  0  0  0  0  0  0  0  0  0
   -0.8679    3.5395    0.1388 H   0  0  0  0  0  0  0  0  0  0  0  0
    1.3047   -0.7332    1.3374 C   0  0  0  0  0  0  0  0  0  0  0  0
    2.4671   -0.6189    0.9689 O   0  0  0  0  0  0  0  0  0  0  0  0
    1.0582   -1.1363    2.6366 N   0  0  0  0  0  0  0  0  0  0  0  0
    0.1191   -1.5156    2.7596 H   0  0  0  0  0  0  0  0  0  0  0  0
    2.1081   -1.6930    3.4809 C   0  0  0  0  0  0  0  0  0  0  0  0
    2.9149   -0.9662    3.6222 H   0  0  0  0  0  0  0  0  0  0  0  0
    1.7030   -1.9513    4.4639 H   0  0  0  0  0  0  0  0  0  0  0  0
    2.5245   -2.5985    3.0270 H   0  0  0  0  0  0  0  0  0  0  0  0
  1  2  1  0  0  0  0
  2  3  1  0  0  0  0
  2  4  1  0  0  0  0
  2  5  1  0  0  0  0
  5  6  2  0  0  0  0
  5  7  1  0  0  0  0
  7  8  1  0  0  0  0
  7  9  1  0  0  0  0
  9 10  1  0  0  0  0
  9 11  1  0  0  0  0
  9 16  1  0  0  0  0
 11 12  1  0  0  0  0
 11 13  1  0  0  0  0
 11 14  1  0  0  0  0
 14 15  1  0  0  0  0
 16 17  2  0  0  0  0
 16 18  1  0  0  0  0
 18 19  1  0  0  0  0
 18 20  1  0  0  0  0
 20 21  1  0  0  0  0
 20 22  1  0  0  0  0
 20 23  1  0  0  0  0
M  END
$$$$

  -OEChem-01062216073D

 23 22  0     1  0  0  0  0  0999 V2000
   -3.3431   -3.2842    0.8321 H   0  0  0  0  0  0  0  0  0  0  0  0
   -3.1154   -2.2635    0.5119 C   0  0  0  0  0  0  0  0  0  0  0  0
   -3.7422   -1.5696    1.0770 H   0  0  0  0  0  0  0  0  0  0  0  0
   -3.3471   -2.1702   -0.5519 H   0  0  0  0  0  0  0  0  0  0  0  0
   -1.6502   -1.9527    0.7527 C   0  0  0  0  0  0  0  0  0  0  0  0
   -0.9468   -2.7991    1.2726 O   0  0  0  0  0  0  0  0  0  0  0  0
   -1.1637   -0.7186    0.3668 N   0  0  0  0  0  0  0  0  0  0  0  0
   -1.8510   -0.1171   -0.0826 H   0  0  0  0  0  0  0  0  0  0  0  0
    0.1971   -0.1338    0.4574 C   0  0  1  0  0  0  0  0  0  0  0  0
    0.6167   -0.1316   -0.5541 H   0  0  0  0  0  0  0  0  0  0  0  0
   -0.0123    1.3164    0.9135 C   0  0  0  0  0  0  0  0  0  0  0  0
   -0.5596    1.3397    1.8617 H   0  0  0  0  0  0  0  0  0  0  0  0
    0.9596    1.7963    1.0777 H   0  0  0  0  0  0  0  0  0  0  0  0
   -0.9224    2.2617   -0.3795 S   0  0  0  0  0  0  0  0  0  0  0  0
   -0.8803    3.5093    0.1390 H   0  0  0  0  0  0  0  0  0  0  0  0
    1.3112   -0.7420    1.3531 C   0  0  0  0  0  0  0  0  0  0  0  0
    2.4702   -0.4260    1.1133 O   0  0  0  0  0  0  0  0  0  0  0  0
    1.0523   -1.4243    2.5264 N   0  0  0  0  0  0  0  0  0  0  0  0
    0.1537   -1.9102    2.5254 H   0  0  0  0  0  0  0  0  0  0  0  0
    2.1127   -1.9854    3.3546 C   0  0  0  0  0  0  0  0  0  0  0  0
    2.8001   -1.1997    3.6851 H   0  0  0  0  0  0  0  0  0  0  0  0
    1.6845   -2.4613    4.2419 H   0  0  0  0  0  0  0  0  0  0  0  0
    2.6790   -2.7371    2.7949 H   0  0  0  0  0  0  0  0  0  0  0  0
  1  2  1  0  0  0  0
  2  3  1  0  0  0  0
  2  4  1  0  0  0  0
  2  5  1  0  0  0  0
  5  6  2  0  0  0  0
  5  7  1  0  0  0  0
  7  8  1  0  0  0  0
  7  9  1  0  0  0  0
  9 10  1  0  0  0  0
  9 11  1  0  0  0  0
  9 16  1  0  0  0  0
 11 12  1  0  0  0  0
 11 13  1  0  0  0  0
 11 14  1  0  0  0  0
 14 15  1  0  0  0  0
 16 17  2  0  0  0  0
 16 18  1  0  0  0  0
 18 19  1  0  0  0  0
 18 20  1  0  0  0  0
 20 21  1  0  0  0  0
 20 22  1  0  0  0  0
 20 23  1  0  0  0  0
M  END
$$$$

  -OEChem-01062216073D

 23 22  0     1  0  0  0  0  0999 V2000
   -3.4384   -3.2116    0.8153 H   0  0  0  0  0  0  0  0  0  0  0  0
   -3.1722   -2.1985    0.5003 C   0  0  0  0  0  0  0  0  0  0  0  0
   -3.7454   -1.4836    1.0956 H   0  0  0  0  0  0  0  0  0  0  0  0
   -3.4348   -2.0787   -0.5536 H   0  0  0  0  0  0  0  0  0  0  0  0
   -1.6863   -1.9614    0.6946 C   0  0  0  0  0  0  0  0  0  0  0  0
   -0.9988   -2.8712    1.1194 O   0  0  0  0  0  0  0  0  0  0  0  0
   -1.1637   -0.7334    0.3378 N   0  0  0  0  0  0  0  0  0  0  0  0
   -1.8476   -0.0941   -0.0621 H   0  0  0  0  0  0  0  0  0  0  0  0
    0.1999   -0.1573    0.4599 C   0  0  1  0  0  0  0  0  0  0  0  0
    0.6354   -0.1451   -0.5446 H   0  0  0  0  0  0  0  0  0  0  0  0
   -0.0369    1.2896    0.9210 C   0  0  0  0  0  0  0  0  0  0  0  0
   -0.6069    1.3003    1.8560 H   0  0  0  0  0  0  0  0  0  0  0  0
    0.9226    1.7836    1.1120 H   0  0  0  0  0  0  0  0  0  0  0  0
   -0.9240    2.2351   -0.3882 S   0  0  0  0  0  0  0  0  0  0  0  0
   -0.9029    3.4803    0.1379 H   0  0  0  0  0  0  0  0  0  0  0  0
    1.3154   -0.7582    1.3648 C   0  0  0  0  0  0  0  0  0  0  0  0
    2.4416   -0.2862    1.2634 O   0  0  0  0  0  0  0  0  0  0  0  0
    1.1041   -1.6873    2.3641 N   0  0  0  0  0  0  0  0  0  0  0  0
    0.2434   -2.2289    2.2680 H   0  0  0  0  0  0  0  0  0  0  0  0
    2.1838   -2.2661    3.1541 C   0  0  0  0  0  0  0  0  0  0  0  0
    2.7300   -1.4836    3.6911 H   0  0  0  0  0  0  0  0  0  0  0  0
    1.7774   -2.9673    3.8893 H   0  0  0  0  0  0  0  0  0  0  0  0
    2.8841   -2.8062    2.5084 H   0  0  0  0  0  0  0  0  0  0  0  0
  1  2  1  0  0  0  0
  2  3  1  0  0  0  0
  2  4  1  0  0  0  0
  2  5  1  0  0  0  0
  5  6  2  0  0  0  0
  5  7  1  0  0  0  0
  7  8  1  0  0  0  0
  7  9  1  0  0  0  0
  9 10  1  0  0  0  0
  9 11  1  0  0  0  0
  9 16  1  0  0  0  0
 11 12  1  0  0  0  0
 11 13  1  0  0  0  0
 11 14  1  0  0  0  0
 14 15  1  0  0  0  0
 16 17  2  0  0  0  0
 16 18  1  0  0  0  0
 18 19  1  0  0  0  0
 18 20  1  0  0  0  0
 20 21  1  0  0  0  0
 20 22  1  0  0  0  0
 20 23  1  0  0  0  0
M  END
$$$$

  -OEChem-01062216073D

 23 22  0     1  0  0  0  0  0999 V2000
   -3.1201   -3.4616    0.9414 H   0  0  0  0  0  0  0  0  0  0  0  0
   -2.8863   -2.4761    0.5287 C   0  0  0  0  0  0  0  0  0  0  0  0
   -3.5608   -1.7408    0.9737 H   0  0  0  0  0  0  0  0  0  0  0  0
   -3.0458   -2.5014   -0.5519 H   0  0  0  0  0  0  0  0  0  0  0  0
   -1.4458   -2.1086    0.8329 C   0  0  0  0  0  0  0  0  0  0  0  0
   -0.7475   -2.9341    1.3820 O   0  0  0  0  0  0  0  0  0  0  0  0
   -0.9737   -0.8983    0.3654 N   0  0  0  0  0  0  0  0  0  0  0  0
   -1.6608   -0.3876   -0.1843 H   0  0  0  0  0  0  0  0  0  0  0  0
    0.2666   -0.1227    0.6208 C   0  0  1  0  0  0  0  0  0  0  0  0
    0.8918   -0.2257   -0.2714 H   0  0  0  0  0  0  0  0  0  0  0  0
   -0.2512    1.3286    0.6991 C   0  0  0  0  0  0  0  0  0  0  0  0
   -1.0097    1.4172    1.4840 H   0  0  0  0  0  0  0  0  0  0  0  0
    0.5632    2.0166    0.9495 H   0  0  0  0  0  0  0  0  0  0  0  0
   -0.9343    1.8505   -0.9312 S   0  0  0  0  0  0  0  0  0  0  0  0
   -1.1887    3.1570   -0.6941 H   0  0  0  0  0  0  0  0  0  0  0  0
    1.2574   -0.3784    1.8070 C   0  0  0  0  0  0  0  0  0  0  0  0
    2.0555    0.4960    2.1137 O   0  0  0  0  0  0  0  0  0  0  0  0
    1.1975   -1.3182    2.8049 N   0  0  0  0  0  0  0  0  0  0  0  0
    1.5356   -0.8988    3.6661 H   0  0  0  0  0  0  0  0  0  0  0  0
    1.8471   -2.5980    2.5408 C   0  0  0  0  0  0  0  0  0  0  0  0
    2.8901   -2.5664    2.8709 H   0  0  0  0  0  0  0  0  0  0  0  0
    1.3332   -3.3988    3.0822 H   0  0  0  0  0  0  0  0  0  0  0  0
    1.8357   -2.8422    1.4730 H   0  0  0  0  0  0  0  0  0  0  0  0
  1  2  1  0  0  0  0
  2  3  1  0  0  0  0
  2  4  1  0  0  0  0
  2  5  1  0  0  0  0
  5  6  2  0  0  0  0
  5  7  1  0  0  0  0
  7  8  1  0  0  0  0
  7  9  1  0  0  0  0
  9 10  1  0  0  0  0
  9 11  1  0  0  0  0
  9 16  1  0  0  0  0
 11 12  1  0  0  0  0
 11 13  1  0  0  0  0
 11 14  1  0  0  0  0
 14 15  1  0  0  0  0
 16 17  2  0  0  0  0
 16 18  1  0  0  0  0
 18 19  1  0  0  0  0
 18 20  1  0  0  0  0
 20 21  1  0  0  0  0
 20 22  1  0  0  0  0
 20 23  1  0  0  0  0
M  END
$$$$

  -OEChem-01062216073D

 23 22  0     1  0  0  0  0  0999 V2000
   -2.8914   -3.5801    1.3480 H   0  0  0  0  0  0  0  0  0  0  0  0
   -2.8147   -2.5279    1.0591 C   0  0  0  0  0  0  0  0  0  0  0  0
   -3.1644   -1.9100    1.8895 H   0  0  0  0  0  0  0  0  0  0  0  0
   -3.4533   -2.3545    0.1894 H   0  0  0  0  0  0  0  0  0  0  0  0
   -1.3767   -2.1811    0.7217 C   0  0  0  0  0  0  0  0  0  0  0  0
   -0.5672   -3.0818    0.6286 O   0  0  0  0  0  0  0  0  0  0  0  0
   -1.0802   -0.8799    0.3707 N   0  0  0  0  0  0  0  0  0  0  0  0
   -1.8976   -0.2769    0.3134 H   0  0  0  0  0  0  0  0  0  0  0  0
    0.2073   -0.1539    0.2390 C   0  0  1  0  0  0  0  0  0  0  0  0
    0.3870   -0.0310   -0.8339 H   0  0  0  0  0  0  0  0  0  0  0  0
   -0.0906    1.2231    0.8612 C   0  0  0  0  0  0  0  0  0  0  0  0
   -0.4337    1.1062    1.8945 H   0  0  0  0  0  0  0  0  0  0  0  0
    0.8191    1.8334    0.8828 H   0  0  0  0  0  0  0  0  0  0  0  0
   -1.3500    2.1202   -0.1402 S   0  0  0  0  0  0  0  0  0  0  0  0
   -1.3286    3.3364    0.4497 H   0  0  0  0  0  0  0  0  0  0  0  0
    1.5849   -0.6320    0.8037 C   0  0  0  0  0  0  0  0  0  0  0  0
    2.5655    0.0575    0.5648 O   0  0  0  0  0  0  0  0  0  0  0  0
    1.9834   -1.8595    1.2714 N   0  0  0  0  0  0  0  0  0  0  0  0
    2.9887   -1.9597    1.1640 H   0  0  0  0  0  0  0  0  0  0  0  0
    1.4716   -2.3408    2.5489 C   0  0  0  0  0  0  0  0  0  0  0  0
    2.1792   -2.1028    3.3491 H   0  0  0  0  0  0  0  0  0  0  0  0
    0.5105   -1.8805    2.7979 H   0  0  0  0  0  0  0  0  0  0  0  0
    1.3366   -3.4267    2.5142 H   0  0  0  0  0  0  0  0  0  0  0  0
  1  2  1  0  0  0  0
  2  3  1  0  0  0  0
  2  4  1  0  0  0  0
  2  5  1  0  0  0  0
  5  6  2  0  0  0  0
  5  7  1  0  0  0  0
  7  8  1  0  0  0  0
  7  9  1  0  0  0  0
  9 10  1  0  0  0  0
  9 11  1  0  0  0  0
  9 16  1  0  0  0  0
 11 12  1  0  0  0  0
 11 13  1  0  0  0  0
 11 14  1  0  0  0  0
 14 15  1  0  0  0  0
 16 17  2  0  0  0  0
 16 18  1  0  0  0  0
 18 19  1  0  0  0  0
 18 20  1  0  0  0  0
 20 21  1  0  0  0  0
 20 22  1  0  0  0  0
 20 23  1  0  0  0  0
M  END
$$$$

  -OEChem-01062216073D

 23 22  0     1  0  0  0  0  0999 V2000
   -3.4202   -3.2426    0.8088 H   0  0  0  0  0  0  0  0  0  0  0  0
   -3.1582   -2.2208    0.5196 C   0  0  0  0  0  0  0  0  0  0  0  0
   -3.6934   -1.5249    1.1700 H   0  0  0  0  0  0  0  0  0  0  0  0
   -3.4713   -2.0573   -0.5143 H   0  0  0  0  0  0  0  0  0  0  0  0
   -1.6618   -2.0052    0.6482 C   0  0  0  0  0  0  0  0  0  0  0  0
   -0.9643   -2.9553    0.9469 O   0  0  0  0  0  0  0  0  0  0  0  0
   -1.1589   -0.7503    0.3599 N   0  0  0  0  0  0  0  0  0  0  0  0
   -1.8738   -0.0918    0.0566 H   0  0  0  0  0  0  0  0  0  0  0  0
    0.1955   -0.1438    0.4560 C   0  0  1  0  0  0  0  0  0  0  0  0
    0.5870   -0.0746   -0.5636 H   0  0  0  0  0  0  0  0  0  0  0  0
   -0.0970    1.2827    0.9656 C   0  0  0  0  0  0  0  0  0  0  0  0
   -0.6380    1.2420    1.9169 H   0  0  0  0  0  0  0  0  0  0  0  0
    0.8356    1.8297    1.1396 H   0  0  0  0  0  0  0  0  0  0  0  0
   -1.0593    2.2198   -0.2965 S   0  0  0  0  0  0  0  0  0  0  0  0
   -1.0764    3.4510    0.2619 H   0  0  0  0  0  0  0  0  0  0  0  0
    1.3743   -0.7768    1.2681 C   0  0  0  0  0  0  0  0  0  0  0  0
    2.2505   -0.0451    1.7159 O   0  0  0  0  0  0  0  0  0  0  0  0
    1.5497   -2.1288    1.4794 N   0  0  0  0  0  0  0  0  0  0  0  0
    0.7744   -2.7327    1.2001 H   0  0  0  0  0  0  0  0  0  0  0  0
    2.6261   -2.7034    2.2767 C   0  0  0  0  0  0  0  0  0  0  0  0
    2.5780   -2.3365    3.3072 H   0  0  0  0  0  0  0  0  0  0  0  0
    2.5399   -3.7940    2.2927 H   0  0  0  0  0  0  0  0  0  0  0  0
    3.6007   -2.4407    1.8523 H   0  0  0  0  0  0  0  0  0  0  0  0
  1  2  1  0  0  0  0
  2  3  1  0  0  0  0
  2  4  1  0  0  0  0
  2  5  1  0  0  0  0
  5  6  2  0  0  0  0
  5  7  1  0  0  0  0
  7  8  1  0  0  0  0
  7  9  1  0  0  0  0
  9 10  1  0  0  0  0
  9 11  1  0  0  0  0
  9 16  1  0  0  0  0
 11 12  1  0  0  0  0
 11 13  1  0  0  0  0
 11 14  1  0  0  0  0
 14 15  1  0  0  0  0
 16 17  2  0  0  0  0
 16 18  1  0  0  0  0
 18 19  1  0  0  0  0
 18 20  1  0  0  0  0
 20 21  1  0  0  0  0
 20 22  1  0  0  0  0
 20 23  1  0  0  0  0
M  END
$$$$

  -OEChem-01062216073D

 23 22  0     1  0  0  0  0  0999 V2000
   -3.3711   -3.2134    0.9625 H   0  0  0  0  0  0  0  0  0  0  0  0
   -3.1277   -2.1917    0.6571 C   0  0  0  0  0  0  0  0  0  0  0  0
   -3.6350   -1.4951    1.3292 H   0  0  0  0  0  0  0  0  0  0  0  0
   -3.4899   -2.0337   -0.3617 H   0  0  0  0  0  0  0  0  0  0  0  0
   -1.6278   -1.9693    0.7147 C   0  0  0  0  0  0  0  0  0  0  0  0
   -0.9104   -2.9097    0.9980 O   0  0  0  0  0  0  0  0  0  0  0  0
   -1.1387   -0.7201    0.3820 N   0  0  0  0  0  0  0  0  0  0  0  0
   -1.8617   -0.0593    0.1045 H   0  0  0  0  0  0  0  0  0  0  0  0
    0.2253   -0.1320    0.4192 C   0  0  1  0  0  0  0  0  0  0  0  0
    0.5874   -0.0924   -0.6125 H   0  0  0  0  0  0  0  0  0  0  0  0
   -0.0126    1.3122    0.9037 C   0  0  0  0  0  0  0  0  0  0  0  0
   -0.5181    1.3076    1.8753 H   0  0  0  0  0  0  0  0  0  0  0  0
    0.9416    1.8352    1.0290 H   0  0  0  0  0  0  0  0  0  0  0  0
   -0.9973    2.2434   -0.3450 S   0  0  0  0  0  0  0  0  0  0  0  0
   -0.9741    3.4848    0.1903 H   0  0  0  0  0  0  0  0  0  0  0  0
    1.4002   -0.7960    1.2088 C   0  0  0  0  0  0  0  0  0  0  0  0
    2.1807   -0.0966    1.8458 O   0  0  0  0  0  0  0  0  0  0  0  0
    1.6753   -2.1480    1.1623 N   0  0  0  0  0  0  0  0  0  0  0  0
    0.8997   -2.7320    0.8419 H   0  0  0  0  0  0  0  0  0  0  0  0
    2.7188   -2.7836    1.9577 C   0  0  0  0  0  0  0  0  0  0  0  0
    2.5270   -2.6411    3.0262 H   0  0  0  0  0  0  0  0  0  0  0  0
    2.7472   -3.8577    1.7504 H   0  0  0  0  0  0  0  0  0  0  0  0
    3.6995   -2.3610    1.7151 H   0  0  0  0  0  0  0  0  0  0  0  0
  1  2  1  0  0  0  0
  2  3  1  0  0  0  0
  2  4  1  0  0  0  0
  2  5  1  0  0  0  0
  5  6  2  0  0  0  0
  5  7  1  0  0  0  0
  7  8  1  0  0  0  0
  7  9  1  0  0  0  0
  9 10  1  0  0  0  0
  9 11  1  0  0  0  0
  9 16  1  0  0  0  0
 11 12  1  0  0  0  0
 11 13  1  0  0  0  0
 11 14  1  0  0  0  0
 14 15  1  0  0  0  0
 16 17  2  0  0  0  0
 16 18  1  0  0  0  0
 18 19  1  0  0  0  0
 18 20  1  0  0  0  0
 20 21  1  0  0  0  0
 20 22  1  0  0  0  0
 20 23  1  0  0  0  0
M  END
$$$$

  -OEChem-01062216073D

 23 22  0     1  0  0  0  0  0999 V2000
   -3.2253   -3.2730    1.0533 H   0  0  0  0  0  0  0  0  0  0  0  0
   -3.0357   -2.2486    0.7202 C   0  0  0  0  0  0  0  0  0  0  0  0
   -3.5376   -1.5597    1.4039 H   0  0  0  0  0  0  0  0  0  0  0  0
   -3.4499   -2.1227   -0.2831 H   0  0  0  0  0  0  0  0  0  0  0  0
   -1.5444   -1.9699    0.7041 C   0  0  0  0  0  0  0  0  0  0  0  0
   -0.7728   -2.8855    0.9229 O   0  0  0  0  0  0  0  0  0  0  0  0
   -1.1111   -0.7046    0.3572 N   0  0  0  0  0  0  0  0  0  0  0  0
   -1.8587   -0.0542    0.1245 H   0  0  0  0  0  0  0  0  0  0  0  0
    0.2409   -0.0954    0.3975 C   0  0  1  0  0  0  0  0  0  0  0  0
    0.6146   -0.0526   -0.6301 H   0  0  0  0  0  0  0  0  0  0  0  0
    0.0044    1.3460    0.8854 C   0  0  0  0  0  0  0  0  0  0  0  0
   -0.4977    1.3383    1.8588 H   0  0  0  0  0  0  0  0  0  0  0  0
    0.9629    1.8617    1.0102 H   0  0  0  0  0  0  0  0  0  0  0  0
   -0.9852    2.2826   -0.3543 S   0  0  0  0  0  0  0  0  0  0  0  0
   -0.9630    3.5199    0.1901 H   0  0  0  0  0  0  0  0  0  0  0  0
    1.3891   -0.7720    1.2091 C   0  0  0  0  0  0  0  0  0  0  0  0
    2.0181   -0.1329    2.0464 O   0  0  0  0  0  0  0  0  0  0  0  0
    1.8213   -2.0522    0.9219 N   0  0  0  0  0  0  0  0  0  0  0  0
    1.0983   -2.6405    0.5018 H   0  0  0  0  0  0  0  0  0  0  0  0
    2.8537   -2.7245    1.7014 C   0  0  0  0  0  0  0  0  0  0  0  0
    2.5430   -2.8212    2.7470 H   0  0  0  0  0  0  0  0  0  0  0  0
    3.0363   -3.7256    1.2992 H   0  0  0  0  0  0  0  0  0  0  0  0
    3.7928   -2.1625    1.6624 H   0  0  0  0  0  0  0  0  0  0  0  0
  1  2  1  0  0  0  0
  2  3  1  0  0  0  0
  2  4  1  0  0  0  0
  2  5  1  0  0  0  0
  5  6  2  0  0  0  0
  5  7  1  0  0  0  0
  7  8  1  0  0  0  0
  7  9  1  0  0  0  0
  9 10  1  0  0  0  0
  9 11  1  0  0  0  0
  9 16  1  0  0  0  0
 11 12  1  0  0  0  0
 11 13  1  0  0  0  0
 11 14  1  0  0  0  0
 14 15  1  0  0  0  0
 16 17  2  0  0  0  0
 16 18  1  0  0  0  0
 18 19  1  0  0  0  0
 18 20  1  0  0  0  0
 20 21  1  0  0  0  0
 20 22  1  0  0  0  0
 20 23  1  0  0  0  0
M  END
$$$$

  -OEChem-01062216073D

 23 22  0     1  0  0  0  0  0999 V2000
   -3.0817   -3.3272    1.1186 H   0  0  0  0  0  0  0  0  0  0  0  0
   -2.9453   -2.2985    0.7731 C   0  0  0  0  0  0  0  0  0  0  0  0
   -3.4358   -1.6244    1.4795 H   0  0  0  0  0  0  0  0  0  0  0  0
   -3.4126   -2.1911   -0.2087 H   0  0  0  0  0  0  0  0  0  0  0  0
   -1.4677   -1.9681    0.6822 C   0  0  0  0  0  0  0  0  0  0  0  0
   -0.6490   -2.8573    0.8359 O   0  0  0  0  0  0  0  0  0  0  0  0
   -1.0892   -0.6892    0.3219 N   0  0  0  0  0  0  0  0  0  0  0  0
   -1.8582   -0.0481    0.1395 H   0  0  0  0  0  0  0  0  0  0  0  0
    0.2512   -0.0627    0.3765 C   0  0  1  0  0  0  0  0  0  0  0  0
    0.6441   -0.0150   -0.6437 H   0  0  0  0  0  0  0  0  0  0  0  0
    0.0161    1.3753    0.8700 C   0  0  0  0  0  0  0  0  0  0  0  0
   -0.4936    1.3634    1.8395 H   0  0  0  0  0  0  0  0  0  0  0  0
    0.9784    1.8812    1.0076 H   0  0  0  0  0  0  0  0  0  0  0  0
   -0.9674    2.3204   -0.3677 S   0  0  0  0  0  0  0  0  0  0  0  0
   -0.9601    3.5516    0.1909 H   0  0  0  0  0  0  0  0  0  0  0  0
    1.3635   -0.7527    1.2188 C   0  0  0  0  0  0  0  0  0  0  0  0
    1.8115   -0.2132    2.2257 O   0  0  0  0  0  0  0  0  0  0  0  0
    1.9841   -1.8945    0.7487 N   0  0  0  0  0  0  0  0  0  0  0  0
    1.3736   -2.4708    0.1690 H   0  0  0  0  0  0  0  0  0  0  0  0
    3.0096   -2.5886    1.5177 C   0  0  0  0  0  0  0  0  0  0  0  0
    2.6035   -2.9344    2.4741 H   0  0  0  0  0  0  0  0  0  0  0  0
    3.3742   -3.4568    0.9606 H   0  0  0  0  0  0  0  0  0  0  0  0
    3.8585   -1.9253    1.7140 H   0  0  0  0  0  0  0  0  0  0  0  0
  1  2  1  0  0  0  0
  2  3  1  0  0  0  0
  2  4  1  0  0  0  0
  2  5  1  0  0  0  0
  5  6  2  0  0  0  0
  5  7  1  0  0  0  0
  7  8  1  0  0  0  0
  7  9  1  0  0  0  0
  9 10  1  0  0  0  0
  9 11  1  0  0  0  0
  9 16  1  0  0  0  0
 11 12  1  0  0  0  0
 11 13  1  0  0  0  0
 11 14  1  0  0  0  0
 14 15  1  0  0  0  0
 16 17  2  0  0  0  0
 16 18  1  0  0  0  0
 18 19  1  0  0  0  0
 18 20  1  0  0  0  0
 20 21  1  0  0  0  0
 20 22  1  0  0  0  0
 20 23  1  0  0  0  0
M  END
$$$$

  -OEChem-01062216073D

 23 22  0     1  0  0  0  0  0999 V2000
   -2.9749   -3.3631    1.1662 H   0  0  0  0  0  0  0  0  0  0  0  0
   -2.8784   -2.3319    0.8145 C   0  0  0  0  0  0  0  0  0  0  0  0
   -3.3597   -1.6692    1.5377 H   0  0  0  0  0  0  0  0  0  0  0  0
   -3.3849   -2.2391   -0.1492 H   0  0  0  0  0  0  0  0  0  0  0  0
   -1.4138   -1.9642    0.6685 C   0  0  0  0  0  0  0  0  0  0  0  0
   -0.5650   -2.8317    0.7848 O   0  0  0  0  0  0  0  0  0  0  0  0
   -1.0761   -0.6781    0.2923 N   0  0  0  0  0  0  0  0  0  0  0  0
   -1.8594   -0.0444    0.1517 H   0  0  0  0  0  0  0  0  0  0  0  0
    0.2562   -0.0399    0.3526 C   0  0  1  0  0  0  0  0  0  0  0  0
    0.6589    0.0140   -0.6634 H   0  0  0  0  0  0  0  0  0  0  0  0
    0.0216    1.3929    0.8570 C   0  0  0  0  0  0  0  0  0  0  0  0
   -0.4907    1.3726    1.8253 H   0  0  0  0  0  0  0  0  0  0  0  0
    0.9853    1.8931    1.0031 H   0  0  0  0  0  0  0  0  0  0  0  0
   -0.9648    2.3470   -0.3708 S   0  0  0  0  0  0  0  0  0  0  0  0
   -0.9679    3.5708    0.2037 H   0  0  0  0  0  0  0  0  0  0  0  0
    1.3451   -0.7345    1.2156 C   0  0  0  0  0  0  0  0  0  0  0  0
    1.5952   -0.3319    2.3474 O   0  0  0  0  0  0  0  0  0  0  0  0
    2.1732   -1.6813    0.6418 N   0  0  0  0  0  0  0  0  0  0  0  0
    1.7551   -2.1759   -0.1428 H   0  0  0  0  0  0  0  0  0  0  0  0
    3.1814   -2.3941    1.4168 C   0  0  0  0  0  0  0  0  0  0  0  0
    2.7093   -2.9721    2.2183 H   0  0  0  0  0  0  0  0  0  0  0  0
    3.7359   -3.0823    0.7718 H   0  0  0  0  0  0  0  0  0  0  0  0
    3.8942   -1.6915    1.8612 H   0  0  0  0  0  0  0  0  0  0  0  0
  1  2  1  0  0  0  0
  2  3  1  0  0  0  0
  2  4  1  0  0  0  0
  2  5  1  0  0  0  0
  5  6  2  0  0  0  0
  5  7  1  0  0  0  0
  7  8  1  0  0  0  0
  7  9  1  0  0  0  0
  9 10  1  0  0  0  0
  9 11  1  0  0  0  0
  9 16  1  0  0  0  0
 11 12  1  0  0  0  0
 11 13  1  0  0  0  0
 11 14  1  0  0  0  0
 14 15  1  0  0  0  0
 16 17  2  0  0  0  0
 16 18  1  0  0  0  0
 18 19  1  0  0  0  0
 18 20  1  0  0  0  0
 20 21  1  0  0  0  0
 20 22  1  0  0  0  0
 20 23  1  0  0  0  0
M  END
$$$$

  -OEChem-01062216073D

 23 22  0     1  0  0  0  0  0999 V2000
   -2.9179   -3.3854    1.1843 H   0  0  0  0  0  0  0  0  0  0  0  0
   -2.8426   -2.3502    0.8399 C   0  0  0  0  0  0  0  0  0  0  0  0
   -3.3111   -1.6994    1.5818 H   0  0  0  0  0  0  0  0  0  0  0  0
   -3.3755   -2.2546   -0.1091 H   0  0  0  0  0  0  0  0  0  0  0  0
   -1.3867   -1.9652    0.6583 C   0  0  0  0  0  0  0  0  0  0  0  0
   -0.5249   -2.8237    0.7471 O   0  0  0  0  0  0  0  0  0  0  0  0
   -1.0721   -0.6763    0.2706 N   0  0  0  0  0  0  0  0  0  0  0  0
   -1.8635   -0.0471    0.1606 H   0  0  0  0  0  0  0  0  0  0  0  0
    0.2559   -0.0312    0.3348 C   0  0  1  0  0  0  0  0  0  0  0  0
    0.6616    0.0242   -0.6798 H   0  0  0  0  0  0  0  0  0  0  0  0
    0.0263    1.3984    0.8468 C   0  0  0  0  0  0  0  0  0  0  0  0
   -0.4867    1.3735    1.8147 H   0  0  0  0  0  0  0  0  0  0  0  0
    0.9919    1.8935    0.9972 H   0  0  0  0  0  0  0  0  0  0  0  0
   -0.9606    2.3617   -0.3730 S   0  0  0  0  0  0  0  0  0  0  0  0
   -0.9817    3.5759    0.2210 H   0  0  0  0  0  0  0  0  0  0  0  0
    1.3332   -0.7229    1.2112 C   0  0  0  0  0  0  0  0  0  0  0  0
    1.3947   -0.4878    2.4139 O   0  0  0  0  0  0  0  0  0  0  0  0
    2.3588   -1.4301    0.6107 N   0  0  0  0  0  0  0  0  0  0  0  0
    2.1557   -1.7751   -0.3231 H   0  0  0  0  0  0  0  0  0  0  0  0
    3.3627   -2.1437    1.3904 C   0  0  0  0  0  0  0  0  0  0  0  0
    2.8889   -2.9114    2.0116 H   0  0  0  0  0  0  0  0  0  0  0  0
    4.0821   -2.6299    0.7247 H   0  0  0  0  0  0  0  0  0  0  0  0
    3.9096   -1.4522    2.0402 H   0  0  0  0  0  0  0  0  0  0  0  0
  1  2  1  0  0  0  0
  2  3  1  0  0  0  0
  2  4  1  0  0  0  0
  2  5  1  0  0  0  0
  5  6  2  0  0  0  0
  5  7  1  0  0  0  0
  7  8  1  0  0  0  0
  7  9  1  0  0  0  0
  9 10  1  0  0  0  0
  9 11  1  0  0  0  0
  9 16  1  0  0  0  0
 11 12  1  0  0  0  0
 11 13  1  0  0  0  0
 11 14  1  0  0  0  0
 14 15  1  0  0  0  0
 16 17  2  0  0  0  0
 16 18  1  0  0  0  0
 18 19  1  0  0  0  0
 18 20  1  0  0  0  0
 20 21  1  0  0  0  0
 20 22  1  0  0  0  0
 20 23  1  0  0  0  0
M  END
$$$$

  -OEChem-01062216073D

 23 22  0     1  0  0  0  0  0999 V2000
   -2.9025   -3.3910    1.1950 H   0  0  0  0  0  0  0  0  0  0  0  0
   -2.8345   -2.3530    0.8570 C   0  0  0  0  0  0  0  0  0  0  0  0
   -3.2729   -1.7066    1.6208 H   0  0  0  0  0  0  0  0  0  0  0  0
   -3.3995   -2.2462   -0.0720 H   0  0  0  0  0  0  0  0  0  0  0  0
   -1.3842   -1.9730    0.6281 C   0  0  0  0  0  0  0  0  0  0  0  0
   -0.5245   -2.8376    0.6672 O   0  0  0  0  0  0  0  0  0  0  0  0
   -1.0758   -0.6828    0.2399 N   0  0  0  0  0  0  0  0  0  0  0  0
   -1.8674   -0.0485    0.1701 H   0  0  0  0  0  0  0  0  0  0  0  0
    0.2527   -0.0416    0.3199 C   0  0  1  0  0  0  0  0  0  0  0  0
    0.6661    0.0157   -0.6912 H   0  0  0  0  0  0  0  0  0  0  0  0
    0.0303    1.3836    0.8438 C   0  0  0  0  0  0  0  0  0  0  0  0
   -0.4888    1.3514    1.8082 H   0  0  0  0  0  0  0  0  0  0  0  0
    0.9984    1.8703    1.0048 H   0  0  0  0  0  0  0  0  0  0  0  0
   -0.9427    2.3668   -0.3709 S   0  0  0  0  0  0  0  0  0  0  0  0
   -0.9654    3.5732    0.2389 H   0  0  0  0  0  0  0  0  0  0  0  0
    1.3177   -0.7337    1.2088 C   0  0  0  0  0  0  0  0  0  0  0  0
    1.2224   -0.6770    2.4306 O   0  0  0  0  0  0  0  0  0  0  0  0
    2.5044   -1.1733    0.6503 N   0  0  0  0  0  0  0  0  0  0  0  0
    2.4911   -1.3381   -0.3516 H   0  0  0  0  0  0  0  0  0  0  0  0
    3.5363   -1.8342    1.4398 C   0  0  0  0  0  0  0  0  0  0  0  0
    3.1443   -2.7540    1.8866 H   0  0  0  0  0  0  0  0  0  0  0  0
    4.3907   -2.0917    0.8066 H   0  0  0  0  0  0  0  0  0  0  0  0
    3.8888   -1.1761    2.2409 H   0  0  0  0  0  0  0  0  0  0  0  0
  1  2  1  0  0  0  0
  2  3  1  0  0  0  0
  2  4  1  0  0  0  0
  2  5  1  0  0  0  0
  5  6  2  0  0  0  0
  5  7  1  0  0  0  0
  7  8  1  0  0  0  0
  7  9  1  0  0  0  0
  9 10  1  0  0  0  0
  9 11  1  0  0  0  0
  9 16  1  0  0  0  0
 11 12  1  0  0  0  0
 11 13  1  0  0  0  0
 11 14  1  0  0  0  0
 14 15  1  0  0  0  0
 16 17  2  0  0  0  0
 16 18  1  0  0  0  0
 18 19  1  0  0  0  0
 18 20  1  0  0  0  0
 20 21  1  0  0  0  0
 20 22  1  0  0  0  0
 20 23  1  0  0  0  0
M  END
$$$$

  -OEChem-01062216073D

 23 22  0     1  0  0  0  0  0999 V2000
   -2.8967   -3.4054    1.1517 H   0  0  0  0  0  0  0  0  0  0  0  0
   -2.8252   -2.3491    0.8779 C   0  0  0  0  0  0  0  0  0  0  0  0
   -3.2013   -1.7454    1.7073 H   0  0  0  0  0  0  0  0  0  0  0  0
   -3.4424   -2.1707   -0.0058 H   0  0  0  0  0  0  0  0  0  0  0  0
   -1.3824   -1.9829    0.5868 C   0  0  0  0  0  0  0  0  0  0  0  0
   -0.5325   -2.8582    0.5596 O   0  0  0  0  0  0  0  0  0  0  0  0
   -1.0753   -0.6916    0.2015 N   0  0  0  0  0  0  0  0  0  0  0  0
   -1.8645   -0.0517    0.1750 H   0  0  0  0  0  0  0  0  0  0  0  0
    0.2552   -0.0568    0.3004 C   0  0  1  0  0  0  0  0  0  0  0  0
    0.6786    0.0032   -0.7063 H   0  0  0  0  0  0  0  0  0  0  0  0
    0.0353    1.3635    0.8378 C   0  0  0  0  0  0  0  0  0  0  0  0
   -0.4928    1.3228    1.7971 H   0  0  0  0  0  0  0  0  0  0  0  0
    1.0038    1.8444    1.0136 H   0  0  0  0  0  0  0  0  0  0  0  0
   -0.9222    2.3650   -0.3743 S   0  0  0  0  0  0  0  0  0  0  0  0
   -0.9602    3.5611    0.2547 H   0  0  0  0  0  0  0  0  0  0  0  0
    1.3079   -0.7513    1.2015 C   0  0  0  0  0  0  0  0  0  0  0  0
    1.0918   -0.8691    2.4032 O   0  0  0  0  0  0  0  0  0  0  0  0
    2.6046   -0.9131    0.7462 N   0  0  0  0  0  0  0  0  0  0  0  0
    2.7362   -0.8938   -0.2604 H   0  0  0  0  0  0  0  0  0  0  0  0
    3.6536   -1.5052    1.5682 C   0  0  0  0  0  0  0  0  0  0  0  0
    3.3863   -2.5293    1.8496 H   0  0  0  0  0  0  0  0  0  0  0  0
    4.5977   -1.5318    1.0157 H   0  0  0  0  0  0  0  0  0  0  0  0
    3.8061   -0.9180    2.4800 H   0  0  0  0  0  0  0  0  0  0  0  0
  1  2  1  0  0  0  0
  2  3  1  0  0  0  0
  2  4  1  0  0  0  0
  2  5  1  0  0  0  0
  5  6  2  0  0  0  0
  5  7  1  0  0  0  0
  7  8  1  0  0  0  0
  7  9  1  0  0  0  0
  9 10  1  0  0  0  0
  9 11  1  0  0  0  0
  9 16  1  0  0  0  0
 11 12  1  0  0  0  0
 11 13  1  0  0  0  0
 11 14  1  0  0  0  0
 14 15  1  0  0  0  0
 16 17  2  0  0  0  0
 16 18  1  0  0  0  0
 18 19  1  0  0  0  0
 18 20  1  0  0  0  0
 20 21  1  0  0  0  0
 20 22  1  0  0  0  0
 20 23  1  0  0  0  0
M  END
$$$$

  -OEChem-01062216073D

 23 22  0     1  0  0  0  0  0999 V2000
   -2.8962   -3.4026    1.1513 H   0  0  0  0  0  0  0  0  0  0  0  0
   -2.8219   -2.3433    0.8896 C   0  0  0  0  0  0  0  0  0  0  0  0
   -3.1584   -1.7477    1.7415 H   0  0  0  0  0  0  0  0  0  0  0  0
   -3.4697   -2.1446    0.0327 H   0  0  0  0  0  0  0  0  0  0  0  0
   -1.3868   -1.9908    0.5486 C   0  0  0  0  0  0  0  0  0  0  0  0
   -0.5542   -2.8780    0.4536 O   0  0  0  0  0  0  0  0  0  0  0  0
   -1.0736   -0.6987    0.1713 N   0  0  0  0  0  0  0  0  0  0  0  0
   -1.8564   -0.0509    0.1791 H   0  0  0  0  0  0  0  0  0  0  0  0
    0.2620   -0.0771    0.2878 C   0  0  1  0  0  0  0  0  0  0  0  0
    0.6940   -0.0123   -0.7150 H   0  0  0  0  0  0  0  0  0  0  0  0
    0.0440    1.3368    0.8421 C   0  0  0  0  0  0  0  0  0  0  0  0
   -0.4930    1.2842    1.7957 H   0  0  0  0  0  0  0  0  0  0  0  0
    1.0118    1.8128    1.0337 H   0  0  0  0  0  0  0  0  0  0  0  0
   -0.8980    2.3598   -0.3637 S   0  0  0  0  0  0  0  0  0  0  0  0
   -0.9441    3.5453    0.2846 H   0  0  0  0  0  0  0  0  0  0  0  0
    1.3084   -0.7759    1.1934 C   0  0  0  0  0  0  0  0  0  0  0  0
    1.0134   -1.0684    2.3476 O   0  0  0  0  0  0  0  0  0  0  0  0
    2.6530   -0.6627    0.8844 N   0  0  0  0  0  0  0  0  0  0  0  0
    2.8844   -0.4456   -0.0801 H   0  0  0  0  0  0  0  0  0  0  0  0
    3.7063   -1.1784    1.7515 C   0  0  0  0  0  0  0  0  0  0  0  0
    3.5773   -2.2541    1.9124 H   0  0  0  0  0  0  0  0  0  0  0  0
    4.6872   -1.0110    1.2965 H   0  0  0  0  0  0  0  0  0  0  0  0
    3.6867   -0.6725    2.7226 H   0  0  0  0  0  0  0  0  0  0  0  0
  1  2  1  0  0  0  0
  2  3  1  0  0  0  0
  2  4  1  0  0  0  0
  2  5  1  0  0  0  0
  5  6  2  0  0  0  0
  5  7  1  0  0  0  0
  7  8  1  0  0  0  0
  7  9  1  0  0  0  0
  9 10  1  0  0  0  0
  9 11  1  0  0  0  0
  9 16  1  0  0  0  0
 11 12  1  0  0  0  0
 11 13  1  0  0  0  0
 11 14  1  0  0  0  0
 14 15  1  0  0  0  0
 16 17  2  0  0  0  0
 16 18  1  0  0  0  0
 18 19  1  0  0  0  0
 18 20  1  0  0  0  0
 20 21  1  0  0  0  0
 20 22  1  0  0  0  0
 20 23  1  0  0  0  0
M  END
$$$$

  -OEChem-01062216073D

 23 22  0     1  0  0  0  0  0999 V2000
   -2.8950   -3.3831    1.1864 H   0  0  0  0  0  0  0  0  0  0  0  0
   -2.8198   -2.3293    0.9038 C   0  0  0  0  0  0  0  0  0  0  0  0
   -3.1239   -1.7162    1.7555 H   0  0  0  0  0  0  0  0  0  0  0  0
   -3.4926   -2.1388    0.0645 H   0  0  0  0  0  0  0  0  0  0  0  0
   -1.3926   -1.9973    0.5120 C   0  0  0  0  0  0  0  0  0  0  0  0
   -0.5885   -2.8990    0.3396 O   0  0  0  0  0  0  0  0  0  0  0  0
   -1.0662   -0.7048    0.1483 N   0  0  0  0  0  0  0  0  0  0  0  0
   -1.8410   -0.0487    0.1859 H   0  0  0  0  0  0  0  0  0  0  0  0
    0.2756   -0.0968    0.2773 C   0  0  1  0  0  0  0  0  0  0  0  0
    0.7118   -0.0221   -0.7230 H   0  0  0  0  0  0  0  0  0  0  0  0
    0.0488    1.3097    0.8504 C   0  0  0  0  0  0  0  0  0  0  0  0
   -0.4947    1.2405    1.7993 H   0  0  0  0  0  0  0  0  0  0  0  0
    1.0113    1.7902    1.0562 H   0  0  0  0  0  0  0  0  0  0  0  0
   -0.8871    2.3478   -0.3476 S   0  0  0  0  0  0  0  0  0  0  0  0
   -0.9449    3.5240    0.3160 H   0  0  0  0  0  0  0  0  0  0  0  0
    1.3256   -0.8000    1.1793 C   0  0  0  0  0  0  0  0  0  0  0  0
    0.9884   -1.2771    2.2573 O   0  0  0  0  0  0  0  0  0  0  0  0
    2.6565   -0.4342    1.0583 N   0  0  0  0  0  0  0  0  0  0  0  0
    2.9425   -0.0232    0.1750 H   0  0  0  0  0  0  0  0  0  0  0  0
    3.6919   -0.8850    1.9823 C   0  0  0  0  0  0  0  0  0  0  0  0
    3.7184   -1.9793    2.0238 H   0  0  0  0  0  0  0  0  0  0  0  0
    4.6731   -0.5273    1.6558 H   0  0  0  0  0  0  0  0  0  0  0  0
    3.5021   -0.4990    2.9895 H   0  0  0  0  0  0  0  0  0  0  0  0
  1  2  1  0  0  0  0
  2  3  1  0  0  0  0
  2  4  1  0  0  0  0
  2  5  1  0  0  0  0
  5  6  2  0  0  0  0
  5  7  1  0  0  0  0
  7  8  1  0  0  0  0
  7  9  1  0  0  0  0
  9 10  1  0  0  0  0
  9 11  1  0  0  0  0
  9 16  1  0  0  0  0
 11 12  1  0  0  0  0
 11 13  1  0  0  0  0
 11 14  1  0  0  0  0
 14 15  1  0  0  0  0
 16 17  2  0  0  0  0
 16 18  1  0  0  0  0
 18 19  1  0  0  0  0
 18 20  1  0  0  0  0
 20 21  1  0  0  0  0
 20 22  1  0  0  0  0
 20 23  1  0  0  0  0
M  END
$$$$

  -OEChem-01062216073D

 23 22  0     1  0  0  0  0  0999 V2000
   -2.9844   -3.2926    1.2376 H   0  0  0  0  0  0  0  0  0  0  0  0
   -2.8361   -2.2318    1.0167 C   0  0  0  0  0  0  0  0  0  0  0  0
   -2.9512   -1.6622    1.9416 H   0  0  0  0  0  0  0  0  0  0  0  0
   -3.5942   -1.9102    0.2990 H   0  0  0  0  0  0  0  0  0  0  0  0
   -1.4496   -2.0102    0.4435 C   0  0  0  0  0  0  0  0  0  0  0  0
   -0.8028   -2.9686    0.0578 O   0  0  0  0  0  0  0  0  0  0  0  0
   -1.0570   -0.7336    0.0919 N   0  0  0  0  0  0  0  0  0  0  0  0
   -1.7956   -0.0456    0.2107 H   0  0  0  0  0  0  0  0  0  0  0  0
    0.3032   -0.1617    0.2242 C   0  0  1  0  0  0  0  0  0  0  0  0
    0.6284    0.1555   -0.7710 H   0  0  0  0  0  0  0  0  0  0  0  0
    0.1052    1.0709    1.1250 C   0  0  0  0  0  0  0  0  0  0  0  0
   -0.3540    0.7669    2.0723 H   0  0  0  0  0  0  0  0  0  0  0  0
    1.0684    1.5332    1.3620 H   0  0  0  0  0  0  0  0  0  0  0  0
   -0.9429    2.3248    0.2771 S   0  0  0  0  0  0  0  0  0  0  0  0
   -0.9687    3.3120    1.2004 H   0  0  0  0  0  0  0  0  0  0  0  0
    1.4775   -0.9974    0.8158 C   0  0  0  0  0  0  0  0  0  0  0  0
    1.2841   -1.8762    1.6447 O   0  0  0  0  0  0  0  0  0  0  0  0
    2.7249   -0.3952    0.8977 N   0  0  0  0  0  0  0  0  0  0  0  0
    2.9099    0.3703    0.2571 H   0  0  0  0  0  0  0  0  0  0  0  0
    3.8433   -0.9537    1.6521 C   0  0  0  0  0  0  0  0  0  0  0  0
    4.0648   -1.9715    1.3137 H   0  0  0  0  0  0  0  0  0  0  0  0
    4.7385   -0.3401    1.5122 H   0  0  0  0  0  0  0  0  0  0  0  0
    3.6091   -0.9820    2.7215 H   0  0  0  0  0  0  0  0  0  0  0  0
  1  2  1  0  0  0  0
  2  3  1  0  0  0  0
  2  4  1  0  0  0  0
  2  5  1  0  0  0  0
  5  6  2  0  0  0  0
  5  7  1  0  0  0  0
  7  8  1  0  0  0  0
  7  9  1  0  0  0  0
  9 10  1  0  0  0  0
  9 11  1  0  0  0  0
  9 16  1  0  0  0  0
 11 12  1  0  0  0  0
 11 13  1  0  0  0  0
 11 14  1  0  0  0  0
 14 15  1  0  0  0  0
 16 17  2  0  0  0  0
 16 18  1  0  0  0  0
 18 19  1  0  0  0  0
 18 20  1  0  0  0  0
 20 21  1  0  0  0  0
 20 22  1  0  0  0  0
 20 23  1  0  0  0  0
M  END
$$$$

  -OEChem-01062216073D

 23 22  0     1  0  0  0  0  0999 V2000
   -2.9154   -3.4506    1.0996 H   0  0  0  0  0  0  0  0  0  0  0  0
   -2.7566   -2.5069    0.5703 C   0  0  0  0  0  0  0  0  0  0  0  0
   -3.6592   -1.8972    0.6541 H   0  0  0  0  0  0  0  0  0  0  0  0
   -2.5657   -2.7251   -0.4830 H   0  0  0  0  0  0  0  0  0  0  0  0
   -1.5735   -1.7699    1.1682 C   0  0  0  0  0  0  0  0  0  0  0  0
   -1.1382   -2.1160    2.2538 O   0  0  0  0  0  0  0  0  0  0  0  0
   -1.1892   -0.5533    0.6387 N   0  0  0  0  0  0  0  0  0  0  0  0
   -1.7937   -0.2340   -0.1119 H   0  0  0  0  0  0  0  0  0  0  0  0
    0.1979   -0.0364    0.5610 C   0  0  1  0  0  0  0  0  0  0  0  0
    0.4373    0.1365   -0.4924 H   0  0  0  0  0  0  0  0  0  0  0  0
    0.1367    1.3219    1.2812 C   0  0  0  0  0  0  0  0  0  0  0  0
   -0.2519    1.1797    2.2960 H   0  0  0  0  0  0  0  0  0  0  0  0
    1.1297    1.7706    1.3628 H   0  0  0  0  0  0  0  0  0  0  0  0
   -0.9419    2.4865    0.3452 S   0  0  0  0  0  0  0  0  0  0  0  0
   -0.9674    3.5478    1.1818 H   0  0  0  0  0  0  0  0  0  0  0  0
    1.3753   -0.9029    1.1010 C   0  0  0  0  0  0  0  0  0  0  0  0
    1.3951   -2.1086    0.8889 O   0  0  0  0  0  0  0  0  0  0  0  0
    2.6169   -0.3270    1.3289 N   0  0  0  0  0  0  0  0  0  0  0  0
    2.6695    0.6849    1.3633 H   0  0  0  0  0  0  0  0  0  0  0  0
    3.8334   -1.0982    1.5662 C   0  0  0  0  0  0  0  0  0  0  0  0
    4.1020   -1.6748    0.6747 H   0  0  0  0  0  0  0  0  0  0  0  0
    4.6649   -0.4298    1.8089 H   0  0  0  0  0  0  0  0  0  0  0  0
    3.6912   -1.7898    2.4037 H   0  0  0  0  0  0  0  0  0  0  0  0
  1  2  1  0  0  0  0
  2  3  1  0  0  0  0
  2  4  1  0  0  0  0
  2  5  1  0  0  0  0
  5  6  2  0  0  0  0
  5  7  1  0  0  0  0
  7  8  1  0  0  0  0
  7  9  1  0  0  0  0
  9 10  1  0  0  0  0
  9 11  1  0  0  0  0
  9 16  1  0  0  0  0
 11 12  1  0  0  0  0
 11 13  1  0  0  0  0
 11 14  1  0  0  0  0
 14 15  1  0  0  0  0
 16 17  2  0  0  0  0
 16 18  1  0  0  0  0
 18 19  1  0  0  0  0
 18 20  1  0  0  0  0
 20 21  1  0  0  0  0
 20 22  1  0  0  0  0
 20 23  1  0  0  0  0
M  END
$$$$

  -OEChem-01062216073D

 23 22  0     1  0  0  0  0  0999 V2000
   -2.8941   -3.4619    1.1093 H   0  0  0  0  0  0  0  0  0  0  0  0
   -2.7625   -2.5052    0.5960 C   0  0  0  0  0  0  0  0  0  0  0  0
   -3.6574   -1.8967    0.7455 H   0  0  0  0  0  0  0  0  0  0  0  0
   -2.6315   -2.6964   -0.4717 H   0  0  0  0  0  0  0  0  0  0  0  0
   -1.5456   -1.7852    1.1450 C   0  0  0  0  0  0  0  0  0  0  0  0
   -1.0279   -2.1825    2.1757 O   0  0  0  0  0  0  0  0  0  0  0  0
   -1.1899   -0.5552    0.6253 N   0  0  0  0  0  0  0  0  0  0  0  0
   -1.8199   -0.2213   -0.0980 H   0  0  0  0  0  0  0  0  0  0  0  0
    0.1867   -0.0143    0.5366 C   0  0  1  0  0  0  0  0  0  0  0  0
    0.4175    0.1571   -0.5193 H   0  0  0  0  0  0  0  0  0  0  0  0
    0.1252    1.3488    1.2455 C   0  0  0  0  0  0  0  0  0  0  0  0
   -0.2449    1.2162    2.2684 H   0  0  0  0  0  0  0  0  0  0  0  0
    1.1176    1.8044    1.2978 H   0  0  0  0  0  0  0  0  0  0  0  0
   -0.9732    2.4954    0.3107 S   0  0  0  0  0  0  0  0  0  0  0  0
   -0.9690    3.5784    1.1192 H   0  0  0  0  0  0  0  0  0  0  0  0
    1.3596   -0.8944    1.0612 C   0  0  0  0  0  0  0  0  0  0  0  0
    1.4719   -2.0366    0.6319 O   0  0  0  0  0  0  0  0  0  0  0  0
    2.5100   -0.3298    1.5923 N   0  0  0  0  0  0  0  0  0  0  0  0
    2.4476    0.6230    1.9321 H   0  0  0  0  0  0  0  0  0  0  0  0
    3.6989   -1.1079    1.9247 C   0  0  0  0  0  0  0  0  0  0  0  0
    4.1370   -1.5448    1.0210 H   0  0  0  0  0  0  0  0  0  0  0  0
    4.4501   -0.4680    2.3973 H   0  0  0  0  0  0  0  0  0  0  0  0
    3.4460   -1.9158    2.6196 H   0  0  0  0  0  0  0  0  0  0  0  0
  1  2  1  0  0  0  0
  2  3  1  0  0  0  0
  2  4  1  0  0  0  0
  2  5  1  0  0  0  0
  5  6  2  0  0  0  0
  5  7  1  0  0  0  0
  7  8  1  0  0  0  0
  7  9  1  0  0  0  0
  9 10  1  0  0  0  0
  9 11  1  0  0  0  0
  9 16  1  0  0  0  0
 11 12  1  0  0  0  0
 11 13  1  0  0  0  0
 11 14  1  0  0  0  0
 14 15  1  0  0  0  0
 16 17  2  0  0  0  0
 16 18  1  0  0  0  0
 18 19  1  0  0  0  0
 18 20  1  0  0  0  0
 20 21  1  0  0  0  0
 20 22  1  0  0  0  0
 20 23  1  0  0  0  0
M  END
$$$$

  -OEChem-01062216073D

 23 22  0     1  0  0  0  0  0999 V2000
   -2.9217   -3.4498    1.1286 H   0  0  0  0  0  0  0  0  0  0  0  0
   -2.7873   -2.4923    0.6173 C   0  0  0  0  0  0  0  0  0  0  0  0
   -3.6537   -1.8587    0.8203 H   0  0  0  0  0  0  0  0  0  0  0  0
   -2.7197   -2.6761   -0.4577 H   0  0  0  0  0  0  0  0  0  0  0  0
   -1.5215   -1.8142    1.1061 C   0  0  0  0  0  0  0  0  0  0  0  0
   -0.9305   -2.2750    2.0684 O   0  0  0  0  0  0  0  0  0  0  0  0
   -1.1802   -0.5730    0.6016 N   0  0  0  0  0  0  0  0  0  0  0  0
   -1.8359   -0.2102   -0.0844 H   0  0  0  0  0  0  0  0  0  0  0  0
    0.1854   -0.0067    0.5155 C   0  0  1  0  0  0  0  0  0  0  0  0
    0.4135    0.1708   -0.5401 H   0  0  0  0  0  0  0  0  0  0  0  0
    0.1153    1.3551    1.2247 C   0  0  0  0  0  0  0  0  0  0  0  0
   -0.2483    1.2217    2.2496 H   0  0  0  0  0  0  0  0  0  0  0  0
    1.1075    1.8145    1.2683 H   0  0  0  0  0  0  0  0  0  0  0  0
   -0.9970    2.4924    0.2956 S   0  0  0  0  0  0  0  0  0  0  0  0
   -0.9604    3.5923    1.0802 H   0  0  0  0  0  0  0  0  0  0  0  0
    1.3623   -0.8831    1.0318 C   0  0  0  0  0  0  0  0  0  0  0  0
    1.5964   -1.9340    0.4467 O   0  0  0  0  0  0  0  0  0  0  0  0
    2.3670   -0.3729    1.8399 N   0  0  0  0  0  0  0  0  0  0  0  0
    2.1445    0.4593    2.3744 H   0  0  0  0  0  0  0  0  0  0  0  0
    3.5241   -1.1629    2.2465 C   0  0  0  0  0  0  0  0  0  0  0  0
    4.1148   -1.4577    1.3727 H   0  0  0  0  0  0  0  0  0  0  0  0
    4.1654   -0.5790    2.9134 H   0  0  0  0  0  0  0  0  0  0  0  0
    3.2034   -2.0666    2.7758 H   0  0  0  0  0  0  0  0  0  0  0  0
  1  2  1  0  0  0  0
  2  3  1  0  0  0  0
  2  4  1  0  0  0  0
  2  5  1  0  0  0  0
  5  6  2  0  0  0  0
  5  7  1  0  0  0  0
  7  8  1  0  0  0  0
  7  9  1  0  0  0  0
  9 10  1  0  0  0  0
  9 11  1  0  0  0  0
  9 16  1  0  0  0  0
 11 12  1  0  0  0  0
 11 13  1  0  0  0  0
 11 14  1  0  0  0  0
 14 15  1  0  0  0  0
 16 17  2  0  0  0  0
 16 18  1  0  0  0  0
 18 19  1  0  0  0  0
 18 20  1  0  0  0  0
 20 21  1  0  0  0  0
 20 22  1  0  0  0  0
 20 23  1  0  0  0  0
M  END
$$$$

  -OEChem-01062216073D

 23 22  0     1  0  0  0  0  0999 V2000
   -2.9100   -3.4713    1.0819 H   0  0  0  0  0  0  0  0  0  0  0  0
   -2.8113   -2.4789    0.6332 C   0  0  0  0  0  0  0  0  0  0  0  0
   -3.6564   -1.8623    0.9481 H   0  0  0  0  0  0  0  0  0  0  0  0
   -2.8282   -2.5837   -0.4543 H   0  0  0  0  0  0  0  0  0  0  0  0
   -1.5087   -1.8373    1.0717 C   0  0  0  0  0  0  0  0  0  0  0  0
   -0.8641   -2.3517    1.9701 O   0  0  0  0  0  0  0  0  0  0  0  0
   -1.1723   -0.5904    0.5777 N   0  0  0  0  0  0  0  0  0  0  0  0
   -1.8467   -0.2014   -0.0753 H   0  0  0  0  0  0  0  0  0  0  0  0
    0.1856   -0.0069    0.4992 C   0  0  1  0  0  0  0  0  0  0  0  0
    0.4131    0.1746   -0.5561 H   0  0  0  0  0  0  0  0  0  0  0  0
    0.1122    1.3530    1.2087 C   0  0  0  0  0  0  0  0  0  0  0  0
   -0.2519    1.2207    2.2332 H   0  0  0  0  0  0  0  0  0  0  0  0
    1.1072    1.8081    1.2527 H   0  0  0  0  0  0  0  0  0  0  0  0
   -1.0040    2.4875    0.2810 S   0  0  0  0  0  0  0  0  0  0  0  0
   -0.9358    3.6022    1.0421 H   0  0  0  0  0  0  0  0  0  0  0  0
    1.3674   -0.8734    1.0151 C   0  0  0  0  0  0  0  0  0  0  0  0
    1.7446   -1.8048    0.3144 O   0  0  0  0  0  0  0  0  0  0  0  0
    2.1886   -0.4674    2.0554 N   0  0  0  0  0  0  0  0  0  0  0  0
    1.7954    0.2118    2.6978 H   0  0  0  0  0  0  0  0  0  0  0  0
    3.3099   -1.2772    2.5183 C   0  0  0  0  0  0  0  0  0  0  0  0
    4.0491   -1.4017    1.7199 H   0  0  0  0  0  0  0  0  0  0  0  0
    3.8006   -0.7941    3.3686 H   0  0  0  0  0  0  0  0  0  0  0  0
    2.9622   -2.2668    2.8339 H   0  0  0  0  0  0  0  0  0  0  0  0
  1  2  1  0  0  0  0
  2  3  1  0  0  0  0
  2  4  1  0  0  0  0
  2  5  1  0  0  0  0
  5  6  2  0  0  0  0
  5  7  1  0  0  0  0
  7  8  1  0  0  0  0
  7  9  1  0  0  0  0
  9 10  1  0  0  0  0
  9 11  1  0  0  0  0
  9 16  1  0  0  0  0
 11 12  1  0  0  0  0
 11 13  1  0  0  0  0
 11 14  1  0  0  0  0
 14 15  1  0  0  0  0
 16 17  2  0  0  0  0
 16 18  1  0  0  0  0
 18 19  1  0  0  0  0
 18 20  1  0  0  0  0
 20 21  1  0  0  0  0
 20 22  1  0  0  0  0
 20 23  1  0  0  0  0
M  END
$$$$

  -OEChem-01062216073D

 23 22  0     1  0  0  0  0  0999 V2000
   -2.9599   -3.4459    1.0915 H   0  0  0  0  0  0  0  0  0  0  0  0
   -2.8435   -2.4563    0.6407 C   0  0  0  0  0  0  0  0  0  0  0  0
   -3.6538   -1.8119    0.9897 H   0  0  0  0  0  0  0  0  0  0  0  0
   -2.9068   -2.5569   -0.4455 H   0  0  0  0  0  0  0  0  0  0  0  0
   -1.5029   -1.8611    1.0275 C   0  0  0  0  0  0  0  0  0  0  0  0
   -0.8156   -2.4318    1.8571 O   0  0  0  0  0  0  0  0  0  0  0  0
   -1.1608   -0.6105    0.5469 N   0  0  0  0  0  0  0  0  0  0  0  0
   -1.8521   -0.1853   -0.0650 H   0  0  0  0  0  0  0  0  0  0  0  0
    0.1922   -0.0148    0.4844 C   0  0  1  0  0  0  0  0  0  0  0  0
    0.4240    0.1762   -0.5688 H   0  0  0  0  0  0  0  0  0  0  0  0
    0.1122    1.3387    1.2039 C   0  0  0  0  0  0  0  0  0  0  0  0
   -0.2583    1.2004    2.2253 H   0  0  0  0  0  0  0  0  0  0  0  0
    1.1089    1.7896    1.2593 H   0  0  0  0  0  0  0  0  0  0  0  0
   -1.0026    2.4759    0.2784 S   0  0  0  0  0  0  0  0  0  0  0  0
   -0.9190    3.5935    1.0334 H   0  0  0  0  0  0  0  0  0  0  0  0
    1.3791   -0.8680    1.0051 C   0  0  0  0  0  0  0  0  0  0  0  0
    1.9251   -1.6387    0.2251 O   0  0  0  0  0  0  0  0  0  0  0  0
    1.9872   -0.6145    2.2239 N   0  0  0  0  0  0  0  0  0  0  0  0
    1.4101   -0.1362    2.9078 H   0  0  0  0  0  0  0  0  0  0  0  0
    3.0816   -1.4398    2.7213 C   0  0  0  0  0  0  0  0  0  0  0  0
    3.9395   -1.3917    2.0422 H   0  0  0  0  0  0  0  0  0  0  0  0
    3.4031   -1.0882    3.7061 H   0  0  0  0  0  0  0  0  0  0  0  0
    2.7620   -2.4836    2.8115 H   0  0  0  0  0  0  0  0  0  0  0  0
  1  2  1  0  0  0  0
  2  3  1  0  0  0  0
  2  4  1  0  0  0  0
  2  5  1  0  0  0  0
  5  6  2  0  0  0  0
  5  7  1  0  0  0  0
  7  8  1  0  0  0  0
  7  9  1  0  0  0  0
  9 10  1  0  0  0  0
  9 11  1  0  0  0  0
  9 16  1  0  0  0  0
 11 12  1  0  0  0  0
 11 13  1  0  0  0  0
 11 14  1  0  0  0  0
 14 15  1  0  0  0  0
 16 17  2  0  0  0  0
 16 18  1  0  0  0  0
 18 19  1  0  0  0  0
 18 20  1  0  0  0  0
 20 21  1  0  0  0  0
 20 22  1  0  0  0  0
 20 23  1  0  0  0  0
M  END
$$$$

  -OEChem-01062216073D

 23 22  0     1  0  0  0  0  0999 V2000
   -3.0233   -3.4142    1.0939 H   0  0  0  0  0  0  0  0  0  0  0  0
   -2.8877   -2.4259    0.6454 C   0  0  0  0  0  0  0  0  0  0  0  0
   -3.6572   -1.7541    1.0331 H   0  0  0  0  0  0  0  0  0  0  0  0
   -3.0009   -2.5143   -0.4378 H   0  0  0  0  0  0  0  0  0  0  0  0
   -1.5104   -1.8846    0.9793 C   0  0  0  0  0  0  0  0  0  0  0  0
   -0.7959   -2.5089    1.7444 O   0  0  0  0  0  0  0  0  0  0  0  0
   -1.1514   -0.6343    0.5112 N   0  0  0  0  0  0  0  0  0  0  0  0
   -1.8553   -0.1688   -0.0562 H   0  0  0  0  0  0  0  0  0  0  0  0
    0.1997   -0.0321    0.4700 C   0  0  1  0  0  0  0  0  0  0  0  0
    0.4403    0.1687   -0.5793 H   0  0  0  0  0  0  0  0  0  0  0  0
    0.1146    1.3129    1.2027 C   0  0  0  0  0  0  0  0  0  0  0  0
   -0.2633    1.1659    2.2196 H   0  0  0  0  0  0  0  0  0  0  0  0
    1.1129    1.7588    1.2722 H   0  0  0  0  0  0  0  0  0  0  0  0
   -0.9921    2.4610    0.2810 S   0  0  0  0  0  0  0  0  0  0  0  0
   -0.8896    3.5794    1.0331 H   0  0  0  0  0  0  0  0  0  0  0  0
    1.3893   -0.8714    1.0035 C   0  0  0  0  0  0  0  0  0  0  0  0
    2.1227   -1.4283    0.1961 O   0  0  0  0  0  0  0  0  0  0  0  0
    1.7730   -0.8157    2.3330 N   0  0  0  0  0  0  0  0  0  0  0  0
    1.0242   -0.5806    2.9774 H   0  0  0  0  0  0  0  0  0  0  0  0
    2.8614   -1.6383    2.8471 C   0  0  0  0  0  0  0  0  0  0  0  0
    3.8001   -1.3982    2.3368 H   0  0  0  0  0  0  0  0  0  0  0  0
    2.9970   -1.4591    3.9178 H   0  0  0  0  0  0  0  0  0  0  0  0
    2.6408   -2.7007    2.6974 H   0  0  0  0  0  0  0  0  0  0  0  0
  1  2  1  0  0  0  0
  2  3  1  0  0  0  0
  2  4  1  0  0  0  0
  2  5  1  0  0  0  0
  5  6  2  0  0  0  0
  5  7  1  0  0  0  0
  7  8  1  0  0  0  0
  7  9  1  0  0  0  0
  9 10  1  0  0  0  0
  9 11  1  0  0  0  0
  9 16  1  0  0  0  0
 11 12  1  0  0  0  0
 11 13  1  0  0  0  0
 11 14  1  0  0  0  0
 14 15  1  0  0  0  0
 16 17  2  0  0  0  0
 16 18  1  0  0  0  0
 18 19  1  0  0  0  0
 18 20  1  0  0  0  0
 20 21  1  0  0  0  0
 20 22  1  0  0  0  0
 20 23  1  0  0  0  0
M  END
$$$$

  -OEChem-01062216073D

 23 22  0     1  0  0  0  0  0999 V2000
   -3.1006   -3.3962    1.0263 H   0  0  0  0  0  0  0  0  0  0  0  0
   -2.9558   -2.3863    0.6322 C   0  0  0  0  0  0  0  0  0  0  0  0
   -3.6904   -1.7202    1.0910 H   0  0  0  0  0  0  0  0  0  0  0  0
   -3.1160   -2.4061   -0.4486 H   0  0  0  0  0  0  0  0  0  0  0  0
   -1.5518   -1.9007    0.9401 C   0  0  0  0  0  0  0  0  0  0  0  0
   -0.8375   -2.5710    1.6647 O   0  0  0  0  0  0  0  0  0  0  0  0
   -1.1577   -0.6578    0.4816 N   0  0  0  0  0  0  0  0  0  0  0  0
   -1.8609   -0.1529   -0.0521 H   0  0  0  0  0  0  0  0  0  0  0  0
    0.1996   -0.0663    0.4614 C   0  0  1  0  0  0  0  0  0  0  0  0
    0.4501    0.1400   -0.5848 H   0  0  0  0  0  0  0  0  0  0  0  0
    0.1210    1.2714    1.2066 C   0  0  0  0  0  0  0  0  0  0  0  0
   -0.2645    1.1181    2.2200 H   0  0  0  0  0  0  0  0  0  0  0  0
    1.1237    1.7056    1.2890 H   0  0  0  0  0  0  0  0  0  0  0  0
   -0.9651    2.4402    0.2865 S   0  0  0  0  0  0  0  0  0  0  0  0
   -0.8378    3.5561    1.0384 H   0  0  0  0  0  0  0  0  0  0  0  0
    1.3902   -0.8937    1.0091 C   0  0  0  0  0  0  0  0  0  0  0  0
    2.3009   -1.1882    0.2450 O   0  0  0  0  0  0  0  0  0  0  0  0
    1.5701   -1.0708    2.3698 N   0  0  0  0  0  0  0  0  0  0  0  0
    0.6960   -1.1137    2.8892 H   0  0  0  0  0  0  0  0  0  0  0  0
    2.6875   -1.8467    2.8945 C   0  0  0  0  0  0  0  0  0  0  0  0
    3.6415   -1.4042    2.5889 H   0  0  0  0  0  0  0  0  0  0  0  0
    2.6527   -1.8666    3.9880 H   0  0  0  0  0  0  0  0  0  0  0  0
    2.6433   -2.8769    2.5256 H   0  0  0  0  0  0  0  0  0  0  0  0
  1  2  1  0  0  0  0
  2  3  1  0  0  0  0
  2  4  1  0  0  0  0
  2  5  1  0  0  0  0
  5  6  2  0  0  0  0
  5  7  1  0  0  0  0
  7  8  1  0  0  0  0
  7  9  1  0  0  0  0
  9 10  1  0  0  0  0
  9 11  1  0  0  0  0
  9 16  1  0  0  0  0
 11 12  1  0  0  0  0
 11 13  1  0  0  0  0
 11 14  1  0  0  0  0
 14 15  1  0  0  0  0
 16 17  2  0  0  0  0
 16 18  1  0  0  0  0
 18 19  1  0  0  0  0
 18 20  1  0  0  0  0
 20 21  1  0  0  0  0
 20 22  1  0  0  0  0
 20 23  1  0  0  0  0
M  END
$$$$

  -OEChem-01062216073D

 23 22  0     1  0  0  0  0  0999 V2000
   -3.2278   -3.3401    0.9685 H   0  0  0  0  0  0  0  0  0  0  0  0
   -3.0444   -2.3230    0.6103 C   0  0  0  0  0  0  0  0  0  0  0  0
   -3.7302   -1.6410    1.1188 H   0  0  0  0  0  0  0  0  0  0  0  0
   -3.2382   -2.2908   -0.4647 H   0  0  0  0  0  0  0  0  0  0  0  0
   -1.6091   -1.9193    0.8908 C   0  0  0  0  0  0  0  0  0  0  0  0
   -0.9061   -2.6594    1.5549 O   0  0  0  0  0  0  0  0  0  0  0  0
   -1.1660   -0.6875    0.4484 N   0  0  0  0  0  0  0  0  0  0  0  0
   -1.8665   -0.1312   -0.0366 H   0  0  0  0  0  0  0  0  0  0  0  0
    0.1991   -0.1103    0.4519 C   0  0  1  0  0  0  0  0  0  0  0  0
    0.4602    0.1038   -0.5902 H   0  0  0  0  0  0  0  0  0  0  0  0
    0.1167    1.2171    1.2138 C   0  0  0  0  0  0  0  0  0  0  0  0
   -0.2796    1.0510    2.2211 H   0  0  0  0  0  0  0  0  0  0  0  0
    1.1208    1.6447    1.3141 H   0  0  0  0  0  0  0  0  0  0  0  0
   -0.9493    2.4062    0.2956 S   0  0  0  0  0  0  0  0  0  0  0  0
   -0.8152    3.5127    1.0602 H   0  0  0  0  0  0  0  0  0  0  0  0
    1.3988   -0.9175    1.0113 C   0  0  0  0  0  0  0  0  0  0  0  0
    2.4347   -0.9446    0.3587 O   0  0  0  0  0  0  0  0  0  0  0  0
    1.4273   -1.3522    2.3237 N   0  0  0  0  0  0  0  0  0  0  0  0
    0.5054   -1.6238    2.6676 H   0  0  0  0  0  0  0  0  0  0  0  0
    2.5708   -2.0749    2.8670 C   0  0  0  0  0  0  0  0  0  0  0  0
    3.4791   -1.4670    2.7970 H   0  0  0  0  0  0  0  0  0  0  0  0
    2.3985   -2.3144    3.9206 H   0  0  0  0  0  0  0  0  0  0  0  0
    2.7291   -3.0096    2.3186 H   0  0  0  0  0  0  0  0  0  0  0  0
  1  2  1  0  0  0  0
  2  3  1  0  0  0  0
  2  4  1  0  0  0  0
  2  5  1  0  0  0  0
  5  6  2  0  0  0  0
  5  7  1  0  0  0  0
  7  8  1  0  0  0  0
  7  9  1  0  0  0  0
  9 10  1  0  0  0  0
  9 11  1  0  0  0  0
  9 16  1  0  0  0  0
 11 12  1  0  0  0  0
 11 13  1  0  0  0  0
 11 14  1  0  0  0  0
 14 15  1  0  0  0  0
 16 17  2  0  0  0  0
 16 18  1  0  0  0  0
 18 19  1  0  0  0  0
 18 20  1  0  0  0  0
 20 21  1  0  0  0  0
 20 22  1  0  0  0  0
 20 23  1  0  0  0  0
M  END
$$$$

  -OEChem-01062216073D

 23 22  0     1  0  0  0  0  0999 V2000
   -3.3630   -3.2567    0.9440 H   0  0  0  0  0  0  0  0  0  0  0  0
   -3.1292   -2.2465    0.5962 C   0  0  0  0  0  0  0  0  0  0  0  0
   -3.7515   -1.5337    1.1423 H   0  0  0  0  0  0  0  0  0  0  0  0
   -3.3609   -2.1813   -0.4697 H   0  0  0  0  0  0  0  0  0  0  0  0
   -1.6617   -1.9390    0.8279 C   0  0  0  0  0  0  0  0  0  0  0  0
   -0.9732   -2.7635    1.3996 O   0  0  0  0  0  0  0  0  0  0  0  0
   -1.1689   -0.7177    0.4094 N   0  0  0  0  0  0  0  0  0  0  0  0
   -1.8649   -0.1098   -0.0169 H   0  0  0  0  0  0  0  0  0  0  0  0
    0.2012   -0.1485    0.4472 C   0  0  1  0  0  0  0  0  0  0  0  0
    0.4801    0.0746   -0.5882 H   0  0  0  0  0  0  0  0  0  0  0  0
    0.0905    1.1708    1.2197 C   0  0  0  0  0  0  0  0  0  0  0  0
   -0.3298    0.9920    2.2150 H   0  0  0  0  0  0  0  0  0  0  0  0
    1.0883    1.6051    1.3506 H   0  0  0  0  0  0  0  0  0  0  0  0
   -0.9558    2.3632    0.2836 S   0  0  0  0  0  0  0  0  0  0  0  0
   -0.8335    3.4675    1.0533 H   0  0  0  0  0  0  0  0  0  0  0  0
    1.4147   -0.9246    1.0252 C   0  0  0  0  0  0  0  0  0  0  0  0
    2.5117   -0.7275    0.5177 O   0  0  0  0  0  0  0  0  0  0  0  0
    1.3613   -1.6208    2.2174 N   0  0  0  0  0  0  0  0  0  0  0  0
    0.4363   -2.0046    2.4215 H   0  0  0  0  0  0  0  0  0  0  0  0
    2.5114   -2.3399    2.7511 C   0  0  0  0  0  0  0  0  0  0  0  0
    3.3470   -1.6545    2.9269 H   0  0  0  0  0  0  0  0  0  0  0  0
    2.2506   -2.8138    3.7022 H   0  0  0  0  0  0  0  0  0  0  0  0
    2.8346   -3.1179    2.0518 H   0  0  0  0  0  0  0  0  0  0  0  0
  1  2  1  0  0  0  0
  2  3  1  0  0  0  0
  2  4  1  0  0  0  0
  2  5  1  0  0  0  0
  5  6  2  0  0  0  0
  5  7  1  0  0  0  0
  7  8  1  0  0  0  0
  7  9  1  0  0  0  0
  9 10  1  0  0  0  0
  9 11  1  0  0  0  0
  9 16  1  0  0  0  0
 11 12  1  0  0  0  0
 11 13  1  0  0  0  0
 11 14  1  0  0  0  0
 14 15  1  0  0  0  0
 16 17  2  0  0  0  0
 16 18  1  0  0  0  0
 18 19  1  0  0  0  0
 18 20  1  0  0  0  0
 20 21  1  0  0  0  0
 20 22  1  0  0  0  0
 20 23  1  0  0  0  0
M  END
$$$$

  -OEChem-01062216073D

 23 22  0     1  0  0  0  0  0999 V2000
   -3.4914   -3.1621    0.9359 H   0  0  0  0  0  0  0  0  0  0  0  0
   -3.2085   -2.1629    0.5926 C   0  0  0  0  0  0  0  0  0  0  0  0
   -3.7668   -1.4220    1.1700 H   0  0  0  0  0  0  0  0  0  0  0  0
   -3.4730   -2.0673   -0.4633 H   0  0  0  0  0  0  0  0  0  0  0  0
   -1.7178   -1.9471    0.7757 C   0  0  0  0  0  0  0  0  0  0  0  0
   -1.0553   -2.8429    1.2637 O   0  0  0  0  0  0  0  0  0  0  0  0
   -1.1783   -0.7379    0.3802 N   0  0  0  0  0  0  0  0  0  0  0  0
   -1.8649   -0.0882    0.0025 H   0  0  0  0  0  0  0  0  0  0  0  0
    0.1990   -0.1839    0.4438 C   0  0  1  0  0  0  0  0  0  0  0  0
    0.4921    0.0462   -0.5861 H   0  0  0  0  0  0  0  0  0  0  0  0
    0.0658    1.1306    1.2242 C   0  0  0  0  0  0  0  0  0  0  0  0
   -0.3769    0.9428    2.2081 H   0  0  0  0  0  0  0  0  0  0  0  0
    1.0575    1.5699    1.3828 H   0  0  0  0  0  0  0  0  0  0  0  0
   -0.9606    2.3291    0.2729 S   0  0  0  0  0  0  0  0  0  0  0  0
   -0.8522    3.4301    1.0498 H   0  0  0  0  0  0  0  0  0  0  0  0
    1.4217   -0.9436    1.0322 C   0  0  0  0  0  0  0  0  0  0  0  0
    2.5349   -0.5751    0.6776 O   0  0  0  0  0  0  0  0  0  0  0  0
    1.3505   -1.8789    2.0452 N   0  0  0  0  0  0  0  0  0  0  0  0
    0.4356   -2.3212    2.1534 H   0  0  0  0  0  0  0  0  0  0  0  0
    2.5150   -2.5988    2.5454 C   0  0  0  0  0  0  0  0  0  0  0  0
    3.2617   -1.8995    2.9358 H   0  0  0  0  0  0  0  0  0  0  0  0
    2.2204   -3.2735    3.3547 H   0  0  0  0  0  0  0  0  0  0  0  0
    2.9706   -3.1923    1.7460 H   0  0  0  0  0  0  0  0  0  0  0  0
  1  2  1  0  0  0  0
  2  3  1  0  0  0  0
  2  4  1  0  0  0  0
  2  5  1  0  0  0  0
  5  6  2  0  0  0  0
  5  7  1  0  0  0  0
  7  8  1  0  0  0  0
  7  9  1  0  0  0  0
  9 10  1  0  0  0  0
  9 11  1  0  0  0  0
  9 16  1  0  0  0  0
 11 12  1  0  0  0  0
 11 13  1  0  0  0  0
 11 14  1  0  0  0  0
 14 15  1  0  0  0  0
 16 17  2  0  0  0  0
 16 18  1  0  0  0  0
 18 19  1  0  0  0  0
 18 20  1  0  0  0  0
 20 21  1  0  0  0  0
 20 22  1  0  0  0  0
 20 23  1  0  0  0  0
M  END
$$$$

  -OEChem-01062216073D

 23 22  0     1  0  0  0  0  0999 V2000
   -3.1025   -3.5203    0.9705 H   0  0  0  0  0  0  0  0  0  0  0  0
   -2.8608   -2.5559    0.5146 C   0  0  0  0  0  0  0  0  0  0  0  0
   -3.6171   -1.8263    0.8140 H   0  0  0  0  0  0  0  0  0  0  0  0
   -2.8808   -2.6676   -0.5722 H   0  0  0  0  0  0  0  0  0  0  0  0
   -1.4876   -2.0918    0.9643 C   0  0  0  0  0  0  0  0  0  0  0  0
   -0.9021   -2.7600    1.7890 O   0  0  0  0  0  0  0  0  0  0  0  0
   -1.0078   -0.9064    0.4424 N   0  0  0  0  0  0  0  0  0  0  0  0
   -1.6738   -0.4480   -0.1755 H   0  0  0  0  0  0  0  0  0  0  0  0
    0.2672   -0.1571    0.5864 C   0  0  1  0  0  0  0  0  0  0  0  0
    0.6851   -0.0694   -0.4212 H   0  0  0  0  0  0  0  0  0  0  0  0
   -0.2022    1.2357    1.0466 C   0  0  0  0  0  0  0  0  0  0  0  0
   -0.7888    1.1479    1.9673 H   0  0  0  0  0  0  0  0  0  0  0  0
    0.6567    1.8800    1.2630 H   0  0  0  0  0  0  0  0  0  0  0  0
   -1.1960    2.0407   -0.2814 S   0  0  0  0  0  0  0  0  0  0  0  0
   -1.4054    3.2592    0.2654 H   0  0  0  0  0  0  0  0  0  0  0  0
    1.5032   -0.5716    1.4506 C   0  0  0  0  0  0  0  0  0  0  0  0
    2.4555    0.1941    1.4956 O   0  0  0  0  0  0  0  0  0  0  0  0
    1.6109   -1.5105    2.4448 N   0  0  0  0  0  0  0  0  0  0  0  0
    2.2431   -1.1608    3.1587 H   0  0  0  0  0  0  0  0  0  0  0  0
    1.9511   -2.8690    2.0359 C   0  0  0  0  0  0  0  0  0  0  0  0
    3.0381   -2.9960    2.0194 H   0  0  0  0  0  0  0  0  0  0  0  0
    1.5253   -3.5905    2.7405 H   0  0  0  0  0  0  0  0  0  0  0  0
    1.5659   -3.0963    1.0361 H   0  0  0  0  0  0  0  0  0  0  0  0
  1  2  1  0  0  0  0
  2  3  1  0  0  0  0
  2  4  1  0  0  0  0
  2  5  1  0  0  0  0
  5  6  2  0  0  0  0
  5  7  1  0  0  0  0
  7  8  1  0  0  0  0
  7  9  1  0  0  0  0
  9 10  1  0  0  0  0
  9 11  1  0  0  0  0
  9 16  1  0  0  0  0
 11 12  1  0  0  0  0
 11 13  1  0  0  0  0
 11 14  1  0  0  0  0
 14 15  1  0  0  0  0
 16 17  2  0  0  0  0
 16 18  1  0  0  0  0
 18 19  1  0  0  0  0
 18 20  1  0  0  0  0
 20 21  1  0  0  0  0
 20 22  1  0  0  0  0
 20 23  1  0  0  0  0
M  END
$$$$

  -OEChem-01062216073D

 23 22  0     1  0  0  0  0  0999 V2000
   -3.0089   -3.5939    1.1872 H   0  0  0  0  0  0  0  0  0  0  0  0
   -2.8905   -2.5231    0.9976 C   0  0  0  0  0  0  0  0  0  0  0  0
   -3.2009   -1.9721    1.8885 H   0  0  0  0  0  0  0  0  0  0  0  0
   -3.5339   -2.2422    0.1601 H   0  0  0  0  0  0  0  0  0  0  0  0
   -1.4436   -2.2057    0.6685 C   0  0  0  0  0  0  0  0  0  0  0  0
   -0.6578   -3.1262    0.5785 O   0  0  0  0  0  0  0  0  0  0  0  0
   -1.1214   -0.9009    0.3529 N   0  0  0  0  0  0  0  0  0  0  0  0
   -1.9282   -0.2806    0.3590 H   0  0  0  0  0  0  0  0  0  0  0  0
    0.1688   -0.1760    0.2282 C   0  0  1  0  0  0  0  0  0  0  0  0
    0.2019    0.2071   -0.7971 H   0  0  0  0  0  0  0  0  0  0  0  0
    0.0238    1.0073    1.1986 C   0  0  0  0  0  0  0  0  0  0  0  0
   -0.1868    0.6443    2.2100 H   0  0  0  0  0  0  0  0  0  0  0  0
    0.9598    1.5761    1.2378 H   0  0  0  0  0  0  0  0  0  0  0  0
   -1.3127    2.1395    0.6271 S   0  0  0  0  0  0  0  0  0  0  0  0
   -1.1674    3.1674    1.4931 H   0  0  0  0  0  0  0  0  0  0  0  0
    1.5972   -0.7665    0.4494 C   0  0  0  0  0  0  0  0  0  0  0  0
    2.5442   -0.1104    0.0420 O   0  0  0  0  0  0  0  0  0  0  0  0
    2.0048   -2.0289    0.8010 N   0  0  0  0  0  0  0  0  0  0  0  0
    2.9667   -2.1800    0.5110 H   0  0  0  0  0  0  0  0  0  0  0  0
    1.6909   -2.5362    2.1314 C   0  0  0  0  0  0  0  0  0  0  0  0
    2.5200   -2.3325    2.8160 H   0  0  0  0  0  0  0  0  0  0  0  0
    0.7897   -2.0668    2.5388 H   0  0  0  0  0  0  0  0  0  0  0  0
    1.5286   -3.6180    2.0917 H   0  0  0  0  0  0  0  0  0  0  0  0
  1  2  1  0  0  0  0
  2  3  1  0  0  0  0
  2  4  1  0  0  0  0
  2  5  1  0  0  0  0
  5  6  2  0  0  0  0
  5  7  1  0  0  0  0
  7  8  1  0  0  0  0
  7  9  1  0  0  0  0
  9 10  1  0  0  0  0
  9 11  1  0  0  0  0
  9 16  1  0  0  0  0
 11 12  1  0  0  0  0
 11 13  1  0  0  0  0
 11 14  1  0  0  0  0
 14 15  1  0  0  0  0
 16 17  2  0  0  0  0
 16 18  1  0  0  0  0
 18 19  1  0  0  0  0
 18 20  1  0  0  0  0
 20 21  1  0  0  0  0
 20 22  1  0  0  0  0
 20 23  1  0  0  0  0
M  END
$$$$

  -OEChem-01062216073D

 23 22  0     1  0  0  0  0  0999 V2000
   -3.1839   -3.4074    1.4427 H   0  0  0  0  0  0  0  0  0  0  0  0
   -3.0319   -2.3610    1.1624 C   0  0  0  0  0  0  0  0  0  0  0  0
   -3.3544   -1.7260    1.9911 H   0  0  0  0  0  0  0  0  0  0  0  0
   -3.6425   -2.1408    0.2833 H   0  0  0  0  0  0  0  0  0  0  0  0
   -1.5681   -2.1072    0.8523 C   0  0  0  0  0  0  0  0  0  0  0  0
   -0.8084   -3.0517    0.8719 O   0  0  0  0  0  0  0  0  0  0  0  0
   -1.1949   -0.8175    0.5283 N   0  0  0  0  0  0  0  0  0  0  0  0
   -1.9758   -0.1651    0.5379 H   0  0  0  0  0  0  0  0  0  0  0  0
    0.1096   -0.1612    0.2561 C   0  0  1  0  0  0  0  0  0  0  0  0
    0.0370    0.2474   -0.7568 H   0  0  0  0  0  0  0  0  0  0  0  0
    0.1379    1.0057    1.2592 C   0  0  0  0  0  0  0  0  0  0  0  0
    0.0260    0.6275    2.2808 H   0  0  0  0  0  0  0  0  0  0  0  0
    1.0972    1.5323    1.2041 H   0  0  0  0  0  0  0  0  0  0  0  0
   -1.1991    2.2124    0.8665 S   0  0  0  0  0  0  0  0  0  0  0  0
   -0.9193    3.1981    1.7483 H   0  0  0  0  0  0  0  0  0  0  0  0
    1.5190   -0.8352    0.2733 C   0  0  0  0  0  0  0  0  0  0  0  0
    2.4737   -0.1532   -0.0708 O   0  0  0  0  0  0  0  0  0  0  0  0
    1.8643   -2.1623    0.2626 N   0  0  0  0  0  0  0  0  0  0  0  0
    2.6982   -2.2822   -0.3049 H   0  0  0  0  0  0  0  0  0  0  0  0
    1.9720   -2.8346    1.5526 C   0  0  0  0  0  0  0  0  0  0  0  0
    1.2772   -2.4111    2.2856 H   0  0  0  0  0  0  0  0  0  0  0  0
    1.7461   -3.8998    1.4402 H   0  0  0  0  0  0  0  0  0  0  0  0
    2.9878   -2.7320    1.9468 H   0  0  0  0  0  0  0  0  0  0  0  0
  1  2  1  0  0  0  0
  2  3  1  0  0  0  0
  2  4  1  0  0  0  0
  2  5  1  0  0  0  0
  5  6  2  0  0  0  0
  5  7  1  0  0  0  0
  7  8  1  0  0  0  0
  7  9  1  0  0  0  0
  9 10  1  0  0  0  0
  9 11  1  0  0  0  0
  9 16  1  0  0  0  0
 11 12  1  0  0  0  0
 11 13  1  0  0  0  0
 11 14  1  0  0  0  0
 14 15  1  0  0  0  0
 16 17  2  0  0  0  0
 16 18  1  0  0  0  0
 18 19  1  0  0  0  0
 18 20  1  0  0  0  0
 20 21  1  0  0  0  0
 20 22  1  0  0  0  0
 20 23  1  0  0  0  0
M  END
$$$$

  -OEChem-01062216073D

 23 22  0     1  0  0  0  0  0999 V2000
   -3.4865   -3.1396    1.0162 H   0  0  0  0  0  0  0  0  0  0  0  0
   -3.2076   -2.1347    0.6862 C   0  0  0  0  0  0  0  0  0  0  0  0
   -3.7250   -1.4038    1.3123 H   0  0  0  0  0  0  0  0  0  0  0  0
   -3.5247   -2.0058   -0.3516 H   0  0  0  0  0  0  0  0  0  0  0  0
   -1.7066   -1.9423    0.7977 C   0  0  0  0  0  0  0  0  0  0  0  0
   -1.0332   -2.8638    1.2170 O   0  0  0  0  0  0  0  0  0  0  0  0
   -1.1770   -0.7201    0.4281 N   0  0  0  0  0  0  0  0  0  0  0  0
   -1.8819   -0.0459    0.1363 H   0  0  0  0  0  0  0  0  0  0  0  0
    0.2060   -0.1737    0.4140 C   0  0  1  0  0  0  0  0  0  0  0  0
    0.4325    0.0870   -0.6244 H   0  0  0  0  0  0  0  0  0  0  0  0
    0.0824    1.1311    1.2255 C   0  0  0  0  0  0  0  0  0  0  0  0
   -0.3066    0.9179    2.2269 H   0  0  0  0  0  0  0  0  0  0  0  0
    1.0617    1.6067    1.3455 H   0  0  0  0  0  0  0  0  0  0  0  0
   -1.0121    2.3196    0.3378 S   0  0  0  0  0  0  0  0  0  0  0  0
   -0.8794    3.4137    1.1207 H   0  0  0  0  0  0  0  0  0  0  0  0
    1.4634   -0.9827    0.8693 C   0  0  0  0  0  0  0  0  0  0  0  0
    2.4631   -0.3753    1.2368 O   0  0  0  0  0  0  0  0  0  0  0  0
    1.5794   -2.3542    0.7623 N   0  0  0  0  0  0  0  0  0  0  0  0
    0.6934   -2.8558    0.6782 H   0  0  0  0  0  0  0  0  0  0  0  0
    2.7410   -3.1019    1.2283 C   0  0  0  0  0  0  0  0  0  0  0  0
    2.8973   -2.9400    2.2998 H   0  0  0  0  0  0  0  0  0  0  0  0
    2.5921   -4.1724    1.0573 H   0  0  0  0  0  0  0  0  0  0  0  0
    3.6408   -2.7891    0.6884 H   0  0  0  0  0  0  0  0  0  0  0  0
  1  2  1  0  0  0  0
  2  3  1  0  0  0  0
  2  4  1  0  0  0  0
  2  5  1  0  0  0  0
  5  6  2  0  0  0  0
  5  7  1  0  0  0  0
  7  8  1  0  0  0  0
  7  9  1  0  0  0  0
  9 10  1  0  0  0  0
  9 11  1  0  0  0  0
  9 16  1  0  0  0  0
 11 12  1  0  0  0  0
 11 13  1  0  0  0  0
 11 14  1  0  0  0  0
 14 15  1  0  0  0  0
 16 17  2  0  0  0  0
 16 18  1  0  0  0  0
 18 19  1  0  0  0  0
 18 20  1  0  0  0  0
 20 21  1  0  0  0  0
 20 22  1  0  0  0  0
 20 23  1  0  0  0  0
M  END
$$$$

  -OEChem-01062216073D

 23 22  0     1  0  0  0  0  0999 V2000
   -3.3527   -3.1959    1.1009 H   0  0  0  0  0  0  0  0  0  0  0  0
   -3.1206   -2.1851    0.7530 C   0  0  0  0  0  0  0  0  0  0  0  0
   -3.6171   -1.4662    1.4094 H   0  0  0  0  0  0  0  0  0  0  0  0
   -3.5043   -2.0664   -0.2633 H   0  0  0  0  0  0  0  0  0  0  0  0
   -1.6210   -1.9547    0.7723 C   0  0  0  0  0  0  0  0  0  0  0  0
   -0.8927   -2.8762    1.0886 O   0  0  0  0  0  0  0  0  0  0  0  0
   -1.1423   -0.7112    0.4049 N   0  0  0  0  0  0  0  0  0  0  0  0
   -1.8724   -0.0400    0.1749 H   0  0  0  0  0  0  0  0  0  0  0  0
    0.2275   -0.1369    0.3989 C   0  0  1  0  0  0  0  0  0  0  0  0
    0.4603    0.1284   -0.6367 H   0  0  0  0  0  0  0  0  0  0  0  0
    0.0912    1.1655    1.2104 C   0  0  0  0  0  0  0  0  0  0  0  0
   -0.2915    0.9485    2.2133 H   0  0  0  0  0  0  0  0  0  0  0  0
    1.0675    1.6484    1.3250 H   0  0  0  0  0  0  0  0  0  0  0  0
   -1.0166    2.3432    0.3260 S   0  0  0  0  0  0  0  0  0  0  0  0
   -0.9006    3.4347    1.1151 H   0  0  0  0  0  0  0  0  0  0  0  0
    1.4704   -0.9593    0.8638 C   0  0  0  0  0  0  0  0  0  0  0  0
    2.3755   -0.4085    1.4815 O   0  0  0  0  0  0  0  0  0  0  0  0
    1.6784   -2.2657    0.4656 N   0  0  0  0  0  0  0  0  0  0  0  0
    0.8153   -2.7719    0.2585 H   0  0  0  0  0  0  0  0  0  0  0  0
    2.8187   -3.0538    0.9175 C   0  0  0  0  0  0  0  0  0  0  0  0
    2.8157   -3.1420    2.0089 H   0  0  0  0  0  0  0  0  0  0  0  0
    2.7744   -4.0592    0.4881 H   0  0  0  0  0  0  0  0  0  0  0  0
    3.7582   -2.5870    0.6031 H   0  0  0  0  0  0  0  0  0  0  0  0
  1  2  1  0  0  0  0
  2  3  1  0  0  0  0
  2  4  1  0  0  0  0
  2  5  1  0  0  0  0
  5  6  2  0  0  0  0
  5  7  1  0  0  0  0
  7  8  1  0  0  0  0
  7  9  1  0  0  0  0
  9 10  1  0  0  0  0
  9 11  1  0  0  0  0
  9 16  1  0  0  0  0
 11 12  1  0  0  0  0
 11 13  1  0  0  0  0
 11 14  1  0  0  0  0
 14 15  1  0  0  0  0
 16 17  2  0  0  0  0
 16 18  1  0  0  0  0
 18 19  1  0  0  0  0
 18 20  1  0  0  0  0
 20 21  1  0  0  0  0
 20 22  1  0  0  0  0
 20 23  1  0  0  0  0
M  END
$$$$

  -OEChem-01062216073D

 23 22  0     1  0  0  0  0  0999 V2000
   -3.2067   -3.2551    1.1556 H   0  0  0  0  0  0  0  0  0  0  0  0
   -3.0264   -2.2353    0.8038 C   0  0  0  0  0  0  0  0  0  0  0  0
   -3.4984   -1.5368    1.4989 H   0  0  0  0  0  0  0  0  0  0  0  0
   -3.4791   -2.1184   -0.1839 H   0  0  0  0  0  0  0  0  0  0  0  0
   -1.5359   -1.9630    0.7271 C   0  0  0  0  0  0  0  0  0  0  0  0
   -0.7590   -2.8767    0.9341 O   0  0  0  0  0  0  0  0  0  0  0  0
   -1.1106   -0.7002    0.3603 N   0  0  0  0  0  0  0  0  0  0  0  0
   -1.8631   -0.0345    0.1972 H   0  0  0  0  0  0  0  0  0  0  0  0
    0.2456   -0.1004    0.3787 C   0  0  1  0  0  0  0  0  0  0  0  0
    0.4998    0.1738   -0.6497 H   0  0  0  0  0  0  0  0  0  0  0  0
    0.0947    1.1940    1.1979 C   0  0  0  0  0  0  0  0  0  0  0  0
   -0.2936    0.9667    2.1964 H   0  0  0  0  0  0  0  0  0  0  0  0
    1.0706    1.6760    1.3226 H   0  0  0  0  0  0  0  0  0  0  0  0
   -1.0152    2.3714    0.3171 S   0  0  0  0  0  0  0  0  0  0  0  0
   -0.9158    3.4555    1.1192 H   0  0  0  0  0  0  0  0  0  0  0  0
    1.4629   -0.9374    0.8737 C   0  0  0  0  0  0  0  0  0  0  0  0
    2.2287   -0.4879    1.7202 O   0  0  0  0  0  0  0  0  0  0  0  0
    1.8124   -2.1125    0.2357 N   0  0  0  0  0  0  0  0  0  0  0  0
    1.0103   -2.6049   -0.1579 H   0  0  0  0  0  0  0  0  0  0  0  0
    2.9302   -2.9326    0.6861 C   0  0  0  0  0  0  0  0  0  0  0  0
    2.7678   -3.2686    1.7157 H   0  0  0  0  0  0  0  0  0  0  0  0
    3.0329   -3.8131    0.0448 H   0  0  0  0  0  0  0  0  0  0  0  0
    3.8661   -2.3655    0.6435 H   0  0  0  0  0  0  0  0  0  0  0  0
  1  2  1  0  0  0  0
  2  3  1  0  0  0  0
  2  4  1  0  0  0  0
  2  5  1  0  0  0  0
  5  6  2  0  0  0  0
  5  7  1  0  0  0  0
  7  8  1  0  0  0  0
  7  9  1  0  0  0  0
  9 10  1  0  0  0  0
  9 11  1  0  0  0  0
  9 16  1  0  0  0  0
 11 12  1  0  0  0  0
 11 13  1  0  0  0  0
 11 14  1  0  0  0  0
 14 15  1  0  0  0  0
 16 17  2  0  0  0  0
 16 18  1  0  0  0  0
 18 19  1  0  0  0  0
 18 20  1  0  0  0  0
 20 21  1  0  0  0  0
 20 22  1  0  0  0  0
 20 23  1  0  0  0  0
M  END
$$$$

  -OEChem-01062216073D

 23 22  0     1  0  0  0  0  0999 V2000
   -3.0793   -3.3104    1.1833 H   0  0  0  0  0  0  0  0  0  0  0  0
   -2.9438   -2.2800    0.8420 C   0  0  0  0  0  0  0  0  0  0  0  0
   -3.4018   -1.6069    1.5708 H   0  0  0  0  0  0  0  0  0  0  0  0
   -3.4442   -2.1594   -0.1218 H   0  0  0  0  0  0  0  0  0  0  0  0
   -1.4664   -1.9653    0.7019 C   0  0  0  0  0  0  0  0  0  0  0  0
   -0.6542   -2.8611    0.8464 O   0  0  0  0  0  0  0  0  0  0  0  0
   -1.0892   -0.6894    0.3261 N   0  0  0  0  0  0  0  0  0  0  0  0
   -1.8597   -0.0348    0.2094 H   0  0  0  0  0  0  0  0  0  0  0  0
    0.2550   -0.0689    0.3586 C   0  0  1  0  0  0  0  0  0  0  0  0
    0.5221    0.2121   -0.6645 H   0  0  0  0  0  0  0  0  0  0  0  0
    0.0977    1.2189    1.1842 C   0  0  0  0  0  0  0  0  0  0  0  0
   -0.2929    0.9831    2.1800 H   0  0  0  0  0  0  0  0  0  0  0  0
    1.0751    1.6964    1.3157 H   0  0  0  0  0  0  0  0  0  0  0  0
   -1.0170    2.3977    0.3119 S   0  0  0  0  0  0  0  0  0  0  0  0
   -0.9359    3.4713    1.1298 H   0  0  0  0  0  0  0  0  0  0  0  0
    1.4524   -0.9137    0.8787 C   0  0  0  0  0  0  0  0  0  0  0  0
    2.0438   -0.6017    1.9075 O   0  0  0  0  0  0  0  0  0  0  0  0
    1.9872   -1.9057    0.0776 N   0  0  0  0  0  0  0  0  0  0  0  0
    1.3165   -2.3165   -0.5679 H   0  0  0  0  0  0  0  0  0  0  0  0
    3.0739   -2.7615    0.5377 C   0  0  0  0  0  0  0  0  0  0  0  0
    2.7648   -3.3294    1.4216 H   0  0  0  0  0  0  0  0  0  0  0  0
    3.3557   -3.4683   -0.2483 H   0  0  0  0  0  0  0  0  0  0  0  0
    3.9549   -2.1630    0.7924 H   0  0  0  0  0  0  0  0  0  0  0  0
  1  2  1  0  0  0  0
  2  3  1  0  0  0  0
  2  4  1  0  0  0  0
  2  5  1  0  0  0  0
  5  6  2  0  0  0  0
  5  7  1  0  0  0  0
  7  8  1  0  0  0  0
  7  9  1  0  0  0  0
  9 10  1  0  0  0  0
  9 11  1  0  0  0  0
  9 16  1  0  0  0  0
 11 12  1  0  0  0  0
 11 13  1  0  0  0  0
 11 14  1  0  0  0  0
 14 15  1  0  0  0  0
 16 17  2  0  0  0  0
 16 18  1  0  0  0  0
 18 19  1  0  0  0  0
 18 20  1  0  0  0  0
 20 21  1  0  0  0  0
 20 22  1  0  0  0  0
 20 23  1  0  0  0  0
M  END
$$$$

  -OEChem-01062216073D

 23 22  0     1  0  0  0  0  0999 V2000
   -3.0127   -3.3373    1.1953 H   0  0  0  0  0  0  0  0  0  0  0  0
   -2.9002   -2.3000    0.8675 C   0  0  0  0  0  0  0  0  0  0  0  0
   -3.3390   -1.6442    1.6233 H   0  0  0  0  0  0  0  0  0  0  0  0
   -3.4354   -2.1684   -0.0759 H   0  0  0  0  0  0  0  0  0  0  0  0
   -1.4319   -1.9670    0.6814 C   0  0  0  0  0  0  0  0  0  0  0  0
   -0.6047   -2.8559    0.7812 O   0  0  0  0  0  0  0  0  0  0  0  0
   -1.0805   -0.6860    0.2971 N   0  0  0  0  0  0  0  0  0  0  0  0
   -1.8592   -0.0362    0.2147 H   0  0  0  0  0  0  0  0  0  0  0  0
    0.2578   -0.0566    0.3411 C   0  0  1  0  0  0  0  0  0  0  0  0
    0.5335    0.2300   -0.6781 H   0  0  0  0  0  0  0  0  0  0  0  0
    0.0974    1.2247    1.1737 C   0  0  0  0  0  0  0  0  0  0  0  0
   -0.2987    0.9817    2.1659 H   0  0  0  0  0  0  0  0  0  0  0  0
    1.0758    1.6975    1.3142 H   0  0  0  0  0  0  0  0  0  0  0  0
   -1.0170    2.4084    0.3080 S   0  0  0  0  0  0  0  0  0  0  0  0
   -0.9576    3.4675    1.1464 H   0  0  0  0  0  0  0  0  0  0  0  0
    1.4422   -0.9026    0.8820 C   0  0  0  0  0  0  0  0  0  0  0  0
    1.8513   -0.7462    2.0283 O   0  0  0  0  0  0  0  0  0  0  0  0
    2.1840   -1.6742    0.0061 N   0  0  0  0  0  0  0  0  0  0  0  0
    1.6950   -1.9478   -0.8413 H   0  0  0  0  0  0  0  0  0  0  0  0
    3.2661   -2.5358    0.4670 C   0  0  0  0  0  0  0  0  0  0  0  0
    2.8830   -3.2904    1.1623 H   0  0  0  0  0  0  0  0  0  0  0  0
    3.7290   -3.0478   -0.3820 H   0  0  0  0  0  0  0  0  0  0  0  0
    4.0378   -1.9478    0.9750 H   0  0  0  0  0  0  0  0  0  0  0  0
  1  2  1  0  0  0  0
  2  3  1  0  0  0  0
  2  4  1  0  0  0  0
  2  5  1  0  0  0  0
  5  6  2  0  0  0  0
  5  7  1  0  0  0  0
  7  8  1  0  0  0  0
  7  9  1  0  0  0  0
  9 10  1  0  0  0  0
  9 11  1  0  0  0  0
  9 16  1  0  0  0  0
 11 12  1  0  0  0  0
 11 13  1  0  0  0  0
 11 14  1  0  0  0  0
 14 15  1  0  0  0  0
 16 17  2  0  0  0  0
 16 18  1  0  0  0  0
 18 19  1  0  0  0  0
 18 20  1  0  0  0  0
 20 21  1  0  0  0  0
 20 22  1  0  0  0  0
 20 23  1  0  0  0  0
M  END
$$$$

  -OEChem-01062216073D

 23 22  0     1  0  0  0  0  0999 V2000
   -2.9986   -3.3269    1.2405 H   0  0  0  0  0  0  0  0  0  0  0  0
   -2.8950   -2.2976    0.8854 C   0  0  0  0  0  0  0  0  0  0  0  0
   -3.3065   -1.6238    1.6408 H   0  0  0  0  0  0  0  0  0  0  0  0
   -3.4616   -2.1858   -0.0421 H   0  0  0  0  0  0  0  0  0  0  0  0
   -1.4328   -1.9733    0.6431 C   0  0  0  0  0  0  0  0  0  0  0  0
   -0.6097   -2.8711    0.6838 O   0  0  0  0  0  0  0  0  0  0  0  0
   -1.0852   -0.6906    0.2612 N   0  0  0  0  0  0  0  0  0  0  0  0
   -1.8617   -0.0349    0.2180 H   0  0  0  0  0  0  0  0  0  0  0  0
    0.2545   -0.0675    0.3254 C   0  0  1  0  0  0  0  0  0  0  0  0
    0.5414    0.2251   -0.6888 H   0  0  0  0  0  0  0  0  0  0  0  0
    0.0988    1.2053    1.1702 C   0  0  0  0  0  0  0  0  0  0  0  0
   -0.3081    0.9538    2.1561 H   0  0  0  0  0  0  0  0  0  0  0  0
    1.0806    1.6659    1.3257 H   0  0  0  0  0  0  0  0  0  0  0  0
   -0.9994    2.4075    0.3099 S   0  0  0  0  0  0  0  0  0  0  0  0
   -0.9553    3.4492    1.1705 H   0  0  0  0  0  0  0  0  0  0  0  0
    1.4275   -0.9168    0.8826 C   0  0  0  0  0  0  0  0  0  0  0  0
    1.6664   -0.9250    2.0860 O   0  0  0  0  0  0  0  0  0  0  0  0
    2.3684   -1.4401    0.0139 N   0  0  0  0  0  0  0  0  0  0  0  0
    2.0658   -1.5551   -0.9486 H   0  0  0  0  0  0  0  0  0  0  0  0
    3.4885   -2.2486    0.4799 C   0  0  0  0  0  0  0  0  0  0  0  0
    3.1247   -3.1443    0.9950 H   0  0  0  0  0  0  0  0  0  0  0  0
    4.1075   -2.5610   -0.3664 H   0  0  0  0  0  0  0  0  0  0  0  0
    4.1159   -1.6748    1.1703 H   0  0  0  0  0  0  0  0  0  0  0  0
  1  2  1  0  0  0  0
  2  3  1  0  0  0  0
  2  4  1  0  0  0  0
  2  5  1  0  0  0  0
  5  6  2  0  0  0  0
  5  7  1  0  0  0  0
  7  8  1  0  0  0  0
  7  9  1  0  0  0  0
  9 10  1  0  0  0  0
  9 11  1  0  0  0  0
  9 16  1  0  0  0  0
 11 12  1  0  0  0  0
 11 13  1  0  0  0  0
 11 14  1  0  0  0  0
 14 15  1  0  0  0  0
 16 17  2  0  0  0  0
 16 18  1  0  0  0  0
 18 19  1  0  0  0  0
 18 20  1  0  0  0  0
 20 21  1  0  0  0  0
 20 22  1  0  0  0  0
 20 23  1  0  0  0  0
M  END
$$$$

  -OEChem-01062216073D

 23 22  0     1  0  0  0  0  0999 V2000
   -2.9839   -3.3439    1.2160 H   0  0  0  0  0  0  0  0  0  0  0  0
   -2.8835   -2.3014    0.9008 C   0  0  0  0  0  0  0  0  0  0  0  0
   -3.2581   -1.6569    1.6994 H   0  0  0  0  0  0  0  0  0  0  0  0
   -3.4839   -2.1453    0.0013 H   0  0  0  0  0  0  0  0  0  0  0  0
   -1.4286   -1.9806    0.6154 C   0  0  0  0  0  0  0  0  0  0  0  0
   -0.6136   -2.8865    0.5948 O   0  0  0  0  0  0  0  0  0  0  0  0
   -1.0854   -0.6966    0.2332 N   0  0  0  0  0  0  0  0  0  0  0  0
   -1.8607   -0.0387    0.2201 H   0  0  0  0  0  0  0  0  0  0  0  0
    0.2545   -0.0757    0.3101 C   0  0  1  0  0  0  0  0  0  0  0  0
    0.5471    0.2192   -0.7017 H   0  0  0  0  0  0  0  0  0  0  0  0
    0.1009    1.1911    1.1629 C   0  0  0  0  0  0  0  0  0  0  0  0
   -0.3129    0.9346    2.1447 H   0  0  0  0  0  0  0  0  0  0  0  0
    1.0841    1.6457    1.3268 H   0  0  0  0  0  0  0  0  0  0  0  0
   -0.9884    2.4035    0.3064 S   0  0  0  0  0  0  0  0  0  0  0  0
   -0.9461    3.4390    1.1743 H   0  0  0  0  0  0  0  0  0  0  0  0
    1.4217   -0.9233    0.8797 C   0  0  0  0  0  0  0  0  0  0  0  0
    1.5153   -1.0973    2.0905 O   0  0  0  0  0  0  0  0  0  0  0  0
    2.5277   -1.1865    0.0909 N   0  0  0  0  0  0  0  0  0  0  0  0
    2.3889   -1.1231   -0.9128 H   0  0  0  0  0  0  0  0  0  0  0  0
    3.6661   -1.9551    0.5804 C   0  0  0  0  0  0  0  0  0  0  0  0
    3.3450   -2.9541    0.8944 H   0  0  0  0  0  0  0  0  0  0  0  0
    4.4173   -2.0632   -0.2077 H   0  0  0  0  0  0  0  0  0  0  0  0
    4.1327   -1.4512    1.4335 H   0  0  0  0  0  0  0  0  0  0  0  0
  1  2  1  0  0  0  0
  2  3  1  0  0  0  0
  2  4  1  0  0  0  0
  2  5  1  0  0  0  0
  5  6  2  0  0  0  0
  5  7  1  0  0  0  0
  7  8  1  0  0  0  0
  7  9  1  0  0  0  0
  9 10  1  0  0  0  0
  9 11  1  0  0  0  0
  9 16  1  0  0  0  0
 11 12  1  0  0  0  0
 11 13  1  0  0  0  0
 11 14  1  0  0  0  0
 14 15  1  0  0  0  0
 16 17  2  0  0  0  0
 16 18  1  0  0  0  0
 18 19  1  0  0  0  0
 18 20  1  0  0  0  0
 20 21  1  0  0  0  0
 20 22  1  0  0  0  0
 20 23  1  0  0  0  0
M  END
$$$$

  -OEChem-01062216073D

 23 22  0     1  0  0  0  0  0999 V2000
   -2.9859   -3.3383    1.2088 H   0  0  0  0  0  0  0  0  0  0  0  0
   -2.8796   -2.2863    0.9289 C   0  0  0  0  0  0  0  0  0  0  0  0
   -3.1851   -1.6664    1.7751 H   0  0  0  0  0  0  0  0  0  0  0  0
   -3.5323   -2.0796    0.0775 H   0  0  0  0  0  0  0  0  0  0  0  0
   -1.4378   -1.9880    0.5633 C   0  0  0  0  0  0  0  0  0  0  0  0
   -0.6480   -2.9097    0.4510 O   0  0  0  0  0  0  0  0  0  0  0  0
   -1.0884   -0.7043    0.1873 N   0  0  0  0  0  0  0  0  0  0  0  0
   -1.8551   -0.0373    0.2216 H   0  0  0  0  0  0  0  0  0  0  0  0
    0.2569   -0.0978    0.2827 C   0  0  1  0  0  0  0  0  0  0  0  0
    0.5598    0.2032   -0.7243 H   0  0  0  0  0  0  0  0  0  0  0  0
    0.1079    1.1573    1.1530 C   0  0  0  0  0  0  0  0  0  0  0  0
   -0.3155    0.8887    2.1273 H   0  0  0  0  0  0  0  0  0  0  0  0
    1.0931    1.6013    1.3320 H   0  0  0  0  0  0  0  0  0  0  0  0
   -0.9638    2.3930    0.3077 S   0  0  0  0  0  0  0  0  0  0  0  0
   -0.9346    3.4091    1.1989 H   0  0  0  0  0  0  0  0  0  0  0  0
    1.4148   -0.9512    0.8621 C   0  0  0  0  0  0  0  0  0  0  0  0
    1.3857   -1.2892    2.0409 O   0  0  0  0  0  0  0  0  0  0  0  0
    2.6419   -0.9602    0.2213 N   0  0  0  0  0  0  0  0  0  0  0  0
    2.6443   -0.7162   -0.7641 H   0  0  0  0  0  0  0  0  0  0  0  0
    3.8078   -1.6455    0.7679 C   0  0  0  0  0  0  0  0  0  0  0  0
    3.5928   -2.7099    0.9117 H   0  0  0  0  0  0  0  0  0  0  0  0
    4.6572   -1.5523    0.0846 H   0  0  0  0  0  0  0  0  0  0  0  0
    4.0930   -1.2108    1.7318 H   0  0  0  0  0  0  0  0  0  0  0  0
  1  2  1  0  0  0  0
  2  3  1  0  0  0  0
  2  4  1  0  0  0  0
  2  5  1  0  0  0  0
  5  6  2  0  0  0  0
  5  7  1  0  0  0  0
  7  8  1  0  0  0  0
  7  9  1  0  0  0  0
  9 10  1  0  0  0  0
  9 11  1  0  0  0  0
  9 16  1  0  0  0  0
 11 12  1  0  0  0  0
 11 13  1  0  0  0  0
 11 14  1  0  0  0  0
 14 15  1  0  0  0  0
 16 17  2  0  0  0  0
 16 18  1  0  0  0  0
 18 19  1  0  0  0  0
 18 20  1  0  0  0  0
 20 21  1  0  0  0  0
 20 22  1  0  0  0  0
 20 23  1  0  0  0  0
M  END
$$$$

  -OEChem-01062216073D

 23 22  0     1  0  0  0  0  0999 V2000
   -2.9873   -3.3258    1.2121 H   0  0  0  0  0  0  0  0  0  0  0  0
   -2.8707   -2.2694    0.9543 C   0  0  0  0  0  0  0  0  0  0  0  0
   -3.1146   -1.6660    1.8319 H   0  0  0  0  0  0  0  0  0  0  0  0
   -3.5630   -2.0245    0.1454 H   0  0  0  0  0  0  0  0  0  0  0  0
   -1.4441   -1.9947    0.5185 C   0  0  0  0  0  0  0  0  0  0  0  0
   -0.6885   -2.9303    0.3186 O   0  0  0  0  0  0  0  0  0  0  0  0
   -1.0850   -0.7129    0.1476 N   0  0  0  0  0  0  0  0  0  0  0  0
   -1.8425   -0.0383    0.2147 H   0  0  0  0  0  0  0  0  0  0  0  0
    0.2662   -0.1218    0.2578 C   0  0  1  0  0  0  0  0  0  0  0  0
    0.5791    0.1837   -0.7446 H   0  0  0  0  0  0  0  0  0  0  0  0
    0.1158    1.1214    1.1448 C   0  0  0  0  0  0  0  0  0  0  0  0
   -0.3180    0.8396    2.1108 H   0  0  0  0  0  0  0  0  0  0  0  0
    1.1006    1.5591    1.3404 H   0  0  0  0  0  0  0  0  0  0  0  0
   -0.9418    2.3765    0.3111 S   0  0  0  0  0  0  0  0  0  0  0  0
   -0.9201    3.3757    1.2218 H   0  0  0  0  0  0  0  0  0  0  0  0
    1.4201   -0.9762    0.8449 C   0  0  0  0  0  0  0  0  0  0  0  0
    1.3004   -1.4758    1.9584 O   0  0  0  0  0  0  0  0  0  0  0  0
    2.7121   -0.7443    0.4031 N   0  0  0  0  0  0  0  0  0  0  0  0
    2.8154   -0.3201   -0.5135 H   0  0  0  0  0  0  0  0  0  0  0  0
    3.8822   -1.3609    1.0187 C   0  0  0  0  0  0  0  0  0  0  0  0
    3.7910   -2.4524    1.0064 H   0  0  0  0  0  0  0  0  0  0  0  0
    4.7881   -1.0827    0.4719 H   0  0  0  0  0  0  0  0  0  0  0  0
    3.9903   -1.0284    2.0566 H   0  0  0  0  0  0  0  0  0  0  0  0
  1  2  1  0  0  0  0
  2  3  1  0  0  0  0
  2  4  1  0  0  0  0
  2  5  1  0  0  0  0
  5  6  2  0  0  0  0
  5  7  1  0  0  0  0
  7  8  1  0  0  0  0
  7  9  1  0  0  0  0
  9 10  1  0  0  0  0
  9 11  1  0  0  0  0
  9 16  1  0  0  0  0
 11 12  1  0  0  0  0
 11 13  1  0  0  0  0
 11 14  1  0  0  0  0
 14 15  1  0  0  0  0
 16 17  2  0  0  0  0
 16 18  1  0  0  0  0
 18 19  1  0  0  0  0
 18 20  1  0  0  0  0
 20 21  1  0  0  0  0
 20 22  1  0  0  0  0
 20 23  1  0  0  0  0
M  END
$$$$

  -OEChem-01062216073D

 23 22  0     1  0  0  0  0  0999 V2000
   -2.9962   -3.3081    1.2217 H   0  0  0  0  0  0  0  0  0  0  0  0
   -2.8647   -2.2505    0.9760 C   0  0  0  0  0  0  0  0  0  0  0  0
   -3.0568   -1.6565    1.8727 H   0  0  0  0  0  0  0  0  0  0  0  0
   -3.5838   -1.9755    0.2008 H   0  0  0  0  0  0  0  0  0  0  0  0
   -1.4509   -2.0025    0.4851 C   0  0  0  0  0  0  0  0  0  0  0  0
   -0.7397   -2.9520    0.2042 O   0  0  0  0  0  0  0  0  0  0  0  0
   -1.0744   -0.7241    0.1211 N   0  0  0  0  0  0  0  0  0  0  0  0
   -1.8213   -0.0410    0.2131 H   0  0  0  0  0  0  0  0  0  0  0  0
    0.2829   -0.1461    0.2398 C   0  0  1  0  0  0  0  0  0  0  0  0
    0.6008    0.1661   -0.7593 H   0  0  0  0  0  0  0  0  0  0  0  0
    0.1206    1.0884    1.1393 C   0  0  0  0  0  0  0  0  0  0  0  0
   -0.3226    0.7937    2.0972 H   0  0  0  0  0  0  0  0  0  0  0  0
    1.0999    1.5299    1.3525 H   0  0  0  0  0  0  0  0  0  0  0  0
   -0.9305    2.3515    0.3094 S   0  0  0  0  0  0  0  0  0  0  0  0
   -0.9279    3.3377    1.2340 H   0  0  0  0  0  0  0  0  0  0  0  0
    1.4433   -0.9945    0.8284 C   0  0  0  0  0  0  0  0  0  0  0  0
    1.2674   -1.6657    1.8382 O   0  0  0  0  0  0  0  0  0  0  0  0
    2.7413   -0.5515    0.6269 N   0  0  0  0  0  0  0  0  0  0  0  0
    2.9050    0.0419   -0.1804 H   0  0  0  0  0  0  0  0  0  0  0  0
    3.8960   -1.1194    1.3156 C   0  0  0  0  0  0  0  0  0  0  0  0
    3.9511   -2.1998    1.1437 H   0  0  0  0  0  0  0  0  0  0  0  0
    4.8193   -0.6628    0.9464 H   0  0  0  0  0  0  0  0  0  0  0  0
    3.8286   -0.9370    2.3933 H   0  0  0  0  0  0  0  0  0  0  0  0
  1  2  1  0  0  0  0
  2  3  1  0  0  0  0
  2  4  1  0  0  0  0
  2  5  1  0  0  0  0
  5  6  2  0  0  0  0
  5  7  1  0  0  0  0
  7  8  1  0  0  0  0
  7  9  1  0  0  0  0
  9 10  1  0  0  0  0
  9 11  1  0  0  0  0
  9 16  1  0  0  0  0
 11 12  1  0  0  0  0
 11 13  1  0  0  0  0
 11 14  1  0  0  0  0
 14 15  1  0  0  0  0
 16 17  2  0  0  0  0
 16 18  1  0  0  0  0
 18 19  1  0  0  0  0
 18 20  1  0  0  0  0
 20 21  1  0  0  0  0
 20 22  1  0  0  0  0
 20 23  1  0  0  0  0
M  END
$$$$

  -OEChem-01062216073D

 23 22  0     1  0  0  0  0  0999 V2000
   -2.8802   -3.4442    1.1854 H   0  0  0  0  0  0  0  0  0  0  0  0
   -2.7381   -2.5130    0.6298 C   0  0  0  0  0  0  0  0  0  0  0  0
   -3.6334   -1.8962    0.7372 H   0  0  0  0  0  0  0  0  0  0  0  0
   -2.5910   -2.7547   -0.4255 H   0  0  0  0  0  0  0  0  0  0  0  0
   -1.5272   -1.7709    1.1625 C   0  0  0  0  0  0  0  0  0  0  0  0
   -1.0220   -2.1172    2.2183 O   0  0  0  0  0  0  0  0  0  0  0  0
   -1.1632   -0.5596    0.6067 N   0  0  0  0  0  0  0  0  0  0  0  0
   -1.7818   -0.2526   -0.1369 H   0  0  0  0  0  0  0  0  0  0  0  0
    0.2250   -0.0499    0.5124 C   0  0  1  0  0  0  0  0  0  0  0  0
    0.3629    0.3672   -0.4894 H   0  0  0  0  0  0  0  0  0  0  0  0
    0.3009    1.0936    1.5375 C   0  0  0  0  0  0  0  0  0  0  0  0
    0.0104    0.7139    2.5240 H   0  0  0  0  0  0  0  0  0  0  0  0
    1.3198    1.4823    1.6178 H   0  0  0  0  0  0  0  0  0  0  0  0
   -0.8150    2.4722    1.0393 S   0  0  0  0  0  0  0  0  0  0  0  0
   -0.7370    3.2706    2.1268 H   0  0  0  0  0  0  0  0  0  0  0  0
    1.4249   -1.0206    0.7218 C   0  0  0  0  0  0  0  0  0  0  0  0
    1.3190   -2.2231    0.5178 O   0  0  0  0  0  0  0  0  0  0  0  0
    2.7132   -0.5143    0.6327 N   0  0  0  0  0  0  0  0  0  0  0  0
    2.8228    0.4943    0.6197 H   0  0  0  0  0  0  0  0  0  0  0  0
    3.9052   -1.3491    0.5184 C   0  0  0  0  0  0  0  0  0  0  0  0
    3.9039   -1.8914   -0.4330 H   0  0  0  0  0  0  0  0  0  0  0  0
    4.8065   -0.7303    0.5630 H   0  0  0  0  0  0  0  0  0  0  0  0
    3.9458   -2.0752    1.3375 H   0  0  0  0  0  0  0  0  0  0  0  0
  1  2  1  0  0  0  0
  2  3  1  0  0  0  0
  2  4  1  0  0  0  0
  2  5  1  0  0  0  0
  5  6  2  0  0  0  0
  5  7  1  0  0  0  0
  7  8  1  0  0  0  0
  7  9  1  0  0  0  0
  9 10  1  0  0  0  0
  9 11  1  0  0  0  0
  9 16  1  0  0  0  0
 11 12  1  0  0  0  0
 11 13  1  0  0  0  0
 11 14  1  0  0  0  0
 14 15  1  0  0  0  0
 16 17  2  0  0  0  0
 16 18  1  0  0  0  0
 18 19  1  0  0  0  0
 18 20  1  0  0  0  0
 20 21  1  0  0  0  0
 20 22  1  0  0  0  0
 20 23  1  0  0  0  0
M  END
$$$$

  -OEChem-01062216073D

 23 22  0     1  0  0  0  0  0999 V2000
   -2.8504   -3.4508    1.1938 H   0  0  0  0  0  0  0  0  0  0  0  0
   -2.7338   -2.5086    0.6511 C   0  0  0  0  0  0  0  0  0  0  0  0
   -3.6203   -1.8919    0.8171 H   0  0  0  0  0  0  0  0  0  0  0  0
   -2.6411   -2.7276   -0.4153 H   0  0  0  0  0  0  0  0  0  0  0  0
   -1.4955   -1.7802    1.1367 C   0  0  0  0  0  0  0  0  0  0  0  0
   -0.9208   -2.1662    2.1427 O   0  0  0  0  0  0  0  0  0  0  0  0
   -1.1620   -0.5546    0.5923 N   0  0  0  0  0  0  0  0  0  0  0  0
   -1.8005   -0.2383   -0.1306 H   0  0  0  0  0  0  0  0  0  0  0  0
    0.2162   -0.0211    0.4922 C   0  0  1  0  0  0  0  0  0  0  0  0
    0.3507    0.4019   -0.5077 H   0  0  0  0  0  0  0  0  0  0  0  0
    0.2751    1.1207    1.5213 C   0  0  0  0  0  0  0  0  0  0  0  0
   -0.0005    0.7341    2.5094 H   0  0  0  0  0  0  0  0  0  0  0  0
    1.2842    1.5341    1.5922 H   0  0  0  0  0  0  0  0  0  0  0  0
   -0.8692    2.4792    1.0319 S   0  0  0  0  0  0  0  0  0  0  0  0
   -0.7961    3.2807    2.1175 H   0  0  0  0  0  0  0  0  0  0  0  0
    1.4040   -1.0097    0.6854 C   0  0  0  0  0  0  0  0  0  0  0  0
    1.3301   -2.1446    0.2289 O   0  0  0  0  0  0  0  0  0  0  0  0
    2.6859   -0.5329    0.9156 N   0  0  0  0  0  0  0  0  0  0  0  0
    2.7856    0.4370    1.1938 H   0  0  0  0  0  0  0  0  0  0  0  0
    3.8754   -1.3778    0.8870 C   0  0  0  0  0  0  0  0  0  0  0  0
    4.0426   -1.7711   -0.1213 H   0  0  0  0  0  0  0  0  0  0  0  0
    4.7566   -0.8011    1.1836 H   0  0  0  0  0  0  0  0  0  0  0  0
    3.7650   -2.2192    1.5795 H   0  0  0  0  0  0  0  0  0  0  0  0
  1  2  1  0  0  0  0
  2  3  1  0  0  0  0
  2  4  1  0  0  0  0
  2  5  1  0  0  0  0
  5  6  2  0  0  0  0
  5  7  1  0  0  0  0
  7  8  1  0  0  0  0
  7  9  1  0  0  0  0
  9 10  1  0  0  0  0
  9 11  1  0  0  0  0
  9 16  1  0  0  0  0
 11 12  1  0  0  0  0
 11 13  1  0  0  0  0
 11 14  1  0  0  0  0
 14 15  1  0  0  0  0
 16 17  2  0  0  0  0
 16 18  1  0  0  0  0
 18 19  1  0  0  0  0
 18 20  1  0  0  0  0
 20 21  1  0  0  0  0
 20 22  1  0  0  0  0
 20 23  1  0  0  0  0
M  END
$$$$

  -OEChem-01062216073D

 23 22  0     1  0  0  0  0  0999 V2000
   -2.8065   -3.4840    1.1635 H   0  0  0  0  0  0  0  0  0  0  0  0
   -2.7272   -2.5144    0.6643 C   0  0  0  0  0  0  0  0  0  0  0  0
   -3.6070   -1.9158    0.9112 H   0  0  0  0  0  0  0  0  0  0  0  0
   -2.6943   -2.6782   -0.4155 H   0  0  0  0  0  0  0  0  0  0  0  0
   -1.4687   -1.7986    1.1155 C   0  0  0  0  0  0  0  0  0  0  0  0
   -0.8361   -2.2284    2.0674 O   0  0  0  0  0  0  0  0  0  0  0  0
   -1.1611   -0.5581    0.5896 N   0  0  0  0  0  0  0  0  0  0  0  0
   -1.8250   -0.2208   -0.1005 H   0  0  0  0  0  0  0  0  0  0  0  0
    0.2047    0.0036    0.4849 C   0  0  1  0  0  0  0  0  0  0  0  0
    0.3278    0.4283   -0.5158 H   0  0  0  0  0  0  0  0  0  0  0  0
    0.2591    1.1516    1.5061 C   0  0  0  0  0  0  0  0  0  0  0  0
    0.0034    0.7703    2.5013 H   0  0  0  0  0  0  0  0  0  0  0  0
    1.2633    1.5813    1.5527 H   0  0  0  0  0  0  0  0  0  0  0  0
   -0.9091    2.4899    1.0170 S   0  0  0  0  0  0  0  0  0  0  0  0
   -0.7985    3.3298    2.0698 H   0  0  0  0  0  0  0  0  0  0  0  0
    1.3913   -0.9895    0.6553 C   0  0  0  0  0  0  0  0  0  0  0  0
    1.3826   -2.0301    0.0073 O   0  0  0  0  0  0  0  0  0  0  0  0
    2.6106   -0.5903    1.1811 N   0  0  0  0  0  0  0  0  0  0  0  0
    2.6240    0.2633    1.7278 H   0  0  0  0  0  0  0  0  0  0  0  0
    3.7764   -1.4657    1.2341 C   0  0  0  0  0  0  0  0  0  0  0  0
    4.0947   -1.7436    0.2238 H   0  0  0  0  0  0  0  0  0  0  0  0
    4.6092   -0.9576    1.7294 H   0  0  0  0  0  0  0  0  0  0  0  0
    3.5450   -2.3781    1.7940 H   0  0  0  0  0  0  0  0  0  0  0  0
  1  2  1  0  0  0  0
  2  3  1  0  0  0  0
  2  4  1  0  0  0  0
  2  5  1  0  0  0  0
  5  6  2  0  0  0  0
  5  7  1  0  0  0  0
  7  8  1  0  0  0  0
  7  9  1  0  0  0  0
  9 10  1  0  0  0  0
  9 11  1  0  0  0  0
  9 16  1  0  0  0  0
 11 12  1  0  0  0  0
 11 13  1  0  0  0  0
 11 14  1  0  0  0  0
 14 15  1  0  0  0  0
 16 17  2  0  0  0  0
 16 18  1  0  0  0  0
 18 19  1  0  0  0  0
 18 20  1  0  0  0  0
 20 21  1  0  0  0  0
 20 22  1  0  0  0  0
 20 23  1  0  0  0  0
M  END
$$$$

  -OEChem-01062216073D

 23 22  0     1  0  0  0  0  0999 V2000
   -2.8103   -3.4808    1.1842 H   0  0  0  0  0  0  0  0  0  0  0  0
   -2.7266   -2.5165    0.6753 C   0  0  0  0  0  0  0  0  0  0  0  0
   -3.5931   -1.9036    0.9345 H   0  0  0  0  0  0  0  0  0  0  0  0
   -2.7181   -2.6899   -0.4034 H   0  0  0  0  0  0  0  0  0  0  0  0
   -1.4486   -1.8152    1.0944 C   0  0  0  0  0  0  0  0  0  0  0  0
   -0.7704   -2.2833    1.9956 O   0  0  0  0  0  0  0  0  0  0  0  0
   -1.1578   -0.5642    0.5827 N   0  0  0  0  0  0  0  0  0  0  0  0
   -1.8414   -0.2091   -0.0789 H   0  0  0  0  0  0  0  0  0  0  0  0
    0.1979    0.0201    0.4774 C   0  0  1  0  0  0  0  0  0  0  0  0
    0.3121    0.4476   -0.5236 H   0  0  0  0  0  0  0  0  0  0  0  0
    0.2519    1.1701    1.4955 C   0  0  0  0  0  0  0  0  0  0  0  0
    0.0088    0.7907    2.4945 H   0  0  0  0  0  0  0  0  0  0  0  0
    1.2557    1.6046    1.5269 H   0  0  0  0  0  0  0  0  0  0  0  0
   -0.9316    2.4978    1.0150 S   0  0  0  0  0  0  0  0  0  0  0  0
   -0.7925    3.3580    2.0478 H   0  0  0  0  0  0  0  0  0  0  0  0
    1.3881   -0.9684    0.6328 C   0  0  0  0  0  0  0  0  0  0  0  0
    1.4733   -1.8988   -0.1606 O   0  0  0  0  0  0  0  0  0  0  0  0
    2.4942   -0.6856    1.4188 N   0  0  0  0  0  0  0  0  0  0  0  0
    2.3721    0.0184    2.1383 H   0  0  0  0  0  0  0  0  0  0  0  0
    3.6232   -1.6012    1.5383 C   0  0  0  0  0  0  0  0  0  0  0  0
    4.1050   -1.7468    0.5657 H   0  0  0  0  0  0  0  0  0  0  0  0
    4.3660   -1.1970    2.2326 H   0  0  0  0  0  0  0  0  0  0  0  0
    3.2889   -2.5738    1.9150 H   0  0  0  0  0  0  0  0  0  0  0  0
  1  2  1  0  0  0  0
  2  3  1  0  0  0  0
  2  4  1  0  0  0  0
  2  5  1  0  0  0  0
  5  6  2  0  0  0  0
  5  7  1  0  0  0  0
  7  8  1  0  0  0  0
  7  9  1  0  0  0  0
  9 10  1  0  0  0  0
  9 11  1  0  0  0  0
  9 16  1  0  0  0  0
 11 12  1  0  0  0  0
 11 13  1  0  0  0  0
 11 14  1  0  0  0  0
 14 15  1  0  0  0  0
 16 17  2  0  0  0  0
 16 18  1  0  0  0  0
 18 19  1  0  0  0  0
 18 20  1  0  0  0  0
 20 21  1  0  0  0  0
 20 22  1  0  0  0  0
 20 23  1  0  0  0  0
M  END
$$$$

  -OEChem-01062216073D

 23 22  0     1  0  0  0  0  0999 V2000
   -2.8180   -3.4916    1.1389 H   0  0  0  0  0  0  0  0  0  0  0  0
   -2.7540   -2.4991    0.6840 C   0  0  0  0  0  0  0  0  0  0  0  0
   -3.5940   -1.8946    1.0343 H   0  0  0  0  0  0  0  0  0  0  0  0
   -2.8171   -2.6068   -0.4015 H   0  0  0  0  0  0  0  0  0  0  0  0
   -1.4432   -1.8355    1.0616 C   0  0  0  0  0  0  0  0  0  0  0  0
   -0.7332   -2.3460    1.9135 O   0  0  0  0  0  0  0  0  0  0  0  0
   -1.1474   -0.5818    0.5598 N   0  0  0  0  0  0  0  0  0  0  0  0
   -1.8460   -0.1964   -0.0688 H   0  0  0  0  0  0  0  0  0  0  0  0
    0.2026    0.0157    0.4665 C   0  0  1  0  0  0  0  0  0  0  0  0
    0.3181    0.4442   -0.5341 H   0  0  0  0  0  0  0  0  0  0  0  0
    0.2504    1.1662    1.4825 C   0  0  0  0  0  0  0  0  0  0  0  0
    0.0044    0.7898    2.4813 H   0  0  0  0  0  0  0  0  0  0  0  0
    1.2562    1.5977    1.5152 H   0  0  0  0  0  0  0  0  0  0  0  0
   -0.9360    2.4889    0.9975 S   0  0  0  0  0  0  0  0  0  0  0  0
   -0.7885    3.3576    2.0219 H   0  0  0  0  0  0  0  0  0  0  0  0
    1.3996   -0.9605    0.6273 C   0  0  0  0  0  0  0  0  0  0  0  0
    1.6205   -1.7559   -0.2781 O   0  0  0  0  0  0  0  0  0  0  0  0
    2.3422   -0.8250    1.6339 N   0  0  0  0  0  0  0  0  0  0  0  0
    2.0469   -0.3002    2.4504 H   0  0  0  0  0  0  0  0  0  0  0  0
    3.4440   -1.7668    1.7931 C   0  0  0  0  0  0  0  0  0  0  0  0
    4.0770   -1.7731    0.8995 H   0  0  0  0  0  0  0  0  0  0  0  0
    4.0629   -1.4839    2.6499 H   0  0  0  0  0  0  0  0  0  0  0  0
    3.0601   -2.7791    1.9600 H   0  0  0  0  0  0  0  0  0  0  0  0
  1  2  1  0  0  0  0
  2  3  1  0  0  0  0
  2  4  1  0  0  0  0
  2  5  1  0  0  0  0
  5  6  2  0  0  0  0
  5  7  1  0  0  0  0
  7  8  1  0  0  0  0
  7  9  1  0  0  0  0
  9 10  1  0  0  0  0
  9 11  1  0  0  0  0
  9 16  1  0  0  0  0
 11 12  1  0  0  0  0
 11 13  1  0  0  0  0
 11 14  1  0  0  0  0
 14 15  1  0  0  0  0
 16 17  2  0  0  0  0
 16 18  1  0  0  0  0
 18 19  1  0  0  0  0
 18 20  1  0  0  0  0
 20 21  1  0  0  0  0
 20 22  1  0  0  0  0
 20 23  1  0  0  0  0
M  END
$$$$

  -OEChem-01062216073D

 23 22  0     1  0  0  0  0  0999 V2000
   -2.8660   -3.4735    1.1336 H   0  0  0  0  0  0  0  0  0  0  0  0
   -2.7916   -2.4760    0.6913 C   0  0  0  0  0  0  0  0  0  0  0  0
   -3.6000   -1.8542    1.0832 H   0  0  0  0  0  0  0  0  0  0  0  0
   -2.9001   -2.5650   -0.3923 H   0  0  0  0  0  0  0  0  0  0  0  0
   -1.4498   -1.8543    1.0288 C   0  0  0  0  0  0  0  0  0  0  0  0
   -0.7192   -2.4041    1.8371 O   0  0  0  0  0  0  0  0  0  0  0  0
   -1.1408   -0.6006    0.5358 N   0  0  0  0  0  0  0  0  0  0  0  0
   -1.8502   -0.1830   -0.0601 H   0  0  0  0  0  0  0  0  0  0  0  0
    0.2074    0.0025    0.4582 C   0  0  1  0  0  0  0  0  0  0  0  0
    0.3270    0.4358   -0.5401 H   0  0  0  0  0  0  0  0  0  0  0  0
    0.2500    1.1488    1.4780 C   0  0  0  0  0  0  0  0  0  0  0  0
   -0.0029    0.7716    2.4746 H   0  0  0  0  0  0  0  0  0  0  0  0
    1.2589    1.5736    1.5185 H   0  0  0  0  0  0  0  0  0  0  0  0
   -0.9334    2.4733    0.9906 S   0  0  0  0  0  0  0  0  0  0  0  0
   -0.7591    3.3596    1.9959 H   0  0  0  0  0  0  0  0  0  0  0  0
    1.4121   -0.9604    0.6286 C   0  0  0  0  0  0  0  0  0  0  0  0
    1.8034   -1.5785   -0.3538 O   0  0  0  0  0  0  0  0  0  0  0  0
    2.1587   -1.0089    1.7942 N   0  0  0  0  0  0  0  0  0  0  0  0
    1.6696   -0.7012    2.6290 H   0  0  0  0  0  0  0  0  0  0  0  0
    3.2469   -1.9636    1.9680 C   0  0  0  0  0  0  0  0  0  0  0  0
    4.0185   -1.8107    1.2061 H   0  0  0  0  0  0  0  0  0  0  0  0
    3.7071   -1.8365    2.9524 H   0  0  0  0  0  0  0  0  0  0  0  0
    2.8714   -2.9895    1.8886 H   0  0  0  0  0  0  0  0  0  0  0  0
  1  2  1  0  0  0  0
  2  3  1  0  0  0  0
  2  4  1  0  0  0  0
  2  5  1  0  0  0  0
  5  6  2  0  0  0  0
  5  7  1  0  0  0  0
  7  8  1  0  0  0  0
  7  9  1  0  0  0  0
  9 10  1  0  0  0  0
  9 11  1  0  0  0  0
  9 16  1  0  0  0  0
 11 12  1  0  0  0  0
 11 13  1  0  0  0  0
 11 14  1  0  0  0  0
 14 15  1  0  0  0  0
 16 17  2  0  0  0  0
 16 18  1  0  0  0  0
 18 19  1  0  0  0  0
 18 20  1  0  0  0  0
 20 21  1  0  0  0  0
 20 22  1  0  0  0  0
 20 23  1  0  0  0  0
M  END
$$$$

  -OEChem-01062216073D

 23 22  0     1  0  0  0  0  0999 V2000
   -2.9629   -3.4309    1.1423 H   0  0  0  0  0  0  0  0  0  0  0  0
   -2.8555   -2.4389    0.6945 C   0  0  0  0  0  0  0  0  0  0  0  0
   -3.6286   -1.7825    1.1012 H   0  0  0  0  0  0  0  0  0  0  0  0
   -2.9913   -2.5263   -0.3862 H   0  0  0  0  0  0  0  0  0  0  0  0
   -1.4818   -1.8730    1.0004 C   0  0  0  0  0  0  0  0  0  0  0  0
   -0.7455   -2.4691    1.7691 O   0  0  0  0  0  0  0  0  0  0  0  0
   -1.1417   -0.6250    0.5146 N   0  0  0  0  0  0  0  0  0  0  0  0
   -1.8587   -0.1628   -0.0379 H   0  0  0  0  0  0  0  0  0  0  0  0
    0.2099   -0.0272    0.4520 C   0  0  1  0  0  0  0  0  0  0  0  0
    0.3354    0.4098   -0.5445 H   0  0  0  0  0  0  0  0  0  0  0  0
    0.2534    1.1141    1.4764 C   0  0  0  0  0  0  0  0  0  0  0  0
   -0.0069    0.7366    2.4708 H   0  0  0  0  0  0  0  0  0  0  0  0
    1.2662    1.5287    1.5251 H   0  0  0  0  0  0  0  0  0  0  0  0
   -0.9185    2.4475    0.9853 S   0  0  0  0  0  0  0  0  0  0  0  0
   -0.7138    3.3474    1.9725 H   0  0  0  0  0  0  0  0  0  0  0  0
    1.4217   -0.9770    0.6354 C   0  0  0  0  0  0  0  0  0  0  0  0
    2.0141   -1.3685   -0.3625 O   0  0  0  0  0  0  0  0  0  0  0  0
    1.9577   -1.2366    1.8849 N   0  0  0  0  0  0  0  0  0  0  0  0
    1.2767   -1.1858    2.6387 H   0  0  0  0  0  0  0  0  0  0  0  0
    3.0664   -2.1670    2.0590 C   0  0  0  0  0  0  0  0  0  0  0  0
    3.9456   -1.8272    1.5015 H   0  0  0  0  0  0  0  0  0  0  0  0
    3.3369   -2.2375    3.1168 H   0  0  0  0  0  0  0  0  0  0  0  0
    2.7878   -3.1649    1.7037 H   0  0  0  0  0  0  0  0  0  0  0  0
  1  2  1  0  0  0  0
  2  3  1  0  0  0  0
  2  4  1  0  0  0  0
  2  5  1  0  0  0  0
  5  6  2  0  0  0  0
  5  7  1  0  0  0  0
  7  8  1  0  0  0  0
  7  9  1  0  0  0  0
  9 10  1  0  0  0  0
  9 11  1  0  0  0  0
  9 16  1  0  0  0  0
 11 12  1  0  0  0  0
 11 13  1  0  0  0  0
 11 14  1  0  0  0  0
 14 15  1  0  0  0  0
 16 17  2  0  0  0  0
 16 18  1  0  0  0  0
 18 19  1  0  0  0  0
 18 20  1  0  0  0  0
 20 21  1  0  0  0  0
 20 22  1  0  0  0  0
 20 23  1  0  0  0  0
M  END
$$$$

  -OEChem-01062216073D

 23 22  0     1  0  0  0  0  0999 V2000
   -3.0990   -3.3789    1.1082 H   0  0  0  0  0  0  0  0  0  0  0  0
   -2.9557   -2.3779    0.6914 C   0  0  0  0  0  0  0  0  0  0  0  0
   -3.6776   -1.6980    1.1502 H   0  0  0  0  0  0  0  0  0  0  0  0
   -3.1353   -2.4180   -0.3857 H   0  0  0  0  0  0  0  0  0  0  0  0
   -1.5438   -1.8956    0.9641 C   0  0  0  0  0  0  0  0  0  0  0  0
   -0.8177   -2.5561    1.6872 O   0  0  0  0  0  0  0  0  0  0  0  0
   -1.1523   -0.6594    0.4876 N   0  0  0  0  0  0  0  0  0  0  0  0
   -1.8705   -0.1418   -0.0127 H   0  0  0  0  0  0  0  0  0  0  0  0
    0.2079   -0.0759    0.4410 C   0  0  1  0  0  0  0  0  0  0  0  0
    0.3394    0.3658   -0.5527 H   0  0  0  0  0  0  0  0  0  0  0  0
    0.2541    1.0559    1.4743 C   0  0  0  0  0  0  0  0  0  0  0  0
   -0.0139    0.6734    2.4647 H   0  0  0  0  0  0  0  0  0  0  0  0
    1.2711    1.4593    1.5328 H   0  0  0  0  0  0  0  0  0  0  0  0
   -0.8995    2.4052    0.9834 S   0  0  0  0  0  0  0  0  0  0  0  0
   -0.6650    3.3108    1.9588 H   0  0  0  0  0  0  0  0  0  0  0  0
    1.4332   -1.0055    0.6389 C   0  0  0  0  0  0  0  0  0  0  0  0
    2.2202   -1.1406   -0.2894 O   0  0  0  0  0  0  0  0  0  0  0  0
    1.7755   -1.4953    1.8863 N   0  0  0  0  0  0  0  0  0  0  0  0
    0.9610   -1.6762    2.4740 H   0  0  0  0  0  0  0  0  0  0  0  0
    2.9276   -2.3677    2.0759 C   0  0  0  0  0  0  0  0  0  0  0  0
    3.8494   -1.8597    1.7731 H   0  0  0  0  0  0  0  0  0  0  0  0
    3.0194   -2.6460    3.1301 H   0  0  0  0  0  0  0  0  0  0  0  0
    2.8171   -3.2816    1.4825 H   0  0  0  0  0  0  0  0  0  0  0  0
  1  2  1  0  0  0  0
  2  3  1  0  0  0  0
  2  4  1  0  0  0  0
  2  5  1  0  0  0  0
  5  6  2  0  0  0  0
  5  7  1  0  0  0  0
  7  8  1  0  0  0  0
  7  9  1  0  0  0  0
  9 10  1  0  0  0  0
  9 11  1  0  0  0  0
  9 16  1  0  0  0  0
 11 12  1  0  0  0  0
 11 13  1  0  0  0  0
 11 14  1  0  0  0  0
 14 15  1  0  0  0  0
 16 17  2  0  0  0  0
 16 18  1  0  0  0  0
 18 19  1  0  0  0  0
 18 20  1  0  0  0  0
 20 21  1  0  0  0  0
 20 22  1  0  0  0  0
 20 23  1  0  0  0  0
M  END
$$$$

  -OEChem-01062216073D

 23 22  0     1  0  0  0  0  0999 V2000
   -3.2605   -3.2984    1.0814 H   0  0  0  0  0  0  0  0  0  0  0  0
   -3.0627   -2.2972    0.6880 C   0  0  0  0  0  0  0  0  0  0  0  0
   -3.7176   -1.5843    1.1945 H   0  0  0  0  0  0  0  0  0  0  0  0
   -3.2856   -2.2917   -0.3817 H   0  0  0  0  0  0  0  0  0  0  0  0
   -1.6113   -1.9205    0.9172 C   0  0  0  0  0  0  0  0  0  0  0  0
   -0.9048   -2.6669    1.5706 O   0  0  0  0  0  0  0  0  0  0  0  0
   -1.1609   -0.6990    0.4541 N   0  0  0  0  0  0  0  0  0  0  0  0
   -1.8759   -0.1230    0.0168 H   0  0  0  0  0  0  0  0  0  0  0  0
    0.2070   -0.1264    0.4286 C   0  0  1  0  0  0  0  0  0  0  0  0
    0.3473    0.3206   -0.5616 H   0  0  0  0  0  0  0  0  0  0  0  0
    0.2358    0.9969    1.4713 C   0  0  0  0  0  0  0  0  0  0  0  0
   -0.0479    0.6057    2.4540 H   0  0  0  0  0  0  0  0  0  0  0  0
    1.2519    1.3990    1.5500 H   0  0  0  0  0  0  0  0  0  0  0  0
   -0.9053    2.3541    0.9716 S   0  0  0  0  0  0  0  0  0  0  0  0
   -0.6740    3.2552    1.9521 H   0  0  0  0  0  0  0  0  0  0  0  0
    1.4564   -1.0208    0.6462 C   0  0  0  0  0  0  0  0  0  0  0  0
    2.3803   -0.9258   -0.1518 O   0  0  0  0  0  0  0  0  0  0  0  0
    1.6577   -1.7466    1.8048 N   0  0  0  0  0  0  0  0  0  0  0  0
    0.7867   -2.0463    2.2489 H   0  0  0  0  0  0  0  0  0  0  0  0
    2.8280   -2.5936    1.9981 C   0  0  0  0  0  0  0  0  0  0  0  0
    3.7464   -1.9998    1.9426 H   0  0  0  0  0  0  0  0  0  0  0  0
    2.7871   -3.0722    2.9813 H   0  0  0  0  0  0  0  0  0  0  0  0
    2.8662   -3.3751    1.2320 H   0  0  0  0  0  0  0  0  0  0  0  0
  1  2  1  0  0  0  0
  2  3  1  0  0  0  0
  2  4  1  0  0  0  0
  2  5  1  0  0  0  0
  5  6  2  0  0  0  0
  5  7  1  0  0  0  0
  7  8  1  0  0  0  0
  7  9  1  0  0  0  0
  9 10  1  0  0  0  0
  9 11  1  0  0  0  0
  9 16  1  0  0  0  0
 11 12  1  0  0  0  0
 11 13  1  0  0  0  0
 11 14  1  0  0  0  0
 14 15  1  0  0  0  0
 16 17  2  0  0  0  0
 16 18  1  0  0  0  0
 18 19  1  0  0  0  0
 18 20  1  0  0  0  0
 20 21  1  0  0  0  0
 20 22  1  0  0  0  0
 20 23  1  0  0  0  0
M  END
$$$$

  -OEChem-01062216073D

 23 22  0     1  0  0  0  0  0999 V2000
   -3.4049   -3.2217    1.0348 H   0  0  0  0  0  0  0  0  0  0  0  0
   -3.1610   -2.2161    0.6802 C   0  0  0  0  0  0  0  0  0  0  0  0
   -3.7639   -1.4917    1.2332 H   0  0  0  0  0  0  0  0  0  0  0  0
   -3.4076   -2.1504   -0.3823 H   0  0  0  0  0  0  0  0  0  0  0  0
   -1.6859   -1.9290    0.8892 C   0  0  0  0  0  0  0  0  0  0  0  0
   -1.0130   -2.7405    1.4971 O   0  0  0  0  0  0  0  0  0  0  0  0
   -1.1802   -0.7255    0.4361 N   0  0  0  0  0  0  0  0  0  0  0  0
   -1.8832   -0.1069    0.0385 H   0  0  0  0  0  0  0  0  0  0  0  0
    0.1982   -0.1724    0.4231 C   0  0  1  0  0  0  0  0  0  0  0  0
    0.3461    0.2753   -0.5656 H   0  0  0  0  0  0  0  0  0  0  0  0
    0.2153    0.9475    1.4699 C   0  0  0  0  0  0  0  0  0  0  0  0
   -0.0856    0.5537    2.4465 H   0  0  0  0  0  0  0  0  0  0  0  0
    1.2315    1.3463    1.5679 H   0  0  0  0  0  0  0  0  0  0  0  0
   -0.9094    2.3122    0.9536 S   0  0  0  0  0  0  0  0  0  0  0  0
   -0.6862    3.2108    1.9383 H   0  0  0  0  0  0  0  0  0  0  0  0
    1.4659   -1.0410    0.6530 C   0  0  0  0  0  0  0  0  0  0  0  0
    2.4677   -0.7611    0.0066 O   0  0  0  0  0  0  0  0  0  0  0  0
    1.5857   -1.9894    1.6492 N   0  0  0  0  0  0  0  0  0  0  0  0
    0.6969   -2.3510    2.0029 H   0  0  0  0  0  0  0  0  0  0  0  0
    2.7727   -2.8177    1.8196 C   0  0  0  0  0  0  0  0  0  0  0  0
    3.6623   -2.1937    1.9555 H   0  0  0  0  0  0  0  0  0  0  0  0
    2.6627   -3.4543    2.7026 H   0  0  0  0  0  0  0  0  0  0  0  0
    2.9213   -3.4582    0.9440 H   0  0  0  0  0  0  0  0  0  0  0  0
  1  2  1  0  0  0  0
  2  3  1  0  0  0  0
  2  4  1  0  0  0  0
  2  5  1  0  0  0  0
  5  6  2  0  0  0  0
  5  7  1  0  0  0  0
  7  8  1  0  0  0  0
  7  9  1  0  0  0  0
  9 10  1  0  0  0  0
  9 11  1  0  0  0  0
  9 16  1  0  0  0  0
 11 12  1  0  0  0  0
 11 13  1  0  0  0  0
 11 14  1  0  0  0  0
 14 15  1  0  0  0  0
 16 17  2  0  0  0  0
 16 18  1  0  0  0  0
 18 19  1  0  0  0  0
 18 20  1  0  0  0  0
 20 21  1  0  0  0  0
 20 22  1  0  0  0  0
 20 23  1  0  0  0  0
M  END
$$$$

  -OEChem-01062216073D

 23 22  0     1  0  0  0  0  0999 V2000
   -2.9437   -3.5798    1.2183 H   0  0  0  0  0  0  0  0  0  0  0  0
   -2.7759   -2.6323    0.6984 C   0  0  0  0  0  0  0  0  0  0  0  0
   -3.5795   -1.9398    0.9606 H   0  0  0  0  0  0  0  0  0  0  0  0
   -2.7971   -2.8151   -0.3785 H   0  0  0  0  0  0  0  0  0  0  0  0
   -1.4355   -2.0453    1.0983 C   0  0  0  0  0  0  0  0  0  0  0  0
   -0.8234   -2.5655    2.0084 O   0  0  0  0  0  0  0  0  0  0  0  0
   -1.0424   -0.8567    0.5180 N   0  0  0  0  0  0  0  0  0  0  0  0
   -1.7554   -0.4403   -0.0751 H   0  0  0  0  0  0  0  0  0  0  0  0
    0.2535   -0.1324    0.5042 C   0  0  1  0  0  0  0  0  0  0  0  0
    0.4067    0.1995   -0.5276 H   0  0  0  0  0  0  0  0  0  0  0  0
    0.0030    1.1065    1.3785 C   0  0  0  0  0  0  0  0  0  0  0  0
   -0.3318    0.7973    2.3747 H   0  0  0  0  0  0  0  0  0  0  0  0
    0.9293    1.6782    1.5018 H   0  0  0  0  0  0  0  0  0  0  0  0
   -1.2531    2.1987    0.5855 S   0  0  0  0  0  0  0  0  0  0  0  0
   -1.2772    3.2276    1.4614 H   0  0  0  0  0  0  0  0  0  0  0  0
    1.6406   -0.7297    0.9021 C   0  0  0  0  0  0  0  0  0  0  0  0
    2.6295   -0.0494    0.6716 O   0  0  0  0  0  0  0  0  0  0  0  0
    1.9511   -1.7194    1.8009 N   0  0  0  0  0  0  0  0  0  0  0  0
    2.8276   -1.4864    2.2586 H   0  0  0  0  0  0  0  0  0  0  0  0
    1.9247   -3.0980    1.3254 C   0  0  0  0  0  0  0  0  0  0  0  0
    2.9196   -3.3947    0.9789 H   0  0  0  0  0  0  0  0  0  0  0  0
    1.6221   -3.7690    2.1357 H   0  0  0  0  0  0  0  0  0  0  0  0
    1.2238   -3.2238    0.4935 H   0  0  0  0  0  0  0  0  0  0  0  0
  1  2  1  0  0  0  0
  2  3  1  0  0  0  0
  2  4  1  0  0  0  0
  2  5  1  0  0  0  0
  5  6  2  0  0  0  0
  5  7  1  0  0  0  0
  7  8  1  0  0  0  0
  7  9  1  0  0  0  0
  9 10  1  0  0  0  0
  9 11  1  0  0  0  0
  9 16  1  0  0  0  0
 11 12  1  0  0  0  0
 11 13  1  0  0  0  0
 11 14  1  0  0  0  0
 14 15  1  0  0  0  0
 16 17  2  0  0  0  0
 16 18  1  0  0  0  0
 18 19  1  0  0  0  0
 18 20  1  0  0  0  0
 20 21  1  0  0  0  0
 20 22  1  0  0  0  0
 20 23  1  0  0  0  0
M  END
$$$$

  -OEChem-01062216073D

 23 22  0     1  0  0  0  0  0999 V2000
   -2.8406   -3.6510    1.2439 H   0  0  0  0  0  0  0  0  0  0  0  0
   -2.7162   -2.6874    0.7418 C   0  0  0  0  0  0  0  0  0  0  0  0
   -3.5437   -2.0331    1.0266 H   0  0  0  0  0  0  0  0  0  0  0  0
   -2.7425   -2.8491   -0.3384 H   0  0  0  0  0  0  0  0  0  0  0  0
   -1.3959   -2.0556    1.1413 C   0  0  0  0  0  0  0  0  0  0  0  0
   -0.7727   -2.5421    2.0640 O   0  0  0  0  0  0  0  0  0  0  0  0
   -1.0451   -0.8458    0.5777 N   0  0  0  0  0  0  0  0  0  0  0  0
   -1.7728   -0.4419   -0.0061 H   0  0  0  0  0  0  0  0  0  0  0  0
    0.2450   -0.1113    0.5367 C   0  0  1  0  0  0  0  0  0  0  0  0
    0.3608    0.2529   -0.4887 H   0  0  0  0  0  0  0  0  0  0  0  0
    0.0053    1.0996    1.4554 C   0  0  0  0  0  0  0  0  0  0  0  0
   -0.2935    0.7561    2.4519 H   0  0  0  0  0  0  0  0  0  0  0  0
    0.9239    1.6851    1.5687 H   0  0  0  0  0  0  0  0  0  0  0  0
   -1.2902    2.1956    0.7334 S   0  0  0  0  0  0  0  0  0  0  0  0
   -1.3094    3.1920    1.6463 H   0  0  0  0  0  0  0  0  0  0  0  0
    1.6490   -0.7182    0.8644 C   0  0  0  0  0  0  0  0  0  0  0  0
    2.6205    0.0216    0.8080 O   0  0  0  0  0  0  0  0  0  0  0  0
    1.9924   -1.8903    1.4916 N   0  0  0  0  0  0  0  0  0  0  0  0
    2.9181   -1.8023    1.9009 H   0  0  0  0  0  0  0  0  0  0  0  0
    1.7688   -3.1580    0.8067 C   0  0  0  0  0  0  0  0  0  0  0  0
    2.6889   -3.4826    0.3110 H   0  0  0  0  0  0  0  0  0  0  0  0
    1.4712   -3.9271    1.5265 H   0  0  0  0  0  0  0  0  0  0  0  0
    0.9862   -3.0729    0.0464 H   0  0  0  0  0  0  0  0  0  0  0  0
  1  2  1  0  0  0  0
  2  3  1  0  0  0  0
  2  4  1  0  0  0  0
  2  5  1  0  0  0  0
  5  6  2  0  0  0  0
  5  7  1  0  0  0  0
  7  8  1  0  0  0  0
  7  9  1  0  0  0  0
  9 10  1  0  0  0  0
  9 11  1  0  0  0  0
  9 16  1  0  0  0  0
 11 12  1  0  0  0  0
 11 13  1  0  0  0  0
 11 14  1  0  0  0  0
 14 15  1  0  0  0  0
 16 17  2  0  0  0  0
 16 18  1  0  0  0  0
 18 19  1  0  0  0  0
 18 20  1  0  0  0  0
 20 21  1  0  0  0  0
 20 22  1  0  0  0  0
 20 23  1  0  0  0  0
M  END
$$$$

  -OEChem-01062216073D

 23 22  0     1  0  0  0  0  0999 V2000
   -3.1733   -3.4784    1.4163 H   0  0  0  0  0  0  0  0  0  0  0  0
   -3.0555   -2.4337    1.1143 C   0  0  0  0  0  0  0  0  0  0  0  0
   -3.5369   -1.7961    1.8597 H   0  0  0  0  0  0  0  0  0  0  0  0
   -3.5469   -2.2906    0.1490 H   0  0  0  0  0  0  0  0  0  0  0  0
   -1.5834   -2.0824    1.0030 C   0  0  0  0  0  0  0  0  0  0  0  0
   -0.7659   -2.9184    1.3252 O   0  0  0  0  0  0  0  0  0  0  0  0
   -1.2486   -0.7887    0.6570 N   0  0  0  0  0  0  0  0  0  0  0  0
   -2.0547   -0.1754    0.5701 H   0  0  0  0  0  0  0  0  0  0  0  0
    0.0379   -0.1445    0.2901 C   0  0  1  0  0  0  0  0  0  0  0  0
   -0.1778    0.4905   -0.5752 H   0  0  0  0  0  0  0  0  0  0  0  0
    0.3748    0.7590    1.4851 C   0  0  0  0  0  0  0  0  0  0  0  0
    0.4165    0.1634    2.4033 H   0  0  0  0  0  0  0  0  0  0  0  0
    1.3577    1.2218    1.3417 H   0  0  0  0  0  0  0  0  0  0  0  0
   -0.8835    2.0964    1.6450 S   0  0  0  0  0  0  0  0  0  0  0  0
   -0.3821    2.7925    2.6893 H   0  0  0  0  0  0  0  0  0  0  0  0
    1.3492   -0.8850   -0.1165 C   0  0  0  0  0  0  0  0  0  0  0  0
    2.1962   -0.2349   -0.7111 O   0  0  0  0  0  0  0  0  0  0  0  0
    1.6083   -2.2285   -0.2228 N   0  0  0  0  0  0  0  0  0  0  0  0
    2.2291   -2.3804   -1.0126 H   0  0  0  0  0  0  0  0  0  0  0  0
    2.0766   -2.9118    0.9781 C   0  0  0  0  0  0  0  0  0  0  0  0
    1.7028   -2.4287    1.8874 H   0  0  0  0  0  0  0  0  0  0  0  0
    1.7348   -3.9517    0.9755 H   0  0  0  0  0  0  0  0  0  0  0  0
    3.1705   -2.9034    1.0139 H   0  0  0  0  0  0  0  0  0  0  0  0
  1  2  1  0  0  0  0
  2  3  1  0  0  0  0
  2  4  1  0  0  0  0
  2  5  1  0  0  0  0
  5  6  2  0  0  0  0
  5  7  1  0  0  0  0
  7  8  1  0  0  0  0
  7  9  1  0  0  0  0
  9 10  1  0  0  0  0
  9 11  1  0  0  0  0
  9 16  1  0  0  0  0
 11 12  1  0  0  0  0
 11 13  1  0  0  0  0
 11 14  1  0  0  0  0
 14 15  1  0  0  0  0
 16 17  2  0  0  0  0
 16 18  1  0  0  0  0
 18 19  1  0  0  0  0
 18 20  1  0  0  0  0
 20 21  1  0  0  0  0
 20 22  1  0  0  0  0
 20 23  1  0  0  0  0
M  END
$$$$

  -OEChem-01062216073D

 23 22  0     1  0  0  0  0  0999 V2000
   -3.4751   -3.1322    1.1399 H   0  0  0  0  0  0  0  0  0  0  0  0
   -3.2132   -2.1366    0.7704 C   0  0  0  0  0  0  0  0  0  0  0  0
   -3.7396   -1.3900    1.3701 H   0  0  0  0  0  0  0  0  0  0  0  0
   -3.5364   -2.0523   -0.2699 H   0  0  0  0  0  0  0  0  0  0  0  0
   -1.7151   -1.9171    0.8678 C   0  0  0  0  0  0  0  0  0  0  0  0
   -1.0283   -2.7880    1.3680 O   0  0  0  0  0  0  0  0  0  0  0  0
   -1.2002   -0.7067    0.4448 N   0  0  0  0  0  0  0  0  0  0  0  0
   -1.9119   -0.0372    0.1607 H   0  0  0  0  0  0  0  0  0  0  0  0
    0.1878   -0.1796    0.3740 C   0  0  1  0  0  0  0  0  0  0  0  0
    0.2944    0.3044   -0.6016 H   0  0  0  0  0  0  0  0  0  0  0  0
    0.2286    0.9062    1.4642 C   0  0  0  0  0  0  0  0  0  0  0  0
   -0.0399    0.4747    2.4345 H   0  0  0  0  0  0  0  0  0  0  0  0
    1.2377    1.3222    1.5548 H   0  0  0  0  0  0  0  0  0  0  0  0
   -0.9189    2.2806    1.0250 S   0  0  0  0  0  0  0  0  0  0  0  0
   -0.6597    3.1512    2.0259 H   0  0  0  0  0  0  0  0  0  0  0  0
    1.4605   -1.0761    0.4817 C   0  0  0  0  0  0  0  0  0  0  0  0
    2.5519   -0.5256    0.5730 O   0  0  0  0  0  0  0  0  0  0  0  0
    1.4643   -2.4512    0.3566 N   0  0  0  0  0  0  0  0  0  0  0  0
    0.5599   -2.9003    0.5098 H   0  0  0  0  0  0  0  0  0  0  0  0
    2.6634   -3.2667    0.5072 C   0  0  0  0  0  0  0  0  0  0  0  0
    3.0952   -3.1343    1.5048 H   0  0  0  0  0  0  0  0  0  0  0  0
    2.4178   -4.3244    0.3726 H   0  0  0  0  0  0  0  0  0  0  0  0
    3.4128   -2.9900   -0.2418 H   0  0  0  0  0  0  0  0  0  0  0  0
  1  2  1  0  0  0  0
  2  3  1  0  0  0  0
  2  4  1  0  0  0  0
  2  5  1  0  0  0  0
  5  6  2  0  0  0  0
  5  7  1  0  0  0  0
  7  8  1  0  0  0  0
  7  9  1  0  0  0  0
  9 10  1  0  0  0  0
  9 11  1  0  0  0  0
  9 16  1  0  0  0  0
 11 12  1  0  0  0  0
 11 13  1  0  0  0  0
 11 14  1  0  0  0  0
 14 15  1  0  0  0  0
 16 17  2  0  0  0  0
 16 18  1  0  0  0  0
 18 19  1  0  0  0  0
 18 20  1  0  0  0  0
 20 21  1  0  0  0  0
 20 22  1  0  0  0  0
 20 23  1  0  0  0  0
M  END
$$$$

  -OEChem-01062216073D

 23 22  0     1  0  0  0  0  0999 V2000
   -3.3632   -3.1796    1.1893 H   0  0  0  0  0  0  0  0  0  0  0  0
   -3.1375   -2.1759    0.8179 C   0  0  0  0  0  0  0  0  0  0  0  0
   -3.6406   -1.4446    1.4552 H   0  0  0  0  0  0  0  0  0  0  0  0
   -3.5190   -2.0843   -0.2020 H   0  0  0  0  0  0  0  0  0  0  0  0
   -1.6399   -1.9344    0.8349 C   0  0  0  0  0  0  0  0  0  0  0  0
   -0.9066   -2.8213    1.2303 O   0  0  0  0  0  0  0  0  0  0  0  0
   -1.1663   -0.7026    0.4255 N   0  0  0  0  0  0  0  0  0  0  0  0
   -1.8982   -0.0297    0.2076 H   0  0  0  0  0  0  0  0  0  0  0  0
    0.2105   -0.1476    0.3672 C   0  0  1  0  0  0  0  0  0  0  0  0
    0.3195    0.3423   -0.6052 H   0  0  0  0  0  0  0  0  0  0  0  0
    0.2287    0.9361    1.4611 C   0  0  0  0  0  0  0  0  0  0  0  0
   -0.0339    0.4977    2.4297 H   0  0  0  0  0  0  0  0  0  0  0  0
    1.2293    1.3714    1.5550 H   0  0  0  0  0  0  0  0  0  0  0  0
   -0.9408    2.2908    1.0195 S   0  0  0  0  0  0  0  0  0  0  0  0
   -0.6987    3.1655    2.0215 H   0  0  0  0  0  0  0  0  0  0  0  0
    1.4764   -1.0529    0.4733 C   0  0  0  0  0  0  0  0  0  0  0  0
    2.5458   -0.5543    0.8063 O   0  0  0  0  0  0  0  0  0  0  0  0
    1.4970   -2.3631    0.0358 N   0  0  0  0  0  0  0  0  0  0  0  0
    0.5844   -2.8203    0.0673 H   0  0  0  0  0  0  0  0  0  0  0  0
    2.6734   -3.2150    0.1607 C   0  0  0  0  0  0  0  0  0  0  0  0
    2.9647   -3.3144    1.2117 H   0  0  0  0  0  0  0  0  0  0  0  0
    2.4594   -4.2118   -0.2366 H   0  0  0  0  0  0  0  0  0  0  0  0
    3.5141   -2.7944   -0.4010 H   0  0  0  0  0  0  0  0  0  0  0  0
  1  2  1  0  0  0  0
  2  3  1  0  0  0  0
  2  4  1  0  0  0  0
  2  5  1  0  0  0  0
  5  6  2  0  0  0  0
  5  7  1  0  0  0  0
  7  8  1  0  0  0  0
  7  9  1  0  0  0  0
  9 10  1  0  0  0  0
  9 11  1  0  0  0  0
  9 16  1  0  0  0  0
 11 12  1  0  0  0  0
 11 13  1  0  0  0  0
 11 14  1  0  0  0  0
 14 15  1  0  0  0  0
 16 17  2  0  0  0  0
 16 18  1  0  0  0  0
 18 19  1  0  0  0  0
 18 20  1  0  0  0  0
 20 21  1  0  0  0  0
 20 22  1  0  0  0  0
 20 23  1  0  0  0  0
M  END
$$$$

  -OEChem-01062216073D

 23 22  0     1  0  0  0  0  0999 V2000
   -3.2355   -3.2309    1.2256 H   0  0  0  0  0  0  0  0  0  0  0  0
   -3.0515   -2.2192    0.8530 C   0  0  0  0  0  0  0  0  0  0  0  0
   -3.5316   -1.5053    1.5267 H   0  0  0  0  0  0  0  0  0  0  0  0
   -3.4931   -2.1251   -0.1420 H   0  0  0  0  0  0  0  0  0  0  0  0
   -1.5604   -1.9480    0.7866 C   0  0  0  0  0  0  0  0  0  0  0  0
   -0.7857   -2.8435    1.0673 O   0  0  0  0  0  0  0  0  0  0  0  0
   -1.1308   -0.6958    0.3902 N   0  0  0  0  0  0  0  0  0  0  0  0
   -1.8805   -0.0235    0.2419 H   0  0  0  0  0  0  0  0  0  0  0  0
    0.2338   -0.1131    0.3601 C   0  0  1  0  0  0  0  0  0  0  0  0
    0.3577    0.3835   -0.6068 H   0  0  0  0  0  0  0  0  0  0  0  0
    0.2245    0.9653    1.4585 C   0  0  0  0  0  0  0  0  0  0  0  0
   -0.0405    0.5191    2.4230 H   0  0  0  0  0  0  0  0  0  0  0  0
    1.2189    1.4132    1.5615 H   0  0  0  0  0  0  0  0  0  0  0  0
   -0.9592    2.3047    1.0097 S   0  0  0  0  0  0  0  0  0  0  0  0
   -0.7437    3.1763    2.0206 H   0  0  0  0  0  0  0  0  0  0  0  0
    1.4871   -1.0308    0.4844 C   0  0  0  0  0  0  0  0  0  0  0  0
    2.4899   -0.6343    1.0684 O   0  0  0  0  0  0  0  0  0  0  0  0
    1.5785   -2.2084   -0.2337 N   0  0  0  0  0  0  0  0  0  0  0  0
    0.6726   -2.6483   -0.3933 H   0  0  0  0  0  0  0  0  0  0  0  0
    2.7299   -3.0959   -0.1227 C   0  0  0  0  0  0  0  0  0  0  0  0
    2.8521   -3.4373    0.9108 H   0  0  0  0  0  0  0  0  0  0  0  0
    2.5929   -3.9718   -0.7640 H   0  0  0  0  0  0  0  0  0  0  0  0
    3.6448   -2.5814   -0.4350 H   0  0  0  0  0  0  0  0  0  0  0  0
  1  2  1  0  0  0  0
  2  3  1  0  0  0  0
  2  4  1  0  0  0  0
  2  5  1  0  0  0  0
  5  6  2  0  0  0  0
  5  7  1  0  0  0  0
  7  8  1  0  0  0  0
  7  9  1  0  0  0  0
  9 10  1  0  0  0  0
  9 11  1  0  0  0  0
  9 16  1  0  0  0  0
 11 12  1  0  0  0  0
 11 13  1  0  0  0  0
 11 14  1  0  0  0  0
 14 15  1  0  0  0  0
 16 17  2  0  0  0  0
 16 18  1  0  0  0  0
 18 19  1  0  0  0  0
 18 20  1  0  0  0  0
 20 21  1  0  0  0  0
 20 22  1  0  0  0  0
 20 23  1  0  0  0  0
M  END
$$$$

  -OEChem-01062216073D

 23 22  0     1  0  0  0  0  0999 V2000
   -3.1134   -3.2795    1.2503 H   0  0  0  0  0  0  0  0  0  0  0  0
   -2.9695   -2.2597    0.8821 C   0  0  0  0  0  0  0  0  0  0  0  0
   -3.4301   -1.5646    1.5883 H   0  0  0  0  0  0  0  0  0  0  0  0
   -3.4618   -2.1631   -0.0886 H   0  0  0  0  0  0  0  0  0  0  0  0
   -1.4893   -1.9561    0.7459 C   0  0  0  0  0  0  0  0  0  0  0  0
   -0.6828   -2.8442    0.9512 O   0  0  0  0  0  0  0  0  0  0  0  0
   -1.1031   -0.6883    0.3528 N   0  0  0  0  0  0  0  0  0  0  0  0
   -1.8688   -0.0243    0.2588 H   0  0  0  0  0  0  0  0  0  0  0  0
    0.2493   -0.0816    0.3470 C   0  0  1  0  0  0  0  0  0  0  0  0
    0.3872    0.4221   -0.6144 H   0  0  0  0  0  0  0  0  0  0  0  0
    0.2202    0.9888    1.4512 C   0  0  0  0  0  0  0  0  0  0  0  0
   -0.0461    0.5334    2.4110 H   0  0  0  0  0  0  0  0  0  0  0  0
    1.2117    1.4417    1.5620 H   0  0  0  0  0  0  0  0  0  0  0  0
   -0.9744    2.3185    1.0047 S   0  0  0  0  0  0  0  0  0  0  0  0
   -0.7839    3.1784    2.0304 H   0  0  0  0  0  0  0  0  0  0  0  0
    1.4903   -1.0080    0.4938 C   0  0  0  0  0  0  0  0  0  0  0  0
    2.3721   -0.7588    1.3094 O   0  0  0  0  0  0  0  0  0  0  0  0
    1.7164   -2.0010   -0.4416 N   0  0  0  0  0  0  0  0  0  0  0  0
    0.8688   -2.3499   -0.8821 H   0  0  0  0  0  0  0  0  0  0  0  0
    2.8352   -2.9284   -0.3240 C   0  0  0  0  0  0  0  0  0  0  0  0
    2.7644   -3.4960    0.6099 H   0  0  0  0  0  0  0  0  0  0  0  0
    2.8301   -3.6333   -1.1607 H   0  0  0  0  0  0  0  0  0  0  0  0
    3.7873   -2.3874   -0.3367 H   0  0  0  0  0  0  0  0  0  0  0  0
  1  2  1  0  0  0  0
  2  3  1  0  0  0  0
  2  4  1  0  0  0  0
  2  5  1  0  0  0  0
  5  6  2  0  0  0  0
  5  7  1  0  0  0  0
  7  8  1  0  0  0  0
  7  9  1  0  0  0  0
  9 10  1  0  0  0  0
  9 11  1  0  0  0  0
  9 16  1  0  0  0  0
 11 12  1  0  0  0  0
 11 13  1  0  0  0  0
 11 14  1  0  0  0  0
 14 15  1  0  0  0  0
 16 17  2  0  0  0  0
 16 18  1  0  0  0  0
 18 19  1  0  0  0  0
 18 20  1  0  0  0  0
 20 21  1  0  0  0  0
 20 22  1  0  0  0  0
 20 23  1  0  0  0  0
M  END
$$$$

  -OEChem-01062216073D

 23 22  0     1  0  0  0  0  0999 V2000
   -3.0407   -3.3074    1.2624 H   0  0  0  0  0  0  0  0  0  0  0  0
   -2.9200   -2.2828    0.8991 C   0  0  0  0  0  0  0  0  0  0  0  0
   -3.3680   -1.5989    1.6241 H   0  0  0  0  0  0  0  0  0  0  0  0
   -3.4406   -2.1845   -0.0564 H   0  0  0  0  0  0  0  0  0  0  0  0
   -1.4480   -1.9606    0.7234 C   0  0  0  0  0  0  0  0  0  0  0  0
   -0.6273   -2.8457    0.8809 O   0  0  0  0  0  0  0  0  0  0  0  0
   -1.0875   -0.6856    0.3272 N   0  0  0  0  0  0  0  0  0  0  0  0
   -1.8614   -0.0278    0.2669 H   0  0  0  0  0  0  0  0  0  0  0  0
    0.2572   -0.0656    0.3376 C   0  0  1  0  0  0  0  0  0  0  0  0
    0.4057    0.4427   -0.6197 H   0  0  0  0  0  0  0  0  0  0  0  0
    0.2169    1.0001    1.4445 C   0  0  0  0  0  0  0  0  0  0  0  0
   -0.0548    0.5390    2.4003 H   0  0  0  0  0  0  0  0  0  0  0  0
    1.2085    1.4507    1.5632 H   0  0  0  0  0  0  0  0  0  0  0  0
   -0.9822    2.3260    0.9985 S   0  0  0  0  0  0  0  0  0  0  0  0
   -0.8206    3.1700    2.0424 H   0  0  0  0  0  0  0  0  0  0  0  0
    1.4895   -0.9961    0.5058 C   0  0  0  0  0  0  0  0  0  0  0  0
    2.2235   -0.9066    1.4847 O   0  0  0  0  0  0  0  0  0  0  0  0
    1.8970   -1.7720   -0.5640 N   0  0  0  0  0  0  0  0  0  0  0  0
    1.1682   -1.9802   -1.2401 H   0  0  0  0  0  0  0  0  0  0  0  0
    3.0040   -2.7139   -0.4541 C   0  0  0  0  0  0  0  0  0  0  0  0
    2.7940   -3.4602    0.3196 H   0  0  0  0  0  0  0  0  0  0  0  0
    3.1546   -3.2326   -1.4055 H   0  0  0  0  0  0  0  0  0  0  0  0
    3.9313   -2.1907   -0.1976 H   0  0  0  0  0  0  0  0  0  0  0  0
  1  2  1  0  0  0  0
  2  3  1  0  0  0  0
  2  4  1  0  0  0  0
  2  5  1  0  0  0  0
  5  6  2  0  0  0  0
  5  7  1  0  0  0  0
  7  8  1  0  0  0  0
  7  9  1  0  0  0  0
  9 10  1  0  0  0  0
  9 11  1  0  0  0  0
  9 16  1  0  0  0  0
 11 12  1  0  0  0  0
 11 13  1  0  0  0  0
 11 14  1  0  0  0  0
 14 15  1  0  0  0  0
 16 17  2  0  0  0  0
 16 18  1  0  0  0  0
 18 19  1  0  0  0  0
 18 20  1  0  0  0  0
 20 21  1  0  0  0  0
 20 22  1  0  0  0  0
 20 23  1  0  0  0  0
M  END
$$$$

  -OEChem-01062216073D

 23 22  0     1  0  0  0  0  0999 V2000
   -3.0286   -3.3097    1.2745 H   0  0  0  0  0  0  0  0  0  0  0  0
   -2.9137   -2.2803    0.9232 C   0  0  0  0  0  0  0  0  0  0  0  0
   -3.3278   -1.6052    1.6759 H   0  0  0  0  0  0  0  0  0  0  0  0
   -3.4702   -2.1621   -0.0096 H   0  0  0  0  0  0  0  0  0  0  0  0
   -1.4468   -1.9667    0.6960 C   0  0  0  0  0  0  0  0  0  0  0  0
   -0.6288   -2.8626    0.7979 O   0  0  0  0  0  0  0  0  0  0  0  0
   -1.0910   -0.6908    0.2978 N   0  0  0  0  0  0  0  0  0  0  0  0
   -1.8634   -0.0292    0.2704 H   0  0  0  0  0  0  0  0  0  0  0  0
    0.2541   -0.0739    0.3230 C   0  0  1  0  0  0  0  0  0  0  0  0
    0.4114    0.4384   -0.6306 H   0  0  0  0  0  0  0  0  0  0  0  0
    0.2129    0.9864    1.4341 C   0  0  0  0  0  0  0  0  0  0  0  0
   -0.0697    0.5221    2.3855 H   0  0  0  0  0  0  0  0  0  0  0  0
    1.2083    1.4264    1.5624 H   0  0  0  0  0  0  0  0  0  0  0  0
   -0.9762    2.3215    0.9899 S   0  0  0  0  0  0  0  0  0  0  0  0
   -0.8283    3.1493    2.0487 H   0  0  0  0  0  0  0  0  0  0  0  0
    1.4822   -1.0054    0.5098 C   0  0  0  0  0  0  0  0  0  0  0  0
    2.0605   -1.0744    1.5897 O   0  0  0  0  0  0  0  0  0  0  0  0
    2.0974   -1.5450   -0.6056 N   0  0  0  0  0  0  0  0  0  0  0  0
    1.5208   -1.6037   -1.4392 H   0  0  0  0  0  0  0  0  0  0  0  0
    3.2379   -2.4469   -0.4987 C   0  0  0  0  0  0  0  0  0  0  0  0
    2.9671   -3.3367    0.0796 H   0  0  0  0  0  0  0  0  0  0  0  0
    3.5643   -2.7647   -1.4935 H   0  0  0  0  0  0  0  0  0  0  0  0
    4.0781   -1.9479   -0.0044 H   0  0  0  0  0  0  0  0  0  0  0  0
  1  2  1  0  0  0  0
  2  3  1  0  0  0  0
  2  4  1  0  0  0  0
  2  5  1  0  0  0  0
  5  6  2  0  0  0  0
  5  7  1  0  0  0  0
  7  8  1  0  0  0  0
  7  9  1  0  0  0  0
  9 10  1  0  0  0  0
  9 11  1  0  0  0  0
  9 16  1  0  0  0  0
 11 12  1  0  0  0  0
 11 13  1  0  0  0  0
 11 14  1  0  0  0  0
 14 15  1  0  0  0  0
 16 17  2  0  0  0  0
 16 18  1  0  0  0  0
 18 19  1  0  0  0  0
 18 20  1  0  0  0  0
 20 21  1  0  0  0  0
 20 22  1  0  0  0  0
 20 23  1  0  0  0  0
M  END
$$$$

  -OEChem-01062216073D

 23 22  0     1  0  0  0  0  0999 V2000
   -3.0392   -3.2914    1.3079 H   0  0  0  0  0  0  0  0  0  0  0  0
   -2.9215   -2.2668    0.9435 C   0  0  0  0  0  0  0  0  0  0  0  0
   -3.2994   -1.5795    1.7044 H   0  0  0  0  0  0  0  0  0  0  0  0
   -3.5080   -2.1480    0.0293 H   0  0  0  0  0  0  0  0  0  0  0  0
   -1.4589   -1.9765    0.6632 C   0  0  0  0  0  0  0  0  0  0  0  0
   -0.6560   -2.8907    0.7051 O   0  0  0  0  0  0  0  0  0  0  0  0
   -1.0971   -0.7015    0.2679 N   0  0  0  0  0  0  0  0  0  0  0  0
   -1.8635   -0.0325    0.2697 H   0  0  0  0  0  0  0  0  0  0  0  0
    0.2514   -0.0939    0.3085 C   0  0  1  0  0  0  0  0  0  0  0  0
    0.4167    0.4245   -0.6404 H   0  0  0  0  0  0  0  0  0  0  0  0
    0.2101    0.9571    1.4272 C   0  0  0  0  0  0  0  0  0  0  0  0
   -0.0850    0.4873    2.3722 H   0  0  0  0  0  0  0  0  0  0  0  0
    1.2083    1.3859    1.5685 H   0  0  0  0  0  0  0  0  0  0  0  0
   -0.9663    2.3032    0.9834 S   0  0  0  0  0  0  0  0  0  0  0  0
   -0.8204    3.1240    2.0478 H   0  0  0  0  0  0  0  0  0  0  0  0
    1.4767   -1.0257    0.5089 C   0  0  0  0  0  0  0  0  0  0  0  0
    1.9041   -1.2569    1.6354 O   0  0  0  0  0  0  0  0  0  0  0  0
    2.2920   -1.3159   -0.5711 N   0  0  0  0  0  0  0  0  0  0  0  0
    1.8767   -1.2021   -1.4904 H   0  0  0  0  0  0  0  0  0  0  0  0
    3.4792   -2.1542   -0.4507 C   0  0  0  0  0  0  0  0  0  0  0  0
    3.2112   -3.1435   -0.0643 H   0  0  0  0  0  0  0  0  0  0  0  0
    3.9540   -2.2803   -1.4285 H   0  0  0  0  0  0  0  0  0  0  0  0
    4.2066   -1.6963    0.2280 H   0  0  0  0  0  0  0  0  0  0  0  0
  1  2  1  0  0  0  0
  2  3  1  0  0  0  0
  2  4  1  0  0  0  0
  2  5  1  0  0  0  0
  5  6  2  0  0  0  0
  5  7  1  0  0  0  0
  7  8  1  0  0  0  0
  7  9  1  0  0  0  0
  9 10  1  0  0  0  0
  9 11  1  0  0  0  0
  9 16  1  0  0  0  0
 11 12  1  0  0  0  0
 11 13  1  0  0  0  0
 11 14  1  0  0  0  0
 14 15  1  0  0  0  0
 16 17  2  0  0  0  0
 16 18  1  0  0  0  0
 18 19  1  0  0  0  0
 18 20  1  0  0  0  0
 20 21  1  0  0  0  0
 20 22  1  0  0  0  0
 20 23  1  0  0  0  0
M  END
$$$$

  -OEChem-01062216073D

 23 22  0     1  0  0  0  0  0999 V2000
   -3.0544   -3.2831    1.3106 H   0  0  0  0  0  0  0  0  0  0  0  0
   -2.9301   -2.2543    0.9606 C   0  0  0  0  0  0  0  0  0  0  0  0
   -3.2668   -1.5740    1.7466 H   0  0  0  0  0  0  0  0  0  0  0  0
   -3.5459   -2.1075    0.0701 H   0  0  0  0  0  0  0  0  0  0  0  0
   -1.4734   -1.9870    0.6329 C   0  0  0  0  0  0  0  0  0  0  0  0
   -0.6929   -2.9207    0.6053 O   0  0  0  0  0  0  0  0  0  0  0  0
   -1.1028   -0.7147    0.2388 N   0  0  0  0  0  0  0  0  0  0  0  0
   -1.8615   -0.0380    0.2691 H   0  0  0  0  0  0  0  0  0  0  0  0
    0.2498   -0.1178    0.2888 C   0  0  1  0  0  0  0  0  0  0  0  0
    0.4191    0.4024   -0.6583 H   0  0  0  0  0  0  0  0  0  0  0  0
    0.2164    0.9252    1.4144 C   0  0  0  0  0  0  0  0  0  0  0  0
   -0.0852    0.4509    2.3550 H   0  0  0  0  0  0  0  0  0  0  0  0
    1.2187    1.3423    1.5613 H   0  0  0  0  0  0  0  0  0  0  0  0
   -0.9460    2.2863    0.9802 S   0  0  0  0  0  0  0  0  0  0  0  0
   -0.7973    3.0951    2.0532 H   0  0  0  0  0  0  0  0  0  0  0  0
    1.4742   -1.0481    0.4987 C   0  0  0  0  0  0  0  0  0  0  0  0
    1.7682   -1.4335    1.6255 O   0  0  0  0  0  0  0  0  0  0  0  0
    2.4613   -1.0929   -0.4707 N   0  0  0  0  0  0  0  0  0  0  0  0
    2.1903   -0.8145   -1.4084 H   0  0  0  0  0  0  0  0  0  0  0  0
    3.6909   -1.8593   -0.3045 C   0  0  0  0  0  0  0  0  0  0  0  0
    3.4616   -2.9141   -0.1184 H   0  0  0  0  0  0  0  0  0  0  0  0
    4.3043   -1.7919   -1.2080 H   0  0  0  0  0  0  0  0  0  0  0  0
    4.2743   -1.4716    0.5373 H   0  0  0  0  0  0  0  0  0  0  0  0
  1  2  1  0  0  0  0
  2  3  1  0  0  0  0
  2  4  1  0  0  0  0
  2  5  1  0  0  0  0
  5  6  2  0  0  0  0
  5  7  1  0  0  0  0
  7  8  1  0  0  0  0
  7  9  1  0  0  0  0
  9 10  1  0  0  0  0
  9 11  1  0  0  0  0
  9 16  1  0  0  0  0
 11 12  1  0  0  0  0
 11 13  1  0  0  0  0
 11 14  1  0  0  0  0
 14 15  1  0  0  0  0
 16 17  2  0  0  0  0
 16 18  1  0  0  0  0
 18 19  1  0  0  0  0
 18 20  1  0  0  0  0
 20 21  1  0  0  0  0
 20 22  1  0  0  0  0
 20 23  1  0  0  0  0
M  END
$$$$

  -OEChem-01062216073D

 23 22  0     1  0  0  0  0  0999 V2000
   -3.0493   -3.2609    1.3529 H   0  0  0  0  0  0  0  0  0  0  0  0
   -2.9278   -2.2343    0.9958 C   0  0  0  0  0  0  0  0  0  0  0  0
   -3.2026   -1.5492    1.8012 H   0  0  0  0  0  0  0  0  0  0  0  0
   -3.5944   -2.0748    0.1450 H   0  0  0  0  0  0  0  0  0  0  0  0
   -1.4890   -1.9944    0.5792 C   0  0  0  0  0  0  0  0  0  0  0  0
   -0.7471   -2.9496    0.4404 O   0  0  0  0  0  0  0  0  0  0  0  0
   -1.1079   -0.7231    0.1925 N   0  0  0  0  0  0  0  0  0  0  0  0
   -1.8543   -0.0367    0.2698 H   0  0  0  0  0  0  0  0  0  0  0  0
    0.2514   -0.1416    0.2569 C   0  0  1  0  0  0  0  0  0  0  0  0
    0.4287    0.3846   -0.6852 H   0  0  0  0  0  0  0  0  0  0  0  0
    0.2231    0.8864    1.3962 C   0  0  0  0  0  0  0  0  0  0  0  0
   -0.0889    0.4028    2.3288 H   0  0  0  0  0  0  0  0  0  0  0  0
    1.2287    1.2909    1.5547 H   0  0  0  0  0  0  0  0  0  0  0  0
   -0.9222    2.2657    0.9754 S   0  0  0  0  0  0  0  0  0  0  0  0
   -0.7758    3.0568    2.0618 H   0  0  0  0  0  0  0  0  0  0  0  0
    1.4738   -1.0727    0.4738 C   0  0  0  0  0  0  0  0  0  0  0  0
    1.6424   -1.6156    1.5603 O   0  0  0  0  0  0  0  0  0  0  0  0
    2.6003   -0.8900   -0.3112 N   0  0  0  0  0  0  0  0  0  0  0  0
    2.4653   -0.4402   -1.2111 H   0  0  0  0  0  0  0  0  0  0  0  0
    3.8569   -1.5900   -0.0670 C   0  0  0  0  0  0  0  0  0  0  0  0
    3.6982   -2.6737   -0.0677 H   0  0  0  0  0  0  0  0  0  0  0  0
    4.5843   -1.3463   -0.8472 H   0  0  0  0  0  0  0  0  0  0  0  0
    4.2781   -1.2966    0.9003 H   0  0  0  0  0  0  0  0  0  0  0  0
  1  2  1  0  0  0  0
  2  3  1  0  0  0  0
  2  4  1  0  0  0  0
  2  5  1  0  0  0  0
  5  6  2  0  0  0  0
  5  7  1  0  0  0  0
  7  8  1  0  0  0  0
  7  9  1  0  0  0  0
  9 10  1  0  0  0  0
  9 11  1  0  0  0  0
  9 16  1  0  0  0  0
 11 12  1  0  0  0  0
 11 13  1  0  0  0  0
 11 14  1  0  0  0  0
 14 15  1  0  0  0  0
 16 17  2  0  0  0  0
 16 18  1  0  0  0  0
 18 19  1  0  0  0  0
 18 20  1  0  0  0  0
 20 21  1  0  0  0  0
 20 22  1  0  0  0  0
 20 23  1  0  0  0  0
M  END
$$$$

  -OEChem-01062216073D

 23 22  0     1  0  0  0  0  0999 V2000
   -3.0163   -3.2474    1.3873 H   0  0  0  0  0  0  0  0  0  0  0  0
   -2.8975   -2.2145    1.0486 C   0  0  0  0  0  0  0  0  0  0  0  0
   -3.0821   -1.5464    1.8931 H   0  0  0  0  0  0  0  0  0  0  0  0
   -3.6296   -2.0131    0.2632 H   0  0  0  0  0  0  0  0  0  0  0  0
   -1.4934   -2.0014    0.5161 C   0  0  0  0  0  0  0  0  0  0  0  0
   -0.8092   -2.9712    0.2447 O   0  0  0  0  0  0  0  0  0  0  0  0
   -1.1056   -0.7318    0.1328 N   0  0  0  0  0  0  0  0  0  0  0  0
   -1.8389   -0.0392    0.2605 H   0  0  0  0  0  0  0  0  0  0  0  0
    0.2583   -0.1629    0.2151 C   0  0  1  0  0  0  0  0  0  0  0  0
    0.4485    0.3662   -0.7228 H   0  0  0  0  0  0  0  0  0  0  0  0
    0.2192    0.8518    1.3660 C   0  0  0  0  0  0  0  0  0  0  0  0
   -0.1065    0.3582    2.2885 H   0  0  0  0  0  0  0  0  0  0  0  0
    1.2234    1.2518    1.5433 H   0  0  0  0  0  0  0  0  0  0  0  0
   -0.9138    2.2415    0.9473 S   0  0  0  0  0  0  0  0  0  0  0  0
   -0.7857    3.0161    2.0482 H   0  0  0  0  0  0  0  0  0  0  0  0
    1.4815   -1.0890    0.4479 C   0  0  0  0  0  0  0  0  0  0  0  0
    1.5369   -1.7931    1.4493 O   0  0  0  0  0  0  0  0  0  0  0  0
    2.7014   -0.7093   -0.0886 N   0  0  0  0  0  0  0  0  0  0  0  0
    2.6797   -0.0884   -0.8914 H   0  0  0  0  0  0  0  0  0  0  0  0
    3.9598   -1.3679    0.2470 C   0  0  0  0  0  0  0  0  0  0  0  0
    3.8858   -2.4470    0.0737 H   0  0  0  0  0  0  0  0  0  0  0  0
    4.7711   -0.9737   -0.3724 H   0  0  0  0  0  0  0  0  0  0  0  0
    4.2136   -1.1970    1.2985 H   0  0  0  0  0  0  0  0  0  0  0  0
  1  2  1  0  0  0  0
  2  3  1  0  0  0  0
  2  4  1  0  0  0  0
  2  5  1  0  0  0  0
  5  6  2  0  0  0  0
  5  7  1  0  0  0  0
  7  8  1  0  0  0  0
  7  9  1  0  0  0  0
  9 10  1  0  0  0  0
  9 11  1  0  0  0  0
  9 16  1  0  0  0  0
 11 12  1  0  0  0  0
 11 13  1  0  0  0  0
 11 14  1  0  0  0  0
 14 15  1  0  0  0  0
 16 17  2  0  0  0  0
 16 18  1  0  0  0  0
 18 19  1  0  0  0  0
 18 20  1  0  0  0  0
 20 21  1  0  0  0  0
 20 22  1  0  0  0  0
 20 23  1  0  0  0  0
M  END
$$$$

  -OEChem-01062216073D

 23 22  0     1  0  0  0  0  0999 V2000
   -2.9134   -3.4381    1.1804 H   0  0  0  0  0  0  0  0  0  0  0  0
   -2.7469   -2.5155    0.6173 C   0  0  0  0  0  0  0  0  0  0  0  0
   -3.6403   -1.8910    0.6888 H   0  0  0  0  0  0  0  0  0  0  0  0
   -2.5692   -2.7723   -0.4295 H   0  0  0  0  0  0  0  0  0  0  0  0
   -1.5480   -1.7753    1.1787 C   0  0  0  0  0  0  0  0  0  0  0  0
   -1.0996   -2.0969    2.2663 O   0  0  0  0  0  0  0  0  0  0  0  0
   -1.1640   -0.5718    0.6209 N   0  0  0  0  0  0  0  0  0  0  0  0
   -1.7795   -0.2627   -0.1243 H   0  0  0  0  0  0  0  0  0  0  0  0
    0.2277   -0.0726    0.5165 C   0  0  1  0  0  0  0  0  0  0  0  0
    0.3458    0.3414   -0.4891 H   0  0  0  0  0  0  0  0  0  0  0  0
    0.3315    1.0728    1.5342 C   0  0  0  0  0  0  0  0  0  0  0  0
    0.0469    0.7016    2.5258 H   0  0  0  0  0  0  0  0  0  0  0  0
    1.3596    1.4416    1.6001 H   0  0  0  0  0  0  0  0  0  0  0  0
   -0.7705    2.4656    1.0446 S   0  0  0  0  0  0  0  0  0  0  0  0
   -0.6697    3.2632    2.1310 H   0  0  0  0  0  0  0  0  0  0  0  0
    1.4508   -1.0165    0.7132 C   0  0  0  0  0  0  0  0  0  0  0  0
    1.3575   -2.2299    0.8257 O   0  0  0  0  0  0  0  0  0  0  0  0
    2.6891   -0.5516    0.2962 N   0  0  0  0  0  0  0  0  0  0  0  0
    2.7650    0.4309    0.0525 H   0  0  0  0  0  0  0  0  0  0  0  0
    3.8753   -1.3947    0.1803 C   0  0  0  0  0  0  0  0  0  0  0  0
    3.7348   -2.1495   -0.6006 H   0  0  0  0  0  0  0  0  0  0  0  0
    4.7478   -0.7873   -0.0786 H   0  0  0  0  0  0  0  0  0  0  0  0
    4.0793   -1.9029    1.1289 H   0  0  0  0  0  0  0  0  0  0  0  0
  1  2  1  0  0  0  0
  2  3  1  0  0  0  0
  2  4  1  0  0  0  0
  2  5  1  0  0  0  0
  5  6  2  0  0  0  0
  5  7  1  0  0  0  0
  7  8  1  0  0  0  0
  7  9  1  0  0  0  0
  9 10  1  0  0  0  0
  9 11  1  0  0  0  0
  9 16  1  0  0  0  0
 11 12  1  0  0  0  0
 11 13  1  0  0  0  0
 11 14  1  0  0  0  0
 14 15  1  0  0  0  0
 16 17  2  0  0  0  0
 16 18  1  0  0  0  0
 18 19  1  0  0  0  0
 18 20  1  0  0  0  0
 20 21  1  0  0  0  0
 20 22  1  0  0  0  0
 20 23  1  0  0  0  0
M  END
$$$$

  -OEChem-01062216073D

 23 22  0     1  0  0  0  0  0999 V2000
   -2.8048   -3.4623    1.2242 H   0  0  0  0  0  0  0  0  0  0  0  0
   -2.7128   -2.5163    0.6832 C   0  0  0  0  0  0  0  0  0  0  0  0
   -3.5884   -1.8991    0.8974 H   0  0  0  0  0  0  0  0  0  0  0  0
   -2.6739   -2.7278   -0.3880 H   0  0  0  0  0  0  0  0  0  0  0  0
   -1.4504   -1.7936    1.1119 C   0  0  0  0  0  0  0  0  0  0  0  0
   -0.8000   -2.2143    2.0565 O   0  0  0  0  0  0  0  0  0  0  0  0
   -1.1435   -0.5622    0.5635 N   0  0  0  0  0  0  0  0  0  0  0  0
   -1.7964   -0.2493   -0.1472 H   0  0  0  0  0  0  0  0  0  0  0  0
    0.2310   -0.0217    0.4615 C   0  0  1  0  0  0  0  0  0  0  0  0
    0.2758    0.6285   -0.4169 H   0  0  0  0  0  0  0  0  0  0  0  0
    0.4527    0.8391    1.7170 C   0  0  0  0  0  0  0  0  0  0  0  0
    0.2715    0.2328    2.6117 H   0  0  0  0  0  0  0  0  0  0  0  0
    1.4836    1.2005    1.7649 H   0  0  0  0  0  0  0  0  0  0  0  0
   -0.6794    2.2921    1.7046 S   0  0  0  0  0  0  0  0  0  0  0  0
   -0.4667    2.7910    2.9424 H   0  0  0  0  0  0  0  0  0  0  0  0
    1.4014   -1.0334    0.2961 C   0  0  0  0  0  0  0  0  0  0  0  0
    1.2091   -2.1604   -0.1447 O   0  0  0  0  0  0  0  0  0  0  0  0
    2.6989   -0.5545    0.2025 N   0  0  0  0  0  0  0  0  0  0  0  0
    2.8576    0.4235    0.4216 H   0  0  0  0  0  0  0  0  0  0  0  0
    3.8358   -1.3777   -0.1969 C   0  0  0  0  0  0  0  0  0  0  0  0
    3.7234   -1.7076   -1.2350 H   0  0  0  0  0  0  0  0  0  0  0  0
    4.7654   -0.8066   -0.1133 H   0  0  0  0  0  0  0  0  0  0  0  0
    3.9153   -2.2605    0.4466 H   0  0  0  0  0  0  0  0  0  0  0  0
  1  2  1  0  0  0  0
  2  3  1  0  0  0  0
  2  4  1  0  0  0  0
  2  5  1  0  0  0  0
  5  6  2  0  0  0  0
  5  7  1  0  0  0  0
  7  8  1  0  0  0  0
  7  9  1  0  0  0  0
  9 10  1  0  0  0  0
  9 11  1  0  0  0  0
  9 16  1  0  0  0  0
 11 12  1  0  0  0  0
 11 13  1  0  0  0  0
 11 14  1  0  0  0  0
 14 15  1  0  0  0  0
 16 17  2  0  0  0  0
 16 18  1  0  0  0  0
 18 19  1  0  0  0  0
 18 20  1  0  0  0  0
 20 21  1  0  0  0  0
 20 22  1  0  0  0  0
 20 23  1  0  0  0  0
M  END
$$$$

  -OEChem-01062216073D

 23 22  0     1  0  0  0  0  0999 V2000
   -2.7724   -3.4703    1.2312 H   0  0  0  0  0  0  0  0  0  0  0  0
   -2.6971   -2.5190    0.6973 C   0  0  0  0  0  0  0  0  0  0  0  0
   -3.5645   -1.9037    0.9474 H   0  0  0  0  0  0  0  0  0  0  0  0
   -2.6947   -2.7192   -0.3767 H   0  0  0  0  0  0  0  0  0  0  0  0
   -1.4201   -1.8013    1.0898 C   0  0  0  0  0  0  0  0  0  0  0  0
   -0.7186   -2.2524    1.9829 O   0  0  0  0  0  0  0  0  0  0  0  0
   -1.1411   -0.5558    0.5578 N   0  0  0  0  0  0  0  0  0  0  0  0
   -1.8128   -0.2313   -0.1303 H   0  0  0  0  0  0  0  0  0  0  0  0
    0.2224    0.0103    0.4543 C   0  0  1  0  0  0  0  0  0  0  0  0
    0.2610    0.6671   -0.4196 H   0  0  0  0  0  0  0  0  0  0  0  0
    0.4292    0.8682    1.7152 C   0  0  0  0  0  0  0  0  0  0  0  0
    0.2649    0.2538    2.6077 H   0  0  0  0  0  0  0  0  0  0  0  0
    1.4498    1.2567    1.7594 H   0  0  0  0  0  0  0  0  0  0  0  0
   -0.7326    2.2977    1.7112 S   0  0  0  0  0  0  0  0  0  0  0  0
   -0.5189    2.8065    2.9445 H   0  0  0  0  0  0  0  0  0  0  0  0
    1.3825   -1.0098    0.2669 C   0  0  0  0  0  0  0  0  0  0  0  0
    1.1965   -2.0310   -0.3857 O   0  0  0  0  0  0  0  0  0  0  0  0
    2.7006   -0.6316    0.4692 N   0  0  0  0  0  0  0  0  0  0  0  0
    2.8716    0.2477    0.9447 H   0  0  0  0  0  0  0  0  0  0  0  0
    3.8375   -1.4881    0.1497 C   0  0  0  0  0  0  0  0  0  0  0  0
    3.8800   -1.6829   -0.9271 H   0  0  0  0  0  0  0  0  0  0  0  0
    4.7721   -1.0050    0.4504 H   0  0  0  0  0  0  0  0  0  0  0  0
    3.7575   -2.4443    0.6779 H   0  0  0  0  0  0  0  0  0  0  0  0
  1  2  1  0  0  0  0
  2  3  1  0  0  0  0
  2  4  1  0  0  0  0
  2  5  1  0  0  0  0
  5  6  2  0  0  0  0
  5  7  1  0  0  0  0
  7  8  1  0  0  0  0
  7  9  1  0  0  0  0
  9 10  1  0  0  0  0
  9 11  1  0  0  0  0
  9 16  1  0  0  0  0
 11 12  1  0  0  0  0
 11 13  1  0  0  0  0
 11 14  1  0  0  0  0
 14 15  1  0  0  0  0
 16 17  2  0  0  0  0
 16 18  1  0  0  0  0
 18 19  1  0  0  0  0
 18 20  1  0  0  0  0
 20 21  1  0  0  0  0
 20 22  1  0  0  0  0
 20 23  1  0  0  0  0
M  END
$$$$

  -OEChem-01062216073D

 23 22  0     1  0  0  0  0  0999 V2000
   -2.7222   -3.4955    1.2109 H   0  0  0  0  0  0  0  0  0  0  0  0
   -2.6729   -2.5313    0.6974 C   0  0  0  0  0  0  0  0  0  0  0  0
   -3.5385   -1.9314    0.9880 H   0  0  0  0  0  0  0  0  0  0  0  0
   -2.7012   -2.7064   -0.3807 H   0  0  0  0  0  0  0  0  0  0  0  0
   -1.3921   -1.8089    1.0685 C   0  0  0  0  0  0  0  0  0  0  0  0
   -0.6539   -2.2795    1.9212 O   0  0  0  0  0  0  0  0  0  0  0  0
   -1.1388   -0.5508    0.5542 N   0  0  0  0  0  0  0  0  0  0  0  0
   -1.8254   -0.2188   -0.1156 H   0  0  0  0  0  0  0  0  0  0  0  0
    0.2132    0.0408    0.4531 C   0  0  1  0  0  0  0  0  0  0  0  0
    0.2418    0.7012   -0.4187 H   0  0  0  0  0  0  0  0  0  0  0  0
    0.4130    0.9007    1.7128 C   0  0  0  0  0  0  0  0  0  0  0  0
    0.2662    0.2845    2.6071 H   0  0  0  0  0  0  0  0  0  0  0  0
    1.4267    1.3093    1.7440 H   0  0  0  0  0  0  0  0  0  0  0  0
   -0.7716    2.3112    1.7149 S   0  0  0  0  0  0  0  0  0  0  0  0
   -0.5302    2.8489    2.9310 H   0  0  0  0  0  0  0  0  0  0  0  0
    1.3699   -0.9783    0.2461 C   0  0  0  0  0  0  0  0  0  0  0  0
    1.2271   -1.8729   -0.5801 O   0  0  0  0  0  0  0  0  0  0  0  0
    2.6513   -0.7440    0.7193 N   0  0  0  0  0  0  0  0  0  0  0  0
    2.7589   -0.0336    1.4347 H   0  0  0  0  0  0  0  0  0  0  0  0
    3.7632   -1.6563    0.4753 C   0  0  0  0  0  0  0  0  0  0  0  0
    3.9625   -1.7404   -0.5983 H   0  0  0  0  0  0  0  0  0  0  0  0
    4.6695   -1.2882    0.9656 H   0  0  0  0  0  0  0  0  0  0  0  0
    3.5352   -2.6521    0.8703 H   0  0  0  0  0  0  0  0  0  0  0  0
  1  2  1  0  0  0  0
  2  3  1  0  0  0  0
  2  4  1  0  0  0  0
  2  5  1  0  0  0  0
  5  6  2  0  0  0  0
  5  7  1  0  0  0  0
  7  8  1  0  0  0  0
  7  9  1  0  0  0  0
  9 10  1  0  0  0  0
  9 11  1  0  0  0  0
  9 16  1  0  0  0  0
 11 12  1  0  0  0  0
 11 13  1  0  0  0  0
 11 14  1  0  0  0  0
 14 15  1  0  0  0  0
 16 17  2  0  0  0  0
 16 18  1  0  0  0  0
 18 19  1  0  0  0  0
 18 20  1  0  0  0  0
 20 21  1  0  0  0  0
 20 22  1  0  0  0  0
 20 23  1  0  0  0  0
M  END
$$$$

  -OEChem-01062216073D

 23 22  0     1  0  0  0  0  0999 V2000
   -2.6798   -3.5291    1.1494 H   0  0  0  0  0  0  0  0  0  0  0  0
   -2.6698   -2.5303    0.7044 C   0  0  0  0  0  0  0  0  0  0  0  0
   -3.5195   -1.9623    1.0903 H   0  0  0  0  0  0  0  0  0  0  0  0
   -2.7653   -2.6289   -0.3796 H   0  0  0  0  0  0  0  0  0  0  0  0
   -1.3738   -1.8212    1.0469 C   0  0  0  0  0  0  0  0  0  0  0  0
   -0.6090   -2.3139    1.8627 O   0  0  0  0  0  0  0  0  0  0  0  0
   -1.1302   -0.5575    0.5425 N   0  0  0  0  0  0  0  0  0  0  0  0
   -1.8311   -0.2091   -0.1043 H   0  0  0  0  0  0  0  0  0  0  0  0
    0.2131    0.0520    0.4481 C   0  0  1  0  0  0  0  0  0  0  0  0
    0.2368    0.7113   -0.4248 H   0  0  0  0  0  0  0  0  0  0  0  0
    0.4057    0.9184    1.7036 C   0  0  0  0  0  0  0  0  0  0  0  0
    0.2664    0.3057    2.6013 H   0  0  0  0  0  0  0  0  0  0  0  0
    1.4171    1.3351    1.7261 H   0  0  0  0  0  0  0  0  0  0  0  0
   -0.7928    2.3170    1.7011 S   0  0  0  0  0  0  0  0  0  0  0  0
   -0.5343    2.8824    2.9007 H   0  0  0  0  0  0  0  0  0  0  0  0
    1.3735   -0.9603    0.2384 C   0  0  0  0  0  0  0  0  0  0  0  0
    1.3140   -1.7212   -0.7208 O   0  0  0  0  0  0  0  0  0  0  0  0
    2.5603   -0.8940    0.9505 N   0  0  0  0  0  0  0  0  0  0  0  0
    2.5384   -0.3676    1.8172 H   0  0  0  0  0  0  0  0  0  0  0  0
    3.6393   -1.8564    0.7603 C   0  0  0  0  0  0  0  0  0  0  0  0
    4.0065   -1.8236   -0.2709 H   0  0  0  0  0  0  0  0  0  0  0  0
    4.4740   -1.6261    1.4292 H   0  0  0  0  0  0  0  0  0  0  0  0
    3.2897   -2.8713    0.9779 H   0  0  0  0  0  0  0  0  0  0  0  0
  1  2  1  0  0  0  0
  2  3  1  0  0  0  0
  2  4  1  0  0  0  0
  2  5  1  0  0  0  0
  5  6  2  0  0  0  0
  5  7  1  0  0  0  0
  7  8  1  0  0  0  0
  7  9  1  0  0  0  0
  9 10  1  0  0  0  0
  9 11  1  0  0  0  0
  9 16  1  0  0  0  0
 11 12  1  0  0  0  0
 11 13  1  0  0  0  0
 11 14  1  0  0  0  0
 14 15  1  0  0  0  0
 16 17  2  0  0  0  0
 16 18  1  0  0  0  0
 18 19  1  0  0  0  0
 18 20  1  0  0  0  0
 20 21  1  0  0  0  0
 20 22  1  0  0  0  0
 20 23  1  0  0  0  0
M  END
$$$$

  -OEChem-01062216073D

 23 22  0     1  0  0  0  0  0999 V2000
   -2.7018   -3.5218    1.1572 H   0  0  0  0  0  0  0  0  0  0  0  0
   -2.6829   -2.5245    0.7089 C   0  0  0  0  0  0  0  0  0  0  0  0
   -3.5192   -1.9432    1.1042 H   0  0  0  0  0  0  0  0  0  0  0  0
   -2.7947   -2.6248   -0.3733 H   0  0  0  0  0  0  0  0  0  0  0  0
   -1.3718   -1.8336    1.0313 C   0  0  0  0  0  0  0  0  0  0  0  0
   -0.5890   -2.3511    1.8138 O   0  0  0  0  0  0  0  0  0  0  0  0
   -1.1240   -0.5681    0.5343 N   0  0  0  0  0  0  0  0  0  0  0  0
   -1.8379   -0.1941   -0.0837 H   0  0  0  0  0  0  0  0  0  0  0  0
    0.2155    0.0500    0.4484 C   0  0  1  0  0  0  0  0  0  0  0  0
    0.2375    0.7082   -0.4257 H   0  0  0  0  0  0  0  0  0  0  0  0
    0.4054    0.9213    1.6995 C   0  0  0  0  0  0  0  0  0  0  0  0
    0.2641    0.3134    2.5999 H   0  0  0  0  0  0  0  0  0  0  0  0
    1.4194    1.3340    1.7189 H   0  0  0  0  0  0  0  0  0  0  0  0
   -0.7964    2.3168    1.6911 S   0  0  0  0  0  0  0  0  0  0  0  0
   -0.5167    2.9071    2.8739 H   0  0  0  0  0  0  0  0  0  0  0  0
    1.3824   -0.9528    0.2416 C   0  0  0  0  0  0  0  0  0  0  0  0
    1.4459   -1.5539   -0.8242 O   0  0  0  0  0  0  0  0  0  0  0  0
    2.4265   -1.0805    1.1430 N   0  0  0  0  0  0  0  0  0  0  0  0
    2.2344   -0.7554    2.0850 H   0  0  0  0  0  0  0  0  0  0  0  0
    3.4771   -2.0773    0.9715 C   0  0  0  0  0  0  0  0  0  0  0  0
    4.0115   -1.9155    0.0293 H   0  0  0  0  0  0  0  0  0  0  0  0
    4.1990   -2.0110    1.7910 H   0  0  0  0  0  0  0  0  0  0  0  0
    3.0499   -3.0857    0.9651 H   0  0  0  0  0  0  0  0  0  0  0  0
  1  2  1  0  0  0  0
  2  3  1  0  0  0  0
  2  4  1  0  0  0  0
  2  5  1  0  0  0  0
  5  6  2  0  0  0  0
  5  7  1  0  0  0  0
  7  8  1  0  0  0  0
  7  9  1  0  0  0  0
  9 10  1  0  0  0  0
  9 11  1  0  0  0  0
  9 16  1  0  0  0  0
 11 12  1  0  0  0  0
 11 13  1  0  0  0  0
 11 14  1  0  0  0  0
 14 15  1  0  0  0  0
 16 17  2  0  0  0  0
 16 18  1  0  0  0  0
 18 19  1  0  0  0  0
 18 20  1  0  0  0  0
 20 21  1  0  0  0  0
 20 22  1  0  0  0  0
 20 23  1  0  0  0  0
M  END
$$$$

  -OEChem-01062216073D

 23 22  0     1  0  0  0  0  0999 V2000
   -2.7648   -3.4969    1.1712 H   0  0  0  0  0  0  0  0  0  0  0  0
   -2.7255   -2.5016    0.7200 C   0  0  0  0  0  0  0  0  0  0  0  0
   -3.5361   -1.8953    1.1312 H   0  0  0  0  0  0  0  0  0  0  0  0
   -2.8628   -2.6003   -0.3595 H   0  0  0  0  0  0  0  0  0  0  0  0
   -1.3889   -1.8481    1.0138 C   0  0  0  0  0  0  0  0  0  0  0  0
   -0.6011   -2.3928    1.7722 O   0  0  0  0  0  0  0  0  0  0  0  0
   -1.1207   -0.5864    0.5187 N   0  0  0  0  0  0  0  0  0  0  0  0
   -1.8442   -0.1796   -0.0669 H   0  0  0  0  0  0  0  0  0  0  0  0
    0.2201    0.0297    0.4423 C   0  0  1  0  0  0  0  0  0  0  0  0
    0.2462    0.6888   -0.4316 H   0  0  0  0  0  0  0  0  0  0  0  0
    0.4097    0.9007    1.6930 C   0  0  0  0  0  0  0  0  0  0  0  0
    0.2632    0.2965    2.5947 H   0  0  0  0  0  0  0  0  0  0  0  0
    1.4276    1.3042    1.7140 H   0  0  0  0  0  0  0  0  0  0  0  0
   -0.7868    2.3007    1.6792 S   0  0  0  0  0  0  0  0  0  0  0  0
   -0.4841    2.9117    2.8458 H   0  0  0  0  0  0  0  0  0  0  0  0
    1.3945   -0.9646    0.2480 C   0  0  0  0  0  0  0  0  0  0  0  0
    1.6310   -1.3717   -0.8827 O   0  0  0  0  0  0  0  0  0  0  0  0
    2.2542   -1.3014    1.2798 N   0  0  0  0  0  0  0  0  0  0  0  0
    1.8529   -1.2050    2.2086 H   0  0  0  0  0  0  0  0  0  0  0  0
    3.3055   -2.2967    1.1077 C   0  0  0  0  0  0  0  0  0  0  0  0
    3.9981   -1.9925    0.3157 H   0  0  0  0  0  0  0  0  0  0  0  0
    3.8741   -2.4094    2.0357 H   0  0  0  0  0  0  0  0  0  0  0  0
    2.8733   -3.2679    0.8438 H   0  0  0  0  0  0  0  0  0  0  0  0
  1  2  1  0  0  0  0
  2  3  1  0  0  0  0
  2  4  1  0  0  0  0
  2  5  1  0  0  0  0
  5  6  2  0  0  0  0
  5  7  1  0  0  0  0
  7  8  1  0  0  0  0
  7  9  1  0  0  0  0
  9 10  1  0  0  0  0
  9 11  1  0  0  0  0
  9 16  1  0  0  0  0
 11 12  1  0  0  0  0
 11 13  1  0  0  0  0
 11 14  1  0  0  0  0
 14 15  1  0  0  0  0
 16 17  2  0  0  0  0
 16 18  1  0  0  0  0
 18 19  1  0  0  0  0
 18 20  1  0  0  0  0
 20 21  1  0  0  0  0
 20 22  1  0  0  0  0
 20 23  1  0  0  0  0
M  END
$$$$

  -OEChem-01062216073D

 23 22  0     1  0  0  0  0  0999 V2000
   -2.8758   -3.4559    1.1770 H   0  0  0  0  0  0  0  0  0  0  0  0
   -2.8050   -2.4578    0.7357 C   0  0  0  0  0  0  0  0  0  0  0  0
   -3.5760   -1.8214    1.1767 H   0  0  0  0  0  0  0  0  0  0  0  0
   -2.9782   -2.5373   -0.3402 H   0  0  0  0  0  0  0  0  0  0  0  0
   -1.4329   -1.8666    0.9965 C   0  0  0  0  0  0  0  0  0  0  0  0
   -0.6520   -2.4515    1.7311 O   0  0  0  0  0  0  0  0  0  0  0  0
   -1.1255   -0.6148    0.5000 N   0  0  0  0  0  0  0  0  0  0  0  0
   -1.8569   -0.1622   -0.0411 H   0  0  0  0  0  0  0  0  0  0  0  0
    0.2216   -0.0099    0.4299 C   0  0  1  0  0  0  0  0  0  0  0  0
    0.2516    0.6499   -0.4435 H   0  0  0  0  0  0  0  0  0  0  0  0
    0.4149    0.8577    1.6811 C   0  0  0  0  0  0  0  0  0  0  0  0
    0.2612    0.2547    2.5822 H   0  0  0  0  0  0  0  0  0  0  0  0
    1.4379    1.2483    1.7052 H   0  0  0  0  0  0  0  0  0  0  0  0
   -0.7686    2.2687    1.6655 S   0  0  0  0  0  0  0  0  0  0  0  0
   -0.4439    2.8894    2.8211 H   0  0  0  0  0  0  0  0  0  0  0  0
    1.4082   -0.9918    0.2521 C   0  0  0  0  0  0  0  0  0  0  0  0
    1.8539   -1.1729   -0.8740 O   0  0  0  0  0  0  0  0  0  0  0  0
    2.0653   -1.5453    1.3365 N   0  0  0  0  0  0  0  0  0  0  0  0
    1.4617   -1.6706    2.1485 H   0  0  0  0  0  0  0  0  0  0  0  0
    3.1497   -2.5046    1.1670 C   0  0  0  0  0  0  0  0  0  0  0  0
    3.9739   -2.0588    0.6002 H   0  0  0  0  0  0  0  0  0  0  0  0
    3.5332   -2.8154    2.1434 H   0  0  0  0  0  0  0  0  0  0  0  0
    2.7951   -3.3928    0.6337 H   0  0  0  0  0  0  0  0  0  0  0  0
  1  2  1  0  0  0  0
  2  3  1  0  0  0  0
  2  4  1  0  0  0  0
  2  5  1  0  0  0  0
  5  6  2  0  0  0  0
  5  7  1  0  0  0  0
  7  8  1  0  0  0  0
  7  9  1  0  0  0  0
  9 10  1  0  0  0  0
  9 11  1  0  0  0  0
  9 16  1  0  0  0  0
 11 12  1  0  0  0  0
 11 13  1  0  0  0  0
 11 14  1  0  0  0  0
 14 15  1  0  0  0  0
 16 17  2  0  0  0  0
 16 18  1  0  0  0  0
 18 19  1  0  0  0  0
 18 20  1  0  0  0  0
 20 21  1  0  0  0  0
 20 22  1  0  0  0  0
 20 23  1  0  0  0  0
M  END
$$$$

  -OEChem-01062216073D

 23 22  0     1  0  0  0  0  0999 V2000
   -3.0295   -3.3944    1.1745 H   0  0  0  0  0  0  0  0  0  0  0  0
   -2.9116   -2.3946    0.7469 C   0  0  0  0  0  0  0  0  0  0  0  0
   -3.6280   -1.7207    1.2230 H   0  0  0  0  0  0  0  0  0  0  0  0
   -3.1236   -2.4447   -0.3239 H   0  0  0  0  0  0  0  0  0  0  0  0
   -1.4985   -1.8921    0.9729 C   0  0  0  0  0  0  0  0  0  0  0  0
   -0.7371   -2.5399    1.6724 O   0  0  0  0  0  0  0  0  0  0  0  0
   -1.1354   -0.6540    0.4803 N   0  0  0  0  0  0  0  0  0  0  0  0
   -1.8718   -0.1421    0.0023 H   0  0  0  0  0  0  0  0  0  0  0  0
    0.2190   -0.0601    0.4157 C   0  0  1  0  0  0  0  0  0  0  0  0
    0.2491    0.6027   -0.4554 H   0  0  0  0  0  0  0  0  0  0  0  0
    0.4104    0.8001    1.6713 C   0  0  0  0  0  0  0  0  0  0  0  0
    0.2529    0.1941    2.5699 H   0  0  0  0  0  0  0  0  0  0  0  0
    1.4352    1.1860    1.7004 H   0  0  0  0  0  0  0  0  0  0  0  0
   -0.7650    2.2184    1.6528 S   0  0  0  0  0  0  0  0  0  0  0  0
   -0.4223    2.8506    2.7968 H   0  0  0  0  0  0  0  0  0  0  0  0
    1.4305   -1.0144    0.2534 C   0  0  0  0  0  0  0  0  0  0  0  0
    2.0683   -0.9765   -0.7910 O   0  0  0  0  0  0  0  0  0  0  0  0
    1.9040   -1.7847    1.2990 N   0  0  0  0  0  0  0  0  0  0  0  0
    1.1759   -2.0413    1.9694 H   0  0  0  0  0  0  0  0  0  0  0  0
    3.0158   -2.7130    1.1363 C   0  0  0  0  0  0  0  0  0  0  0  0
    3.9175   -2.1808    0.8151 H   0  0  0  0  0  0  0  0  0  0  0  0
    3.2315   -3.2121    2.0859 H   0  0  0  0  0  0  0  0  0  0  0  0
    2.7719   -3.4760    0.3896 H   0  0  0  0  0  0  0  0  0  0  0  0
  1  2  1  0  0  0  0
  2  3  1  0  0  0  0
  2  4  1  0  0  0  0
  2  5  1  0  0  0  0
  5  6  2  0  0  0  0
  5  7  1  0  0  0  0
  7  8  1  0  0  0  0
  7  9  1  0  0  0  0
  9 10  1  0  0  0  0
  9 11  1  0  0  0  0
  9 16  1  0  0  0  0
 11 12  1  0  0  0  0
 11 13  1  0  0  0  0
 11 14  1  0  0  0  0
 14 15  1  0  0  0  0
 16 17  2  0  0  0  0
 16 18  1  0  0  0  0
 18 19  1  0  0  0  0
 18 20  1  0  0  0  0
 20 21  1  0  0  0  0
 20 22  1  0  0  0  0
 20 23  1  0  0  0  0
M  END
$$$$

  -OEChem-01062216073D

 23 22  0     1  0  0  0  0  0999 V2000
   -3.1842   -3.3272    1.1599 H   0  0  0  0  0  0  0  0  0  0  0  0
   -3.0190   -2.3262    0.7514 C   0  0  0  0  0  0  0  0  0  0  0  0
   -3.6903   -1.6256    1.2538 H   0  0  0  0  0  0  0  0  0  0  0  0
   -3.2508   -2.3412   -0.3163 H   0  0  0  0  0  0  0  0  0  0  0  0
   -1.5769   -1.9054    0.9632 C   0  0  0  0  0  0  0  0  0  0  0  0
   -0.8482   -2.6068    1.6432 O   0  0  0  0  0  0  0  0  0  0  0  0
   -1.1570   -0.6859    0.4688 N   0  0  0  0  0  0  0  0  0  0  0  0
   -1.8863   -0.1333    0.0261 H   0  0  0  0  0  0  0  0  0  0  0  0
    0.2076   -0.1093    0.4030 C   0  0  1  0  0  0  0  0  0  0  0  0
    0.2377    0.5532   -0.4685 H   0  0  0  0  0  0  0  0  0  0  0  0
    0.3988    0.7465    1.6610 C   0  0  0  0  0  0  0  0  0  0  0  0
    0.2330    0.1386    2.5569 H   0  0  0  0  0  0  0  0  0  0  0  0
    1.4266    1.1247    1.6973 H   0  0  0  0  0  0  0  0  0  0  0  0
   -0.7629    2.1760    1.6394 S   0  0  0  0  0  0  0  0  0  0  0  0
   -0.4101    2.8086    2.7804 H   0  0  0  0  0  0  0  0  0  0  0  0
    1.4437   -1.0363    0.2555 C   0  0  0  0  0  0  0  0  0  0  0  0
    2.2270   -0.8115   -0.6582 O   0  0  0  0  0  0  0  0  0  0  0  0
    1.7745   -2.0110    1.1765 N   0  0  0  0  0  0  0  0  0  0  0  0
    0.9928   -2.3287    1.7553 H   0  0  0  0  0  0  0  0  0  0  0  0
    2.9053   -2.9135    1.0032 C   0  0  0  0  0  0  0  0  0  0  0  0
    3.8379   -2.3477    0.9064 H   0  0  0  0  0  0  0  0  0  0  0  0
    2.9943   -3.5753    1.8699 H   0  0  0  0  0  0  0  0  0  0  0  0
    2.7710   -3.5286    0.1074 H   0  0  0  0  0  0  0  0  0  0  0  0
  1  2  1  0  0  0  0
  2  3  1  0  0  0  0
  2  4  1  0  0  0  0
  2  5  1  0  0  0  0
  5  6  2  0  0  0  0
  5  7  1  0  0  0  0
  7  8  1  0  0  0  0
  7  9  1  0  0  0  0
  9 10  1  0  0  0  0
  9 11  1  0  0  0  0
  9 16  1  0  0  0  0
 11 12  1  0  0  0  0
 11 13  1  0  0  0  0
 11 14  1  0  0  0  0
 14 15  1  0  0  0  0
 16 17  2  0  0  0  0
 16 18  1  0  0  0  0
 18 19  1  0  0  0  0
 18 20  1  0  0  0  0
 20 21  1  0  0  0  0
 20 22  1  0  0  0  0
 20 23  1  0  0  0  0
M  END
$$$$

  -OEChem-01062216073D

 23 22  0     1  0  0  0  0  0999 V2000
   -3.3247   -3.2401    1.1973 H   0  0  0  0  0  0  0  0  0  0  0  0
   -3.1133   -2.2549    0.7717 C   0  0  0  0  0  0  0  0  0  0  0  0
   -3.7419   -1.5138    1.2713 H   0  0  0  0  0  0  0  0  0  0  0  0
   -3.3590   -2.2728   -0.2929 H   0  0  0  0  0  0  0  0  0  0  0  0
   -1.6493   -1.9051    0.9611 C   0  0  0  0  0  0  0  0  0  0  0  0
   -0.9471   -2.6473    1.6242 O   0  0  0  0  0  0  0  0  0  0  0  0
   -1.1853   -0.7021    0.4655 N   0  0  0  0  0  0  0  0  0  0  0  0
   -1.9063   -0.1150    0.0547 H   0  0  0  0  0  0  0  0  0  0  0  0
    0.1906   -0.1499    0.3880 C   0  0  1  0  0  0  0  0  0  0  0  0
    0.2188    0.5147   -0.4822 H   0  0  0  0  0  0  0  0  0  0  0  0
    0.3940    0.6989    1.6485 C   0  0  0  0  0  0  0  0  0  0  0  0
    0.2228    0.0891    2.5422 H   0  0  0  0  0  0  0  0  0  0  0  0
    1.4263    1.0650    1.6843 H   0  0  0  0  0  0  0  0  0  0  0  0
   -0.7483    2.1441    1.6334 S   0  0  0  0  0  0  0  0  0  0  0  0
   -0.3813    2.7687    2.7742 H   0  0  0  0  0  0  0  0  0  0  0  0
    1.4368   -1.0654    0.2351 C   0  0  0  0  0  0  0  0  0  0  0  0
    2.3277   -0.6887   -0.5157 O   0  0  0  0  0  0  0  0  0  0  0  0
    1.6540   -2.2207    0.9580 N   0  0  0  0  0  0  0  0  0  0  0  0
    0.8509   -2.5776    1.4812 H   0  0  0  0  0  0  0  0  0  0  0  0
    2.8116   -3.0867    0.7771 C   0  0  0  0  0  0  0  0  0  0  0  0
    3.7388   -2.5296    0.9475 H   0  0  0  0  0  0  0  0  0  0  0  0
    2.7742   -3.9172    1.4885 H   0  0  0  0  0  0  0  0  0  0  0  0
    2.8280   -3.4974   -0.2378 H   0  0  0  0  0  0  0  0  0  0  0  0
  1  2  1  0  0  0  0
  2  3  1  0  0  0  0
  2  4  1  0  0  0  0
  2  5  1  0  0  0  0
  5  6  2  0  0  0  0
  5  7  1  0  0  0  0
  7  8  1  0  0  0  0
  7  9  1  0  0  0  0
  9 10  1  0  0  0  0
  9 11  1  0  0  0  0
  9 16  1  0  0  0  0
 11 12  1  0  0  0  0
 11 13  1  0  0  0  0
 11 14  1  0  0  0  0
 14 15  1  0  0  0  0
 16 17  2  0  0  0  0
 16 18  1  0  0  0  0
 18 19  1  0  0  0  0
 18 20  1  0  0  0  0
 20 21  1  0  0  0  0
 20 22  1  0  0  0  0
 20 23  1  0  0  0  0
M  END
$$$$

  -OEChem-01062216073D

 23 22  0     1  0  0  0  0  0999 V2000
   -2.6591   -2.8741   -0.4654 H   0  0  0  0  0  0  0  0  0  0  0  0
   -2.6350   -2.7092    0.6144 C   0  0  0  0  0  0  0  0  0  0  0  0
   -3.4737   -2.0687    0.8981 H   0  0  0  0  0  0  0  0  0  0  0  0
   -2.7415   -3.6734    1.1194 H   0  0  0  0  0  0  0  0  0  0  0  0
   -1.3264   -2.0525    1.0110 C   0  0  0  0  0  0  0  0  0  0  0  0
   -0.6767   -2.5308    1.9212 O   0  0  0  0  0  0  0  0  0  0  0  0
   -0.9993   -0.8311    0.4603 N   0  0  0  0  0  0  0  0  0  0  0  0
   -1.7262   -0.4257   -0.1224 H   0  0  0  0  0  0  0  0  0  0  0  0
    0.2866   -0.0922    0.4718 C   0  0  1  0  0  0  0  0  0  0  0  0
    0.3096    0.5080   -0.4430 H   0  0  0  0  0  0  0  0  0  0  0  0
    0.1854    0.8654    1.6699 C   0  0  0  0  0  0  0  0  0  0  0  0
   -0.0110    0.2958    2.5850 H   0  0  0  0  0  0  0  0  0  0  0  0
    1.1312    1.4006    1.8081 H   0  0  0  0  0  0  0  0  0  0  0  0
   -1.1503    2.1039    1.3839 S   0  0  0  0  0  0  0  0  0  0  0  0
   -1.0623    2.8311    2.5195 H   0  0  0  0  0  0  0  0  0  0  0  0
    1.6928   -0.7711    0.5105 C   0  0  0  0  0  0  0  0  0  0  0  0
    2.6644   -0.0544    0.3219 O   0  0  0  0  0  0  0  0  0  0  0  0
    2.0929   -1.9664    1.0578 N   0  0  0  0  0  0  0  0  0  0  0  0
    3.0761   -1.9121    1.3092 H   0  0  0  0  0  0  0  0  0  0  0  0
    1.7229   -3.2191    0.4103 C   0  0  0  0  0  0  0  0  0  0  0  0
    2.5763   -3.6161   -0.1480 H   0  0  0  0  0  0  0  0  0  0  0  0
    1.4252   -3.9586    1.1606 H   0  0  0  0  0  0  0  0  0  0  0  0
    0.8955   -3.0818   -0.2926 H   0  0  0  0  0  0  0  0  0  0  0  0
  1  2  1  0  0  0  0
  2  3  1  0  0  0  0
  2  4  1  0  0  0  0
  2  5  1  0  0  0  0
  5  6  2  0  0  0  0
  5  7  1  0  0  0  0
  7  8  1  0  0  0  0
  7  9  1  0  0  0  0
  9 10  1  0  0  0  0
  9 11  1  0  0  0  0
  9 16  1  0  0  0  0
 11 12  1  0  0  0  0
 11 13  1  0  0  0  0
 11 14  1  0  0  0  0
 14 15  1  0  0  0  0
 16 17  2  0  0  0  0
 16 18  1  0  0  0  0
 18 19  1  0  0  0  0
 18 20  1  0  0  0  0
 20 21  1  0  0  0  0
 20 22  1  0  0  0  0
 20 23  1  0  0  0  0
M  END
$$$$

  -OEChem-01062216073D

 23 22  0     1  0  0  0  0  0999 V2000
   -3.1008   -3.4713    1.2158 H   0  0  0  0  0  0  0  0  0  0  0  0
   -2.9964   -2.4384    0.8714 C   0  0  0  0  0  0  0  0  0  0  0  0
   -3.6269   -1.7957    1.4906 H   0  0  0  0  0  0  0  0  0  0  0  0
   -3.3331   -2.3793   -0.1663 H   0  0  0  0  0  0  0  0  0  0  0  0
   -1.5484   -1.9968    0.9720 C   0  0  0  0  0  0  0  0  0  0  0  0
   -0.7468   -2.7302    1.5163 O   0  0  0  0  0  0  0  0  0  0  0  0
   -1.2222   -0.7044    0.6175 N   0  0  0  0  0  0  0  0  0  0  0  0
   -2.0237   -0.1379    0.3562 H   0  0  0  0  0  0  0  0  0  0  0  0
    0.0937   -0.0999    0.2958 C   0  0  1  0  0  0  0  0  0  0  0  0
   -0.1013    0.7206   -0.4026 H   0  0  0  0  0  0  0  0  0  0  0  0
    0.6164    0.5028    1.6063 C   0  0  0  0  0  0  0  0  0  0  0  0
    0.6632   -0.2721    2.3792 H   0  0  0  0  0  0  0  0  0  0  0  0
    1.6295    0.8931    1.4590 H   0  0  0  0  0  0  0  0  0  0  0  0
   -0.4749    1.8818    2.1570 S   0  0  0  0  0  0  0  0  0  0  0  0
    0.1460    2.2570    3.2968 H   0  0  0  0  0  0  0  0  0  0  0  0
    1.2648   -0.8978   -0.3520 C   0  0  0  0  0  0  0  0  0  0  0  0
    1.9956   -0.2930   -1.1212 O   0  0  0  0  0  0  0  0  0  0  0  0
    1.4385   -2.2545   -0.4804 N   0  0  0  0  0  0  0  0  0  0  0  0
    1.9511   -2.4399   -1.3381 H   0  0  0  0  0  0  0  0  0  0  0  0
    1.9760   -2.9887    0.6599 C   0  0  0  0  0  0  0  0  0  0  0  0
    1.8117   -2.4526    1.6005 H   0  0  0  0  0  0  0  0  0  0  0  0
    1.4994   -3.9714    0.7341 H   0  0  0  0  0  0  0  0  0  0  0  0
    3.0540   -3.1330    0.5373 H   0  0  0  0  0  0  0  0  0  0  0  0
  1  2  1  0  0  0  0
  2  3  1  0  0  0  0
  2  4  1  0  0  0  0
  2  5  1  0  0  0  0
  5  6  2  0  0  0  0
  5  7  1  0  0  0  0
  7  8  1  0  0  0  0
  7  9  1  0  0  0  0
  9 10  1  0  0  0  0
  9 11  1  0  0  0  0
  9 16  1  0  0  0  0
 11 12  1  0  0  0  0
 11 13  1  0  0  0  0
 11 14  1  0  0  0  0
 14 15  1  0  0  0  0
 16 17  2  0  0  0  0
 16 18  1  0  0  0  0
 18 19  1  0  0  0  0
 18 20  1  0  0  0  0
 20 21  1  0  0  0  0
 20 22  1  0  0  0  0
 20 23  1  0  0  0  0
M  END
$$$$

  -OEChem-01062216073D

 23 22  0     1  0  0  0  0  0999 V2000
   -3.3744   -3.1786    1.2597 H   0  0  0  0  0  0  0  0  0  0  0  0
   -3.1626   -2.1841    0.8566 C   0  0  0  0  0  0  0  0  0  0  0  0
   -3.7053   -1.4424    1.4480 H   0  0  0  0  0  0  0  0  0  0  0  0
   -3.5128   -2.1430   -0.1777 H   0  0  0  0  0  0  0  0  0  0  0  0
   -1.6732   -1.9012    0.9120 C   0  0  0  0  0  0  0  0  0  0  0  0
   -0.9344   -2.7176    1.4329 O   0  0  0  0  0  0  0  0  0  0  0  0
   -1.2099   -0.6871    0.4445 N   0  0  0  0  0  0  0  0  0  0  0  0
   -1.9430   -0.0373    0.1718 H   0  0  0  0  0  0  0  0  0  0  0  0
    0.1720   -0.1538    0.3337 C   0  0  1  0  0  0  0  0  0  0  0  0
    0.1836    0.5395   -0.5133 H   0  0  0  0  0  0  0  0  0  0  0  0
    0.4000    0.6481    1.6249 C   0  0  0  0  0  0  0  0  0  0  0  0
    0.2425    0.0049    2.4973 H   0  0  0  0  0  0  0  0  0  0  0  0
    1.4315    1.0155    1.6645 H   0  0  0  0  0  0  0  0  0  0  0  0
   -0.7377    2.0971    1.6793 S   0  0  0  0  0  0  0  0  0  0  0  0
   -0.3361    2.6860    2.8277 H   0  0  0  0  0  0  0  0  0  0  0  0
    1.4064   -1.0731    0.0956 C   0  0  0  0  0  0  0  0  0  0  0  0
    2.4958   -0.5352   -0.0639 O   0  0  0  0  0  0  0  0  0  0  0  0
    1.3519   -2.4467   -0.0351 N   0  0  0  0  0  0  0  0  0  0  0  0
    0.5017   -2.8807    0.3280 H   0  0  0  0  0  0  0  0  0  0  0  0
    2.5365   -3.2831   -0.1837 C   0  0  0  0  0  0  0  0  0  0  0  0
    3.1955   -3.1730    0.6839 H   0  0  0  0  0  0  0  0  0  0  0  0
    2.2462   -4.3348   -0.2680 H   0  0  0  0  0  0  0  0  0  0  0  0
    3.0917   -3.0063   -1.0862 H   0  0  0  0  0  0  0  0  0  0  0  0
  1  2  1  0  0  0  0
  2  3  1  0  0  0  0
  2  4  1  0  0  0  0
  2  5  1  0  0  0  0
  5  6  2  0  0  0  0
  5  7  1  0  0  0  0
  7  8  1  0  0  0  0
  7  9  1  0  0  0  0
  9 10  1  0  0  0  0
  9 11  1  0  0  0  0
  9 16  1  0  0  0  0
 11 12  1  0  0  0  0
 11 13  1  0  0  0  0
 11 14  1  0  0  0  0
 14 15  1  0  0  0  0
 16 17  2  0  0  0  0
 16 18  1  0  0  0  0
 18 19  1  0  0  0  0
 18 20  1  0  0  0  0
 20 21  1  0  0  0  0
 20 22  1  0  0  0  0
 20 23  1  0  0  0  0
M  END
$$$$

  -OEChem-01062216073D

 23 22  0     1  0  0  0  0  0999 V2000
   -3.2971   -3.2018    1.2912 H   0  0  0  0  0  0  0  0  0  0  0  0
   -3.1100   -2.2001    0.8941 C   0  0  0  0  0  0  0  0  0  0  0  0
   -3.6170   -1.4704    1.5302 H   0  0  0  0  0  0  0  0  0  0  0  0
   -3.5208   -2.1404   -0.1167 H   0  0  0  0  0  0  0  0  0  0  0  0
   -1.6198   -1.9170    0.8668 C   0  0  0  0  0  0  0  0  0  0  0  0
   -0.8476   -2.7635    1.2791 O   0  0  0  0  0  0  0  0  0  0  0  0
   -1.1829   -0.6856    0.4186 N   0  0  0  0  0  0  0  0  0  0  0  0
   -1.9275   -0.0195    0.2276 H   0  0  0  0  0  0  0  0  0  0  0  0
    0.1919   -0.1323    0.3284 C   0  0  1  0  0  0  0  0  0  0  0  0
    0.2080    0.5664   -0.5137 H   0  0  0  0  0  0  0  0  0  0  0  0
    0.3888    0.6650    1.6290 C   0  0  0  0  0  0  0  0  0  0  0  0
    0.2300    0.0142    2.4957 H   0  0  0  0  0  0  0  0  0  0  0  0
    1.4118    1.0521    1.6880 H   0  0  0  0  0  0  0  0  0  0  0  0
   -0.7740    2.0944    1.6719 S   0  0  0  0  0  0  0  0  0  0  0  0
   -0.3896    2.6938    2.8208 H   0  0  0  0  0  0  0  0  0  0  0  0
    1.4249   -1.0531    0.0885 C   0  0  0  0  0  0  0  0  0  0  0  0
    2.5456   -0.5606    0.1493 O   0  0  0  0  0  0  0  0  0  0  0  0
    1.3227   -2.3596   -0.3493 N   0  0  0  0  0  0  0  0  0  0  0  0
    0.4396   -2.8094   -0.1043 H   0  0  0  0  0  0  0  0  0  0  0  0
    2.4840   -3.2198   -0.5405 C   0  0  0  0  0  0  0  0  0  0  0  0
    3.0353   -3.3352    0.3986 H   0  0  0  0  0  0  0  0  0  0  0  0
    2.1662   -4.2101   -0.8805 H   0  0  0  0  0  0  0  0  0  0  0  0
    3.1555   -2.7963   -1.2947 H   0  0  0  0  0  0  0  0  0  0  0  0
  1  2  1  0  0  0  0
  2  3  1  0  0  0  0
  2  4  1  0  0  0  0
  2  5  1  0  0  0  0
  5  6  2  0  0  0  0
  5  7  1  0  0  0  0
  7  8  1  0  0  0  0
  7  9  1  0  0  0  0
  9 10  1  0  0  0  0
  9 11  1  0  0  0  0
  9 16  1  0  0  0  0
 11 12  1  0  0  0  0
 11 13  1  0  0  0  0
 11 14  1  0  0  0  0
 14 15  1  0  0  0  0
 16 17  2  0  0  0  0
 16 18  1  0  0  0  0
 18 19  1  0  0  0  0
 18 20  1  0  0  0  0
 20 21  1  0  0  0  0
 20 22  1  0  0  0  0
 20 23  1  0  0  0  0
M  END
$$$$

  -OEChem-01062216073D

 23 22  0     1  0  0  0  0  0999 V2000
   -3.1902   -3.2424    1.3048 H   0  0  0  0  0  0  0  0  0  0  0  0
   -3.0347   -2.2319    0.9161 C   0  0  0  0  0  0  0  0  0  0  0  0
   -3.5152   -1.5190    1.5906 H   0  0  0  0  0  0  0  0  0  0  0  0
   -3.4981   -2.1592   -0.0707 H   0  0  0  0  0  0  0  0  0  0  0  0
   -1.5512   -1.9314    0.8158 C   0  0  0  0  0  0  0  0  0  0  0  0
   -0.7477   -2.7937    1.1206 O   0  0  0  0  0  0  0  0  0  0  0  0
   -1.1493   -0.6811    0.3870 N   0  0  0  0  0  0  0  0  0  0  0  0
   -1.9066   -0.0121    0.2690 H   0  0  0  0  0  0  0  0  0  0  0  0
    0.2159   -0.1026    0.3255 C   0  0  1  0  0  0  0  0  0  0  0  0
    0.2411    0.6017   -0.5116 H   0  0  0  0  0  0  0  0  0  0  0  0
    0.3795    0.6890    1.6350 C   0  0  0  0  0  0  0  0  0  0  0  0
    0.2220    0.0299    2.4952 H   0  0  0  0  0  0  0  0  0  0  0  0
    1.3935    1.0963    1.7105 H   0  0  0  0  0  0  0  0  0  0  0  0
   -0.8092    2.0970    1.6676 S   0  0  0  0  0  0  0  0  0  0  0  0
   -0.4523    2.6980    2.8246 H   0  0  0  0  0  0  0  0  0  0  0  0
    1.4432   -1.0316    0.0920 C   0  0  0  0  0  0  0  0  0  0  0  0
    2.5664   -0.6415    0.3905 O   0  0  0  0  0  0  0  0  0  0  0  0
    1.3348   -2.2009   -0.6373 N   0  0  0  0  0  0  0  0  0  0  0  0
    0.4140   -2.6324   -0.5673 H   0  0  0  0  0  0  0  0  0  0  0  0
    2.4695   -3.0907   -0.8519 C   0  0  0  0  0  0  0  0  0  0  0  0
    2.8631   -3.4480    0.1056 H   0  0  0  0  0  0  0  0  0  0  0  0
    2.1617   -3.9567   -1.4457 H   0  0  0  0  0  0  0  0  0  0  0  0
    3.2690   -2.5713   -1.3907 H   0  0  0  0  0  0  0  0  0  0  0  0
  1  2  1  0  0  0  0
  2  3  1  0  0  0  0
  2  4  1  0  0  0  0
  2  5  1  0  0  0  0
  5  6  2  0  0  0  0
  5  7  1  0  0  0  0
  7  8  1  0  0  0  0
  7  9  1  0  0  0  0
  9 10  1  0  0  0  0
  9 11  1  0  0  0  0
  9 16  1  0  0  0  0
 11 12  1  0  0  0  0
 11 13  1  0  0  0  0
 11 14  1  0  0  0  0
 14 15  1  0  0  0  0
 16 17  2  0  0  0  0
 16 18  1  0  0  0  0
 18 19  1  0  0  0  0
 18 20  1  0  0  0  0
 20 21  1  0  0  0  0
 20 22  1  0  0  0  0
 20 23  1  0  0  0  0
M  END
$$$$

  -OEChem-01062216073D

 23 22  0     1  0  0  0  0  0999 V2000
   -3.0720   -3.2915    1.3065 H   0  0  0  0  0  0  0  0  0  0  0  0
   -2.9518   -2.2730    0.9266 C   0  0  0  0  0  0  0  0  0  0  0  0
   -3.4215   -1.5798    1.6286 H   0  0  0  0  0  0  0  0  0  0  0  0
   -3.4528   -2.1964   -0.0414 H   0  0  0  0  0  0  0  0  0  0  0  0
   -1.4794   -1.9407    0.7764 C   0  0  0  0  0  0  0  0  0  0  0  0
   -0.6480   -2.7951    1.0220 O   0  0  0  0  0  0  0  0  0  0  0  0
   -1.1187   -0.6738    0.3586 N   0  0  0  0  0  0  0  0  0  0  0  0
   -1.8895   -0.0127    0.2966 H   0  0  0  0  0  0  0  0  0  0  0  0
    0.2346   -0.0705    0.3222 C   0  0  1  0  0  0  0  0  0  0  0  0
    0.2671    0.6390   -0.5101 H   0  0  0  0  0  0  0  0  0  0  0  0
    0.3725    0.7158    1.6371 C   0  0  0  0  0  0  0  0  0  0  0  0
    0.2180    0.0486    2.4919 H   0  0  0  0  0  0  0  0  0  0  0  0
    1.3797    1.1377    1.7223 H   0  0  0  0  0  0  0  0  0  0  0  0
   -0.8379    2.1047    1.6670 S   0  0  0  0  0  0  0  0  0  0  0  0
   -0.5040    2.6967    2.8356 H   0  0  0  0  0  0  0  0  0  0  0  0
    1.4554   -1.0078    0.0982 C   0  0  0  0  0  0  0  0  0  0  0  0
    2.5322   -0.7743    0.6364 O   0  0  0  0  0  0  0  0  0  0  0  0
    1.4068   -1.9845   -0.8797 N   0  0  0  0  0  0  0  0  0  0  0  0
    0.4675   -2.3124   -1.0884 H   0  0  0  0  0  0  0  0  0  0  0  0
    2.5061   -2.9174   -1.0959 C   0  0  0  0  0  0  0  0  0  0  0  0
    2.6915   -3.5058   -0.1911 H   0  0  0  0  0  0  0  0  0  0  0  0
    2.2636   -3.6034   -1.9128 H   0  0  0  0  0  0  0  0  0  0  0  0
    3.4223   -2.3789   -1.3604 H   0  0  0  0  0  0  0  0  0  0  0  0
  1  2  1  0  0  0  0
  2  3  1  0  0  0  0
  2  4  1  0  0  0  0
  2  5  1  0  0  0  0
  5  6  2  0  0  0  0
  5  7  1  0  0  0  0
  7  8  1  0  0  0  0
  7  9  1  0  0  0  0
  9 10  1  0  0  0  0
  9 11  1  0  0  0  0
  9 16  1  0  0  0  0
 11 12  1  0  0  0  0
 11 13  1  0  0  0  0
 11 14  1  0  0  0  0
 14 15  1  0  0  0  0
 16 17  2  0  0  0  0
 16 18  1  0  0  0  0
 18 19  1  0  0  0  0
 18 20  1  0  0  0  0
 20 21  1  0  0  0  0
 20 22  1  0  0  0  0
 20 23  1  0  0  0  0
M  END
$$$$

  -OEChem-01062216073D

 23 22  0     1  0  0  0  0  0999 V2000
   -2.9962   -3.3251    1.2996 H   0  0  0  0  0  0  0  0  0  0  0  0
   -2.8964   -2.3011    0.9283 C   0  0  0  0  0  0  0  0  0  0  0  0
   -3.3631   -1.6217    1.6457 H   0  0  0  0  0  0  0  0  0  0  0  0
   -3.4151   -2.2221   -0.0300 H   0  0  0  0  0  0  0  0  0  0  0  0
   -1.4313   -1.9476    0.7561 C   0  0  0  0  0  0  0  0  0  0  0  0
   -0.5860   -2.7953    0.9754 O   0  0  0  0  0  0  0  0  0  0  0  0
   -1.0961   -0.6722    0.3403 N   0  0  0  0  0  0  0  0  0  0  0  0
   -1.8764   -0.0209    0.3015 H   0  0  0  0  0  0  0  0  0  0  0  0
    0.2483   -0.0516    0.3224 C   0  0  1  0  0  0  0  0  0  0  0  0
    0.2881    0.6598   -0.5079 H   0  0  0  0  0  0  0  0  0  0  0  0
    0.3692    0.7341    1.6384 C   0  0  0  0  0  0  0  0  0  0  0  0
    0.2151    0.0643    2.4913 H   0  0  0  0  0  0  0  0  0  0  0  0
    1.3737    1.1619    1.7296 H   0  0  0  0  0  0  0  0  0  0  0  0
   -0.8556    2.1107    1.6607 S   0  0  0  0  0  0  0  0  0  0  0  0
   -0.5535    2.6912    2.8436 H   0  0  0  0  0  0  0  0  0  0  0  0
    1.4644   -0.9951    0.1139 C   0  0  0  0  0  0  0  0  0  0  0  0
    2.4480   -0.9398    0.8444 O   0  0  0  0  0  0  0  0  0  0  0  0
    1.5400   -1.7466   -1.0447 N   0  0  0  0  0  0  0  0  0  0  0  0
    0.6514   -1.9107   -1.5077 H   0  0  0  0  0  0  0  0  0  0  0  0
    2.6164   -2.7013   -1.2789 C   0  0  0  0  0  0  0  0  0  0  0  0
    2.6241   -3.4668   -0.4955 H   0  0  0  0  0  0  0  0  0  0  0  0
    2.4806   -3.1946   -2.2460 H   0  0  0  0  0  0  0  0  0  0  0  0
    3.5867   -2.1936   -1.2852 H   0  0  0  0  0  0  0  0  0  0  0  0
  1  2  1  0  0  0  0
  2  3  1  0  0  0  0
  2  4  1  0  0  0  0
  2  5  1  0  0  0  0
  5  6  2  0  0  0  0
  5  7  1  0  0  0  0
  7  8  1  0  0  0  0
  7  9  1  0  0  0  0
  9 10  1  0  0  0  0
  9 11  1  0  0  0  0
  9 16  1  0  0  0  0
 11 12  1  0  0  0  0
 11 13  1  0  0  0  0
 11 14  1  0  0  0  0
 14 15  1  0  0  0  0
 16 17  2  0  0  0  0
 16 18  1  0  0  0  0
 18 19  1  0  0  0  0
 18 20  1  0  0  0  0
 20 21  1  0  0  0  0
 20 22  1  0  0  0  0
 20 23  1  0  0  0  0
M  END
$$$$

  -OEChem-01062216073D

 23 22  0     1  0  0  0  0  0999 V2000
   -2.9923   -3.3226    1.3178 H   0  0  0  0  0  0  0  0  0  0  0  0
   -2.8935   -2.2995    0.9439 C   0  0  0  0  0  0  0  0  0  0  0  0
   -3.3420   -1.6166    1.6695 H   0  0  0  0  0  0  0  0  0  0  0  0
   -3.4295   -2.2179   -0.0047 H   0  0  0  0  0  0  0  0  0  0  0  0
   -1.4295   -1.9554    0.7437 C   0  0  0  0  0  0  0  0  0  0  0  0
   -0.5873   -2.8131    0.9335 O   0  0  0  0  0  0  0  0  0  0  0  0
   -1.0950   -0.6806    0.3252 N   0  0  0  0  0  0  0  0  0  0  0  0
   -1.8739   -0.0267    0.3050 H   0  0  0  0  0  0  0  0  0  0  0  0
    0.2491   -0.0612    0.3181 C   0  0  1  0  0  0  0  0  0  0  0  0
    0.2966    0.6511   -0.5110 H   0  0  0  0  0  0  0  0  0  0  0  0
    0.3636    0.7253    1.6334 C   0  0  0  0  0  0  0  0  0  0  0  0
    0.2017    0.0563    2.4857 H   0  0  0  0  0  0  0  0  0  0  0  0
    1.3704    1.1466    1.7290 H   0  0  0  0  0  0  0  0  0  0  0  0
   -0.8575    2.1048    1.6494 S   0  0  0  0  0  0  0  0  0  0  0  0
   -0.5646    2.6789    2.8379 H   0  0  0  0  0  0  0  0  0  0  0  0
    1.4648   -1.0076    0.1259 C   0  0  0  0  0  0  0  0  0  0  0  0
    2.3318   -1.1164    0.9867 O   0  0  0  0  0  0  0  0  0  0  0  0
    1.7187   -1.5201   -1.1336 N   0  0  0  0  0  0  0  0  0  0  0  0
    0.9296   -1.5312   -1.7720 H   0  0  0  0  0  0  0  0  0  0  0  0
    2.8265   -2.4317   -1.3930 C   0  0  0  0  0  0  0  0  0  0  0  0
    2.7298   -3.3338   -0.7796 H   0  0  0  0  0  0  0  0  0  0  0  0
    2.8353   -2.7269   -2.4465 H   0  0  0  0  0  0  0  0  0  0  0  0
    3.7827   -1.9500   -1.1629 H   0  0  0  0  0  0  0  0  0  0  0  0
  1  2  1  0  0  0  0
  2  3  1  0  0  0  0
  2  4  1  0  0  0  0
  2  5  1  0  0  0  0
  5  6  2  0  0  0  0
  5  7  1  0  0  0  0
  7  8  1  0  0  0  0
  7  9  1  0  0  0  0
  9 10  1  0  0  0  0
  9 11  1  0  0  0  0
  9 16  1  0  0  0  0
 11 12  1  0  0  0  0
 11 13  1  0  0  0  0
 11 14  1  0  0  0  0
 14 15  1  0  0  0  0
 16 17  2  0  0  0  0
 16 18  1  0  0  0  0
 18 19  1  0  0  0  0
 18 20  1  0  0  0  0
 20 21  1  0  0  0  0
 20 22  1  0  0  0  0
 20 23  1  0  0  0  0
M  END
$$$$

  -OEChem-01062216073D

 23 22  0     1  0  0  0  0  0999 V2000
   -3.0136   -3.3088    1.3439 H   0  0  0  0  0  0  0  0  0  0  0  0
   -2.9094   -2.2902    0.9593 C   0  0  0  0  0  0  0  0  0  0  0  0
   -3.3402   -1.5962    1.6850 H   0  0  0  0  0  0  0  0  0  0  0  0
   -3.4577   -2.2113    0.0176 H   0  0  0  0  0  0  0  0  0  0  0  0
   -1.4449   -1.9642    0.7347 C   0  0  0  0  0  0  0  0  0  0  0  0
   -0.6135   -2.8378    0.8948 O   0  0  0  0  0  0  0  0  0  0  0  0
   -1.1020   -0.6927    0.3129 N   0  0  0  0  0  0  0  0  0  0  0  0
   -1.8753   -0.0321    0.3066 H   0  0  0  0  0  0  0  0  0  0  0  0
    0.2459   -0.0821    0.3095 C   0  0  1  0  0  0  0  0  0  0  0  0
    0.2964    0.6318   -0.5179 H   0  0  0  0  0  0  0  0  0  0  0  0
    0.3641    0.7041    1.6241 C   0  0  0  0  0  0  0  0  0  0  0  0
    0.1926    0.0366    2.4761 H   0  0  0  0  0  0  0  0  0  0  0  0
    1.3757    1.1131    1.7223 H   0  0  0  0  0  0  0  0  0  0  0  0
   -0.8465    2.0929    1.6374 S   0  0  0  0  0  0  0  0  0  0  0  0
   -0.5608    2.6567    2.8326 H   0  0  0  0  0  0  0  0  0  0  0  0
    1.4637   -1.0283    0.1275 C   0  0  0  0  0  0  0  0  0  0  0  0
    2.2044   -1.2973    1.0674 O   0  0  0  0  0  0  0  0  0  0  0  0
    1.9160   -1.2948   -1.1527 N   0  0  0  0  0  0  0  0  0  0  0  0
    1.2512   -1.1431   -1.9044 H   0  0  0  0  0  0  0  0  0  0  0  0
    3.0753   -2.1400   -1.4135 C   0  0  0  0  0  0  0  0  0  0  0  0
    2.9250   -3.1375   -0.9867 H   0  0  0  0  0  0  0  0  0  0  0  0
    3.2335   -2.2435   -2.4911 H   0  0  0  0  0  0  0  0  0  0  0  0
    3.9773   -1.7011   -0.9738 H   0  0  0  0  0  0  0  0  0  0  0  0
  1  2  1  0  0  0  0
  2  3  1  0  0  0  0
  2  4  1  0  0  0  0
  2  5  1  0  0  0  0
  5  6  2  0  0  0  0
  5  7  1  0  0  0  0
  7  8  1  0  0  0  0
  7  9  1  0  0  0  0
  9 10  1  0  0  0  0
  9 11  1  0  0  0  0
  9 16  1  0  0  0  0
 11 12  1  0  0  0  0
 11 13  1  0  0  0  0
 11 14  1  0  0  0  0
 14 15  1  0  0  0  0
 16 17  2  0  0  0  0
 16 18  1  0  0  0  0
 18 19  1  0  0  0  0
 18 20  1  0  0  0  0
 20 21  1  0  0  0  0
 20 22  1  0  0  0  0
 20 23  1  0  0  0  0
M  END
$$$$

  -OEChem-01062216073D

 23 22  0     1  0  0  0  0  0999 V2000
   -3.0501   -3.2863    1.3759 H   0  0  0  0  0  0  0  0  0  0  0  0
   -2.9355   -2.2727    0.9812 C   0  0  0  0  0  0  0  0  0  0  0  0
   -3.3347   -1.5655    1.7122 H   0  0  0  0  0  0  0  0  0  0  0  0
   -3.5050   -2.1898    0.0526 H   0  0  0  0  0  0  0  0  0  0  0  0
   -1.4707   -1.9771    0.7192 C   0  0  0  0  0  0  0  0  0  0  0  0
   -0.6583   -2.8742    0.8376 O   0  0  0  0  0  0  0  0  0  0  0  0
   -1.1128   -0.7106    0.2952 N   0  0  0  0  0  0  0  0  0  0  0  0
   -1.8774   -0.0404    0.3059 H   0  0  0  0  0  0  0  0  0  0  0  0
    0.2405   -0.1119    0.2918 C   0  0  1  0  0  0  0  0  0  0  0  0
    0.2903    0.6041   -0.5335 H   0  0  0  0  0  0  0  0  0  0  0  0
    0.3684    0.6706    1.6069 C   0  0  0  0  0  0  0  0  0  0  0  0
    0.1898    0.0033    2.4575 H   0  0  0  0  0  0  0  0  0  0  0  0
    1.3851    1.0664    1.7053 H   0  0  0  0  0  0  0  0  0  0  0  0
   -0.8284    2.0710    1.6253 S   0  0  0  0  0  0  0  0  0  0  0  0
   -0.5381    2.6273    2.8228 H   0  0  0  0  0  0  0  0  0  0  0  0
    1.4628   -1.0540    0.1158 C   0  0  0  0  0  0  0  0  0  0  0  0
    2.0744   -1.4796    1.0899 O   0  0  0  0  0  0  0  0  0  0  0  0
    2.1153   -1.0802   -1.1051 N   0  0  0  0  0  0  0  0  0  0  0  0
    1.5880   -0.7613   -1.9116 H   0  0  0  0  0  0  0  0  0  0  0  0
    3.3370   -1.8446   -1.3307 C   0  0  0  0  0  0  0  0  0  0  0  0
    3.1728   -2.9038   -1.1053 H   0  0  0  0  0  0  0  0  0  0  0  0
    3.6512   -1.7571   -2.3751 H   0  0  0  0  0  0  0  0  0  0  0  0
    4.1467   -1.4707   -0.6952 H   0  0  0  0  0  0  0  0  0  0  0  0
  1  2  1  0  0  0  0
  2  3  1  0  0  0  0
  2  4  1  0  0  0  0
  2  5  1  0  0  0  0
  5  6  2  0  0  0  0
  5  7  1  0  0  0  0
  7  8  1  0  0  0  0
  7  9  1  0  0  0  0
  9 10  1  0  0  0  0
  9 11  1  0  0  0  0
  9 16  1  0  0  0  0
 11 12  1  0  0  0  0
 11 13  1  0  0  0  0
 11 14  1  0  0  0  0
 14 15  1  0  0  0  0
 16 17  2  0  0  0  0
 16 18  1  0  0  0  0
 18 19  1  0  0  0  0
 18 20  1  0  0  0  0
 20 21  1  0  0  0  0
 20 22  1  0  0  0  0
 20 23  1  0  0  0  0
M  END
$$$$

  -OEChem-01062216073D

 23 22  0     1  0  0  0  0  0999 V2000
   -3.0869   -3.2602    1.4058 H   0  0  0  0  0  0  0  0  0  0  0  0
   -2.9584   -2.2493    1.0083 C   0  0  0  0  0  0  0  0  0  0  0  0
   -3.3148   -1.5328    1.7522 H   0  0  0  0  0  0  0  0  0  0  0  0
   -3.5550   -2.1496    0.0984 H   0  0  0  0  0  0  0  0  0  0  0  0
   -1.4955   -1.9925    0.6991 C   0  0  0  0  0  0  0  0  0  0  0  0
   -0.7106   -2.9182    0.7640 O   0  0  0  0  0  0  0  0  0  0  0  0
   -1.1199   -0.7327    0.2709 N   0  0  0  0  0  0  0  0  0  0  0  0
   -1.8744   -0.0518    0.3011 H   0  0  0  0  0  0  0  0  0  0  0  0
    0.2386   -0.1452    0.2647 C   0  0  1  0  0  0  0  0  0  0  0  0
    0.2851    0.5707   -0.5607 H   0  0  0  0  0  0  0  0  0  0  0  0
    0.3760    0.6316    1.5817 C   0  0  0  0  0  0  0  0  0  0  0  0
    0.1942   -0.0375    2.4304 H   0  0  0  0  0  0  0  0  0  0  0  0
    1.3962    1.0182    1.6792 H   0  0  0  0  0  0  0  0  0  0  0  0
   -0.8090    2.0418    1.6098 S   0  0  0  0  0  0  0  0  0  0  0  0
   -0.5202    2.5858    2.8136 H   0  0  0  0  0  0  0  0  0  0  0  0
    1.4689   -1.0781    0.0955 C   0  0  0  0  0  0  0  0  0  0  0  0
    1.9558   -1.6541    1.0619 O   0  0  0  0  0  0  0  0  0  0  0  0
    2.3045   -0.8805   -0.9916 N   0  0  0  0  0  0  0  0  0  0  0  0
    1.9122   -0.3968   -1.7930 H   0  0  0  0  0  0  0  0  0  0  0  0
    3.5792   -1.5724   -1.1502 C   0  0  0  0  0  0  0  0  0  0  0  0
    3.4321   -2.6575   -1.1245 H   0  0  0  0  0  0  0  0  0  0  0  0
    4.0378   -1.3079   -2.1079 H   0  0  0  0  0  0  0  0  0  0  0  0
    4.2702   -1.2917   -0.3482 H   0  0  0  0  0  0  0  0  0  0  0  0
  1  2  1  0  0  0  0
  2  3  1  0  0  0  0
  2  4  1  0  0  0  0
  2  5  1  0  0  0  0
  5  6  2  0  0  0  0
  5  7  1  0  0  0  0
  7  8  1  0  0  0  0
  7  9  1  0  0  0  0
  9 10  1  0  0  0  0
  9 11  1  0  0  0  0
  9 16  1  0  0  0  0
 11 12  1  0  0  0  0
 11 13  1  0  0  0  0
 11 14  1  0  0  0  0
 14 15  1  0  0  0  0
 16 17  2  0  0  0  0
 16 18  1  0  0  0  0
 18 19  1  0  0  0  0
 18 20  1  0  0  0  0
 20 21  1  0  0  0  0
 20 22  1  0  0  0  0
 20 23  1  0  0  0  0
M  END
$$$$

  -OEChem-01062216073D

 23 22  0     1  0  0  0  0  0999 V2000
   -3.1381   -3.2496    1.3919 H   0  0  0  0  0  0  0  0  0  0  0  0
   -2.9815   -2.2287    1.0319 C   0  0  0  0  0  0  0  0  0  0  0  0
   -3.2915   -1.5304    1.8129 H   0  0  0  0  0  0  0  0  0  0  0  0
   -3.5969   -2.0708    0.1431 H   0  0  0  0  0  0  0  0  0  0  0  0
   -1.5179   -2.0126    0.6947 C   0  0  0  0  0  0  0  0  0  0  0  0
   -0.7650   -2.9651    0.7293 O   0  0  0  0  0  0  0  0  0  0  0  0
   -1.1203   -0.7631    0.2559 N   0  0  0  0  0  0  0  0  0  0  0  0
   -1.8651   -0.0722    0.2923 H   0  0  0  0  0  0  0  0  0  0  0  0
    0.2429   -0.1836    0.2387 C   0  0  1  0  0  0  0  0  0  0  0  0
    0.2815    0.5258   -0.5926 H   0  0  0  0  0  0  0  0  0  0  0  0
    0.3894    0.5982    1.5512 C   0  0  0  0  0  0  0  0  0  0  0  0
    0.2072   -0.0661    2.4038 H   0  0  0  0  0  0  0  0  0  0  0  0
    1.4118    0.9806    1.6438 H   0  0  0  0  0  0  0  0  0  0  0  0
   -0.7890    2.0141    1.5752 S   0  0  0  0  0  0  0  0  0  0  0  0
   -0.5038    2.5559    2.7806 H   0  0  0  0  0  0  0  0  0  0  0  0
    1.4877   -1.0984    0.0775 C   0  0  0  0  0  0  0  0  0  0  0  0
    1.8615   -1.8216    0.9922 O   0  0  0  0  0  0  0  0  0  0  0  0
    2.4736   -0.7043   -0.8135 N   0  0  0  0  0  0  0  0  0  0  0  0
    2.2032   -0.0606   -1.5500 H   0  0  0  0  0  0  0  0  0  0  0  0
    3.7833   -1.3432   -0.8926 C   0  0  0  0  0  0  0  0  0  0  0  0
    3.6748   -2.4188   -1.0684 H   0  0  0  0  0  0  0  0  0  0  0  0
    4.3646   -0.9156   -1.7149 H   0  0  0  0  0  0  0  0  0  0  0  0
    4.3403   -1.1928    0.0383 H   0  0  0  0  0  0  0  0  0  0  0  0
  1  2  1  0  0  0  0
  2  3  1  0  0  0  0
  2  4  1  0  0  0  0
  2  5  1  0  0  0  0
  5  6  2  0  0  0  0
  5  7  1  0  0  0  0
  7  8  1  0  0  0  0
  7  9  1  0  0  0  0
  9 10  1  0  0  0  0
  9 11  1  0  0  0  0
  9 16  1  0  0  0  0
 11 12  1  0  0  0  0
 11 13  1  0  0  0  0
 11 14  1  0  0  0  0
 14 15  1  0  0  0  0
 16 17  2  0  0  0  0
 16 18  1  0  0  0  0
 18 19  1  0  0  0  0
 18 20  1  0  0  0  0
 20 21  1  0  0  0  0
 20 22  1  0  0  0  0
 20 23  1  0  0  0  0
M  END
$$$$

  -OEChem-01062216073D

 23 22  0     1  0  0  0  0  0999 V2000
   -2.8401   -3.4750    1.1841 H   0  0  0  0  0  0  0  0  0  0  0  0
   -2.7310   -2.5230    0.6569 C   0  0  0  0  0  0  0  0  0  0  0  0
   -3.6153   -1.9100    0.8463 H   0  0  0  0  0  0  0  0  0  0  0  0
   -2.6540   -2.7239   -0.4141 H   0  0  0  0  0  0  0  0  0  0  0  0
   -1.4861   -1.8026    1.1390 C   0  0  0  0  0  0  0  0  0  0  0  0
   -0.9257   -2.1870    2.1518 O   0  0  0  0  0  0  0  0  0  0  0  0
   -1.1480   -0.5811    0.5875 N   0  0  0  0  0  0  0  0  0  0  0  0
   -1.8029   -0.2604   -0.1177 H   0  0  0  0  0  0  0  0  0  0  0  0
    0.2301   -0.0521    0.4572 C   0  0  1  0  0  0  0  0  0  0  0  0
    0.2365    0.6021   -0.4193 H   0  0  0  0  0  0  0  0  0  0  0  0
    0.5026    0.8081    1.6990 C   0  0  0  0  0  0  0  0  0  0  0  0
    0.3405    0.2069    2.6012 H   0  0  0  0  0  0  0  0  0  0  0  0
    1.5434    1.1469    1.7086 H   0  0  0  0  0  0  0  0  0  0  0  0
   -0.6070    2.2784    1.7157 S   0  0  0  0  0  0  0  0  0  0  0  0
   -0.3491    2.7739    2.9464 H   0  0  0  0  0  0  0  0  0  0  0  0
    1.4339   -1.0200    0.2677 C   0  0  0  0  0  0  0  0  0  0  0  0
    1.3848   -2.2269    0.4491 O   0  0  0  0  0  0  0  0  0  0  0  0
    2.5251   -0.5529   -0.4480 N   0  0  0  0  0  0  0  0  0  0  0  0
    2.5462    0.4343   -0.6845 H   0  0  0  0  0  0  0  0  0  0  0  0
    3.6504   -1.3938   -0.8448 C   0  0  0  0  0  0  0  0  0  0  0  0
    3.3184   -2.1824   -1.5285 H   0  0  0  0  0  0  0  0  0  0  0  0
    4.4114   -0.7938   -1.3529 H   0  0  0  0  0  0  0  0  0  0  0  0
    4.1091   -1.8600    0.0338 H   0  0  0  0  0  0  0  0  0  0  0  0
  1  2  1  0  0  0  0
  2  3  1  0  0  0  0
  2  4  1  0  0  0  0
  2  5  1  0  0  0  0
  5  6  2  0  0  0  0
  5  7  1  0  0  0  0
  7  8  1  0  0  0  0
  7  9  1  0  0  0  0
  9 10  1  0  0  0  0
  9 11  1  0  0  0  0
  9 16  1  0  0  0  0
 11 12  1  0  0  0  0
 11 13  1  0  0  0  0
 11 14  1  0  0  0  0
 14 15  1  0  0  0  0
 16 17  2  0  0  0  0
 16 18  1  0  0  0  0
 18 19  1  0  0  0  0
 18 20  1  0  0  0  0
 20 21  1  0  0  0  0
 20 22  1  0  0  0  0
 20 23  1  0  0  0  0
M  END
$$$$

  -OEChem-01062216073D

 23 22  0     1  0  0  0  0  0999 V2000
   -2.8268   -3.4672    1.2056 H   0  0  0  0  0  0  0  0  0  0  0  0
   -2.7246   -2.5192    0.6699 C   0  0  0  0  0  0  0  0  0  0  0  0
   -3.6041   -1.9028    0.8695 H   0  0  0  0  0  0  0  0  0  0  0  0
   -2.6652   -2.7274   -0.4008 H   0  0  0  0  0  0  0  0  0  0  0  0
   -1.4708   -1.7980    1.1259 C   0  0  0  0  0  0  0  0  0  0  0  0
   -0.8670   -2.1977    2.1089 O   0  0  0  0  0  0  0  0  0  0  0  0
   -1.1443   -0.5732    0.5744 N   0  0  0  0  0  0  0  0  0  0  0  0
   -1.7910   -0.2598   -0.1416 H   0  0  0  0  0  0  0  0  0  0  0  0
    0.2352   -0.0449    0.4662 C   0  0  1  0  0  0  0  0  0  0  0  0
    0.2683    0.6035   -0.4140 H   0  0  0  0  0  0  0  0  0  0  0  0
    0.4794    0.8199    1.7128 C   0  0  0  0  0  0  0  0  0  0  0  0
    0.2976    0.2216    2.6129 H   0  0  0  0  0  0  0  0  0  0  0  0
    1.5178    1.1630    1.7473 H   0  0  0  0  0  0  0  0  0  0  0  0
   -0.6346    2.2868    1.7003 S   0  0  0  0  0  0  0  0  0  0  0  0
   -0.4114    2.7865    2.9356 H   0  0  0  0  0  0  0  0  0  0  0  0
    1.4231   -1.0357    0.2987 C   0  0  0  0  0  0  0  0  0  0  0  0
    1.2655   -2.2356    0.1173 O   0  0  0  0  0  0  0  0  0  0  0  0
    2.6433   -0.5191   -0.1083 N   0  0  0  0  0  0  0  0  0  0  0  0
    2.7533    0.4899   -0.0991 H   0  0  0  0  0  0  0  0  0  0  0  0
    3.7683   -1.3435   -0.5384 C   0  0  0  0  0  0  0  0  0  0  0  0
    3.5193   -1.8830   -1.4583 H   0  0  0  0  0  0  0  0  0  0  0  0
    4.6447   -0.7174   -0.7310 H   0  0  0  0  0  0  0  0  0  0  0  0
    4.0290   -2.0715    0.2373 H   0  0  0  0  0  0  0  0  0  0  0  0
  1  2  1  0  0  0  0
  2  3  1  0  0  0  0
  2  4  1  0  0  0  0
  2  5  1  0  0  0  0
  5  6  2  0  0  0  0
  5  7  1  0  0  0  0
  7  8  1  0  0  0  0
  7  9  1  0  0  0  0
  9 10  1  0  0  0  0
  9 11  1  0  0  0  0
  9 16  1  0  0  0  0
 11 12  1  0  0  0  0
 11 13  1  0  0  0  0
 11 14  1  0  0  0  0
 14 15  1  0  0  0  0
 16 17  2  0  0  0  0
 16 18  1  0  0  0  0
 18 19  1  0  0  0  0
 18 20  1  0  0  0  0
 20 21  1  0  0  0  0
 20 22  1  0  0  0  0
 20 23  1  0  0  0  0
M  END
$$$$

  -OEChem-01062216073D

 23 22  0     1  0  0  0  0  0999 V2000
   -2.7511   -3.5017    1.1816 H   0  0  0  0  0  0  0  0  0  0  0  0
   -2.7018   -2.5199    0.7026 C   0  0  0  0  0  0  0  0  0  0  0  0
   -3.5388   -1.9126    1.0543 H   0  0  0  0  0  0  0  0  0  0  0  0
   -2.7827   -2.6535   -0.3786 H   0  0  0  0  0  0  0  0  0  0  0  0
   -1.3889   -1.8406    1.0415 C   0  0  0  0  0  0  0  0  0  0  0  0
   -0.6201   -2.3705    1.8297 O   0  0  0  0  0  0  0  0  0  0  0  0
   -1.1224   -0.5802    0.5362 N   0  0  0  0  0  0  0  0  0  0  0  0
   -1.8119   -0.2289   -0.1200 H   0  0  0  0  0  0  0  0  0  0  0  0
    0.2355    0.0003    0.4501 C   0  0  1  0  0  0  0  0  0  0  0  0
    0.1947    0.8444   -0.2441 H   0  0  0  0  0  0  0  0  0  0  0  0
    0.6221    0.5530    1.8344 C   0  0  0  0  0  0  0  0  0  0  0  0
    0.5497   -0.2370    2.5890 H   0  0  0  0  0  0  0  0  0  0  0  0
    1.6553    0.9106    1.8315 H   0  0  0  0  0  0  0  0  0  0  0  0
   -0.4833    1.9546    2.2867 S   0  0  0  0  0  0  0  0  0  0  0  0
   -0.1131    2.1683    3.5685 H   0  0  0  0  0  0  0  0  0  0  0  0
    1.3376   -0.9438   -0.1050 C   0  0  0  0  0  0  0  0  0  0  0  0
    1.0456   -1.9470   -0.7456 O   0  0  0  0  0  0  0  0  0  0  0  0
    2.6407   -0.4861   -0.2181 N   0  0  0  0  0  0  0  0  0  0  0  0
    2.8711    0.3978    0.2237 H   0  0  0  0  0  0  0  0  0  0  0  0
    3.6977   -1.2315   -0.8932 C   0  0  0  0  0  0  0  0  0  0  0  0
    3.4632   -1.3521   -1.9561 H   0  0  0  0  0  0  0  0  0  0  0  0
    4.6503   -0.7000   -0.8076 H   0  0  0  0  0  0  0  0  0  0  0  0
    3.8146   -2.2235   -0.4438 H   0  0  0  0  0  0  0  0  0  0  0  0
  1  2  1  0  0  0  0
  2  3  1  0  0  0  0
  2  4  1  0  0  0  0
  2  5  1  0  0  0  0
  5  6  2  0  0  0  0
  5  7  1  0  0  0  0
  7  8  1  0  0  0  0
  7  9  1  0  0  0  0
  9 10  1  0  0  0  0
  9 11  1  0  0  0  0
  9 16  1  0  0  0  0
 11 12  1  0  0  0  0
 11 13  1  0  0  0  0
 11 14  1  0  0  0  0
 14 15  1  0  0  0  0
 16 17  2  0  0  0  0
 16 18  1  0  0  0  0
 18 19  1  0  0  0  0
 18 20  1  0  0  0  0
 20 21  1  0  0  0  0
 20 22  1  0  0  0  0
 20 23  1  0  0  0  0
M  END
$$$$

  -OEChem-01062216073D

 23 22  0     1  0  0  0  0  0999 V2000
   -2.7160   -3.5065    1.1836 H   0  0  0  0  0  0  0  0  0  0  0  0
   -2.6783   -2.5238    0.7053 C   0  0  0  0  0  0  0  0  0  0  0  0
   -3.5122   -1.9205    1.0713 H   0  0  0  0  0  0  0  0  0  0  0  0
   -2.7758   -2.6552   -0.3751 H   0  0  0  0  0  0  0  0  0  0  0  0
   -1.3629   -1.8393    1.0232 C   0  0  0  0  0  0  0  0  0  0  0  0
   -0.5624   -2.3819    1.7704 O   0  0  0  0  0  0  0  0  0  0  0  0
   -1.1182   -0.5698    0.5313 N   0  0  0  0  0  0  0  0  0  0  0  0
   -1.8186   -0.2150   -0.1116 H   0  0  0  0  0  0  0  0  0  0  0  0
    0.2301    0.0316    0.4510 C   0  0  1  0  0  0  0  0  0  0  0  0
    0.1855    0.8796   -0.2387 H   0  0  0  0  0  0  0  0  0  0  0  0
    0.6016    0.5795    1.8419 C   0  0  0  0  0  0  0  0  0  0  0  0
    0.5417   -0.2178    2.5901 H   0  0  0  0  0  0  0  0  0  0  0  0
    1.6259    0.9608    1.8445 H   0  0  0  0  0  0  0  0  0  0  0  0
   -0.5290    1.9586    2.3004 S   0  0  0  0  0  0  0  0  0  0  0  0
   -0.1699    2.1675    3.5861 H   0  0  0  0  0  0  0  0  0  0  0  0
    1.3233   -0.9154   -0.1178 C   0  0  0  0  0  0  0  0  0  0  0  0
    1.0203   -1.7775   -0.9353 O   0  0  0  0  0  0  0  0  0  0  0  0
    2.6698   -0.6227    0.0286 N   0  0  0  0  0  0  0  0  0  0  0  0
    2.9243    0.1118    0.6800 H   0  0  0  0  0  0  0  0  0  0  0  0
    3.7304   -1.4156   -0.5829 C   0  0  0  0  0  0  0  0  0  0  0  0
    3.6511   -1.3843   -1.6747 H   0  0  0  0  0  0  0  0  0  0  0  0
    4.7105   -1.0224   -0.2967 H   0  0  0  0  0  0  0  0  0  0  0  0
    3.6668   -2.4586   -0.2544 H   0  0  0  0  0  0  0  0  0  0  0  0
  1  2  1  0  0  0  0
  2  3  1  0  0  0  0
  2  4  1  0  0  0  0
  2  5  1  0  0  0  0
  5  6  2  0  0  0  0
  5  7  1  0  0  0  0
  7  8  1  0  0  0  0
  7  9  1  0  0  0  0
  9 10  1  0  0  0  0
  9 11  1  0  0  0  0
  9 16  1  0  0  0  0
 11 12  1  0  0  0  0
 11 13  1  0  0  0  0
 11 14  1  0  0  0  0
 14 15  1  0  0  0  0
 16 17  2  0  0  0  0
 16 18  1  0  0  0  0
 18 19  1  0  0  0  0
 18 20  1  0  0  0  0
 20 21  1  0  0  0  0
 20 22  1  0  0  0  0
 20 23  1  0  0  0  0
M  END
$$$$

  -OEChem-01062216073D

 23 22  0     1  0  0  0  0  0999 V2000
   -2.6633   -3.5343    1.1421 H   0  0  0  0  0  0  0  0  0  0  0  0
   -2.6531   -2.5336    0.7012 C   0  0  0  0  0  0  0  0  0  0  0  0
   -3.4810   -1.9551    1.1177 H   0  0  0  0  0  0  0  0  0  0  0  0
   -2.7862   -2.6253   -0.3795 H   0  0  0  0  0  0  0  0  0  0  0  0
   -1.3362   -1.8440    1.0019 C   0  0  0  0  0  0  0  0  0  0  0  0
   -0.5092   -2.3956    1.7132 O   0  0  0  0  0  0  0  0  0  0  0  0
   -1.1110   -0.5658    0.5254 N   0  0  0  0  0  0  0  0  0  0  0  0
   -1.8240   -0.2015   -0.0982 H   0  0  0  0  0  0  0  0  0  0  0  0
    0.2266    0.0580    0.4544 C   0  0  1  0  0  0  0  0  0  0  0  0
    0.1751    0.9077   -0.2327 H   0  0  0  0  0  0  0  0  0  0  0  0
    0.5860    0.6085    1.8471 C   0  0  0  0  0  0  0  0  0  0  0  0
    0.5399   -0.1914    2.5935 H   0  0  0  0  0  0  0  0  0  0  0  0
    1.6027    1.0110    1.8474 H   0  0  0  0  0  0  0  0  0  0  0  0
   -0.5680    1.9681    2.3059 S   0  0  0  0  0  0  0  0  0  0  0  0
   -0.1916    2.2063    3.5812 H   0  0  0  0  0  0  0  0  0  0  0  0
    1.3181   -0.8833   -0.1253 C   0  0  0  0  0  0  0  0  0  0  0  0
    1.0449   -1.5880   -1.0908 O   0  0  0  0  0  0  0  0  0  0  0  0
    2.6475   -0.7899    0.2537 N   0  0  0  0  0  0  0  0  0  0  0  0
    2.8537   -0.2610    1.0941 H   0  0  0  0  0  0  0  0  0  0  0  0
    3.6873   -1.6519   -0.2966 C   0  0  0  0  0  0  0  0  0  0  0  0
    3.7688   -1.5119   -1.3797 H   0  0  0  0  0  0  0  0  0  0  0  0
    4.6551   -1.4131    0.1544 H   0  0  0  0  0  0  0  0  0  0  0  0
    3.4596   -2.7037   -0.0933 H   0  0  0  0  0  0  0  0  0  0  0  0
  1  2  1  0  0  0  0
  2  3  1  0  0  0  0
  2  4  1  0  0  0  0
  2  5  1  0  0  0  0
  5  6  2  0  0  0  0
  5  7  1  0  0  0  0
  7  8  1  0  0  0  0
  7  9  1  0  0  0  0
  9 10  1  0  0  0  0
  9 11  1  0  0  0  0
  9 16  1  0  0  0  0
 11 12  1  0  0  0  0
 11 13  1  0  0  0  0
 11 14  1  0  0  0  0
 14 15  1  0  0  0  0
 16 17  2  0  0  0  0
 16 18  1  0  0  0  0
 18 19  1  0  0  0  0
 18 20  1  0  0  0  0
 20 21  1  0  0  0  0
 20 22  1  0  0  0  0
 20 23  1  0  0  0  0
M  END
$$$$

  -OEChem-01062216073D

 23 22  0     1  0  0  0  0  0999 V2000
   -2.6405   -3.5427    1.1320 H   0  0  0  0  0  0  0  0  0  0  0  0
   -2.6419   -2.5366    0.7037 C   0  0  0  0  0  0  0  0  0  0  0  0
   -3.4611   -1.9652    1.1465 H   0  0  0  0  0  0  0  0  0  0  0  0
   -2.7999   -2.6146   -0.3746 H   0  0  0  0  0  0  0  0  0  0  0  0
   -1.3195   -1.8491    0.9835 C   0  0  0  0  0  0  0  0  0  0  0  0
   -0.4751   -2.4098    1.6669 O   0  0  0  0  0  0  0  0  0  0  0  0
   -1.1019   -0.5671    0.5149 N   0  0  0  0  0  0  0  0  0  0  0  0
   -1.8259   -0.1875   -0.0871 H   0  0  0  0  0  0  0  0  0  0  0  0
    0.2290    0.0694    0.4547 C   0  0  1  0  0  0  0  0  0  0  0  0
    0.1753    0.9189   -0.2327 H   0  0  0  0  0  0  0  0  0  0  0  0
    0.5782    0.6237    1.8475 C   0  0  0  0  0  0  0  0  0  0  0  0
    0.5334   -0.1756    2.5948 H   0  0  0  0  0  0  0  0  0  0  0  0
    1.5932    1.0323    1.8469 H   0  0  0  0  0  0  0  0  0  0  0  0
   -0.5893    1.9735    2.3010 S   0  0  0  0  0  0  0  0  0  0  0  0
   -0.1936    2.2437    3.5639 H   0  0  0  0  0  0  0  0  0  0  0  0
    1.3239   -0.8664   -0.1233 C   0  0  0  0  0  0  0  0  0  0  0  0
    1.1253   -1.3997   -1.2089 O   0  0  0  0  0  0  0  0  0  0  0  0
    2.5756   -0.9931    0.4561 N   0  0  0  0  0  0  0  0  0  0  0  0
    2.6595   -0.6853    1.4192 H   0  0  0  0  0  0  0  0  0  0  0  0
    3.5862   -1.9082   -0.0614 C   0  0  0  0  0  0  0  0  0  0  0  0
    3.8444   -1.6516   -1.0944 H   0  0  0  0  0  0  0  0  0  0  0  0
    4.4956   -1.8493    0.5443 H   0  0  0  0  0  0  0  0  0  0  0  0
    3.2176   -2.9393   -0.0361 H   0  0  0  0  0  0  0  0  0  0  0  0
  1  2  1  0  0  0  0
  2  3  1  0  0  0  0
  2  4  1  0  0  0  0
  2  5  1  0  0  0  0
  5  6  2  0  0  0  0
  5  7  1  0  0  0  0
  7  8  1  0  0  0  0
  7  9  1  0  0  0  0
  9 10  1  0  0  0  0
  9 11  1  0  0  0  0
  9 16  1  0  0  0  0
 11 12  1  0  0  0  0
 11 13  1  0  0  0  0
 11 14  1  0  0  0  0
 14 15  1  0  0  0  0
 16 17  2  0  0  0  0
 16 18  1  0  0  0  0
 18 19  1  0  0  0  0
 18 20  1  0  0  0  0
 20 21  1  0  0  0  0
 20 22  1  0  0  0  0
 20 23  1  0  0  0  0
M  END
$$$$

  -OEChem-01062216073D

 23 22  0     1  0  0  0  0  0999 V2000
   -2.6555   -3.5403    1.1280 H   0  0  0  0  0  0  0  0  0  0  0  0
   -2.6567   -2.5269    0.7175 C   0  0  0  0  0  0  0  0  0  0  0  0
   -3.4531   -1.9527    1.1967 H   0  0  0  0  0  0  0  0  0  0  0  0
   -2.8509   -2.5834   -0.3562 H   0  0  0  0  0  0  0  0  0  0  0  0
   -1.3169   -1.8614    0.9654 C   0  0  0  0  0  0  0  0  0  0  0  0
   -0.4616   -2.4392    1.6203 O   0  0  0  0  0  0  0  0  0  0  0  0
   -1.0920   -0.5802    0.4991 N   0  0  0  0  0  0  0  0  0  0  0  0
   -1.8305   -0.1723   -0.0661 H   0  0  0  0  0  0  0  0  0  0  0  0
    0.2359    0.0619    0.4493 C   0  0  1  0  0  0  0  0  0  0  0  0
    0.1832    0.9097   -0.2407 H   0  0  0  0  0  0  0  0  0  0  0  0
    0.5761    0.6214    1.8411 C   0  0  0  0  0  0  0  0  0  0  0  0
    0.5281   -0.1750    2.5911 H   0  0  0  0  0  0  0  0  0  0  0  0
    1.5924    1.0286    1.8412 H   0  0  0  0  0  0  0  0  0  0  0  0
   -0.5984    1.9688    2.2846 S   0  0  0  0  0  0  0  0  0  0  0  0
   -0.1861    2.2721    3.5350 H   0  0  0  0  0  0  0  0  0  0  0  0
    1.3399   -0.8672   -0.1177 C   0  0  0  0  0  0  0  0  0  0  0  0
    1.2668   -1.2120   -1.2911 O   0  0  0  0  0  0  0  0  0  0  0  0
    2.4584   -1.2229    0.6170 N   0  0  0  0  0  0  0  0  0  0  0  0
    2.3642   -1.1338    1.6240 H   0  0  0  0  0  0  0  0  0  0  0  0
    3.4477   -2.1669    0.1111 C   0  0  0  0  0  0  0  0  0  0  0  0
    3.8904   -1.7983   -0.8204 H   0  0  0  0  0  0  0  0  0  0  0  0
    4.2502   -2.3014    0.8426 H   0  0  0  0  0  0  0  0  0  0  0  0
    2.9847   -3.1408   -0.0804 H   0  0  0  0  0  0  0  0  0  0  0  0
  1  2  1  0  0  0  0
  2  3  1  0  0  0  0
  2  4  1  0  0  0  0
  2  5  1  0  0  0  0
  5  6  2  0  0  0  0
  5  7  1  0  0  0  0
  7  8  1  0  0  0  0
  7  9  1  0  0  0  0
  9 10  1  0  0  0  0
  9 11  1  0  0  0  0
  9 16  1  0  0  0  0
 11 12  1  0  0  0  0
 11 13  1  0  0  0  0
 11 14  1  0  0  0  0
 14 15  1  0  0  0  0
 16 17  2  0  0  0  0
 16 18  1  0  0  0  0
 18 19  1  0  0  0  0
 18 20  1  0  0  0  0
 20 21  1  0  0  0  0
 20 22  1  0  0  0  0
 20 23  1  0  0  0  0
M  END
$$$$

  -OEChem-01062216073D

 23 22  0     1  0  0  0  0  0999 V2000
   -2.7089   -3.5236    1.1388 H   0  0  0  0  0  0  0  0  0  0  0  0
   -2.6974   -2.5063    0.7375 C   0  0  0  0  0  0  0  0  0  0  0  0
   -3.4649   -1.9177    1.2456 H   0  0  0  0  0  0  0  0  0  0  0  0
   -2.9253   -2.5478   -0.3303 H   0  0  0  0  0  0  0  0  0  0  0  0
   -1.3350   -1.8754    0.9522 C   0  0  0  0  0  0  0  0  0  0  0  0
   -0.4792   -2.4741    1.5878 O   0  0  0  0  0  0  0  0  0  0  0  0
   -1.0902   -0.5994    0.4826 N   0  0  0  0  0  0  0  0  0  0  0  0
   -1.8408   -0.1565   -0.0391 H   0  0  0  0  0  0  0  0  0  0  0  0
    0.2400    0.0382    0.4394 C   0  0  1  0  0  0  0  0  0  0  0  0
    0.1906    0.8845   -0.2531 H   0  0  0  0  0  0  0  0  0  0  0  0
    0.5800    0.6011    1.8289 C   0  0  0  0  0  0  0  0  0  0  0  0
    0.5269   -0.1906    2.5833 H   0  0  0  0  0  0  0  0  0  0  0  0
    1.6001    0.9992    1.8269 H   0  0  0  0  0  0  0  0  0  0  0  0
   -0.5886    1.9554    2.2652 S   0  0  0  0  0  0  0  0  0  0  0  0
   -0.1501    2.2859    3.4996 H   0  0  0  0  0  0  0  0  0  0  0  0
    1.3539   -0.8866   -0.1111 C   0  0  0  0  0  0  0  0  0  0  0  0
    1.4592   -1.0193   -1.3240 O   0  0  0  0  0  0  0  0  0  0  0  0
    2.2934   -1.4736    0.7183 N   0  0  0  0  0  0  0  0  0  0  0  0
    1.9789   -1.6033    1.6771 H   0  0  0  0  0  0  0  0  0  0  0  0
    3.2890   -2.4095    0.2104 C   0  0  0  0  0  0  0  0  0  0  0  0
    3.9135   -1.9311   -0.5515 H   0  0  0  0  0  0  0  0  0  0  0  0
    3.9384   -2.7475    1.0236 H   0  0  0  0  0  0  0  0  0  0  0  0
    2.8011   -3.2844   -0.2323 H   0  0  0  0  0  0  0  0  0  0  0  0
  1  2  1  0  0  0  0
  2  3  1  0  0  0  0
  2  4  1  0  0  0  0
  2  5  1  0  0  0  0
  5  6  2  0  0  0  0
  5  7  1  0  0  0  0
  7  8  1  0  0  0  0
  7  9  1  0  0  0  0
  9 10  1  0  0  0  0
  9 11  1  0  0  0  0
  9 16  1  0  0  0  0
 11 12  1  0  0  0  0
 11 13  1  0  0  0  0
 11 14  1  0  0  0  0
 14 15  1  0  0  0  0
 16 17  2  0  0  0  0
 16 18  1  0  0  0  0
 18 19  1  0  0  0  0
 18 20  1  0  0  0  0
 20 21  1  0  0  0  0
 20 22  1  0  0  0  0
 20 23  1  0  0  0  0
M  END
$$$$

  -OEChem-01062216073D

 23 22  0     1  0  0  0  0  0999 V2000
   -2.8029   -3.4855    1.1696 H   0  0  0  0  0  0  0  0  0  0  0  0
   -2.7633   -2.4711    0.7629 C   0  0  0  0  0  0  0  0  0  0  0  0
   -3.4977   -1.8529    1.2848 H   0  0  0  0  0  0  0  0  0  0  0  0
   -3.0167   -2.5087   -0.2993 H   0  0  0  0  0  0  0  0  0  0  0  0
   -1.3744   -1.8895    0.9438 C   0  0  0  0  0  0  0  0  0  0  0  0
   -0.5298   -2.5163    1.5668 O   0  0  0  0  0  0  0  0  0  0  0  0
   -1.0970   -0.6230    0.4666 N   0  0  0  0  0  0  0  0  0  0  0  0
   -1.8563   -0.1415   -0.0065 H   0  0  0  0  0  0  0  0  0  0  0  0
    0.2389    0.0055    0.4208 C   0  0  1  0  0  0  0  0  0  0  0  0
    0.1909    0.8525   -0.2713 H   0  0  0  0  0  0  0  0  0  0  0  0
    0.5844    0.5622    1.8106 C   0  0  0  0  0  0  0  0  0  0  0  0
    0.5278   -0.2314    2.5628 H   0  0  0  0  0  0  0  0  0  0  0  0
    1.6086    0.9500    1.8073 H   0  0  0  0  0  0  0  0  0  0  0  0
   -0.5735    1.9235    2.2538 S   0  0  0  0  0  0  0  0  0  0  0  0
   -0.1139    2.2614    3.4788 H   0  0  0  0  0  0  0  0  0  0  0  0
    1.3672   -0.9110   -0.1137 C   0  0  0  0  0  0  0  0  0  0  0  0
    1.6745   -0.8403   -1.2967 O   0  0  0  0  0  0  0  0  0  0  0  0
    2.1072   -1.7172    0.7317 N   0  0  0  0  0  0  0  0  0  0  0  0
    1.5951   -2.0020    1.5676 H   0  0  0  0  0  0  0  0  0  0  0  0
    3.1248   -2.6322    0.2304 C   0  0  0  0  0  0  0  0  0  0  0  0
    3.9051   -2.0828   -0.3068 H   0  0  0  0  0  0  0  0  0  0  0  0
    3.5923   -3.1673    1.0624 H   0  0  0  0  0  0  0  0  0  0  0  0
    2.6789   -3.3661   -0.4491 H   0  0  0  0  0  0  0  0  0  0  0  0
  1  2  1  0  0  0  0
  2  3  1  0  0  0  0
  2  4  1  0  0  0  0
  2  5  1  0  0  0  0
  5  6  2  0  0  0  0
  5  7  1  0  0  0  0
  7  8  1  0  0  0  0
  7  9  1  0  0  0  0
  9 10  1  0  0  0  0
  9 11  1  0  0  0  0
  9 16  1  0  0  0  0
 11 12  1  0  0  0  0
 11 13  1  0  0  0  0
 11 14  1  0  0  0  0
 14 15  1  0  0  0  0
 16 17  2  0  0  0  0
 16 18  1  0  0  0  0
 18 19  1  0  0  0  0
 18 20  1  0  0  0  0
 20 21  1  0  0  0  0
 20 22  1  0  0  0  0
 20 23  1  0  0  0  0
M  END
$$$$

  -OEChem-01062216073D

 23 22  0     1  0  0  0  0  0999 V2000
   -2.9325   -3.4332    1.1861 H   0  0  0  0  0  0  0  0  0  0  0  0
   -2.8530   -2.4189    0.7852 C   0  0  0  0  0  0  0  0  0  0  0  0
   -3.5465   -1.7706    1.3262 H   0  0  0  0  0  0  0  0  0  0  0  0
   -3.1298   -2.4366   -0.2717 H   0  0  0  0  0  0  0  0  0  0  0  0
   -1.4347   -1.9046    0.9413 C   0  0  0  0  0  0  0  0  0  0  0  0
   -0.6164   -2.5707    1.5561 O   0  0  0  0  0  0  0  0  0  0  0  0
   -1.1106   -0.6530    0.4550 N   0  0  0  0  0  0  0  0  0  0  0  0
   -1.8706   -0.1349    0.0229 H   0  0  0  0  0  0  0  0  0  0  0  0
    0.2327   -0.0351    0.4005 C   0  0  1  0  0  0  0  0  0  0  0  0
    0.1818    0.8134   -0.2898 H   0  0  0  0  0  0  0  0  0  0  0  0
    0.5823    0.5147    1.7909 C   0  0  0  0  0  0  0  0  0  0  0  0
    0.5236   -0.2819    2.5398 H   0  0  0  0  0  0  0  0  0  0  0  0
    1.6092    0.8961    1.7875 H   0  0  0  0  0  0  0  0  0  0  0  0
   -0.5658    1.8829    2.2398 S   0  0  0  0  0  0  0  0  0  0  0  0
   -0.1057    2.2094    3.4676 H   0  0  0  0  0  0  0  0  0  0  0  0
    1.3864   -0.9312   -0.1161 C   0  0  0  0  0  0  0  0  0  0  0  0
    1.8805   -0.6834   -1.2084 O   0  0  0  0  0  0  0  0  0  0  0  0
    1.9399   -1.9334    0.6580 N   0  0  0  0  0  0  0  0  0  0  0  0
    1.3143   -2.2850    1.3872 H   0  0  0  0  0  0  0  0  0  0  0  0
    2.9672   -2.8364    0.1554 C   0  0  0  0  0  0  0  0  0  0  0  0
    3.8458   -2.2734   -0.1765 H   0  0  0  0  0  0  0  0  0  0  0  0
    3.2801   -3.5260    0.9452 H   0  0  0  0  0  0  0  0  0  0  0  0
    2.5844   -3.4216   -0.6872 H   0  0  0  0  0  0  0  0  0  0  0  0
  1  2  1  0  0  0  0
  2  3  1  0  0  0  0
  2  4  1  0  0  0  0
  2  5  1  0  0  0  0
  5  6  2  0  0  0  0
  5  7  1  0  0  0  0
  7  8  1  0  0  0  0
  7  9  1  0  0  0  0
  9 10  1  0  0  0  0
  9 11  1  0  0  0  0
  9 16  1  0  0  0  0
 11 12  1  0  0  0  0
 11 13  1  0  0  0  0
 11 14  1  0  0  0  0
 14 15  1  0  0  0  0
 16 17  2  0  0  0  0
 16 18  1  0  0  0  0
 18 19  1  0  0  0  0
 18 20  1  0  0  0  0
 20 21  1  0  0  0  0
 20 22  1  0  0  0  0
 20 23  1  0  0  0  0
M  END
$$$$

  -OEChem-01062216073D

 23 22  0     1  0  0  0  0  0999 V2000
   -3.0685   -3.3668    1.2214 H   0  0  0  0  0  0  0  0  0  0  0  0
   -2.9449   -2.3626    0.8060 C   0  0  0  0  0  0  0  0  0  0  0  0
   -3.6070   -1.6770    1.3404 H   0  0  0  0  0  0  0  0  0  0  0  0
   -3.2269   -2.3828   -0.2495 H   0  0  0  0  0  0  0  0  0  0  0  0
   -1.5044   -1.9094    0.9498 C   0  0  0  0  0  0  0  0  0  0  0  0
   -0.7163   -2.6086    1.5656 O   0  0  0  0  0  0  0  0  0  0  0  0
   -1.1355   -0.6742    0.4530 N   0  0  0  0  0  0  0  0  0  0  0  0
   -1.8899   -0.1276    0.0467 H   0  0  0  0  0  0  0  0  0  0  0  0
    0.2177   -0.0746    0.3827 C   0  0  1  0  0  0  0  0  0  0  0  0
    0.1660    0.7747   -0.3067 H   0  0  0  0  0  0  0  0  0  0  0  0
    0.5773    0.4674    1.7726 C   0  0  0  0  0  0  0  0  0  0  0  0
    0.5134   -0.3321    2.5183 H   0  0  0  0  0  0  0  0  0  0  0  0
    1.6082    0.8383    1.7673 H   0  0  0  0  0  0  0  0  0  0  0  0
   -0.5535    1.8480    2.2280 S   0  0  0  0  0  0  0  0  0  0  0  0
   -0.0831    2.1673    3.4539 H   0  0  0  0  0  0  0  0  0  0  0  0
    1.3880   -0.9568   -0.1245 C   0  0  0  0  0  0  0  0  0  0  0  0
    2.0434   -0.5617   -1.0799 O   0  0  0  0  0  0  0  0  0  0  0  0
    1.7730   -2.1281    0.4975 N   0  0  0  0  0  0  0  0  0  0  0  0
    1.0959   -2.5130    1.1615 H   0  0  0  0  0  0  0  0  0  0  0  0
    2.8206   -3.0025   -0.0126 C   0  0  0  0  0  0  0  0  0  0  0  0
    3.7661   -2.4576   -0.1038 H   0  0  0  0  0  0  0  0  0  0  0  0
    2.9733   -3.8431    0.6709 H   0  0  0  0  0  0  0  0  0  0  0  0
    2.5451   -3.3983   -0.9956 H   0  0  0  0  0  0  0  0  0  0  0  0
  1  2  1  0  0  0  0
  2  3  1  0  0  0  0
  2  4  1  0  0  0  0
  2  5  1  0  0  0  0
  5  6  2  0  0  0  0
  5  7  1  0  0  0  0
  7  8  1  0  0  0  0
  7  9  1  0  0  0  0
  9 10  1  0  0  0  0
  9 11  1  0  0  0  0
  9 16  1  0  0  0  0
 11 12  1  0  0  0  0
 11 13  1  0  0  0  0
 11 14  1  0  0  0  0
 14 15  1  0  0  0  0
 16 17  2  0  0  0  0
 16 18  1  0  0  0  0
 18 19  1  0  0  0  0
 18 20  1  0  0  0  0
 20 21  1  0  0  0  0
 20 22  1  0  0  0  0
 20 23  1  0  0  0  0
M  END
$$$$

  -OEChem-01062216073D

 23 22  0     1  0  0  0  0  0999 V2000
   -3.1806   -3.3021    1.2782 H   0  0  0  0  0  0  0  0  0  0  0  0
   -3.0273   -2.3083    0.8477 C   0  0  0  0  0  0  0  0  0  0  0  0
   -3.6513   -1.5915    1.3873 H   0  0  0  0  0  0  0  0  0  0  0  0
   -3.3317   -2.3295   -0.2015 H   0  0  0  0  0  0  0  0  0  0  0  0
   -1.5677   -1.9095    0.9560 C   0  0  0  0  0  0  0  0  0  0  0  0
   -0.7931   -2.6408    1.5503 O   0  0  0  0  0  0  0  0  0  0  0  0
   -1.1687   -0.6854    0.4548 N   0  0  0  0  0  0  0  0  0  0  0  0
   -1.9201   -0.1079    0.0880 H   0  0  0  0  0  0  0  0  0  0  0  0
    0.1942   -0.1083    0.3605 C   0  0  1  0  0  0  0  0  0  0  0  0
    0.1400    0.7436   -0.3254 H   0  0  0  0  0  0  0  0  0  0  0  0
    0.5776    0.4227    1.7477 C   0  0  0  0  0  0  0  0  0  0  0  0
    0.5125   -0.3798    2.4904 H   0  0  0  0  0  0  0  0  0  0  0  0
    1.6131    0.7804    1.7313 H   0  0  0  0  0  0  0  0  0  0  0  0
   -0.5275    1.8184    2.2209 S   0  0  0  0  0  0  0  0  0  0  0  0
   -0.0259    2.1399    3.4337 H   0  0  0  0  0  0  0  0  0  0  0  0
    1.3635   -0.9850   -0.1616 C   0  0  0  0  0  0  0  0  0  0  0  0
    2.1630   -0.4751   -0.9358 O   0  0  0  0  0  0  0  0  0  0  0  0
    1.5917   -2.2857    0.2392 N   0  0  0  0  0  0  0  0  0  0  0  0
    0.8921   -2.6994    0.8604 H   0  0  0  0  0  0  0  0  0  0  0  0
    2.6856   -3.1137   -0.2500 C   0  0  0  0  0  0  0  0  0  0  0  0
    3.6493   -2.6330   -0.0518 H   0  0  0  0  0  0  0  0  0  0  0  0
    2.6761   -4.0858    0.2524 H   0  0  0  0  0  0  0  0  0  0  0  0
    2.5878   -3.2785   -1.3280 H   0  0  0  0  0  0  0  0  0  0  0  0
  1  2  1  0  0  0  0
  2  3  1  0  0  0  0
  2  4  1  0  0  0  0
  2  5  1  0  0  0  0
  5  6  2  0  0  0  0
  5  7  1  0  0  0  0
  7  8  1  0  0  0  0
  7  9  1  0  0  0  0
  9 10  1  0  0  0  0
  9 11  1  0  0  0  0
  9 16  1  0  0  0  0
 11 12  1  0  0  0  0
 11 13  1  0  0  0  0
 11 14  1  0  0  0  0
 14 15  1  0  0  0  0
 16 17  2  0  0  0  0
 16 18  1  0  0  0  0
 18 19  1  0  0  0  0
 18 20  1  0  0  0  0
 20 21  1  0  0  0  0
 20 22  1  0  0  0  0
 20 23  1  0  0  0  0
M  END
$$$$

  -OEChem-01062216073D

 23 22  0     1  0  0  0  0  0999 V2000
   -3.2644   -3.2561    1.2038 H   0  0  0  0  0  0  0  0  0  0  0  0
   -3.0887   -2.2562    0.7968 C   0  0  0  0  0  0  0  0  0  0  0  0
   -3.6786   -1.5355    1.3683 H   0  0  0  0  0  0  0  0  0  0  0  0
   -3.4149   -2.2396   -0.2459 H   0  0  0  0  0  0  0  0  0  0  0  0
   -1.6157   -1.9052    0.8861 C   0  0  0  0  0  0  0  0  0  0  0  0
   -0.8505   -2.6805    1.4346 O   0  0  0  0  0  0  0  0  0  0  0  0
   -1.1904   -0.6759    0.4211 N   0  0  0  0  0  0  0  0  0  0  0  0
   -1.9333   -0.0600    0.1024 H   0  0  0  0  0  0  0  0  0  0  0  0
    0.1833   -0.1194    0.3513 C   0  0  1  0  0  0  0  0  0  0  0  0
    0.1475    0.7526   -0.3102 H   0  0  0  0  0  0  0  0  0  0  0  0
    0.5567    0.3640    1.7590 C   0  0  0  0  0  0  0  0  0  0  0  0
    0.4716   -0.4597    2.4760 H   0  0  0  0  0  0  0  0  0  0  0  0
    1.5971    0.7075    1.7672 H   0  0  0  0  0  0  0  0  0  0  0  0
   -0.5338    1.7618    2.2592 S   0  0  0  0  0  0  0  0  0  0  0  0
   -0.0298    2.0496    3.4793 H   0  0  0  0  0  0  0  0  0  0  0  0
    1.3544   -0.9874   -0.1842 C   0  0  0  0  0  0  0  0  0  0  0  0
    2.2947   -0.4095   -0.7141 O   0  0  0  0  0  0  0  0  0  0  0  0
    1.4251   -2.3614   -0.0718 N   0  0  0  0  0  0  0  0  0  0  0  0
    0.6940   -2.8047    0.4887 H   0  0  0  0  0  0  0  0  0  0  0  0
    2.5776   -3.1541   -0.4798 C   0  0  0  0  0  0  0  0  0  0  0  0
    3.4659   -2.8608    0.0892 H   0  0  0  0  0  0  0  0  0  0  0  0
    2.3861   -4.2164   -0.3007 H   0  0  0  0  0  0  0  0  0  0  0  0
    2.7800   -3.0157   -1.5470 H   0  0  0  0  0  0  0  0  0  0  0  0
  1  2  1  0  0  0  0
  2  3  1  0  0  0  0
  2  4  1  0  0  0  0
  2  5  1  0  0  0  0
  5  6  2  0  0  0  0
  5  7  1  0  0  0  0
  7  8  1  0  0  0  0
  7  9  1  0  0  0  0
  9 10  1  0  0  0  0
  9 11  1  0  0  0  0
  9 16  1  0  0  0  0
 11 12  1  0  0  0  0
 11 13  1  0  0  0  0
 11 14  1  0  0  0  0
 14 15  1  0  0  0  0
 16 17  2  0  0  0  0
 16 18  1  0  0  0  0
 18 19  1  0  0  0  0
 18 20  1  0  0  0  0
 20 21  1  0  0  0  0
 20 22  1  0  0  0  0
 20 23  1  0  0  0  0
M  END
$$$$

  -OEChem-01062216073D

 23 22  0     1  0  0  0  0  0999 V2000
   -3.2352   -3.2430    1.3542 H   0  0  0  0  0  0  0  0  0  0  0  0
   -3.0804   -2.2458    0.9323 C   0  0  0  0  0  0  0  0  0  0  0  0
   -3.6175   -1.5181    1.5456 H   0  0  0  0  0  0  0  0  0  0  0  0
   -3.4847   -2.2270   -0.0827 H   0  0  0  0  0  0  0  0  0  0  0  0
   -1.6014   -1.9105    0.9079 C   0  0  0  0  0  0  0  0  0  0  0  0
   -0.8013   -2.7074    1.3679 O   0  0  0  0  0  0  0  0  0  0  0  0
   -1.1999   -0.6797    0.4262 N   0  0  0  0  0  0  0  0  0  0  0  0
   -1.9587   -0.0445    0.1938 H   0  0  0  0  0  0  0  0  0  0  0  0
    0.1692   -0.1182    0.3128 C   0  0  1  0  0  0  0  0  0  0  0  0
    0.1122    0.7500   -0.3514 H   0  0  0  0  0  0  0  0  0  0  0  0
    0.5713    0.3712    1.7116 C   0  0  0  0  0  0  0  0  0  0  0  0
    0.5073   -0.4510    2.4325 H   0  0  0  0  0  0  0  0  0  0  0  0
    1.6094    0.7220    1.6983 H   0  0  0  0  0  0  0  0  0  0  0  0
   -0.5177    1.7641    2.2303 S   0  0  0  0  0  0  0  0  0  0  0  0
    0.0171    2.0660    3.4340 H   0  0  0  0  0  0  0  0  0  0  0  0
    1.3286   -0.9819   -0.2562 C   0  0  0  0  0  0  0  0  0  0  0  0
    2.3478   -0.4055   -0.6157 O   0  0  0  0  0  0  0  0  0  0  0  0
    1.2747   -2.3533   -0.4077 N   0  0  0  0  0  0  0  0  0  0  0  0
    0.5181   -2.8167    0.0992 H   0  0  0  0  0  0  0  0  0  0  0  0
    2.4093   -3.1582   -0.8412 C   0  0  0  0  0  0  0  0  0  0  0  0
    3.2457   -3.0503   -0.1428 H   0  0  0  0  0  0  0  0  0  0  0  0
    2.1261   -4.2143   -0.8835 H   0  0  0  0  0  0  0  0  0  0  0  0
    2.7399   -2.8502   -1.8386 H   0  0  0  0  0  0  0  0  0  0  0  0
  1  2  1  0  0  0  0
  2  3  1  0  0  0  0
  2  4  1  0  0  0  0
  2  5  1  0  0  0  0
  5  6  2  0  0  0  0
  5  7  1  0  0  0  0
  7  8  1  0  0  0  0
  7  9  1  0  0  0  0
  9 10  1  0  0  0  0
  9 11  1  0  0  0  0
  9 16  1  0  0  0  0
 11 12  1  0  0  0  0
 11 13  1  0  0  0  0
 11 14  1  0  0  0  0
 14 15  1  0  0  0  0
 16 17  2  0  0  0  0
 16 18  1  0  0  0  0
 18 19  1  0  0  0  0
 18 20  1  0  0  0  0
 20 21  1  0  0  0  0
 20 22  1  0  0  0  0
 20 23  1  0  0  0  0
M  END
$$$$

  -OEChem-01062216073D

 23 22  0     1  0  0  0  0  0999 V2000
   -3.1887   -3.2515    1.3638 H   0  0  0  0  0  0  0  0  0  0  0  0
   -3.0507   -2.2446    0.9597 C   0  0  0  0  0  0  0  0  0  0  0  0
   -3.5515   -1.5304    1.6179 H   0  0  0  0  0  0  0  0  0  0  0  0
   -3.5066   -2.1981   -0.0322 H   0  0  0  0  0  0  0  0  0  0  0  0
   -1.5732   -1.9151    0.8667 C   0  0  0  0  0  0  0  0  0  0  0  0
   -0.7512   -2.7388    1.2297 O   0  0  0  0  0  0  0  0  0  0  0  0
   -1.1890   -0.6737    0.3993 N   0  0  0  0  0  0  0  0  0  0  0  0
   -1.9527   -0.0204    0.2467 H   0  0  0  0  0  0  0  0  0  0  0  0
    0.1766   -0.1023    0.3017 C   0  0  1  0  0  0  0  0  0  0  0  0
    0.1236    0.7713   -0.3556 H   0  0  0  0  0  0  0  0  0  0  0  0
    0.5575    0.3731    1.7125 C   0  0  0  0  0  0  0  0  0  0  0  0
    0.4922   -0.4589    2.4218 H   0  0  0  0  0  0  0  0  0  0  0  0
    1.5919    0.7340    1.7192 H   0  0  0  0  0  0  0  0  0  0  0  0
   -0.5491    1.7507    2.2343 S   0  0  0  0  0  0  0  0  0  0  0  0
   -0.0228    2.0482    3.4429 H   0  0  0  0  0  0  0  0  0  0  0  0
    1.3372   -0.9634   -0.2699 C   0  0  0  0  0  0  0  0  0  0  0  0
    2.4291   -0.4316   -0.4313 O   0  0  0  0  0  0  0  0  0  0  0  0
    1.1772   -2.2646   -0.7055 N   0  0  0  0  0  0  0  0  0  0  0  0
    0.3738   -2.7449   -0.2972 H   0  0  0  0  0  0  0  0  0  0  0  0
    2.2894   -3.0823   -1.1731 C   0  0  0  0  0  0  0  0  0  0  0  0
    3.0368   -3.2028   -0.3819 H   0  0  0  0  0  0  0  0  0  0  0  0
    1.9304   -4.0735   -1.4661 H   0  0  0  0  0  0  0  0  0  0  0  0
    2.7675   -2.6189   -2.0425 H   0  0  0  0  0  0  0  0  0  0  0  0
  1  2  1  0  0  0  0
  2  3  1  0  0  0  0
  2  4  1  0  0  0  0
  2  5  1  0  0  0  0
  5  6  2  0  0  0  0
  5  7  1  0  0  0  0
  7  8  1  0  0  0  0
  7  9  1  0  0  0  0
  9 10  1  0  0  0  0
  9 11  1  0  0  0  0
  9 16  1  0  0  0  0
 11 12  1  0  0  0  0
 11 13  1  0  0  0  0
 11 14  1  0  0  0  0
 14 15  1  0  0  0  0
 16 17  2  0  0  0  0
 16 18  1  0  0  0  0
 18 19  1  0  0  0  0
 18 20  1  0  0  0  0
 20 21  1  0  0  0  0
 20 22  1  0  0  0  0
 20 23  1  0  0  0  0
M  END
$$$$

  -OEChem-01062216073D

 23 22  0     1  0  0  0  0  0999 V2000
   -3.1054   -3.2750    1.3739 H   0  0  0  0  0  0  0  0  0  0  0  0
   -2.9939   -2.2588    0.9849 C   0  0  0  0  0  0  0  0  0  0  0  0
   -3.4552   -1.5615    1.6885 H   0  0  0  0  0  0  0  0  0  0  0  0
   -3.5099   -2.1916    0.0241 H   0  0  0  0  0  0  0  0  0  0  0  0
   -1.5249   -1.9232    0.8102 C   0  0  0  0  0  0  0  0  0  0  0  0
   -0.6821   -2.7646    1.0672 O   0  0  0  0  0  0  0  0  0  0  0  0
   -1.1661   -0.6663    0.3637 N   0  0  0  0  0  0  0  0  0  0  0  0
   -1.9340   -0.0031    0.2967 H   0  0  0  0  0  0  0  0  0  0  0  0
    0.1949   -0.0804    0.2968 C   0  0  1  0  0  0  0  0  0  0  0  0
    0.1507    0.7986   -0.3537 H   0  0  0  0  0  0  0  0  0  0  0  0
    0.5409    0.3835    1.7214 C   0  0  0  0  0  0  0  0  0  0  0  0
    0.4705   -0.4573    2.4197 H   0  0  0  0  0  0  0  0  0  0  0  0
    1.5698    0.7580    1.7566 H   0  0  0  0  0  0  0  0  0  0  0  0
   -0.5935    1.7427    2.2315 S   0  0  0  0  0  0  0  0  0  0  0  0
   -0.0886    2.0435    3.4486 H   0  0  0  0  0  0  0  0  0  0  0  0
    1.3556   -0.9433   -0.2723 C   0  0  0  0  0  0  0  0  0  0  0  0
    2.5009   -0.5101   -0.2232 O   0  0  0  0  0  0  0  0  0  0  0  0
    1.1235   -2.1028   -0.9877 N   0  0  0  0  0  0  0  0  0  0  0  0
    0.2527   -2.5673   -0.7323 H   0  0  0  0  0  0  0  0  0  0  0  0
    2.2062   -2.9399   -1.4893 C   0  0  0  0  0  0  0  0  0  0  0  0
    2.8244   -3.3038   -0.6619 H   0  0  0  0  0  0  0  0  0  0  0  0
    1.7975   -3.8026   -2.0237 H   0  0  0  0  0  0  0  0  0  0  0  0
    2.8399   -2.3756   -2.1816 H   0  0  0  0  0  0  0  0  0  0  0  0
  1  2  1  0  0  0  0
  2  3  1  0  0  0  0
  2  4  1  0  0  0  0
  2  5  1  0  0  0  0
  5  6  2  0  0  0  0
  5  7  1  0  0  0  0
  7  8  1  0  0  0  0
  7  9  1  0  0  0  0
  9 10  1  0  0  0  0
  9 11  1  0  0  0  0
  9 16  1  0  0  0  0
 11 12  1  0  0  0  0
 11 13  1  0  0  0  0
 11 14  1  0  0  0  0
 14 15  1  0  0  0  0
 16 17  2  0  0  0  0
 16 18  1  0  0  0  0
 18 19  1  0  0  0  0
 18 20  1  0  0  0  0
 20 21  1  0  0  0  0
 20 22  1  0  0  0  0
 20 23  1  0  0  0  0
M  END
$$$$

  -OEChem-01062216073D

 23 22  0     1  0  0  0  0  0999 V2000
   -3.0025   -3.3154    1.3594 H   0  0  0  0  0  0  0  0  0  0  0  0
   -2.9202   -2.2940    0.9770 C   0  0  0  0  0  0  0  0  0  0  0  0
   -3.3803   -1.6124    1.6967 H   0  0  0  0  0  0  0  0  0  0  0  0
   -3.4578   -2.2289    0.0279 H   0  0  0  0  0  0  0  0  0  0  0  0
   -1.4622   -1.9278    0.7741 C   0  0  0  0  0  0  0  0  0  0  0  0
   -0.5981   -2.7591    0.9872 O   0  0  0  0  0  0  0  0  0  0  0  0
   -1.1368   -0.6562    0.3431 N   0  0  0  0  0  0  0  0  0  0  0  0
   -1.9135    0.0002    0.3259 H   0  0  0  0  0  0  0  0  0  0  0  0
    0.2161   -0.0525    0.3024 C   0  0  1  0  0  0  0  0  0  0  0  0
    0.1771    0.8295   -0.3435 H   0  0  0  0  0  0  0  0  0  0  0  0
    0.5362    0.4071    1.7351 C   0  0  0  0  0  0  0  0  0  0  0  0
    0.4693   -0.4391    2.4273 H   0  0  0  0  0  0  0  0  0  0  0  0
    1.5584    0.7974    1.7878 H   0  0  0  0  0  0  0  0  0  0  0  0
   -0.6245    1.7484    2.2341 S   0  0  0  0  0  0  0  0  0  0  0  0
   -0.1487    2.0423    3.4645 H   0  0  0  0  0  0  0  0  0  0  0  0
    1.3696   -0.9236   -0.2663 C   0  0  0  0  0  0  0  0  0  0  0  0
    2.5355   -0.6511   -0.0040 O   0  0  0  0  0  0  0  0  0  0  0  0
    1.1173   -1.8807   -1.2319 N   0  0  0  0  0  0  0  0  0  0  0  0
    0.1672   -2.2419   -1.2172 H   0  0  0  0  0  0  0  0  0  0  0  0
    2.1630   -2.7511   -1.7553 C   0  0  0  0  0  0  0  0  0  0  0  0
    2.6027   -3.3482   -0.9493 H   0  0  0  0  0  0  0  0  0  0  0  0
    1.7479   -3.4309   -2.5053 H   0  0  0  0  0  0  0  0  0  0  0  0
    2.9543   -2.1600   -2.2283 H   0  0  0  0  0  0  0  0  0  0  0  0
  1  2  1  0  0  0  0
  2  3  1  0  0  0  0
  2  4  1  0  0  0  0
  2  5  1  0  0  0  0
  5  6  2  0  0  0  0
  5  7  1  0  0  0  0
  7  8  1  0  0  0  0
  7  9  1  0  0  0  0
  9 10  1  0  0  0  0
  9 11  1  0  0  0  0
  9 16  1  0  0  0  0
 11 12  1  0  0  0  0
 11 13  1  0  0  0  0
 11 14  1  0  0  0  0
 14 15  1  0  0  0  0
 16 17  2  0  0  0  0
 16 18  1  0  0  0  0
 18 19  1  0  0  0  0
 18 20  1  0  0  0  0
 20 21  1  0  0  0  0
 20 22  1  0  0  0  0
 20 23  1  0  0  0  0
M  END
$$$$

  -OEChem-01062216073D

 23 22  0     1  0  0  0  0  0999 V2000
   -2.9239   -3.3543    1.3310 H   0  0  0  0  0  0  0  0  0  0  0  0
   -2.8610   -2.3263    0.9629 C   0  0  0  0  0  0  0  0  0  0  0  0
   -3.3246   -1.6622    1.6965 H   0  0  0  0  0  0  0  0  0  0  0  0
   -3.4082   -2.2561    0.0198 H   0  0  0  0  0  0  0  0  0  0  0  0
   -1.4106   -1.9347    0.7531 C   0  0  0  0  0  0  0  0  0  0  0  0
   -0.5319   -2.7509    0.9641 O   0  0  0  0  0  0  0  0  0  0  0  0
   -1.1109   -0.6537    0.3290 N   0  0  0  0  0  0  0  0  0  0  0  0
   -1.8965   -0.0080    0.3358 H   0  0  0  0  0  0  0  0  0  0  0  0
    0.2336   -0.0334    0.3094 C   0  0  1  0  0  0  0  0  0  0  0  0
    0.1982    0.8483   -0.3373 H   0  0  0  0  0  0  0  0  0  0  0  0
    0.5330    0.4299    1.7451 C   0  0  0  0  0  0  0  0  0  0  0  0
    0.4690   -0.4173    2.4366 H   0  0  0  0  0  0  0  0  0  0  0  0
    1.5503    0.8310    1.8072 H   0  0  0  0  0  0  0  0  0  0  0  0
   -0.6485    1.7575    2.2312 S   0  0  0  0  0  0  0  0  0  0  0  0
   -0.1996    2.0428    3.4737 H   0  0  0  0  0  0  0  0  0  0  0  0
    1.3828   -0.9127   -0.2524 C   0  0  0  0  0  0  0  0  0  0  0  0
    2.5192   -0.8371    0.2010 O   0  0  0  0  0  0  0  0  0  0  0  0
    1.1805   -1.6298   -1.4174 N   0  0  0  0  0  0  0  0  0  0  0  0
    0.2083   -1.8071   -1.6499 H   0  0  0  0  0  0  0  0  0  0  0  0
    2.1932   -2.5210   -1.9697 C   0  0  0  0  0  0  0  0  0  0  0  0
    2.4336   -3.3152   -1.2547 H   0  0  0  0  0  0  0  0  0  0  0  0
    1.8289   -2.9821   -2.8926 H   0  0  0  0  0  0  0  0  0  0  0  0
    3.1085   -1.9659   -2.2011 H   0  0  0  0  0  0  0  0  0  0  0  0
  1  2  1  0  0  0  0
  2  3  1  0  0  0  0
  2  4  1  0  0  0  0
  2  5  1  0  0  0  0
  5  6  2  0  0  0  0
  5  7  1  0  0  0  0
  7  8  1  0  0  0  0
  7  9  1  0  0  0  0
  9 10  1  0  0  0  0
  9 11  1  0  0  0  0
  9 16  1  0  0  0  0
 11 12  1  0  0  0  0
 11 13  1  0  0  0  0
 11 14  1  0  0  0  0
 14 15  1  0  0  0  0
 16 17  2  0  0  0  0
 16 18  1  0  0  0  0
 18 19  1  0  0  0  0
 18 20  1  0  0  0  0
 20 21  1  0  0  0  0
 20 22  1  0  0  0  0
 20 23  1  0  0  0  0
M  END
$$$$

  -OEChem-01062216073D

 23 22  0     1  0  0  0  0  0999 V2000
   -2.9055   -3.3624    1.3320 H   0  0  0  0  0  0  0  0  0  0  0  0
   -2.8449   -2.3388    0.9515 C   0  0  0  0  0  0  0  0  0  0  0  0
   -3.3215   -1.6684    1.6708 H   0  0  0  0  0  0  0  0  0  0  0  0
   -3.3805   -2.2844    0.0008 H   0  0  0  0  0  0  0  0  0  0  0  0
   -1.3948   -1.9400    0.7536 C   0  0  0  0  0  0  0  0  0  0  0  0
   -0.5154   -2.7522    0.9747 O   0  0  0  0  0  0  0  0  0  0  0  0
   -1.0996   -0.6587    0.3269 N   0  0  0  0  0  0  0  0  0  0  0  0
   -1.8881   -0.0168    0.3310 H   0  0  0  0  0  0  0  0  0  0  0  0
    0.2422   -0.0350    0.3161 C   0  0  1  0  0  0  0  0  0  0  0  0
    0.2127    0.8455   -0.3324 H   0  0  0  0  0  0  0  0  0  0  0  0
    0.5333    0.4347    1.7514 C   0  0  0  0  0  0  0  0  0  0  0  0
    0.4666   -0.4105    2.4452 H   0  0  0  0  0  0  0  0  0  0  0  0
    1.5509    0.8353    1.8150 H   0  0  0  0  0  0  0  0  0  0  0  0
   -0.6526    1.7620    2.2282 S   0  0  0  0  0  0  0  0  0  0  0  0
   -0.2139    2.0475    3.4748 H   0  0  0  0  0  0  0  0  0  0  0  0
    1.3881   -0.9241   -0.2355 C   0  0  0  0  0  0  0  0  0  0  0  0
    2.4561   -1.0358    0.3560 O   0  0  0  0  0  0  0  0  0  0  0  0
    1.3025   -1.3883   -1.5356 N   0  0  0  0  0  0  0  0  0  0  0  0
    0.3729   -1.3903   -1.9429 H   0  0  0  0  0  0  0  0  0  0  0  0
    2.3223   -2.2435   -2.1304 C   0  0  0  0  0  0  0  0  0  0  0  0
    2.4295   -3.1682   -1.5533 H   0  0  0  0  0  0  0  0  0  0  0  0
    2.0462   -2.5040   -3.1565 H   0  0  0  0  0  0  0  0  0  0  0  0
    3.2890   -1.7295   -2.1546 H   0  0  0  0  0  0  0  0  0  0  0  0
  1  2  1  0  0  0  0
  2  3  1  0  0  0  0
  2  4  1  0  0  0  0
  2  5  1  0  0  0  0
  5  6  2  0  0  0  0
  5  7  1  0  0  0  0
  7  8  1  0  0  0  0
  7  9  1  0  0  0  0
  9 10  1  0  0  0  0
  9 11  1  0  0  0  0
  9 16  1  0  0  0  0
 11 12  1  0  0  0  0
 11 13  1  0  0  0  0
 11 14  1  0  0  0  0
 14 15  1  0  0  0  0
 16 17  2  0  0  0  0
 16 18  1  0  0  0  0
 18 19  1  0  0  0  0
 18 20  1  0  0  0  0
 20 21  1  0  0  0  0
 20 22  1  0  0  0  0
 20 23  1  0  0  0  0
M  END
$$$$

  -OEChem-01062216073D

 23 22  0     1  0  0  0  0  0999 V2000
   -2.9254   -3.3532    1.3529 H   0  0  0  0  0  0  0  0  0  0  0  0
   -2.8574   -2.3324    0.9664 C   0  0  0  0  0  0  0  0  0  0  0  0
   -3.3230   -1.6537    1.6853 H   0  0  0  0  0  0  0  0  0  0  0  0
   -3.3982   -2.2781    0.0187 H   0  0  0  0  0  0  0  0  0  0  0  0
   -1.4047   -1.9490    0.7571 C   0  0  0  0  0  0  0  0  0  0  0  0
   -0.5331   -2.7692    0.9771 O   0  0  0  0  0  0  0  0  0  0  0  0
   -1.1019   -0.6719    0.3236 N   0  0  0  0  0  0  0  0  0  0  0  0
   -1.8882   -0.0275    0.3249 H   0  0  0  0  0  0  0  0  0  0  0  0
    0.2412   -0.0526    0.3103 C   0  0  1  0  0  0  0  0  0  0  0  0
    0.2125    0.8274   -0.3388 H   0  0  0  0  0  0  0  0  0  0  0  0
    0.5338    0.4225    1.7428 C   0  0  0  0  0  0  0  0  0  0  0  0
    0.4627   -0.4192    2.4406 H   0  0  0  0  0  0  0  0  0  0  0  0
    1.5543    0.8163    1.8033 H   0  0  0  0  0  0  0  0  0  0  0  0
   -0.6478    1.7556    2.2131 S   0  0  0  0  0  0  0  0  0  0  0  0
   -0.2204    2.0302    3.4659 H   0  0  0  0  0  0  0  0  0  0  0  0
    1.3889   -0.9445   -0.2336 C   0  0  0  0  0  0  0  0  0  0  0  0
    2.3606   -1.2345    0.4555 O   0  0  0  0  0  0  0  0  0  0  0  0
    1.4717   -1.1549   -1.5985 N   0  0  0  0  0  0  0  0  0  0  0  0
    0.6253   -0.9851   -2.1321 H   0  0  0  0  0  0  0  0  0  0  0  0
    2.5356   -1.9416   -2.2111 C   0  0  0  0  0  0  0  0  0  0  0  0
    2.5336   -2.9623   -1.8140 H   0  0  0  0  0  0  0  0  0  0  0  0
    2.3946   -1.9900   -3.2950 H   0  0  0  0  0  0  0  0  0  0  0  0
    3.5124   -1.4883   -2.0115 H   0  0  0  0  0  0  0  0  0  0  0  0
  1  2  1  0  0  0  0
  2  3  1  0  0  0  0
  2  4  1  0  0  0  0
  2  5  1  0  0  0  0
  5  6  2  0  0  0  0
  5  7  1  0  0  0  0
  7  8  1  0  0  0  0
  7  9  1  0  0  0  0
  9 10  1  0  0  0  0
  9 11  1  0  0  0  0
  9 16  1  0  0  0  0
 11 12  1  0  0  0  0
 11 13  1  0  0  0  0
 11 14  1  0  0  0  0
 14 15  1  0  0  0  0
 16 17  2  0  0  0  0
 16 18  1  0  0  0  0
 18 19  1  0  0  0  0
 18 20  1  0  0  0  0
 20 21  1  0  0  0  0
 20 22  1  0  0  0  0
 20 23  1  0  0  0  0
M  END
$$$$

  -OEChem-01062216073D

 23 22  0     1  0  0  0  0  0999 V2000
   -2.9570   -3.3452    1.3701 H   0  0  0  0  0  0  0  0  0  0  0  0
   -2.8796   -2.3287    0.9739 C   0  0  0  0  0  0  0  0  0  0  0  0
   -3.3422   -1.6392    1.6842 H   0  0  0  0  0  0  0  0  0  0  0  0
   -3.4165   -2.2795    0.0237 H   0  0  0  0  0  0  0  0  0  0  0  0
   -1.4229   -1.9590    0.7660 C   0  0  0  0  0  0  0  0  0  0  0  0
   -0.5616   -2.7882    0.9892 O   0  0  0  0  0  0  0  0  0  0  0  0
   -1.1103   -0.6869    0.3248 N   0  0  0  0  0  0  0  0  0  0  0  0
   -1.8935   -0.0393    0.3195 H   0  0  0  0  0  0  0  0  0  0  0  0
    0.2349   -0.0726    0.2999 C   0  0  1  0  0  0  0  0  0  0  0  0
    0.2004    0.8077   -0.3485 H   0  0  0  0  0  0  0  0  0  0  0  0
    0.5420    0.4060    1.7277 C   0  0  0  0  0  0  0  0  0  0  0  0
    0.4712   -0.4338    2.4281 H   0  0  0  0  0  0  0  0  0  0  0  0
    1.5662    0.7913    1.7773 H   0  0  0  0  0  0  0  0  0  0  0  0
   -0.6281    1.7461    2.2063 S   0  0  0  0  0  0  0  0  0  0  0  0
   -0.1967    2.0115    3.4597 H   0  0  0  0  0  0  0  0  0  0  0  0
    1.3870   -0.9604   -0.2424 C   0  0  0  0  0  0  0  0  0  0  0  0
    2.2463   -1.4223    0.4998 O   0  0  0  0  0  0  0  0  0  0  0  0
    1.6639   -0.9275   -1.5982 N   0  0  0  0  0  0  0  0  0  0  0  0
    0.9287   -0.5812   -2.2061 H   0  0  0  0  0  0  0  0  0  0  0  0
    2.7830   -1.6477   -2.1949 C   0  0  0  0  0  0  0  0  0  0  0  0
    2.7023   -2.7200   -1.9865 H   0  0  0  0  0  0  0  0  0  0  0  0
    2.7906   -1.5043   -3.2796 H   0  0  0  0  0  0  0  0  0  0  0  0
    3.7335   -1.2812   -1.7925 H   0  0  0  0  0  0  0  0  0  0  0  0
  1  2  1  0  0  0  0
  2  3  1  0  0  0  0
  2  4  1  0  0  0  0
  2  5  1  0  0  0  0
  5  6  2  0  0  0  0
  5  7  1  0  0  0  0
  7  8  1  0  0  0  0
  7  9  1  0  0  0  0
  9 10  1  0  0  0  0
  9 11  1  0  0  0  0
  9 16  1  0  0  0  0
 11 12  1  0  0  0  0
 11 13  1  0  0  0  0
 11 14  1  0  0  0  0
 14 15  1  0  0  0  0
 16 17  2  0  0  0  0
 16 18  1  0  0  0  0
 18 19  1  0  0  0  0
 18 20  1  0  0  0  0
 20 21  1  0  0  0  0
 20 22  1  0  0  0  0
 20 23  1  0  0  0  0
M  END
$$$$

  -OEChem-01062216073D

 23 22  0     1  0  0  0  0  0999 V2000
   -3.0029   -3.3353    1.3844 H   0  0  0  0  0  0  0  0  0  0  0  0
   -2.9099   -2.3250    0.9754 C   0  0  0  0  0  0  0  0  0  0  0  0
   -3.3779   -1.6218    1.6684 H   0  0  0  0  0  0  0  0  0  0  0  0
   -3.4309   -2.2847    0.0160 H   0  0  0  0  0  0  0  0  0  0  0  0
   -1.4468   -1.9707    0.7864 C   0  0  0  0  0  0  0  0  0  0  0  0
   -0.6001   -2.8051    1.0389 O   0  0  0  0  0  0  0  0  0  0  0  0
   -1.1190   -0.7066    0.3329 N   0  0  0  0  0  0  0  0  0  0  0  0
   -1.9000   -0.0576    0.2999 H   0  0  0  0  0  0  0  0  0  0  0  0
    0.2289   -0.0983    0.2868 C   0  0  1  0  0  0  0  0  0  0  0  0
    0.1826    0.7806   -0.3621 H   0  0  0  0  0  0  0  0  0  0  0  0
    0.5584    0.3848    1.7074 C   0  0  0  0  0  0  0  0  0  0  0  0
    0.4913   -0.4522    2.4119 H   0  0  0  0  0  0  0  0  0  0  0  0
    1.5861    0.7623    1.7413 H   0  0  0  0  0  0  0  0  0  0  0  0
   -0.5974    1.7329    2.1989 S   0  0  0  0  0  0  0  0  0  0  0  0
   -0.1525    1.9933    3.4485 H   0  0  0  0  0  0  0  0  0  0  0  0
    1.3875   -0.9777   -0.2577 C   0  0  0  0  0  0  0  0  0  0  0  0
    2.1249   -1.6072    0.4914 O   0  0  0  0  0  0  0  0  0  0  0  0
    1.8631   -0.7243   -1.5336 N   0  0  0  0  0  0  0  0  0  0  0  0
    1.2608   -0.1952   -2.1558 H   0  0  0  0  0  0  0  0  0  0  0  0
    3.0440   -1.3770   -2.0888 C   0  0  0  0  0  0  0  0  0  0  0  0
    2.9173   -2.4650   -2.0852 H   0  0  0  0  0  0  0  0  0  0  0  0
    3.2078   -1.0506   -3.1202 H   0  0  0  0  0  0  0  0  0  0  0  0
    3.9336   -1.1244   -1.5021 H   0  0  0  0  0  0  0  0  0  0  0  0
  1  2  1  0  0  0  0
  2  3  1  0  0  0  0
  2  4  1  0  0  0  0
  2  5  1  0  0  0  0
  5  6  2  0  0  0  0
  5  7  1  0  0  0  0
  7  8  1  0  0  0  0
  7  9  1  0  0  0  0
  9 10  1  0  0  0  0
  9 11  1  0  0  0  0
  9 16  1  0  0  0  0
 11 12  1  0  0  0  0
 11 13  1  0  0  0  0
 11 14  1  0  0  0  0
 14 15  1  0  0  0  0
 16 17  2  0  0  0  0
 16 18  1  0  0  0  0
 18 19  1  0  0  0  0
 18 20  1  0  0  0  0
 20 21  1  0  0  0  0
 20 22  1  0  0  0  0
 20 23  1  0  0  0  0
M  END
$$$$

  -OEChem-01062216073D

 23 22  0     1  0  0  0  0  0999 V2000
   -3.0573   -3.3297    1.3731 H   0  0  0  0  0  0  0  0  0  0  0  0
   -2.9400   -2.3299    0.9453 C   0  0  0  0  0  0  0  0  0  0  0  0
   -3.4508   -1.6103    1.5897 H   0  0  0  0  0  0  0  0  0  0  0  0
   -3.4001   -2.3157   -0.0456 H   0  0  0  0  0  0  0  0  0  0  0  0
   -1.4683   -1.9765    0.8384 C   0  0  0  0  0  0  0  0  0  0  0  0
   -0.6424   -2.7904    1.1997 O   0  0  0  0  0  0  0  0  0  0  0  0
   -1.1211   -0.7253    0.3635 N   0  0  0  0  0  0  0  0  0  0  0  0
   -1.9039   -0.0889    0.2458 H   0  0  0  0  0  0  0  0  0  0  0  0
    0.2280   -0.1206    0.2813 C   0  0  1  0  0  0  0  0  0  0  0  0
    0.1600    0.7536   -0.3719 H   0  0  0  0  0  0  0  0  0  0  0  0
    0.5934    0.3695    1.6896 C   0  0  0  0  0  0  0  0  0  0  0  0
    0.5388   -0.4642    2.3991 H   0  0  0  0  0  0  0  0  0  0  0  0
    1.6234    0.7415    1.6979 H   0  0  0  0  0  0  0  0  0  0  0  0
   -0.5444    1.7244    2.2034 S   0  0  0  0  0  0  0  0  0  0  0  0
   -0.0898    1.9666    3.4532 H   0  0  0  0  0  0  0  0  0  0  0  0
    1.3941   -0.9873   -0.2690 C   0  0  0  0  0  0  0  0  0  0  0  0
    1.9972   -1.7921    0.4279 O   0  0  0  0  0  0  0  0  0  0  0  0
    2.0539   -0.5473   -1.4052 N   0  0  0  0  0  0  0  0  0  0  0  0
    1.5954    0.1623   -1.9672 H   0  0  0  0  0  0  0  0  0  0  0  0
    3.2810   -1.1558   -1.9084 C   0  0  0  0  0  0  0  0  0  0  0  0
    3.1254   -2.2210   -2.1101 H   0  0  0  0  0  0  0  0  0  0  0  0
    3.5916   -0.6694   -2.8380 H   0  0  0  0  0  0  0  0  0  0  0  0
    4.0895   -1.0503   -1.1773 H   0  0  0  0  0  0  0  0  0  0  0  0
  1  2  1  0  0  0  0
  2  3  1  0  0  0  0
  2  4  1  0  0  0  0
  2  5  1  0  0  0  0
  5  6  2  0  0  0  0
  5  7  1  0  0  0  0
  7  8  1  0  0  0  0
  7  9  1  0  0  0  0
  9 10  1  0  0  0  0
  9 11  1  0  0  0  0
  9 16  1  0  0  0  0
 11 12  1  0  0  0  0
 11 13  1  0  0  0  0
 11 14  1  0  0  0  0
 14 15  1  0  0  0  0
 16 17  2  0  0  0  0
 16 18  1  0  0  0  0
 18 19  1  0  0  0  0
 18 20  1  0  0  0  0
 20 21  1  0  0  0  0
 20 22  1  0  0  0  0
 20 23  1  0  0  0  0
M  END
$$$$

  -OEChem-01062216073D

 23 22  0     1  0  0  0  0  0999 V2000
   -2.8597   -3.4744    1.1738 H   0  0  0  0  0  0  0  0  0  0  0  0
   -2.7656   -2.4981    0.6899 C   0  0  0  0  0  0  0  0  0  0  0  0
   -3.5909   -1.8613    1.0168 H   0  0  0  0  0  0  0  0  0  0  0  0
   -2.8235   -2.6372   -0.3921 H   0  0  0  0  0  0  0  0  0  0  0  0
   -1.4394   -1.8605    1.0587 C   0  0  0  0  0  0  0  0  0  0  0  0
   -0.7484   -2.3847    1.9143 O   0  0  0  0  0  0  0  0  0  0  0  0
   -1.1285   -0.6129    0.5475 N   0  0  0  0  0  0  0  0  0  0  0  0
   -1.8429   -0.2202   -0.0561 H   0  0  0  0  0  0  0  0  0  0  0  0
    0.2293   -0.0358    0.4146 C   0  0  1  0  0  0  0  0  0  0  0  0
    0.1443    0.8204   -0.2602 H   0  0  0  0  0  0  0  0  0  0  0  0
    0.6812    0.4961    1.7820 C   0  0  0  0  0  0  0  0  0  0  0  0
    0.6395   -0.3054    2.5275 H   0  0  0  0  0  0  0  0  0  0  0  0
    1.7190    0.8403    1.7278 H   0  0  0  0  0  0  0  0  0  0  0  0
   -0.3930    1.8984    2.3028 S   0  0  0  0  0  0  0  0  0  0  0  0
    0.0300    2.0757    3.5739 H   0  0  0  0  0  0  0  0  0  0  0  0
    1.3584   -0.9307   -0.1657 C   0  0  0  0  0  0  0  0  0  0  0  0
    1.5085   -2.1115    0.1052 O   0  0  0  0  0  0  0  0  0  0  0  0
    2.2036   -0.3865   -1.1188 N   0  0  0  0  0  0  0  0  0  0  0  0
    2.0830    0.5937   -1.3544 H   0  0  0  0  0  0  0  0  0  0  0  0
    3.2775   -1.1365   -1.7613 C   0  0  0  0  0  0  0  0  0  0  0  0
    2.8741   -2.0059   -2.2914 H   0  0  0  0  0  0  0  0  0  0  0  0
    3.8008   -0.5037   -2.4845 H   0  0  0  0  0  0  0  0  0  0  0  0
    4.0019   -1.4829   -1.0166 H   0  0  0  0  0  0  0  0  0  0  0  0
  1  2  1  0  0  0  0
  2  3  1  0  0  0  0
  2  4  1  0  0  0  0
  2  5  1  0  0  0  0
  5  6  2  0  0  0  0
  5  7  1  0  0  0  0
  7  8  1  0  0  0  0
  7  9  1  0  0  0  0
  9 10  1  0  0  0  0
  9 11  1  0  0  0  0
  9 16  1  0  0  0  0
 11 12  1  0  0  0  0
 11 13  1  0  0  0  0
 11 14  1  0  0  0  0
 14 15  1  0  0  0  0
 16 17  2  0  0  0  0
 16 18  1  0  0  0  0
 18 19  1  0  0  0  0
 18 20  1  0  0  0  0
 20 21  1  0  0  0  0
 20 22  1  0  0  0  0
 20 23  1  0  0  0  0
M  END
$$$$

  -OEChem-01062216073D

 23 22  0     1  0  0  0  0  0999 V2000
   -2.8100   -3.4894    1.1884 H   0  0  0  0  0  0  0  0  0  0  0  0
   -2.7230   -2.5238    0.6824 C   0  0  0  0  0  0  0  0  0  0  0  0
   -3.5711   -1.8975    0.9684 H   0  0  0  0  0  0  0  0  0  0  0  0
   -2.7457   -2.6913   -0.3969 H   0  0  0  0  0  0  0  0  0  0  0  0
   -1.4226   -1.8474    1.0724 C   0  0  0  0  0  0  0  0  0  0  0  0
   -0.7289   -2.3416    1.9466 O   0  0  0  0  0  0  0  0  0  0  0  0
   -1.1247   -0.5996    0.5534 N   0  0  0  0  0  0  0  0  0  0  0  0
   -1.8096   -0.2489   -0.1075 H   0  0  0  0  0  0  0  0  0  0  0  0
    0.2397   -0.0348    0.4456 C   0  0  1  0  0  0  0  0  0  0  0  0
    0.1763    0.8069   -0.2498 H   0  0  0  0  0  0  0  0  0  0  0  0
    0.6660    0.5269    1.8108 C   0  0  0  0  0  0  0  0  0  0  0  0
    0.5997   -0.2543    2.5753 H   0  0  0  0  0  0  0  0  0  0  0  0
    1.7071    0.8627    1.7741 H   0  0  0  0  0  0  0  0  0  0  0  0
   -0.4075    1.9501    2.2731 S   0  0  0  0  0  0  0  0  0  0  0  0
   -0.0211    2.1515    3.5521 H   0  0  0  0  0  0  0  0  0  0  0  0
    1.3681   -0.9493   -0.1063 C   0  0  0  0  0  0  0  0  0  0  0  0
    1.2478   -2.1581   -0.2463 O   0  0  0  0  0  0  0  0  0  0  0  0
    2.4145   -0.3483   -0.7873 N   0  0  0  0  0  0  0  0  0  0  0  0
    2.4774    0.6646   -0.7562 H   0  0  0  0  0  0  0  0  0  0  0  0
    3.4350   -1.0935   -1.5172 C   0  0  0  0  0  0  0  0  0  0  0  0
    2.9851   -1.6462   -2.3488 H   0  0  0  0  0  0  0  0  0  0  0  0
    4.1863   -0.4094   -1.9234 H   0  0  0  0  0  0  0  0  0  0  0  0
    3.9387   -1.8044   -0.8535 H   0  0  0  0  0  0  0  0  0  0  0  0
  1  2  1  0  0  0  0
  2  3  1  0  0  0  0
  2  4  1  0  0  0  0
  2  5  1  0  0  0  0
  5  6  2  0  0  0  0
  5  7  1  0  0  0  0
  7  8  1  0  0  0  0
  7  9  1  0  0  0  0
  9 10  1  0  0  0  0
  9 11  1  0  0  0  0
  9 16  1  0  0  0  0
 11 12  1  0  0  0  0
 11 13  1  0  0  0  0
 11 14  1  0  0  0  0
 14 15  1  0  0  0  0
 16 17  2  0  0  0  0
 16 18  1  0  0  0  0
 18 19  1  0  0  0  0
 18 20  1  0  0  0  0
 20 21  1  0  0  0  0
 20 22  1  0  0  0  0
 20 23  1  0  0  0  0
M  END
$$$$

  -OEChem-01062216073D

 23 22  0     1  0  0  0  0  0999 V2000
   -2.7916   -3.4873    1.2014 H   0  0  0  0  0  0  0  0  0  0  0  0
   -2.7165   -2.5202    0.6962 C   0  0  0  0  0  0  0  0  0  0  0  0
   -3.5597   -1.8959    1.0007 H   0  0  0  0  0  0  0  0  0  0  0  0
   -2.7605   -2.6845   -0.3830 H   0  0  0  0  0  0  0  0  0  0  0  0
   -1.4100   -1.8422    1.0612 C   0  0  0  0  0  0  0  0  0  0  0  0
   -0.6788   -2.3529    1.8956 O   0  0  0  0  0  0  0  0  0  0  0  0
   -1.1246   -0.5907    0.5441 N   0  0  0  0  0  0  0  0  0  0  0  0
   -1.8079   -0.2432   -0.1203 H   0  0  0  0  0  0  0  0  0  0  0  0
    0.2392   -0.0242    0.4478 C   0  0  1  0  0  0  0  0  0  0  0  0
    0.1911    0.8165   -0.2501 H   0  0  0  0  0  0  0  0  0  0  0  0
    0.6471    0.5343    1.8219 C   0  0  0  0  0  0  0  0  0  0  0  0
    0.5722   -0.2490    2.5835 H   0  0  0  0  0  0  0  0  0  0  0  0
    1.6868    0.8746    1.8028 H   0  0  0  0  0  0  0  0  0  0  0  0
   -0.4359    1.9525    2.2756 S   0  0  0  0  0  0  0  0  0  0  0  0
   -0.0616    2.1555    3.5578 H   0  0  0  0  0  0  0  0  0  0  0  0
    1.3549   -0.9565   -0.0990 C   0  0  0  0  0  0  0  0  0  0  0  0
    1.1187   -2.0832   -0.5165 O   0  0  0  0  0  0  0  0  0  0  0  0
    2.5550   -0.3878   -0.4946 N   0  0  0  0  0  0  0  0  0  0  0  0
    2.7137    0.5876   -0.2623 H   0  0  0  0  0  0  0  0  0  0  0  0
    3.5948   -1.1177   -1.2123 C   0  0  0  0  0  0  0  0  0  0  0  0
    3.2361   -1.4225   -2.2010 H   0  0  0  0  0  0  0  0  0  0  0  0
    4.4786   -0.4862   -1.3442 H   0  0  0  0  0  0  0  0  0  0  0  0
    3.8908   -2.0123   -0.6538 H   0  0  0  0  0  0  0  0  0  0  0  0
  1  2  1  0  0  0  0
  2  3  1  0  0  0  0
  2  4  1  0  0  0  0
  2  5  1  0  0  0  0
  5  6  2  0  0  0  0
  5  7  1  0  0  0  0
  7  8  1  0  0  0  0
  7  9  1  0  0  0  0
  9 10  1  0  0  0  0
  9 11  1  0  0  0  0
  9 16  1  0  0  0  0
 11 12  1  0  0  0  0
 11 13  1  0  0  0  0
 11 14  1  0  0  0  0
 14 15  1  0  0  0  0
 16 17  2  0  0  0  0
 16 18  1  0  0  0  0
 18 19  1  0  0  0  0
 18 20  1  0  0  0  0
 20 21  1  0  0  0  0
 20 22  1  0  0  0  0
 20 23  1  0  0  0  0
M  END
$$$$

  -OEChem-01062216073D

 23 22  0     1  0  0  0  0  0999 V2000
   -2.7748   -3.5170    1.1302 H   0  0  0  0  0  0  0  0  0  0  0  0
   -2.7282   -2.5082    0.7109 C   0  0  0  0  0  0  0  0  0  0  0  0
   -3.5011   -1.8949    1.1799 H   0  0  0  0  0  0  0  0  0  0  0  0
   -2.9169   -2.5662   -0.3637 H   0  0  0  0  0  0  0  0  0  0  0  0
   -1.3609   -1.9014    0.9614 C   0  0  0  0  0  0  0  0  0  0  0  0
   -0.5236   -2.5433    1.5765 O   0  0  0  0  0  0  0  0  0  0  0  0
   -1.0981   -0.6213    0.5070 N   0  0  0  0  0  0  0  0  0  0  0  0
   -1.8256   -0.2052   -0.0650 H   0  0  0  0  0  0  0  0  0  0  0  0
    0.2465   -0.0087    0.4480 C   0  0  1  0  0  0  0  0  0  0  0  0
    0.1331    0.9740   -0.0188 H   0  0  0  0  0  0  0  0  0  0  0  0
    0.8078    0.2344    1.8637 C   0  0  0  0  0  0  0  0  0  0  0  0
    0.8385   -0.6965    2.4367 H   0  0  0  0  0  0  0  0  0  0  0  0
    1.8324    0.6118    1.8066 H   0  0  0  0  0  0  0  0  0  0  0  0
   -0.2245    1.4800    2.7418 S   0  0  0  0  0  0  0  0  0  0  0  0
    0.2999    1.4143    3.9852 H   0  0  0  0  0  0  0  0  0  0  0  0
    1.2495   -0.7757   -0.4537 C   0  0  0  0  0  0  0  0  0  0  0  0
    0.8664   -1.6378   -1.2361 O   0  0  0  0  0  0  0  0  0  0  0  0
    2.5470   -0.3125   -0.5976 N   0  0  0  0  0  0  0  0  0  0  0  0
    2.8438    0.4544   -0.0031 H   0  0  0  0  0  0  0  0  0  0  0  0
    3.5109   -0.9012   -1.5205 C   0  0  0  0  0  0  0  0  0  0  0  0
    3.1650   -0.7978   -2.5545 H   0  0  0  0  0  0  0  0  0  0  0  0
    4.4786   -0.3992   -1.4278 H   0  0  0  0  0  0  0  0  0  0  0  0
    3.6515   -1.9650   -1.3007 H   0  0  0  0  0  0  0  0  0  0  0  0
  1  2  1  0  0  0  0
  2  3  1  0  0  0  0
  2  4  1  0  0  0  0
  2  5  1  0  0  0  0
  5  6  2  0  0  0  0
  5  7  1  0  0  0  0
  7  8  1  0  0  0  0
  7  9  1  0  0  0  0
  9 10  1  0  0  0  0
  9 11  1  0  0  0  0
  9 16  1  0  0  0  0
 11 12  1  0  0  0  0
 11 13  1  0  0  0  0
 11 14  1  0  0  0  0
 14 15  1  0  0  0  0
 16 17  2  0  0  0  0
 16 18  1  0  0  0  0
 18 19  1  0  0  0  0
 18 20  1  0  0  0  0
 20 21  1  0  0  0  0
 20 22  1  0  0  0  0
 20 23  1  0  0  0  0
M  END
$$$$

  -OEChem-01062216073D

 23 22  0     1  0  0  0  0  0999 V2000
   -2.7186   -3.5429    1.0849 H   0  0  0  0  0  0  0  0  0  0  0  0
   -2.6980   -2.5191    0.7010 C   0  0  0  0  0  0  0  0  0  0  0  0
   -3.4692   -1.9359    1.2093 H   0  0  0  0  0  0  0  0  0  0  0  0
   -2.9112   -2.5417   -0.3704 H   0  0  0  0  0  0  0  0  0  0  0  0
   -1.3356   -1.8979    0.9420 C   0  0  0  0  0  0  0  0  0  0  0  0
   -0.4741   -2.5431    1.5200 O   0  0  0  0  0  0  0  0  0  0  0  0
   -1.0933   -0.6084    0.5046 N   0  0  0  0  0  0  0  0  0  0  0  0
   -1.8254   -0.1922   -0.0618 H   0  0  0  0  0  0  0  0  0  0  0  0
    0.2430    0.0216    0.4602 C   0  0  1  0  0  0  0  0  0  0  0  0
    0.1279    1.0064   -0.0017 H   0  0  0  0  0  0  0  0  0  0  0  0
    0.7865    0.2610    1.8840 C   0  0  0  0  0  0  0  0  0  0  0  0
    0.8257   -0.6744    2.4495 H   0  0  0  0  0  0  0  0  0  0  0  0
    1.8034    0.6591    1.8408 H   0  0  0  0  0  0  0  0  0  0  0  0
   -0.2711    1.4857    2.7612 S   0  0  0  0  0  0  0  0  0  0  0  0
    0.2626    1.4419    4.0017 H   0  0  0  0  0  0  0  0  0  0  0  0
    1.2385   -0.7421   -0.4527 C   0  0  0  0  0  0  0  0  0  0  0  0
    0.8214   -1.4141   -1.3895 O   0  0  0  0  0  0  0  0  0  0  0  0
    2.6012   -0.5012   -0.3892 N   0  0  0  0  0  0  0  0  0  0  0  0
    2.9449    0.0580    0.3840 H   0  0  0  0  0  0  0  0  0  0  0  0
    3.5670   -1.1551   -1.2648 C   0  0  0  0  0  0  0  0  0  0  0  0
    3.3739   -0.8961   -2.3112 H   0  0  0  0  0  0  0  0  0  0  0  0
    4.5829   -0.8365   -1.0127 H   0  0  0  0  0  0  0  0  0  0  0  0
    3.5080   -2.2432   -1.1543 H   0  0  0  0  0  0  0  0  0  0  0  0
  1  2  1  0  0  0  0
  2  3  1  0  0  0  0
  2  4  1  0  0  0  0
  2  5  1  0  0  0  0
  5  6  2  0  0  0  0
  5  7  1  0  0  0  0
  7  8  1  0  0  0  0
  7  9  1  0  0  0  0
  9 10  1  0  0  0  0
  9 11  1  0  0  0  0
  9 16  1  0  0  0  0
 11 12  1  0  0  0  0
 11 13  1  0  0  0  0
 11 14  1  0  0  0  0
 14 15  1  0  0  0  0
 16 17  2  0  0  0  0
 16 18  1  0  0  0  0
 18 19  1  0  0  0  0
 18 20  1  0  0  0  0
 20 21  1  0  0  0  0
 20 22  1  0  0  0  0
 20 23  1  0  0  0  0
M  END
$$$$

  -OEChem-01062216073D

 23 22  0     1  0  0  0  0  0999 V2000
   -2.6880   -3.5536    1.0668 H   0  0  0  0  0  0  0  0  0  0  0  0
   -2.6799   -2.5235    0.6999 C   0  0  0  0  0  0  0  0  0  0  0  0
   -3.4401   -1.9515    1.2369 H   0  0  0  0  0  0  0  0  0  0  0  0
   -2.9199   -2.5286   -0.3661 H   0  0  0  0  0  0  0  0  0  0  0  0
   -1.3139   -1.9014    0.9175 C   0  0  0  0  0  0  0  0  0  0  0  0
   -0.4325   -2.5516    1.4593 O   0  0  0  0  0  0  0  0  0  0  0  0
   -1.0831   -0.6063    0.4933 N   0  0  0  0  0  0  0  0  0  0  0  0
   -1.8269   -0.1752   -0.0467 H   0  0  0  0  0  0  0  0  0  0  0  0
    0.2450    0.0392    0.4662 C   0  0  1  0  0  0  0  0  0  0  0  0
    0.1269    1.0245    0.0057 H   0  0  0  0  0  0  0  0  0  0  0  0
    0.7700    0.2804    1.8961 C   0  0  0  0  0  0  0  0  0  0  0  0
    0.8156   -0.6563    2.4595 H   0  0  0  0  0  0  0  0  0  0  0  0
    1.7808    0.6959    1.8606 H   0  0  0  0  0  0  0  0  0  0  0  0
   -0.3124    1.4895    2.7652 S   0  0  0  0  0  0  0  0  0  0  0  0
    0.2320    1.4799    4.0017 H   0  0  0  0  0  0  0  0  0  0  0  0
    1.2432   -0.7188   -0.4478 C   0  0  0  0  0  0  0  0  0  0  0  0
    0.8476   -1.1895   -1.5085 O   0  0  0  0  0  0  0  0  0  0  0  0
    2.6059   -0.7255   -0.1992 N   0  0  0  0  0  0  0  0  0  0  0  0
    2.9095   -0.4180    0.7184 H   0  0  0  0  0  0  0  0  0  0  0  0
    3.5586   -1.4393   -1.0415 C   0  0  0  0  0  0  0  0  0  0  0  0
    3.5319   -1.0526   -2.0658 H   0  0  0  0  0  0  0  0  0  0  0  0
    4.5741   -1.3144   -0.6536 H   0  0  0  0  0  0  0  0  0  0  0  0
    3.3239   -2.5089   -1.0624 H   0  0  0  0  0  0  0  0  0  0  0  0
  1  2  1  0  0  0  0
  2  3  1  0  0  0  0
  2  4  1  0  0  0  0
  2  5  1  0  0  0  0
  5  6  2  0  0  0  0
  5  7  1  0  0  0  0
  7  8  1  0  0  0  0
  7  9  1  0  0  0  0
  9 10  1  0  0  0  0
  9 11  1  0  0  0  0
  9 16  1  0  0  0  0
 11 12  1  0  0  0  0
 11 13  1  0  0  0  0
 11 14  1  0  0  0  0
 14 15  1  0  0  0  0
 16 17  2  0  0  0  0
 16 18  1  0  0  0  0
 18 19  1  0  0  0  0
 18 20  1  0  0  0  0
 20 21  1  0  0  0  0
 20 22  1  0  0  0  0
 20 23  1  0  0  0  0
M  END
$$$$

  -OEChem-01062216073D

 23 22  0     1  0  0  0  0  0999 V2000
   -2.6813   -3.5493    1.0758 H   0  0  0  0  0  0  0  0  0  0  0  0
   -2.6773   -2.5172    0.7145 C   0  0  0  0  0  0  0  0  0  0  0  0
   -3.4147   -1.9427    1.2802 H   0  0  0  0  0  0  0  0  0  0  0  0
   -2.9539   -2.5140   -0.3426 H   0  0  0  0  0  0  0  0  0  0  0  0
   -1.2998   -1.9071    0.8900 C   0  0  0  0  0  0  0  0  0  0  0  0
   -0.4040   -2.5667    1.3961 O   0  0  0  0  0  0  0  0  0  0  0  0
   -1.0705   -0.6106    0.4708 N   0  0  0  0  0  0  0  0  0  0  0  0
   -1.8308   -0.1520   -0.0217 H   0  0  0  0  0  0  0  0  0  0  0  0
    0.2523    0.0433    0.4609 C   0  0  1  0  0  0  0  0  0  0  0  0
    0.1358    1.0283   -0.0013 H   0  0  0  0  0  0  0  0  0  0  0  0
    0.7591    0.2877    1.8956 C   0  0  0  0  0  0  0  0  0  0  0  0
    0.8021   -0.6490    2.4594 H   0  0  0  0  0  0  0  0  0  0  0  0
    1.7689    0.7083    1.8669 H   0  0  0  0  0  0  0  0  0  0  0  0
   -0.3414    1.4894    2.7525 S   0  0  0  0  0  0  0  0  0  0  0  0
    0.2014    1.5009    3.9900 H   0  0  0  0  0  0  0  0  0  0  0  0
    1.2595   -0.7119   -0.4428 C   0  0  0  0  0  0  0  0  0  0  0  0
    0.9402   -0.9711   -1.5973 O   0  0  0  0  0  0  0  0  0  0  0  0
    2.5569   -0.9791   -0.0384 N   0  0  0  0  0  0  0  0  0  0  0  0
    2.7384   -0.9197    0.9583 H   0  0  0  0  0  0  0  0  0  0  0  0
    3.4928   -1.7359   -0.8617 C   0  0  0  0  0  0  0  0  0  0  0  0
    3.6474   -1.2382   -1.8250 H   0  0  0  0  0  0  0  0  0  0  0  0
    4.4607   -1.8153   -0.3577 H   0  0  0  0  0  0  0  0  0  0  0  0
    3.1114   -2.7462   -1.0444 H   0  0  0  0  0  0  0  0  0  0  0  0
  1  2  1  0  0  0  0
  2  3  1  0  0  0  0
  2  4  1  0  0  0  0
  2  5  1  0  0  0  0
  5  6  2  0  0  0  0
  5  7  1  0  0  0  0
  7  8  1  0  0  0  0
  7  9  1  0  0  0  0
  9 10  1  0  0  0  0
  9 11  1  0  0  0  0
  9 16  1  0  0  0  0
 11 12  1  0  0  0  0
 11 13  1  0  0  0  0
 11 14  1  0  0  0  0
 14 15  1  0  0  0  0
 16 17  2  0  0  0  0
 16 18  1  0  0  0  0
 18 19  1  0  0  0  0
 18 20  1  0  0  0  0
 20 21  1  0  0  0  0
 20 22  1  0  0  0  0
 20 23  1  0  0  0  0
M  END
$$$$

  -OEChem-01062216073D

 23 22  0     1  0  0  0  0  0999 V2000
   -2.6967   -3.5389    1.0908 H   0  0  0  0  0  0  0  0  0  0  0  0
   -2.6911   -2.5047    0.7356 C   0  0  0  0  0  0  0  0  0  0  0  0
   -3.4006   -1.9239    1.3296 H   0  0  0  0  0  0  0  0  0  0  0  0
   -3.0037   -2.4906   -0.3113 H   0  0  0  0  0  0  0  0  0  0  0  0
   -1.3003   -1.9146    0.8679 C   0  0  0  0  0  0  0  0  0  0  0  0
   -0.3971   -2.5857    1.3457 O   0  0  0  0  0  0  0  0  0  0  0  0
   -1.0645   -0.6204    0.4471 N   0  0  0  0  0  0  0  0  0  0  0  0
   -1.8397   -0.1301    0.0110 H   0  0  0  0  0  0  0  0  0  0  0  0
    0.2576    0.0333    0.4496 C   0  0  1  0  0  0  0  0  0  0  0  0
    0.1446    1.0174   -0.0156 H   0  0  0  0  0  0  0  0  0  0  0  0
    0.7534    0.2797    1.8868 C   0  0  0  0  0  0  0  0  0  0  0  0
    0.7886   -0.6556    2.4533 H   0  0  0  0  0  0  0  0  0  0  0  0
    1.7663    0.6943    1.8604 H   0  0  0  0  0  0  0  0  0  0  0  0
   -0.3525    1.4828    2.7346 S   0  0  0  0  0  0  0  0  0  0  0  0
    0.2077    1.5283    3.9632 H   0  0  0  0  0  0  0  0  0  0  0  0
    1.2758   -0.7225   -0.4384 C   0  0  0  0  0  0  0  0  0  0  0  0
    1.0853   -0.7665   -1.6478 O   0  0  0  0  0  0  0  0  0  0  0  0
    2.4467   -1.2516    0.0771 N   0  0  0  0  0  0  0  0  0  0  0  0
    2.4470   -1.4156    1.0796 H   0  0  0  0  0  0  0  0  0  0  0  0
    3.3771   -2.0235   -0.7379 C   0  0  0  0  0  0  0  0  0  0  0  0
    3.7278   -1.4291   -1.5883 H   0  0  0  0  0  0  0  0  0  0  0  0
    4.2473   -2.3160   -0.1427 H   0  0  0  0  0  0  0  0  0  0  0  0
    2.8938   -2.9302   -1.1169 H   0  0  0  0  0  0  0  0  0  0  0  0
  1  2  1  0  0  0  0
  2  3  1  0  0  0  0
  2  4  1  0  0  0  0
  2  5  1  0  0  0  0
  5  6  2  0  0  0  0
  5  7  1  0  0  0  0
  7  8  1  0  0  0  0
  7  9  1  0  0  0  0
  9 10  1  0  0  0  0
  9 11  1  0  0  0  0
  9 16  1  0  0  0  0
 11 12  1  0  0  0  0
 11 13  1  0  0  0  0
 11 14  1  0  0  0  0
 14 15  1  0  0  0  0
 16 17  2  0  0  0  0
 16 18  1  0  0  0  0
 18 19  1  0  0  0  0
 18 20  1  0  0  0  0
 20 21  1  0  0  0  0
 20 22  1  0  0  0  0
 20 23  1  0  0  0  0
M  END
$$$$

  -OEChem-01062216073D

 23 22  0     1  0  0  0  0  0999 V2000
   -2.7258   -3.5194    1.1260 H   0  0  0  0  0  0  0  0  0  0  0  0
   -2.7121   -2.4875    0.7641 C   0  0  0  0  0  0  0  0  0  0  0  0
   -3.3919   -1.8901    1.3765 H   0  0  0  0  0  0  0  0  0  0  0  0
   -3.0570   -2.4737   -0.2727 H   0  0  0  0  0  0  0  0  0  0  0  0
   -1.3072   -1.9224    0.8493 C   0  0  0  0  0  0  0  0  0  0  0  0
   -0.3997   -2.6084    1.2981 O   0  0  0  0  0  0  0  0  0  0  0  0
   -1.0618   -0.6316    0.4228 N   0  0  0  0  0  0  0  0  0  0  0  0
   -1.8512   -0.1064    0.0582 H   0  0  0  0  0  0  0  0  0  0  0  0
    0.2617    0.0187    0.4324 C   0  0  1  0  0  0  0  0  0  0  0  0
    0.1539    1.0028   -0.0351 H   0  0  0  0  0  0  0  0  0  0  0  0
    0.7527    0.2633    1.8705 C   0  0  0  0  0  0  0  0  0  0  0  0
    0.7815   -0.6716    2.4381 H   0  0  0  0  0  0  0  0  0  0  0  0
    1.7690    0.6703    1.8458 H   0  0  0  0  0  0  0  0  0  0  0  0
   -0.3538    1.4690    2.7134 S   0  0  0  0  0  0  0  0  0  0  0  0
    0.2158    1.5283    3.9372 H   0  0  0  0  0  0  0  0  0  0  0  0
    1.2900   -0.7388   -0.4394 C   0  0  0  0  0  0  0  0  0  0  0  0
    1.2800   -0.5688   -1.6521 O   0  0  0  0  0  0  0  0  0  0  0  0
    2.2827   -1.5163    0.1294 N   0  0  0  0  0  0  0  0  0  0  0  0
    2.0563   -1.8713    1.0563 H   0  0  0  0  0  0  0  0  0  0  0  0
    3.2149   -2.2928   -0.6787 C   0  0  0  0  0  0  0  0  0  0  0  0
    3.7639   -1.6408   -1.3664 H   0  0  0  0  0  0  0  0  0  0  0  0
    3.9403   -2.7998   -0.0352 H   0  0  0  0  0  0  0  0  0  0  0  0
    2.6783   -3.0483   -1.2623 H   0  0  0  0  0  0  0  0  0  0  0  0
  1  2  1  0  0  0  0
  2  3  1  0  0  0  0
  2  4  1  0  0  0  0
  2  5  1  0  0  0  0
  5  6  2  0  0  0  0
  5  7  1  0  0  0  0
  7  8  1  0  0  0  0
  7  9  1  0  0  0  0
  9 10  1  0  0  0  0
  9 11  1  0  0  0  0
  9 16  1  0  0  0  0
 11 12  1  0  0  0  0
 11 13  1  0  0  0  0
 11 14  1  0  0  0  0
 14 15  1  0  0  0  0
 16 17  2  0  0  0  0
 16 18  1  0  0  0  0
 18 19  1  0  0  0  0
 18 20  1  0  0  0  0
 20 21  1  0  0  0  0
 20 22  1  0  0  0  0
 20 23  1  0  0  0  0
M  END
$$$$

  -OEChem-01062216073D

 23 22  0     1  0  0  0  0  0999 V2000
   -2.7845   -3.4919    1.1601 H   0  0  0  0  0  0  0  0  0  0  0  0
   -2.7523   -2.4631    0.7908 C   0  0  0  0  0  0  0  0  0  0  0  0
   -3.4036   -1.8448    1.4133 H   0  0  0  0  0  0  0  0  0  0  0  0
   -3.1196   -2.4477   -0.2382 H   0  0  0  0  0  0  0  0  0  0  0  0
   -1.3325   -1.9328    0.8421 C   0  0  0  0  0  0  0  0  0  0  0  0
   -0.4339   -2.6398    1.2764 O   0  0  0  0  0  0  0  0  0  0  0  0
   -1.0681   -0.6482    0.4073 N   0  0  0  0  0  0  0  0  0  0  0  0
   -1.8627   -0.0965    0.0968 H   0  0  0  0  0  0  0  0  0  0  0  0
    0.2586   -0.0020    0.4137 C   0  0  1  0  0  0  0  0  0  0  0  0
    0.1510    0.9832   -0.0519 H   0  0  0  0  0  0  0  0  0  0  0  0
    0.7549    0.2345    1.8503 C   0  0  0  0  0  0  0  0  0  0  0  0
    0.7842   -0.7030    2.4134 H   0  0  0  0  0  0  0  0  0  0  0  0
    1.7732    0.6367    1.8223 H   0  0  0  0  0  0  0  0  0  0  0  0
   -0.3449    1.4401    2.7022 S   0  0  0  0  0  0  0  0  0  0  0  0
    0.2454    1.5109    3.9156 H   0  0  0  0  0  0  0  0  0  0  0  0
    1.3003   -0.7561   -0.4440 C   0  0  0  0  0  0  0  0  0  0  0  0
    1.4929   -0.4027   -1.6002 O   0  0  0  0  0  0  0  0  0  0  0  0
    2.0872   -1.7512    0.1052 N   0  0  0  0  0  0  0  0  0  0  0  0
    1.6615   -2.2101    0.9124 H   0  0  0  0  0  0  0  0  0  0  0  0
    3.0254   -2.5285   -0.6944 C   0  0  0  0  0  0  0  0  0  0  0  0
    3.7459   -1.8700   -1.1909 H   0  0  0  0  0  0  0  0  0  0  0  0
    3.5793   -3.2225   -0.0553 H   0  0  0  0  0  0  0  0  0  0  0  0
    2.4928   -3.1059   -1.4572 H   0  0  0  0  0  0  0  0  0  0  0  0
  1  2  1  0  0  0  0
  2  3  1  0  0  0  0
  2  4  1  0  0  0  0
  2  5  1  0  0  0  0
  5  6  2  0  0  0  0
  5  7  1  0  0  0  0
  7  8  1  0  0  0  0
  7  9  1  0  0  0  0
  9 10  1  0  0  0  0
  9 11  1  0  0  0  0
  9 16  1  0  0  0  0
 11 12  1  0  0  0  0
 11 13  1  0  0  0  0
 11 14  1  0  0  0  0
 14 15  1  0  0  0  0
 16 17  2  0  0  0  0
 16 18  1  0  0  0  0
 18 19  1  0  0  0  0
 18 20  1  0  0  0  0
 20 21  1  0  0  0  0
 20 22  1  0  0  0  0
 20 23  1  0  0  0  0
M  END
$$$$

  -OEChem-01062216073D

 23 22  0     1  0  0  0  0  0999 V2000
   -2.8809   -3.4540    1.1965 H   0  0  0  0  0  0  0  0  0  0  0  0
   -2.8188   -2.4307    0.8159 C   0  0  0  0  0  0  0  0  0  0  0  0
   -3.4475   -1.7860    1.4347 H   0  0  0  0  0  0  0  0  0  0  0  0
   -3.1913   -2.4149   -0.2112 H   0  0  0  0  0  0  0  0  0  0  0  0
   -1.3827   -1.9442    0.8544 C   0  0  0  0  0  0  0  0  0  0  0  0
   -0.5078   -2.6763    1.2929 O   0  0  0  0  0  0  0  0  0  0  0  0
   -1.0854   -0.6709    0.4069 N   0  0  0  0  0  0  0  0  0  0  0  0
   -1.8750   -0.1032    0.1123 H   0  0  0  0  0  0  0  0  0  0  0  0
    0.2475   -0.0313    0.3973 C   0  0  1  0  0  0  0  0  0  0  0  0
    0.1363    0.9539   -0.0675 H   0  0  0  0  0  0  0  0  0  0  0  0
    0.7547    0.2003    1.8298 C   0  0  0  0  0  0  0  0  0  0  0  0
    0.7840   -0.7398    2.3890 H   0  0  0  0  0  0  0  0  0  0  0  0
    1.7751    0.5967    1.7947 H   0  0  0  0  0  0  0  0  0  0  0  0
   -0.3299    1.4109    2.6945 S   0  0  0  0  0  0  0  0  0  0  0  0
    0.2824    1.4869    3.8967 H   0  0  0  0  0  0  0  0  0  0  0  0
    1.3088   -0.7745   -0.4467 C   0  0  0  0  0  0  0  0  0  0  0  0
    1.6916   -0.2790   -1.4985 O   0  0  0  0  0  0  0  0  0  0  0  0
    1.8930   -1.9434    0.0017 N   0  0  0  0  0  0  0  0  0  0  0  0
    1.3581   -2.4327    0.7243 H   0  0  0  0  0  0  0  0  0  0  0  0
    2.8304   -2.7167   -0.8018 C   0  0  0  0  0  0  0  0  0  0  0  0
    3.6880   -2.1003   -1.0914 H   0  0  0  0  0  0  0  0  0  0  0  0
    3.2009   -3.5718   -0.2285 H   0  0  0  0  0  0  0  0  0  0  0  0
    2.3422   -3.0894   -1.7081 H   0  0  0  0  0  0  0  0  0  0  0  0
  1  2  1  0  0  0  0
  2  3  1  0  0  0  0
  2  4  1  0  0  0  0
  2  5  1  0  0  0  0
  5  6  2  0  0  0  0
  5  7  1  0  0  0  0
  7  8  1  0  0  0  0
  7  9  1  0  0  0  0
  9 10  1  0  0  0  0
  9 11  1  0  0  0  0
  9 16  1  0  0  0  0
 11 12  1  0  0  0  0
 11 13  1  0  0  0  0
 11 14  1  0  0  0  0
 14 15  1  0  0  0  0
 16 17  2  0  0  0  0
 16 18  1  0  0  0  0
 18 19  1  0  0  0  0
 18 20  1  0  0  0  0
 20 21  1  0  0  0  0
 20 22  1  0  0  0  0
 20 23  1  0  0  0  0
M  END
$$$$

  -OEChem-01062216073D

 23 22  0     1  0  0  0  0  0999 V2000
   -2.9911   -3.3976    1.2563 H   0  0  0  0  0  0  0  0  0  0  0  0
   -2.8964   -2.3835    0.8579 C   0  0  0  0  0  0  0  0  0  0  0  0
   -3.4934   -1.7070    1.4744 H   0  0  0  0  0  0  0  0  0  0  0  0
   -3.2820   -2.3701   -0.1645 H   0  0  0  0  0  0  0  0  0  0  0  0
   -1.4430   -1.9489    0.8694 C   0  0  0  0  0  0  0  0  0  0  0  0
   -0.5913   -2.7093    1.3029 O   0  0  0  0  0  0  0  0  0  0  0  0
   -1.1119   -0.6893    0.4072 N   0  0  0  0  0  0  0  0  0  0  0  0
   -1.8956   -0.1004    0.1399 H   0  0  0  0  0  0  0  0  0  0  0  0
    0.2297   -0.0637    0.3744 C   0  0  1  0  0  0  0  0  0  0  0  0
    0.1183    0.9219   -0.0896 H   0  0  0  0  0  0  0  0  0  0  0  0
    0.7498    0.1604    1.8022 C   0  0  0  0  0  0  0  0  0  0  0  0
    0.7748   -0.7821    2.3582 H   0  0  0  0  0  0  0  0  0  0  0  0
    1.7738    0.5470    1.7603 H   0  0  0  0  0  0  0  0  0  0  0  0
   -0.3157    1.3822    2.6754 S   0  0  0  0  0  0  0  0  0  0  0  0
    0.3041    1.4462    3.8745 H   0  0  0  0  0  0  0  0  0  0  0  0
    1.3037   -0.8000   -0.4617 C   0  0  0  0  0  0  0  0  0  0  0  0
    1.8692   -0.1969   -1.3643 O   0  0  0  0  0  0  0  0  0  0  0  0
    1.6913   -2.0955   -0.1826 N   0  0  0  0  0  0  0  0  0  0  0  0
    1.0998   -2.6023    0.4816 H   0  0  0  0  0  0  0  0  0  0  0  0
    2.6506   -2.8425   -0.9847 C   0  0  0  0  0  0  0  0  0  0  0  0
    3.6026   -2.3046   -1.0449 H   0  0  0  0  0  0  0  0  0  0  0  0
    2.8373   -3.8214   -0.5328 H   0  0  0  0  0  0  0  0  0  0  0  0
    2.2661   -2.9939   -1.9987 H   0  0  0  0  0  0  0  0  0  0  0  0
  1  2  1  0  0  0  0
  2  3  1  0  0  0  0
  2  4  1  0  0  0  0
  2  5  1  0  0  0  0
  5  6  2  0  0  0  0
  5  7  1  0  0  0  0
  7  8  1  0  0  0  0
  7  9  1  0  0  0  0
  9 10  1  0  0  0  0
  9 11  1  0  0  0  0
  9 16  1  0  0  0  0
 11 12  1  0  0  0  0
 11 13  1  0  0  0  0
 11 14  1  0  0  0  0
 14 15  1  0  0  0  0
 16 17  2  0  0  0  0
 16 18  1  0  0  0  0
 18 19  1  0  0  0  0
 18 20  1  0  0  0  0
 20 21  1  0  0  0  0
 20 22  1  0  0  0  0
 20 23  1  0  0  0  0
M  END
$$$$

  -OEChem-01062216073D

 23 22  0     1  0  0  0  0  0999 V2000
   -3.0742   -3.3414    1.3349 H   0  0  0  0  0  0  0  0  0  0  0  0
   -2.9646   -2.3341    0.9233 C   0  0  0  0  0  0  0  0  0  0  0  0
   -3.5130   -1.6339    1.5583 H   0  0  0  0  0  0  0  0  0  0  0  0
   -3.3924   -2.3166   -0.0820 H   0  0  0  0  0  0  0  0  0  0  0  0
   -1.4990   -1.9467    0.8701 C   0  0  0  0  0  0  0  0  0  0  0  0
   -0.6551   -2.7369    1.2624 O   0  0  0  0  0  0  0  0  0  0  0  0
   -1.1508   -0.6942    0.4012 N   0  0  0  0  0  0  0  0  0  0  0  0
   -1.9313   -0.0799    0.1862 H   0  0  0  0  0  0  0  0  0  0  0  0
    0.1999   -0.0873    0.3392 C   0  0  1  0  0  0  0  0  0  0  0  0
    0.0897    0.9019   -0.1176 H   0  0  0  0  0  0  0  0  0  0  0  0
    0.7455    0.1179    1.7599 C   0  0  0  0  0  0  0  0  0  0  0  0
    0.7672   -0.8305    2.3061 H   0  0  0  0  0  0  0  0  0  0  0  0
    1.7739    0.4913    1.7047 H   0  0  0  0  0  0  0  0  0  0  0  0
   -0.2883    1.3479    2.6598 S   0  0  0  0  0  0  0  0  0  0  0  0
    0.3410    1.3816    3.8550 H   0  0  0  0  0  0  0  0  0  0  0  0
    1.2671   -0.8187   -0.5126 C   0  0  0  0  0  0  0  0  0  0  0  0
    2.0079   -0.1519   -1.2230 O   0  0  0  0  0  0  0  0  0  0  0  0
    1.4595   -2.1846   -0.4612 N   0  0  0  0  0  0  0  0  0  0  0  0
    0.8463   -2.7062    0.1703 H   0  0  0  0  0  0  0  0  0  0  0  0
    2.4879   -2.8966   -1.2073 C   0  0  0  0  0  0  0  0  0  0  0  0
    3.4810   -2.5082   -0.9582 H   0  0  0  0  0  0  0  0  0  0  0  0
    2.4620   -3.9622   -0.9600 H   0  0  0  0  0  0  0  0  0  0  0  0
    2.3249   -2.7865   -2.2843 H   0  0  0  0  0  0  0  0  0  0  0  0
  1  2  1  0  0  0  0
  2  3  1  0  0  0  0
  2  4  1  0  0  0  0
  2  5  1  0  0  0  0
  5  6  2  0  0  0  0
  5  7  1  0  0  0  0
  7  8  1  0  0  0  0
  7  9  1  0  0  0  0
  9 10  1  0  0  0  0
  9 11  1  0  0  0  0
  9 16  1  0  0  0  0
 11 12  1  0  0  0  0
 11 13  1  0  0  0  0
 11 14  1  0  0  0  0
 14 15  1  0  0  0  0
 16 17  2  0  0  0  0
 16 18  1  0  0  0  0
 18 19  1  0  0  0  0
 18 20  1  0  0  0  0
 20 21  1  0  0  0  0
 20 22  1  0  0  0  0
 20 23  1  0  0  0  0
M  END
$$$$

  -OEChem-01062216073D

 23 22  0     1  0  0  0  0  0999 V2000
   -3.0985   -3.3284    1.3654 H   0  0  0  0  0  0  0  0  0  0  0  0
   -2.9916   -2.3134    0.9724 C   0  0  0  0  0  0  0  0  0  0  0  0
   -3.4984   -1.6205    1.6485 H   0  0  0  0  0  0  0  0  0  0  0  0
   -3.4655   -2.2653   -0.0111 H   0  0  0  0  0  0  0  0  0  0  0  0
   -1.5242   -1.9469    0.8590 C   0  0  0  0  0  0  0  0  0  0  0  0
   -0.6745   -2.7591    1.1879 O   0  0  0  0  0  0  0  0  0  0  0  0
   -1.1772   -0.6925    0.3948 N   0  0  0  0  0  0  0  0  0  0  0  0
   -1.9572   -0.0594    0.2410 H   0  0  0  0  0  0  0  0  0  0  0  0
    0.1771   -0.0944    0.3163 C   0  0  1  0  0  0  0  0  0  0  0  0
    0.0668    0.8992   -0.1303 H   0  0  0  0  0  0  0  0  0  0  0  0
    0.7390    0.0932    1.7332 C   0  0  0  0  0  0  0  0  0  0  0  0
    0.7606   -0.8608    2.2698 H   0  0  0  0  0  0  0  0  0  0  0  0
    1.7691    0.4612    1.6715 H   0  0  0  0  0  0  0  0  0  0  0  0
   -0.2779    1.3221    2.6539 S   0  0  0  0  0  0  0  0  0  0  0  0
    0.3944    1.3788    3.8249 H   0  0  0  0  0  0  0  0  0  0  0  0
    1.2349   -0.8164   -0.5557 C   0  0  0  0  0  0  0  0  0  0  0  0
    2.1213   -0.1458   -1.0690 O   0  0  0  0  0  0  0  0  0  0  0  0
    1.2415   -2.1820   -0.7593 N   0  0  0  0  0  0  0  0  0  0  0  0
    0.6000   -2.7195   -0.1717 H   0  0  0  0  0  0  0  0  0  0  0  0
    2.3025   -2.8865   -1.4667 C   0  0  0  0  0  0  0  0  0  0  0  0
    3.2583   -2.7622   -0.9471 H   0  0  0  0  0  0  0  0  0  0  0  0
    2.0736   -3.9550   -1.5219 H   0  0  0  0  0  0  0  0  0  0  0  0
    2.4027   -2.5026   -2.4874 H   0  0  0  0  0  0  0  0  0  0  0  0
  1  2  1  0  0  0  0
  2  3  1  0  0  0  0
  2  4  1  0  0  0  0
  2  5  1  0  0  0  0
  5  6  2  0  0  0  0
  5  7  1  0  0  0  0
  7  8  1  0  0  0  0
  7  9  1  0  0  0  0
  9 10  1  0  0  0  0
  9 11  1  0  0  0  0
  9 16  1  0  0  0  0
 11 12  1  0  0  0  0
 11 13  1  0  0  0  0
 11 14  1  0  0  0  0
 14 15  1  0  0  0  0
 16 17  2  0  0  0  0
 16 18  1  0  0  0  0
 18 19  1  0  0  0  0
 18 20  1  0  0  0  0
 20 21  1  0  0  0  0
 20 22  1  0  0  0  0
 20 23  1  0  0  0  0
M  END
$$$$

  -OEChem-01062216073D

 23 22  0     1  0  0  0  0  0999 V2000
   -3.0719   -3.3221    1.3911 H   0  0  0  0  0  0  0  0  0  0  0  0
   -2.9788   -2.3009    1.0103 C   0  0  0  0  0  0  0  0  0  0  0  0
   -3.4435   -1.6166    1.7246 H   0  0  0  0  0  0  0  0  0  0  0  0
   -3.5044   -2.2323    0.0547 H   0  0  0  0  0  0  0  0  0  0  0  0
   -1.5168   -1.9422    0.8250 C   0  0  0  0  0  0  0  0  0  0  0  0
   -0.6569   -2.7734    1.0668 O   0  0  0  0  0  0  0  0  0  0  0  0
   -1.1808   -0.6817    0.3705 N   0  0  0  0  0  0  0  0  0  0  0  0
   -1.9596   -0.0331    0.2944 H   0  0  0  0  0  0  0  0  0  0  0  0
    0.1740   -0.0829    0.2999 C   0  0  1  0  0  0  0  0  0  0  0  0
    0.0680    0.9143   -0.1388 H   0  0  0  0  0  0  0  0  0  0  0  0
    0.7243    0.0860    1.7246 C   0  0  0  0  0  0  0  0  0  0  0  0
    0.7418   -0.8754    2.2481 H   0  0  0  0  0  0  0  0  0  0  0  0
    1.7550    0.4550    1.6790 H   0  0  0  0  0  0  0  0  0  0  0  0
   -0.3006    1.3031    2.6524 S   0  0  0  0  0  0  0  0  0  0  0  0
    0.3572    1.3346    3.8327 H   0  0  0  0  0  0  0  0  0  0  0  0
    1.2331   -0.7992   -0.5767 C   0  0  0  0  0  0  0  0  0  0  0  0
    2.2374   -0.1791   -0.9034 O   0  0  0  0  0  0  0  0  0  0  0  0
    1.0763   -2.0926   -1.0353 N   0  0  0  0  0  0  0  0  0  0  0  0
    0.3753   -2.6389   -0.5311 H   0  0  0  0  0  0  0  0  0  0  0  0
    2.1187   -2.8112   -1.7565 C   0  0  0  0  0  0  0  0  0  0  0  0
    3.0113   -2.9206   -1.1319 H   0  0  0  0  0  0  0  0  0  0  0  0
    1.7646   -3.8083   -2.0351 H   0  0  0  0  0  0  0  0  0  0  0  0
    2.3916   -2.2754   -2.6716 H   0  0  0  0  0  0  0  0  0  0  0  0
  1  2  1  0  0  0  0
  2  3  1  0  0  0  0
  2  4  1  0  0  0  0
  2  5  1  0  0  0  0
  5  6  2  0  0  0  0
  5  7  1  0  0  0  0
  7  8  1  0  0  0  0
  7  9  1  0  0  0  0
  9 10  1  0  0  0  0
  9 11  1  0  0  0  0
  9 16  1  0  0  0  0
 11 12  1  0  0  0  0
 11 13  1  0  0  0  0
 11 14  1  0  0  0  0
 14 15  1  0  0  0  0
 16 17  2  0  0  0  0
 16 18  1  0  0  0  0
 18 19  1  0  0  0  0
 18 20  1  0  0  0  0
 20 21  1  0  0  0  0
 20 22  1  0  0  0  0
 20 23  1  0  0  0  0
M  END
$$$$

  -OEChem-01062216073D

 23 22  0     1  0  0  0  0  0999 V2000
   -3.0222   -3.3202    1.4173 H   0  0  0  0  0  0  0  0  0  0  0  0
   -2.9467   -2.2951    1.0435 C   0  0  0  0  0  0  0  0  0  0  0  0
   -3.3644   -1.6173    1.7921 H   0  0  0  0  0  0  0  0  0  0  0  0
   -3.5274   -2.2118    0.1217 H   0  0  0  0  0  0  0  0  0  0  0  0
   -1.4963   -1.9412    0.7765 C   0  0  0  0  0  0  0  0  0  0  0  0
   -0.6298   -2.7875    0.9183 O   0  0  0  0  0  0  0  0  0  0  0  0
   -1.1760   -0.6719    0.3368 N   0  0  0  0  0  0  0  0  0  0  0  0
   -1.9510   -0.0142    0.3417 H   0  0  0  0  0  0  0  0  0  0  0  0
    0.1785   -0.0708    0.2903 C   0  0  1  0  0  0  0  0  0  0  0  0
    0.0819    0.9307   -0.1403 H   0  0  0  0  0  0  0  0  0  0  0  0
    0.7026    0.0794    1.7279 C   0  0  0  0  0  0  0  0  0  0  0  0
    0.7124   -0.8896    2.2376 H   0  0  0  0  0  0  0  0  0  0  0  0
    1.7328    0.4514    1.7086 H   0  0  0  0  0  0  0  0  0  0  0  0
   -0.3413    1.2829    2.6523 S   0  0  0  0  0  0  0  0  0  0  0  0
    0.3084    1.3170    3.8370 H   0  0  0  0  0  0  0  0  0  0  0  0
    1.2426   -0.7847   -0.5827 C   0  0  0  0  0  0  0  0  0  0  0  0
    2.3413   -0.2614   -0.7229 O   0  0  0  0  0  0  0  0  0  0  0  0
    0.9593   -1.9353   -1.2933 N   0  0  0  0  0  0  0  0  0  0  0  0
    0.1785   -2.4708   -0.9130 H   0  0  0  0  0  0  0  0  0  0  0  0
    1.9748   -2.6589   -2.0478 C   0  0  0  0  0  0  0  0  0  0  0  0
    2.7720   -3.0055   -1.3819 H   0  0  0  0  0  0  0  0  0  0  0  0
    1.5299   -3.5286   -2.5407 H   0  0  0  0  0  0  0  0  0  0  0  0
    2.4130   -2.0148   -2.8175 H   0  0  0  0  0  0  0  0  0  0  0  0
  1  2  1  0  0  0  0
  2  3  1  0  0  0  0
  2  4  1  0  0  0  0
  2  5  1  0  0  0  0
  5  6  2  0  0  0  0
  5  7  1  0  0  0  0
  7  8  1  0  0  0  0
  7  9  1  0  0  0  0
  9 10  1  0  0  0  0
  9 11  1  0  0  0  0
  9 16  1  0  0  0  0
 11 12  1  0  0  0  0
 11 13  1  0  0  0  0
 11 14  1  0  0  0  0
 14 15  1  0  0  0  0
 16 17  2  0  0  0  0
 16 18  1  0  0  0  0
 18 19  1  0  0  0  0
 18 20  1  0  0  0  0
 20 21  1  0  0  0  0
 20 22  1  0  0  0  0
 20 23  1  0  0  0  0
M  END
$$$$

  -OEChem-01062216073D

 23 22  0     1  0  0  0  0  0999 V2000
   -2.9436   -3.3506    1.3936 H   0  0  0  0  0  0  0  0  0  0  0  0
   -2.8905   -2.3144    1.0475 C   0  0  0  0  0  0  0  0  0  0  0  0
   -3.2833   -1.6624    1.8317 H   0  0  0  0  0  0  0  0  0  0  0  0
   -3.5076   -2.2099    0.1519 H   0  0  0  0  0  0  0  0  0  0  0  0
   -1.4541   -1.9403    0.7358 C   0  0  0  0  0  0  0  0  0  0  0  0
   -0.5756   -2.7806    0.8220 O   0  0  0  0  0  0  0  0  0  0  0  0
   -1.1585   -0.6593    0.3127 N   0  0  0  0  0  0  0  0  0  0  0  0
   -1.9347   -0.0056    0.3751 H   0  0  0  0  0  0  0  0  0  0  0  0
    0.1928   -0.0510    0.2924 C   0  0  1  0  0  0  0  0  0  0  0  0
    0.1019    0.9531   -0.1326 H   0  0  0  0  0  0  0  0  0  0  0  0
    0.6910    0.0888    1.7416 C   0  0  0  0  0  0  0  0  0  0  0  0
    0.6987   -0.8848    2.2423 H   0  0  0  0  0  0  0  0  0  0  0  0
    1.7185    0.4684    1.7472 H   0  0  0  0  0  0  0  0  0  0  0  0
   -0.3772    1.2787    2.6557 S   0  0  0  0  0  0  0  0  0  0  0  0
    0.2552    1.3103    3.8497 H   0  0  0  0  0  0  0  0  0  0  0  0
    1.2539   -0.7670   -0.5829 C   0  0  0  0  0  0  0  0  0  0  0  0
    2.4220   -0.3992   -0.5427 O   0  0  0  0  0  0  0  0  0  0  0  0
    0.8846   -1.7088   -1.5246 N   0  0  0  0  0  0  0  0  0  0  0  0
   -0.0073   -2.1580   -1.3300 H   0  0  0  0  0  0  0  0  0  0  0  0
    1.8628   -2.4529   -2.3082 C   0  0  0  0  0  0  0  0  0  0  0  0
    2.5078   -3.0465   -1.6517 H   0  0  0  0  0  0  0  0  0  0  0  0
    1.3543   -3.1298   -3.0013 H   0  0  0  0  0  0  0  0  0  0  0  0
    2.4881   -1.7693   -2.8922 H   0  0  0  0  0  0  0  0  0  0  0  0
  1  2  1  0  0  0  0
  2  3  1  0  0  0  0
  2  4  1  0  0  0  0
  2  5  1  0  0  0  0
  5  6  2  0  0  0  0
  5  7  1  0  0  0  0
  7  8  1  0  0  0  0
  7  9  1  0  0  0  0
  9 10  1  0  0  0  0
  9 11  1  0  0  0  0
  9 16  1  0  0  0  0
 11 12  1  0  0  0  0
 11 13  1  0  0  0  0
 11 14  1  0  0  0  0
 14 15  1  0  0  0  0
 16 17  2  0  0  0  0
 16 18  1  0  0  0  0
 18 19  1  0  0  0  0
 18 20  1  0  0  0  0
 20 21  1  0  0  0  0
 20 22  1  0  0  0  0
 20 23  1  0  0  0  0
M  END
$$$$

  -OEChem-01062216073D

 23 22  0     1  0  0  0  0  0999 V2000
   -2.8667   -3.3951    1.3352 H   0  0  0  0  0  0  0  0  0  0  0  0
   -2.8306   -2.3500    1.0150 C   0  0  0  0  0  0  0  0  0  0  0  0
   -3.2367   -1.7240    1.8134 H   0  0  0  0  0  0  0  0  0  0  0  0
   -3.4469   -2.2345    0.1202 H   0  0  0  0  0  0  0  0  0  0  0  0
   -1.4000   -1.9438    0.7176 C   0  0  0  0  0  0  0  0  0  0  0  0
   -0.5037   -2.7628    0.8193 O   0  0  0  0  0  0  0  0  0  0  0  0
   -1.1299   -0.6529    0.3053 N   0  0  0  0  0  0  0  0  0  0  0  0
   -1.9155   -0.0121    0.3812 H   0  0  0  0  0  0  0  0  0  0  0  0
    0.2138   -0.0298    0.3053 C   0  0  1  0  0  0  0  0  0  0  0  0
    0.1227    0.9747   -0.1187 H   0  0  0  0  0  0  0  0  0  0  0  0
    0.6948    0.1132    1.7605 C   0  0  0  0  0  0  0  0  0  0  0  0
    0.7087   -0.8610    2.2599 H   0  0  0  0  0  0  0  0  0  0  0  0
    1.7174    0.5051    1.7787 H   0  0  0  0  0  0  0  0  0  0  0  0
   -0.3991    1.2895    2.6619 S   0  0  0  0  0  0  0  0  0  0  0  0
    0.2030    1.3066    3.8720 H   0  0  0  0  0  0  0  0  0  0  0  0
    1.2671   -0.7514   -0.5739 C   0  0  0  0  0  0  0  0  0  0  0  0
    2.4652   -0.5921   -0.3724 O   0  0  0  0  0  0  0  0  0  0  0  0
    0.8669   -1.4396   -1.7043 N   0  0  0  0  0  0  0  0  0  0  0  0
   -0.1149   -1.6984   -1.7206 H   0  0  0  0  0  0  0  0  0  0  0  0
    1.7956   -2.2081   -2.5235 C   0  0  0  0  0  0  0  0  0  0  0  0
    2.2466   -3.0142   -1.9352 H   0  0  0  0  0  0  0  0  0  0  0  0
    1.2707   -2.6504   -3.3755 H   0  0  0  0  0  0  0  0  0  0  0  0
    2.5930   -1.5640   -2.9088 H   0  0  0  0  0  0  0  0  0  0  0  0
  1  2  1  0  0  0  0
  2  3  1  0  0  0  0
  2  4  1  0  0  0  0
  2  5  1  0  0  0  0
  5  6  2  0  0  0  0
  5  7  1  0  0  0  0
  7  8  1  0  0  0  0
  7  9  1  0  0  0  0
  9 10  1  0  0  0  0
  9 11  1  0  0  0  0
  9 16  1  0  0  0  0
 11 12  1  0  0  0  0
 11 13  1  0  0  0  0
 11 14  1  0  0  0  0
 14 15  1  0  0  0  0
 16 17  2  0  0  0  0
 16 18  1  0  0  0  0
 18 19  1  0  0  0  0
 18 20  1  0  0  0  0
 20 21  1  0  0  0  0
 20 22  1  0  0  0  0
 20 23  1  0  0  0  0
M  END
$$$$

  -OEChem-01062216073D

 23 22  0     1  0  0  0  0  0999 V2000
   -2.8371   -3.4080    1.3231 H   0  0  0  0  0  0  0  0  0  0  0  0
   -2.8073   -2.3679    0.9860 C   0  0  0  0  0  0  0  0  0  0  0  0
   -3.2413   -1.7345    1.7635 H   0  0  0  0  0  0  0  0  0  0  0  0
   -3.4024   -2.2763    0.0743 H   0  0  0  0  0  0  0  0  0  0  0  0
   -1.3753   -1.9479    0.7154 C   0  0  0  0  0  0  0  0  0  0  0  0
   -0.4745   -2.7584    0.8401 O   0  0  0  0  0  0  0  0  0  0  0  0
   -1.1117   -0.6546    0.3051 N   0  0  0  0  0  0  0  0  0  0  0  0
   -1.9012   -0.0190    0.3840 H   0  0  0  0  0  0  0  0  0  0  0  0
    0.2289   -0.0275    0.3167 C   0  0  1  0  0  0  0  0  0  0  0  0
    0.1415    0.9754   -0.1114 H   0  0  0  0  0  0  0  0  0  0  0  0
    0.6995    0.1242    1.7746 C   0  0  0  0  0  0  0  0  0  0  0  0
    0.7129   -0.8480    2.2781 H   0  0  0  0  0  0  0  0  0  0  0  0
    1.7212    0.5184    1.7969 H   0  0  0  0  0  0  0  0  0  0  0  0
   -0.4033    1.3010    2.6644 S   0  0  0  0  0  0  0  0  0  0  0  0
    0.1826    1.3114    3.8826 H   0  0  0  0  0  0  0  0  0  0  0  0
    1.2762   -0.7603   -0.5596 C   0  0  0  0  0  0  0  0  0  0  0  0
    2.4558   -0.8145   -0.2316 O   0  0  0  0  0  0  0  0  0  0  0  0
    0.9208   -1.1740   -1.8304 N   0  0  0  0  0  0  0  0  0  0  0  0
   -0.0768   -1.2376   -2.0071 H   0  0  0  0  0  0  0  0  0  0  0  0
    1.8297   -1.9137   -2.6973 C   0  0  0  0  0  0  0  0  0  0  0  0
    2.1282   -2.8548   -2.2233 H   0  0  0  0  0  0  0  0  0  0  0  0
    1.3422   -2.1433   -3.6495 H   0  0  0  0  0  0  0  0  0  0  0  0
    2.7283   -1.3232   -2.9048 H   0  0  0  0  0  0  0  0  0  0  0  0
  1  2  1  0  0  0  0
  2  3  1  0  0  0  0
  2  4  1  0  0  0  0
  2  5  1  0  0  0  0
  5  6  2  0  0  0  0
  5  7  1  0  0  0  0
  7  8  1  0  0  0  0
  7  9  1  0  0  0  0
  9 10  1  0  0  0  0
  9 11  1  0  0  0  0
  9 16  1  0  0  0  0
 11 12  1  0  0  0  0
 11 13  1  0  0  0  0
 11 14  1  0  0  0  0
 14 15  1  0  0  0  0
 16 17  2  0  0  0  0
 16 18  1  0  0  0  0
 18 19  1  0  0  0  0
 18 20  1  0  0  0  0
 20 21  1  0  0  0  0
 20 22  1  0  0  0  0
 20 23  1  0  0  0  0
M  END
$$$$

  -OEChem-01062216073D

 23 22  0     1  0  0  0  0  0999 V2000
   -2.8434   -3.4048    1.3412 H   0  0  0  0  0  0  0  0  0  0  0  0
   -2.8101   -2.3698    0.9896 C   0  0  0  0  0  0  0  0  0  0  0  0
   -3.2456   -1.7250    1.7569 H   0  0  0  0  0  0  0  0  0  0  0  0
   -3.4018   -2.2900    0.0747 H   0  0  0  0  0  0  0  0  0  0  0  0
   -1.3759   -1.9566    0.7185 C   0  0  0  0  0  0  0  0  0  0  0  0
   -0.4786   -2.7681    0.8582 O   0  0  0  0  0  0  0  0  0  0  0  0
   -1.1084   -0.6658    0.3031 N   0  0  0  0  0  0  0  0  0  0  0  0
   -1.8984   -0.0302    0.3729 H   0  0  0  0  0  0  0  0  0  0  0  0
    0.2317   -0.0398    0.3152 C   0  0  1  0  0  0  0  0  0  0  0  0
    0.1463    0.9622   -0.1151 H   0  0  0  0  0  0  0  0  0  0  0  0
    0.6998    0.1194    1.7727 C   0  0  0  0  0  0  0  0  0  0  0  0
    0.7114   -0.8509    2.2803 H   0  0  0  0  0  0  0  0  0  0  0  0
    1.7225    0.5109    1.7928 H   0  0  0  0  0  0  0  0  0  0  0  0
   -0.4031    1.3017    2.6554 S   0  0  0  0  0  0  0  0  0  0  0  0
    0.1780    1.3128    3.8760 H   0  0  0  0  0  0  0  0  0  0  0  0
    1.2788   -0.7793   -0.5553 C   0  0  0  0  0  0  0  0  0  0  0  0
    2.3999   -1.0370   -0.1324 O   0  0  0  0  0  0  0  0  0  0  0  0
    1.0391   -0.9183   -1.9104 N   0  0  0  0  0  0  0  0  0  0  0  0
    0.0777   -0.7909   -2.2097 H   0  0  0  0  0  0  0  0  0  0  0  0
    1.9678   -1.5926   -2.8096 C   0  0  0  0  0  0  0  0  0  0  0  0
    2.1190   -2.6306   -2.4944 H   0  0  0  0  0  0  0  0  0  0  0  0
    1.5739   -1.5930   -3.8305 H   0  0  0  0  0  0  0  0  0  0  0  0
    2.9366   -1.0819   -2.8151 H   0  0  0  0  0  0  0  0  0  0  0  0
  1  2  1  0  0  0  0
  2  3  1  0  0  0  0
  2  4  1  0  0  0  0
  2  5  1  0  0  0  0
  5  6  2  0  0  0  0
  5  7  1  0  0  0  0
  7  8  1  0  0  0  0
  7  9  1  0  0  0  0
  9 10  1  0  0  0  0
  9 11  1  0  0  0  0
  9 16  1  0  0  0  0
 11 12  1  0  0  0  0
 11 13  1  0  0  0  0
 11 14  1  0  0  0  0
 14 15  1  0  0  0  0
 16 17  2  0  0  0  0
 16 18  1  0  0  0  0
 18 19  1  0  0  0  0
 18 20  1  0  0  0  0
 20 21  1  0  0  0  0
 20 22  1  0  0  0  0
 20 23  1  0  0  0  0
M  END
$$$$

  -OEChem-01062216073D

 23 22  0     1  0  0  0  0  0999 V2000
   -2.8627   -3.4042    1.3482 H   0  0  0  0  0  0  0  0  0  0  0  0
   -2.8227   -2.3726    0.9873 C   0  0  0  0  0  0  0  0  0  0  0  0
   -3.2694   -1.7197    1.7411 H   0  0  0  0  0  0  0  0  0  0  0  0
   -3.3995   -2.3015    0.0623 H   0  0  0  0  0  0  0  0  0  0  0  0
   -1.3838   -1.9639    0.7347 C   0  0  0  0  0  0  0  0  0  0  0  0
   -0.4920   -2.7756    0.9010 O   0  0  0  0  0  0  0  0  0  0  0  0
   -1.1099   -0.6771    0.3108 N   0  0  0  0  0  0  0  0  0  0  0  0
   -1.9011   -0.0417    0.3599 H   0  0  0  0  0  0  0  0  0  0  0  0
    0.2301   -0.0516    0.3103 C   0  0  1  0  0  0  0  0  0  0  0  0
    0.1408    0.9498   -0.1203 H   0  0  0  0  0  0  0  0  0  0  0  0
    0.7089    0.1150    1.7633 C   0  0  0  0  0  0  0  0  0  0  0  0
    0.7205   -0.8528    2.2761 H   0  0  0  0  0  0  0  0  0  0  0  0
    1.7335    0.5020    1.7724 H   0  0  0  0  0  0  0  0  0  0  0  0
   -0.3861    1.3025    2.6484 S   0  0  0  0  0  0  0  0  0  0  0  0
    0.1876    1.2973    3.8723 H   0  0  0  0  0  0  0  0  0  0  0  0
    1.2760   -0.7935   -0.5606 C   0  0  0  0  0  0  0  0  0  0  0  0
    2.3071   -1.2504   -0.0812 O   0  0  0  0  0  0  0  0  0  0  0  0
    1.1978   -0.6731   -1.9370 N   0  0  0  0  0  0  0  0  0  0  0  0
    0.3146   -0.3465   -2.3157 H   0  0  0  0  0  0  0  0  0  0  0  0
    2.1655   -1.2830   -2.8416 C   0  0  0  0  0  0  0  0  0  0  0  0
    2.1911   -2.3686   -2.6990 H   0  0  0  0  0  0  0  0  0  0  0  0
    1.8955   -1.0756   -3.8814 H   0  0  0  0  0  0  0  0  0  0  0  0
    3.1676   -0.8807   -2.6594 H   0  0  0  0  0  0  0  0  0  0  0  0
  1  2  1  0  0  0  0
  2  3  1  0  0  0  0
  2  4  1  0  0  0  0
  2  5  1  0  0  0  0
  5  6  2  0  0  0  0
  5  7  1  0  0  0  0
  7  8  1  0  0  0  0
  7  9  1  0  0  0  0
  9 10  1  0  0  0  0
  9 11  1  0  0  0  0
  9 16  1  0  0  0  0
 11 12  1  0  0  0  0
 11 13  1  0  0  0  0
 11 14  1  0  0  0  0
 14 15  1  0  0  0  0
 16 17  2  0  0  0  0
 16 18  1  0  0  0  0
 18 19  1  0  0  0  0
 18 20  1  0  0  0  0
 20 21  1  0  0  0  0
 20 22  1  0  0  0  0
 20 23  1  0  0  0  0
M  END
$$$$

  -OEChem-01062216073D

 23 22  0     1  0  0  0  0  0999 V2000
   -2.8994   -3.3960    1.3700 H   0  0  0  0  0  0  0  0  0  0  0  0
   -2.8464   -2.3744    0.9831 C   0  0  0  0  0  0  0  0  0  0  0  0
   -3.3138   -1.7013    1.7058 H   0  0  0  0  0  0  0  0  0  0  0  0
   -3.3952   -2.3266    0.0397 H   0  0  0  0  0  0  0  0  0  0  0  0
   -1.4000   -1.9746    0.7617 C   0  0  0  0  0  0  0  0  0  0  0  0
   -0.5179   -2.7863    0.9698 O   0  0  0  0  0  0  0  0  0  0  0  0
   -1.1153   -0.6942    0.3257 N   0  0  0  0  0  0  0  0  0  0  0  0
   -1.9090   -0.0605    0.3326 H   0  0  0  0  0  0  0  0  0  0  0  0
    0.2245   -0.0689    0.3017 C   0  0  1  0  0  0  0  0  0  0  0  0
    0.1249    0.9313   -0.1292 H   0  0  0  0  0  0  0  0  0  0  0  0
    0.7266    0.1067    1.7450 C   0  0  0  0  0  0  0  0  0  0  0  0
    0.7445   -0.8579    2.2640 H   0  0  0  0  0  0  0  0  0  0  0  0
    1.7525    0.4899    1.7335 H   0  0  0  0  0  0  0  0  0  0  0  0
   -0.3530    1.3003    2.6408 S   0  0  0  0  0  0  0  0  0  0  0  0
    0.2250    1.2819    3.8627 H   0  0  0  0  0  0  0  0  0  0  0  0
    1.2703   -0.8077   -0.5725 C   0  0  0  0  0  0  0  0  0  0  0  0
    2.1868   -1.4530   -0.0786 O   0  0  0  0  0  0  0  0  0  0  0  0
    1.3825   -0.4554   -1.9065 N   0  0  0  0  0  0  0  0  0  0  0  0
    0.6104    0.0621   -2.3140 H   0  0  0  0  0  0  0  0  0  0  0  0
    2.4091   -0.9962   -2.7898 C   0  0  0  0  0  0  0  0  0  0  0  0
    2.3294   -2.0869   -2.8469 H   0  0  0  0  0  0  0  0  0  0  0  0
    2.2957   -0.5868   -3.7980 H   0  0  0  0  0  0  0  0  0  0  0  0
    3.4072   -0.7351   -2.4227 H   0  0  0  0  0  0  0  0  0  0  0  0
  1  2  1  0  0  0  0
  2  3  1  0  0  0  0
  2  4  1  0  0  0  0
  2  5  1  0  0  0  0
  5  6  2  0  0  0  0
  5  7  1  0  0  0  0
  7  8  1  0  0  0  0
  7  9  1  0  0  0  0
  9 10  1  0  0  0  0
  9 11  1  0  0  0  0
  9 16  1  0  0  0  0
 11 12  1  0  0  0  0
 11 13  1  0  0  0  0
 11 14  1  0  0  0  0
 14 15  1  0  0  0  0
 16 17  2  0  0  0  0
 16 18  1  0  0  0  0
 18 19  1  0  0  0  0
 18 20  1  0  0  0  0
 20 21  1  0  0  0  0
 20 22  1  0  0  0  0
 20 23  1  0  0  0  0
M  END
$$$$

  -OEChem-01062216073D

 23 22  0     1  0  0  0  0  0999 V2000
   -2.9352   -3.4010    1.3569 H   0  0  0  0  0  0  0  0  0  0  0  0
   -2.8684   -2.3832    0.9622 C   0  0  0  0  0  0  0  0  0  0  0  0
   -3.3668   -1.7036    1.6577 H   0  0  0  0  0  0  0  0  0  0  0  0
   -3.3773   -2.3466   -0.0037 H   0  0  0  0  0  0  0  0  0  0  0  0
   -1.4146   -1.9820    0.7976 C   0  0  0  0  0  0  0  0  0  0  0  0
   -0.5439   -2.7822    1.0815 O   0  0  0  0  0  0  0  0  0  0  0  0
   -1.1202   -0.7079    0.3486 N   0  0  0  0  0  0  0  0  0  0  0  0
   -1.9191   -0.0840    0.2905 H   0  0  0  0  0  0  0  0  0  0  0  0
    0.2178   -0.0789    0.2954 C   0  0  1  0  0  0  0  0  0  0  0  0
    0.0998    0.9202   -0.1335 H   0  0  0  0  0  0  0  0  0  0  0  0
    0.7514    0.1044    1.7254 C   0  0  0  0  0  0  0  0  0  0  0  0
    0.7807   -0.8579    2.2481 H   0  0  0  0  0  0  0  0  0  0  0  0
    1.7769    0.4866    1.6896 H   0  0  0  0  0  0  0  0  0  0  0  0
   -0.3091    1.2992    2.6420 S   0  0  0  0  0  0  0  0  0  0  0  0
    0.2800    1.2640    3.8579 H   0  0  0  0  0  0  0  0  0  0  0  0
    1.2665   -0.8068   -0.5857 C   0  0  0  0  0  0  0  0  0  0  0  0
    2.0342   -1.6426   -0.1282 O   0  0  0  0  0  0  0  0  0  0  0  0
    1.5883   -0.2630   -1.8182 N   0  0  0  0  0  0  0  0  0  0  0  0
    0.9682    0.4480   -2.1918 H   0  0  0  0  0  0  0  0  0  0  0  0
    2.6655   -0.7701   -2.6614 C   0  0  0  0  0  0  0  0  0  0  0  0
    2.4912   -1.8210   -2.9155 H   0  0  0  0  0  0  0  0  0  0  0  0
    2.7226   -0.1942   -3.5899 H   0  0  0  0  0  0  0  0  0  0  0  0
    3.6279   -0.6877   -2.1452 H   0  0  0  0  0  0  0  0  0  0  0  0
  1  2  1  0  0  0  0
  2  3  1  0  0  0  0
  2  4  1  0  0  0  0
  2  5  1  0  0  0  0
  5  6  2  0  0  0  0
  5  7  1  0  0  0  0
  7  8  1  0  0  0  0
  7  9  1  0  0  0  0
  9 10  1  0  0  0  0
  9 11  1  0  0  0  0
  9 16  1  0  0  0  0
 11 12  1  0  0  0  0
 11 13  1  0  0  0  0
 11 14  1  0  0  0  0
 14 15  1  0  0  0  0
 16 17  2  0  0  0  0
 16 18  1  0  0  0  0
 18 19  1  0  0  0  0
 18 20  1  0  0  0  0
 20 21  1  0  0  0  0
 20 22  1  0  0  0  0
 20 23  1  0  0  0  0
M  END
$$$$

  -OEChem-01062216073D

 23 22  0     1  0  0  0  0  0999 V2000
   -2.9382   -3.4480    1.2392 H   0  0  0  0  0  0  0  0  0  0  0  0
   -2.8564   -2.4325    0.8411 C   0  0  0  0  0  0  0  0  0  0  0  0
   -3.4884   -1.7695    1.4366 H   0  0  0  0  0  0  0  0  0  0  0  0
   -3.2082   -2.4324   -0.1931 H   0  0  0  0  0  0  0  0  0  0  0  0
   -1.4145   -1.9635    0.8980 C   0  0  0  0  0  0  0  0  0  0  0  0
   -0.5802   -2.6899    1.4045 O   0  0  0  0  0  0  0  0  0  0  0  0
   -1.1112   -0.6957    0.4337 N   0  0  0  0  0  0  0  0  0  0  0  0
   -1.9087   -0.1405    0.1418 H   0  0  0  0  0  0  0  0  0  0  0  0
    0.2245   -0.0638    0.3406 C   0  0  1  0  0  0  0  0  0  0  0  0
    0.0808    0.9293   -0.0937 H   0  0  0  0  0  0  0  0  0  0  0  0
    0.8139    0.1434    1.7443 C   0  0  0  0  0  0  0  0  0  0  0  0
    0.8657   -0.8093    2.2814 H   0  0  0  0  0  0  0  0  0  0  0  0
    1.8364    0.5261    1.6633 H   0  0  0  0  0  0  0  0  0  0  0  0
   -0.2110    1.3502    2.6853 S   0  0  0  0  0  0  0  0  0  0  0  0
    0.3837    1.2834    3.8971 H   0  0  0  0  0  0  0  0  0  0  0  0
    1.2615   -0.7849   -0.5588 C   0  0  0  0  0  0  0  0  0  0  0  0
    1.7675   -1.8572   -0.2653 O   0  0  0  0  0  0  0  0  0  0  0  0
    1.7924   -0.1041   -1.6420 N   0  0  0  0  0  0  0  0  0  0  0  0
    1.4045    0.8072   -1.8637 H   0  0  0  0  0  0  0  0  0  0  0  0
    2.8488   -0.6448   -2.4906 C   0  0  0  0  0  0  0  0  0  0  0  0
    2.5292   -1.5873   -2.9477 H   0  0  0  0  0  0  0  0  0  0  0  0
    3.0912    0.0617   -3.2902 H   0  0  0  0  0  0  0  0  0  0  0  0
    3.7558   -0.8279   -1.9047 H   0  0  0  0  0  0  0  0  0  0  0  0
  1  2  1  0  0  0  0
  2  3  1  0  0  0  0
  2  4  1  0  0  0  0
  2  5  1  0  0  0  0
  5  6  2  0  0  0  0
  5  7  1  0  0  0  0
  7  8  1  0  0  0  0
  7  9  1  0  0  0  0
  9 10  1  0  0  0  0
  9 11  1  0  0  0  0
  9 16  1  0  0  0  0
 11 12  1  0  0  0  0
 11 13  1  0  0  0  0
 11 14  1  0  0  0  0
 14 15  1  0  0  0  0
 16 17  2  0  0  0  0
 16 18  1  0  0  0  0
 18 19  1  0  0  0  0
 18 20  1  0  0  0  0
 20 21  1  0  0  0  0
 20 22  1  0  0  0  0
 20 23  1  0  0  0  0
M  END
$$$$

  -OEChem-01062216073D

 23 22  0     1  0  0  0  0  0999 V2000
   -2.8375   -3.5073    1.1259 H   0  0  0  0  0  0  0  0  0  0  0  0
   -2.7693   -2.4986    0.7087 C   0  0  0  0  0  0  0  0  0  0  0  0
   -3.5385   -1.8742    1.1690 H   0  0  0  0  0  0  0  0  0  0  0  0
   -2.9452   -2.5527   -0.3682 H   0  0  0  0  0  0  0  0  0  0  0  0
   -1.3958   -1.9144    0.9800 C   0  0  0  0  0  0  0  0  0  0  0  0
   -0.6184   -2.5380    1.6823 O   0  0  0  0  0  0  0  0  0  0  0  0
   -1.1062   -0.6448    0.5093 N   0  0  0  0  0  0  0  0  0  0  0  0
   -1.8472   -0.2123   -0.0317 H   0  0  0  0  0  0  0  0  0  0  0  0
    0.2385   -0.0322    0.4165 C   0  0  1  0  0  0  0  0  0  0  0  0
    0.0973    0.9533   -0.0358 H   0  0  0  0  0  0  0  0  0  0  0  0
    0.8492    0.2047    1.8072 C   0  0  0  0  0  0  0  0  0  0  0  0
    0.8999   -0.7313    2.3715 H   0  0  0  0  0  0  0  0  0  0  0  0
    1.8738    0.5761    1.7047 H   0  0  0  0  0  0  0  0  0  0  0  0
   -0.1471    1.4481    2.7298 S   0  0  0  0  0  0  0  0  0  0  0  0
    0.4160    1.3561    3.9547 H   0  0  0  0  0  0  0  0  0  0  0  0
    1.2620   -0.7703   -0.4844 C   0  0  0  0  0  0  0  0  0  0  0  0
    1.3315   -1.9877   -0.5619 O   0  0  0  0  0  0  0  0  0  0  0  0
    2.0366   -0.0273   -1.3598 N   0  0  0  0  0  0  0  0  0  0  0  0
    1.9641    0.9843   -1.3138 H   0  0  0  0  0  0  0  0  0  0  0  0
    2.9755   -0.6235   -2.3042 C   0  0  0  0  0  0  0  0  0  0  0  0
    2.4516   -1.2915   -2.9962 H   0  0  0  0  0  0  0  0  0  0  0  0
    3.4727    0.1569   -2.8882 H   0  0  0  0  0  0  0  0  0  0  0  0
    3.7412   -1.1982   -1.7722 H   0  0  0  0  0  0  0  0  0  0  0  0
  1  2  1  0  0  0  0
  2  3  1  0  0  0  0
  2  4  1  0  0  0  0
  2  5  1  0  0  0  0
  5  6  2  0  0  0  0
  5  7  1  0  0  0  0
  7  8  1  0  0  0  0
  7  9  1  0  0  0  0
  9 10  1  0  0  0  0
  9 11  1  0  0  0  0
  9 16  1  0  0  0  0
 11 12  1  0  0  0  0
 11 13  1  0  0  0  0
 11 14  1  0  0  0  0
 14 15  1  0  0  0  0
 16 17  2  0  0  0  0
 16 18  1  0  0  0  0
 18 19  1  0  0  0  0
 18 20  1  0  0  0  0
 20 21  1  0  0  0  0
 20 22  1  0  0  0  0
 20 23  1  0  0  0  0
M  END
$$$$

  -OEChem-01062216073D

 23 22  0     1  0  0  0  0  0999 V2000
   -2.8139   -3.5107    1.1367 H   0  0  0  0  0  0  0  0  0  0  0  0
   -2.7460   -2.5118    0.6966 C   0  0  0  0  0  0  0  0  0  0  0  0
   -3.5342   -1.8852    1.1204 H   0  0  0  0  0  0  0  0  0  0  0  0
   -2.8922   -2.5943   -0.3830 H   0  0  0  0  0  0  0  0  0  0  0  0
   -1.3866   -1.9049    0.9886 C   0  0  0  0  0  0  0  0  0  0  0  0
   -0.5997   -2.5200    1.6899 O   0  0  0  0  0  0  0  0  0  0  0  0
   -1.1032   -0.6344    0.5168 N   0  0  0  0  0  0  0  0  0  0  0  0
   -1.8227   -0.2281   -0.0716 H   0  0  0  0  0  0  0  0  0  0  0  0
    0.2476   -0.0349    0.4384 C   0  0  1  0  0  0  0  0  0  0  0  0
    0.1201    0.9452   -0.0295 H   0  0  0  0  0  0  0  0  0  0  0  0
    0.8435    0.2183    1.8341 C   0  0  0  0  0  0  0  0  0  0  0  0
    0.8789   -0.7071    2.4161 H   0  0  0  0  0  0  0  0  0  0  0  0
    1.8721    0.5803    1.7411 H   0  0  0  0  0  0  0  0  0  0  0  0
   -0.1559    1.4844    2.7215 S   0  0  0  0  0  0  0  0  0  0  0  0
    0.3839    1.4088    3.9579 H   0  0  0  0  0  0  0  0  0  0  0  0
    1.2674   -0.7894   -0.4530 C   0  0  0  0  0  0  0  0  0  0  0  0
    1.0887   -1.9387   -0.8327 O   0  0  0  0  0  0  0  0  0  0  0  0
    2.2647   -0.0616   -1.0810 N   0  0  0  0  0  0  0  0  0  0  0  0
    2.3707    0.9149   -0.8236 H   0  0  0  0  0  0  0  0  0  0  0  0
    3.1774   -0.6332   -2.0652 C   0  0  0  0  0  0  0  0  0  0  0  0
    2.6238   -0.9865   -2.9416 H   0  0  0  0  0  0  0  0  0  0  0  0
    3.9004    0.1196   -2.3937 H   0  0  0  0  0  0  0  0  0  0  0  0
    3.7280   -1.4758   -1.6335 H   0  0  0  0  0  0  0  0  0  0  0  0
  1  2  1  0  0  0  0
  2  3  1  0  0  0  0
  2  4  1  0  0  0  0
  2  5  1  0  0  0  0
  5  6  2  0  0  0  0
  5  7  1  0  0  0  0
  7  8  1  0  0  0  0
  7  9  1  0  0  0  0
  9 10  1  0  0  0  0
  9 11  1  0  0  0  0
  9 16  1  0  0  0  0
 11 12  1  0  0  0  0
 11 13  1  0  0  0  0
 11 14  1  0  0  0  0
 14 15  1  0  0  0  0
 16 17  2  0  0  0  0
 16 18  1  0  0  0  0
 18 19  1  0  0  0  0
 18 20  1  0  0  0  0
 20 21  1  0  0  0  0
 20 22  1  0  0  0  0
 20 23  1  0  0  0  0
M  END
$$$$

  -OEChem-01062216073D

 23 22  0     1  0  0  0  0  0999 V2000
   -2.8028   -3.5089    1.1478 H   0  0  0  0  0  0  0  0  0  0  0  0
   -2.7426   -2.5089    0.7092 C   0  0  0  0  0  0  0  0  0  0  0  0
   -3.5227   -1.8831    1.1491 H   0  0  0  0  0  0  0  0  0  0  0  0
   -2.9082   -2.5879   -0.3679 H   0  0  0  0  0  0  0  0  0  0  0  0
   -1.3781   -1.9030    0.9775 C   0  0  0  0  0  0  0  0  0  0  0  0
   -0.5664   -2.5309    1.6389 O   0  0  0  0  0  0  0  0  0  0  0  0
   -1.1028   -0.6293    0.5103 N   0  0  0  0  0  0  0  0  0  0  0  0
   -1.8224   -0.2218   -0.0774 H   0  0  0  0  0  0  0  0  0  0  0  0
    0.2474   -0.0285    0.4407 C   0  0  1  0  0  0  0  0  0  0  0  0
    0.1306    0.9520   -0.0298 H   0  0  0  0  0  0  0  0  0  0  0  0
    0.8276    0.2212    1.8456 C   0  0  0  0  0  0  0  0  0  0  0  0
    0.8561   -0.7053    2.4259 H   0  0  0  0  0  0  0  0  0  0  0  0
    1.8566    0.5846    1.7692 H   0  0  0  0  0  0  0  0  0  0  0  0
   -0.1823    1.4832    2.7265 S   0  0  0  0  0  0  0  0  0  0  0  0
    0.3505    1.4117    3.9664 H   0  0  0  0  0  0  0  0  0  0  0  0
    1.2596   -0.7922   -0.4519 C   0  0  0  0  0  0  0  0  0  0  0  0
    0.9504   -1.8123   -1.0552 O   0  0  0  0  0  0  0  0  0  0  0  0
    2.4329   -0.1600   -0.8297 N   0  0  0  0  0  0  0  0  0  0  0  0
    2.6480    0.7331   -0.3978 H   0  0  0  0  0  0  0  0  0  0  0  0
    3.3746   -0.7215   -1.7922 C   0  0  0  0  0  0  0  0  0  0  0  0
    2.9033   -0.8240   -2.7755 H   0  0  0  0  0  0  0  0  0  0  0  0
    4.2471   -0.0688   -1.8937 H   0  0  0  0  0  0  0  0  0  0  0  0
    3.7181   -1.7075   -1.4617 H   0  0  0  0  0  0  0  0  0  0  0  0
  1  2  1  0  0  0  0
  2  3  1  0  0  0  0
  2  4  1  0  0  0  0
  2  5  1  0  0  0  0
  5  6  2  0  0  0  0
  5  7  1  0  0  0  0
  7  8  1  0  0  0  0
  7  9  1  0  0  0  0
  9 10  1  0  0  0  0
  9 11  1  0  0  0  0
  9 16  1  0  0  0  0
 11 12  1  0  0  0  0
 11 13  1  0  0  0  0
 11 14  1  0  0  0  0
 14 15  1  0  0  0  0
 16 17  2  0  0  0  0
 16 18  1  0  0  0  0
 18 19  1  0  0  0  0
 18 20  1  0  0  0  0
 20 21  1  0  0  0  0
 20 22  1  0  0  0  0
 20 23  1  0  0  0  0
M  END
$$$$

  -OEChem-01062216073D

 23 22  0     1  0  0  0  0  0999 V2000
   -2.8264   -3.5250    1.0644 H   0  0  0  0  0  0  0  0  0  0  0  0
   -2.7678   -2.4906    0.7141 C   0  0  0  0  0  0  0  0  0  0  0  0
   -3.4737   -1.8839    1.2861 H   0  0  0  0  0  0  0  0  0  0  0  0
   -3.0428   -2.4621   -0.3430 H   0  0  0  0  0  0  0  0  0  0  0  0
   -1.3596   -1.9564    0.8958 C   0  0  0  0  0  0  0  0  0  0  0  0
   -0.5068   -2.6838    1.3786 O   0  0  0  0  0  0  0  0  0  0  0  0
   -1.0761   -0.6681    0.4805 N   0  0  0  0  0  0  0  0  0  0  0  0
   -1.8219   -0.2045   -0.0280 H   0  0  0  0  0  0  0  0  0  0  0  0
    0.2612   -0.0351    0.4439 C   0  0  1  0  0  0  0  0  0  0  0  0
    0.0967    1.0251    0.2310 H   0  0  0  0  0  0  0  0  0  0  0  0
    0.9993   -0.0834    1.7989 C   0  0  0  0  0  0  0  0  0  0  0  0
    1.1187   -1.1097    2.1542 H   0  0  0  0  0  0  0  0  0  0  0  0
    2.0045    0.3337    1.6946 H   0  0  0  0  0  0  0  0  0  0  0  0
    0.0865    0.9210    3.0420 S   0  0  0  0  0  0  0  0  0  0  0  0
    0.7492    0.5880    4.1714 H   0  0  0  0  0  0  0  0  0  0  0  0
    1.1363   -0.5460   -0.7283 C   0  0  0  0  0  0  0  0  0  0  0  0
    0.6560   -1.2350   -1.6207 O   0  0  0  0  0  0  0  0  0  0  0  0
    2.4198   -0.0578   -0.9093 N   0  0  0  0  0  0  0  0  0  0  0  0
    2.7975    0.5571   -0.1957 H   0  0  0  0  0  0  0  0  0  0  0  0
    3.2611   -0.4198   -2.0445 C   0  0  0  0  0  0  0  0  0  0  0  0
    2.7924   -0.1081   -2.9839 H   0  0  0  0  0  0  0  0  0  0  0  0
    4.2360    0.0707   -1.9658 H   0  0  0  0  0  0  0  0  0  0  0  0
    3.4206   -1.5030   -2.0729 H   0  0  0  0  0  0  0  0  0  0  0  0
  1  2  1  0  0  0  0
  2  3  1  0  0  0  0
  2  4  1  0  0  0  0
  2  5  1  0  0  0  0
  5  6  2  0  0  0  0
  5  7  1  0  0  0  0
  7  8  1  0  0  0  0
  7  9  1  0  0  0  0
  9 10  1  0  0  0  0
  9 11  1  0  0  0  0
  9 16  1  0  0  0  0
 11 12  1  0  0  0  0
 11 13  1  0  0  0  0
 11 14  1  0  0  0  0
 14 15  1  0  0  0  0
 16 17  2  0  0  0  0
 16 18  1  0  0  0  0
 18 19  1  0  0  0  0
 18 20  1  0  0  0  0
 20 21  1  0  0  0  0
 20 22  1  0  0  0  0
 20 23  1  0  0  0  0
M  END
$$$$

  -OEChem-01062216073D

 23 22  0     1  0  0  0  0  0999 V2000
   -2.8021   -3.5301    1.0566 H   0  0  0  0  0  0  0  0  0  0  0  0
   -2.7514   -2.4930    0.7136 C   0  0  0  0  0  0  0  0  0  0  0  0
   -3.4457   -1.8918    1.3051 H   0  0  0  0  0  0  0  0  0  0  0  0
   -3.0485   -2.4559   -0.3373 H   0  0  0  0  0  0  0  0  0  0  0  0
   -1.3406   -1.9585    0.8704 C   0  0  0  0  0  0  0  0  0  0  0  0
   -0.4688   -2.6937    1.3063 O   0  0  0  0  0  0  0  0  0  0  0  0
   -1.0675   -0.6631    0.4729 N   0  0  0  0  0  0  0  0  0  0  0  0
   -1.8213   -0.1860   -0.0113 H   0  0  0  0  0  0  0  0  0  0  0  0
    0.2637   -0.0190    0.4556 C   0  0  1  0  0  0  0  0  0  0  0  0
    0.0984    1.0419    0.2468 H   0  0  0  0  0  0  0  0  0  0  0  0
    0.9786   -0.0711    1.8236 C   0  0  0  0  0  0  0  0  0  0  0  0
    1.1006   -1.0988    2.1743 H   0  0  0  0  0  0  0  0  0  0  0  0
    1.9796    0.3602    1.7414 H   0  0  0  0  0  0  0  0  0  0  0  0
    0.0362    0.9183    3.0567 S   0  0  0  0  0  0  0  0  0  0  0  0
    0.7005    0.6098    4.1919 H   0  0  0  0  0  0  0  0  0  0  0  0
    1.1372   -0.5226   -0.7221 C   0  0  0  0  0  0  0  0  0  0  0  0
    0.6089   -0.9848   -1.7272 O   0  0  0  0  0  0  0  0  0  0  0  0
    2.5032   -0.2949   -0.7557 N   0  0  0  0  0  0  0  0  0  0  0  0
    2.9392    0.0825    0.0788 H   0  0  0  0  0  0  0  0  0  0  0  0
    3.3545   -0.7109   -1.8647 C   0  0  0  0  0  0  0  0  0  0  0  0
    3.0373   -0.2272   -2.7946 H   0  0  0  0  0  0  0  0  0  0  0  0
    4.3945   -0.4326   -1.6695 H   0  0  0  0  0  0  0  0  0  0  0  0
    3.3058   -1.7968   -1.9980 H   0  0  0  0  0  0  0  0  0  0  0  0
  1  2  1  0  0  0  0
  2  3  1  0  0  0  0
  2  4  1  0  0  0  0
  2  5  1  0  0  0  0
  5  6  2  0  0  0  0
  5  7  1  0  0  0  0
  7  8  1  0  0  0  0
  7  9  1  0  0  0  0
  9 10  1  0  0  0  0
  9 11  1  0  0  0  0
  9 16  1  0  0  0  0
 11 12  1  0  0  0  0
 11 13  1  0  0  0  0
 11 14  1  0  0  0  0
 14 15  1  0  0  0  0
 16 17  2  0  0  0  0
 16 18  1  0  0  0  0
 18 19  1  0  0  0  0
 18 20  1  0  0  0  0
 20 21  1  0  0  0  0
 20 22  1  0  0  0  0
 20 23  1  0  0  0  0
M  END
$$$$

  -OEChem-01062216073D

 23 22  0     1  0  0  0  0  0999 V2000
   -2.7789   -3.5342    1.0516 H   0  0  0  0  0  0  0  0  0  0  0  0
   -2.7367   -2.4942    0.7163 C   0  0  0  0  0  0  0  0  0  0  0  0
   -3.4149   -1.8979    1.3312 H   0  0  0  0  0  0  0  0  0  0  0  0
   -3.0614   -2.4468   -0.3259 H   0  0  0  0  0  0  0  0  0  0  0  0
   -1.3224   -1.9610    0.8411 C   0  0  0  0  0  0  0  0  0  0  0  0
   -0.4341   -2.7005    1.2350 O   0  0  0  0  0  0  0  0  0  0  0  0
   -1.0574   -0.6605    0.4574 N   0  0  0  0  0  0  0  0  0  0  0  0
   -1.8216   -0.1648    0.0091 H   0  0  0  0  0  0  0  0  0  0  0  0
    0.2680   -0.0072    0.4618 C   0  0  1  0  0  0  0  0  0  0  0  0
    0.1014    1.0538    0.2537 H   0  0  0  0  0  0  0  0  0  0  0  0
    0.9619   -0.0583    1.8402 C   0  0  0  0  0  0  0  0  0  0  0  0
    1.0858   -1.0862    2.1901 H   0  0  0  0  0  0  0  0  0  0  0  0
    1.9592    0.3850    1.7720 H   0  0  0  0  0  0  0  0  0  0  0  0
   -0.0075    0.9205    3.0608 S   0  0  0  0  0  0  0  0  0  0  0  0
    0.6606    0.6425    4.2016 H   0  0  0  0  0  0  0  0  0  0  0  0
    1.1463   -0.5046   -0.7136 C   0  0  0  0  0  0  0  0  0  0  0  0
    0.6280   -0.7265   -1.8021 O   0  0  0  0  0  0  0  0  0  0  0  0
    2.5274   -0.5606   -0.6242 N   0  0  0  0  0  0  0  0  0  0  0  0
    2.9368   -0.4642    0.2989 H   0  0  0  0  0  0  0  0  0  0  0  0
    3.3730   -1.0353   -1.7136 C   0  0  0  0  0  0  0  0  0  0  0  0
    3.2300   -0.4193   -2.6079 H   0  0  0  0  0  0  0  0  0  0  0  0
    4.4272   -0.9821   -1.4253 H   0  0  0  0  0  0  0  0  0  0  0  0
    3.1321   -2.0750   -1.9596 H   0  0  0  0  0  0  0  0  0  0  0  0
  1  2  1  0  0  0  0
  2  3  1  0  0  0  0
  2  4  1  0  0  0  0
  2  5  1  0  0  0  0
  5  6  2  0  0  0  0
  5  7  1  0  0  0  0
  7  8  1  0  0  0  0
  7  9  1  0  0  0  0
  9 10  1  0  0  0  0
  9 11  1  0  0  0  0
  9 16  1  0  0  0  0
 11 12  1  0  0  0  0
 11 13  1  0  0  0  0
 11 14  1  0  0  0  0
 14 15  1  0  0  0  0
 16 17  2  0  0  0  0
 16 18  1  0  0  0  0
 18 19  1  0  0  0  0
 18 20  1  0  0  0  0
 20 21  1  0  0  0  0
 20 22  1  0  0  0  0
 20 23  1  0  0  0  0
M  END
$$$$

  -OEChem-01062216073D

 23 22  0     1  0  0  0  0  0999 V2000
   -2.7703   -3.5281    1.0690 H   0  0  0  0  0  0  0  0  0  0  0  0
   -2.7337   -2.4878    0.7341 C   0  0  0  0  0  0  0  0  0  0  0  0
   -3.3854   -1.8886    1.3744 H   0  0  0  0  0  0  0  0  0  0  0  0
   -3.0961   -2.4364   -0.2955 H   0  0  0  0  0  0  0  0  0  0  0  0
   -1.3119   -1.9646    0.8079 C   0  0  0  0  0  0  0  0  0  0  0  0
   -0.4104   -2.7125    1.1543 O   0  0  0  0  0  0  0  0  0  0  0  0
   -1.0494   -0.6626    0.4299 N   0  0  0  0  0  0  0  0  0  0  0  0
   -1.8322   -0.1326    0.0590 H   0  0  0  0  0  0  0  0  0  0  0  0
    0.2733   -0.0068    0.4549 C   0  0  1  0  0  0  0  0  0  0  0  0
    0.1094    1.0545    0.2449 H   0  0  0  0  0  0  0  0  0  0  0  0
    0.9467   -0.0572    1.8421 C   0  0  0  0  0  0  0  0  0  0  0  0
    1.0651   -1.0852    2.1944 H   0  0  0  0  0  0  0  0  0  0  0  0
    1.9448    0.3873    1.7832 H   0  0  0  0  0  0  0  0  0  0  0  0
   -0.0438    0.9188    3.0481 S   0  0  0  0  0  0  0  0  0  0  0  0
    0.6326    0.6785    4.1925 H   0  0  0  0  0  0  0  0  0  0  0  0
    1.1648   -0.5027   -0.7090 C   0  0  0  0  0  0  0  0  0  0  0  0
    0.7194   -0.4835   -1.8504 O   0  0  0  0  0  0  0  0  0  0  0  0
    2.4923   -0.8501   -0.5219 N   0  0  0  0  0  0  0  0  0  0  0  0
    2.7844   -1.0214    0.4349 H   0  0  0  0  0  0  0  0  0  0  0  0
    3.3301   -1.3631   -1.5999 C   0  0  0  0  0  0  0  0  0  0  0  0
    3.3717   -0.6482   -2.4287 H   0  0  0  0  0  0  0  0  0  0  0  0
    4.3498   -1.5293   -1.2397 H   0  0  0  0  0  0  0  0  0  0  0  0
    2.9336   -2.3130   -1.9739 H   0  0  0  0  0  0  0  0  0  0  0  0
  1  2  1  0  0  0  0
  2  3  1  0  0  0  0
  2  4  1  0  0  0  0
  2  5  1  0  0  0  0
  5  6  2  0  0  0  0
  5  7  1  0  0  0  0
  7  8  1  0  0  0  0
  7  9  1  0  0  0  0
  9 10  1  0  0  0  0
  9 11  1  0  0  0  0
  9 16  1  0  0  0  0
 11 12  1  0  0  0  0
 11 13  1  0  0  0  0
 11 14  1  0  0  0  0
 14 15  1  0  0  0  0
 16 17  2  0  0  0  0
 16 18  1  0  0  0  0
 18 19  1  0  0  0  0
 18 20  1  0  0  0  0
 20 21  1  0  0  0  0
 20 22  1  0  0  0  0
 20 23  1  0  0  0  0
M  END
$$$$

  -OEChem-01062216073D

 23 22  0     1  0  0  0  0  0999 V2000
   -2.7624   -3.5221    1.0920 H   0  0  0  0  0  0  0  0  0  0  0  0
   -2.7317   -2.4818    0.7562 C   0  0  0  0  0  0  0  0  0  0  0  0
   -3.3545   -1.8789    1.4213 H   0  0  0  0  0  0  0  0  0  0  0  0
   -3.1331   -2.4271   -0.2585 H   0  0  0  0  0  0  0  0  0  0  0  0
   -1.3048   -1.9679    0.7761 C   0  0  0  0  0  0  0  0  0  0  0  0
   -0.3919   -2.7219    1.0786 O   0  0  0  0  0  0  0  0  0  0  0  0
   -1.0454   -0.6651    0.3990 N   0  0  0  0  0  0  0  0  0  0  0  0
   -1.8414   -0.1080    0.1036 H   0  0  0  0  0  0  0  0  0  0  0  0
    0.2758   -0.0096    0.4429 C   0  0  1  0  0  0  0  0  0  0  0  0
    0.1149    1.0522    0.2304 H   0  0  0  0  0  0  0  0  0  0  0  0
    0.9358   -0.0609    1.8357 C   0  0  0  0  0  0  0  0  0  0  0  0
    1.0480   -1.0891    2.1897 H   0  0  0  0  0  0  0  0  0  0  0  0
    1.9363    0.3800    1.7812 H   0  0  0  0  0  0  0  0  0  0  0  0
   -0.0660    0.9124    3.0344 S   0  0  0  0  0  0  0  0  0  0  0  0
    0.6313    0.7145    4.1748 H   0  0  0  0  0  0  0  0  0  0  0  0
    1.1805   -0.5075   -0.7067 C   0  0  0  0  0  0  0  0  0  0  0  0
    0.8628   -0.2608   -1.8637 O   0  0  0  0  0  0  0  0  0  0  0  0
    2.3881   -1.1377   -0.4609 N   0  0  0  0  0  0  0  0  0  0  0  0
    2.4984   -1.5274    0.4709 H   0  0  0  0  0  0  0  0  0  0  0  0
    3.2154   -1.6822   -1.5311 C   0  0  0  0  0  0  0  0  0  0  0  0
    3.4849   -0.8977   -2.2464 H   0  0  0  0  0  0  0  0  0  0  0  0
    4.1383   -2.1014   -1.1191 H   0  0  0  0  0  0  0  0  0  0  0  0
    2.6798   -2.4753   -2.0634 H   0  0  0  0  0  0  0  0  0  0  0  0
  1  2  1  0  0  0  0
  2  3  1  0  0  0  0
  2  4  1  0  0  0  0
  2  5  1  0  0  0  0
  5  6  2  0  0  0  0
  5  7  1  0  0  0  0
  7  8  1  0  0  0  0
  7  9  1  0  0  0  0
  9 10  1  0  0  0  0
  9 11  1  0  0  0  0
  9 16  1  0  0  0  0
 11 12  1  0  0  0  0
 11 13  1  0  0  0  0
 11 14  1  0  0  0  0
 14 15  1  0  0  0  0
 16 17  2  0  0  0  0
 16 18  1  0  0  0  0
 18 19  1  0  0  0  0
 18 20  1  0  0  0  0
 20 21  1  0  0  0  0
 20 22  1  0  0  0  0
 20 23  1  0  0  0  0
M  END
$$$$

  -OEChem-01062216073D

 23 22  0     1  0  0  0  0  0999 V2000
   -2.7560   -3.5108    1.1278 H   0  0  0  0  0  0  0  0  0  0  0  0
   -2.7320   -2.4705    0.7915 C   0  0  0  0  0  0  0  0  0  0  0  0
   -3.3191   -1.8631    1.4844 H   0  0  0  0  0  0  0  0  0  0  0  0
   -3.1783   -2.4114   -0.2041 H   0  0  0  0  0  0  0  0  0  0  0  0
   -1.3018   -1.9684    0.7466 C   0  0  0  0  0  0  0  0  0  0  0  0
   -0.3796   -2.7308    0.9988 O   0  0  0  0  0  0  0  0  0  0  0  0
   -1.0463   -0.6662    0.3639 N   0  0  0  0  0  0  0  0  0  0  0  0
   -1.8530   -0.0823    0.1638 H   0  0  0  0  0  0  0  0  0  0  0  0
    0.2757   -0.0151    0.4219 C   0  0  1  0  0  0  0  0  0  0  0  0
    0.1212    1.0475    0.2075 H   0  0  0  0  0  0  0  0  0  0  0  0
    0.9272   -0.0712    1.8177 C   0  0  0  0  0  0  0  0  0  0  0  0
    1.0340   -1.0999    2.1716 H   0  0  0  0  0  0  0  0  0  0  0  0
    1.9307    0.3640    1.7657 H   0  0  0  0  0  0  0  0  0  0  0  0
   -0.0798    0.9018    3.0124 S   0  0  0  0  0  0  0  0  0  0  0  0
    0.6235    0.7169    4.1512 H   0  0  0  0  0  0  0  0  0  0  0  0
    1.1910   -0.5216   -0.7128 C   0  0  0  0  0  0  0  0  0  0  0  0
    1.0593   -0.0645   -1.8413 O   0  0  0  0  0  0  0  0  0  0  0  0
    2.2176   -1.4112   -0.4531 N   0  0  0  0  0  0  0  0  0  0  0  0
    2.0940   -1.9653    0.3921 H   0  0  0  0  0  0  0  0  0  0  0  0
    3.0474   -1.9691   -1.5138 C   0  0  0  0  0  0  0  0  0  0  0  0
    3.5493   -1.1700   -2.0698 H   0  0  0  0  0  0  0  0  0  0  0  0
    3.8138   -2.6240   -1.0883 H   0  0  0  0  0  0  0  0  0  0  0  0
    2.4371   -2.5536   -2.2105 H   0  0  0  0  0  0  0  0  0  0  0  0
  1  2  1  0  0  0  0
  2  3  1  0  0  0  0
  2  4  1  0  0  0  0
  2  5  1  0  0  0  0
  5  6  2  0  0  0  0
  5  7  1  0  0  0  0
  7  8  1  0  0  0  0
  7  9  1  0  0  0  0
  9 10  1  0  0  0  0
  9 11  1  0  0  0  0
  9 16  1  0  0  0  0
 11 12  1  0  0  0  0
 11 13  1  0  0  0  0
 11 14  1  0  0  0  0
 14 15  1  0  0  0  0
 16 17  2  0  0  0  0
 16 18  1  0  0  0  0
 18 19  1  0  0  0  0
 18 20  1  0  0  0  0
 20 21  1  0  0  0  0
 20 22  1  0  0  0  0
 20 23  1  0  0  0  0
M  END
$$$$

  -OEChem-01062216073D

 23 22  0     1  0  0  0  0  0999 V2000
   -2.7723   -3.4941    1.1683 H   0  0  0  0  0  0  0  0  0  0  0  0
   -2.7480   -2.4546    0.8298 C   0  0  0  0  0  0  0  0  0  0  0  0
   -3.2975   -1.8391    1.5464 H   0  0  0  0  0  0  0  0  0  0  0  0
   -3.2355   -2.3908   -0.1461 H   0  0  0  0  0  0  0  0  0  0  0  0
   -1.3136   -1.9728    0.7244 C   0  0  0  0  0  0  0  0  0  0  0  0
   -0.3923   -2.7494    0.9359 O   0  0  0  0  0  0  0  0  0  0  0  0
   -1.0544   -0.6727    0.3357 N   0  0  0  0  0  0  0  0  0  0  0  0
   -1.8632   -0.0703    0.2120 H   0  0  0  0  0  0  0  0  0  0  0  0
    0.2706   -0.0262    0.3997 C   0  0  1  0  0  0  0  0  0  0  0  0
    0.1200    1.0372    0.1875 H   0  0  0  0  0  0  0  0  0  0  0  0
    0.9199   -0.0929    1.7949 C   0  0  0  0  0  0  0  0  0  0  0  0
    1.0244   -1.1242    2.1425 H   0  0  0  0  0  0  0  0  0  0  0  0
    1.9255    0.3380    1.7447 H   0  0  0  0  0  0  0  0  0  0  0  0
   -0.0863    0.8767    2.9931 S   0  0  0  0  0  0  0  0  0  0  0  0
    0.6331    0.7115    4.1249 H   0  0  0  0  0  0  0  0  0  0  0  0
    1.2000   -0.5345   -0.7213 C   0  0  0  0  0  0  0  0  0  0  0  0
    1.2898    0.0923   -1.7692 O   0  0  0  0  0  0  0  0  0  0  0  0
    2.0057   -1.6370   -0.5081 N   0  0  0  0  0  0  0  0  0  0  0  0
    1.6675   -2.2634    0.2245 H   0  0  0  0  0  0  0  0  0  0  0  0
    2.8388   -2.2072   -1.5590 C   0  0  0  0  0  0  0  0  0  0  0  0
    3.5472   -1.4614   -1.9349 H   0  0  0  0  0  0  0  0  0  0  0  0
    3.4089   -3.0558   -1.1689 H   0  0  0  0  0  0  0  0  0  0  0  0
    2.2201   -2.5565   -2.3923 H   0  0  0  0  0  0  0  0  0  0  0  0
  1  2  1  0  0  0  0
  2  3  1  0  0  0  0
  2  4  1  0  0  0  0
  2  5  1  0  0  0  0
  5  6  2  0  0  0  0
  5  7  1  0  0  0  0
  7  8  1  0  0  0  0
  7  9  1  0  0  0  0
  9 10  1  0  0  0  0
  9 11  1  0  0  0  0
  9 16  1  0  0  0  0
 11 12  1  0  0  0  0
 11 13  1  0  0  0  0
 11 14  1  0  0  0  0
 14 15  1  0  0  0  0
 16 17  2  0  0  0  0
 16 18  1  0  0  0  0
 18 19  1  0  0  0  0
 18 20  1  0  0  0  0
 20 21  1  0  0  0  0
 20 22  1  0  0  0  0
 20 23  1  0  0  0  0
M  END
$$$$

  -OEChem-01062216073D

 23 22  0     1  0  0  0  0  0999 V2000
   -2.8342   -3.4622    1.2160 H   0  0  0  0  0  0  0  0  0  0  0  0
   -2.7908   -2.4270    0.8660 C   0  0  0  0  0  0  0  0  0  0  0  0
   -3.3132   -1.7910    1.5848 H   0  0  0  0  0  0  0  0  0  0  0  0
   -3.2930   -2.3609   -0.1022 H   0  0  0  0  0  0  0  0  0  0  0  0
   -1.3478   -1.9802    0.7325 C   0  0  0  0  0  0  0  0  0  0  0  0
   -0.4438   -2.7780    0.9360 O   0  0  0  0  0  0  0  0  0  0  0  0
   -1.0694   -0.6884    0.3289 N   0  0  0  0  0  0  0  0  0  0  0  0
   -1.8741   -0.0765    0.2249 H   0  0  0  0  0  0  0  0  0  0  0  0
    0.2588   -0.0421    0.3787 C   0  0  1  0  0  0  0  0  0  0  0  0
    0.1072    1.0218    0.1678 H   0  0  0  0  0  0  0  0  0  0  0  0
    0.9169   -0.1179    1.7675 C   0  0  0  0  0  0  0  0  0  0  0  0
    1.0222   -1.1525    2.1054 H   0  0  0  0  0  0  0  0  0  0  0  0
    1.9232    0.3110    1.7121 H   0  0  0  0  0  0  0  0  0  0  0  0
   -0.0774    0.8464    2.9799 S   0  0  0  0  0  0  0  0  0  0  0  0
    0.6475    0.6633    4.1054 H   0  0  0  0  0  0  0  0  0  0  0  0
    1.2040   -0.5498   -0.7293 C   0  0  0  0  0  0  0  0  0  0  0  0
    1.4992    0.1834   -1.6638 O   0  0  0  0  0  0  0  0  0  0  0  0
    1.7836   -1.7996   -0.6284 N   0  0  0  0  0  0  0  0  0  0  0  0
    1.3235   -2.4319    0.0320 H   0  0  0  0  0  0  0  0  0  0  0  0
    2.6132   -2.3754   -1.6780 C   0  0  0  0  0  0  0  0  0  0  0  0
    3.4683   -1.7254   -1.8915 H   0  0  0  0  0  0  0  0  0  0  0  0
    2.9946   -3.3517   -1.3636 H   0  0  0  0  0  0  0  0  0  0  0  0
    2.0322   -2.5074   -2.5966 H   0  0  0  0  0  0  0  0  0  0  0  0
  1  2  1  0  0  0  0
  2  3  1  0  0  0  0
  2  4  1  0  0  0  0
  2  5  1  0  0  0  0
  5  6  2  0  0  0  0
  5  7  1  0  0  0  0
  7  8  1  0  0  0  0
  7  9  1  0  0  0  0
  9 10  1  0  0  0  0
  9 11  1  0  0  0  0
  9 16  1  0  0  0  0
 11 12  1  0  0  0  0
 11 13  1  0  0  0  0
 11 14  1  0  0  0  0
 14 15  1  0  0  0  0
 16 17  2  0  0  0  0
 16 18  1  0  0  0  0
 18 19  1  0  0  0  0
 18 20  1  0  0  0  0
 20 21  1  0  0  0  0
 20 22  1  0  0  0  0
 20 23  1  0  0  0  0
M  END
$$$$

  -OEChem-01062216073D

 23 22  0     1  0  0  0  0  0999 V2000
   -2.9092   -3.4225    1.2775 H   0  0  0  0  0  0  0  0  0  0  0  0
   -2.8453   -2.3941    0.9110 C   0  0  0  0  0  0  0  0  0  0  0  0
   -3.3388   -1.7346    1.6291 H   0  0  0  0  0  0  0  0  0  0  0  0
   -3.3626   -2.3295   -0.0494 H   0  0  0  0  0  0  0  0  0  0  0  0
   -1.3939   -1.9858    0.7468 C   0  0  0  0  0  0  0  0  0  0  0  0
   -0.5090   -2.8056    0.9422 O   0  0  0  0  0  0  0  0  0  0  0  0
   -1.0930   -0.7029    0.3305 N   0  0  0  0  0  0  0  0  0  0  0  0
   -1.8903   -0.0794    0.2407 H   0  0  0  0  0  0  0  0  0  0  0  0
    0.2414   -0.0633    0.3600 C   0  0  1  0  0  0  0  0  0  0  0  0
    0.0913    1.0010    0.1502 H   0  0  0  0  0  0  0  0  0  0  0  0
    0.9088   -0.1475    1.7428 C   0  0  0  0  0  0  0  0  0  0  0  0
    1.0098   -1.1847    2.0745 H   0  0  0  0  0  0  0  0  0  0  0  0
    1.9176    0.2748    1.6814 H   0  0  0  0  0  0  0  0  0  0  0  0
   -0.0685    0.8212    2.9658 S   0  0  0  0  0  0  0  0  0  0  0  0
    0.6708    0.6386    4.0824 H   0  0  0  0  0  0  0  0  0  0  0  0
    1.1963   -0.5698   -0.7422 C   0  0  0  0  0  0  0  0  0  0  0  0
    1.6891    0.2254   -1.5313 O   0  0  0  0  0  0  0  0  0  0  0  0
    1.5483   -1.9030   -0.8143 N   0  0  0  0  0  0  0  0  0  0  0  0
    1.0253   -2.5352   -0.2020 H   0  0  0  0  0  0  0  0  0  0  0  0
    2.3896   -2.4642   -1.8623 C   0  0  0  0  0  0  0  0  0  0  0  0
    3.3536   -1.9462   -1.9000 H   0  0  0  0  0  0  0  0  0  0  0  0
    2.5767   -3.5244   -1.6667 H   0  0  0  0  0  0  0  0  0  0  0  0
    1.9003   -2.3707   -2.8372 H   0  0  0  0  0  0  0  0  0  0  0  0
  1  2  1  0  0  0  0
  2  3  1  0  0  0  0
  2  4  1  0  0  0  0
  2  5  1  0  0  0  0
  5  6  2  0  0  0  0
  5  7  1  0  0  0  0
  7  8  1  0  0  0  0
  7  9  1  0  0  0  0
  9 10  1  0  0  0  0
  9 11  1  0  0  0  0
  9 16  1  0  0  0  0
 11 12  1  0  0  0  0
 11 13  1  0  0  0  0
 11 14  1  0  0  0  0
 14 15  1  0  0  0  0
 16 17  2  0  0  0  0
 16 18  1  0  0  0  0
 18 19  1  0  0  0  0
 18 20  1  0  0  0  0
 20 21  1  0  0  0  0
 20 22  1  0  0  0  0
 20 23  1  0  0  0  0
M  END
$$$$

  -OEChem-01062216073D

 23 22  0     1  0  0  0  0  0999 V2000
   -2.9614   -3.4134    1.3082 H   0  0  0  0  0  0  0  0  0  0  0  0
   -2.8937   -2.3733    0.9769 C   0  0  0  0  0  0  0  0  0  0  0  0
   -3.3427   -1.7321    1.7394 H   0  0  0  0  0  0  0  0  0  0  0  0
   -3.4517   -2.2644    0.0437 H   0  0  0  0  0  0  0  0  0  0  0  0
   -1.4431   -1.9849    0.7627 C   0  0  0  0  0  0  0  0  0  0  0  0
   -0.5654   -2.8209    0.9138 O   0  0  0  0  0  0  0  0  0  0  0  0
   -1.1387   -0.7058    0.3369 N   0  0  0  0  0  0  0  0  0  0  0  0
   -1.9310   -0.0715    0.2892 H   0  0  0  0  0  0  0  0  0  0  0  0
    0.2026   -0.0768    0.3278 C   0  0  1  0  0  0  0  0  0  0  0  0
    0.0536    0.9889    0.1247 H   0  0  0  0  0  0  0  0  0  0  0  0
    0.9043   -0.1728    1.6919 C   0  0  0  0  0  0  0  0  0  0  0  0
    1.0040   -1.2130    2.0147 H   0  0  0  0  0  0  0  0  0  0  0  0
    1.9154    0.2402    1.6066 H   0  0  0  0  0  0  0  0  0  0  0  0
   -0.0318    0.8003    2.9438 S   0  0  0  0  0  0  0  0  0  0  0  0
    0.7413    0.6154    4.0367 H   0  0  0  0  0  0  0  0  0  0  0  0
    1.1392   -0.5782   -0.7927 C   0  0  0  0  0  0  0  0  0  0  0  0
    1.8314    0.2256   -1.4029 O   0  0  0  0  0  0  0  0  0  0  0  0
    1.2594   -1.9233   -1.0782 N   0  0  0  0  0  0  0  0  0  0  0  0
    0.7219   -2.5601   -0.4841 H   0  0  0  0  0  0  0  0  0  0  0  0
    2.1886   -2.4698   -2.0568 C   0  0  0  0  0  0  0  0  0  0  0  0
    3.2205   -2.2269   -1.7828 H   0  0  0  0  0  0  0  0  0  0  0  0
    2.0892   -3.5584   -2.1026 H   0  0  0  0  0  0  0  0  0  0  0  0
    1.9812   -2.0616   -3.0515 H   0  0  0  0  0  0  0  0  0  0  0  0
  1  2  1  0  0  0  0
  2  3  1  0  0  0  0
  2  4  1  0  0  0  0
  2  5  1  0  0  0  0
  5  6  2  0  0  0  0
  5  7  1  0  0  0  0
  7  8  1  0  0  0  0
  7  9  1  0  0  0  0
  9 10  1  0  0  0  0
  9 11  1  0  0  0  0
  9 16  1  0  0  0  0
 11 12  1  0  0  0  0
 11 13  1  0  0  0  0
 11 14  1  0  0  0  0
 14 15  1  0  0  0  0
 16 17  2  0  0  0  0
 16 18  1  0  0  0  0
 18 19  1  0  0  0  0
 18 20  1  0  0  0  0
 20 21  1  0  0  0  0
 20 22  1  0  0  0  0
 20 23  1  0  0  0  0
M  END
$$$$

  -OEChem-01062216073D

 23 22  0     1  0  0  0  0  0999 V2000
   -2.9626   -3.3962    1.3706 H   0  0  0  0  0  0  0  0  0  0  0  0
   -2.9038   -2.3542    1.0435 C   0  0  0  0  0  0  0  0  0  0  0  0
   -3.2982   -1.7152    1.8374 H   0  0  0  0  0  0  0  0  0  0  0  0
   -3.5165   -2.2309    0.1473 H   0  0  0  0  0  0  0  0  0  0  0  0
   -1.4647   -1.9802    0.7442 C   0  0  0  0  0  0  0  0  0  0  0  0
   -0.5908   -2.8301    0.8146 O   0  0  0  0  0  0  0  0  0  0  0  0
   -1.1664   -0.6994    0.3209 N   0  0  0  0  0  0  0  0  0  0  0  0
   -1.9522   -0.0551    0.3397 H   0  0  0  0  0  0  0  0  0  0  0  0
    0.1788   -0.0768    0.3015 C   0  0  1  0  0  0  0  0  0  0  0  0
    0.0340    0.9909    0.1073 H   0  0  0  0  0  0  0  0  0  0  0  0
    0.8847   -0.1927    1.6623 C   0  0  0  0  0  0  0  0  0  0  0  0
    0.9772   -1.2375    1.9728 H   0  0  0  0  0  0  0  0  0  0  0  0
    1.8986    0.2139    1.5789 H   0  0  0  0  0  0  0  0  0  0  0  0
   -0.0399    0.7739    2.9275 S   0  0  0  0  0  0  0  0  0  0  0  0
    0.7405    0.5781    4.0132 H   0  0  0  0  0  0  0  0  0  0  0  0
    1.1135   -0.5678   -0.8271 C   0  0  0  0  0  0  0  0  0  0  0  0
    1.9770    0.1860   -1.2569 O   0  0  0  0  0  0  0  0  0  0  0  0
    1.0215   -1.8478   -1.3370 N   0  0  0  0  0  0  0  0  0  0  0  0
    0.4325   -2.4882   -0.7993 H   0  0  0  0  0  0  0  0  0  0  0  0
    1.9771   -2.4034   -2.2858 C   0  0  0  0  0  0  0  0  0  0  0  0
    2.9753   -2.4529   -1.8389 H   0  0  0  0  0  0  0  0  0  0  0  0
    1.6748   -3.4141   -2.5761 H   0  0  0  0  0  0  0  0  0  0  0  0
    2.0252   -1.7861   -3.1890 H   0  0  0  0  0  0  0  0  0  0  0  0
  1  2  1  0  0  0  0
  2  3  1  0  0  0  0
  2  4  1  0  0  0  0
  2  5  1  0  0  0  0
  5  6  2  0  0  0  0
  5  7  1  0  0  0  0
  7  8  1  0  0  0  0
  7  9  1  0  0  0  0
  9 10  1  0  0  0  0
  9 11  1  0  0  0  0
  9 16  1  0  0  0  0
 11 12  1  0  0  0  0
 11 13  1  0  0  0  0
 11 14  1  0  0  0  0
 14 15  1  0  0  0  0
 16 17  2  0  0  0  0
 16 18  1  0  0  0  0
 18 19  1  0  0  0  0
 18 20  1  0  0  0  0
 20 21  1  0  0  0  0
 20 22  1  0  0  0  0
 20 23  1  0  0  0  0
M  END
$$$$

  -OEChem-01062216073D

 23 22  0     1  0  0  0  0  0999 V2000
   -2.9273   -3.3855    1.4162 H   0  0  0  0  0  0  0  0  0  0  0  0
   -2.8831   -2.3420    1.0918 C   0  0  0  0  0  0  0  0  0  0  0  0
   -3.2276   -1.7058    1.9108 H   0  0  0  0  0  0  0  0  0  0  0  0
   -3.5456   -2.2114    0.2328 H   0  0  0  0  0  0  0  0  0  0  0  0
   -1.4620   -1.9723    0.7130 C   0  0  0  0  0  0  0  0  0  0  0  0
   -0.5933   -2.8295    0.6967 O   0  0  0  0  0  0  0  0  0  0  0  0
   -1.1755   -0.6874    0.2963 N   0  0  0  0  0  0  0  0  0  0  0  0
   -1.9542   -0.0395    0.3801 H   0  0  0  0  0  0  0  0  0  0  0  0
    0.1712   -0.0677    0.2872 C   0  0  1  0  0  0  0  0  0  0  0  0
    0.0337    1.0022    0.1010 H   0  0  0  0  0  0  0  0  0  0  0  0
    0.8614   -0.2044    1.6550 C   0  0  0  0  0  0  0  0  0  0  0  0
    0.9465   -1.2538    1.9525 H   0  0  0  0  0  0  0  0  0  0  0  0
    1.8782    0.1982    1.5908 H   0  0  0  0  0  0  0  0  0  0  0  0
   -0.0746    0.7510    2.9208 S   0  0  0  0  0  0  0  0  0  0  0  0
    0.6934    0.5385    4.0125 H   0  0  0  0  0  0  0  0  0  0  0  0
    1.1119   -0.5533   -0.8399 C   0  0  0  0  0  0  0  0  0  0  0  0
    2.1081    0.1046   -1.1117 O   0  0  0  0  0  0  0  0  0  0  0  0
    0.8381   -1.6968   -1.5649 N   0  0  0  0  0  0  0  0  0  0  0  0
    0.1656   -2.3238   -1.1199 H   0  0  0  0  0  0  0  0  0  0  0  0
    1.7713   -2.2615   -2.5309 C   0  0  0  0  0  0  0  0  0  0  0  0
    2.6972   -2.5688   -2.0338 H   0  0  0  0  0  0  0  0  0  0  0  0
    1.3284   -3.1371   -3.0148 H   0  0  0  0  0  0  0  0  0  0  0  0
    2.0144   -1.5274   -3.3062 H   0  0  0  0  0  0  0  0  0  0  0  0
  1  2  1  0  0  0  0
  2  3  1  0  0  0  0
  2  4  1  0  0  0  0
  2  5  1  0  0  0  0
  5  6  2  0  0  0  0
  5  7  1  0  0  0  0
  7  8  1  0  0  0  0
  7  9  1  0  0  0  0
  9 10  1  0  0  0  0
  9 11  1  0  0  0  0
  9 16  1  0  0  0  0
 11 12  1  0  0  0  0
 11 13  1  0  0  0  0
 11 14  1  0  0  0  0
 14 15  1  0  0  0  0
 16 17  2  0  0  0  0
 16 18  1  0  0  0  0
 18 19  1  0  0  0  0
 18 20  1  0  0  0  0
 20 21  1  0  0  0  0
 20 22  1  0  0  0  0
 20 23  1  0  0  0  0
M  END
$$$$

  -OEChem-01062216073D

 23 22  0     1  0  0  0  0  0999 V2000
   -2.8845   -3.3978    1.4110 H   0  0  0  0  0  0  0  0  0  0  0  0
   -2.8534   -2.3494    1.1011 C   0  0  0  0  0  0  0  0  0  0  0  0
   -3.1770   -1.7267    1.9388 H   0  0  0  0  0  0  0  0  0  0  0  0
   -3.5402   -2.2083    0.2631 H   0  0  0  0  0  0  0  0  0  0  0  0
   -1.4446   -1.9695    0.6884 C   0  0  0  0  0  0  0  0  0  0  0  0
   -0.5761   -2.8233    0.6227 O   0  0  0  0  0  0  0  0  0  0  0  0
   -1.1703   -0.6786    0.2833 N   0  0  0  0  0  0  0  0  0  0  0  0
   -1.9454   -0.0331    0.4086 H   0  0  0  0  0  0  0  0  0  0  0  0
    0.1771   -0.0601    0.2914 C   0  0  1  0  0  0  0  0  0  0  0  0
    0.0449    1.0108    0.1094 H   0  0  0  0  0  0  0  0  0  0  0  0
    0.8500   -0.2074    1.6680 C   0  0  0  0  0  0  0  0  0  0  0  0
    0.9306   -1.2592    1.9585 H   0  0  0  0  0  0  0  0  0  0  0  0
    1.8678    0.1950    1.6219 H   0  0  0  0  0  0  0  0  0  0  0  0
   -0.1012    0.7410    2.9275 S   0  0  0  0  0  0  0  0  0  0  0  0
    0.6703    0.5449    4.0200 H   0  0  0  0  0  0  0  0  0  0  0  0
    1.1187   -0.5435   -0.8368 C   0  0  0  0  0  0  0  0  0  0  0  0
    2.2239   -0.0311   -0.9632 O   0  0  0  0  0  0  0  0  0  0  0  0
    0.7001   -1.4826   -1.7598 N   0  0  0  0  0  0  0  0  0  0  0  0
   -0.0866   -2.0488   -1.4458 H   0  0  0  0  0  0  0  0  0  0  0  0
    1.5909   -2.0455   -2.7663 C   0  0  0  0  0  0  0  0  0  0  0  0
    2.4171   -2.5827   -2.2890 H   0  0  0  0  0  0  0  0  0  0  0  0
    1.0432   -2.7453   -3.4046 H   0  0  0  0  0  0  0  0  0  0  0  0
    2.0043   -1.2538   -3.4000 H   0  0  0  0  0  0  0  0  0  0  0  0
  1  2  1  0  0  0  0
  2  3  1  0  0  0  0
  2  4  1  0  0  0  0
  2  5  1  0  0  0  0
  5  6  2  0  0  0  0
  5  7  1  0  0  0  0
  7  8  1  0  0  0  0
  7  9  1  0  0  0  0
  9 10  1  0  0  0  0
  9 11  1  0  0  0  0
  9 16  1  0  0  0  0
 11 12  1  0  0  0  0
 11 13  1  0  0  0  0
 11 14  1  0  0  0  0
 14 15  1  0  0  0  0
 16 17  2  0  0  0  0
 16 18  1  0  0  0  0
 18 19  1  0  0  0  0
 18 20  1  0  0  0  0
 20 21  1  0  0  0  0
 20 22  1  0  0  0  0
 20 23  1  0  0  0  0
M  END
$$$$

  -OEChem-01062216073D

 23 22  0     1  0  0  0  0  0999 V2000
   -2.8421   -3.4266    1.3706 H   0  0  0  0  0  0  0  0  0  0  0  0
   -2.8192   -2.3717    1.0826 C   0  0  0  0  0  0  0  0  0  0  0  0
   -3.1465   -1.7692    1.9336 H   0  0  0  0  0  0  0  0  0  0  0  0
   -3.5080   -2.2187    0.2484 H   0  0  0  0  0  0  0  0  0  0  0  0
   -1.4136   -1.9726    0.6767 C   0  0  0  0  0  0  0  0  0  0  0  0
   -0.5337   -2.8144    0.6211 O   0  0  0  0  0  0  0  0  0  0  0  0
   -1.1539   -0.6747    0.2824 N   0  0  0  0  0  0  0  0  0  0  0  0
   -1.9305   -0.0358    0.4313 H   0  0  0  0  0  0  0  0  0  0  0  0
    0.1919   -0.0535    0.3018 C   0  0  1  0  0  0  0  0  0  0  0  0
    0.0603    1.0175    0.1202 H   0  0  0  0  0  0  0  0  0  0  0  0
    0.8531   -0.1980    1.6861 C   0  0  0  0  0  0  0  0  0  0  0  0
    0.9341   -1.2492    1.9785 H   0  0  0  0  0  0  0  0  0  0  0  0
    1.8701    0.2072    1.6527 H   0  0  0  0  0  0  0  0  0  0  0  0
   -0.1138    0.7509    2.9333 S   0  0  0  0  0  0  0  0  0  0  0  0
    0.6400    0.5467    4.0363 H   0  0  0  0  0  0  0  0  0  0  0  0
    1.1263   -0.5348   -0.8343 C   0  0  0  0  0  0  0  0  0  0  0  0
    2.3100   -0.2199   -0.8339 O   0  0  0  0  0  0  0  0  0  0  0  0
    0.6134   -1.2152   -1.9226 N   0  0  0  0  0  0  0  0  0  0  0  0
   -0.3045   -1.6248   -1.7720 H   0  0  0  0  0  0  0  0  0  0  0  0
    1.4591   -1.7784   -2.9673 C   0  0  0  0  0  0  0  0  0  0  0  0
    2.1296   -2.5365   -2.5492 H   0  0  0  0  0  0  0  0  0  0  0  0
    0.8427   -2.2473   -3.7402 H   0  0  0  0  0  0  0  0  0  0  0  0
    2.0627   -0.9952   -3.4380 H   0  0  0  0  0  0  0  0  0  0  0  0
  1  2  1  0  0  0  0
  2  3  1  0  0  0  0
  2  4  1  0  0  0  0
  2  5  1  0  0  0  0
  5  6  2  0  0  0  0
  5  7  1  0  0  0  0
  7  8  1  0  0  0  0
  7  9  1  0  0  0  0
  9 10  1  0  0  0  0
  9 11  1  0  0  0  0
  9 16  1  0  0  0  0
 11 12  1  0  0  0  0
 11 13  1  0  0  0  0
 11 14  1  0  0  0  0
 14 15  1  0  0  0  0
 16 17  2  0  0  0  0
 16 18  1  0  0  0  0
 18 19  1  0  0  0  0
 18 20  1  0  0  0  0
 20 21  1  0  0  0  0
 20 22  1  0  0  0  0
 20 23  1  0  0  0  0
M  END
$$$$

  -OEChem-01062216073D

 23 22  0     1  0  0  0  0  0999 V2000
   -2.8126   -3.4436    1.3386 H   0  0  0  0  0  0  0  0  0  0  0  0
   -2.7937   -2.3900    1.0455 C   0  0  0  0  0  0  0  0  0  0  0  0
   -3.1461   -1.7861    1.8855 H   0  0  0  0  0  0  0  0  0  0  0  0
   -3.4649   -2.2484    0.1952 H   0  0  0  0  0  0  0  0  0  0  0  0
   -1.3836   -1.9788    0.6681 C   0  0  0  0  0  0  0  0  0  0  0  0
   -0.4949   -2.8123    0.6400 O   0  0  0  0  0  0  0  0  0  0  0  0
   -1.1313   -0.6767    0.2811 N   0  0  0  0  0  0  0  0  0  0  0  0
   -1.9137   -0.0448    0.4293 H   0  0  0  0  0  0  0  0  0  0  0  0
    0.2105   -0.0490    0.3138 C   0  0  1  0  0  0  0  0  0  0  0  0
    0.0776    1.0214    0.1311 H   0  0  0  0  0  0  0  0  0  0  0  0
    0.8611   -0.1884    1.7042 C   0  0  0  0  0  0  0  0  0  0  0  0
    0.9468   -1.2389    1.9978 H   0  0  0  0  0  0  0  0  0  0  0  0
    1.8756    0.2231    1.6793 H   0  0  0  0  0  0  0  0  0  0  0  0
   -0.1222    0.7567    2.9418 S   0  0  0  0  0  0  0  0  0  0  0  0
    0.6189    0.5499    4.0531 H   0  0  0  0  0  0  0  0  0  0  0  0
    1.1386   -0.5343   -0.8254 C   0  0  0  0  0  0  0  0  0  0  0  0
    2.3562   -0.4402   -0.7290 O   0  0  0  0  0  0  0  0  0  0  0  0
    0.5921   -0.9264   -2.0332 N   0  0  0  0  0  0  0  0  0  0  0  0
   -0.4007   -1.1391   -2.0092 H   0  0  0  0  0  0  0  0  0  0  0  0
    1.3948   -1.4704   -3.1213 C   0  0  0  0  0  0  0  0  0  0  0  0
    1.8974   -2.3897   -2.8026 H   0  0  0  0  0  0  0  0  0  0  0  0
    0.7586   -1.7018   -3.9809 H   0  0  0  0  0  0  0  0  0  0  0  0
    2.1526   -0.7467   -3.4394 H   0  0  0  0  0  0  0  0  0  0  0  0
  1  2  1  0  0  0  0
  2  3  1  0  0  0  0
  2  4  1  0  0  0  0
  2  5  1  0  0  0  0
  5  6  2  0  0  0  0
  5  7  1  0  0  0  0
  7  8  1  0  0  0  0
  7  9  1  0  0  0  0
  9 10  1  0  0  0  0
  9 11  1  0  0  0  0
  9 16  1  0  0  0  0
 11 12  1  0  0  0  0
 11 13  1  0  0  0  0
 11 14  1  0  0  0  0
 14 15  1  0  0  0  0
 16 17  2  0  0  0  0
 16 18  1  0  0  0  0
 18 19  1  0  0  0  0
 18 20  1  0  0  0  0
 20 21  1  0  0  0  0
 20 22  1  0  0  0  0
 20 23  1  0  0  0  0
M  END
$$$$

  -OEChem-01062216073D

 23 22  0     1  0  0  0  0  0999 V2000
   -2.8030   -3.4454    1.3491 H   0  0  0  0  0  0  0  0  0  0  0  0
   -2.7866   -2.3973    1.0364 C   0  0  0  0  0  0  0  0  0  0  0  0
   -3.1513   -1.7800    1.8611 H   0  0  0  0  0  0  0  0  0  0  0  0
   -3.4495   -2.2763    0.1765 H   0  0  0  0  0  0  0  0  0  0  0  0
   -1.3741   -1.9861    0.6669 C   0  0  0  0  0  0  0  0  0  0  0  0
   -0.4838   -2.8179    0.6634 O   0  0  0  0  0  0  0  0  0  0  0  0
   -1.1205   -0.6846    0.2775 N   0  0  0  0  0  0  0  0  0  0  0  0
   -1.9043   -0.0540    0.4209 H   0  0  0  0  0  0  0  0  0  0  0  0
    0.2202   -0.0569    0.3145 C   0  0  1  0  0  0  0  0  0  0  0  0
    0.0900    1.0130    0.1268 H   0  0  0  0  0  0  0  0  0  0  0  0
    0.8639   -0.1869    1.7092 C   0  0  0  0  0  0  0  0  0  0  0  0
    0.9479   -1.2354    2.0102 H   0  0  0  0  0  0  0  0  0  0  0  0
    1.8789    0.2240    1.6856 H   0  0  0  0  0  0  0  0  0  0  0  0
   -0.1259    0.7661    2.9355 S   0  0  0  0  0  0  0  0  0  0  0  0
    0.5984    0.5478    4.0558 H   0  0  0  0  0  0  0  0  0  0  0  0
    1.1458   -0.5512   -0.8228 C   0  0  0  0  0  0  0  0  0  0  0  0
    2.3519   -0.6825   -0.6522 O   0  0  0  0  0  0  0  0  0  0  0  0
    0.6431   -0.6466   -2.1076 N   0  0  0  0  0  0  0  0  0  0  0  0
   -0.3690   -0.6534   -2.1864 H   0  0  0  0  0  0  0  0  0  0  0  0
    1.4363   -1.1293   -3.2315 C   0  0  0  0  0  0  0  0  0  0  0  0
    1.7692   -2.1569   -3.0514 H   0  0  0  0  0  0  0  0  0  0  0  0
    0.8416   -1.1123   -4.1497 H   0  0  0  0  0  0  0  0  0  0  0  0
    2.3165   -0.4950   -3.3806 H   0  0  0  0  0  0  0  0  0  0  0  0
  1  2  1  0  0  0  0
  2  3  1  0  0  0  0
  2  4  1  0  0  0  0
  2  5  1  0  0  0  0
  5  6  2  0  0  0  0
  5  7  1  0  0  0  0
  7  8  1  0  0  0  0
  7  9  1  0  0  0  0
  9 10  1  0  0  0  0
  9 11  1  0  0  0  0
  9 16  1  0  0  0  0
 11 12  1  0  0  0  0
 11 13  1  0  0  0  0
 11 14  1  0  0  0  0
 14 15  1  0  0  0  0
 16 17  2  0  0  0  0
 16 18  1  0  0  0  0
 18 19  1  0  0  0  0
 18 20  1  0  0  0  0
 20 21  1  0  0  0  0
 20 22  1  0  0  0  0
 20 23  1  0  0  0  0
M  END
$$$$

  -OEChem-01062216073D

 23 22  0     1  0  0  0  0  0999 V2000
   -2.8159   -3.4571    1.3127 H   0  0  0  0  0  0  0  0  0  0  0  0
   -2.7884   -2.4038    1.0192 C   0  0  0  0  0  0  0  0  0  0  0  0
   -3.1599   -1.7986    1.8498 H   0  0  0  0  0  0  0  0  0  0  0  0
   -3.4384   -2.2630    0.1525 H   0  0  0  0  0  0  0  0  0  0  0  0
   -1.3686   -1.9948    0.6759 C   0  0  0  0  0  0  0  0  0  0  0  0
   -0.4782   -2.8256    0.7051 O   0  0  0  0  0  0  0  0  0  0  0  0
   -1.1125   -0.6950    0.2820 N   0  0  0  0  0  0  0  0  0  0  0  0
   -1.9011   -0.0669    0.4066 H   0  0  0  0  0  0  0  0  0  0  0  0
    0.2246   -0.0616    0.3136 C   0  0  1  0  0  0  0  0  0  0  0  0
    0.0905    1.0075    0.1249 H   0  0  0  0  0  0  0  0  0  0  0  0
    0.8724   -0.1818    1.7068 C   0  0  0  0  0  0  0  0  0  0  0  0
    0.9616   -1.2286    2.0125 H   0  0  0  0  0  0  0  0  0  0  0  0
    1.8862    0.2315    1.6765 H   0  0  0  0  0  0  0  0  0  0  0  0
   -0.1182    0.7726    2.9314 S   0  0  0  0  0  0  0  0  0  0  0  0
    0.5980    0.5434    4.0546 H   0  0  0  0  0  0  0  0  0  0  0  0
    1.1466   -0.5599   -0.8246 C   0  0  0  0  0  0  0  0  0  0  0  0
    2.2991   -0.9147   -0.6090 O   0  0  0  0  0  0  0  0  0  0  0  0
    0.7505   -0.3708   -2.1364 N   0  0  0  0  0  0  0  0  0  0  0  0
   -0.2329   -0.1674   -2.2835 H   0  0  0  0  0  0  0  0  0  0  0  0
    1.5546   -0.8001   -3.2745 C   0  0  0  0  0  0  0  0  0  0  0  0
    1.7180   -1.8825   -3.2407 H   0  0  0  0  0  0  0  0  0  0  0  0
    1.0460   -0.5546   -4.2117 H   0  0  0  0  0  0  0  0  0  0  0  0
    2.5272   -0.2967   -3.2691 H   0  0  0  0  0  0  0  0  0  0  0  0
  1  2  1  0  0  0  0
  2  3  1  0  0  0  0
  2  4  1  0  0  0  0
  2  5  1  0  0  0  0
  5  6  2  0  0  0  0
  5  7  1  0  0  0  0
  7  8  1  0  0  0  0
  7  9  1  0  0  0  0
  9 10  1  0  0  0  0
  9 11  1  0  0  0  0
  9 16  1  0  0  0  0
 11 12  1  0  0  0  0
 11 13  1  0  0  0  0
 11 14  1  0  0  0  0
 14 15  1  0  0  0  0
 16 17  2  0  0  0  0
 16 18  1  0  0  0  0
 18 19  1  0  0  0  0
 18 20  1  0  0  0  0
 20 21  1  0  0  0  0
 20 22  1  0  0  0  0
 20 23  1  0  0  0  0
M  END
$$$$

  -OEChem-01062216073D

 23 22  0     1  0  0  0  0  0999 V2000
   -2.8372   -3.4447    1.3577 H   0  0  0  0  0  0  0  0  0  0  0  0
   -2.8075   -2.4098    1.0051 C   0  0  0  0  0  0  0  0  0  0  0  0
   -3.2212   -1.7630    1.7827 H   0  0  0  0  0  0  0  0  0  0  0  0
   -3.4204   -2.3270    0.1044 H   0  0  0  0  0  0  0  0  0  0  0  0
   -1.3782   -2.0042    0.6991 C   0  0  0  0  0  0  0  0  0  0  0  0
   -0.4914   -2.8355    0.7710 O   0  0  0  0  0  0  0  0  0  0  0  0
   -1.1144   -0.7083    0.2966 N   0  0  0  0  0  0  0  0  0  0  0  0
   -1.9072   -0.0802    0.3870 H   0  0  0  0  0  0  0  0  0  0  0  0
    0.2216   -0.0729    0.3099 C   0  0  1  0  0  0  0  0  0  0  0  0
    0.0814    0.9952    0.1214 H   0  0  0  0  0  0  0  0  0  0  0  0
    0.8889   -0.1829    1.6942 C   0  0  0  0  0  0  0  0  0  0  0  0
    0.9826   -1.2276    2.0055 H   0  0  0  0  0  0  0  0  0  0  0  0
    1.9023    0.2294    1.6446 H   0  0  0  0  0  0  0  0  0  0  0  0
   -0.0835    0.7763    2.9293 S   0  0  0  0  0  0  0  0  0  0  0  0
    0.6363    0.5311    4.0467 H   0  0  0  0  0  0  0  0  0  0  0  0
    1.1388   -0.5721   -0.8323 C   0  0  0  0  0  0  0  0  0  0  0  0
    2.1967   -1.1459   -0.6052 O   0  0  0  0  0  0  0  0  0  0  0  0
    0.9038   -0.1254   -2.1208 N   0  0  0  0  0  0  0  0  0  0  0  0
    0.0004    0.3003   -2.3003 H   0  0  0  0  0  0  0  0  0  0  0  0
    1.7482   -0.4867   -3.2537 C   0  0  0  0  0  0  0  0  0  0  0  0
    1.7649   -1.5736   -3.3873 H   0  0  0  0  0  0  0  0  0  0  0  0
    1.3661   -0.0299   -4.1715 H   0  0  0  0  0  0  0  0  0  0  0  0
    2.7735   -0.1357   -3.0956 H   0  0  0  0  0  0  0  0  0  0  0  0
  1  2  1  0  0  0  0
  2  3  1  0  0  0  0
  2  4  1  0  0  0  0
  2  5  1  0  0  0  0
  5  6  2  0  0  0  0
  5  7  1  0  0  0  0
  7  8  1  0  0  0  0
  7  9  1  0  0  0  0
  9 10  1  0  0  0  0
  9 11  1  0  0  0  0
  9 16  1  0  0  0  0
 11 12  1  0  0  0  0
 11 13  1  0  0  0  0
 11 14  1  0  0  0  0
 14 15  1  0  0  0  0
 16 17  2  0  0  0  0
 16 18  1  0  0  0  0
 18 19  1  0  0  0  0
 18 20  1  0  0  0  0
 20 21  1  0  0  0  0
 20 22  1  0  0  0  0
 20 23  1  0  0  0  0
M  END
$$$$

  -OEChem-01062216073D

 23 22  0     1  0  0  0  0  0999 V2000
   -2.8662   -3.4515    1.3410 H   0  0  0  0  0  0  0  0  0  0  0  0
   -2.8248   -2.4174    0.9873 C   0  0  0  0  0  0  0  0  0  0  0  0
   -3.2613   -1.7685    1.7502 H   0  0  0  0  0  0  0  0  0  0  0  0
   -3.4096   -2.3365    0.0681 H   0  0  0  0  0  0  0  0  0  0  0  0
   -1.3865   -2.0129    0.7244 C   0  0  0  0  0  0  0  0  0  0  0  0
   -0.5027   -2.8398    0.8552 O   0  0  0  0  0  0  0  0  0  0  0  0
   -1.1172   -0.7205    0.3128 N   0  0  0  0  0  0  0  0  0  0  0  0
   -1.9181   -0.0977    0.3492 H   0  0  0  0  0  0  0  0  0  0  0  0
    0.2151   -0.0769    0.3047 C   0  0  1  0  0  0  0  0  0  0  0  0
    0.0616    0.9900    0.1202 H   0  0  0  0  0  0  0  0  0  0  0  0
    0.9074   -0.1776    1.6765 C   0  0  0  0  0  0  0  0  0  0  0  0
    1.0112   -1.2211    1.9892 H   0  0  0  0  0  0  0  0  0  0  0  0
    1.9183    0.2374    1.6059 H   0  0  0  0  0  0  0  0  0  0  0  0
   -0.0479    0.7788    2.9275 S   0  0  0  0  0  0  0  0  0  0  0  0
    0.6784    0.5179    4.0374 H   0  0  0  0  0  0  0  0  0  0  0  0
    1.1308   -0.5702   -0.8415 C   0  0  0  0  0  0  0  0  0  0  0  0
    2.0517   -1.3512   -0.6415 O   0  0  0  0  0  0  0  0  0  0  0  0
    1.0970    0.0902   -2.0580 N   0  0  0  0  0  0  0  0  0  0  0  0
    0.3227    0.7254   -2.2215 H   0  0  0  0  0  0  0  0  0  0  0  0
    1.9883   -0.2335   -3.1664 C   0  0  0  0  0  0  0  0  0  0  0  0
    1.8567   -1.2769   -3.4716 H   0  0  0  0  0  0  0  0  0  0  0  0
    1.7734    0.4088   -4.0257 H   0  0  0  0  0  0  0  0  0  0  0  0
    3.0332   -0.0814   -2.8755 H   0  0  0  0  0  0  0  0  0  0  0  0
  1  2  1  0  0  0  0
  2  3  1  0  0  0  0
  2  4  1  0  0  0  0
  2  5  1  0  0  0  0
  5  6  2  0  0  0  0
  5  7  1  0  0  0  0
  7  8  1  0  0  0  0
  7  9  1  0  0  0  0
  9 10  1  0  0  0  0
  9 11  1  0  0  0  0
  9 16  1  0  0  0  0
 11 12  1  0  0  0  0
 11 13  1  0  0  0  0
 11 14  1  0  0  0  0
 14 15  1  0  0  0  0
 16 17  2  0  0  0  0
 16 18  1  0  0  0  0
 18 19  1  0  0  0  0
 18 20  1  0  0  0  0
 20 21  1  0  0  0  0
 20 22  1  0  0  0  0
 20 23  1  0  0  0  0
M  END
$$$$

  -OEChem-01062216073D

 23 22  0     1  0  0  0  0  0999 V2000
   -2.9015   -3.4631    1.2892 H   0  0  0  0  0  0  0  0  0  0  0  0
   -2.8425   -2.4354    0.9195 C   0  0  0  0  0  0  0  0  0  0  0  0
   -3.3565   -1.7787    1.6254 H   0  0  0  0  0  0  0  0  0  0  0  0
   -3.3412   -2.3821   -0.0510 H   0  0  0  0  0  0  0  0  0  0  0  0
   -1.3920   -2.0131    0.7802 C   0  0  0  0  0  0  0  0  0  0  0  0
   -0.5170   -2.8195    1.0359 O   0  0  0  0  0  0  0  0  0  0  0  0
   -1.1119   -0.7252    0.3590 N   0  0  0  0  0  0  0  0  0  0  0  0
   -1.9230   -0.1214    0.2734 H   0  0  0  0  0  0  0  0  0  0  0  0
    0.2164   -0.0732    0.3204 C   0  0  1  0  0  0  0  0  0  0  0  0
    0.0443    0.9912    0.1388 H   0  0  0  0  0  0  0  0  0  0  0  0
    0.9505   -0.1592    1.6700 C   0  0  0  0  0  0  0  0  0  0  0  0
    1.0723   -1.1995    1.9859 H   0  0  0  0  0  0  0  0  0  0  0  0
    1.9558    0.2618    1.5658 H   0  0  0  0  0  0  0  0  0  0  0  0
    0.0260    0.7971    2.9437 S   0  0  0  0  0  0  0  0  0  0  0  0
    0.7603    0.5121    4.0419 H   0  0  0  0  0  0  0  0  0  0  0  0
    1.1222   -0.5593   -0.8362 C   0  0  0  0  0  0  0  0  0  0  0  0
    1.8398   -1.5436   -0.7301 O   0  0  0  0  0  0  0  0  0  0  0  0
    1.3097    0.2604   -1.9365 N   0  0  0  0  0  0  0  0  0  0  0  0
    0.7277    1.0882   -2.0123 H   0  0  0  0  0  0  0  0  0  0  0  0
    2.2276   -0.0581   -3.0245 C   0  0  0  0  0  0  0  0  0  0  0  0
    1.9439   -1.0030   -3.5001 H   0  0  0  0  0  0  0  0  0  0  0  0
    2.2060    0.7313   -3.7820 H   0  0  0  0  0  0  0  0  0  0  0  0
    3.2525   -0.1473   -2.6486 H   0  0  0  0  0  0  0  0  0  0  0  0
  1  2  1  0  0  0  0
  2  3  1  0  0  0  0
  2  4  1  0  0  0  0
  2  5  1  0  0  0  0
  5  6  2  0  0  0  0
  5  7  1  0  0  0  0
  7  8  1  0  0  0  0
  7  9  1  0  0  0  0
  9 10  1  0  0  0  0
  9 11  1  0  0  0  0
  9 16  1  0  0  0  0
 11 12  1  0  0  0  0
 11 13  1  0  0  0  0
 11 14  1  0  0  0  0
 14 15  1  0  0  0  0
 16 17  2  0  0  0  0
 16 18  1  0  0  0  0
 18 19  1  0  0  0  0
 18 20  1  0  0  0  0
 20 21  1  0  0  0  0
 20 22  1  0  0  0  0
 20 23  1  0  0  0  0
M  END
$$$$

  -OEChem-01062216073D

 23 22  0     1  0  0  0  0  0999 V2000
   -2.9028   -3.4925    1.1633 H   0  0  0  0  0  0  0  0  0  0  0  0
   -2.8311   -2.4626    0.8020 C   0  0  0  0  0  0  0  0  0  0  0  0
   -3.4586   -1.8255    1.4298 H   0  0  0  0  0  0  0  0  0  0  0  0
   -3.1956   -2.4260   -0.2273 H   0  0  0  0  0  0  0  0  0  0  0  0
   -1.3906   -1.9892    0.8583 C   0  0  0  0  0  0  0  0  0  0  0  0
   -0.5438   -2.7443    1.3006 O   0  0  0  0  0  0  0  0  0  0  0  0
   -1.0999   -0.7049    0.4307 N   0  0  0  0  0  0  0  0  0  0  0  0
   -1.9001   -0.1617    0.1246 H   0  0  0  0  0  0  0  0  0  0  0  0
    0.2288   -0.0540    0.3679 C   0  0  1  0  0  0  0  0  0  0  0  0
    0.0434    1.0077    0.1848 H   0  0  0  0  0  0  0  0  0  0  0  0
    1.0048   -0.1248    1.6941 C   0  0  0  0  0  0  0  0  0  0  0  0
    1.1431   -1.1607    2.0155 H   0  0  0  0  0  0  0  0  0  0  0  0
    2.0039    0.3008    1.5568 H   0  0  0  0  0  0  0  0  0  0  0  0
    0.1194    0.8392    2.9890 S   0  0  0  0  0  0  0  0  0  0  0  0
    0.8426    0.5036    4.0803 H   0  0  0  0  0  0  0  0  0  0  0  0
    1.1177   -0.5403   -0.8010 C   0  0  0  0  0  0  0  0  0  0  0  0
    1.4991   -1.6970   -0.8975 O   0  0  0  0  0  0  0  0  0  0  0  0
    1.5499    0.3710   -1.7498 N   0  0  0  0  0  0  0  0  0  0  0  0
    1.2581    1.3377   -1.6456 H   0  0  0  0  0  0  0  0  0  0  0  0
    2.4327    0.0167   -2.8557 C   0  0  0  0  0  0  0  0  0  0  0  0
    1.9921   -0.7861   -3.4566 H   0  0  0  0  0  0  0  0  0  0  0  0
    2.5944    0.8831   -3.5041 H   0  0  0  0  0  0  0  0  0  0  0  0
    3.4041   -0.3196   -2.4778 H   0  0  0  0  0  0  0  0  0  0  0  0
  1  2  1  0  0  0  0
  2  3  1  0  0  0  0
  2  4  1  0  0  0  0
  2  5  1  0  0  0  0
  5  6  2  0  0  0  0
  5  7  1  0  0  0  0
  7  8  1  0  0  0  0
  7  9  1  0  0  0  0
  9 10  1  0  0  0  0
  9 11  1  0  0  0  0
  9 16  1  0  0  0  0
 11 12  1  0  0  0  0
 11 13  1  0  0  0  0
 11 14  1  0  0  0  0
 14 15  1  0  0  0  0
 16 17  2  0  0  0  0
 16 18  1  0  0  0  0
 18 19  1  0  0  0  0
 18 20  1  0  0  0  0
 20 21  1  0  0  0  0
 20 22  1  0  0  0  0
 20 23  1  0  0  0  0
M  END
$$$$

  -OEChem-01062216073D

 23 22  0     1  0  0  0  0  0999 V2000
   -2.8661   -3.5156    1.0927 H   0  0  0  0  0  0  0  0  0  0  0  0
   -2.7944   -2.4887    0.7234 C   0  0  0  0  0  0  0  0  0  0  0  0
   -3.4975   -1.8644    1.2797 H   0  0  0  0  0  0  0  0  0  0  0  0
   -3.0627   -2.4779   -0.3356 H   0  0  0  0  0  0  0  0  0  0  0  0
   -1.3816   -1.9661    0.9043 C   0  0  0  0  0  0  0  0  0  0  0  0
   -0.5577   -2.6801    1.4500 O   0  0  0  0  0  0  0  0  0  0  0  0
   -1.0913   -0.6826    0.4724 N   0  0  0  0  0  0  0  0  0  0  0  0
   -1.8581   -0.2003    0.0159 H   0  0  0  0  0  0  0  0  0  0  0  0
    0.2439   -0.0448    0.4106 C   0  0  1  0  0  0  0  0  0  0  0  0
    0.0600    1.0149    0.2133 H   0  0  0  0  0  0  0  0  0  0  0  0
    1.0268   -0.0968    1.7342 C   0  0  0  0  0  0  0  0  0  0  0  0
    1.1637   -1.1265    2.0740 H   0  0  0  0  0  0  0  0  0  0  0  0
    2.0267    0.3227    1.5858 H   0  0  0  0  0  0  0  0  0  0  0  0
    0.1545    0.8940    3.0173 S   0  0  0  0  0  0  0  0  0  0  0  0
    0.8575    0.5479    4.1185 H   0  0  0  0  0  0  0  0  0  0  0  0
    1.1300   -0.5416   -0.7565 C   0  0  0  0  0  0  0  0  0  0  0  0
    1.1468   -1.7104   -1.1142 O   0  0  0  0  0  0  0  0  0  0  0  0
    1.8274    0.3818   -1.5170 N   0  0  0  0  0  0  0  0  0  0  0  0
    1.7966    1.3542   -1.2265 H   0  0  0  0  0  0  0  0  0  0  0  0
    2.6405    0.0165   -2.6719 C   0  0  0  0  0  0  0  0  0  0  0  0
    2.0239   -0.4635   -3.4393 H   0  0  0  0  0  0  0  0  0  0  0  0
    3.1016    0.9078   -3.1080 H   0  0  0  0  0  0  0  0  0  0  0  0
    3.4365   -0.6753   -2.3767 H   0  0  0  0  0  0  0  0  0  0  0  0
  1  2  1  0  0  0  0
  2  3  1  0  0  0  0
  2  4  1  0  0  0  0
  2  5  1  0  0  0  0
  5  6  2  0  0  0  0
  5  7  1  0  0  0  0
  7  8  1  0  0  0  0
  7  9  1  0  0  0  0
  9 10  1  0  0  0  0
  9 11  1  0  0  0  0
  9 16  1  0  0  0  0
 11 12  1  0  0  0  0
 11 13  1  0  0  0  0
 11 14  1  0  0  0  0
 14 15  1  0  0  0  0
 16 17  2  0  0  0  0
 16 18  1  0  0  0  0
 18 19  1  0  0  0  0
 18 20  1  0  0  0  0
 20 21  1  0  0  0  0
 20 22  1  0  0  0  0
 20 23  1  0  0  0  0
M  END
$$$$

  -OEChem-01062216073D

 23 22  0     1  0  0  0  0  0999 V2000
   -2.8568   -3.5172    1.0872 H   0  0  0  0  0  0  0  0  0  0  0  0
   -2.7855   -2.4916    0.7143 C   0  0  0  0  0  0  0  0  0  0  0  0
   -3.5000   -1.8689    1.2576 H   0  0  0  0  0  0  0  0  0  0  0  0
   -3.0385   -2.4867   -0.3485 H   0  0  0  0  0  0  0  0  0  0  0  0
   -1.3782   -1.9601    0.9121 C   0  0  0  0  0  0  0  0  0  0  0  0
   -0.5512   -2.6718    1.4574 O   0  0  0  0  0  0  0  0  0  0  0  0
   -1.0869   -0.6776    0.4801 N   0  0  0  0  0  0  0  0  0  0  0  0
   -1.8391   -0.2115   -0.0157 H   0  0  0  0  0  0  0  0  0  0  0  0
    0.2527   -0.0495    0.4227 C   0  0  1  0  0  0  0  0  0  0  0  0
    0.0762    1.0092    0.2133 H   0  0  0  0  0  0  0  0  0  0  0  0
    1.0252   -0.0936    1.7542 C   0  0  0  0  0  0  0  0  0  0  0  0
    1.1529   -1.1197    2.1076 H   0  0  0  0  0  0  0  0  0  0  0  0
    2.0287    0.3190    1.6122 H   0  0  0  0  0  0  0  0  0  0  0  0
    0.1484    0.9162    3.0190 S   0  0  0  0  0  0  0  0  0  0  0  0
    0.8309    0.5695    4.1328 H   0  0  0  0  0  0  0  0  0  0  0  0
    1.1375   -0.5545   -0.7426 C   0  0  0  0  0  0  0  0  0  0  0  0
    0.9134   -1.6106   -1.3189 O   0  0  0  0  0  0  0  0  0  0  0  0
    2.0758    0.2998   -1.2971 N   0  0  0  0  0  0  0  0  0  0  0  0
    2.2248    1.1964   -0.8445 H   0  0  0  0  0  0  0  0  0  0  0  0
    2.8838   -0.0446   -2.4620 C   0  0  0  0  0  0  0  0  0  0  0  0
    2.2443   -0.2378   -3.3298 H   0  0  0  0  0  0  0  0  0  0  0  0
    3.5617    0.7778   -2.7098 H   0  0  0  0  0  0  0  0  0  0  0  0
    3.4840   -0.9384   -2.2610 H   0  0  0  0  0  0  0  0  0  0  0  0
  1  2  1  0  0  0  0
  2  3  1  0  0  0  0
  2  4  1  0  0  0  0
  2  5  1  0  0  0  0
  5  6  2  0  0  0  0
  5  7  1  0  0  0  0
  7  8  1  0  0  0  0
  7  9  1  0  0  0  0
  9 10  1  0  0  0  0
  9 11  1  0  0  0  0
  9 16  1  0  0  0  0
 11 12  1  0  0  0  0
 11 13  1  0  0  0  0
 11 14  1  0  0  0  0
 14 15  1  0  0  0  0
 16 17  2  0  0  0  0
 16 18  1  0  0  0  0
 18 19  1  0  0  0  0
 18 20  1  0  0  0  0
 20 21  1  0  0  0  0
 20 22  1  0  0  0  0
 20 23  1  0  0  0  0
M  END
$$$$

  -OEChem-01062216073D

 23 22  0     1  0  0  0  0  0999 V2000
   -2.8409   -3.5215    1.0750 H   0  0  0  0  0  0  0  0  0  0  0  0
   -2.7765   -2.4917    0.7128 C   0  0  0  0  0  0  0  0  0  0  0  0
   -3.4900   -1.8777    1.2672 H   0  0  0  0  0  0  0  0  0  0  0  0
   -3.0363   -2.4768   -0.3483 H   0  0  0  0  0  0  0  0  0  0  0  0
   -1.3705   -1.9563    0.9074 C   0  0  0  0  0  0  0  0  0  0  0  0
   -0.5301   -2.6760    1.4219 O   0  0  0  0  0  0  0  0  0  0  0  0
   -1.0826   -0.6712    0.4823 N   0  0  0  0  0  0  0  0  0  0  0  0
   -1.8285   -0.2093   -0.0273 H   0  0  0  0  0  0  0  0  0  0  0  0
    0.2580   -0.0453    0.4340 C   0  0  1  0  0  0  0  0  0  0  0  0
    0.0901    1.0142    0.2204 H   0  0  0  0  0  0  0  0  0  0  0  0
    1.0153   -0.0899    1.7765 C   0  0  0  0  0  0  0  0  0  0  0  0
    1.1360   -1.1151    2.1344 H   0  0  0  0  0  0  0  0  0  0  0  0
    2.0213    0.3204    1.6505 H   0  0  0  0  0  0  0  0  0  0  0  0
    0.1249    0.9235    3.0285 S   0  0  0  0  0  0  0  0  0  0  0  0
    0.7960    0.5823    4.1506 H   0  0  0  0  0  0  0  0  0  0  0  0
    1.1364   -0.5558   -0.7346 C   0  0  0  0  0  0  0  0  0  0  0  0
    0.7516   -1.4413   -1.4884 O   0  0  0  0  0  0  0  0  0  0  0  0
    2.2750    0.1471   -1.0915 N   0  0  0  0  0  0  0  0  0  0  0  0
    2.5561    0.9241   -0.5016 H   0  0  0  0  0  0  0  0  0  0  0  0
    3.0971   -0.1946   -2.2469 C   0  0  0  0  0  0  0  0  0  0  0  0
    2.5140   -0.1140   -3.1705 H   0  0  0  0  0  0  0  0  0  0  0  0
    3.9519    0.4848   -2.3179 H   0  0  0  0  0  0  0  0  0  0  0  0
    3.4757   -1.2185   -2.1580 H   0  0  0  0  0  0  0  0  0  0  0  0
  1  2  1  0  0  0  0
  2  3  1  0  0  0  0
  2  4  1  0  0  0  0
  2  5  1  0  0  0  0
  5  6  2  0  0  0  0
  5  7  1  0  0  0  0
  7  8  1  0  0  0  0
  7  9  1  0  0  0  0
  9 10  1  0  0  0  0
  9 11  1  0  0  0  0
  9 16  1  0  0  0  0
 11 12  1  0  0  0  0
 11 13  1  0  0  0  0
 11 14  1  0  0  0  0
 14 15  1  0  0  0  0
 16 17  2  0  0  0  0
 16 18  1  0  0  0  0
 18 19  1  0  0  0  0
 18 20  1  0  0  0  0
 20 21  1  0  0  0  0
 20 22  1  0  0  0  0
 20 23  1  0  0  0  0
M  END
$$$$

  -OEChem-01062216073D

 23 22  0     1  0  0  0  0  0999 V2000
   -2.8978   -3.5036    1.0376 H   0  0  0  0  0  0  0  0  0  0  0  0
   -2.8029   -2.4678    0.6996 C   0  0  0  0  0  0  0  0  0  0  0  0
   -3.4768   -1.8421    1.2896 H   0  0  0  0  0  0  0  0  0  0  0  0
   -3.0912   -2.4140   -0.3531 H   0  0  0  0  0  0  0  0  0  0  0  0
   -1.3726   -1.9904    0.8681 C   0  0  0  0  0  0  0  0  0  0  0  0
   -0.5412   -2.7709    1.3012 O   0  0  0  0  0  0  0  0  0  0  0  0
   -1.0579   -0.7028    0.4722 N   0  0  0  0  0  0  0  0  0  0  0  0
   -1.8004   -0.2251   -0.0289 H   0  0  0  0  0  0  0  0  0  0  0  0
    0.2759   -0.0564    0.4402 C   0  0  1  0  0  0  0  0  0  0  0  0
    0.0910    1.0202    0.4964 H   0  0  0  0  0  0  0  0  0  0  0  0
    1.1921   -0.3761    1.6418 C   0  0  0  0  0  0  0  0  0  0  0  0
    1.3728   -1.4492    1.7372 H   0  0  0  0  0  0  0  0  0  0  0  0
    2.1701    0.0919    1.5018 H   0  0  0  0  0  0  0  0  0  0  0  0
    0.4570    0.3049    3.1856 S   0  0  0  0  0  0  0  0  0  0  0  0
    1.2289   -0.2947    4.1184 H   0  0  0  0  0  0  0  0  0  0  0  0
    0.9906   -0.2672   -0.9175 C   0  0  0  0  0  0  0  0  0  0  0  0
    0.3981   -0.7646   -1.8680 O   0  0  0  0  0  0  0  0  0  0  0  0
    2.2507    0.2616   -1.1424 N   0  0  0  0  0  0  0  0  0  0  0  0
    2.7164    0.7221   -0.3669 H   0  0  0  0  0  0  0  0  0  0  0  0
    2.9419    0.1681   -2.4234 C   0  0  0  0  0  0  0  0  0  0  0  0
    2.3704    0.6784   -3.2059 H   0  0  0  0  0  0  0  0  0  0  0  0
    3.9290    0.6354   -2.3563 H   0  0  0  0  0  0  0  0  0  0  0  0
    3.0751   -0.8802   -2.7113 H   0  0  0  0  0  0  0  0  0  0  0  0
  1  2  1  0  0  0  0
  2  3  1  0  0  0  0
  2  4  1  0  0  0  0
  2  5  1  0  0  0  0
  5  6  2  0  0  0  0
  5  7  1  0  0  0  0
  7  8  1  0  0  0  0
  7  9  1  0  0  0  0
  9 10  1  0  0  0  0
  9 11  1  0  0  0  0
  9 16  1  0  0  0  0
 11 12  1  0  0  0  0
 11 13  1  0  0  0  0
 11 14  1  0  0  0  0
 14 15  1  0  0  0  0
 16 17  2  0  0  0  0
 16 18  1  0  0  0  0
 18 19  1  0  0  0  0
 18 20  1  0  0  0  0
 20 21  1  0  0  0  0
 20 22  1  0  0  0  0
 20 23  1  0  0  0  0
M  END
$$$$

  -OEChem-01062216073D

 23 22  0     1  0  0  0  0  0999 V2000
   -2.8855   -3.5052    1.0322 H   0  0  0  0  0  0  0  0  0  0  0  0
   -2.7945   -2.4660    0.7038 C   0  0  0  0  0  0  0  0  0  0  0  0
   -3.4479   -1.8439    1.3201 H   0  0  0  0  0  0  0  0  0  0  0  0
   -3.1122   -2.3978   -0.3395 H   0  0  0  0  0  0  0  0  0  0  0  0
   -1.3577   -1.9978    0.8376 C   0  0  0  0  0  0  0  0  0  0  0  0
   -0.5116   -2.7922    1.2140 O   0  0  0  0  0  0  0  0  0  0  0  0
   -1.0467   -0.7040    0.4613 N   0  0  0  0  0  0  0  0  0  0  0  0
   -1.7976   -0.2042   -0.0053 H   0  0  0  0  0  0  0  0  0  0  0  0
    0.2833   -0.0514    0.4509 C   0  0  1  0  0  0  0  0  0  0  0  0
    0.0970    1.0251    0.5096 H   0  0  0  0  0  0  0  0  0  0  0  0
    1.1747   -0.3732    1.6711 C   0  0  0  0  0  0  0  0  0  0  0  0
    1.3579   -1.4457    1.7691 H   0  0  0  0  0  0  0  0  0  0  0  0
    2.1514    0.1038    1.5571 H   0  0  0  0  0  0  0  0  0  0  0  0
    0.4017    0.3031    3.1988 S   0  0  0  0  0  0  0  0  0  0  0  0
    1.1724   -0.2694    4.1493 H   0  0  0  0  0  0  0  0  0  0  0  0
    0.9990   -0.2514   -0.9090 C   0  0  0  0  0  0  0  0  0  0  0  0
    0.3451   -0.4959   -1.9167 O   0  0  0  0  0  0  0  0  0  0  0  0
    2.3541   -0.0066   -1.0589 N   0  0  0  0  0  0  0  0  0  0  0  0
    2.8935    0.1922   -0.2229 H   0  0  0  0  0  0  0  0  0  0  0  0
    3.0561   -0.1479   -2.3296 C   0  0  0  0  0  0  0  0  0  0  0  0
    2.6198    0.5135   -3.0857 H   0  0  0  0  0  0  0  0  0  0  0  0
    4.1114    0.1151   -2.2102 H   0  0  0  0  0  0  0  0  0  0  0  0
    2.9949   -1.1811   -2.6876 H   0  0  0  0  0  0  0  0  0  0  0  0
  1  2  1  0  0  0  0
  2  3  1  0  0  0  0
  2  4  1  0  0  0  0
  2  5  1  0  0  0  0
  5  6  2  0  0  0  0
  5  7  1  0  0  0  0
  7  8  1  0  0  0  0
  7  9  1  0  0  0  0
  9 10  1  0  0  0  0
  9 11  1  0  0  0  0
  9 16  1  0  0  0  0
 11 12  1  0  0  0  0
 11 13  1  0  0  0  0
 11 14  1  0  0  0  0
 14 15  1  0  0  0  0
 16 17  2  0  0  0  0
 16 18  1  0  0  0  0
 18 19  1  0  0  0  0
 18 20  1  0  0  0  0
 20 21  1  0  0  0  0
 20 22  1  0  0  0  0
 20 23  1  0  0  0  0
M  END
$$$$

  -OEChem-01062216073D

 23 22  0     1  0  0  0  0  0999 V2000
   -2.8708   -3.5087    1.0307 H   0  0  0  0  0  0  0  0  0  0  0  0
   -2.7872   -2.4671    0.7083 C   0  0  0  0  0  0  0  0  0  0  0  0
   -3.4214   -1.8489    1.3481 H   0  0  0  0  0  0  0  0  0  0  0  0
   -3.1342   -2.3889   -0.3249 H   0  0  0  0  0  0  0  0  0  0  0  0
   -1.3462   -2.0032    0.8058 C   0  0  0  0  0  0  0  0  0  0  0  0
   -0.4865   -2.8047    1.1339 O   0  0  0  0  0  0  0  0  0  0  0  0
   -1.0393   -0.7053    0.4433 N   0  0  0  0  0  0  0  0  0  0  0  0
   -1.8019   -0.1797    0.0263 H   0  0  0  0  0  0  0  0  0  0  0  0
    0.2876   -0.0492    0.4559 C   0  0  1  0  0  0  0  0  0  0  0  0
    0.0977    1.0267    0.5125 H   0  0  0  0  0  0  0  0  0  0  0  0
    1.1591   -0.3657    1.6914 C   0  0  0  0  0  0  0  0  0  0  0  0
    1.3436   -1.4373    1.7956 H   0  0  0  0  0  0  0  0  0  0  0  0
    2.1343    0.1185    1.5903 H   0  0  0  0  0  0  0  0  0  0  0  0
    0.3588    0.3096    3.2051 S   0  0  0  0  0  0  0  0  0  0  0  0
    1.1428   -0.2225    4.1680 H   0  0  0  0  0  0  0  0  0  0  0  0
    1.0117   -0.2430   -0.8993 C   0  0  0  0  0  0  0  0  0  0  0  0
    0.3596   -0.2312   -1.9371 O   0  0  0  0  0  0  0  0  0  0  0  0
    2.3924   -0.3009   -0.9954 N   0  0  0  0  0  0  0  0  0  0  0  0
    2.9167   -0.3928   -0.1315 H   0  0  0  0  0  0  0  0  0  0  0  0
    3.0938   -0.4912   -2.2602 C   0  0  0  0  0  0  0  0  0  0  0  0
    2.8373    0.3061   -2.9660 H   0  0  0  0  0  0  0  0  0  0  0  0
    4.1761   -0.4718   -2.0997 H   0  0  0  0  0  0  0  0  0  0  0  0
    2.8259   -1.4554   -2.7052 H   0  0  0  0  0  0  0  0  0  0  0  0
  1  2  1  0  0  0  0
  2  3  1  0  0  0  0
  2  4  1  0  0  0  0
  2  5  1  0  0  0  0
  5  6  2  0  0  0  0
  5  7  1  0  0  0  0
  7  8  1  0  0  0  0
  7  9  1  0  0  0  0
  9 10  1  0  0  0  0
  9 11  1  0  0  0  0
  9 16  1  0  0  0  0
 11 12  1  0  0  0  0
 11 13  1  0  0  0  0
 11 14  1  0  0  0  0
 14 15  1  0  0  0  0
 16 17  2  0  0  0  0
 16 18  1  0  0  0  0
 18 19  1  0  0  0  0
 18 20  1  0  0  0  0
 20 21  1  0  0  0  0
 20 22  1  0  0  0  0
 20 23  1  0  0  0  0
M  END
$$$$

  -OEChem-01062216073D

 23 22  0     1  0  0  0  0  0999 V2000
   -2.8611   -3.5074    1.0453 H   0  0  0  0  0  0  0  0  0  0  0  0
   -2.7841   -2.4640    0.7273 C   0  0  0  0  0  0  0  0  0  0  0  0
   -3.3904   -1.8474    1.3952 H   0  0  0  0  0  0  0  0  0  0  0  0
   -3.1703   -2.3766   -0.2912 H   0  0  0  0  0  0  0  0  0  0  0  0
   -1.3380   -2.0080    0.7728 C   0  0  0  0  0  0  0  0  0  0  0  0
   -0.4660   -2.8165    1.0475 O   0  0  0  0  0  0  0  0  0  0  0  0
   -1.0348   -0.7081    0.4162 N   0  0  0  0  0  0  0  0  0  0  0  0
   -1.8119   -0.1540    0.0684 H   0  0  0  0  0  0  0  0  0  0  0  0
    0.2897   -0.0512    0.4487 C   0  0  1  0  0  0  0  0  0  0  0  0
    0.0990    1.0251    0.5021 H   0  0  0  0  0  0  0  0  0  0  0  0
    1.1450   -0.3646    1.6956 C   0  0  0  0  0  0  0  0  0  0  0  0
    1.3274   -1.4360    1.8063 H   0  0  0  0  0  0  0  0  0  0  0  0
    2.1211    0.1211    1.6009 H   0  0  0  0  0  0  0  0  0  0  0  0
    0.3229    0.3110    3.1976 S   0  0  0  0  0  0  0  0  0  0  0  0
    1.1244   -0.1759    4.1702 H   0  0  0  0  0  0  0  0  0  0  0  0
    1.0272   -0.2438   -0.8966 C   0  0  0  0  0  0  0  0  0  0  0  0
    0.4384    0.0103   -1.9407 O   0  0  0  0  0  0  0  0  0  0  0  0
    2.3627   -0.6042   -0.9593 N   0  0  0  0  0  0  0  0  0  0  0  0
    2.7842   -0.9506   -0.1033 H   0  0  0  0  0  0  0  0  0  0  0  0
    3.0601   -0.8364   -2.2189 C   0  0  0  0  0  0  0  0  0  0  0  0
    3.0188    0.0567   -2.8518 H   0  0  0  0  0  0  0  0  0  0  0  0
    4.1114   -1.0747   -2.0310 H   0  0  0  0  0  0  0  0  0  0  0  0
    2.6048   -1.6728   -2.7597 H   0  0  0  0  0  0  0  0  0  0  0  0
  1  2  1  0  0  0  0
  2  3  1  0  0  0  0
  2  4  1  0  0  0  0
  2  5  1  0  0  0  0
  5  6  2  0  0  0  0
  5  7  1  0  0  0  0
  7  8  1  0  0  0  0
  7  9  1  0  0  0  0
  9 10  1  0  0  0  0
  9 11  1  0  0  0  0
  9 16  1  0  0  0  0
 11 12  1  0  0  0  0
 11 13  1  0  0  0  0
 11 14  1  0  0  0  0
 14 15  1  0  0  0  0
 16 17  2  0  0  0  0
 16 18  1  0  0  0  0
 18 19  1  0  0  0  0
 18 20  1  0  0  0  0
 20 21  1  0  0  0  0
 20 22  1  0  0  0  0
 20 23  1  0  0  0  0
M  END
$$$$

  -OEChem-01062216073D

 23 22  0     1  0  0  0  0  0999 V2000
   -2.8485   -3.5024    1.0785 H   0  0  0  0  0  0  0  0  0  0  0  0
   -2.7814   -2.4581    0.7610 C   0  0  0  0  0  0  0  0  0  0  0  0
   -3.3472   -1.8407    1.4626 H   0  0  0  0  0  0  0  0  0  0  0  0
   -3.2206   -2.3635   -0.2349 H   0  0  0  0  0  0  0  0  0  0  0  0
   -1.3320   -2.0119    0.7314 C   0  0  0  0  0  0  0  0  0  0  0  0
   -0.4473   -2.8283    0.9357 O   0  0  0  0  0  0  0  0  0  0  0  0
   -1.0352   -0.7103    0.3780 N   0  0  0  0  0  0  0  0  0  0  0  0
   -1.8284   -0.1241    0.1347 H   0  0  0  0  0  0  0  0  0  0  0  0
    0.2890   -0.0570    0.4315 C   0  0  1  0  0  0  0  0  0  0  0  0
    0.0989    1.0198    0.4824 H   0  0  0  0  0  0  0  0  0  0  0  0
    1.1276   -0.3704    1.6885 C   0  0  0  0  0  0  0  0  0  0  0  0
    1.3037   -1.4421    1.8055 H   0  0  0  0  0  0  0  0  0  0  0  0
    2.1069    0.1107    1.5990 H   0  0  0  0  0  0  0  0  0  0  0  0
    0.2867    0.3065    3.1794 S   0  0  0  0  0  0  0  0  0  0  0  0
    1.1077   -0.1312    4.1591 H   0  0  0  0  0  0  0  0  0  0  0  0
    1.0452   -0.2497   -0.9006 C   0  0  0  0  0  0  0  0  0  0  0  0
    0.5820    0.2362   -1.9252 O   0  0  0  0  0  0  0  0  0  0  0  0
    2.2667   -0.8984   -0.9565 N   0  0  0  0  0  0  0  0  0  0  0  0
    2.5141   -1.4579   -0.1454 H   0  0  0  0  0  0  0  0  0  0  0  0
    2.9578   -1.1627   -2.2129 C   0  0  0  0  0  0  0  0  0  0  0  0
    3.1506   -0.2277   -2.7498 H   0  0  0  0  0  0  0  0  0  0  0  0
    3.9175   -1.6515   -2.0205 H   0  0  0  0  0  0  0  0  0  0  0  0
    2.3554   -1.8175   -2.8514 H   0  0  0  0  0  0  0  0  0  0  0  0
  1  2  1  0  0  0  0
  2  3  1  0  0  0  0
  2  4  1  0  0  0  0
  2  5  1  0  0  0  0
  5  6  2  0  0  0  0
  5  7  1  0  0  0  0
  7  8  1  0  0  0  0
  7  9  1  0  0  0  0
  9 10  1  0  0  0  0
  9 11  1  0  0  0  0
  9 16  1  0  0  0  0
 11 12  1  0  0  0  0
 11 13  1  0  0  0  0
 11 14  1  0  0  0  0
 14 15  1  0  0  0  0
 16 17  2  0  0  0  0
 16 18  1  0  0  0  0
 18 19  1  0  0  0  0
 18 20  1  0  0  0  0
 20 21  1  0  0  0  0
 20 22  1  0  0  0  0
 20 23  1  0  0  0  0
M  END
$$$$

  -OEChem-01062216073D

 23 22  0     1  0  0  0  0  0999 V2000
   -2.8211   -3.4979    1.1246 H   0  0  0  0  0  0  0  0  0  0  0  0
   -2.7732   -2.4504    0.8135 C   0  0  0  0  0  0  0  0  0  0  0  0
   -3.2831   -1.8383    1.5613 H   0  0  0  0  0  0  0  0  0  0  0  0
   -3.2843   -2.3440   -0.1465 H   0  0  0  0  0  0  0  0  0  0  0  0
   -1.3278   -2.0096    0.6818 C   0  0  0  0  0  0  0  0  0  0  0  0
   -0.4315   -2.8318    0.7964 O   0  0  0  0  0  0  0  0  0  0  0  0
   -1.0434   -0.7058    0.3271 N   0  0  0  0  0  0  0  0  0  0  0  0
   -1.8459   -0.0948    0.2060 H   0  0  0  0  0  0  0  0  0  0  0  0
    0.2823   -0.0599    0.4038 C   0  0  1  0  0  0  0  0  0  0  0  0
    0.0977    1.0181    0.4543 H   0  0  0  0  0  0  0  0  0  0  0  0
    1.1055   -0.3817    1.6684 C   0  0  0  0  0  0  0  0  0  0  0  0
    1.2768   -1.4544    1.7848 H   0  0  0  0  0  0  0  0  0  0  0  0
    2.0880    0.0947    1.5864 H   0  0  0  0  0  0  0  0  0  0  0  0
    0.2503    0.2909    3.1531 S   0  0  0  0  0  0  0  0  0  0  0  0
    1.0848   -0.1143    4.1356 H   0  0  0  0  0  0  0  0  0  0  0  0
    1.0584   -0.2581   -0.9131 C   0  0  0  0  0  0  0  0  0  0  0  0
    0.7877    0.4358   -1.8850 O   0  0  0  0  0  0  0  0  0  0  0  0
    2.0996   -1.1652   -0.9910 N   0  0  0  0  0  0  0  0  0  0  0  0
    2.1139   -1.8751   -0.2621 H   0  0  0  0  0  0  0  0  0  0  0  0
    2.7944   -1.4507   -2.2402 C   0  0  0  0  0  0  0  0  0  0  0  0
    3.2386   -0.5376   -2.6504 H   0  0  0  0  0  0  0  0  0  0  0  0
    3.5964   -2.1752   -2.0693 H   0  0  0  0  0  0  0  0  0  0  0  0
    2.1001   -1.8668   -2.9778 H   0  0  0  0  0  0  0  0  0  0  0  0
  1  2  1  0  0  0  0
  2  3  1  0  0  0  0
  2  4  1  0  0  0  0
  2  5  1  0  0  0  0
  5  6  2  0  0  0  0
  5  7  1  0  0  0  0
  7  8  1  0  0  0  0
  7  9  1  0  0  0  0
  9 10  1  0  0  0  0
  9 11  1  0  0  0  0
  9 16  1  0  0  0  0
 11 12  1  0  0  0  0
 11 13  1  0  0  0  0
 11 14  1  0  0  0  0
 14 15  1  0  0  0  0
 16 17  2  0  0  0  0
 16 18  1  0  0  0  0
 18 19  1  0  0  0  0
 18 20  1  0  0  0  0
 20 21  1  0  0  0  0
 20 22  1  0  0  0  0
 20 23  1  0  0  0  0
M  END
$$$$

  -OEChem-01062216073D

 23 22  0     1  0  0  0  0  0999 V2000
   -2.7959   -3.4876    1.1707 H   0  0  0  0  0  0  0  0  0  0  0  0
   -2.7629   -2.4374    0.8681 C   0  0  0  0  0  0  0  0  0  0  0  0
   -3.2152   -1.8307    1.6563 H   0  0  0  0  0  0  0  0  0  0  0  0
   -3.3392   -2.3172   -0.0523 H   0  0  0  0  0  0  0  0  0  0  0  0
   -1.3274   -2.0039    0.6411 C   0  0  0  0  0  0  0  0  0  0  0  0
   -0.4272   -2.8304    0.6784 O   0  0  0  0  0  0  0  0  0  0  0  0
   -1.0552   -0.6992    0.2811 N   0  0  0  0  0  0  0  0  0  0  0  0
   -1.8591   -0.0786    0.2489 H   0  0  0  0  0  0  0  0  0  0  0  0
    0.2712   -0.0570    0.3760 C   0  0  1  0  0  0  0  0  0  0  0  0
    0.0914    1.0218    0.4299 H   0  0  0  0  0  0  0  0  0  0  0  0
    1.0866   -0.3950    1.6401 C   0  0  0  0  0  0  0  0  0  0  0  0
    1.2588   -1.4688    1.7440 H   0  0  0  0  0  0  0  0  0  0  0  0
    2.0698    0.0814    1.5671 H   0  0  0  0  0  0  0  0  0  0  0  0
    0.2222    0.2602    3.1270 S   0  0  0  0  0  0  0  0  0  0  0  0
    1.0571   -0.1480    4.1079 H   0  0  0  0  0  0  0  0  0  0  0  0
    1.0623   -0.2644   -0.9278 C   0  0  0  0  0  0  0  0  0  0  0  0
    1.0264    0.5823   -1.8112 O   0  0  0  0  0  0  0  0  0  0  0  0
    1.8717   -1.3760   -1.0666 N   0  0  0  0  0  0  0  0  0  0  0  0
    1.6566   -2.1442   -0.4304 H   0  0  0  0  0  0  0  0  0  0  0  0
    2.5730   -1.6839   -2.3060 C   0  0  0  0  0  0  0  0  0  0  0  0
    3.2406   -0.8615   -2.5839 H   0  0  0  0  0  0  0  0  0  0  0  0
    3.1758   -2.5889   -2.1835 H   0  0  0  0  0  0  0  0  0  0  0  0
    1.8591   -1.8481   -3.1198 H   0  0  0  0  0  0  0  0  0  0  0  0
  1  2  1  0  0  0  0
  2  3  1  0  0  0  0
  2  4  1  0  0  0  0
  2  5  1  0  0  0  0
  5  6  2  0  0  0  0
  5  7  1  0  0  0  0
  7  8  1  0  0  0  0
  7  9  1  0  0  0  0
  9 10  1  0  0  0  0
  9 11  1  0  0  0  0
  9 16  1  0  0  0  0
 11 12  1  0  0  0  0
 11 13  1  0  0  0  0
 11 14  1  0  0  0  0
 14 15  1  0  0  0  0
 16 17  2  0  0  0  0
 16 18  1  0  0  0  0
 18 19  1  0  0  0  0
 18 20  1  0  0  0  0
 20 21  1  0  0  0  0
 20 22  1  0  0  0  0
 20 23  1  0  0  0  0
M  END
$$$$

  -OEChem-01062216073D

 23 22  0     1  0  0  0  0  0999 V2000
   -2.8062   -3.4782    1.1961 H   0  0  0  0  0  0  0  0  0  0  0  0
   -2.7724   -2.4236    0.9087 C   0  0  0  0  0  0  0  0  0  0  0  0
   -3.1816   -1.8239    1.7255 H   0  0  0  0  0  0  0  0  0  0  0  0
   -3.3866   -2.2813    0.0163 H   0  0  0  0  0  0  0  0  0  0  0  0
   -1.3425   -2.0046    0.6266 C   0  0  0  0  0  0  0  0  0  0  0  0
   -0.4511   -2.8416    0.6149 O   0  0  0  0  0  0  0  0  0  0  0  0
   -1.0694   -0.7020    0.2593 N   0  0  0  0  0  0  0  0  0  0  0  0
   -1.8696   -0.0760    0.2774 H   0  0  0  0  0  0  0  0  0  0  0  0
    0.2592   -0.0618    0.3570 C   0  0  1  0  0  0  0  0  0  0  0  0
    0.0828    1.0174    0.4129 H   0  0  0  0  0  0  0  0  0  0  0  0
    1.0730   -0.4123    1.6176 C   0  0  0  0  0  0  0  0  0  0  0  0
    1.2414   -1.4881    1.7108 H   0  0  0  0  0  0  0  0  0  0  0  0
    2.0581    0.0611    1.5477 H   0  0  0  0  0  0  0  0  0  0  0  0
    0.2095    0.2327    3.1099 S   0  0  0  0  0  0  0  0  0  0  0  0
    1.0602   -0.1569    4.0848 H   0  0  0  0  0  0  0  0  0  0  0  0
    1.0638   -0.2737   -0.9367 C   0  0  0  0  0  0  0  0  0  0  0  0
    1.2648    0.6580   -1.7044 O   0  0  0  0  0  0  0  0  0  0  0  0
    1.6170   -1.5140   -1.1876 N   0  0  0  0  0  0  0  0  0  0  0  0
    1.2395   -2.2781   -0.6224 H   0  0  0  0  0  0  0  0  0  0  0  0
    2.3136   -1.8365   -2.4254 C   0  0  0  0  0  0  0  0  0  0  0  0
    3.1586   -1.1568   -2.5787 H   0  0  0  0  0  0  0  0  0  0  0  0
    2.6988   -2.8600   -2.3849 H   0  0  0  0  0  0  0  0  0  0  0  0
    1.6345   -1.7529   -3.2803 H   0  0  0  0  0  0  0  0  0  0  0  0
  1  2  1  0  0  0  0
  2  3  1  0  0  0  0
  2  4  1  0  0  0  0
  2  5  1  0  0  0  0
  5  6  2  0  0  0  0
  5  7  1  0  0  0  0
  7  8  1  0  0  0  0
  7  9  1  0  0  0  0
  9 10  1  0  0  0  0
  9 11  1  0  0  0  0
  9 16  1  0  0  0  0
 11 12  1  0  0  0  0
 11 13  1  0  0  0  0
 11 14  1  0  0  0  0
 14 15  1  0  0  0  0
 16 17  2  0  0  0  0
 16 18  1  0  0  0  0
 18 19  1  0  0  0  0
 18 20  1  0  0  0  0
 20 21  1  0  0  0  0
 20 22  1  0  0  0  0
 20 23  1  0  0  0  0
M  END
$$$$

  -OEChem-01062216073D

 23 22  0     1  0  0  0  0  0999 V2000
   -2.8431   -3.4587    1.2516 H   0  0  0  0  0  0  0  0  0  0  0  0
   -2.8031   -2.4044    0.9639 C   0  0  0  0  0  0  0  0  0  0  0  0
   -3.1801   -1.8006    1.7929 H   0  0  0  0  0  0  0  0  0  0  0  0
   -3.4416   -2.2528    0.0902 H   0  0  0  0  0  0  0  0  0  0  0  0
   -1.3766   -2.0053    0.6395 C   0  0  0  0  0  0  0  0  0  0  0  0
   -0.5007   -2.8566    0.5953 O   0  0  0  0  0  0  0  0  0  0  0  0
   -1.0971   -0.7082    0.2575 N   0  0  0  0  0  0  0  0  0  0  0  0
   -1.8919   -0.0767    0.3036 H   0  0  0  0  0  0  0  0  0  0  0  0
    0.2352   -0.0683    0.3349 C   0  0  1  0  0  0  0  0  0  0  0  0
    0.0625    1.0114    0.3924 H   0  0  0  0  0  0  0  0  0  0  0  0
    1.0614   -0.4294    1.5825 C   0  0  0  0  0  0  0  0  0  0  0  0
    1.2259   -1.5069    1.6637 H   0  0  0  0  0  0  0  0  0  0  0  0
    2.0476    0.0407    1.5046 H   0  0  0  0  0  0  0  0  0  0  0  0
    0.2195    0.2088    3.0898 S   0  0  0  0  0  0  0  0  0  0  0  0
    1.0777   -0.2016    4.0496 H   0  0  0  0  0  0  0  0  0  0  0  0
    1.0417   -0.2850   -0.9574 C   0  0  0  0  0  0  0  0  0  0  0  0
    1.4686    0.6706   -1.5915 O   0  0  0  0  0  0  0  0  0  0  0  0
    1.3353   -1.5719   -1.3624 N   0  0  0  0  0  0  0  0  0  0  0  0
    0.8813   -2.3223   -0.8348 H   0  0  0  0  0  0  0  0  0  0  0  0
    2.0617   -1.8921   -2.5830 C   0  0  0  0  0  0  0  0  0  0  0  0
    3.0432   -1.4061   -2.5840 H   0  0  0  0  0  0  0  0  0  0  0  0
    2.2129   -2.9732   -2.6580 H   0  0  0  0  0  0  0  0  0  0  0  0
    1.5008   -1.5574   -3.4618 H   0  0  0  0  0  0  0  0  0  0  0  0
  1  2  1  0  0  0  0
  2  3  1  0  0  0  0
  2  4  1  0  0  0  0
  2  5  1  0  0  0  0
  5  6  2  0  0  0  0
  5  7  1  0  0  0  0
  7  8  1  0  0  0  0
  7  9  1  0  0  0  0
  9 10  1  0  0  0  0
  9 11  1  0  0  0  0
  9 16  1  0  0  0  0
 11 12  1  0  0  0  0
 11 13  1  0  0  0  0
 11 14  1  0  0  0  0
 14 15  1  0  0  0  0
 16 17  2  0  0  0  0
 16 18  1  0  0  0  0
 18 19  1  0  0  0  0
 18 20  1  0  0  0  0
 20 21  1  0  0  0  0
 20 22  1  0  0  0  0
 20 23  1  0  0  0  0
M  END
$$$$

  -OEChem-01062216073D

 23 22  0     1  0  0  0  0  0999 V2000
   -2.8726   -3.4504    1.3133 H   0  0  0  0  0  0  0  0  0  0  0  0
   -2.8313   -2.3920    1.0412 C   0  0  0  0  0  0  0  0  0  0  0  0
   -3.1536   -1.7969    1.8993 H   0  0  0  0  0  0  0  0  0  0  0  0
   -3.5133   -2.2159    0.2059 H   0  0  0  0  0  0  0  0  0  0  0  0
   -1.4177   -2.0080    0.6481 C   0  0  0  0  0  0  0  0  0  0  0  0
   -0.5555   -2.8682    0.5499 O   0  0  0  0  0  0  0  0  0  0  0  0
   -1.1422   -0.7124    0.2590 N   0  0  0  0  0  0  0  0  0  0  0  0
   -1.9310   -0.0777    0.3459 H   0  0  0  0  0  0  0  0  0  0  0  0
    0.1941   -0.0747    0.3061 C   0  0  1  0  0  0  0  0  0  0  0  0
    0.0249    1.0051    0.3714 H   0  0  0  0  0  0  0  0  0  0  0  0
    1.0424   -0.4479    1.5343 C   0  0  0  0  0  0  0  0  0  0  0  0
    1.2025   -1.5271    1.6028 H   0  0  0  0  0  0  0  0  0  0  0  0
    2.0294    0.0179    1.4404 H   0  0  0  0  0  0  0  0  0  0  0  0
    0.2344    0.1840    3.0628 S   0  0  0  0  0  0  0  0  0  0  0  0
    1.1227   -0.2170    3.9991 H   0  0  0  0  0  0  0  0  0  0  0  0
    0.9885   -0.2833   -0.9965 C   0  0  0  0  0  0  0  0  0  0  0  0
    1.6366    0.6369   -1.4765 O   0  0  0  0  0  0  0  0  0  0  0  0
    1.0256   -1.5317   -1.5853 N   0  0  0  0  0  0  0  0  0  0  0  0
    0.5421   -2.2797   -1.0819 H   0  0  0  0  0  0  0  0  0  0  0  0
    1.8348   -1.8565   -2.7514 C   0  0  0  0  0  0  0  0  0  0  0  0
    2.8966   -1.6951   -2.5380 H   0  0  0  0  0  0  0  0  0  0  0  0
    1.6927   -2.9053   -3.0295 H   0  0  0  0  0  0  0  0  0  0  0  0
    1.5471   -1.2310   -3.6028 H   0  0  0  0  0  0  0  0  0  0  0  0
  1  2  1  0  0  0  0
  2  3  1  0  0  0  0
  2  4  1  0  0  0  0
  2  5  1  0  0  0  0
  5  6  2  0  0  0  0
  5  7  1  0  0  0  0
  7  8  1  0  0  0  0
  7  9  1  0  0  0  0
  9 10  1  0  0  0  0
  9 11  1  0  0  0  0
  9 16  1  0  0  0  0
 11 12  1  0  0  0  0
 11 13  1  0  0  0  0
 11 14  1  0  0  0  0
 14 15  1  0  0  0  0
 16 17  2  0  0  0  0
 16 18  1  0  0  0  0
 18 19  1  0  0  0  0
 18 20  1  0  0  0  0
 20 21  1  0  0  0  0
 20 22  1  0  0  0  0
 20 23  1  0  0  0  0
M  END
$$$$

  -OEChem-01062216073D

 23 22  0     1  0  0  0  0  0999 V2000
   -2.8606   -3.4497    1.3611 H   0  0  0  0  0  0  0  0  0  0  0  0
   -2.8278   -2.3878    1.1013 C   0  0  0  0  0  0  0  0  0  0  0  0
   -3.1013   -1.8026    1.9828 H   0  0  0  0  0  0  0  0  0  0  0  0
   -3.5510   -2.1966    0.3047 H   0  0  0  0  0  0  0  0  0  0  0  0
   -1.4344   -2.0057    0.6411 C   0  0  0  0  0  0  0  0  0  0  0  0
   -0.5858   -2.8681    0.4757 O   0  0  0  0  0  0  0  0  0  0  0  0
   -1.1689   -0.7086    0.2521 N   0  0  0  0  0  0  0  0  0  0  0  0
   -1.9509   -0.0741    0.3889 H   0  0  0  0  0  0  0  0  0  0  0  0
    0.1693   -0.0720    0.2878 C   0  0  1  0  0  0  0  0  0  0  0  0
    0.0032    1.0077    0.3593 H   0  0  0  0  0  0  0  0  0  0  0  0
    1.0204   -0.4592    1.5102 C   0  0  0  0  0  0  0  0  0  0  0  0
    1.1746   -1.5402    1.5690 H   0  0  0  0  0  0  0  0  0  0  0  0
    2.0100    0.0013    1.4168 H   0  0  0  0  0  0  0  0  0  0  0  0
    0.2200    0.1663    3.0457 S   0  0  0  0  0  0  0  0  0  0  0  0
    1.1185   -0.2279    3.9749 H   0  0  0  0  0  0  0  0  0  0  0  0
    0.9625   -0.2697   -1.0187 C   0  0  0  0  0  0  0  0  0  0  0  0
    1.7931    0.5615   -1.3607 O   0  0  0  0  0  0  0  0  0  0  0  0
    0.7657   -1.4018   -1.7848 N   0  0  0  0  0  0  0  0  0  0  0  0
    0.2159   -2.1376   -1.3361 H   0  0  0  0  0  0  0  0  0  0  0  0
    1.5919   -1.7418   -2.9351 C   0  0  0  0  0  0  0  0  0  0  0  0
    2.6279   -1.9139   -2.6252 H   0  0  0  0  0  0  0  0  0  0  0  0
    1.2156   -2.6512   -3.4130 H   0  0  0  0  0  0  0  0  0  0  0  0
    1.5741   -0.9329   -3.6732 H   0  0  0  0  0  0  0  0  0  0  0  0
  1  2  1  0  0  0  0
  2  3  1  0  0  0  0
  2  4  1  0  0  0  0
  2  5  1  0  0  0  0
  5  6  2  0  0  0  0
  5  7  1  0  0  0  0
  7  8  1  0  0  0  0
  7  9  1  0  0  0  0
  9 10  1  0  0  0  0
  9 11  1  0  0  0  0
  9 16  1  0  0  0  0
 11 12  1  0  0  0  0
 11 13  1  0  0  0  0
 11 14  1  0  0  0  0
 14 15  1  0  0  0  0
 16 17  2  0  0  0  0
 16 18  1  0  0  0  0
 18 19  1  0  0  0  0
 18 20  1  0  0  0  0
 20 21  1  0  0  0  0
 20 22  1  0  0  0  0
 20 23  1  0  0  0  0
M  END
$$$$

  -OEChem-01062216073D

 23 22  0     1  0  0  0  0  0999 V2000
   -2.8453   -3.4543    1.3813 H   0  0  0  0  0  0  0  0  0  0  0  0
   -2.8183   -2.3900    1.1308 C   0  0  0  0  0  0  0  0  0  0  0  0
   -3.0698   -1.8135    2.0246 H   0  0  0  0  0  0  0  0  0  0  0  0
   -3.5611   -2.1911    0.3545 H   0  0  0  0  0  0  0  0  0  0  0  0
   -1.4362   -2.0048    0.6397 C   0  0  0  0  0  0  0  0  0  0  0  0
   -0.5958   -2.8663    0.4386 O   0  0  0  0  0  0  0  0  0  0  0  0
   -1.1764   -0.7061    0.2524 N   0  0  0  0  0  0  0  0  0  0  0  0
   -1.9529   -0.0719    0.4185 H   0  0  0  0  0  0  0  0  0  0  0  0
    0.1639   -0.0716    0.2855 C   0  0  1  0  0  0  0  0  0  0  0  0
    0.0001    1.0082    0.3589 H   0  0  0  0  0  0  0  0  0  0  0  0
    1.0092   -0.4645    1.5110 C   0  0  0  0  0  0  0  0  0  0  0  0
    1.1581   -1.5463    1.5683 H   0  0  0  0  0  0  0  0  0  0  0  0
    2.0018   -0.0090    1.4241 H   0  0  0  0  0  0  0  0  0  0  0  0
    0.2056    0.1638    3.0440 S   0  0  0  0  0  0  0  0  0  0  0  0
    1.1025   -0.2323    3.9741 H   0  0  0  0  0  0  0  0  0  0  0  0
    0.9592   -0.2628   -1.0226 C   0  0  0  0  0  0  0  0  0  0  0  0
    1.9390    0.4359   -1.2471 O   0  0  0  0  0  0  0  0  0  0  0  0
    0.5654   -1.2085   -1.9494 N   0  0  0  0  0  0  0  0  0  0  0  0
   -0.0952   -1.8999   -1.5945 H   0  0  0  0  0  0  0  0  0  0  0  0
    1.3590   -1.5426   -3.1244 C   0  0  0  0  0  0  0  0  0  0  0  0
    2.3222   -1.9698   -2.8263 H   0  0  0  0  0  0  0  0  0  0  0  0
    0.8292   -2.2740   -3.7421 H   0  0  0  0  0  0  0  0  0  0  0  0
    1.5420   -0.6496   -3.7313 H   0  0  0  0  0  0  0  0  0  0  0  0
  1  2  1  0  0  0  0
  2  3  1  0  0  0  0
  2  4  1  0  0  0  0
  2  5  1  0  0  0  0
  5  6  2  0  0  0  0
  5  7  1  0  0  0  0
  7  8  1  0  0  0  0
  7  9  1  0  0  0  0
  9 10  1  0  0  0  0
  9 11  1  0  0  0  0
  9 16  1  0  0  0  0
 11 12  1  0  0  0  0
 11 13  1  0  0  0  0
 11 14  1  0  0  0  0
 14 15  1  0  0  0  0
 16 17  2  0  0  0  0
 16 18  1  0  0  0  0
 18 19  1  0  0  0  0
 18 20  1  0  0  0  0
 20 21  1  0  0  0  0
 20 22  1  0  0  0  0
 20 23  1  0  0  0  0
M  END
$$$$

  -OEChem-01062216073D

 23 22  0     1  0  0  0  0  0999 V2000
   -2.8315   -3.4651    1.3772 H   0  0  0  0  0  0  0  0  0  0  0  0
   -2.8054   -2.3998    1.1311 C   0  0  0  0  0  0  0  0  0  0  0  0
   -3.0559   -1.8270    2.0273 H   0  0  0  0  0  0  0  0  0  0  0  0
   -3.5495   -2.1985    0.3569 H   0  0  0  0  0  0  0  0  0  0  0  0
   -1.4241   -2.0120    0.6404 C   0  0  0  0  0  0  0  0  0  0  0  0
   -0.5799   -2.8715    0.4528 O   0  0  0  0  0  0  0  0  0  0  0  0
   -1.1694   -0.7101    0.2589 N   0  0  0  0  0  0  0  0  0  0  0  0
   -1.9449   -0.0788    0.4407 H   0  0  0  0  0  0  0  0  0  0  0  0
    0.1712   -0.0746    0.2906 C   0  0  1  0  0  0  0  0  0  0  0  0
    0.0063    1.0047    0.3647 H   0  0  0  0  0  0  0  0  0  0  0  0
    1.0107   -0.4655    1.5228 C   0  0  0  0  0  0  0  0  0  0  0  0
    1.1590   -1.5470    1.5839 H   0  0  0  0  0  0  0  0  0  0  0  0
    2.0045   -0.0118    1.4436 H   0  0  0  0  0  0  0  0  0  0  0  0
    0.1991    0.1700    3.0488 S   0  0  0  0  0  0  0  0  0  0  0  0
    1.0844   -0.2349    3.9864 H   0  0  0  0  0  0  0  0  0  0  0  0
    0.9633   -0.2569   -1.0228 C   0  0  0  0  0  0  0  0  0  0  0  0
    2.0614    0.2685   -1.1545 O   0  0  0  0  0  0  0  0  0  0  0  0
    0.4153   -0.9570   -2.0806 N   0  0  0  0  0  0  0  0  0  0  0  0
   -0.3839   -1.5379   -1.8369 H   0  0  0  0  0  0  0  0  0  0  0  0
    1.1631   -1.2734   -3.2907 C   0  0  0  0  0  0  0  0  0  0  0  0
    2.0149   -1.9200   -3.0552 H   0  0  0  0  0  0  0  0  0  0  0  0
    0.5194   -1.7926   -4.0072 H   0  0  0  0  0  0  0  0  0  0  0  0
    1.5352   -0.3581   -3.7635 H   0  0  0  0  0  0  0  0  0  0  0  0
  1  2  1  0  0  0  0
  2  3  1  0  0  0  0
  2  4  1  0  0  0  0
  2  5  1  0  0  0  0
  5  6  2  0  0  0  0
  5  7  1  0  0  0  0
  7  8  1  0  0  0  0
  7  9  1  0  0  0  0
  9 10  1  0  0  0  0
  9 11  1  0  0  0  0
  9 16  1  0  0  0  0
 11 12  1  0  0  0  0
 11 13  1  0  0  0  0
 11 14  1  0  0  0  0
 14 15  1  0  0  0  0
 16 17  2  0  0  0  0
 16 18  1  0  0  0  0
 18 19  1  0  0  0  0
 18 20  1  0  0  0  0
 20 21  1  0  0  0  0
 20 22  1  0  0  0  0
 20 23  1  0  0  0  0
M  END
$$$$

  -OEChem-01062216073D

 23 22  0     1  0  0  0  0  0999 V2000
   -2.8115   -3.4708    1.3824 H   0  0  0  0  0  0  0  0  0  0  0  0
   -2.7917   -2.4112    1.1117 C   0  0  0  0  0  0  0  0  0  0  0  0
   -3.0619   -1.8204    1.9904 H   0  0  0  0  0  0  0  0  0  0  0  0
   -3.5252   -2.2355    0.3213 H   0  0  0  0  0  0  0  0  0  0  0  0
   -1.4065   -2.0210    0.6332 C   0  0  0  0  0  0  0  0  0  0  0  0
   -0.5565   -2.8790    0.4689 O   0  0  0  0  0  0  0  0  0  0  0  0
   -1.1538   -0.7155    0.2597 N   0  0  0  0  0  0  0  0  0  0  0  0
   -1.9300   -0.0876    0.4500 H   0  0  0  0  0  0  0  0  0  0  0  0
    0.1859   -0.0783    0.2976 C   0  0  1  0  0  0  0  0  0  0  0  0
    0.0200    1.0007    0.3713 H   0  0  0  0  0  0  0  0  0  0  0  0
    1.0170   -0.4674    1.5376 C   0  0  0  0  0  0  0  0  0  0  0  0
    1.1663   -1.5485    1.6011 H   0  0  0  0  0  0  0  0  0  0  0  0
    2.0112   -0.0131    1.4679 H   0  0  0  0  0  0  0  0  0  0  0  0
    0.1933    0.1708    3.0559 S   0  0  0  0  0  0  0  0  0  0  0  0
    1.0721   -0.2354    3.9991 H   0  0  0  0  0  0  0  0  0  0  0  0
    0.9743   -0.2558   -1.0198 C   0  0  0  0  0  0  0  0  0  0  0  0
    2.1542    0.0653   -1.0874 O   0  0  0  0  0  0  0  0  0  0  0  0
    0.3235   -0.6691   -2.1669 N   0  0  0  0  0  0  0  0  0  0  0  0
   -0.5909   -1.0859   -2.0158 H   0  0  0  0  0  0  0  0  0  0  0  0
    1.0230   -0.9526   -3.4136 C   0  0  0  0  0  0  0  0  0  0  0  0
    1.7322   -1.7754   -3.2749 H   0  0  0  0  0  0  0  0  0  0  0  0
    0.3080   -1.2365   -4.1917 H   0  0  0  0  0  0  0  0  0  0  0  0
    1.5711   -0.0687   -3.7567 H   0  0  0  0  0  0  0  0  0  0  0  0
  1  2  1  0  0  0  0
  2  3  1  0  0  0  0
  2  4  1  0  0  0  0
  2  5  1  0  0  0  0
  5  6  2  0  0  0  0
  5  7  1  0  0  0  0
  7  8  1  0  0  0  0
  7  9  1  0  0  0  0
  9 10  1  0  0  0  0
  9 11  1  0  0  0  0
  9 16  1  0  0  0  0
 11 12  1  0  0  0  0
 11 13  1  0  0  0  0
 11 14  1  0  0  0  0
 14 15  1  0  0  0  0
 16 17  2  0  0  0  0
 16 18  1  0  0  0  0
 18 19  1  0  0  0  0
 18 20  1  0  0  0  0
 20 21  1  0  0  0  0
 20 22  1  0  0  0  0
 20 23  1  0  0  0  0
M  END
$$$$

  -OEChem-01062216073D

 23 22  0     1  0  0  0  0  0999 V2000
   -2.8105   -3.4867    1.3261 H   0  0  0  0  0  0  0  0  0  0  0  0
   -2.7832   -2.4231    1.0726 C   0  0  0  0  0  0  0  0  0  0  0  0
   -3.0743   -1.8454    1.9534 H   0  0  0  0  0  0  0  0  0  0  0  0
   -3.4963   -2.2348    0.2666 H   0  0  0  0  0  0  0  0  0  0  0  0
   -1.3862   -2.0277    0.6335 C   0  0  0  0  0  0  0  0  0  0  0  0
   -0.5270   -2.8830    0.5097 O   0  0  0  0  0  0  0  0  0  0  0  0
   -1.1329   -0.7208    0.2632 N   0  0  0  0  0  0  0  0  0  0  0  0
   -1.9131   -0.0966    0.4475 H   0  0  0  0  0  0  0  0  0  0  0  0
    0.2043   -0.0799    0.3050 C   0  0  1  0  0  0  0  0  0  0  0  0
    0.0358    0.9988    0.3753 H   0  0  0  0  0  0  0  0  0  0  0  0
    1.0313   -0.4581    1.5519 C   0  0  0  0  0  0  0  0  0  0  0  0
    1.1861   -1.5380    1.6226 H   0  0  0  0  0  0  0  0  0  0  0  0
    2.0237    0.0005    1.4853 H   0  0  0  0  0  0  0  0  0  0  0  0
    0.1970    0.1874    3.0617 S   0  0  0  0  0  0  0  0  0  0  0  0
    1.0559   -0.2366    4.0155 H   0  0  0  0  0  0  0  0  0  0  0  0
    0.9851   -0.2606   -1.0174 C   0  0  0  0  0  0  0  0  0  0  0  0
    2.2062   -0.1730   -1.0480 O   0  0  0  0  0  0  0  0  0  0  0  0
    0.2942   -0.3693   -2.2102 N   0  0  0  0  0  0  0  0  0  0  0  0
   -0.6937   -0.5875   -2.1232 H   0  0  0  0  0  0  0  0  0  0  0  0
    0.9544   -0.6108   -3.4874 C   0  0  0  0  0  0  0  0  0  0  0  0
    1.4909   -1.5652   -3.4660 H   0  0  0  0  0  0  0  0  0  0  0  0
    0.2166   -0.6444   -4.2947 H   0  0  0  0  0  0  0  0  0  0  0  0
    1.6685    0.1897   -3.7079 H   0  0  0  0  0  0  0  0  0  0  0  0
  1  2  1  0  0  0  0
  2  3  1  0  0  0  0
  2  4  1  0  0  0  0
  2  5  1  0  0  0  0
  5  6  2  0  0  0  0
  5  7  1  0  0  0  0
  7  8  1  0  0  0  0
  7  9  1  0  0  0  0
  9 10  1  0  0  0  0
  9 11  1  0  0  0  0
  9 16  1  0  0  0  0
 11 12  1  0  0  0  0
 11 13  1  0  0  0  0
 11 14  1  0  0  0  0
 14 15  1  0  0  0  0
 16 17  2  0  0  0  0
 16 18  1  0  0  0  0
 18 19  1  0  0  0  0
 18 20  1  0  0  0  0
 20 21  1  0  0  0  0
 20 22  1  0  0  0  0
 20 23  1  0  0  0  0
M  END
$$$$

  -OEChem-01062216073D

 23 22  0     1  0  0  0  0  0999 V2000
   -2.8106   -3.4889    1.3257 H   0  0  0  0  0  0  0  0  0  0  0  0
   -2.7824   -2.4301    1.0527 C   0  0  0  0  0  0  0  0  0  0  0  0
   -3.0909   -1.8373    1.9173 H   0  0  0  0  0  0  0  0  0  0  0  0
   -3.4826   -2.2591    0.2316 H   0  0  0  0  0  0  0  0  0  0  0  0
   -1.3793   -2.0376    0.6308 C   0  0  0  0  0  0  0  0  0  0  0  0
   -0.5183   -2.8944    0.5355 O   0  0  0  0  0  0  0  0  0  0  0  0
   -1.1224   -0.7310    0.2607 N   0  0  0  0  0  0  0  0  0  0  0  0
   -1.9051   -0.1072    0.4350 H   0  0  0  0  0  0  0  0  0  0  0  0
    0.2138   -0.0904    0.3043 C   0  0  1  0  0  0  0  0  0  0  0  0
    0.0446    0.9881    0.3729 H   0  0  0  0  0  0  0  0  0  0  0  0
    1.0379   -0.4603    1.5553 C   0  0  0  0  0  0  0  0  0  0  0  0
    1.1928   -1.5397    1.6331 H   0  0  0  0  0  0  0  0  0  0  0  0
    2.0303   -0.0020    1.4870 H   0  0  0  0  0  0  0  0  0  0  0  0
    0.1984    0.1946    3.0581 S   0  0  0  0  0  0  0  0  0  0  0  0
    1.0613   -0.2126    4.0155 H   0  0  0  0  0  0  0  0  0  0  0  0
    0.9916   -0.2753   -1.0190 C   0  0  0  0  0  0  0  0  0  0  0  0
    2.2066   -0.4286   -1.0304 O   0  0  0  0  0  0  0  0  0  0  0  0
    0.3377   -0.0743   -2.2210 N   0  0  0  0  0  0  0  0  0  0  0  0
   -0.6764   -0.0775   -2.1805 H   0  0  0  0  0  0  0  0  0  0  0  0
    0.9876   -0.2511   -3.5140 C   0  0  0  0  0  0  0  0  0  0  0  0
    1.3401   -1.2819   -3.6271 H   0  0  0  0  0  0  0  0  0  0  0  0
    0.2847   -0.0335   -4.3236 H   0  0  0  0  0  0  0  0  0  0  0  0
    1.8427    0.4264   -3.6103 H   0  0  0  0  0  0  0  0  0  0  0  0
  1  2  1  0  0  0  0
  2  3  1  0  0  0  0
  2  4  1  0  0  0  0
  2  5  1  0  0  0  0
  5  6  2  0  0  0  0
  5  7  1  0  0  0  0
  7  8  1  0  0  0  0
  7  9  1  0  0  0  0
  9 10  1  0  0  0  0
  9 11  1  0  0  0  0
  9 16  1  0  0  0  0
 11 12  1  0  0  0  0
 11 13  1  0  0  0  0
 11 14  1  0  0  0  0
 14 15  1  0  0  0  0
 16 17  2  0  0  0  0
 16 18  1  0  0  0  0
 18 19  1  0  0  0  0
 18 20  1  0  0  0  0
 20 21  1  0  0  0  0
 20 22  1  0  0  0  0
 20 23  1  0  0  0  0
M  END
$$$$

  -OEChem-01062216073D

 23 22  0     1  0  0  0  0  0999 V2000
   -2.8221   -3.4859    1.3254 H   0  0  0  0  0  0  0  0  0  0  0  0
   -2.7896   -2.4339    1.0281 C   0  0  0  0  0  0  0  0  0  0  0  0
   -3.1285   -1.8221    1.8676 H   0  0  0  0  0  0  0  0  0  0  0  0
   -3.4629   -2.2865    0.1804 H   0  0  0  0  0  0  0  0  0  0  0  0
   -1.3752   -2.0445    0.6424 C   0  0  0  0  0  0  0  0  0  0  0  0
   -0.5110   -2.9015    0.5925 O   0  0  0  0  0  0  0  0  0  0  0  0
   -1.1139   -0.7400    0.2666 N   0  0  0  0  0  0  0  0  0  0  0  0
   -1.9046   -0.1186    0.4077 H   0  0  0  0  0  0  0  0  0  0  0  0
    0.2184   -0.0919    0.3034 C   0  0  1  0  0  0  0  0  0  0  0  0
    0.0455    0.9861    0.3715 H   0  0  0  0  0  0  0  0  0  0  0  0
    1.0513   -0.4528    1.5505 C   0  0  0  0  0  0  0  0  0  0  0  0
    1.2135   -1.5311    1.6300 H   0  0  0  0  0  0  0  0  0  0  0  0
    2.0407    0.0101    1.4721 H   0  0  0  0  0  0  0  0  0  0  0  0
    0.2182    0.1998    3.0577 S   0  0  0  0  0  0  0  0  0  0  0  0
    1.0717   -0.2360    4.0109 H   0  0  0  0  0  0  0  0  0  0  0  0
    0.9916   -0.2815   -1.0216 C   0  0  0  0  0  0  0  0  0  0  0  0
    2.1515   -0.6741   -1.0389 O   0  0  0  0  0  0  0  0  0  0  0  0
    0.4419    0.2026   -2.1953 N   0  0  0  0  0  0  0  0  0  0  0  0
   -0.5455    0.4352   -2.1707 H   0  0  0  0  0  0  0  0  0  0  0  0
    1.1020    0.0798   -3.4898 C   0  0  0  0  0  0  0  0  0  0  0  0
    1.2658   -0.9743   -3.7376 H   0  0  0  0  0  0  0  0  0  0  0  0
    0.4851    0.5288   -4.2740 H   0  0  0  0  0  0  0  0  0  0  0  0
    2.0695    0.5930   -3.4774 H   0  0  0  0  0  0  0  0  0  0  0  0
  1  2  1  0  0  0  0
  2  3  1  0  0  0  0
  2  4  1  0  0  0  0
  2  5  1  0  0  0  0
  5  6  2  0  0  0  0
  5  7  1  0  0  0  0
  7  8  1  0  0  0  0
  7  9  1  0  0  0  0
  9 10  1  0  0  0  0
  9 11  1  0  0  0  0
  9 16  1  0  0  0  0
 11 12  1  0  0  0  0
 11 13  1  0  0  0  0
 11 14  1  0  0  0  0
 14 15  1  0  0  0  0
 16 17  2  0  0  0  0
 16 18  1  0  0  0  0
 18 19  1  0  0  0  0
 18 20  1  0  0  0  0
 20 21  1  0  0  0  0
 20 22  1  0  0  0  0
 20 23  1  0  0  0  0
M  END
$$$$

  -OEChem-01062216073D

 23 22  0     1  0  0  0  0  0999 V2000
   -2.8431   -3.4850    1.3259 H   0  0  0  0  0  0  0  0  0  0  0  0
   -2.8070   -2.4414    1.0002 C   0  0  0  0  0  0  0  0  0  0  0  0
   -3.1897   -1.8100    1.8057 H   0  0  0  0  0  0  0  0  0  0  0  0
   -3.4428   -2.3258    0.1193 H   0  0  0  0  0  0  0  0  0  0  0  0
   -1.3797   -2.0494    0.6670 C   0  0  0  0  0  0  0  0  0  0  0  0
   -0.5129   -2.9047    0.6741 O   0  0  0  0  0  0  0  0  0  0  0  0
   -1.1123   -0.7478    0.2833 N   0  0  0  0  0  0  0  0  0  0  0  0
   -1.9107   -0.1282    0.3771 H   0  0  0  0  0  0  0  0  0  0  0  0
    0.2171   -0.0937    0.3033 C   0  0  1  0  0  0  0  0  0  0  0  0
    0.0390    0.9832    0.3742 H   0  0  0  0  0  0  0  0  0  0  0  0
    1.0708   -0.4442    1.5387 C   0  0  0  0  0  0  0  0  0  0  0  0
    1.2390   -1.5215    1.6196 H   0  0  0  0  0  0  0  0  0  0  0  0
    2.0570    0.0217    1.4401 H   0  0  0  0  0  0  0  0  0  0  0  0
    0.2583    0.2082    3.0573 S   0  0  0  0  0  0  0  0  0  0  0  0
    1.1098   -0.2492    4.0020 H   0  0  0  0  0  0  0  0  0  0  0  0
    0.9827   -0.2852   -1.0261 C   0  0  0  0  0  0  0  0  0  0  0  0
    2.0352   -0.9085   -1.0785 O   0  0  0  0  0  0  0  0  0  0  0  0
    0.5986    0.4449   -2.1375 N   0  0  0  0  0  0  0  0  0  0  0  0
   -0.2979    0.9180   -2.0933 H   0  0  0  0  0  0  0  0  0  0  0  0
    1.2916    0.3684   -3.4186 C   0  0  0  0  0  0  0  0  0  0  0  0
    1.2678   -0.6557   -3.8062 H   0  0  0  0  0  0  0  0  0  0  0  0
    0.8117    1.0268   -4.1489 H   0  0  0  0  0  0  0  0  0  0  0  0
    2.3361    0.6792   -3.3093 H   0  0  0  0  0  0  0  0  0  0  0  0
  1  2  1  0  0  0  0
  2  3  1  0  0  0  0
  2  4  1  0  0  0  0
  2  5  1  0  0  0  0
  5  6  2  0  0  0  0
  5  7  1  0  0  0  0
  7  8  1  0  0  0  0
  7  9  1  0  0  0  0
  9 10  1  0  0  0  0
  9 11  1  0  0  0  0
  9 16  1  0  0  0  0
 11 12  1  0  0  0  0
 11 13  1  0  0  0  0
 11 14  1  0  0  0  0
 14 15  1  0  0  0  0
 16 17  2  0  0  0  0
 16 18  1  0  0  0  0
 18 19  1  0  0  0  0
 18 20  1  0  0  0  0
 20 21  1  0  0  0  0
 20 22  1  0  0  0  0
 20 23  1  0  0  0  0
M  END
$$$$

  -OEChem-01062216073D

 23 22  0     1  0  0  0  0  0999 V2000
   -2.8770   -3.4900    1.2843 H   0  0  0  0  0  0  0  0  0  0  0  0
   -2.8252   -2.4475    0.9574 C   0  0  0  0  0  0  0  0  0  0  0  0
   -3.2532   -1.8141    1.7380 H   0  0  0  0  0  0  0  0  0  0  0  0
   -3.4108   -2.3365    0.0418 H   0  0  0  0  0  0  0  0  0  0  0  0
   -1.3829   -2.0520    0.7020 C   0  0  0  0  0  0  0  0  0  0  0  0
   -0.5142   -2.8995    0.7990 O   0  0  0  0  0  0  0  0  0  0  0  0
   -1.1081   -0.7537    0.3099 N   0  0  0  0  0  0  0  0  0  0  0  0
   -1.9177   -0.1421    0.3204 H   0  0  0  0  0  0  0  0  0  0  0  0
    0.2160   -0.0881    0.3096 C   0  0  1  0  0  0  0  0  0  0  0  0
    0.0265    0.9863    0.3854 H   0  0  0  0  0  0  0  0  0  0  0  0
    1.0980   -0.4273    1.5267 C   0  0  0  0  0  0  0  0  0  0  0  0
    1.2783   -1.5027    1.6049 H   0  0  0  0  0  0  0  0  0  0  0  0
    2.0776    0.0464    1.4057 H   0  0  0  0  0  0  0  0  0  0  0  0
    0.3117    0.2169    3.0623 S   0  0  0  0  0  0  0  0  0  0  0  0
    1.1592   -0.2769    3.9922 H   0  0  0  0  0  0  0  0  0  0  0  0
    0.9738   -0.2780   -1.0243 C   0  0  0  0  0  0  0  0  0  0  0  0
    1.8596   -1.1130   -1.1473 O   0  0  0  0  0  0  0  0  0  0  0  0
    0.7991    0.6437   -2.0425 N   0  0  0  0  0  0  0  0  0  0  0  0
    0.0602    1.3304   -1.9328 H   0  0  0  0  0  0  0  0  0  0  0  0
    1.5259    0.5852   -3.3057 C   0  0  0  0  0  0  0  0  0  0  0  0
    1.3196   -0.3580   -3.8228 H   0  0  0  0  0  0  0  0  0  0  0  0
    1.2215    1.4106   -3.9562 H   0  0  0  0  0  0  0  0  0  0  0  0
    2.6044    0.6630   -3.1320 H   0  0  0  0  0  0  0  0  0  0  0  0
  1  2  1  0  0  0  0
  2  3  1  0  0  0  0
  2  4  1  0  0  0  0
  2  5  1  0  0  0  0
  5  6  2  0  0  0  0
  5  7  1  0  0  0  0
  7  8  1  0  0  0  0
  7  9  1  0  0  0  0
  9 10  1  0  0  0  0
  9 11  1  0  0  0  0
  9 16  1  0  0  0  0
 11 12  1  0  0  0  0
 11 13  1  0  0  0  0
 11 14  1  0  0  0  0
 14 15  1  0  0  0  0
 16 17  2  0  0  0  0
 16 18  1  0  0  0  0
 18 19  1  0  0  0  0
 18 20  1  0  0  0  0
 20 21  1  0  0  0  0
 20 22  1  0  0  0  0
 20 23  1  0  0  0  0
M  END
$$$$

  -OEChem-01062216073D

 23 22  0     1  0  0  0  0  0999 V2000
   -2.9137   -3.4906    1.2165 H   0  0  0  0  0  0  0  0  0  0  0  0
   -2.8413   -2.4571    0.8658 C   0  0  0  0  0  0  0  0  0  0  0  0
   -3.3696   -1.8104    1.5703 H   0  0  0  0  0  0  0  0  0  0  0  0
   -3.3162   -2.3851   -0.1154 H   0  0  0  0  0  0  0  0  0  0  0  0
   -1.3860   -2.0391    0.7687 C   0  0  0  0  0  0  0  0  0  0  0  0
   -0.5251   -2.8626    1.0202 O   0  0  0  0  0  0  0  0  0  0  0  0
   -1.0971   -0.7454    0.3686 N   0  0  0  0  0  0  0  0  0  0  0  0
   -1.9119   -0.1595    0.2207 H   0  0  0  0  0  0  0  0  0  0  0  0
    0.2243   -0.0746    0.3400 C   0  0  1  0  0  0  0  0  0  0  0  0
    0.0257    0.9974    0.4221 H   0  0  0  0  0  0  0  0  0  0  0  0
    1.1470   -0.4039    1.5276 C   0  0  0  0  0  0  0  0  0  0  0  0
    1.3397   -1.4774    1.5995 H   0  0  0  0  0  0  0  0  0  0  0  0
    2.1182    0.0777    1.3758 H   0  0  0  0  0  0  0  0  0  0  0  0
    0.4053    0.2343    3.0873 S   0  0  0  0  0  0  0  0  0  0  0  0
    1.2493   -0.3054    3.9944 H   0  0  0  0  0  0  0  0  0  0  0  0
    0.9627   -0.2647   -1.0038 C   0  0  0  0  0  0  0  0  0  0  0  0
    1.5887   -1.2843   -1.2551 O   0  0  0  0  0  0  0  0  0  0  0  0
    1.0290    0.7854   -1.9039 N   0  0  0  0  0  0  0  0  0  0  0  0
    0.5289    1.6384   -1.6745 H   0  0  0  0  0  0  0  0  0  0  0  0
    1.7636    0.7145   -3.1622 C   0  0  0  0  0  0  0  0  0  0  0  0
    1.3650   -0.0868   -3.7936 H   0  0  0  0  0  0  0  0  0  0  0  0
    1.6755    1.6596   -3.7064 H   0  0  0  0  0  0  0  0  0  0  0  0
    2.8254    0.5208   -2.9764 H   0  0  0  0  0  0  0  0  0  0  0  0
  1  2  1  0  0  0  0
  2  3  1  0  0  0  0
  2  4  1  0  0  0  0
  2  5  1  0  0  0  0
  5  6  2  0  0  0  0
  5  7  1  0  0  0  0
  7  8  1  0  0  0  0
  7  9  1  0  0  0  0
  9 10  1  0  0  0  0
  9 11  1  0  0  0  0
  9 16  1  0  0  0  0
 11 12  1  0  0  0  0
 11 13  1  0  0  0  0
 11 14  1  0  0  0  0
 14 15  1  0  0  0  0
 16 17  2  0  0  0  0
 16 18  1  0  0  0  0
 18 19  1  0  0  0  0
 18 20  1  0  0  0  0
 20 21  1  0  0  0  0
 20 22  1  0  0  0  0
 20 23  1  0  0  0  0
M  END
$$$$

  -OEChem-01062216073D

 23 22  0     1  0  0  0  0  0999 V2000
   -2.9220   -3.4970    1.1259 H   0  0  0  0  0  0  0  0  0  0  0  0
   -2.8360   -2.4647    0.7745 C   0  0  0  0  0  0  0  0  0  0  0  0
   -3.4498   -1.8245    1.4125 H   0  0  0  0  0  0  0  0  0  0  0  0
   -3.2063   -2.4119   -0.2521 H   0  0  0  0  0  0  0  0  0  0  0  0
   -1.3879   -2.0137    0.8266 C   0  0  0  0  0  0  0  0  0  0  0  0
   -0.5472   -2.8038    1.2179 O   0  0  0  0  0  0  0  0  0  0  0  0
   -1.0875   -0.7234    0.4219 N   0  0  0  0  0  0  0  0  0  0  0  0
   -1.8853   -0.1822    0.1064 H   0  0  0  0  0  0  0  0  0  0  0  0
    0.2369   -0.0584    0.3788 C   0  0  1  0  0  0  0  0  0  0  0  0
    0.0355    1.0130    0.4615 H   0  0  0  0  0  0  0  0  0  0  0  0
    1.1857   -0.3844    1.5458 C   0  0  0  0  0  0  0  0  0  0  0  0
    1.3826   -1.4575    1.6122 H   0  0  0  0  0  0  0  0  0  0  0  0
    2.1522    0.0998    1.3743 H   0  0  0  0  0  0  0  0  0  0  0  0
    0.4815    0.2531    3.1227 S   0  0  0  0  0  0  0  0  0  0  0  0
    1.3165   -0.3274    4.0124 H   0  0  0  0  0  0  0  0  0  0  0  0
    0.9627   -0.2531   -0.9706 C   0  0  0  0  0  0  0  0  0  0  0  0
    1.2468   -1.3640   -1.3941 O   0  0  0  0  0  0  0  0  0  0  0  0
    1.3029    0.8512   -1.7331 N   0  0  0  0  0  0  0  0  0  0  0  0
    1.0826    1.7702   -1.3619 H   0  0  0  0  0  0  0  0  0  0  0  0
    2.0065    0.7554   -3.0071 C   0  0  0  0  0  0  0  0  0  0  0  0
    1.4323    0.1515   -3.7178 H   0  0  0  0  0  0  0  0  0  0  0  0
    2.1491    1.7513   -3.4374 H   0  0  0  0  0  0  0  0  0  0  0  0
    2.9901    0.2946   -2.8676 H   0  0  0  0  0  0  0  0  0  0  0  0
  1  2  1  0  0  0  0
  2  3  1  0  0  0  0
  2  4  1  0  0  0  0
  2  5  1  0  0  0  0
  5  6  2  0  0  0  0
  5  7  1  0  0  0  0
  7  8  1  0  0  0  0
  7  9  1  0  0  0  0
  9 10  1  0  0  0  0
  9 11  1  0  0  0  0
  9 16  1  0  0  0  0
 11 12  1  0  0  0  0
 11 13  1  0  0  0  0
 11 14  1  0  0  0  0
 14 15  1  0  0  0  0
 16 17  2  0  0  0  0
 16 18  1  0  0  0  0
 18 19  1  0  0  0  0
 18 20  1  0  0  0  0
 20 21  1  0  0  0  0
 20 22  1  0  0  0  0
 20 23  1  0  0  0  0
M  END
$$$$

  -OEChem-01062216073D

 23 22  0     1  0  0  0  0  0999 V2000
   -2.9114   -3.4989    1.0797 H   0  0  0  0  0  0  0  0  0  0  0  0
   -2.8198   -2.4678    0.7269 C   0  0  0  0  0  0  0  0  0  0  0  0
   -3.4797   -1.8329    1.3226 H   0  0  0  0  0  0  0  0  0  0  0  0
   -3.1284   -2.4269   -0.3204 H   0  0  0  0  0  0  0  0  0  0  0  0
   -1.3844   -1.9947    0.8620 C   0  0  0  0  0  0  0  0  0  0  0  0
   -0.5599   -2.7633    1.3257 O   0  0  0  0  0  0  0  0  0  0  0  0
   -1.0773   -0.7083    0.4512 N   0  0  0  0  0  0  0  0  0  0  0  0
   -1.8494   -0.2070    0.0249 H   0  0  0  0  0  0  0  0  0  0  0  0
    0.2531   -0.0552    0.4030 C   0  0  1  0  0  0  0  0  0  0  0  0
    0.0547    1.0177    0.4753 H   0  0  0  0  0  0  0  0  0  0  0  0
    1.2041   -0.3743    1.5705 C   0  0  0  0  0  0  0  0  0  0  0  0
    1.3941   -1.4477    1.6482 H   0  0  0  0  0  0  0  0  0  0  0  0
    2.1736    0.1014    1.3930 H   0  0  0  0  0  0  0  0  0  0  0  0
    0.5088    0.2849    3.1422 S   0  0  0  0  0  0  0  0  0  0  0  0
    1.2981   -0.3424    4.0417 H   0  0  0  0  0  0  0  0  0  0  0  0
    0.9774   -0.2593   -0.9463 C   0  0  0  0  0  0  0  0  0  0  0  0
    0.9320   -1.3238   -1.5468 O   0  0  0  0  0  0  0  0  0  0  0  0
    1.6001    0.8160   -1.5568 N   0  0  0  0  0  0  0  0  0  0  0  0
    1.6201    1.6989   -1.0555 H   0  0  0  0  0  0  0  0  0  0  0  0
    2.2642    0.7258   -2.8524 C   0  0  0  0  0  0  0  0  0  0  0  0
    1.5561    0.4083   -3.6251 H   0  0  0  0  0  0  0  0  0  0  0  0
    2.6720    1.7002   -3.1380 H   0  0  0  0  0  0  0  0  0  0  0  0
    3.0872    0.0044   -2.8119 H   0  0  0  0  0  0  0  0  0  0  0  0
  1  2  1  0  0  0  0
  2  3  1  0  0  0  0
  2  4  1  0  0  0  0
  2  5  1  0  0  0  0
  5  6  2  0  0  0  0
  5  7  1  0  0  0  0
  7  8  1  0  0  0  0
  7  9  1  0  0  0  0
  9 10  1  0  0  0  0
  9 11  1  0  0  0  0
  9 16  1  0  0  0  0
 11 12  1  0  0  0  0
 11 13  1  0  0  0  0
 11 14  1  0  0  0  0
 14 15  1  0  0  0  0
 16 17  2  0  0  0  0
 16 18  1  0  0  0  0
 18 19  1  0  0  0  0
 18 20  1  0  0  0  0
 20 21  1  0  0  0  0
 20 22  1  0  0  0  0
 20 23  1  0  0  0  0
M  END
$$$$

  -OEChem-01062216073D

 23 22  0     1  0  0  0  0  0999 V2000
   -2.9064   -3.5015    1.0618 H   0  0  0  0  0  0  0  0  0  0  0  0
   -2.8132   -2.4703    0.7092 C   0  0  0  0  0  0  0  0  0  0  0  0
   -3.4916   -1.8383    1.2869 H   0  0  0  0  0  0  0  0  0  0  0  0
   -3.0968   -2.4333   -0.3454 H   0  0  0  0  0  0  0  0  0  0  0  0
   -1.3849   -1.9867    0.8771 C   0  0  0  0  0  0  0  0  0  0  0  0
   -0.5628   -2.7515    1.3527 O   0  0  0  0  0  0  0  0  0  0  0  0
   -1.0741   -0.7018    0.4656 N   0  0  0  0  0  0  0  0  0  0  0  0
   -1.8293   -0.2202   -0.0110 H   0  0  0  0  0  0  0  0  0  0  0  0
    0.2605   -0.0575    0.4161 C   0  0  1  0  0  0  0  0  0  0  0  0
    0.0678    1.0172    0.4798 H   0  0  0  0  0  0  0  0  0  0  0  0
    1.2078   -0.3737    1.5888 C   0  0  0  0  0  0  0  0  0  0  0  0
    1.3930   -1.4470    1.6758 H   0  0  0  0  0  0  0  0  0  0  0  0
    2.1804    0.0955    1.4124 H   0  0  0  0  0  0  0  0  0  0  0  0
    0.5126    0.3017    3.1536 S   0  0  0  0  0  0  0  0  0  0  0  0
    1.2919   -0.3267    4.0610 H   0  0  0  0  0  0  0  0  0  0  0  0
    0.9816   -0.2672   -0.9349 C   0  0  0  0  0  0  0  0  0  0  0  0
    0.6839   -1.1867   -1.6861 O   0  0  0  0  0  0  0  0  0  0  0  0
    1.8640    0.6954   -1.3950 N   0  0  0  0  0  0  0  0  0  0  0  0
    2.0795    1.4738   -0.7792 H   0  0  0  0  0  0  0  0  0  0  0  0
    2.5280    0.6170   -2.6913 C   0  0  0  0  0  0  0  0  0  0  0  0
    1.7899    0.6012   -3.5003 H   0  0  0  0  0  0  0  0  0  0  0  0
    3.1803    1.4835   -2.8365 H   0  0  0  0  0  0  0  0  0  0  0  0
    3.1387   -0.2900   -2.7545 H   0  0  0  0  0  0  0  0  0  0  0  0
  1  2  1  0  0  0  0
  2  3  1  0  0  0  0
  2  4  1  0  0  0  0
  2  5  1  0  0  0  0
  5  6  2  0  0  0  0
  5  7  1  0  0  0  0
  7  8  1  0  0  0  0
  7  9  1  0  0  0  0
  9 10  1  0  0  0  0
  9 11  1  0  0  0  0
  9 16  1  0  0  0  0
 11 12  1  0  0  0  0
 11 13  1  0  0  0  0
 11 14  1  0  0  0  0
 14 15  1  0  0  0  0
 16 17  2  0  0  0  0
 16 18  1  0  0  0  0
 18 19  1  0  0  0  0
 18 20  1  0  0  0  0
 20 21  1  0  0  0  0
 20 22  1  0  0  0  0
 20 23  1  0  0  0  0
M  END
$$$$

  -OEChem-01062216073D

 23 22  0     1  0  0  0  0  0999 V2000
   -2.9068   -3.4981    1.0594 H   0  0  0  0  0  0  0  0  0  0  0  0
   -2.8106   -2.4668    0.7084 C   0  0  0  0  0  0  0  0  0  0  0  0
   -3.4852   -1.8329    1.2885 H   0  0  0  0  0  0  0  0  0  0  0  0
   -3.0958   -2.4264   -0.3456 H   0  0  0  0  0  0  0  0  0  0  0  0
   -1.3807   -1.9885    0.8752 C   0  0  0  0  0  0  0  0  0  0  0  0
   -0.5554   -2.7606    1.3337 O   0  0  0  0  0  0  0  0  0  0  0  0
   -1.0670   -0.7036    0.4681 N   0  0  0  0  0  0  0  0  0  0  0  0
   -1.8152   -0.2265   -0.0243 H   0  0  0  0  0  0  0  0  0  0  0  0
    0.2676   -0.0594    0.4240 C   0  0  1  0  0  0  0  0  0  0  0  0
    0.0793    1.0165    0.4828 H   0  0  0  0  0  0  0  0  0  0  0  0
    1.2022   -0.3774    1.6090 C   0  0  0  0  0  0  0  0  0  0  0  0
    1.3836   -1.4508    1.6999 H   0  0  0  0  0  0  0  0  0  0  0  0
    2.1783    0.0891    1.4481 H   0  0  0  0  0  0  0  0  0  0  0  0
    0.4922    0.3018    3.1654 S   0  0  0  0  0  0  0  0  0  0  0  0
    1.2650   -0.3192    4.0836 H   0  0  0  0  0  0  0  0  0  0  0  0
    0.9869   -0.2710   -0.9291 C   0  0  0  0  0  0  0  0  0  0  0  0
    0.5165   -0.9975   -1.7959 O   0  0  0  0  0  0  0  0  0  0  0  0
    2.0852    0.5062   -1.2552 N   0  0  0  0  0  0  0  0  0  0  0  0
    2.4358    1.1492   -0.5519 H   0  0  0  0  0  0  0  0  0  0  0  0
    2.7655    0.4301   -2.5431 C   0  0  0  0  0  0  0  0  0  0  0  0
    2.0787    0.6888   -3.3560 H   0  0  0  0  0  0  0  0  0  0  0  0
    3.6083    1.1274   -2.5680 H   0  0  0  0  0  0  0  0  0  0  0  0
    3.1485   -0.5815   -2.7147 H   0  0  0  0  0  0  0  0  0  0  0  0
  1  2  1  0  0  0  0
  2  3  1  0  0  0  0
  2  4  1  0  0  0  0
  2  5  1  0  0  0  0
  5  6  2  0  0  0  0
  5  7  1  0  0  0  0
  7  8  1  0  0  0  0
  7  9  1  0  0  0  0
  9 10  1  0  0  0  0
  9 11  1  0  0  0  0
  9 16  1  0  0  0  0
 11 12  1  0  0  0  0
 11 13  1  0  0  0  0
 11 14  1  0  0  0  0
 14 15  1  0  0  0  0
 16 17  2  0  0  0  0
 16 18  1  0  0  0  0
 18 19  1  0  0  0  0
 18 20  1  0  0  0  0
 20 21  1  0  0  0  0
 20 22  1  0  0  0  0
 20 23  1  0  0  0  0
M  END
$$$$

  -OEChem-01062216073D

 23 22  0     1  0  0  0  0  0999 V2000
   -2.9403   -3.4699    1.0277 H   0  0  0  0  0  0  0  0  0  0  0  0
   -2.8184   -2.4368    0.6901 C   0  0  0  0  0  0  0  0  0  0  0  0
   -3.4833   -1.7954    1.2733 H   0  0  0  0  0  0  0  0  0  0  0  0
   -3.0956   -2.3766   -0.3652 H   0  0  0  0  0  0  0  0  0  0  0  0
   -1.3793   -1.9919    0.8721 C   0  0  0  0  0  0  0  0  0  0  0  0
   -0.5744   -2.7975    1.3090 O   0  0  0  0  0  0  0  0  0  0  0  0
   -1.0394   -0.7097    0.4757 N   0  0  0  0  0  0  0  0  0  0  0  0
   -1.7721   -0.2342   -0.0436 H   0  0  0  0  0  0  0  0  0  0  0  0
    0.2930   -0.0561    0.4346 C   0  0  1  0  0  0  0  0  0  0  0  0
    0.1301    0.9764    0.7570 H   0  0  0  0  0  0  0  0  0  0  0  0
    1.3617   -0.6174    1.3964 C   0  0  0  0  0  0  0  0  0  0  0  0
    1.5361   -1.6804    1.2094 H   0  0  0  0  0  0  0  0  0  0  0  0
    2.3180   -0.1120    1.2387 H   0  0  0  0  0  0  0  0  0  0  0  0
    0.8535   -0.3262    3.1420 S   0  0  0  0  0  0  0  0  0  0  0  0
    1.6049   -1.2529    3.7758 H   0  0  0  0  0  0  0  0  0  0  0  0
    0.8258    0.0502   -1.0151 C   0  0  0  0  0  0  0  0  0  0  0  0
    0.1132   -0.2539   -1.9650 O   0  0  0  0  0  0  0  0  0  0  0  0
    2.0557    0.6286   -1.2804 N   0  0  0  0  0  0  0  0  0  0  0  0
    2.6167    0.9316   -0.4904 H   0  0  0  0  0  0  0  0  0  0  0  0
    2.5798    0.8157   -2.6285 C   0  0  0  0  0  0  0  0  0  0  0  0
    1.9147    1.4597   -3.2135 H   0  0  0  0  0  0  0  0  0  0  0  0
    3.5674    1.2850   -2.5893 H   0  0  0  0  0  0  0  0  0  0  0  0
    2.6758   -0.1485   -3.1390 H   0  0  0  0  0  0  0  0  0  0  0  0
  1  2  1  0  0  0  0
  2  3  1  0  0  0  0
  2  4  1  0  0  0  0
  2  5  1  0  0  0  0
  5  6  2  0  0  0  0
  5  7  1  0  0  0  0
  7  8  1  0  0  0  0
  7  9  1  0  0  0  0
  9 10  1  0  0  0  0
  9 11  1  0  0  0  0
  9 16  1  0  0  0  0
 11 12  1  0  0  0  0
 11 13  1  0  0  0  0
 11 14  1  0  0  0  0
 14 15  1  0  0  0  0
 16 17  2  0  0  0  0
 16 18  1  0  0  0  0
 18 19  1  0  0  0  0
 18 20  1  0  0  0  0
 20 21  1  0  0  0  0
 20 22  1  0  0  0  0
 20 23  1  0  0  0  0
M  END
$$$$

  -OEChem-01062216073D

 23 22  0     1  0  0  0  0  0999 V2000
   -2.9403   -3.4709    1.0047 H   0  0  0  0  0  0  0  0  0  0  0  0
   -2.8162   -2.4342    0.6794 C   0  0  0  0  0  0  0  0  0  0  0  0
   -3.4674   -1.7963    1.2817 H   0  0  0  0  0  0  0  0  0  0  0  0
   -3.1091   -2.3575   -0.3706 H   0  0  0  0  0  0  0  0  0  0  0  0
   -1.3715   -2.0021    0.8459 C   0  0  0  0  0  0  0  0  0  0  0  0
   -0.5613   -2.8220    1.2451 O   0  0  0  0  0  0  0  0  0  0  0  0
   -1.0275   -0.7163    0.4671 N   0  0  0  0  0  0  0  0  0  0  0  0
   -1.7622   -0.2204   -0.0307 H   0  0  0  0  0  0  0  0  0  0  0  0
    0.3032   -0.0603    0.4489 C   0  0  1  0  0  0  0  0  0  0  0  0
    0.1368    0.9722    0.7697 H   0  0  0  0  0  0  0  0  0  0  0  0
    1.3523   -0.6211    1.4334 C   0  0  0  0  0  0  0  0  0  0  0  0
    1.5363   -1.6833    1.2516 H   0  0  0  0  0  0  0  0  0  0  0  0
    2.3079   -0.1081    1.2996 H   0  0  0  0  0  0  0  0  0  0  0  0
    0.8060   -0.3278    3.1672 S   0  0  0  0  0  0  0  0  0  0  0  0
    1.5967   -1.1996    3.8302 H   0  0  0  0  0  0  0  0  0  0  0  0
    0.8367    0.0519   -1.0014 C   0  0  0  0  0  0  0  0  0  0  0  0
    0.0548   -0.0010   -1.9445 O   0  0  0  0  0  0  0  0  0  0  0  0
    2.1643    0.3386   -1.2723 N   0  0  0  0  0  0  0  0  0  0  0  0
    2.8052    0.4020   -0.4880 H   0  0  0  0  0  0  0  0  0  0  0  0
    2.6913    0.4899   -2.6239 C   0  0  0  0  0  0  0  0  0  0  0  0
    2.1808    1.3060   -3.1460 H   0  0  0  0  0  0  0  0  0  0  0  0
    3.7608    0.7185   -2.5898 H   0  0  0  0  0  0  0  0  0  0  0  0
    2.5533   -0.4343   -3.1951 H   0  0  0  0  0  0  0  0  0  0  0  0
  1  2  1  0  0  0  0
  2  3  1  0  0  0  0
  2  4  1  0  0  0  0
  2  5  1  0  0  0  0
  5  6  2  0  0  0  0
  5  7  1  0  0  0  0
  7  8  1  0  0  0  0
  7  9  1  0  0  0  0
  9 10  1  0  0  0  0
  9 11  1  0  0  0  0
  9 16  1  0  0  0  0
 11 12  1  0  0  0  0
 11 13  1  0  0  0  0
 11 14  1  0  0  0  0
 14 15  1  0  0  0  0
 16 17  2  0  0  0  0
 16 18  1  0  0  0  0
 18 19  1  0  0  0  0
 18 20  1  0  0  0  0
 20 21  1  0  0  0  0
 20 22  1  0  0  0  0
 20 23  1  0  0  0  0
M  END
$$$$

  -OEChem-01062216073D

 23 22  0     1  0  0  0  0  0999 V2000
   -2.9374   -3.4730    1.0043 H   0  0  0  0  0  0  0  0  0  0  0  0
   -2.8167   -2.4340    0.6852 C   0  0  0  0  0  0  0  0  0  0  0  0
   -3.4411   -1.7978    1.3168 H   0  0  0  0  0  0  0  0  0  0  0  0
   -3.1461   -2.3439   -0.3527 H   0  0  0  0  0  0  0  0  0  0  0  0
   -1.3639   -2.0145    0.8054 C   0  0  0  0  0  0  0  0  0  0  0  0
   -0.5404   -2.8482    1.1442 O   0  0  0  0  0  0  0  0  0  0  0  0
   -1.0212   -0.7239    0.4442 N   0  0  0  0  0  0  0  0  0  0  0  0
   -1.7690   -0.1960    0.0015 H   0  0  0  0  0  0  0  0  0  0  0  0
    0.3071   -0.0655    0.4507 C   0  0  1  0  0  0  0  0  0  0  0  0
    0.1328    0.9661    0.7708 H   0  0  0  0  0  0  0  0  0  0  0  0
    1.3410   -0.6193    1.4549 C   0  0  0  0  0  0  0  0  0  0  0  0
    1.5365   -1.6807    1.2816 H   0  0  0  0  0  0  0  0  0  0  0  0
    2.2932   -0.0953    1.3365 H   0  0  0  0  0  0  0  0  0  0  0  0
    0.7612   -0.3235    3.1771 S   0  0  0  0  0  0  0  0  0  0  0  0
    1.5958   -1.1309    3.8675 H   0  0  0  0  0  0  0  0  0  0  0  0
    0.8492    0.0571   -0.9942 C   0  0  0  0  0  0  0  0  0  0  0  0
    0.0639    0.2593   -1.9136 O   0  0  0  0  0  0  0  0  0  0  0  0
    2.2042    0.0428   -1.2809 N   0  0  0  0  0  0  0  0  0  0  0  0
    2.8416   -0.1871   -0.5255 H   0  0  0  0  0  0  0  0  0  0  0  0
    2.7333    0.1424   -2.6363 C   0  0  0  0  0  0  0  0  0  0  0  0
    2.4092    1.0766   -3.1072 H   0  0  0  0  0  0  0  0  0  0  0  0
    3.8273    0.1281   -2.6175 H   0  0  0  0  0  0  0  0  0  0  0  0
    2.3862   -0.6985   -3.2461 H   0  0  0  0  0  0  0  0  0  0  0  0
  1  2  1  0  0  0  0
  2  3  1  0  0  0  0
  2  4  1  0  0  0  0
  2  5  1  0  0  0  0
  5  6  2  0  0  0  0
  5  7  1  0  0  0  0
  7  8  1  0  0  0  0
  7  9  1  0  0  0  0
  9 10  1  0  0  0  0
  9 11  1  0  0  0  0
  9 16  1  0  0  0  0
 11 12  1  0  0  0  0
 11 13  1  0  0  0  0
 11 14  1  0  0  0  0
 14 15  1  0  0  0  0
 16 17  2  0  0  0  0
 16 18  1  0  0  0  0
 18 19  1  0  0  0  0
 18 20  1  0  0  0  0
 20 21  1  0  0  0  0
 20 22  1  0  0  0  0
 20 23  1  0  0  0  0
M  END
$$$$

  -OEChem-01062216073D

 23 22  0     1  0  0  0  0  0999 V2000
   -2.9421   -3.4656    1.0347 H   0  0  0  0  0  0  0  0  0  0  0  0
   -2.8234   -2.4285    0.7087 C   0  0  0  0  0  0  0  0  0  0  0  0
   -3.4110   -1.7843    1.3670 H   0  0  0  0  0  0  0  0  0  0  0  0
   -3.1991   -2.3346   -0.3131 H   0  0  0  0  0  0  0  0  0  0  0  0
   -1.3614   -2.0266    0.7620 C   0  0  0  0  0  0  0  0  0  0  0  0
   -0.5271   -2.8744    1.0332 O   0  0  0  0  0  0  0  0  0  0  0  0
   -1.0197   -0.7335    0.4111 N   0  0  0  0  0  0  0  0  0  0  0  0
   -1.7849   -0.1709    0.0484 H   0  0  0  0  0  0  0  0  0  0  0  0
    0.3069   -0.0748    0.4402 C   0  0  1  0  0  0  0  0  0  0  0  0
    0.1269    0.9563    0.7594 H   0  0  0  0  0  0  0  0  0  0  0  0
    1.3269   -0.6252    1.4597 C   0  0  0  0  0  0  0  0  0  0  0  0
    1.5291   -1.6862    1.2928 H   0  0  0  0  0  0  0  0  0  0  0  0
    2.2777   -0.0951    1.3486 H   0  0  0  0  0  0  0  0  0  0  0  0
    0.7217   -0.3309    3.1736 S   0  0  0  0  0  0  0  0  0  0  0  0
    1.6073   -1.0606    3.8866 H   0  0  0  0  0  0  0  0  0  0  0  0
    0.8666    0.0531   -0.9954 C   0  0  0  0  0  0  0  0  0  0  0  0
    0.1387    0.4888   -1.8796 O   0  0  0  0  0  0  0  0  0  0  0  0
    2.1787   -0.2580   -1.3103 N   0  0  0  0  0  0  0  0  0  0  0  0
    2.7245   -0.7353   -0.5999 H   0  0  0  0  0  0  0  0  0  0  0  0
    2.7048   -0.1973   -2.6692 C   0  0  0  0  0  0  0  0  0  0  0  0
    2.5695    0.8048   -3.0900 H   0  0  0  0  0  0  0  0  0  0  0  0
    3.7744   -0.4279   -2.6716 H   0  0  0  0  0  0  0  0  0  0  0  0
    2.1911   -0.9211   -3.3108 H   0  0  0  0  0  0  0  0  0  0  0  0
  1  2  1  0  0  0  0
  2  3  1  0  0  0  0
  2  4  1  0  0  0  0
  2  5  1  0  0  0  0
  5  6  2  0  0  0  0
  5  7  1  0  0  0  0
  7  8  1  0  0  0  0
  7  9  1  0  0  0  0
  9 10  1  0  0  0  0
  9 11  1  0  0  0  0
  9 16  1  0  0  0  0
 11 12  1  0  0  0  0
 11 13  1  0  0  0  0
 11 14  1  0  0  0  0
 14 15  1  0  0  0  0
 16 17  2  0  0  0  0
 16 18  1  0  0  0  0
 18 19  1  0  0  0  0
 18 20  1  0  0  0  0
 20 21  1  0  0  0  0
 20 22  1  0  0  0  0
 20 23  1  0  0  0  0
M  END
$$$$

  -OEChem-01062216073D

 23 22  0     1  0  0  0  0  0999 V2000
   -2.9288   -3.4683    1.0640 H   0  0  0  0  0  0  0  0  0  0  0  0
   -2.8232   -2.4268    0.7478 C   0  0  0  0  0  0  0  0  0  0  0  0
   -3.3696   -1.7908    1.4483 H   0  0  0  0  0  0  0  0  0  0  0  0
   -3.2552   -2.3158   -0.2496 H   0  0  0  0  0  0  0  0  0  0  0  0
   -1.3583   -2.0329    0.7243 C   0  0  0  0  0  0  0  0  0  0  0  0
   -0.5120   -2.8896    0.9207 O   0  0  0  0  0  0  0  0  0  0  0  0
   -1.0230   -0.7384    0.3737 N   0  0  0  0  0  0  0  0  0  0  0  0
   -1.8041   -0.1470    0.1033 H   0  0  0  0  0  0  0  0  0  0  0  0
    0.3030   -0.0818    0.4193 C   0  0  1  0  0  0  0  0  0  0  0  0
    0.1184    0.9504    0.7336 H   0  0  0  0  0  0  0  0  0  0  0  0
    1.3120   -0.6254    1.4525 C   0  0  0  0  0  0  0  0  0  0  0  0
    1.5161   -1.6876    1.2978 H   0  0  0  0  0  0  0  0  0  0  0  0
    2.2639   -0.0961    1.3420 H   0  0  0  0  0  0  0  0  0  0  0  0
    0.6862   -0.3231    3.1574 S   0  0  0  0  0  0  0  0  0  0  0  0
    1.5855   -1.0187    3.8871 H   0  0  0  0  0  0  0  0  0  0  0  0
    0.8822    0.0444   -1.0055 C   0  0  0  0  0  0  0  0  0  0  0  0
    0.2717    0.7028   -1.8386 O   0  0  0  0  0  0  0  0  0  0  0  0
    2.0824   -0.5454   -1.3631 N   0  0  0  0  0  0  0  0  0  0  0  0
    2.4661   -1.2267   -0.7146 H   0  0  0  0  0  0  0  0  0  0  0  0
    2.6021   -0.5136   -2.7252 C   0  0  0  0  0  0  0  0  0  0  0  0
    2.7152    0.5201   -3.0690 H   0  0  0  0  0  0  0  0  0  0  0  0
    3.5821   -0.9981   -2.7679 H   0  0  0  0  0  0  0  0  0  0  0  0
    1.9243   -1.0387   -3.4064 H   0  0  0  0  0  0  0  0  0  0  0  0
  1  2  1  0  0  0  0
  2  3  1  0  0  0  0
  2  4  1  0  0  0  0
  2  5  1  0  0  0  0
  5  6  2  0  0  0  0
  5  7  1  0  0  0  0
  7  8  1  0  0  0  0
  7  9  1  0  0  0  0
  9 10  1  0  0  0  0
  9 11  1  0  0  0  0
  9 16  1  0  0  0  0
 11 12  1  0  0  0  0
 11 13  1  0  0  0  0
 11 14  1  0  0  0  0
 14 15  1  0  0  0  0
 16 17  2  0  0  0  0
 16 18  1  0  0  0  0
 18 19  1  0  0  0  0
 18 20  1  0  0  0  0
 20 21  1  0  0  0  0
 20 22  1  0  0  0  0
 20 23  1  0  0  0  0
M  END
$$$$

  -OEChem-01062216073D

 23 22  0     1  0  0  0  0  0999 V2000
   -2.9114   -3.4746    1.1010 H   0  0  0  0  0  0  0  0  0  0  0  0
   -2.8219   -2.4239    0.8113 C   0  0  0  0  0  0  0  0  0  0  0  0
   -3.2980   -1.8073    1.5775 H   0  0  0  0  0  0  0  0  0  0  0  0
   -3.3375   -2.2753   -0.1405 H   0  0  0  0  0  0  0  0  0  0  0  0
   -1.3604   -2.0412    0.6747 C   0  0  0  0  0  0  0  0  0  0  0  0
   -0.5050   -2.9059    0.7753 O   0  0  0  0  0  0  0  0  0  0  0  0
   -1.0379   -0.7447    0.3217 N   0  0  0  0  0  0  0  0  0  0  0  0
   -1.8320   -0.1285    0.1712 H   0  0  0  0  0  0  0  0  0  0  0  0
    0.2875   -0.0906    0.3859 C   0  0  1  0  0  0  0  0  0  0  0  0
    0.0988    0.9415    0.6986 H   0  0  0  0  0  0  0  0  0  0  0  0
    1.2858   -0.6341    1.4290 C   0  0  0  0  0  0  0  0  0  0  0  0
    1.4942   -1.6959    1.2792 H   0  0  0  0  0  0  0  0  0  0  0  0
    2.2381   -0.1041    1.3239 H   0  0  0  0  0  0  0  0  0  0  0  0
    0.6405   -0.3333    3.1268 S   0  0  0  0  0  0  0  0  0  0  0  0
    1.5725   -0.9691    3.8702 H   0  0  0  0  0  0  0  0  0  0  0  0
    0.8915    0.0331   -1.0259 C   0  0  0  0  0  0  0  0  0  0  0  0
    0.4621    0.8870   -1.7910 O   0  0  0  0  0  0  0  0  0  0  0  0
    1.9175   -0.7975   -1.4397 N   0  0  0  0  0  0  0  0  0  0  0  0
    2.0931   -1.6156   -0.8619 H   0  0  0  0  0  0  0  0  0  0  0  0
    2.4453   -0.7809   -2.7985 C   0  0  0  0  0  0  0  0  0  0  0  0
    2.8269    0.2145   -3.0497 H   0  0  0  0  0  0  0  0  0  0  0  0
    3.2669   -1.4973   -2.8938 H   0  0  0  0  0  0  0  0  0  0  0  0
    1.6637   -1.0500   -3.5167 H   0  0  0  0  0  0  0  0  0  0  0  0
  1  2  1  0  0  0  0
  2  3  1  0  0  0  0
  2  4  1  0  0  0  0
  2  5  1  0  0  0  0
  5  6  2  0  0  0  0
  5  7  1  0  0  0  0
  7  8  1  0  0  0  0
  7  9  1  0  0  0  0
  9 10  1  0  0  0  0
  9 11  1  0  0  0  0
  9 16  1  0  0  0  0
 11 12  1  0  0  0  0
 11 13  1  0  0  0  0
 11 14  1  0  0  0  0
 14 15  1  0  0  0  0
 16 17  2  0  0  0  0
 16 18  1  0  0  0  0
 18 19  1  0  0  0  0
 18 20  1  0  0  0  0
 20 21  1  0  0  0  0
 20 22  1  0  0  0  0
 20 23  1  0  0  0  0
M  END
$$$$

  -OEChem-01062216073D

 23 22  0     1  0  0  0  0  0999 V2000
   -2.8816   -3.4657    1.1726 H   0  0  0  0  0  0  0  0  0  0  0  0
   -2.8116   -2.4170    0.8706 C   0  0  0  0  0  0  0  0  0  0  0  0
   -3.2350   -1.7955    1.6634 H   0  0  0  0  0  0  0  0  0  0  0  0
   -3.3903   -2.2739   -0.0450 H   0  0  0  0  0  0  0  0  0  0  0  0
   -1.3623   -2.0371    0.6330 C   0  0  0  0  0  0  0  0  0  0  0  0
   -0.5045   -2.9060    0.6348 O   0  0  0  0  0  0  0  0  0  0  0  0
   -1.0542   -0.7385    0.2770 N   0  0  0  0  0  0  0  0  0  0  0  0
   -1.8519   -0.1107    0.2268 H   0  0  0  0  0  0  0  0  0  0  0  0
    0.2721   -0.0885    0.3600 C   0  0  1  0  0  0  0  0  0  0  0  0
    0.0851    0.9434    0.6751 H   0  0  0  0  0  0  0  0  0  0  0  0
    1.2627   -0.6434    1.4036 C   0  0  0  0  0  0  0  0  0  0  0  0
    1.4740   -1.7035    1.2457 H   0  0  0  0  0  0  0  0  0  0  0  0
    2.2155   -0.1121    1.3073 H   0  0  0  0  0  0  0  0  0  0  0  0
    0.6049   -0.3598    3.0995 S   0  0  0  0  0  0  0  0  0  0  0  0
    1.5465   -0.9806    3.8432 H   0  0  0  0  0  0  0  0  0  0  0  0
    0.8941    0.0289   -1.0421 C   0  0  0  0  0  0  0  0  0  0  0  0
    0.6981    1.0306   -1.7176 O   0  0  0  0  0  0  0  0  0  0  0  0
    1.6880   -0.9902   -1.5345 N   0  0  0  0  0  0  0  0  0  0  0  0
    1.6365   -1.8743   -1.0313 H   0  0  0  0  0  0  0  0  0  0  0  0
    2.2189   -0.9905   -2.8917 C   0  0  0  0  0  0  0  0  0  0  0  0
    2.8210   -0.0929   -3.0687 H   0  0  0  0  0  0  0  0  0  0  0  0
    2.8555   -1.8665   -3.0482 H   0  0  0  0  0  0  0  0  0  0  0  0
    1.4036   -1.0170   -3.6223 H   0  0  0  0  0  0  0  0  0  0  0  0
  1  2  1  0  0  0  0
  2  3  1  0  0  0  0
  2  4  1  0  0  0  0
  2  5  1  0  0  0  0
  5  6  2  0  0  0  0
  5  7  1  0  0  0  0
  7  8  1  0  0  0  0
  7  9  1  0  0  0  0
  9 10  1  0  0  0  0
  9 11  1  0  0  0  0
  9 16  1  0  0  0  0
 11 12  1  0  0  0  0
 11 13  1  0  0  0  0
 11 14  1  0  0  0  0
 14 15  1  0  0  0  0
 16 17  2  0  0  0  0
 16 18  1  0  0  0  0
 18 19  1  0  0  0  0
 18 20  1  0  0  0  0
 20 21  1  0  0  0  0
 20 22  1  0  0  0  0
 20 23  1  0  0  0  0
M  END
$$$$

  -OEChem-01062216073D

 23 22  0     1  0  0  0  0  0999 V2000
   -2.8416   -3.4693    1.2195 H   0  0  0  0  0  0  0  0  0  0  0  0
   -2.7945   -2.4127    0.9413 C   0  0  0  0  0  0  0  0  0  0  0  0
   -3.1435   -1.8128    1.7852 H   0  0  0  0  0  0  0  0  0  0  0  0
   -3.4509   -2.2433    0.0844 H   0  0  0  0  0  0  0  0  0  0  0  0
   -1.3702   -2.0293    0.5887 C   0  0  0  0  0  0  0  0  0  0  0  0
   -0.5180   -2.8975    0.4796 O   0  0  0  0  0  0  0  0  0  0  0  0
   -1.0805   -0.7280    0.2294 N   0  0  0  0  0  0  0  0  0  0  0  0
   -1.8760   -0.0972    0.2720 H   0  0  0  0  0  0  0  0  0  0  0  0
    0.2471   -0.0822    0.3313 C   0  0  1  0  0  0  0  0  0  0  0  0
    0.0631    0.9491    0.6500 H   0  0  0  0  0  0  0  0  0  0  0  0
    1.2298   -0.6533    1.3727 C   0  0  0  0  0  0  0  0  0  0  0  0
    1.4412   -1.7111    1.1998 H   0  0  0  0  0  0  0  0  0  0  0  0
    2.1838   -0.1222    1.2885 H   0  0  0  0  0  0  0  0  0  0  0  0
    0.5629   -0.3939    3.0688 S   0  0  0  0  0  0  0  0  0  0  0  0
    1.5179   -0.9989    3.8090 H   0  0  0  0  0  0  0  0  0  0  0  0
    0.8862    0.0298   -1.0613 C   0  0  0  0  0  0  0  0  0  0  0  0
    0.9660    1.1119   -1.6270 O   0  0  0  0  0  0  0  0  0  0  0  0
    1.4085   -1.1056   -1.6500 N   0  0  0  0  0  0  0  0  0  0  0  0
    1.1564   -1.9897   -1.2071 H   0  0  0  0  0  0  0  0  0  0  0  0
    1.9572   -1.1234   -2.9992 C   0  0  0  0  0  0  0  0  0  0  0  0
    2.7708   -0.3962   -3.0920 H   0  0  0  0  0  0  0  0  0  0  0  0
    2.3557   -2.1157   -3.2313 H   0  0  0  0  0  0  0  0  0  0  0  0
    1.1809   -0.8793   -3.7318 H   0  0  0  0  0  0  0  0  0  0  0  0
  1  2  1  0  0  0  0
  2  3  1  0  0  0  0
  2  4  1  0  0  0  0
  2  5  1  0  0  0  0
  5  6  2  0  0  0  0
  5  7  1  0  0  0  0
  7  8  1  0  0  0  0
  7  9  1  0  0  0  0
  9 10  1  0  0  0  0
  9 11  1  0  0  0  0
  9 16  1  0  0  0  0
 11 12  1  0  0  0  0
 11 13  1  0  0  0  0
 11 14  1  0  0  0  0
 14 15  1  0  0  0  0
 16 17  2  0  0  0  0
 16 18  1  0  0  0  0
 18 19  1  0  0  0  0
 18 20  1  0  0  0  0
 20 21  1  0  0  0  0
 20 22  1  0  0  0  0
 20 23  1  0  0  0  0
M  END
$$$$

  -OEChem-01062216073D

 23 22  0     1  0  0  0  0  0999 V2000
   -2.8444   -3.4718    1.2485 H   0  0  0  0  0  0  0  0  0  0  0  0
   -2.7984   -2.4080    0.9990 C   0  0  0  0  0  0  0  0  0  0  0  0
   -3.0944   -1.8290    1.8772 H   0  0  0  0  0  0  0  0  0  0  0  0
   -3.4973   -2.2061    0.1836 H   0  0  0  0  0  0  0  0  0  0  0  0
   -1.3898   -2.0301    0.5830 C   0  0  0  0  0  0  0  0  0  0  0  0
   -0.5513   -2.9011    0.4098 O   0  0  0  0  0  0  0  0  0  0  0  0
   -1.1079   -0.7299    0.2160 N   0  0  0  0  0  0  0  0  0  0  0  0
   -1.8999   -0.0996    0.3060 H   0  0  0  0  0  0  0  0  0  0  0  0
    0.2210   -0.0828    0.3127 C   0  0  1  0  0  0  0  0  0  0  0  0
    0.0404    0.9482    0.6341 H   0  0  0  0  0  0  0  0  0  0  0  0
    1.2076   -0.6643    1.3425 C   0  0  0  0  0  0  0  0  0  0  0  0
    1.4161   -1.7208    1.1559 H   0  0  0  0  0  0  0  0  0  0  0  0
    2.1617   -0.1332    1.2578 H   0  0  0  0  0  0  0  0  0  0  0  0
    0.5487   -0.4188    3.0442 S   0  0  0  0  0  0  0  0  0  0  0  0
    1.5277   -0.9919    3.7784 H   0  0  0  0  0  0  0  0  0  0  0  0
    0.8637    0.0264   -1.0778 C   0  0  0  0  0  0  0  0  0  0  0  0
    1.2008    1.1119   -1.5303 O   0  0  0  0  0  0  0  0  0  0  0  0
    1.1019   -1.1323   -1.7904 N   0  0  0  0  0  0  0  0  0  0  0  0
    0.7350   -1.9949   -1.3846 H   0  0  0  0  0  0  0  0  0  0  0  0
    1.6769   -1.1550   -3.1280 C   0  0  0  0  0  0  0  0  0  0  0  0
    2.6564   -0.6654   -3.1323 H   0  0  0  0  0  0  0  0  0  0  0  0
    1.8066   -2.1876   -3.4660 H   0  0  0  0  0  0  0  0  0  0  0  0
    1.0207   -0.6374   -3.8352 H   0  0  0  0  0  0  0  0  0  0  0  0
  1  2  1  0  0  0  0
  2  3  1  0  0  0  0
  2  4  1  0  0  0  0
  2  5  1  0  0  0  0
  5  6  2  0  0  0  0
  5  7  1  0  0  0  0
  7  8  1  0  0  0  0
  7  9  1  0  0  0  0
  9 10  1  0  0  0  0
  9 11  1  0  0  0  0
  9 16  1  0  0  0  0
 11 12  1  0  0  0  0
 11 13  1  0  0  0  0
 11 14  1  0  0  0  0
 14 15  1  0  0  0  0
 16 17  2  0  0  0  0
 16 18  1  0  0  0  0
 18 19  1  0  0  0  0
 18 20  1  0  0  0  0
 20 21  1  0  0  0  0
 20 22  1  0  0  0  0
 20 23  1  0  0  0  0
M  END
$$$$

  -OEChem-01062216073D

 23 22  0     1  0  0  0  0  0999 V2000
   -2.8445   -3.4798    1.3129 H   0  0  0  0  0  0  0  0  0  0  0  0
   -2.8046   -2.4111    1.0840 C   0  0  0  0  0  0  0  0  0  0  0  0
   -3.0418   -1.8496    1.9911 H   0  0  0  0  0  0  0  0  0  0  0  0
   -3.5496   -2.1860    0.3170 H   0  0  0  0  0  0  0  0  0  0  0  0
   -1.4206   -2.0343    0.5916 C   0  0  0  0  0  0  0  0  0  0  0  0
   -0.5975   -2.9054    0.3582 O   0  0  0  0  0  0  0  0  0  0  0  0
   -1.1542   -0.7330    0.2177 N   0  0  0  0  0  0  0  0  0  0  0  0
   -1.9425   -0.1062    0.3538 H   0  0  0  0  0  0  0  0  0  0  0  0
    0.1755   -0.0805    0.2869 C   0  0  1  0  0  0  0  0  0  0  0  0
   -0.0015    0.9486    0.6157 H   0  0  0  0  0  0  0  0  0  0  0  0
    1.1798   -0.6694    1.2943 C   0  0  0  0  0  0  0  0  0  0  0  0
    1.3827   -1.7250    1.0958 H   0  0  0  0  0  0  0  0  0  0  0  0
    2.1333   -0.1390    1.1957 H   0  0  0  0  0  0  0  0  0  0  0  0
    0.5525   -0.4342    3.0096 S   0  0  0  0  0  0  0  0  0  0  0  0
    1.5457   -1.0127    3.7202 H   0  0  0  0  0  0  0  0  0  0  0  0
    0.8059    0.0393   -1.1097 C   0  0  0  0  0  0  0  0  0  0  0  0
    1.3925    1.0601   -1.4423 O   0  0  0  0  0  0  0  0  0  0  0  0
    0.7651   -1.0478   -1.9603 N   0  0  0  0  0  0  0  0  0  0  0  0
    0.3333   -1.8949   -1.5879 H   0  0  0  0  0  0  0  0  0  0  0  0
    1.4319   -1.0889   -3.2541 C   0  0  0  0  0  0  0  0  0  0  0  0
    2.5122   -0.9586   -3.1319 H   0  0  0  0  0  0  0  0  0  0  0  0
    1.2516   -2.0521   -3.7411 H   0  0  0  0  0  0  0  0  0  0  0  0
    1.0523   -0.2954   -3.9062 H   0  0  0  0  0  0  0  0  0  0  0  0
  1  2  1  0  0  0  0
  2  3  1  0  0  0  0
  2  4  1  0  0  0  0
  2  5  1  0  0  0  0
  5  6  2  0  0  0  0
  5  7  1  0  0  0  0
  7  8  1  0  0  0  0
  7  9  1  0  0  0  0
  9 10  1  0  0  0  0
  9 11  1  0  0  0  0
  9 16  1  0  0  0  0
 11 12  1  0  0  0  0
 11 13  1  0  0  0  0
 11 14  1  0  0  0  0
 14 15  1  0  0  0  0
 16 17  2  0  0  0  0
 16 18  1  0  0  0  0
 18 19  1  0  0  0  0
 18 20  1  0  0  0  0
 20 21  1  0  0  0  0
 20 22  1  0  0  0  0
 20 23  1  0  0  0  0
M  END
$$$$

  -OEChem-01062216073D

 23 22  0     1  0  0  0  0  0999 V2000
   -2.8365   -3.4850    1.3635 H   0  0  0  0  0  0  0  0  0  0  0  0
   -2.8043   -2.4170    1.1304 C   0  0  0  0  0  0  0  0  0  0  0  0
   -3.0183   -1.8536    2.0420 H   0  0  0  0  0  0  0  0  0  0  0  0
   -3.5701   -2.1954    0.3832 H   0  0  0  0  0  0  0  0  0  0  0  0
   -1.4341   -2.0399    0.6015 C   0  0  0  0  0  0  0  0  0  0  0  0
   -0.6207   -2.9115    0.3419 O   0  0  0  0  0  0  0  0  0  0  0  0
   -1.1762   -0.7375    0.2250 N   0  0  0  0  0  0  0  0  0  0  0  0
   -1.9616   -0.1136    0.3882 H   0  0  0  0  0  0  0  0  0  0  0  0
    0.1529   -0.0787    0.2779 C   0  0  1  0  0  0  0  0  0  0  0  0
   -0.0236    0.9492    0.6108 H   0  0  0  0  0  0  0  0  0  0  0  0
    1.1638   -0.6718    1.2768 C   0  0  0  0  0  0  0  0  0  0  0  0
    1.3633   -1.7271    1.0731 H   0  0  0  0  0  0  0  0  0  0  0  0
    2.1178   -0.1431    1.1741 H   0  0  0  0  0  0  0  0  0  0  0  0
    0.5494   -0.4404    2.9974 S   0  0  0  0  0  0  0  0  0  0  0  0
    1.5499   -1.0183    3.6983 H   0  0  0  0  0  0  0  0  0  0  0  0
    0.7813    0.0530   -1.1210 C   0  0  0  0  0  0  0  0  0  0  0  0
    1.5662    0.9604   -1.3614 O   0  0  0  0  0  0  0  0  0  0  0  0
    0.4919   -0.8854   -2.0925 N   0  0  0  0  0  0  0  0  0  0  0  0
   -0.0307   -1.7010   -1.7729 H   0  0  0  0  0  0  0  0  0  0  0  0
    1.1657   -0.9349   -3.3830 C   0  0  0  0  0  0  0  0  0  0  0  0
    2.2336   -1.1366   -3.2495 H   0  0  0  0  0  0  0  0  0  0  0  0
    0.7368   -1.7281   -4.0028 H   0  0  0  0  0  0  0  0  0  0  0  0
    1.0499    0.0165   -3.9128 H   0  0  0  0  0  0  0  0  0  0  0  0
  1  2  1  0  0  0  0
  2  3  1  0  0  0  0
  2  4  1  0  0  0  0
  2  5  1  0  0  0  0
  5  6  2  0  0  0  0
  5  7  1  0  0  0  0
  7  8  1  0  0  0  0
  7  9  1  0  0  0  0
  9 10  1  0  0  0  0
  9 11  1  0  0  0  0
  9 16  1  0  0  0  0
 11 12  1  0  0  0  0
 11 13  1  0  0  0  0
 11 14  1  0  0  0  0
 14 15  1  0  0  0  0
 16 17  2  0  0  0  0
 16 18  1  0  0  0  0
 18 19  1  0  0  0  0
 18 20  1  0  0  0  0
 20 21  1  0  0  0  0
 20 22  1  0  0  0  0
 20 23  1  0  0  0  0
M  END
$$$$

  -OEChem-01062216073D

 23 22  0     1  0  0  0  0  0999 V2000
   -2.8501   -3.4878    1.3729 H   0  0  0  0  0  0  0  0  0  0  0  0
   -2.8133   -2.4229    1.1263 C   0  0  0  0  0  0  0  0  0  0  0  0
   -3.0504   -1.8473    2.0245 H   0  0  0  0  0  0  0  0  0  0  0  0
   -3.5604   -2.2127    0.3572 H   0  0  0  0  0  0  0  0  0  0  0  0
   -1.4311   -2.0511    0.6248 C   0  0  0  0  0  0  0  0  0  0  0  0
   -0.6157   -2.9274    0.3935 O   0  0  0  0  0  0  0  0  0  0  0  0
   -1.1694   -0.7486    0.2479 N   0  0  0  0  0  0  0  0  0  0  0  0
   -1.9544   -0.1243    0.4105 H   0  0  0  0  0  0  0  0  0  0  0  0
    0.1604   -0.0876    0.2854 C   0  0  1  0  0  0  0  0  0  0  0  0
   -0.0168    0.9404    0.6170 H   0  0  0  0  0  0  0  0  0  0  0  0
    1.1736   -0.6762    1.2864 C   0  0  0  0  0  0  0  0  0  0  0  0
    1.3702   -1.7331    1.0896 H   0  0  0  0  0  0  0  0  0  0  0  0
    2.1295   -0.1518    1.1789 H   0  0  0  0  0  0  0  0  0  0  0  0
    0.5641   -0.4287    3.0067 S   0  0  0  0  0  0  0  0  0  0  0  0
    1.5644   -1.0057    3.7087 H   0  0  0  0  0  0  0  0  0  0  0  0
    0.7844    0.0531   -1.1173 C   0  0  0  0  0  0  0  0  0  0  0  0
    1.7259    0.8141   -1.2974 O   0  0  0  0  0  0  0  0  0  0  0  0
    0.2785   -0.6719   -2.1791 N   0  0  0  0  0  0  0  0  0  0  0  0
   -0.3760   -1.4104   -1.9288 H   0  0  0  0  0  0  0  0  0  0  0  0
    0.8980   -0.6949   -3.4976 C   0  0  0  0  0  0  0  0  0  0  0  0
    1.9061   -1.1186   -3.4397 H   0  0  0  0  0  0  0  0  0  0  0  0
    0.3029   -1.3055   -4.1835 H   0  0  0  0  0  0  0  0  0  0  0  0
    0.9645    0.3182   -3.9085 H   0  0  0  0  0  0  0  0  0  0  0  0
  1  2  1  0  0  0  0
  2  3  1  0  0  0  0
  2  4  1  0  0  0  0
  2  5  1  0  0  0  0
  5  6  2  0  0  0  0
  5  7  1  0  0  0  0
  7  8  1  0  0  0  0
  7  9  1  0  0  0  0
  9 10  1  0  0  0  0
  9 11  1  0  0  0  0
  9 16  1  0  0  0  0
 11 12  1  0  0  0  0
 11 13  1  0  0  0  0
 11 14  1  0  0  0  0
 14 15  1  0  0  0  0
 16 17  2  0  0  0  0
 16 18  1  0  0  0  0
 18 19  1  0  0  0  0
 18 20  1  0  0  0  0
 20 21  1  0  0  0  0
 20 22  1  0  0  0  0
 20 23  1  0  0  0  0
M  END
$$$$

  -OEChem-01062216073D

 23 22  0     1  0  0  0  0  0999 V2000
   -2.8346   -3.4984    1.3764 H   0  0  0  0  0  0  0  0  0  0  0  0
   -2.7991   -2.4325    1.1339 C   0  0  0  0  0  0  0  0  0  0  0  0
   -3.0250   -1.8609    2.0376 H   0  0  0  0  0  0  0  0  0  0  0  0
   -3.5545   -2.2182    0.3743 H   0  0  0  0  0  0  0  0  0  0  0  0
   -1.4219   -2.0605    0.6190 C   0  0  0  0  0  0  0  0  0  0  0  0
   -0.6055   -2.9376    0.3970 O   0  0  0  0  0  0  0  0  0  0  0  0
   -1.1641   -0.7550    0.2468 N   0  0  0  0  0  0  0  0  0  0  0  0
   -1.9477   -0.1333    0.4257 H   0  0  0  0  0  0  0  0  0  0  0  0
    0.1656   -0.0920    0.2837 C   0  0  1  0  0  0  0  0  0  0  0  0
   -0.0130    0.9354    0.6156 H   0  0  0  0  0  0  0  0  0  0  0  0
    1.1714   -0.6808    1.2943 C   0  0  0  0  0  0  0  0  0  0  0  0
    1.3671   -1.7388    1.1021 H   0  0  0  0  0  0  0  0  0  0  0  0
    2.1307   -0.1613    1.1954 H   0  0  0  0  0  0  0  0  0  0  0  0
    0.5493   -0.4237    3.0091 S   0  0  0  0  0  0  0  0  0  0  0  0
    1.5390   -1.0075    3.7206 H   0  0  0  0  0  0  0  0  0  0  0  0
    0.7894    0.0581   -1.1206 C   0  0  0  0  0  0  0  0  0  0  0  0
    1.8578    0.6381   -1.2641 O   0  0  0  0  0  0  0  0  0  0  0  0
    0.1165   -0.4038   -2.2359 N   0  0  0  0  0  0  0  0  0  0  0  0
   -0.6687   -1.0209   -2.0442 H   0  0  0  0  0  0  0  0  0  0  0  0
    0.6935   -0.3945   -3.5742 C   0  0  0  0  0  0  0  0  0  0  0  0
    1.5831   -1.0318   -3.6116 H   0  0  0  0  0  0  0  0  0  0  0  0
   -0.0333   -0.7678   -4.3021 H   0  0  0  0  0  0  0  0  0  0  0  0
    0.9768    0.6232   -3.8629 H   0  0  0  0  0  0  0  0  0  0  0  0
  1  2  1  0  0  0  0
  2  3  1  0  0  0  0
  2  4  1  0  0  0  0
  2  5  1  0  0  0  0
  5  6  2  0  0  0  0
  5  7  1  0  0  0  0
  7  8  1  0  0  0  0
  7  9  1  0  0  0  0
  9 10  1  0  0  0  0
  9 11  1  0  0  0  0
  9 16  1  0  0  0  0
 11 12  1  0  0  0  0
 11 13  1  0  0  0  0
 11 14  1  0  0  0  0
 14 15  1  0  0  0  0
 16 17  2  0  0  0  0
 16 18  1  0  0  0  0
 18 19  1  0  0  0  0
 18 20  1  0  0  0  0
 20 21  1  0  0  0  0
 20 22  1  0  0  0  0
 20 23  1  0  0  0  0
M  END
$$$$

  -OEChem-01062216073D

 23 22  0     1  0  0  0  0  0999 V2000
   -2.8303   -3.5100    1.3412 H   0  0  0  0  0  0  0  0  0  0  0  0
   -2.7905   -2.4421    1.1086 C   0  0  0  0  0  0  0  0  0  0  0  0
   -3.0273   -1.8780    2.0140 H   0  0  0  0  0  0  0  0  0  0  0  0
   -3.5361   -2.2209    0.3413 H   0  0  0  0  0  0  0  0  0  0  0  0
   -1.4062   -2.0678    0.6144 C   0  0  0  0  0  0  0  0  0  0  0  0
   -0.5831   -2.9446    0.4185 O   0  0  0  0  0  0  0  0  0  0  0  0
   -1.1480   -0.7598    0.2483 N   0  0  0  0  0  0  0  0  0  0  0  0
   -1.9309   -0.1403    0.4371 H   0  0  0  0  0  0  0  0  0  0  0  0
    0.1820   -0.0968    0.2862 C   0  0  1  0  0  0  0  0  0  0  0  0
    0.0019    0.9307    0.6166 H   0  0  0  0  0  0  0  0  0  0  0  0
    1.1816   -0.6810    1.3071 C   0  0  0  0  0  0  0  0  0  0  0  0
    1.3795   -1.7397    1.1220 H   0  0  0  0  0  0  0  0  0  0  0  0
    2.1420   -0.1629    1.2154 H   0  0  0  0  0  0  0  0  0  0  0  0
    0.5465   -0.4100    3.0150 S   0  0  0  0  0  0  0  0  0  0  0  0
    1.5205   -1.0091    3.7350 H   0  0  0  0  0  0  0  0  0  0  0  0
    0.8002    0.0588   -1.1216 C   0  0  0  0  0  0  0  0  0  0  0  0
    1.9602    0.4250   -1.2595 O   0  0  0  0  0  0  0  0  0  0  0  0
    0.0131   -0.1069   -2.2462 N   0  0  0  0  0  0  0  0  0  0  0  0
   -0.8814   -0.5621   -2.0884 H   0  0  0  0  0  0  0  0  0  0  0  0
    0.5452   -0.0561   -3.6026 C   0  0  0  0  0  0  0  0  0  0  0  0
    1.2792   -0.8543   -3.7559 H   0  0  0  0  0  0  0  0  0  0  0  0
   -0.2623   -0.1809   -4.3305 H   0  0  0  0  0  0  0  0  0  0  0  0
    1.0296    0.9082   -3.7900 H   0  0  0  0  0  0  0  0  0  0  0  0
  1  2  1  0  0  0  0
  2  3  1  0  0  0  0
  2  4  1  0  0  0  0
  2  5  1  0  0  0  0
  5  6  2  0  0  0  0
  5  7  1  0  0  0  0
  7  8  1  0  0  0  0
  7  9  1  0  0  0  0
  9 10  1  0  0  0  0
  9 11  1  0  0  0  0
  9 16  1  0  0  0  0
 11 12  1  0  0  0  0
 11 13  1  0  0  0  0
 11 14  1  0  0  0  0
 14 15  1  0  0  0  0
 16 17  2  0  0  0  0
 16 18  1  0  0  0  0
 18 19  1  0  0  0  0
 18 20  1  0  0  0  0
 20 21  1  0  0  0  0
 20 22  1  0  0  0  0
 20 23  1  0  0  0  0
M  END
$$$$

  -OEChem-01062216073D

 23 22  0     1  0  0  0  0  0999 V2000
   -2.8197   -3.5134    1.3312 H   0  0  0  0  0  0  0  0  0  0  0  0
   -2.7824   -2.4485    1.0844 C   0  0  0  0  0  0  0  0  0  0  0  0
   -3.0322   -1.8737    1.9795 H   0  0  0  0  0  0  0  0  0  0  0  0
   -3.5205   -2.2416    0.3061 H   0  0  0  0  0  0  0  0  0  0  0  0
   -1.3943   -2.0736    0.6005 C   0  0  0  0  0  0  0  0  0  0  0  0
   -0.5674   -2.9507    0.4237 O   0  0  0  0  0  0  0  0  0  0  0  0
   -1.1349   -0.7635    0.2409 N   0  0  0  0  0  0  0  0  0  0  0  0
   -1.9188   -0.1469    0.4342 H   0  0  0  0  0  0  0  0  0  0  0  0
    0.1948   -0.1007    0.2856 C   0  0  1  0  0  0  0  0  0  0  0  0
    0.0132    0.9264    0.6153 H   0  0  0  0  0  0  0  0  0  0  0  0
    1.1877   -0.6821    1.3158 C   0  0  0  0  0  0  0  0  0  0  0  0
    1.3880   -1.7411    1.1349 H   0  0  0  0  0  0  0  0  0  0  0  0
    2.1483   -0.1633    1.2297 H   0  0  0  0  0  0  0  0  0  0  0  0
    0.5420   -0.4061    3.0189 S   0  0  0  0  0  0  0  0  0  0  0  0
    1.5099   -1.0065    3.7461 H   0  0  0  0  0  0  0  0  0  0  0  0
    0.8110    0.0574   -1.1239 C   0  0  0  0  0  0  0  0  0  0  0  0
    2.0191    0.1824   -1.2788 O   0  0  0  0  0  0  0  0  0  0  0  0
   -0.0173    0.2037   -2.2218 N   0  0  0  0  0  0  0  0  0  0  0  0
   -0.9883   -0.0555   -2.0776 H   0  0  0  0  0  0  0  0  0  0  0  0
    0.4857    0.3004   -3.5870 C   0  0  0  0  0  0  0  0  0  0  0  0
    1.0303   -0.6098   -3.8594 H   0  0  0  0  0  0  0  0  0  0  0  0
   -0.3442    0.4317   -4.2879 H   0  0  0  0  0  0  0  0  0  0  0  0
    1.1596    1.1576   -3.6889 H   0  0  0  0  0  0  0  0  0  0  0  0
  1  2  1  0  0  0  0
  2  3  1  0  0  0  0
  2  4  1  0  0  0  0
  2  5  1  0  0  0  0
  5  6  2  0  0  0  0
  5  7  1  0  0  0  0
  7  8  1  0  0  0  0
  7  9  1  0  0  0  0
  9 10  1  0  0  0  0
  9 11  1  0  0  0  0
  9 16  1  0  0  0  0
 11 12  1  0  0  0  0
 11 13  1  0  0  0  0
 11 14  1  0  0  0  0
 14 15  1  0  0  0  0
 16 17  2  0  0  0  0
 16 18  1  0  0  0  0
 18 19  1  0  0  0  0
 18 20  1  0  0  0  0
 20 21  1  0  0  0  0
 20 22  1  0  0  0  0
 20 23  1  0  0  0  0
M  END
$$$$

  -OEChem-01062216073D

 23 22  0     1  0  0  0  0  0999 V2000
   -2.8355   -3.5165    1.2851 H   0  0  0  0  0  0  0  0  0  0  0  0
   -2.7878   -2.4506    1.0446 C   0  0  0  0  0  0  0  0  0  0  0  0
   -3.0658   -1.8788    1.9333 H   0  0  0  0  0  0  0  0  0  0  0  0
   -3.4993   -2.2386    0.2431 H   0  0  0  0  0  0  0  0  0  0  0  0
   -1.3837   -2.0776    0.6075 C   0  0  0  0  0  0  0  0  0  0  0  0
   -0.5492   -2.9558    0.4805 O   0  0  0  0  0  0  0  0  0  0  0  0
   -1.1184   -0.7689    0.2454 N   0  0  0  0  0  0  0  0  0  0  0  0
   -1.9085   -0.1536    0.4131 H   0  0  0  0  0  0  0  0  0  0  0  0
    0.2084   -0.1019    0.2882 C   0  0  1  0  0  0  0  0  0  0  0  0
    0.0252    0.9257    0.6159 H   0  0  0  0  0  0  0  0  0  0  0  0
    1.2047   -0.6749    1.3195 C   0  0  0  0  0  0  0  0  0  0  0  0
    1.4094   -1.7335    1.1411 H   0  0  0  0  0  0  0  0  0  0  0  0
    2.1629   -0.1523    1.2286 H   0  0  0  0  0  0  0  0  0  0  0  0
    0.5598   -0.3953    3.0225 S   0  0  0  0  0  0  0  0  0  0  0  0
    1.5160   -1.0159    3.7485 H   0  0  0  0  0  0  0  0  0  0  0  0
    0.8178    0.0499   -1.1250 C   0  0  0  0  0  0  0  0  0  0  0  0
    2.0205   -0.0695   -1.3209 O   0  0  0  0  0  0  0  0  0  0  0  0
    0.0212    0.4944   -2.1652 N   0  0  0  0  0  0  0  0  0  0  0  0
   -0.9807    0.4640   -2.0078 H   0  0  0  0  0  0  0  0  0  0  0  0
    0.5111    0.6447   -3.5305 C   0  0  0  0  0  0  0  0  0  0  0  0
    0.8531   -0.3189   -3.9229 H   0  0  0  0  0  0  0  0  0  0  0  0
   -0.2858    1.0211   -4.1791 H   0  0  0  0  0  0  0  0  0  0  0  0
    1.3450    1.3541   -3.5638 H   0  0  0  0  0  0  0  0  0  0  0  0
  1  2  1  0  0  0  0
  2  3  1  0  0  0  0
  2  4  1  0  0  0  0
  2  5  1  0  0  0  0
  5  6  2  0  0  0  0
  5  7  1  0  0  0  0
  7  8  1  0  0  0  0
  7  9  1  0  0  0  0
  9 10  1  0  0  0  0
  9 11  1  0  0  0  0
  9 16  1  0  0  0  0
 11 12  1  0  0  0  0
 11 13  1  0  0  0  0
 11 14  1  0  0  0  0
 14 15  1  0  0  0  0
 16 17  2  0  0  0  0
 16 18  1  0  0  0  0
 18 19  1  0  0  0  0
 18 20  1  0  0  0  0
 20 21  1  0  0  0  0
 20 22  1  0  0  0  0
 20 23  1  0  0  0  0
M  END
$$$$

  -OEChem-01062216073D

 23 22  0     1  0  0  0  0  0999 V2000
   -2.8607   -3.5121    1.2581 H   0  0  0  0  0  0  0  0  0  0  0  0
   -2.8039   -2.4513    0.9973 C   0  0  0  0  0  0  0  0  0  0  0  0
   -3.1318   -1.8617    1.8568 H   0  0  0  0  0  0  0  0  0  0  0  0
   -3.4709   -2.2605    0.1535 H   0  0  0  0  0  0  0  0  0  0  0  0
   -1.3798   -2.0804    0.6285 C   0  0  0  0  0  0  0  0  0  0  0  0
   -0.5380   -2.9587    0.5725 O   0  0  0  0  0  0  0  0  0  0  0  0
   -1.1052   -0.7747    0.2608 N   0  0  0  0  0  0  0  0  0  0  0  0
   -1.9051   -0.1605    0.3739 H   0  0  0  0  0  0  0  0  0  0  0  0
    0.2188   -0.1031    0.2937 C   0  0  1  0  0  0  0  0  0  0  0  0
    0.0348    0.9241    0.6212 H   0  0  0  0  0  0  0  0  0  0  0  0
    1.2274   -0.6649    1.3181 C   0  0  0  0  0  0  0  0  0  0  0  0
    1.4346   -1.7236    1.1422 H   0  0  0  0  0  0  0  0  0  0  0  0
    2.1821   -0.1391    1.2117 H   0  0  0  0  0  0  0  0  0  0  0  0
    0.5984   -0.3831    3.0266 S   0  0  0  0  0  0  0  0  0  0  0  0
    1.5508   -1.0217    3.7417 H   0  0  0  0  0  0  0  0  0  0  0  0
    0.8182    0.0414   -1.1239 C   0  0  0  0  0  0  0  0  0  0  0  0
    1.9558   -0.3293   -1.3833 O   0  0  0  0  0  0  0  0  0  0  0  0
    0.1259    0.7596   -2.0833 N   0  0  0  0  0  0  0  0  0  0  0  0
   -0.8400    0.9908   -1.8772 H   0  0  0  0  0  0  0  0  0  0  0  0
    0.6210    0.9553   -3.4412 C   0  0  0  0  0  0  0  0  0  0  0  0
    0.7529   -0.0090   -3.9433 H   0  0  0  0  0  0  0  0  0  0  0  0
   -0.0883    1.5540   -4.0207 H   0  0  0  0  0  0  0  0  0  0  0  0
    1.5826    1.4794   -3.4276 H   0  0  0  0  0  0  0  0  0  0  0  0
  1  2  1  0  0  0  0
  2  3  1  0  0  0  0
  2  4  1  0  0  0  0
  2  5  1  0  0  0  0
  5  6  2  0  0  0  0
  5  7  1  0  0  0  0
  7  8  1  0  0  0  0
  7  9  1  0  0  0  0
  9 10  1  0  0  0  0
  9 11  1  0  0  0  0
  9 16  1  0  0  0  0
 11 12  1  0  0  0  0
 11 13  1  0  0  0  0
 11 14  1  0  0  0  0
 14 15  1  0  0  0  0
 16 17  2  0  0  0  0
 16 18  1  0  0  0  0
 18 19  1  0  0  0  0
 18 20  1  0  0  0  0
 20 21  1  0  0  0  0
 20 22  1  0  0  0  0
 20 23  1  0  0  0  0
M  END
$$$$

  -OEChem-01062216073D

 23 22  0     1  0  0  0  0  0999 V2000
   -2.8970   -3.4960    1.2495 H   0  0  0  0  0  0  0  0  0  0  0  0
   -2.8292   -2.4508    0.9345 C   0  0  0  0  0  0  0  0  0  0  0  0
   -3.2444   -1.8205    1.7245 H   0  0  0  0  0  0  0  0  0  0  0  0
   -3.4165   -2.3198    0.0226 H   0  0  0  0  0  0  0  0  0  0  0  0
   -1.3817   -2.0755    0.6772 C   0  0  0  0  0  0  0  0  0  0  0  0
   -0.5335   -2.9472    0.7374 O   0  0  0  0  0  0  0  0  0  0  0  0
   -1.0938   -0.7751    0.2982 N   0  0  0  0  0  0  0  0  0  0  0  0
   -1.9055   -0.1663    0.3033 H   0  0  0  0  0  0  0  0  0  0  0  0
    0.2268   -0.0966    0.3093 C   0  0  1  0  0  0  0  0  0  0  0  0
    0.0433    0.9293    0.6409 H   0  0  0  0  0  0  0  0  0  0  0  0
    1.2622   -0.6484    1.3101 C   0  0  0  0  0  0  0  0  0  0  0  0
    1.4728   -1.7054    1.1275 H   0  0  0  0  0  0  0  0  0  0  0  0
    2.2101   -0.1161    1.1790 H   0  0  0  0  0  0  0  0  0  0  0  0
    0.6720   -0.3746    3.0334 S   0  0  0  0  0  0  0  0  0  0  0  0
    1.6120   -1.0622    3.7188 H   0  0  0  0  0  0  0  0  0  0  0  0
    0.8079    0.0370   -1.1165 C   0  0  0  0  0  0  0  0  0  0  0  0
    1.8092   -0.5749   -1.4645 O   0  0  0  0  0  0  0  0  0  0  0  0
    0.2821    0.9824   -1.9804 N   0  0  0  0  0  0  0  0  0  0  0  0
   -0.5514    1.4787   -1.6837 H   0  0  0  0  0  0  0  0  0  0  0  0
    0.7975    1.2090   -3.3260 C   0  0  0  0  0  0  0  0  0  0  0  0
    0.7202    0.2951   -3.9247 H   0  0  0  0  0  0  0  0  0  0  0  0
    0.2251    1.9979   -3.8233 H   0  0  0  0  0  0  0  0  0  0  0  0
    1.8478    1.5169   -3.2880 H   0  0  0  0  0  0  0  0  0  0  0  0
  1  2  1  0  0  0  0
  2  3  1  0  0  0  0
  2  4  1  0  0  0  0
  2  5  1  0  0  0  0
  5  6  2  0  0  0  0
  5  7  1  0  0  0  0
  7  8  1  0  0  0  0
  7  9  1  0  0  0  0
  9 10  1  0  0  0  0
  9 11  1  0  0  0  0
  9 16  1  0  0  0  0
 11 12  1  0  0  0  0
 11 13  1  0  0  0  0
 11 14  1  0  0  0  0
 14 15  1  0  0  0  0
 16 17  2  0  0  0  0
 16 18  1  0  0  0  0
 18 19  1  0  0  0  0
 18 20  1  0  0  0  0
 20 21  1  0  0  0  0
 20 22  1  0  0  0  0
 20 23  1  0  0  0  0
M  END
$$$$

  -OEChem-01062216073D

 23 22  0     1  0  0  0  0  0999 V2000
   -2.9333   -3.4818    1.2077 H   0  0  0  0  0  0  0  0  0  0  0  0
   -2.8467   -2.4487    0.8589 C   0  0  0  0  0  0  0  0  0  0  0  0
   -3.3514   -1.7945    1.5737 H   0  0  0  0  0  0  0  0  0  0  0  0
   -3.3358   -2.3647   -0.1144 H   0  0  0  0  0  0  0  0  0  0  0  0
   -1.3853   -2.0578    0.7404 C   0  0  0  0  0  0  0  0  0  0  0  0
   -0.5394   -2.9106    0.9405 O   0  0  0  0  0  0  0  0  0  0  0  0
   -1.0827   -0.7630    0.3514 N   0  0  0  0  0  0  0  0  0  0  0  0
   -1.8968   -0.1728    0.2175 H   0  0  0  0  0  0  0  0  0  0  0  0
    0.2365   -0.0823    0.3350 C   0  0  1  0  0  0  0  0  0  0  0  0
    0.0562    0.9419    0.6736 H   0  0  0  0  0  0  0  0  0  0  0  0
    1.3028   -0.6288    1.3036 C   0  0  0  0  0  0  0  0  0  0  0  0
    1.5094   -1.6855    1.1123 H   0  0  0  0  0  0  0  0  0  0  0  0
    2.2449   -0.0945    1.1442 H   0  0  0  0  0  0  0  0  0  0  0  0
    0.7618   -0.3633    3.0443 S   0  0  0  0  0  0  0  0  0  0  0  0
    1.6699   -1.1231    3.6951 H   0  0  0  0  0  0  0  0  0  0  0  0
    0.7930    0.0429   -1.1000 C   0  0  0  0  0  0  0  0  0  0  0  0
    1.5752   -0.7777   -1.5594 O   0  0  0  0  0  0  0  0  0  0  0  0
    0.4888    1.1610   -1.8575 N   0  0  0  0  0  0  0  0  0  0  0  0
   -0.1337    1.8527   -1.4526 H   0  0  0  0  0  0  0  0  0  0  0  0
    1.0209    1.3878   -3.1963 C   0  0  0  0  0  0  0  0  0  0  0  0
    0.7270    0.5746   -3.8685 H   0  0  0  0  0  0  0  0  0  0  0  0
    0.6362    2.3279   -3.6032 H   0  0  0  0  0  0  0  0  0  0  0  0
    2.1142    1.4447   -3.1694 H   0  0  0  0  0  0  0  0  0  0  0  0
  1  2  1  0  0  0  0
  2  3  1  0  0  0  0
  2  4  1  0  0  0  0
  2  5  1  0  0  0  0
  5  6  2  0  0  0  0
  5  7  1  0  0  0  0
  7  8  1  0  0  0  0
  7  9  1  0  0  0  0
  9 10  1  0  0  0  0
  9 11  1  0  0  0  0
  9 16  1  0  0  0  0
 11 12  1  0  0  0  0
 11 13  1  0  0  0  0
 11 14  1  0  0  0  0
 14 15  1  0  0  0  0
 16 17  2  0  0  0  0
 16 18  1  0  0  0  0
 18 19  1  0  0  0  0
 18 20  1  0  0  0  0
 20 21  1  0  0  0  0
 20 22  1  0  0  0  0
 20 23  1  0  0  0  0
M  END
$$$$

  -OEChem-01062216073D

 23 22  0     1  0  0  0  0  0999 V2000
   -2.9499   -3.4752    1.1489 H   0  0  0  0  0  0  0  0  0  0  0  0
   -2.8497   -2.4455    0.7938 C   0  0  0  0  0  0  0  0  0  0  0  0
   -3.4248   -1.7905    1.4525 H   0  0  0  0  0  0  0  0  0  0  0  0
   -3.2541   -2.3830   -0.2193 H   0  0  0  0  0  0  0  0  0  0  0  0
   -1.3897   -2.0312    0.7952 C   0  0  0  0  0  0  0  0  0  0  0  0
   -0.5548   -2.8608    1.1093 O   0  0  0  0  0  0  0  0  0  0  0  0
   -1.0781   -0.7399    0.4002 N   0  0  0  0  0  0  0  0  0  0  0  0
   -1.8823   -0.1808    0.1359 H   0  0  0  0  0  0  0  0  0  0  0  0
    0.2426   -0.0630    0.3656 C   0  0  1  0  0  0  0  0  0  0  0  0
    0.0671    0.9588    0.7134 H   0  0  0  0  0  0  0  0  0  0  0  0
    1.3320   -0.6148    1.3028 C   0  0  0  0  0  0  0  0  0  0  0  0
    1.5292   -1.6705    1.0950 H   0  0  0  0  0  0  0  0  0  0  0  0
    2.2713   -0.0813    1.1255 H   0  0  0  0  0  0  0  0  0  0  0  0
    0.8363   -0.3661    3.0593 S   0  0  0  0  0  0  0  0  0  0  0  0
    1.7185   -1.1831    3.6755 H   0  0  0  0  0  0  0  0  0  0  0  0
    0.7843    0.0581   -1.0742 C   0  0  0  0  0  0  0  0  0  0  0  0
    1.2782   -0.8997   -1.6519 O   0  0  0  0  0  0  0  0  0  0  0  0
    0.7523    1.2802   -1.7237 N   0  0  0  0  0  0  0  0  0  0  0  0
    0.3745    2.0760   -1.2191 H   0  0  0  0  0  0  0  0  0  0  0  0
    1.2860    1.4848   -3.0656 C   0  0  0  0  0  0  0  0  0  0  0  0
    0.7919    0.8186   -3.7809 H   0  0  0  0  0  0  0  0  0  0  0  0
    1.1204    2.5179   -3.3860 H   0  0  0  0  0  0  0  0  0  0  0  0
    2.3627    1.2850   -3.0846 H   0  0  0  0  0  0  0  0  0  0  0  0
  1  2  1  0  0  0  0
  2  3  1  0  0  0  0
  2  4  1  0  0  0  0
  2  5  1  0  0  0  0
  5  6  2  0  0  0  0
  5  7  1  0  0  0  0
  7  8  1  0  0  0  0
  7  9  1  0  0  0  0
  9 10  1  0  0  0  0
  9 11  1  0  0  0  0
  9 16  1  0  0  0  0
 11 12  1  0  0  0  0
 11 13  1  0  0  0  0
 11 14  1  0  0  0  0
 14 15  1  0  0  0  0
 16 17  2  0  0  0  0
 16 18  1  0  0  0  0
 18 19  1  0  0  0  0
 18 20  1  0  0  0  0
 20 21  1  0  0  0  0
 20 22  1  0  0  0  0
 20 23  1  0  0  0  0
M  END
$$$$

  -OEChem-01062216073D

 23 22  0     1  0  0  0  0  0999 V2000
   -2.9471   -3.4763    1.1022 H   0  0  0  0  0  0  0  0  0  0  0  0
   -2.8419   -2.4455    0.7522 C   0  0  0  0  0  0  0  0  0  0  0  0
   -3.4602   -1.7978    1.3781 H   0  0  0  0  0  0  0  0  0  0  0  0
   -3.1916   -2.3891   -0.2814 H   0  0  0  0  0  0  0  0  0  0  0  0
   -1.3899   -2.0117    0.8322 C   0  0  0  0  0  0  0  0  0  0  0  0
   -0.5664   -2.8206    1.2233 O   0  0  0  0  0  0  0  0  0  0  0  0
   -1.0737   -0.7233    0.4317 N   0  0  0  0  0  0  0  0  0  0  0  0
   -1.8610   -0.1962    0.0687 H   0  0  0  0  0  0  0  0  0  0  0  0
    0.2504   -0.0540    0.3850 C   0  0  1  0  0  0  0  0  0  0  0  0
    0.0753    0.9680    0.7315 H   0  0  0  0  0  0  0  0  0  0  0  0
    1.3494   -0.6052    1.3099 C   0  0  0  0  0  0  0  0  0  0  0  0
    1.5375   -1.6624    1.1017 H   0  0  0  0  0  0  0  0  0  0  0  0
    2.2891   -0.0769    1.1205 H   0  0  0  0  0  0  0  0  0  0  0  0
    0.8782   -0.3519    3.0723 S   0  0  0  0  0  0  0  0  0  0  0  0
    1.7162   -1.2247    3.6736 H   0  0  0  0  0  0  0  0  0  0  0  0
    0.7885    0.0653   -1.0561 C   0  0  0  0  0  0  0  0  0  0  0  0
    0.9557   -0.9231   -1.7563 O   0  0  0  0  0  0  0  0  0  0  0  0
    1.0537    1.3131   -1.5931 N   0  0  0  0  0  0  0  0  0  0  0  0
    0.9326    2.1230   -0.9926 H   0  0  0  0  0  0  0  0  0  0  0  0
    1.5773    1.5069   -2.9405 C   0  0  0  0  0  0  0  0  0  0  0  0
    0.9001    1.0709   -3.6826 H   0  0  0  0  0  0  0  0  0  0  0  0
    1.6831    2.5745   -3.1559 H   0  0  0  0  0  0  0  0  0  0  0  0
    2.5599    1.0339   -3.0407 H   0  0  0  0  0  0  0  0  0  0  0  0
  1  2  1  0  0  0  0
  2  3  1  0  0  0  0
  2  4  1  0  0  0  0
  2  5  1  0  0  0  0
  5  6  2  0  0  0  0
  5  7  1  0  0  0  0
  7  8  1  0  0  0  0
  7  9  1  0  0  0  0
  9 10  1  0  0  0  0
  9 11  1  0  0  0  0
  9 16  1  0  0  0  0
 11 12  1  0  0  0  0
 11 13  1  0  0  0  0
 11 14  1  0  0  0  0
 14 15  1  0  0  0  0
 16 17  2  0  0  0  0
 16 18  1  0  0  0  0
 18 19  1  0  0  0  0
 18 20  1  0  0  0  0
 20 21  1  0  0  0  0
 20 22  1  0  0  0  0
 20 23  1  0  0  0  0
M  END
$$$$

  -OEChem-01062216073D

 23 22  0     1  0  0  0  0  0999 V2000
   -2.9412   -3.4749    1.0723 H   0  0  0  0  0  0  0  0  0  0  0  0
   -2.8313   -2.4450    0.7209 C   0  0  0  0  0  0  0  0  0  0  0  0
   -3.4822   -1.7999    1.3155 H   0  0  0  0  0  0  0  0  0  0  0  0
   -3.1369   -2.3973   -0.3271 H   0  0  0  0  0  0  0  0  0  0  0  0
   -1.3887   -1.9953    0.8598 C   0  0  0  0  0  0  0  0  0  0  0  0
   -0.5759   -2.7901    1.3008 O   0  0  0  0  0  0  0  0  0  0  0  0
   -1.0663   -0.7104    0.4535 N   0  0  0  0  0  0  0  0  0  0  0  0
   -1.8320   -0.2132    0.0102 H   0  0  0  0  0  0  0  0  0  0  0  0
    0.2631   -0.0516    0.4011 C   0  0  1  0  0  0  0  0  0  0  0  0
    0.0905    0.9739    0.7396 H   0  0  0  0  0  0  0  0  0  0  0  0
    1.3616   -0.6019    1.3272 C   0  0  0  0  0  0  0  0  0  0  0  0
    1.5411   -1.6622    1.1265 H   0  0  0  0  0  0  0  0  0  0  0  0
    2.3046   -0.0816    1.1328 H   0  0  0  0  0  0  0  0  0  0  0  0
    0.8987   -0.3333    3.0894 S   0  0  0  0  0  0  0  0  0  0  0  0
    1.6873   -1.2520    3.6892 H   0  0  0  0  0  0  0  0  0  0  0  0
    0.8032    0.0612   -1.0402 C   0  0  0  0  0  0  0  0  0  0  0  0
    0.6516   -0.8445   -1.8486 O   0  0  0  0  0  0  0  0  0  0  0  0
    1.3680    1.2483   -1.4729 N   0  0  0  0  0  0  0  0  0  0  0  0
    1.4857    1.9928   -0.7921 H   0  0  0  0  0  0  0  0  0  0  0  0
    1.8663    1.4481   -2.8292 C   0  0  0  0  0  0  0  0  0  0  0  0
    1.0640    1.2970   -3.5593 H   0  0  0  0  0  0  0  0  0  0  0  0
    2.2504    2.4662   -2.9455 H   0  0  0  0  0  0  0  0  0  0  0  0
    2.6775    0.7451   -3.0469 H   0  0  0  0  0  0  0  0  0  0  0  0
  1  2  1  0  0  0  0
  2  3  1  0  0  0  0
  2  4  1  0  0  0  0
  2  5  1  0  0  0  0
  5  6  2  0  0  0  0
  5  7  1  0  0  0  0
  7  8  1  0  0  0  0
  7  9  1  0  0  0  0
  9 10  1  0  0  0  0
  9 11  1  0  0  0  0
  9 16  1  0  0  0  0
 11 12  1  0  0  0  0
 11 13  1  0  0  0  0
 11 14  1  0  0  0  0
 14 15  1  0  0  0  0
 16 17  2  0  0  0  0
 16 18  1  0  0  0  0
 18 19  1  0  0  0  0
 18 20  1  0  0  0  0
 20 21  1  0  0  0  0
 20 22  1  0  0  0  0
 20 23  1  0  0  0  0
M  END
$$$$

  -OEChem-01062216073D

 23 22  0     1  0  0  0  0  0999 V2000
   -2.9446   -3.4677    1.0686 H   0  0  0  0  0  0  0  0  0  0  0  0
   -2.8256   -2.4417    0.7092 C   0  0  0  0  0  0  0  0  0  0  0  0
   -3.4886   -1.7895    1.2825 H   0  0  0  0  0  0  0  0  0  0  0  0
   -3.1084   -2.4048   -0.3457 H   0  0  0  0  0  0  0  0  0  0  0  0
   -1.3861   -1.9909    0.8744 C   0  0  0  0  0  0  0  0  0  0  0  0
   -0.5795   -2.7837    1.3306 O   0  0  0  0  0  0  0  0  0  0  0  0
   -1.0559   -0.7099    0.4637 N   0  0  0  0  0  0  0  0  0  0  0  0
   -1.8043   -0.2318   -0.0280 H   0  0  0  0  0  0  0  0  0  0  0  0
    0.2768   -0.0579    0.4084 C   0  0  1  0  0  0  0  0  0  0  0  0
    0.1084    0.9722    0.7353 H   0  0  0  0  0  0  0  0  0  0  0  0
    1.3678   -0.6070    1.3459 C   0  0  0  0  0  0  0  0  0  0  0  0
    1.5419   -1.6702    1.1577 H   0  0  0  0  0  0  0  0  0  0  0  0
    2.3161   -0.0957    1.1542 H   0  0  0  0  0  0  0  0  0  0  0  0
    0.8960   -0.3171    3.1023 S   0  0  0  0  0  0  0  0  0  0  0  0
    1.6473   -1.2576    3.7159 H   0  0  0  0  0  0  0  0  0  0  0  0
    0.8187    0.0477   -1.0341 C   0  0  0  0  0  0  0  0  0  0  0  0
    0.4153   -0.6932   -1.9213 O   0  0  0  0  0  0  0  0  0  0  0  0
    1.6563    1.0944   -1.3782 N   0  0  0  0  0  0  0  0  0  0  0  0
    1.9484    1.7290   -0.6408 H   0  0  0  0  0  0  0  0  0  0  0  0
    2.1455    1.3150   -2.7344 C   0  0  0  0  0  0  0  0  0  0  0  0
    1.3091    1.4759   -3.4228 H   0  0  0  0  0  0  0  0  0  0  0  0
    2.7920    2.1972   -2.7653 H   0  0  0  0  0  0  0  0  0  0  0  0
    2.7233    0.4506   -3.0783 H   0  0  0  0  0  0  0  0  0  0  0  0
  1  2  1  0  0  0  0
  2  3  1  0  0  0  0
  2  4  1  0  0  0  0
  2  5  1  0  0  0  0
  5  6  2  0  0  0  0
  5  7  1  0  0  0  0
  7  8  1  0  0  0  0
  7  9  1  0  0  0  0
  9 10  1  0  0  0  0
  9 11  1  0  0  0  0
  9 16  1  0  0  0  0
 11 12  1  0  0  0  0
 11 13  1  0  0  0  0
 11 14  1  0  0  0  0
 14 15  1  0  0  0  0
 16 17  2  0  0  0  0
 16 18  1  0  0  0  0
 18 19  1  0  0  0  0
 18 20  1  0  0  0  0
 20 21  1  0  0  0  0
 20 22  1  0  0  0  0
 20 23  1  0  0  0  0
M  END
$$$$

  -OEChem-01062216073D

 23 22  0     1  0  0  0  0  0999 V2000
   -2.9395   -3.4697    1.0527 H   0  0  0  0  0  0  0  0  0  0  0  0
   -2.8212   -2.4410    0.7006 C   0  0  0  0  0  0  0  0  0  0  0  0
   -3.4915   -1.7947    1.2721 H   0  0  0  0  0  0  0  0  0  0  0  0
   -3.0945   -2.3980   -0.3565 H   0  0  0  0  0  0  0  0  0  0  0  0
   -1.3847   -1.9871    0.8814 C   0  0  0  0  0  0  0  0  0  0  0  0
   -0.5801   -2.7824    1.3370 O   0  0  0  0  0  0  0  0  0  0  0  0
   -1.0502   -0.7065    0.4738 N   0  0  0  0  0  0  0  0  0  0  0  0
   -1.7883   -0.2360   -0.0412 H   0  0  0  0  0  0  0  0  0  0  0  0
    0.2831   -0.0556    0.4199 C   0  0  1  0  0  0  0  0  0  0  0  0
    0.1193    0.9764    0.7437 H   0  0  0  0  0  0  0  0  0  0  0  0
    1.3665   -0.6116    1.3653 C   0  0  0  0  0  0  0  0  0  0  0  0
    1.5373   -1.6753    1.1775 H   0  0  0  0  0  0  0  0  0  0  0  0
    2.3197   -0.1064    1.1855 H   0  0  0  0  0  0  0  0  0  0  0  0
    0.8856   -0.3197    3.1185 S   0  0  0  0  0  0  0  0  0  0  0  0
    1.6252   -1.2665    3.7363 H   0  0  0  0  0  0  0  0  0  0  0  0
    0.8192    0.0484   -1.0266 C   0  0  0  0  0  0  0  0  0  0  0  0
    0.2309   -0.4854   -1.9593 O   0  0  0  0  0  0  0  0  0  0  0  0
    1.8828    0.8864   -1.3148 N   0  0  0  0  0  0  0  0  0  0  0  0
    2.3277    1.3704   -0.5406 H   0  0  0  0  0  0  0  0  0  0  0  0
    2.3941    1.0972   -2.6644 C   0  0  0  0  0  0  0  0  0  0  0  0
    1.6175    1.5251   -3.3072 H   0  0  0  0  0  0  0  0  0  0  0  0
    3.2437    1.7864   -2.6443 H   0  0  0  0  0  0  0  0  0  0  0  0
    2.7288    0.1495   -3.0996 H   0  0  0  0  0  0  0  0  0  0  0  0
  1  2  1  0  0  0  0
  2  3  1  0  0  0  0
  2  4  1  0  0  0  0
  2  5  1  0  0  0  0
  5  6  2  0  0  0  0
  5  7  1  0  0  0  0
  7  8  1  0  0  0  0
  7  9  1  0  0  0  0
  9 10  1  0  0  0  0
  9 11  1  0  0  0  0
  9 16  1  0  0  0  0
 11 12  1  0  0  0  0
 11 13  1  0  0  0  0
 11 14  1  0  0  0  0
 14 15  1  0  0  0  0
 16 17  2  0  0  0  0
 16 18  1  0  0  0  0
 18 19  1  0  0  0  0
 18 20  1  0  0  0  0
 20 21  1  0  0  0  0
 20 22  1  0  0  0  0
 20 23  1  0  0  0  0
M  END
$$$$

  -OEChem-01062216073D

 23 22  0     1  0  0  0  0  0999 V2000
   -2.8564   -3.4676    1.0547 H   0  0  0  0  0  0  0  0  0  0  0  0
   -2.7193   -2.4359    0.7187 C   0  0  0  0  0  0  0  0  0  0  0  0
   -3.4070   -1.7919    1.2719 H   0  0  0  0  0  0  0  0  0  0  0  0
   -2.9549   -2.3798   -0.3469 H   0  0  0  0  0  0  0  0  0  0  0  0
   -1.2879   -1.9915    0.9563 C   0  0  0  0  0  0  0  0  0  0  0  0
   -0.5115   -2.7805    1.4671 O   0  0  0  0  0  0  0  0  0  0  0  0
   -0.9286   -0.7149    0.5616 N   0  0  0  0  0  0  0  0  0  0  0  0
   -1.6425   -0.2585   -0.0040 H   0  0  0  0  0  0  0  0  0  0  0  0
    0.4071   -0.0692    0.4710 C   0  0  1  0  0  0  0  0  0  0  0  0
    0.3337    0.8556    1.0510 H   0  0  0  0  0  0  0  0  0  0  0  0
    1.6209   -0.8228    1.0592 C   0  0  0  0  0  0  0  0  0  0  0  0
    1.7139   -1.8082    0.5904 H   0  0  0  0  0  0  0  0  0  0  0  0
    2.5436   -0.2743    0.8529 H   0  0  0  0  0  0  0  0  0  0  0  0
    1.4788   -1.0060    2.8834 S   0  0  0  0  0  0  0  0  0  0  0  0
    0.4893   -1.9351    2.8925 H   0  0  0  0  0  0  0  0  0  0  0  0
    0.6875    0.3739   -0.9860 C   0  0  0  0  0  0  0  0  0  0  0  0
   -0.1915    0.2785   -1.8360 O   0  0  0  0  0  0  0  0  0  0  0  0
    1.8712    1.0029   -1.3322 N   0  0  0  0  0  0  0  0  0  0  0  0
    2.5651    1.1405   -0.6032 H   0  0  0  0  0  0  0  0  0  0  0  0
    2.1433    1.5227   -2.6677 C   0  0  0  0  0  0  0  0  0  0  0  0
    1.4310    2.3142   -2.9237 H   0  0  0  0  0  0  0  0  0  0  0  0
    3.1541    1.9396   -2.7127 H   0  0  0  0  0  0  0  0  0  0  0  0
    2.0666    0.7247   -3.4140 H   0  0  0  0  0  0  0  0  0  0  0  0
  1  2  1  0  0  0  0
  2  3  1  0  0  0  0
  2  4  1  0  0  0  0
  2  5  1  0  0  0  0
  5  6  2  0  0  0  0
  5  7  1  0  0  0  0
  7  8  1  0  0  0  0
  7  9  1  0  0  0  0
  9 10  1  0  0  0  0
  9 11  1  0  0  0  0
  9 16  1  0  0  0  0
 11 12  1  0  0  0  0
 11 13  1  0  0  0  0
 11 14  1  0  0  0  0
 14 15  1  0  0  0  0
 16 17  2  0  0  0  0
 16 18  1  0  0  0  0
 18 19  1  0  0  0  0
 18 20  1  0  0  0  0
 20 21  1  0  0  0  0
 20 22  1  0  0  0  0
 20 23  1  0  0  0  0
M  END
$$$$

  -OEChem-01062216073D

 23 22  0     1  0  0  0  0  0999 V2000
   -2.8588   -3.4646    1.0446 H   0  0  0  0  0  0  0  0  0  0  0  0
   -2.7169   -2.4328    0.7106 C   0  0  0  0  0  0  0  0  0  0  0  0
   -3.3935   -1.7854    1.2735 H   0  0  0  0  0  0  0  0  0  0  0  0
   -2.9637   -2.3709   -0.3521 H   0  0  0  0  0  0  0  0  0  0  0  0
   -1.2799   -1.9994    0.9347 C   0  0  0  0  0  0  0  0  0  0  0  0
   -0.5013   -2.7979    1.4271 O   0  0  0  0  0  0  0  0  0  0  0  0
   -0.9170   -0.7203    0.5522 N   0  0  0  0  0  0  0  0  0  0  0  0
   -1.6341   -0.2437    0.0069 H   0  0  0  0  0  0  0  0  0  0  0  0
    0.4157   -0.0663    0.4866 C   0  0  1  0  0  0  0  0  0  0  0  0
    0.3316    0.8588    1.0646 H   0  0  0  0  0  0  0  0  0  0  0  0
    1.6181   -0.8191    1.0997 C   0  0  0  0  0  0  0  0  0  0  0  0
    1.7289   -1.8021    0.6301 H   0  0  0  0  0  0  0  0  0  0  0  0
    2.5424   -0.2632    0.9230 H   0  0  0  0  0  0  0  0  0  0  0  0
    1.4326   -1.0034    2.9196 S   0  0  0  0  0  0  0  0  0  0  0  0
    0.4557   -1.9455    2.9029 H   0  0  0  0  0  0  0  0  0  0  0  0
    0.7012    0.3780   -0.9706 C   0  0  0  0  0  0  0  0  0  0  0  0
   -0.2316    0.4919   -1.7593 O   0  0  0  0  0  0  0  0  0  0  0  0
    1.9681    0.7355   -1.4006 N   0  0  0  0  0  0  0  0  0  0  0  0
    2.7328    0.6657   -0.7361 H   0  0  0  0  0  0  0  0  0  0  0  0
    2.2544    1.1972   -2.7542 C   0  0  0  0  0  0  0  0  0  0  0  0
    1.6969    2.1140   -2.9733 H   0  0  0  0  0  0  0  0  0  0  0  0
    3.3224    1.4081   -2.8645 H   0  0  0  0  0  0  0  0  0  0  0  0
    1.9762    0.4322   -3.4869 H   0  0  0  0  0  0  0  0  0  0  0  0
  1  2  1  0  0  0  0
  2  3  1  0  0  0  0
  2  4  1  0  0  0  0
  2  5  1  0  0  0  0
  5  6  2  0  0  0  0
  5  7  1  0  0  0  0
  7  8  1  0  0  0  0
  7  9  1  0  0  0  0
  9 10  1  0  0  0  0
  9 11  1  0  0  0  0
  9 16  1  0  0  0  0
 11 12  1  0  0  0  0
 11 13  1  0  0  0  0
 11 14  1  0  0  0  0
 14 15  1  0  0  0  0
 16 17  2  0  0  0  0
 16 18  1  0  0  0  0
 18 19  1  0  0  0  0
 18 20  1  0  0  0  0
 20 21  1  0  0  0  0
 20 22  1  0  0  0  0
 20 23  1  0  0  0  0
M  END
$$$$

  -OEChem-01062216073D

 23 22  0     1  0  0  0  0  0999 V2000
   -2.8463   -3.4696    1.0325 H   0  0  0  0  0  0  0  0  0  0  0  0
   -2.7108   -2.4327    0.7119 C   0  0  0  0  0  0  0  0  0  0  0  0
   -3.3756   -1.7936    1.2980 H   0  0  0  0  0  0  0  0  0  0  0  0
   -2.9781   -2.3544   -0.3448 H   0  0  0  0  0  0  0  0  0  0  0  0
   -1.2698   -2.0043    0.9154 C   0  0  0  0  0  0  0  0  0  0  0  0
   -0.4834   -2.8083    1.3865 O   0  0  0  0  0  0  0  0  0  0  0  0
   -0.9081   -0.7238    0.5371 N   0  0  0  0  0  0  0  0  0  0  0  0
   -1.6357   -0.2241    0.0277 H   0  0  0  0  0  0  0  0  0  0  0  0
    0.4210   -0.0631    0.4919 C   0  0  1  0  0  0  0  0  0  0  0  0
    0.3253    0.8651    1.0637 H   0  0  0  0  0  0  0  0  0  0  0  0
    1.6164   -0.8070    1.1275 C   0  0  0  0  0  0  0  0  0  0  0  0
    1.7468   -1.7898    0.6624 H   0  0  0  0  0  0  0  0  0  0  0  0
    2.5363   -0.2378    0.9686 H   0  0  0  0  0  0  0  0  0  0  0  0
    1.3967   -0.9857    2.9439 S   0  0  0  0  0  0  0  0  0  0  0  0
    0.4265   -1.9344    2.9111 H   0  0  0  0  0  0  0  0  0  0  0  0
    0.7125    0.3744   -0.9656 C   0  0  0  0  0  0  0  0  0  0  0  0
   -0.2257    0.6992   -1.6857 O   0  0  0  0  0  0  0  0  0  0  0  0
    1.9943    0.4491   -1.4847 N   0  0  0  0  0  0  0  0  0  0  0  0
    2.7641    0.1560   -0.8913 H   0  0  0  0  0  0  0  0  0  0  0  0
    2.2807    0.8518   -2.8569 C   0  0  0  0  0  0  0  0  0  0  0  0
    1.9335    1.8748   -3.0365 H   0  0  0  0  0  0  0  0  0  0  0  0
    3.3581    0.8148   -3.0449 H   0  0  0  0  0  0  0  0  0  0  0  0
    1.7832    0.1814   -3.5657 H   0  0  0  0  0  0  0  0  0  0  0  0
  1  2  1  0  0  0  0
  2  3  1  0  0  0  0
  2  4  1  0  0  0  0
  2  5  1  0  0  0  0
  5  6  2  0  0  0  0
  5  7  1  0  0  0  0
  7  8  1  0  0  0  0
  7  9  1  0  0  0  0
  9 10  1  0  0  0  0
  9 11  1  0  0  0  0
  9 16  1  0  0  0  0
 11 12  1  0  0  0  0
 11 13  1  0  0  0  0
 11 14  1  0  0  0  0
 14 15  1  0  0  0  0
 16 17  2  0  0  0  0
 16 18  1  0  0  0  0
 18 19  1  0  0  0  0
 18 20  1  0  0  0  0
 20 21  1  0  0  0  0
 20 22  1  0  0  0  0
 20 23  1  0  0  0  0
M  END
$$$$

  -OEChem-01062216073D

 23 22  0     1  0  0  0  0  0999 V2000
   -2.9670   -3.4380    1.0501 H   0  0  0  0  0  0  0  0  0  0  0  0
   -2.8334   -2.3995    0.7343 C   0  0  0  0  0  0  0  0  0  0  0  0
   -3.3844   -1.7510    1.4196 H   0  0  0  0  0  0  0  0  0  0  0  0
   -3.2388   -2.2828   -0.2736 H   0  0  0  0  0  0  0  0  0  0  0  0
   -1.3610   -2.0333    0.7461 C   0  0  0  0  0  0  0  0  0  0  0  0
   -0.5431   -2.9095    0.9738 O   0  0  0  0  0  0  0  0  0  0  0  0
   -1.0016   -0.7461    0.3873 N   0  0  0  0  0  0  0  0  0  0  0  0
   -1.7700   -0.1649    0.0602 H   0  0  0  0  0  0  0  0  0  0  0  0
    0.3247   -0.0836    0.4086 C   0  0  1  0  0  0  0  0  0  0  0  0
    0.1845    0.8490    0.9638 H   0  0  0  0  0  0  0  0  0  0  0  0
    1.4648   -0.8060    1.1558 C   0  0  0  0  0  0  0  0  0  0  0  0
    1.6234   -1.8054    0.7401 H   0  0  0  0  0  0  0  0  0  0  0  0
    2.4000   -0.2497    1.0399 H   0  0  0  0  0  0  0  0  0  0  0  0
    1.0865   -0.9022    2.9566 S   0  0  0  0  0  0  0  0  0  0  0  0
    1.8605   -1.9476    3.3210 H   0  0  0  0  0  0  0  0  0  0  0  0
    0.7043    0.3666   -1.0207 C   0  0  0  0  0  0  0  0  0  0  0  0
   -0.1352    0.9452   -1.7007 O   0  0  0  0  0  0  0  0  0  0  0  0
    1.9646    0.1608   -1.5565 N   0  0  0  0  0  0  0  0  0  0  0  0
    2.6092   -0.4152   -1.0245 H   0  0  0  0  0  0  0  0  0  0  0  0
    2.3166    0.5227   -2.9249 C   0  0  0  0  0  0  0  0  0  0  0  0
    2.1679    1.5953   -3.0891 H   0  0  0  0  0  0  0  0  0  0  0  0
    3.3673    0.2878   -3.1202 H   0  0  0  0  0  0  0  0  0  0  0  0
    1.6986   -0.0318   -3.6391 H   0  0  0  0  0  0  0  0  0  0  0  0
  1  2  1  0  0  0  0
  2  3  1  0  0  0  0
  2  4  1  0  0  0  0
  2  5  1  0  0  0  0
  5  6  2  0  0  0  0
  5  7  1  0  0  0  0
  7  8  1  0  0  0  0
  7  9  1  0  0  0  0
  9 10  1  0  0  0  0
  9 11  1  0  0  0  0
  9 16  1  0  0  0  0
 11 12  1  0  0  0  0
 11 13  1  0  0  0  0
 11 14  1  0  0  0  0
 14 15  1  0  0  0  0
 16 17  2  0  0  0  0
 16 18  1  0  0  0  0
 18 19  1  0  0  0  0
 18 20  1  0  0  0  0
 20 21  1  0  0  0  0
 20 22  1  0  0  0  0
 20 23  1  0  0  0  0
M  END
$$$$

  -OEChem-01062216073D

 23 22  0     1  0  0  0  0  0999 V2000
   -2.9721   -3.4344    1.0847 H   0  0  0  0  0  0  0  0  0  0  0  0
   -2.8454   -2.3958    0.7667 C   0  0  0  0  0  0  0  0  0  0  0  0
   -3.3501   -1.7454    1.4851 H   0  0  0  0  0  0  0  0  0  0  0  0
   -3.3052   -2.2693   -0.2164 H   0  0  0  0  0  0  0  0  0  0  0  0
   -1.3709   -2.0450    0.6983 C   0  0  0  0  0  0  0  0  0  0  0  0
   -0.5482   -2.9332    0.8496 O   0  0  0  0  0  0  0  0  0  0  0  0
   -1.0152   -0.7553    0.3461 N   0  0  0  0  0  0  0  0  0  0  0  0
   -1.7957   -0.1461    0.1136 H   0  0  0  0  0  0  0  0  0  0  0  0
    0.3117   -0.0969    0.3870 C   0  0  1  0  0  0  0  0  0  0  0  0
    0.1653    0.8339    0.9443 H   0  0  0  0  0  0  0  0  0  0  0  0
    1.4451   -0.8194    1.1441 C   0  0  0  0  0  0  0  0  0  0  0  0
    1.6127   -1.8183    0.7312 H   0  0  0  0  0  0  0  0  0  0  0  0
    2.3787   -0.2588    1.0332 H   0  0  0  0  0  0  0  0  0  0  0  0
    1.0473   -0.9205    2.9402 S   0  0  0  0  0  0  0  0  0  0  0  0
    1.9553   -1.8323    3.3507 H   0  0  0  0  0  0  0  0  0  0  0  0
    0.7144    0.3581   -1.0312 C   0  0  0  0  0  0  0  0  0  0  0  0
   -0.0118    1.1422   -1.6296 O   0  0  0  0  0  0  0  0  0  0  0  0
    1.8591   -0.1076   -1.6553 N   0  0  0  0  0  0  0  0  0  0  0  0
    2.3555   -0.8679   -1.2005 H   0  0  0  0  0  0  0  0  0  0  0  0
    2.2055    0.2284   -3.0313 C   0  0  0  0  0  0  0  0  0  0  0  0
    2.2807    1.3140   -3.1543 H   0  0  0  0  0  0  0  0  0  0  0  0
    3.1699   -0.2146   -3.2977 H   0  0  0  0  0  0  0  0  0  0  0  0
    1.4454   -0.1527   -3.7214 H   0  0  0  0  0  0  0  0  0  0  0  0
  1  2  1  0  0  0  0
  2  3  1  0  0  0  0
  2  4  1  0  0  0  0
  2  5  1  0  0  0  0
  5  6  2  0  0  0  0
  5  7  1  0  0  0  0
  7  8  1  0  0  0  0
  7  9  1  0  0  0  0
  9 10  1  0  0  0  0
  9 11  1  0  0  0  0
  9 16  1  0  0  0  0
 11 12  1  0  0  0  0
 11 13  1  0  0  0  0
 11 14  1  0  0  0  0
 14 15  1  0  0  0  0
 16 17  2  0  0  0  0
 16 18  1  0  0  0  0
 18 19  1  0  0  0  0
 18 20  1  0  0  0  0
 20 21  1  0  0  0  0
 20 22  1  0  0  0  0
 20 23  1  0  0  0  0
M  END
$$$$

  -OEChem-01062216073D

 23 22  0     1  0  0  0  0  0999 V2000
   -2.9569   -3.4307    1.1400 H   0  0  0  0  0  0  0  0  0  0  0  0
   -2.8450   -2.3945    0.8086 C   0  0  0  0  0  0  0  0  0  0  0  0
   -3.3125   -1.7385    1.5469 H   0  0  0  0  0  0  0  0  0  0  0  0
   -3.3529   -2.2742   -0.1513 H   0  0  0  0  0  0  0  0  0  0  0  0
   -1.3751   -2.0480    0.6639 C   0  0  0  0  0  0  0  0  0  0  0  0
   -0.5486   -2.9421    0.7433 O   0  0  0  0  0  0  0  0  0  0  0  0
   -1.0284   -0.7567    0.3098 N   0  0  0  0  0  0  0  0  0  0  0  0
   -1.8169   -0.1312    0.1654 H   0  0  0  0  0  0  0  0  0  0  0  0
    0.2984   -0.1005    0.3663 C   0  0  1  0  0  0  0  0  0  0  0  0
    0.1482    0.8291    0.9250 H   0  0  0  0  0  0  0  0  0  0  0  0
    1.4278   -0.8238    1.1275 C   0  0  0  0  0  0  0  0  0  0  0  0
    1.6046   -1.8203    0.7131 H   0  0  0  0  0  0  0  0  0  0  0  0
    2.3591   -0.2581    1.0210 H   0  0  0  0  0  0  0  0  0  0  0  0
    1.0170   -0.9347    2.9201 S   0  0  0  0  0  0  0  0  0  0  0  0
    1.9705   -1.7913    3.3468 H   0  0  0  0  0  0  0  0  0  0  0  0
    0.7220    0.3509   -1.0445 C   0  0  0  0  0  0  0  0  0  0  0  0
    0.1661    1.3141   -1.5562 O   0  0  0  0  0  0  0  0  0  0  0  0
    1.6863   -0.3352   -1.7615 N   0  0  0  0  0  0  0  0  0  0  0  0
    1.9821   -1.2312   -1.3839 H   0  0  0  0  0  0  0  0  0  0  0  0
    2.0205   -0.0171   -3.1447 C   0  0  0  0  0  0  0  0  0  0  0  0
    2.3258    1.0308   -3.2354 H   0  0  0  0  0  0  0  0  0  0  0  0
    2.8479   -0.6454   -3.4884 H   0  0  0  0  0  0  0  0  0  0  0  0
    1.1580   -0.1899   -3.7969 H   0  0  0  0  0  0  0  0  0  0  0  0
  1  2  1  0  0  0  0
  2  3  1  0  0  0  0
  2  4  1  0  0  0  0
  2  5  1  0  0  0  0
  5  6  2  0  0  0  0
  5  7  1  0  0  0  0
  7  8  1  0  0  0  0
  7  9  1  0  0  0  0
  9 10  1  0  0  0  0
  9 11  1  0  0  0  0
  9 16  1  0  0  0  0
 11 12  1  0  0  0  0
 11 13  1  0  0  0  0
 11 14  1  0  0  0  0
 14 15  1  0  0  0  0
 16 17  2  0  0  0  0
 16 18  1  0  0  0  0
 18 19  1  0  0  0  0
 18 20  1  0  0  0  0
 20 21  1  0  0  0  0
 20 22  1  0  0  0  0
 20 23  1  0  0  0  0
M  END
$$$$

  -OEChem-01062216073D

 23 22  0     1  0  0  0  0  0999 V2000
   -2.9320   -3.4493    1.1600 H   0  0  0  0  0  0  0  0  0  0  0  0
   -2.8375   -2.3986    0.8717 C   0  0  0  0  0  0  0  0  0  0  0  0
   -3.2387   -1.7776    1.6763 H   0  0  0  0  0  0  0  0  0  0  0  0
   -3.4192   -2.2284   -0.0374 H   0  0  0  0  0  0  0  0  0  0  0  0
   -1.3808   -2.0524    0.6287 C   0  0  0  0  0  0  0  0  0  0  0  0
   -0.5510   -2.9471    0.6279 O   0  0  0  0  0  0  0  0  0  0  0  0
   -1.0517   -0.7591    0.2667 N   0  0  0  0  0  0  0  0  0  0  0  0
   -1.8463   -0.1282    0.2035 H   0  0  0  0  0  0  0  0  0  0  0  0
    0.2729   -0.0992    0.3379 C   0  0  1  0  0  0  0  0  0  0  0  0
    0.1154    0.8295    0.8962 H   0  0  0  0  0  0  0  0  0  0  0  0
    1.4023   -0.8199    1.1005 C   0  0  0  0  0  0  0  0  0  0  0  0
    1.5925   -1.8117    0.6814 H   0  0  0  0  0  0  0  0  0  0  0  0
    2.3292   -0.2454    1.0011 H   0  0  0  0  0  0  0  0  0  0  0  0
    0.9811   -0.9448    2.8896 S   0  0  0  0  0  0  0  0  0  0  0  0
    1.9592   -1.7708    3.3215 H   0  0  0  0  0  0  0  0  0  0  0  0
    0.7165    0.3445   -1.0669 C   0  0  0  0  0  0  0  0  0  0  0  0
    0.3914    1.4463   -1.4889 O   0  0  0  0  0  0  0  0  0  0  0  0
    1.4507   -0.5086   -1.8702 N   0  0  0  0  0  0  0  0  0  0  0  0
    1.5278   -1.4719   -1.5521 H   0  0  0  0  0  0  0  0  0  0  0  0
    1.7912   -0.1986   -3.2531 C   0  0  0  0  0  0  0  0  0  0  0  0
    2.3531    0.7398   -3.3091 H   0  0  0  0  0  0  0  0  0  0  0  0
    2.4102   -0.9950   -3.6774 H   0  0  0  0  0  0  0  0  0  0  0  0
    0.8841   -0.1027   -3.8588 H   0  0  0  0  0  0  0  0  0  0  0  0
  1  2  1  0  0  0  0
  2  3  1  0  0  0  0
  2  4  1  0  0  0  0
  2  5  1  0  0  0  0
  5  6  2  0  0  0  0
  5  7  1  0  0  0  0
  7  8  1  0  0  0  0
  7  9  1  0  0  0  0
  9 10  1  0  0  0  0
  9 11  1  0  0  0  0
  9 16  1  0  0  0  0
 11 12  1  0  0  0  0
 11 13  1  0  0  0  0
 11 14  1  0  0  0  0
 14 15  1  0  0  0  0
 16 17  2  0  0  0  0
 16 18  1  0  0  0  0
 18 19  1  0  0  0  0
 18 20  1  0  0  0  0
 20 21  1  0  0  0  0
 20 22  1  0  0  0  0
 20 23  1  0  0  0  0
M  END
$$$$

  -OEChem-01062216073D

 23 22  0     1  0  0  0  0  0999 V2000
   -2.9112   -3.4550    1.2194 H   0  0  0  0  0  0  0  0  0  0  0  0
   -2.8319   -2.4007    0.9396 C   0  0  0  0  0  0  0  0  0  0  0  0
   -3.1747   -1.7897    1.7782 H   0  0  0  0  0  0  0  0  0  0  0  0
   -3.4737   -2.2159    0.0748 H   0  0  0  0  0  0  0  0  0  0  0  0
   -1.3934   -2.0561    0.6030 C   0  0  0  0  0  0  0  0  0  0  0  0
   -0.5691   -2.9519    0.5179 O   0  0  0  0  0  0  0  0  0  0  0  0
   -1.0806   -0.7613    0.2338 N   0  0  0  0  0  0  0  0  0  0  0  0
   -1.8771   -0.1300    0.2417 H   0  0  0  0  0  0  0  0  0  0  0  0
    0.2424   -0.0976    0.3140 C   0  0  1  0  0  0  0  0  0  0  0  0
    0.0830    0.8297    0.8743 H   0  0  0  0  0  0  0  0  0  0  0  0
    1.3732   -0.8230    1.0689 C   0  0  0  0  0  0  0  0  0  0  0  0
    1.5702   -1.8082    0.6371 H   0  0  0  0  0  0  0  0  0  0  0  0
    2.2973   -0.2425    0.9763 H   0  0  0  0  0  0  0  0  0  0  0  0
    0.9512   -0.9707    2.8564 S   0  0  0  0  0  0  0  0  0  0  0  0
    1.9618   -1.7553    3.2900 H   0  0  0  0  0  0  0  0  0  0  0  0
    0.6985    0.3406   -1.0867 C   0  0  0  0  0  0  0  0  0  0  0  0
    0.6446    1.5177   -1.4155 O   0  0  0  0  0  0  0  0  0  0  0  0
    1.1611   -0.6062   -1.9807 N   0  0  0  0  0  0  0  0  0  0  0  0
    1.0467   -1.5804   -1.7067 H   0  0  0  0  0  0  0  0  0  0  0  0
    1.5245   -0.2954   -3.3571 C   0  0  0  0  0  0  0  0  0  0  0  0
    2.3058    0.4717   -3.3837 H   0  0  0  0  0  0  0  0  0  0  0  0
    1.9047   -1.1905   -3.8588 H   0  0  0  0  0  0  0  0  0  0  0  0
    0.6531    0.0704   -3.9102 H   0  0  0  0  0  0  0  0  0  0  0  0
  1  2  1  0  0  0  0
  2  3  1  0  0  0  0
  2  4  1  0  0  0  0
  2  5  1  0  0  0  0
  5  6  2  0  0  0  0
  5  7  1  0  0  0  0
  7  8  1  0  0  0  0
  7  9  1  0  0  0  0
  9 10  1  0  0  0  0
  9 11  1  0  0  0  0
  9 16  1  0  0  0  0
 11 12  1  0  0  0  0
 11 13  1  0  0  0  0
 11 14  1  0  0  0  0
 14 15  1  0  0  0  0
 16 17  2  0  0  0  0
 16 18  1  0  0  0  0
 18 19  1  0  0  0  0
 18 20  1  0  0  0  0
 20 21  1  0  0  0  0
 20 22  1  0  0  0  0
 20 23  1  0  0  0  0
M  END
$$$$

  -OEChem-01062216073D

 23 22  0     1  0  0  0  0  0999 V2000
   -2.8947   -3.4656    1.2689 H   0  0  0  0  0  0  0  0  0  0  0  0
   -2.8286   -2.4077    0.9994 C   0  0  0  0  0  0  0  0  0  0  0  0
   -3.1320   -1.8080    1.8609 H   0  0  0  0  0  0  0  0  0  0  0  0
   -3.5095   -2.2125    0.1677 H   0  0  0  0  0  0  0  0  0  0  0  0
   -1.4070   -2.0586    0.6014 C   0  0  0  0  0  0  0  0  0  0  0  0
   -0.5893   -2.9528    0.4592 O   0  0  0  0  0  0  0  0  0  0  0  0
   -1.1095   -0.7628    0.2237 N   0  0  0  0  0  0  0  0  0  0  0  0
   -1.9065   -0.1345    0.2784 H   0  0  0  0  0  0  0  0  0  0  0  0
    0.2126   -0.0937    0.2979 C   0  0  1  0  0  0  0  0  0  0  0  0
    0.0541    0.8327    0.8600 H   0  0  0  0  0  0  0  0  0  0  0  0
    1.3496   -0.8212    1.0390 C   0  0  0  0  0  0  0  0  0  0  0  0
    1.5464   -1.8019    0.5969 H   0  0  0  0  0  0  0  0  0  0  0  0
    2.2713   -0.2373    0.9441 H   0  0  0  0  0  0  0  0  0  0  0  0
    0.9396   -0.9825    2.8282 S   0  0  0  0  0  0  0  0  0  0  0  0
    1.9602   -1.7602    3.2512 H   0  0  0  0  0  0  0  0  0  0  0  0
    0.6692    0.3427   -1.1026 C   0  0  0  0  0  0  0  0  0  0  0  0
    0.9008    1.5192   -1.3442 O   0  0  0  0  0  0  0  0  0  0  0  0
    0.8362   -0.6123   -2.0866 N   0  0  0  0  0  0  0  0  0  0  0  0
    0.5679   -1.5655   -1.8467 H   0  0  0  0  0  0  0  0  0  0  0  0
    1.2338   -0.3019   -3.4533 C   0  0  0  0  0  0  0  0  0  0  0  0
    2.1960    0.2211   -3.4629 H   0  0  0  0  0  0  0  0  0  0  0  0
    1.3366   -1.2228   -4.0354 H   0  0  0  0  0  0  0  0  0  0  0  0
    0.4828    0.3322   -3.9360 H   0  0  0  0  0  0  0  0  0  0  0  0
  1  2  1  0  0  0  0
  2  3  1  0  0  0  0
  2  4  1  0  0  0  0
  2  5  1  0  0  0  0
  5  6  2  0  0  0  0
  5  7  1  0  0  0  0
  7  8  1  0  0  0  0
  7  9  1  0  0  0  0
  9 10  1  0  0  0  0
  9 11  1  0  0  0  0
  9 16  1  0  0  0  0
 11 12  1  0  0  0  0
 11 13  1  0  0  0  0
 11 14  1  0  0  0  0
 14 15  1  0  0  0  0
 16 17  2  0  0  0  0
 16 18  1  0  0  0  0
 18 19  1  0  0  0  0
 18 20  1  0  0  0  0
 20 21  1  0  0  0  0
 20 22  1  0  0  0  0
 20 23  1  0  0  0  0
M  END
$$$$

  -OEChem-01062216073D

 23 22  0     1  0  0  0  0  0999 V2000
   -2.8795   -3.4835    1.3215 H   0  0  0  0  0  0  0  0  0  0  0  0
   -2.8259   -2.4223    1.0618 C   0  0  0  0  0  0  0  0  0  0  0  0
   -3.0919   -1.8331    1.9427 H   0  0  0  0  0  0  0  0  0  0  0  0
   -3.5425   -2.2179    0.2628 H   0  0  0  0  0  0  0  0  0  0  0  0
   -1.4230   -2.0668    0.6074 C   0  0  0  0  0  0  0  0  0  0  0  0
   -0.6110   -2.9575    0.4207 O   0  0  0  0  0  0  0  0  0  0  0  0
   -1.1433   -0.7683    0.2258 N   0  0  0  0  0  0  0  0  0  0  0  0
   -1.9418   -0.1463    0.3171 H   0  0  0  0  0  0  0  0  0  0  0  0
    0.1757   -0.0882    0.2851 C   0  0  1  0  0  0  0  0  0  0  0  0
    0.0183    0.8353    0.8521 H   0  0  0  0  0  0  0  0  0  0  0  0
    1.3242   -0.8160    1.0072 C   0  0  0  0  0  0  0  0  0  0  0  0
    1.5200   -1.7920    0.5540 H   0  0  0  0  0  0  0  0  0  0  0  0
    2.2422   -0.2272    0.9056 H   0  0  0  0  0  0  0  0  0  0  0  0
    0.9371   -0.9918    2.8003 S   0  0  0  0  0  0  0  0  0  0  0  0
    1.9726   -1.7599    3.2046 H   0  0  0  0  0  0  0  0  0  0  0  0
    0.6249    0.3576   -1.1159 C   0  0  0  0  0  0  0  0  0  0  0  0
    1.1234    1.4614   -1.2865 O   0  0  0  0  0  0  0  0  0  0  0  0
    0.5000   -0.5154   -2.1791 N   0  0  0  0  0  0  0  0  0  0  0  0
    0.1239   -1.4383   -1.9677 H   0  0  0  0  0  0  0  0  0  0  0  0
    0.9538   -0.2161   -3.5306 C   0  0  0  0  0  0  0  0  0  0  0  0
    2.0329   -0.0299   -3.5400 H   0  0  0  0  0  0  0  0  0  0  0  0
    0.7420   -1.0590   -4.1957 H   0  0  0  0  0  0  0  0  0  0  0  0
    0.4402    0.6692   -3.9199 H   0  0  0  0  0  0  0  0  0  0  0  0
  1  2  1  0  0  0  0
  2  3  1  0  0  0  0
  2  4  1  0  0  0  0
  2  5  1  0  0  0  0
  5  6  2  0  0  0  0
  5  7  1  0  0  0  0
  7  8  1  0  0  0  0
  7  9  1  0  0  0  0
  9 10  1  0  0  0  0
  9 11  1  0  0  0  0
  9 16  1  0  0  0  0
 11 12  1  0  0  0  0
 11 13  1  0  0  0  0
 11 14  1  0  0  0  0
 14 15  1  0  0  0  0
 16 17  2  0  0  0  0
 16 18  1  0  0  0  0
 18 19  1  0  0  0  0
 18 20  1  0  0  0  0
 20 21  1  0  0  0  0
 20 22  1  0  0  0  0
 20 23  1  0  0  0  0
M  END
$$$$

  -OEChem-01062216073D

 23 22  0     1  0  0  0  0  0999 V2000
   -2.8695   -3.4988    1.3534 H   0  0  0  0  0  0  0  0  0  0  0  0
   -2.8222   -2.4359    1.0997 C   0  0  0  0  0  0  0  0  0  0  0  0
   -3.0668   -1.8527    1.9909 H   0  0  0  0  0  0  0  0  0  0  0  0
   -3.5580   -2.2261    0.3199 H   0  0  0  0  0  0  0  0  0  0  0  0
   -1.4310   -2.0767    0.6137 C   0  0  0  0  0  0  0  0  0  0  0  0
   -0.6236   -2.9656    0.4028 O   0  0  0  0  0  0  0  0  0  0  0  0
   -1.1632   -0.7748    0.2339 N   0  0  0  0  0  0  0  0  0  0  0  0
   -1.9621   -0.1580    0.3515 H   0  0  0  0  0  0  0  0  0  0  0  0
    0.1536   -0.0866    0.2807 C   0  0  1  0  0  0  0  0  0  0  0  0
   -0.0030    0.8334    0.8530 H   0  0  0  0  0  0  0  0  0  0  0  0
    1.3086   -0.8166    0.9914 C   0  0  0  0  0  0  0  0  0  0  0  0
    1.5024   -1.7899    0.5315 H   0  0  0  0  0  0  0  0  0  0  0  0
    2.2256   -0.2266    0.8862 H   0  0  0  0  0  0  0  0  0  0  0  0
    0.9364   -0.9996    2.7872 S   0  0  0  0  0  0  0  0  0  0  0  0
    1.9927   -1.7429    3.1845 H   0  0  0  0  0  0  0  0  0  0  0  0
    0.5984    0.3743   -1.1190 C   0  0  0  0  0  0  0  0  0  0  0  0
    1.3196    1.3541   -1.2459 O   0  0  0  0  0  0  0  0  0  0  0  0
    0.2056   -0.3381   -2.2358 N   0  0  0  0  0  0  0  0  0  0  0  0
   -0.2882   -1.2106   -2.0582 H   0  0  0  0  0  0  0  0  0  0  0  0
    0.6741   -0.0442   -3.5838 C   0  0  0  0  0  0  0  0  0  0  0  0
    1.7586   -0.1803   -3.6510 H   0  0  0  0  0  0  0  0  0  0  0  0
    0.1946   -0.7135   -4.3045 H   0  0  0  0  0  0  0  0  0  0  0  0
    0.4308    0.9877   -3.8583 H   0  0  0  0  0  0  0  0  0  0  0  0
  1  2  1  0  0  0  0
  2  3  1  0  0  0  0
  2  4  1  0  0  0  0
  2  5  1  0  0  0  0
  5  6  2  0  0  0  0
  5  7  1  0  0  0  0
  7  8  1  0  0  0  0
  7  9  1  0  0  0  0
  9 10  1  0  0  0  0
  9 11  1  0  0  0  0
  9 16  1  0  0  0  0
 11 12  1  0  0  0  0
 11 13  1  0  0  0  0
 11 14  1  0  0  0  0
 14 15  1  0  0  0  0
 16 17  2  0  0  0  0
 16 18  1  0  0  0  0
 18 19  1  0  0  0  0
 18 20  1  0  0  0  0
 20 21  1  0  0  0  0
 20 22  1  0  0  0  0
 20 23  1  0  0  0  0
M  END
$$$$

  -OEChem-01062216073D

 23 22  0     1  0  0  0  0  0999 V2000
   -2.8610   -3.5105    1.3631 H   0  0  0  0  0  0  0  0  0  0  0  0
   -2.8173   -2.4474    1.1098 C   0  0  0  0  0  0  0  0  0  0  0  0
   -3.0613   -1.8658    2.0021 H   0  0  0  0  0  0  0  0  0  0  0  0
   -3.5558   -2.2395    0.3320 H   0  0  0  0  0  0  0  0  0  0  0  0
   -1.4279   -2.0851    0.6205 C   0  0  0  0  0  0  0  0  0  0  0  0
   -0.6199   -2.9738    0.4136 O   0  0  0  0  0  0  0  0  0  0  0  0
   -1.1649   -0.7802    0.2442 N   0  0  0  0  0  0  0  0  0  0  0  0
   -1.9627   -0.1656    0.3804 H   0  0  0  0  0  0  0  0  0  0  0  0
    0.1519   -0.0878    0.2807 C   0  0  1  0  0  0  0  0  0  0  0  0
   -0.0037    0.8306    0.8555 H   0  0  0  0  0  0  0  0  0  0  0  0
    1.3079   -0.8194    0.9904 C   0  0  0  0  0  0  0  0  0  0  0  0
    1.4992   -1.7937    0.5320 H   0  0  0  0  0  0  0  0  0  0  0  0
    2.2272   -0.2335    0.8839 H   0  0  0  0  0  0  0  0  0  0  0  0
    0.9379   -0.9950    2.7873 S   0  0  0  0  0  0  0  0  0  0  0  0
    1.9913   -1.7428    3.1826 H   0  0  0  0  0  0  0  0  0  0  0  0
    0.5926    0.3867   -1.1184 C   0  0  0  0  0  0  0  0  0  0  0  0
    1.4885    1.2117   -1.2354 O   0  0  0  0  0  0  0  0  0  0  0  0
   -0.0309   -0.1049   -2.2494 N   0  0  0  0  0  0  0  0  0  0  0  0
   -0.6572   -0.8925   -2.1001 H   0  0  0  0  0  0  0  0  0  0  0  0
    0.4120    0.2020   -3.6035 C   0  0  0  0  0  0  0  0  0  0  0  0
    1.4253   -0.1782   -3.7698 H   0  0  0  0  0  0  0  0  0  0  0  0
   -0.2578   -0.2608   -4.3345 H   0  0  0  0  0  0  0  0  0  0  0  0
    0.4096    1.2840   -3.7722 H   0  0  0  0  0  0  0  0  0  0  0  0
  1  2  1  0  0  0  0
  2  3  1  0  0  0  0
  2  4  1  0  0  0  0
  2  5  1  0  0  0  0
  5  6  2  0  0  0  0
  5  7  1  0  0  0  0
  7  8  1  0  0  0  0
  7  9  1  0  0  0  0
  9 10  1  0  0  0  0
  9 11  1  0  0  0  0
  9 16  1  0  0  0  0
 11 12  1  0  0  0  0
 11 13  1  0  0  0  0
 11 14  1  0  0  0  0
 14 15  1  0  0  0  0
 16 17  2  0  0  0  0
 16 18  1  0  0  0  0
 18 19  1  0  0  0  0
 18 20  1  0  0  0  0
 20 21  1  0  0  0  0
 20 22  1  0  0  0  0
 20 23  1  0  0  0  0
M  END
$$$$

  -OEChem-01062216073D

 23 22  0     1  0  0  0  0  0999 V2000
   -2.8482   -3.5141    1.3661 H   0  0  0  0  0  0  0  0  0  0  0  0
   -2.8060   -2.4529    1.1045 C   0  0  0  0  0  0  0  0  0  0  0  0
   -3.0494   -1.8644    1.9926 H   0  0  0  0  0  0  0  0  0  0  0  0
   -3.5455   -2.2521    0.3259 H   0  0  0  0  0  0  0  0  0  0  0  0
   -1.4177   -2.0924    0.6107 C   0  0  0  0  0  0  0  0  0  0  0  0
   -0.6108   -2.9826    0.4080 O   0  0  0  0  0  0  0  0  0  0  0  0
   -1.1556   -0.7849    0.2412 N   0  0  0  0  0  0  0  0  0  0  0  0
   -1.9510   -0.1723    0.3971 H   0  0  0  0  0  0  0  0  0  0  0  0
    0.1617   -0.0922    0.2801 C   0  0  1  0  0  0  0  0  0  0  0  0
    0.0042    0.8252    0.8557 H   0  0  0  0  0  0  0  0  0  0  0  0
    1.3105   -0.8278    1.0003 C   0  0  0  0  0  0  0  0  0  0  0  0
    1.5028   -1.8033    0.5445 H   0  0  0  0  0  0  0  0  0  0  0  0
    2.2339   -0.2469    0.9035 H   0  0  0  0  0  0  0  0  0  0  0  0
    0.9259   -0.9957    2.7950 S   0  0  0  0  0  0  0  0  0  0  0  0
    1.9761   -1.7432    3.2000 H   0  0  0  0  0  0  0  0  0  0  0  0
    0.6027    0.3916   -1.1186 C   0  0  0  0  0  0  0  0  0  0  0  0
    1.6334    1.0369   -1.2566 O   0  0  0  0  0  0  0  0  0  0  0  0
   -0.1986    0.1606   -2.2214 N   0  0  0  0  0  0  0  0  0  0  0  0
   -0.9526   -0.5070   -2.0831 H   0  0  0  0  0  0  0  0  0  0  0  0
    0.1961    0.5071   -3.5814 C   0  0  0  0  0  0  0  0  0  0  0  0
    1.0889   -0.0545   -3.8757 H   0  0  0  0  0  0  0  0  0  0  0  0
   -0.6107    0.2697   -4.2816 H   0  0  0  0  0  0  0  0  0  0  0  0
    0.4126    1.5779   -3.6575 H   0  0  0  0  0  0  0  0  0  0  0  0
  1  2  1  0  0  0  0
  2  3  1  0  0  0  0
  2  4  1  0  0  0  0
  2  5  1  0  0  0  0
  5  6  2  0  0  0  0
  5  7  1  0  0  0  0
  7  8  1  0  0  0  0
  7  9  1  0  0  0  0
  9 10  1  0  0  0  0
  9 11  1  0  0  0  0
  9 16  1  0  0  0  0
 11 12  1  0  0  0  0
 11 13  1  0  0  0  0
 11 14  1  0  0  0  0
 14 15  1  0  0  0  0
 16 17  2  0  0  0  0
 16 18  1  0  0  0  0
 18 19  1  0  0  0  0
 18 20  1  0  0  0  0
 20 21  1  0  0  0  0
 20 22  1  0  0  0  0
 20 23  1  0  0  0  0
M  END
$$$$

  -OEChem-01062216073D

 23 22  0     1  0  0  0  0  0999 V2000
   -2.8401   -3.5260    1.3280 H   0  0  0  0  0  0  0  0  0  0  0  0
   -2.7941   -2.4599    1.0879 C   0  0  0  0  0  0  0  0  0  0  0  0
   -3.0322   -1.8891    1.9886 H   0  0  0  0  0  0  0  0  0  0  0  0
   -3.5355   -2.2406    0.3161 H   0  0  0  0  0  0  0  0  0  0  0  0
   -1.4055   -2.0955    0.5974 C   0  0  0  0  0  0  0  0  0  0  0  0
   -0.5969   -2.9855    0.4011 O   0  0  0  0  0  0  0  0  0  0  0  0
   -1.1437   -0.7851    0.2353 N   0  0  0  0  0  0  0  0  0  0  0  0
   -1.9360   -0.1739    0.4105 H   0  0  0  0  0  0  0  0  0  0  0  0
    0.1755   -0.0951    0.2765 C   0  0  1  0  0  0  0  0  0  0  0  0
    0.0185    0.8227    0.8514 H   0  0  0  0  0  0  0  0  0  0  0  0
    1.3168   -0.8319    1.0106 C   0  0  0  0  0  0  0  0  0  0  0  0
    1.5090   -1.8110    0.5631 H   0  0  0  0  0  0  0  0  0  0  0  0
    2.2450   -0.2577    0.9204 H   0  0  0  0  0  0  0  0  0  0  0  0
    0.9148   -0.9835    2.8032 S   0  0  0  0  0  0  0  0  0  0  0  0
    1.9470   -1.7497    3.2188 H   0  0  0  0  0  0  0  0  0  0  0  0
    0.6129    0.3961   -1.1230 C   0  0  0  0  0  0  0  0  0  0  0  0
    1.7414    0.8309   -1.3125 O   0  0  0  0  0  0  0  0  0  0  0  0
   -0.3042    0.4553   -2.1568 N   0  0  0  0  0  0  0  0  0  0  0  0
   -1.1655   -0.0624   -2.0092 H   0  0  0  0  0  0  0  0  0  0  0  0
    0.0564    0.8422   -3.5157 C   0  0  0  0  0  0  0  0  0  0  0  0
    0.7821    0.1370   -3.9343 H   0  0  0  0  0  0  0  0  0  0  0  0
   -0.8310    0.8488   -4.1556 H   0  0  0  0  0  0  0  0  0  0  0  0
    0.4941    1.8461   -3.5263 H   0  0  0  0  0  0  0  0  0  0  0  0
  1  2  1  0  0  0  0
  2  3  1  0  0  0  0
  2  4  1  0  0  0  0
  2  5  1  0  0  0  0
  5  6  2  0  0  0  0
  5  7  1  0  0  0  0
  7  8  1  0  0  0  0
  7  9  1  0  0  0  0
  9 10  1  0  0  0  0
  9 11  1  0  0  0  0
  9 16  1  0  0  0  0
 11 12  1  0  0  0  0
 11 13  1  0  0  0  0
 11 14  1  0  0  0  0
 14 15  1  0  0  0  0
 16 17  2  0  0  0  0
 16 18  1  0  0  0  0
 18 19  1  0  0  0  0
 18 20  1  0  0  0  0
 20 21  1  0  0  0  0
 20 22  1  0  0  0  0
 20 23  1  0  0  0  0
M  END
$$$$

  -OEChem-01062216073D

 23 22  0     1  0  0  0  0  0999 V2000
   -2.8389   -3.5251    1.3054 H   0  0  0  0  0  0  0  0  0  0  0  0
   -2.7894   -2.4603    1.0602 C   0  0  0  0  0  0  0  0  0  0  0  0
   -3.0400   -1.8847    1.9545 H   0  0  0  0  0  0  0  0  0  0  0  0
   -3.5196   -2.2455    0.2766 H   0  0  0  0  0  0  0  0  0  0  0  0
   -1.3942   -2.0988    0.5865 C   0  0  0  0  0  0  0  0  0  0  0  0
   -0.5821   -2.9903    0.4135 O   0  0  0  0  0  0  0  0  0  0  0  0
   -1.1300   -0.7873    0.2285 N   0  0  0  0  0  0  0  0  0  0  0  0
   -1.9235   -0.1796    0.4074 H   0  0  0  0  0  0  0  0  0  0  0  0
    0.1885   -0.0971    0.2747 C   0  0  1  0  0  0  0  0  0  0  0  0
    0.0286    0.8203    0.8491 H   0  0  0  0  0  0  0  0  0  0  0  0
    1.3250   -0.8324    1.0187 C   0  0  0  0  0  0  0  0  0  0  0  0
    1.5204   -1.8119    0.5737 H   0  0  0  0  0  0  0  0  0  0  0  0
    2.2535   -0.2581    0.9333 H   0  0  0  0  0  0  0  0  0  0  0  0
    0.9139   -0.9791    2.8097 S   0  0  0  0  0  0  0  0  0  0  0  0
    1.9375   -1.7558    3.2282 H   0  0  0  0  0  0  0  0  0  0  0  0
    0.6247    0.3957   -1.1259 C   0  0  0  0  0  0  0  0  0  0  0  0
    1.8023    0.6004   -1.3909 O   0  0  0  0  0  0  0  0  0  0  0  0
   -0.3315    0.7491   -2.0615 N   0  0  0  0  0  0  0  0  0  0  0  0
   -1.2744    0.4227   -1.8766 H   0  0  0  0  0  0  0  0  0  0  0  0
    0.0047    1.1836   -3.4127 C   0  0  0  0  0  0  0  0  0  0  0  0
    0.5249    0.3858   -3.9535 H   0  0  0  0  0  0  0  0  0  0  0  0
   -0.9040    1.4427   -3.9644 H   0  0  0  0  0  0  0  0  0  0  0  0
    0.6511    2.0672   -3.3829 H   0  0  0  0  0  0  0  0  0  0  0  0
  1  2  1  0  0  0  0
  2  3  1  0  0  0  0
  2  4  1  0  0  0  0
  2  5  1  0  0  0  0
  5  6  2  0  0  0  0
  5  7  1  0  0  0  0
  7  8  1  0  0  0  0
  7  9  1  0  0  0  0
  9 10  1  0  0  0  0
  9 11  1  0  0  0  0
  9 16  1  0  0  0  0
 11 12  1  0  0  0  0
 11 13  1  0  0  0  0
 11 14  1  0  0  0  0
 14 15  1  0  0  0  0
 16 17  2  0  0  0  0
 16 18  1  0  0  0  0
 18 19  1  0  0  0  0
 18 20  1  0  0  0  0
 20 21  1  0  0  0  0
 20 22  1  0  0  0  0
 20 23  1  0  0  0  0
M  END
$$$$

  -OEChem-01062216073D

 23 22  0     1  0  0  0  0  0999 V2000
   -2.8548   -3.5130    1.2923 H   0  0  0  0  0  0  0  0  0  0  0  0
   -2.8016   -2.4578    1.0092 C   0  0  0  0  0  0  0  0  0  0  0  0
   -3.1062   -1.8508    1.8652 H   0  0  0  0  0  0  0  0  0  0  0  0
   -3.4895   -2.2815    0.1788 H   0  0  0  0  0  0  0  0  0  0  0  0
   -1.3859   -2.0992    0.5980 C   0  0  0  0  0  0  0  0  0  0  0  0
   -0.5643   -2.9920    0.4894 O   0  0  0  0  0  0  0  0  0  0  0  0
   -1.1114   -0.7898    0.2385 N   0  0  0  0  0  0  0  0  0  0  0  0
   -1.9118   -0.1819    0.3772 H   0  0  0  0  0  0  0  0  0  0  0  0
    0.2076   -0.1012    0.2779 C   0  0  1  0  0  0  0  0  0  0  0  0
    0.0507    0.8176    0.8505 H   0  0  0  0  0  0  0  0  0  0  0  0
    1.3479   -0.8291    1.0225 C   0  0  0  0  0  0  0  0  0  0  0  0
    1.5418   -1.8115    0.5827 H   0  0  0  0  0  0  0  0  0  0  0  0
    2.2751   -0.2541    0.9277 H   0  0  0  0  0  0  0  0  0  0  0  0
    0.9438   -0.9637    2.8159 S   0  0  0  0  0  0  0  0  0  0  0  0
    1.9515   -1.7640    3.2282 H   0  0  0  0  0  0  0  0  0  0  0  0
    0.6341    0.3868   -1.1274 C   0  0  0  0  0  0  0  0  0  0  0  0
    1.7988    0.3331   -1.5008 O   0  0  0  0  0  0  0  0  0  0  0  0
   -0.2858    1.0258   -1.9406 N   0  0  0  0  0  0  0  0  0  0  0  0
   -1.2600    0.9614   -1.6668 H   0  0  0  0  0  0  0  0  0  0  0  0
    0.0358    1.5055   -3.2801 C   0  0  0  0  0  0  0  0  0  0  0  0
    0.3322    0.6714   -3.9249 H   0  0  0  0  0  0  0  0  0  0  0  0
   -0.8341    1.9971   -3.7259 H   0  0  0  0  0  0  0  0  0  0  0  0
    0.8571    2.2292   -3.2419 H   0  0  0  0  0  0  0  0  0  0  0  0
  1  2  1  0  0  0  0
  2  3  1  0  0  0  0
  2  4  1  0  0  0  0
  2  5  1  0  0  0  0
  5  6  2  0  0  0  0
  5  7  1  0  0  0  0
  7  8  1  0  0  0  0
  7  9  1  0  0  0  0
  9 10  1  0  0  0  0
  9 11  1  0  0  0  0
  9 16  1  0  0  0  0
 11 12  1  0  0  0  0
 11 13  1  0  0  0  0
 11 14  1  0  0  0  0
 14 15  1  0  0  0  0
 16 17  2  0  0  0  0
 16 18  1  0  0  0  0
 18 19  1  0  0  0  0
 18 20  1  0  0  0  0
 20 21  1  0  0  0  0
 20 22  1  0  0  0  0
 20 23  1  0  0  0  0
M  END
$$$$

  -OEChem-01062216073D

 23 22  0     1  0  0  0  0  0999 V2000
   -2.9089   -3.5084    1.2002 H   0  0  0  0  0  0  0  0  0  0  0  0
   -2.8282   -2.4499    0.9363 C   0  0  0  0  0  0  0  0  0  0  0  0
   -3.2065   -1.8526    1.7692 H   0  0  0  0  0  0  0  0  0  0  0  0
   -3.4394   -2.2617    0.0506 H   0  0  0  0  0  0  0  0  0  0  0  0
   -1.3811   -2.0903    0.6550 C   0  0  0  0  0  0  0  0  0  0  0  0
   -0.5479   -2.9785    0.6759 O   0  0  0  0  0  0  0  0  0  0  0  0
   -1.0884   -0.7889    0.2791 N   0  0  0  0  0  0  0  0  0  0  0  0
   -1.9009   -0.1825    0.2987 H   0  0  0  0  0  0  0  0  0  0  0  0
    0.2296   -0.0989    0.2919 C   0  0  1  0  0  0  0  0  0  0  0  0
    0.0815    0.8245    0.8594 H   0  0  0  0  0  0  0  0  0  0  0  0
    1.3861   -0.8122    1.0225 C   0  0  0  0  0  0  0  0  0  0  0  0
    1.5691   -1.8002    0.5899 H   0  0  0  0  0  0  0  0  0  0  0  0
    2.3099   -0.2377    0.8966 H   0  0  0  0  0  0  0  0  0  0  0  0
    1.0182   -0.9307    2.8250 S   0  0  0  0  0  0  0  0  0  0  0  0
    1.9802   -1.7990    3.2069 H   0  0  0  0  0  0  0  0  0  0  0  0
    0.6321    0.3681   -1.1266 C   0  0  0  0  0  0  0  0  0  0  0  0
    1.7021    0.0533   -1.6311 O   0  0  0  0  0  0  0  0  0  0  0  0
   -0.1799    1.2561   -1.8117 N   0  0  0  0  0  0  0  0  0  0  0  0
   -1.0688    1.5018   -1.3905 H   0  0  0  0  0  0  0  0  0  0  0  0
    0.1426    1.7774   -3.1352 C   0  0  0  0  0  0  0  0  0  0  0  0
    0.2267    0.9599   -3.8591 H   0  0  0  0  0  0  0  0  0  0  0  0
   -0.6415    2.4609   -3.4750 H   0  0  0  0  0  0  0  0  0  0  0  0
    1.0906    2.3254   -3.1113 H   0  0  0  0  0  0  0  0  0  0  0  0
  1  2  1  0  0  0  0
  2  3  1  0  0  0  0
  2  4  1  0  0  0  0
  2  5  1  0  0  0  0
  5  6  2  0  0  0  0
  5  7  1  0  0  0  0
  7  8  1  0  0  0  0
  7  9  1  0  0  0  0
  9 10  1  0  0  0  0
  9 11  1  0  0  0  0
  9 16  1  0  0  0  0
 11 12  1  0  0  0  0
 11 13  1  0  0  0  0
 11 14  1  0  0  0  0
 14 15  1  0  0  0  0
 16 17  2  0  0  0  0
 16 18  1  0  0  0  0
 18 19  1  0  0  0  0
 18 20  1  0  0  0  0
 20 21  1  0  0  0  0
 20 22  1  0  0  0  0
 20 23  1  0  0  0  0
M  END
$$$$

  -OEChem-01062216073D

 23 22  0     1  0  0  0  0  0999 V2000
   -2.9319   -3.4753    1.2383 H   0  0  0  0  0  0  0  0  0  0  0  0
   -2.8449   -2.4437    0.8849 C   0  0  0  0  0  0  0  0  0  0  0  0
   -3.3056   -1.7820    1.6221 H   0  0  0  0  0  0  0  0  0  0  0  0
   -3.3774   -2.3517   -0.0648 H   0  0  0  0  0  0  0  0  0  0  0  0
   -1.3842   -2.0768    0.6984 C   0  0  0  0  0  0  0  0  0  0  0  0
   -0.5490   -2.9561    0.8130 O   0  0  0  0  0  0  0  0  0  0  0  0
   -1.0787   -0.7804    0.3144 N   0  0  0  0  0  0  0  0  0  0  0  0
   -1.8942   -0.1843    0.2235 H   0  0  0  0  0  0  0  0  0  0  0  0
    0.2392   -0.0921    0.3062 C   0  0  1  0  0  0  0  0  0  0  0  0
    0.1008    0.8299    0.8781 H   0  0  0  0  0  0  0  0  0  0  0  0
    1.4114   -0.8010    1.0127 C   0  0  0  0  0  0  0  0  0  0  0  0
    1.5794   -1.7910    0.5775 H   0  0  0  0  0  0  0  0  0  0  0  0
    2.3326   -0.2289    0.8611 H   0  0  0  0  0  0  0  0  0  0  0  0
    1.0844   -0.9227    2.8233 S   0  0  0  0  0  0  0  0  0  0  0  0
    2.0108   -1.8429    3.1706 H   0  0  0  0  0  0  0  0  0  0  0  0
    0.6222    0.3658   -1.1184 C   0  0  0  0  0  0  0  0  0  0  0  0
    1.5237   -0.1711   -1.7482 O   0  0  0  0  0  0  0  0  0  0  0  0
   -0.0064    1.4672   -1.6738 N   0  0  0  0  0  0  0  0  0  0  0  0
   -0.7189    1.9335   -1.1223 H   0  0  0  0  0  0  0  0  0  0  0  0
    0.3340    2.0038   -2.9867 C   0  0  0  0  0  0  0  0  0  0  0  0
    0.1825    1.2449   -3.7617 H   0  0  0  0  0  0  0  0  0  0  0  0
   -0.2987    2.8658   -3.2195 H   0  0  0  0  0  0  0  0  0  0  0  0
    1.3803    2.3268   -3.0099 H   0  0  0  0  0  0  0  0  0  0  0  0
  1  2  1  0  0  0  0
  2  3  1  0  0  0  0
  2  4  1  0  0  0  0
  2  5  1  0  0  0  0
  5  6  2  0  0  0  0
  5  7  1  0  0  0  0
  7  8  1  0  0  0  0
  7  9  1  0  0  0  0
  9 10  1  0  0  0  0
  9 11  1  0  0  0  0
  9 16  1  0  0  0  0
 11 12  1  0  0  0  0
 11 13  1  0  0  0  0
 11 14  1  0  0  0  0
 14 15  1  0  0  0  0
 16 17  2  0  0  0  0
 16 18  1  0  0  0  0
 18 19  1  0  0  0  0
 18 20  1  0  0  0  0
 20 21  1  0  0  0  0
 20 22  1  0  0  0  0
 20 23  1  0  0  0  0
M  END
$$$$

  -OEChem-01062216073D

 23 22  0     1  0  0  0  0  0999 V2000
   -2.9402   -3.4809    1.1826 H   0  0  0  0  0  0  0  0  0  0  0  0
   -2.8465   -2.4413    0.8558 C   0  0  0  0  0  0  0  0  0  0  0  0
   -3.3373   -1.7986    1.5903 H   0  0  0  0  0  0  0  0  0  0  0  0
   -3.3447   -2.3307   -0.1102 H   0  0  0  0  0  0  0  0  0  0  0  0
   -1.3823   -2.0629    0.7308 C   0  0  0  0  0  0  0  0  0  0  0  0
   -0.5456   -2.9301    0.9110 O   0  0  0  0  0  0  0  0  0  0  0  0
   -1.0743   -0.7685    0.3416 N   0  0  0  0  0  0  0  0  0  0  0  0
   -1.8887   -0.1868    0.1754 H   0  0  0  0  0  0  0  0  0  0  0  0
    0.2416   -0.0785    0.3209 C   0  0  1  0  0  0  0  0  0  0  0  0
    0.1050    0.8403    0.8983 H   0  0  0  0  0  0  0  0  0  0  0  0
    1.4270   -0.7821    1.0077 C   0  0  0  0  0  0  0  0  0  0  0  0
    1.5874   -1.7722    0.5688 H   0  0  0  0  0  0  0  0  0  0  0  0
    2.3447   -0.2087    0.8411 H   0  0  0  0  0  0  0  0  0  0  0  0
    1.1285   -0.9113    2.8226 S   0  0  0  0  0  0  0  0  0  0  0  0
    1.9910   -1.9031    3.1351 H   0  0  0  0  0  0  0  0  0  0  0  0
    0.6161    0.3767   -1.1053 C   0  0  0  0  0  0  0  0  0  0  0  0
    1.2927   -0.3256   -1.8436 O   0  0  0  0  0  0  0  0  0  0  0  0
    0.2336    1.6312   -1.5483 N   0  0  0  0  0  0  0  0  0  0  0  0
   -0.2798    2.2248   -0.9045 H   0  0  0  0  0  0  0  0  0  0  0  0
    0.5951    2.1591   -2.8591 C   0  0  0  0  0  0  0  0  0  0  0  0
    0.1999    1.5167   -3.6533 H   0  0  0  0  0  0  0  0  0  0  0  0
    0.1818    3.1636   -2.9905 H   0  0  0  0  0  0  0  0  0  0  0  0
    1.6839    2.2172   -2.9623 H   0  0  0  0  0  0  0  0  0  0  0  0
  1  2  1  0  0  0  0
  2  3  1  0  0  0  0
  2  4  1  0  0  0  0
  2  5  1  0  0  0  0
  5  6  2  0  0  0  0
  5  7  1  0  0  0  0
  7  8  1  0  0  0  0
  7  9  1  0  0  0  0
  9 10  1  0  0  0  0
  9 11  1  0  0  0  0
  9 16  1  0  0  0  0
 11 12  1  0  0  0  0
 11 13  1  0  0  0  0
 11 14  1  0  0  0  0
 14 15  1  0  0  0  0
 16 17  2  0  0  0  0
 16 18  1  0  0  0  0
 18 19  1  0  0  0  0
 18 20  1  0  0  0  0
 20 21  1  0  0  0  0
 20 22  1  0  0  0  0
 20 23  1  0  0  0  0
M  END
$$$$

  -OEChem-01062216073D

 23 22  0     1  0  0  0  0  0999 V2000
   -2.8268   -3.4943    1.0843 H   0  0  0  0  0  0  0  0  0  0  0  0
   -2.7270   -2.4504    0.7730 C   0  0  0  0  0  0  0  0  0  0  0  0
   -3.3798   -1.8341    1.3955 H   0  0  0  0  0  0  0  0  0  0  0  0
   -3.0399   -2.3654   -0.2706 H   0  0  0  0  0  0  0  0  0  0  0  0
   -1.2872   -1.9950    0.9217 C   0  0  0  0  0  0  0  0  0  0  0  0
   -0.4819   -2.7733    1.4015 O   0  0  0  0  0  0  0  0  0  0  0  0
   -0.9646   -0.7119    0.5122 N   0  0  0  0  0  0  0  0  0  0  0  0
   -1.7390   -0.2220    0.0740 H   0  0  0  0  0  0  0  0  0  0  0  0
    0.3593   -0.0432    0.4123 C   0  0  1  0  0  0  0  0  0  0  0  0
    0.2778    0.8719    1.0054 H   0  0  0  0  0  0  0  0  0  0  0  0
    1.6042   -0.7627    0.9668 C   0  0  0  0  0  0  0  0  0  0  0  0
    1.7193   -1.7400    0.4850 H   0  0  0  0  0  0  0  0  0  0  0  0
    2.4985   -0.1764    0.7324 H   0  0  0  0  0  0  0  0  0  0  0  0
    1.5027   -0.9666    2.7922 S   0  0  0  0  0  0  0  0  0  0  0  0
    0.5741   -1.9564    2.8031 H   0  0  0  0  0  0  0  0  0  0  0  0
    0.6349    0.3931   -1.0407 C   0  0  0  0  0  0  0  0  0  0  0  0
    0.8785   -0.4326   -1.9091 O   0  0  0  0  0  0  0  0  0  0  0  0
    0.5341    1.7267   -1.3953 N   0  0  0  0  0  0  0  0  0  0  0  0
    0.3648    2.4022   -0.6558 H   0  0  0  0  0  0  0  0  0  0  0  0
    0.7779    2.2109   -2.7495 C   0  0  0  0  0  0  0  0  0  0  0  0
    0.0931    1.7317   -3.4572 H   0  0  0  0  0  0  0  0  0  0  0  0
    0.6228    3.2929   -2.7992 H   0  0  0  0  0  0  0  0  0  0  0  0
    1.8072    1.9942   -3.0544 H   0  0  0  0  0  0  0  0  0  0  0  0
  1  2  1  0  0  0  0
  2  3  1  0  0  0  0
  2  4  1  0  0  0  0
  2  5  1  0  0  0  0
  5  6  2  0  0  0  0
  5  7  1  0  0  0  0
  7  8  1  0  0  0  0
  7  9  1  0  0  0  0
  9 10  1  0  0  0  0
  9 11  1  0  0  0  0
  9 16  1  0  0  0  0
 11 12  1  0  0  0  0
 11 13  1  0  0  0  0
 11 14  1  0  0  0  0
 14 15  1  0  0  0  0
 16 17  2  0  0  0  0
 16 18  1  0  0  0  0
 18 19  1  0  0  0  0
 18 20  1  0  0  0  0
 20 21  1  0  0  0  0
 20 22  1  0  0  0  0
 20 23  1  0  0  0  0
M  END
$$$$

  -OEChem-01062216073D

 23 22  0     1  0  0  0  0  0999 V2000
   -2.8334   -3.4849    1.0957 H   0  0  0  0  0  0  0  0  0  0  0  0
   -2.7226   -2.4532    0.7498 C   0  0  0  0  0  0  0  0  0  0  0  0
   -3.4062   -1.8173    1.3174 H   0  0  0  0  0  0  0  0  0  0  0  0
   -2.9868   -2.4096   -0.3096 H   0  0  0  0  0  0  0  0  0  0  0  0
   -1.2927   -1.9844    0.9460 C   0  0  0  0  0  0  0  0  0  0  0  0
   -0.4965   -2.7535    1.4554 O   0  0  0  0  0  0  0  0  0  0  0  0
   -0.9661   -0.7024    0.5371 N   0  0  0  0  0  0  0  0  0  0  0  0
   -1.7231   -0.2346    0.0469 H   0  0  0  0  0  0  0  0  0  0  0  0
    0.3634   -0.0471    0.4263 C   0  0  1  0  0  0  0  0  0  0  0  0
    0.2870    0.8673    1.0216 H   0  0  0  0  0  0  0  0  0  0  0  0
    1.6103   -0.7704    0.9687 C   0  0  0  0  0  0  0  0  0  0  0  0
    1.7123   -1.7496    0.4882 H   0  0  0  0  0  0  0  0  0  0  0  0
    2.5057   -0.1905    0.7228 H   0  0  0  0  0  0  0  0  0  0  0  0
    1.5326   -0.9722    2.7956 S   0  0  0  0  0  0  0  0  0  0  0  0
    0.5798   -1.9385    2.8238 H   0  0  0  0  0  0  0  0  0  0  0  0
    0.6377    0.3954   -1.0251 C   0  0  0  0  0  0  0  0  0  0  0  0
    0.5510   -0.4027   -1.9480 O   0  0  0  0  0  0  0  0  0  0  0  0
    0.8591    1.7300   -1.3142 N   0  0  0  0  0  0  0  0  0  0  0  0
    0.9410    2.3756   -0.5339 H   0  0  0  0  0  0  0  0  0  0  0  0
    1.0972    2.2250   -2.6653 C   0  0  0  0  0  0  0  0  0  0  0  0
    0.2347    2.0181   -3.3076 H   0  0  0  0  0  0  0  0  0  0  0  0
    1.2633    3.3064   -2.6485 H   0  0  0  0  0  0  0  0  0  0  0  0
    1.9815    1.7458   -3.0986 H   0  0  0  0  0  0  0  0  0  0  0  0
  1  2  1  0  0  0  0
  2  3  1  0  0  0  0
  2  4  1  0  0  0  0
  2  5  1  0  0  0  0
  5  6  2  0  0  0  0
  5  7  1  0  0  0  0
  7  8  1  0  0  0  0
  7  9  1  0  0  0  0
  9 10  1  0  0  0  0
  9 11  1  0  0  0  0
  9 16  1  0  0  0  0
 11 12  1  0  0  0  0
 11 13  1  0  0  0  0
 11 14  1  0  0  0  0
 14 15  1  0  0  0  0
 16 17  2  0  0  0  0
 16 18  1  0  0  0  0
 18 19  1  0  0  0  0
 18 20  1  0  0  0  0
 20 21  1  0  0  0  0
 20 22  1  0  0  0  0
 20 23  1  0  0  0  0
M  END
$$$$

  -OEChem-01062216073D

 23 22  0     1  0  0  0  0  0999 V2000
   -2.8351   -3.4838    1.0803 H   0  0  0  0  0  0  0  0  0  0  0  0
   -2.7198   -2.4522    0.7358 C   0  0  0  0  0  0  0  0  0  0  0  0
   -3.4152   -1.8171    1.2895 H   0  0  0  0  0  0  0  0  0  0  0  0
   -2.9638   -2.4098   -0.3285 H   0  0  0  0  0  0  0  0  0  0  0  0
   -1.2950   -1.9801    0.9584 C   0  0  0  0  0  0  0  0  0  0  0  0
   -0.5069   -2.7470    1.4838 O   0  0  0  0  0  0  0  0  0  0  0  0
   -0.9614   -0.7001    0.5499 N   0  0  0  0  0  0  0  0  0  0  0  0
   -1.7003   -0.2508    0.0158 H   0  0  0  0  0  0  0  0  0  0  0  0
    0.3717   -0.0525    0.4369 C   0  0  1  0  0  0  0  0  0  0  0  0
    0.2971    0.8638    1.0297 H   0  0  0  0  0  0  0  0  0  0  0  0
    1.6143   -0.7822    0.9815 C   0  0  0  0  0  0  0  0  0  0  0  0
    1.7087   -1.7635    0.5039 H   0  0  0  0  0  0  0  0  0  0  0  0
    2.5143   -0.2103    0.7346 H   0  0  0  0  0  0  0  0  0  0  0  0
    1.5374   -0.9795    2.8089 S   0  0  0  0  0  0  0  0  0  0  0  0
    0.5667   -1.9282    2.8436 H   0  0  0  0  0  0  0  0  0  0  0  0
    0.6521    0.3921   -1.0136 C   0  0  0  0  0  0  0  0  0  0  0  0
    0.2785   -0.2902   -1.9586 O   0  0  0  0  0  0  0  0  0  0  0  0
    1.1830    1.6446   -1.2653 N   0  0  0  0  0  0  0  0  0  0  0  0
    1.4724    2.2058   -0.4691 H   0  0  0  0  0  0  0  0  0  0  0  0
    1.4136    2.1590   -2.6106 C   0  0  0  0  0  0  0  0  0  0  0  0
    0.4689    2.2350   -3.1594 H   0  0  0  0  0  0  0  0  0  0  0  0
    1.8664    3.1542   -2.5638 H   0  0  0  0  0  0  0  0  0  0  0  0
    2.0895    1.4980   -3.1634 H   0  0  0  0  0  0  0  0  0  0  0  0
  1  2  1  0  0  0  0
  2  3  1  0  0  0  0
  2  4  1  0  0  0  0
  2  5  1  0  0  0  0
  5  6  2  0  0  0  0
  5  7  1  0  0  0  0
  7  8  1  0  0  0  0
  7  9  1  0  0  0  0
  9 10  1  0  0  0  0
  9 11  1  0  0  0  0
  9 16  1  0  0  0  0
 11 12  1  0  0  0  0
 11 13  1  0  0  0  0
 11 14  1  0  0  0  0
 14 15  1  0  0  0  0
 16 17  2  0  0  0  0
 16 18  1  0  0  0  0
 18 19  1  0  0  0  0
 18 20  1  0  0  0  0
 20 21  1  0  0  0  0
 20 22  1  0  0  0  0
 20 23  1  0  0  0  0
M  END
$$$$

  -OEChem-01062216073D

 23 22  0     1  0  0  0  0  0999 V2000
   -2.8433   -3.4767    1.0794 H   0  0  0  0  0  0  0  0  0  0  0  0
   -2.7182   -2.4491    0.7264 C   0  0  0  0  0  0  0  0  0  0  0  0
   -3.4181   -1.8049    1.2639 H   0  0  0  0  0  0  0  0  0  0  0  0
   -2.9474   -2.4151   -0.3417 H   0  0  0  0  0  0  0  0  0  0  0  0
   -1.2945   -1.9814    0.9645 C   0  0  0  0  0  0  0  0  0  0  0  0
   -0.5119   -2.7511    1.4947 O   0  0  0  0  0  0  0  0  0  0  0  0
   -0.9531   -0.7038    0.5568 N   0  0  0  0  0  0  0  0  0  0  0  0
   -1.6784   -0.2630   -0.0040 H   0  0  0  0  0  0  0  0  0  0  0  0
    0.3824   -0.0613    0.4447 C   0  0  1  0  0  0  0  0  0  0  0  0
    0.3090    0.8592    1.0313 H   0  0  0  0  0  0  0  0  0  0  0  0
    1.6182   -0.7966    1.0004 C   0  0  0  0  0  0  0  0  0  0  0  0
    1.7088   -1.7817    0.5302 H   0  0  0  0  0  0  0  0  0  0  0  0
    2.5246   -0.2338    0.7574 H   0  0  0  0  0  0  0  0  0  0  0  0
    1.5289   -0.9819    2.8281 S   0  0  0  0  0  0  0  0  0  0  0  0
    0.5424   -1.9139    2.8650 H   0  0  0  0  0  0  0  0  0  0  0  0
    0.6647    0.3821   -1.0072 C   0  0  0  0  0  0  0  0  0  0  0  0
    0.0580   -0.1229   -1.9439 O   0  0  0  0  0  0  0  0  0  0  0  0
    1.4716    1.4787   -1.2534 N   0  0  0  0  0  0  0  0  0  0  0  0
    1.9311    1.9167   -0.4598 H   0  0  0  0  0  0  0  0  0  0  0  0
    1.7077    2.0152   -2.5890 C   0  0  0  0  0  0  0  0  0  0  0  0
    0.7688    2.3588   -3.0359 H   0  0  0  0  0  0  0  0  0  0  0  0
    2.3973    2.8634   -2.5399 H   0  0  0  0  0  0  0  0  0  0  0  0
    2.1475    1.2502   -3.2377 H   0  0  0  0  0  0  0  0  0  0  0  0
  1  2  1  0  0  0  0
  2  3  1  0  0  0  0
  2  4  1  0  0  0  0
  2  5  1  0  0  0  0
  5  6  2  0  0  0  0
  5  7  1  0  0  0  0
  7  8  1  0  0  0  0
  7  9  1  0  0  0  0
  9 10  1  0  0  0  0
  9 11  1  0  0  0  0
  9 16  1  0  0  0  0
 11 12  1  0  0  0  0
 11 13  1  0  0  0  0
 11 14  1  0  0  0  0
 14 15  1  0  0  0  0
 16 17  2  0  0  0  0
 16 18  1  0  0  0  0
 18 19  1  0  0  0  0
 18 20  1  0  0  0  0
 20 21  1  0  0  0  0
 20 22  1  0  0  0  0
 20 23  1  0  0  0  0
M  END
$$$$

  -OEChem-01062216073D

 23 22  0     1  0  0  0  0  0999 V2000
   -2.8565   -3.4660    1.0902 H   0  0  0  0  0  0  0  0  0  0  0  0
   -2.7217   -2.4419    0.7304 C   0  0  0  0  0  0  0  0  0  0  0  0
   -3.4122   -1.7871    1.2674 H   0  0  0  0  0  0  0  0  0  0  0  0
   -2.9548   -2.4113   -0.3368 H   0  0  0  0  0  0  0  0  0  0  0  0
   -1.2922   -1.9878    0.9599 C   0  0  0  0  0  0  0  0  0  0  0  0
   -0.5113   -2.7675    1.4779 O   0  0  0  0  0  0  0  0  0  0  0  0
   -0.9433   -0.7108    0.5574 N   0  0  0  0  0  0  0  0  0  0  0  0
   -1.6616   -0.2676   -0.0119 H   0  0  0  0  0  0  0  0  0  0  0  0
    0.3916   -0.0656    0.4541 C   0  0  1  0  0  0  0  0  0  0  0  0
    0.3182    0.8567    1.0381 H   0  0  0  0  0  0  0  0  0  0  0  0
    1.6181   -0.8103    1.0223 C   0  0  0  0  0  0  0  0  0  0  0  0
    1.7088   -1.7949    0.5511 H   0  0  0  0  0  0  0  0  0  0  0  0
    2.5324   -0.2545    0.7958 H   0  0  0  0  0  0  0  0  0  0  0  0
    1.5067   -0.9976    2.8482 S   0  0  0  0  0  0  0  0  0  0  0  0
    0.5239   -1.9337    2.8699 H   0  0  0  0  0  0  0  0  0  0  0  0
    0.6751    0.3786   -0.9995 C   0  0  0  0  0  0  0  0  0  0  0  0
   -0.0923    0.0715   -1.9047 O   0  0  0  0  0  0  0  0  0  0  0  0
    1.7028    1.2634   -1.2758 N   0  0  0  0  0  0  0  0  0  0  0  0
    2.2931    1.5597   -0.5036 H   0  0  0  0  0  0  0  0  0  0  0  0
    1.9627    1.8004   -2.6070 C   0  0  0  0  0  0  0  0  0  0  0  0
    1.1064    2.3857   -2.9586 H   0  0  0  0  0  0  0  0  0  0  0  0
    2.8418    2.4519   -2.5876 H   0  0  0  0  0  0  0  0  0  0  0  0
    2.1508    0.9892   -3.3185 H   0  0  0  0  0  0  0  0  0  0  0  0
  1  2  1  0  0  0  0
  2  3  1  0  0  0  0
  2  4  1  0  0  0  0
  2  5  1  0  0  0  0
  5  6  2  0  0  0  0
  5  7  1  0  0  0  0
  7  8  1  0  0  0  0
  7  9  1  0  0  0  0
  9 10  1  0  0  0  0
  9 11  1  0  0  0  0
  9 16  1  0  0  0  0
 11 12  1  0  0  0  0
 11 13  1  0  0  0  0
 11 14  1  0  0  0  0
 14 15  1  0  0  0  0
 16 17  2  0  0  0  0
 16 18  1  0  0  0  0
 18 19  1  0  0  0  0
 18 20  1  0  0  0  0
 20 21  1  0  0  0  0
 20 22  1  0  0  0  0
 20 23  1  0  0  0  0
M  END
$$$$

  -OEChem-01062216073D

 23 22  0     1  0  0  0  0  0999 V2000
   -2.9075   -3.4626    1.0441 H   0  0  0  0  0  0  0  0  0  0  0  0
   -2.7573   -2.4206    0.7474 C   0  0  0  0  0  0  0  0  0  0  0  0
   -3.3483   -1.7793    1.4057 H   0  0  0  0  0  0  0  0  0  0  0  0
   -3.1039   -2.2950   -0.2814 H   0  0  0  0  0  0  0  0  0  0  0  0
   -1.2890   -2.0517    0.8481 C   0  0  0  0  0  0  0  0  0  0  0  0
   -0.4986   -2.9113    1.1938 O   0  0  0  0  0  0  0  0  0  0  0  0
   -0.9138   -0.7744    0.4749 N   0  0  0  0  0  0  0  0  0  0  0  0
   -1.6597   -0.2520    0.0166 H   0  0  0  0  0  0  0  0  0  0  0  0
    0.4113   -0.1057    0.4014 C   0  0  1  0  0  0  0  0  0  0  0  0
    0.3898    0.6624    1.1803 H   0  0  0  0  0  0  0  0  0  0  0  0
    1.6913   -0.9219    0.6996 C   0  0  0  0  0  0  0  0  0  0  0  0
    1.7304   -1.7878    0.0299 H   0  0  0  0  0  0  0  0  0  0  0  0
    2.5807   -0.3162    0.5077 H   0  0  0  0  0  0  0  0  0  0  0  0
    1.7824   -1.4990    2.4453 S   0  0  0  0  0  0  0  0  0  0  0  0
    0.7713   -2.4028    2.4153 H   0  0  0  0  0  0  0  0  0  0  0  0
    0.5362    0.6765   -0.9291 C   0  0  0  0  0  0  0  0  0  0  0  0
   -0.4288    0.7620   -1.6814 O   0  0  0  0  0  0  0  0  0  0  0  0
    1.6802    1.3900   -1.2431 N   0  0  0  0  0  0  0  0  0  0  0  0
    2.4512    1.3644   -0.5821 H   0  0  0  0  0  0  0  0  0  0  0  0
    1.8166    2.1957   -2.4511 C   0  0  0  0  0  0  0  0  0  0  0  0
    1.0666    2.9935   -2.4676 H   0  0  0  0  0  0  0  0  0  0  0  0
    2.8094    2.6542   -2.4901 H   0  0  0  0  0  0  0  0  0  0  0  0
    1.6889    1.5731   -3.3430 H   0  0  0  0  0  0  0  0  0  0  0  0
  1  2  1  0  0  0  0
  2  3  1  0  0  0  0
  2  4  1  0  0  0  0
  2  5  1  0  0  0  0
  5  6  2  0  0  0  0
  5  7  1  0  0  0  0
  7  8  1  0  0  0  0
  7  9  1  0  0  0  0
  9 10  1  0  0  0  0
  9 11  1  0  0  0  0
  9 16  1  0  0  0  0
 11 12  1  0  0  0  0
 11 13  1  0  0  0  0
 11 14  1  0  0  0  0
 14 15  1  0  0  0  0
 16 17  2  0  0  0  0
 16 18  1  0  0  0  0
 18 19  1  0  0  0  0
 18 20  1  0  0  0  0
 20 21  1  0  0  0  0
 20 22  1  0  0  0  0
 20 23  1  0  0  0  0
M  END
$$$$

  -OEChem-01062216073D

 23 22  0     1  0  0  0  0  0999 V2000
   -2.9126   -3.4557    1.0335 H   0  0  0  0  0  0  0  0  0  0  0  0
   -2.7578   -2.4107    0.7508 C   0  0  0  0  0  0  0  0  0  0  0  0
   -3.3293   -1.7742    1.4306 H   0  0  0  0  0  0  0  0  0  0  0  0
   -3.1236   -2.2648   -0.2685 H   0  0  0  0  0  0  0  0  0  0  0  0
   -1.2843   -2.0573    0.8285 C   0  0  0  0  0  0  0  0  0  0  0  0
   -0.4941   -2.9278    1.1481 O   0  0  0  0  0  0  0  0  0  0  0  0
   -0.9020   -0.7803    0.4618 N   0  0  0  0  0  0  0  0  0  0  0  0
   -1.6515   -0.2348    0.0371 H   0  0  0  0  0  0  0  0  0  0  0  0
    0.4235   -0.1109    0.4099 C   0  0  1  0  0  0  0  0  0  0  0  0
    0.3925    0.6618    1.1842 H   0  0  0  0  0  0  0  0  0  0  0  0
    1.6924   -0.9335    0.7371 C   0  0  0  0  0  0  0  0  0  0  0  0
    1.7462   -1.8010    0.0704 H   0  0  0  0  0  0  0  0  0  0  0  0
    2.5880   -0.3296    0.5717 H   0  0  0  0  0  0  0  0  0  0  0  0
    1.7379   -1.5024    2.4872 S   0  0  0  0  0  0  0  0  0  0  0  0
    0.7386   -2.4181    2.4255 H   0  0  0  0  0  0  0  0  0  0  0  0
    0.5540    0.6671   -0.9245 C   0  0  0  0  0  0  0  0  0  0  0  0
   -0.4582    0.9423   -1.5609 O   0  0  0  0  0  0  0  0  0  0  0  0
    1.7698    1.1346   -1.3947 N   0  0  0  0  0  0  0  0  0  0  0  0
    2.5997    0.9358   -0.8447 H   0  0  0  0  0  0  0  0  0  0  0  0
    1.9122    1.9068   -2.6241 C   0  0  0  0  0  0  0  0  0  0  0  0
    1.3570    2.8481   -2.5529 H   0  0  0  0  0  0  0  0  0  0  0  0
    2.9660    2.1404   -2.8044 H   0  0  0  0  0  0  0  0  0  0  0  0
    1.5343    1.3385   -3.4807 H   0  0  0  0  0  0  0  0  0  0  0  0
  1  2  1  0  0  0  0
  2  3  1  0  0  0  0
  2  4  1  0  0  0  0
  2  5  1  0  0  0  0
  5  6  2  0  0  0  0
  5  7  1  0  0  0  0
  7  8  1  0  0  0  0
  7  9  1  0  0  0  0
  9 10  1  0  0  0  0
  9 11  1  0  0  0  0
  9 16  1  0  0  0  0
 11 12  1  0  0  0  0
 11 13  1  0  0  0  0
 11 14  1  0  0  0  0
 14 15  1  0  0  0  0
 16 17  2  0  0  0  0
 16 18  1  0  0  0  0
 18 19  1  0  0  0  0
 18 20  1  0  0  0  0
 20 21  1  0  0  0  0
 20 22  1  0  0  0  0
 20 23  1  0  0  0  0
M  END
$$$$

  -OEChem-01062216073D

 23 22  0     1  0  0  0  0  0999 V2000
   -2.9049   -3.4602    1.0032 H   0  0  0  0  0  0  0  0  0  0  0  0
   -2.7531   -2.4086    0.7434 C   0  0  0  0  0  0  0  0  0  0  0  0
   -3.3181   -1.7883    1.4433 H   0  0  0  0  0  0  0  0  0  0  0  0
   -3.1287   -2.2393   -0.2688 H   0  0  0  0  0  0  0  0  0  0  0  0
   -1.2789   -2.0571    0.8146 C   0  0  0  0  0  0  0  0  0  0  0  0
   -0.4865   -2.9303    1.1219 O   0  0  0  0  0  0  0  0  0  0  0  0
   -0.8950   -0.7797    0.4511 N   0  0  0  0  0  0  0  0  0  0  0  0
   -1.6504   -0.2132    0.0658 H   0  0  0  0  0  0  0  0  0  0  0  0
    0.4303   -0.1114    0.4169 C   0  0  1  0  0  0  0  0  0  0  0  0
    0.3904    0.6652    1.1868 H   0  0  0  0  0  0  0  0  0  0  0  0
    1.6948   -0.9303    0.7662 C   0  0  0  0  0  0  0  0  0  0  0  0
    1.7650   -1.7992    0.1031 H   0  0  0  0  0  0  0  0  0  0  0  0
    2.5887   -0.3188    0.6170 H   0  0  0  0  0  0  0  0  0  0  0  0
    1.7106   -1.4907    2.5194 S   0  0  0  0  0  0  0  0  0  0  0  0
    0.7132   -2.4074    2.4435 H   0  0  0  0  0  0  0  0  0  0  0  0
    0.5654    0.6598   -0.9198 C   0  0  0  0  0  0  0  0  0  0  0  0
   -0.4440    1.1258   -1.4377 O   0  0  0  0  0  0  0  0  0  0  0  0
    1.7822    0.8709   -1.5464 N   0  0  0  0  0  0  0  0  0  0  0  0
    2.6112    0.4655   -1.1230 H   0  0  0  0  0  0  0  0  0  0  0  0
    1.9203    1.5967   -2.8040 C   0  0  0  0  0  0  0  0  0  0  0  0
    1.5713    2.6287   -2.6913 H   0  0  0  0  0  0  0  0  0  0  0  0
    2.9692    1.6190   -3.1152 H   0  0  0  0  0  0  0  0  0  0  0  0
    1.3364    1.1114   -3.5935 H   0  0  0  0  0  0  0  0  0  0  0  0
  1  2  1  0  0  0  0
  2  3  1  0  0  0  0
  2  4  1  0  0  0  0
  2  5  1  0  0  0  0
  5  6  2  0  0  0  0
  5  7  1  0  0  0  0
  7  8  1  0  0  0  0
  7  9  1  0  0  0  0
  9 10  1  0  0  0  0
  9 11  1  0  0  0  0
  9 16  1  0  0  0  0
 11 12  1  0  0  0  0
 11 13  1  0  0  0  0
 11 14  1  0  0  0  0
 14 15  1  0  0  0  0
 16 17  2  0  0  0  0
 16 18  1  0  0  0  0
 18 19  1  0  0  0  0
 18 20  1  0  0  0  0
 20 21  1  0  0  0  0
 20 22  1  0  0  0  0
 20 23  1  0  0  0  0
M  END
$$$$

  -OEChem-01062216073D

 23 22  0     1  0  0  0  0  0999 V2000
   -2.8911   -3.4637    1.0182 H   0  0  0  0  0  0  0  0  0  0  0  0
   -2.7475   -2.4100    0.7622 C   0  0  0  0  0  0  0  0  0  0  0  0
   -3.2899   -1.7956    1.4850 H   0  0  0  0  0  0  0  0  0  0  0  0
   -3.1553   -2.2320   -0.2360 H   0  0  0  0  0  0  0  0  0  0  0  0
   -1.2713   -2.0597    0.7891 C   0  0  0  0  0  0  0  0  0  0  0  0
   -0.4683   -2.9360    1.0585 O   0  0  0  0  0  0  0  0  0  0  0  0
   -0.8954   -0.7791    0.4290 N   0  0  0  0  0  0  0  0  0  0  0  0
   -1.6633   -0.1942    0.1010 H   0  0  0  0  0  0  0  0  0  0  0  0
    0.4266   -0.1050    0.4131 C   0  0  1  0  0  0  0  0  0  0  0  0
    0.3738    0.6712    1.1829 H   0  0  0  0  0  0  0  0  0  0  0  0
    1.6918   -0.9161    0.7746 C   0  0  0  0  0  0  0  0  0  0  0  0
    1.7779   -1.7834    0.1114 H   0  0  0  0  0  0  0  0  0  0  0  0
    2.5807   -0.2933    0.6362 H   0  0  0  0  0  0  0  0  0  0  0  0
    1.6857   -1.4801    2.5260 S   0  0  0  0  0  0  0  0  0  0  0  0
    0.7040   -2.4113    2.4253 H   0  0  0  0  0  0  0  0  0  0  0  0
    0.5731    0.6639   -0.9211 C   0  0  0  0  0  0  0  0  0  0  0  0
   -0.3850    1.3071   -1.3346 O   0  0  0  0  0  0  0  0  0  0  0  0
    1.7271    0.6275   -1.6858 N   0  0  0  0  0  0  0  0  0  0  0  0
    2.4822    0.0258   -1.3714 H   0  0  0  0  0  0  0  0  0  0  0  0
    1.8512    1.2901   -2.9792 C   0  0  0  0  0  0  0  0  0  0  0  0
    1.7063    2.3703   -2.8722 H   0  0  0  0  0  0  0  0  0  0  0  0
    2.8466    1.1162   -3.3995 H   0  0  0  0  0  0  0  0  0  0  0  0
    1.1064    0.9021   -3.6822 H   0  0  0  0  0  0  0  0  0  0  0  0
  1  2  1  0  0  0  0
  2  3  1  0  0  0  0
  2  4  1  0  0  0  0
  2  5  1  0  0  0  0
  5  6  2  0  0  0  0
  5  7  1  0  0  0  0
  7  8  1  0  0  0  0
  7  9  1  0  0  0  0
  9 10  1  0  0  0  0
  9 11  1  0  0  0  0
  9 16  1  0  0  0  0
 11 12  1  0  0  0  0
 11 13  1  0  0  0  0
 11 14  1  0  0  0  0
 14 15  1  0  0  0  0
 16 17  2  0  0  0  0
 16 18  1  0  0  0  0
 18 19  1  0  0  0  0
 18 20  1  0  0  0  0
 20 21  1  0  0  0  0
 20 22  1  0  0  0  0
 20 23  1  0  0  0  0
M  END
$$$$

  -OEChem-01062216073D

 23 22  0     1  0  0  0  0  0999 V2000
   -2.8810   -3.4619    1.0538 H   0  0  0  0  0  0  0  0  0  0  0  0
   -2.7443   -2.4127    0.7771 C   0  0  0  0  0  0  0  0  0  0  0  0
   -3.2746   -1.7871    1.4993 H   0  0  0  0  0  0  0  0  0  0  0  0
   -3.1710   -2.2536   -0.2162 H   0  0  0  0  0  0  0  0  0  0  0  0
   -1.2686   -2.0598    0.7702 C   0  0  0  0  0  0  0  0  0  0  0  0
   -0.4569   -2.9353    1.0153 O   0  0  0  0  0  0  0  0  0  0  0  0
   -0.9006   -0.7783    0.4052 N   0  0  0  0  0  0  0  0  0  0  0  0
   -1.6786   -0.1815    0.1281 H   0  0  0  0  0  0  0  0  0  0  0  0
    0.4191   -0.1005    0.4008 C   0  0  1  0  0  0  0  0  0  0  0  0
    0.3569    0.6786    1.1674 H   0  0  0  0  0  0  0  0  0  0  0  0
    1.6856   -0.9022    0.7741 C   0  0  0  0  0  0  0  0  0  0  0  0
    1.7823   -1.7724    0.1166 H   0  0  0  0  0  0  0  0  0  0  0  0
    2.5699   -0.2721    0.6346 H   0  0  0  0  0  0  0  0  0  0  0  0
    1.6666   -1.4624    2.5266 S   0  0  0  0  0  0  0  0  0  0  0  0
    0.6937   -2.4018    2.4183 H   0  0  0  0  0  0  0  0  0  0  0  0
    0.5799    0.6604   -0.9332 C   0  0  0  0  0  0  0  0  0  0  0  0
   -0.2797    1.4738   -1.2491 O   0  0  0  0  0  0  0  0  0  0  0  0
    1.6053    0.3910   -1.8239 N   0  0  0  0  0  0  0  0  0  0  0  0
    2.2347   -0.3732   -1.5969 H   0  0  0  0  0  0  0  0  0  0  0  0
    1.7077    1.0174   -3.1368 C   0  0  0  0  0  0  0  0  0  0  0  0
    1.7419    2.1078   -3.0399 H   0  0  0  0  0  0  0  0  0  0  0  0
    2.6206    0.6883   -3.6429 H   0  0  0  0  0  0  0  0  0  0  0  0
    0.8487    0.7456   -3.7592 H   0  0  0  0  0  0  0  0  0  0  0  0
  1  2  1  0  0  0  0
  2  3  1  0  0  0  0
  2  4  1  0  0  0  0
  2  5  1  0  0  0  0
  5  6  2  0  0  0  0
  5  7  1  0  0  0  0
  7  8  1  0  0  0  0
  7  9  1  0  0  0  0
  9 10  1  0  0  0  0
  9 11  1  0  0  0  0
  9 16  1  0  0  0  0
 11 12  1  0  0  0  0
 11 13  1  0  0  0  0
 11 14  1  0  0  0  0
 14 15  1  0  0  0  0
 16 17  2  0  0  0  0
 16 18  1  0  0  0  0
 18 19  1  0  0  0  0
 18 20  1  0  0  0  0
 20 21  1  0  0  0  0
 20 22  1  0  0  0  0
 20 23  1  0  0  0  0
M  END
$$$$

  -OEChem-01062216073D

 23 22  0     1  0  0  0  0  0999 V2000
   -2.9650   -3.4395    1.0896 H   0  0  0  0  0  0  0  0  0  0  0  0
   -2.8424   -2.3761    0.8658 C   0  0  0  0  0  0  0  0  0  0  0  0
   -3.2043   -1.7945    1.7170 H   0  0  0  0  0  0  0  0  0  0  0  0
   -3.4386   -2.1303   -0.0162 H   0  0  0  0  0  0  0  0  0  0  0  0
   -1.3810   -2.0607    0.6088 C   0  0  0  0  0  0  0  0  0  0  0  0
   -0.5777   -2.9783    0.5693 O   0  0  0  0  0  0  0  0  0  0  0  0
   -1.0345   -0.7703    0.2520 N   0  0  0  0  0  0  0  0  0  0  0  0
   -1.8239   -0.1318    0.1897 H   0  0  0  0  0  0  0  0  0  0  0  0
    0.2900   -0.1082    0.3123 C   0  0  1  0  0  0  0  0  0  0  0  0
    0.1903    0.6728    1.0734 H   0  0  0  0  0  0  0  0  0  0  0  0
    1.5063   -0.9292    0.7858 C   0  0  0  0  0  0  0  0  0  0  0  0
    1.6220   -1.8199    0.1607 H   0  0  0  0  0  0  0  0  0  0  0  0
    2.4190   -0.3325    0.6863 H   0  0  0  0  0  0  0  0  0  0  0  0
    1.3179   -1.4253    2.5521 S   0  0  0  0  0  0  0  0  0  0  0  0
    2.1997   -2.4460    2.6228 H   0  0  0  0  0  0  0  0  0  0  0  0
    0.5517    0.6611   -0.9961 C   0  0  0  0  0  0  0  0  0  0  0  0
   -0.0807    1.6842   -1.2240 O   0  0  0  0  0  0  0  0  0  0  0  0
    1.4308    0.1801   -1.9500 N   0  0  0  0  0  0  0  0  0  0  0  0
    1.7991   -0.7555   -1.8033 H   0  0  0  0  0  0  0  0  0  0  0  0
    1.6013    0.8017   -3.2578 C   0  0  0  0  0  0  0  0  0  0  0  0
    1.9041    1.8484   -3.1484 H   0  0  0  0  0  0  0  0  0  0  0  0
    2.3753    0.2782   -3.8271 H   0  0  0  0  0  0  0  0  0  0  0  0
    0.6658    0.7632   -3.8257 H   0  0  0  0  0  0  0  0  0  0  0  0
  1  2  1  0  0  0  0
  2  3  1  0  0  0  0
  2  4  1  0  0  0  0
  2  5  1  0  0  0  0
  5  6  2  0  0  0  0
  5  7  1  0  0  0  0
  7  8  1  0  0  0  0
  7  9  1  0  0  0  0
  9 10  1  0  0  0  0
  9 11  1  0  0  0  0
  9 16  1  0  0  0  0
 11 12  1  0  0  0  0
 11 13  1  0  0  0  0
 11 14  1  0  0  0  0
 14 15  1  0  0  0  0
 16 17  2  0  0  0  0
 16 18  1  0  0  0  0
 18 19  1  0  0  0  0
 18 20  1  0  0  0  0
 20 21  1  0  0  0  0
 20 22  1  0  0  0  0
 20 23  1  0  0  0  0
M  END
$$$$

  -OEChem-01062216073D

 23 22  0     1  0  0  0  0  0999 V2000
   -2.9282   -3.4283    1.2391 H   0  0  0  0  0  0  0  0  0  0  0  0
   -2.8368   -2.3837    0.9283 C   0  0  0  0  0  0  0  0  0  0  0  0
   -3.1709   -1.7445    1.7491 H   0  0  0  0  0  0  0  0  0  0  0  0
   -3.4776   -2.2165    0.0593 H   0  0  0  0  0  0  0  0  0  0  0  0
   -1.3949   -2.0665    0.5792 C   0  0  0  0  0  0  0  0  0  0  0  0
   -0.5981   -2.9836    0.4655 O   0  0  0  0  0  0  0  0  0  0  0  0
   -1.0636   -0.7737    0.2168 N   0  0  0  0  0  0  0  0  0  0  0  0
   -1.8540   -0.1340    0.2247 H   0  0  0  0  0  0  0  0  0  0  0  0
    0.2612   -0.1122    0.2886 C   0  0  1  0  0  0  0  0  0  0  0  0
    0.1577    0.6645    1.0541 H   0  0  0  0  0  0  0  0  0  0  0  0
    1.4773   -0.9357    0.7562 C   0  0  0  0  0  0  0  0  0  0  0  0
    1.6019   -1.8180    0.1209 H   0  0  0  0  0  0  0  0  0  0  0  0
    2.3872   -0.3332    0.6656 H   0  0  0  0  0  0  0  0  0  0  0  0
    1.2817   -1.4503    2.5167 S   0  0  0  0  0  0  0  0  0  0  0  0
    2.2269   -2.4109    2.6078 H   0  0  0  0  0  0  0  0  0  0  0  0
    0.5443    0.6549   -1.0147 C   0  0  0  0  0  0  0  0  0  0  0  0
    0.1498    1.8065   -1.1384 O   0  0  0  0  0  0  0  0  0  0  0  0
    1.1833    0.0339   -2.0724 N   0  0  0  0  0  0  0  0  0  0  0  0
    1.3309   -0.9688   -1.9898 H   0  0  0  0  0  0  0  0  0  0  0  0
    1.3595    0.6644   -3.3751 C   0  0  0  0  0  0  0  0  0  0  0  0
    1.8899    1.6170   -3.2722 H   0  0  0  0  0  0  0  0  0  0  0  0
    1.9450    0.0154   -4.0333 H   0  0  0  0  0  0  0  0  0  0  0  0
    0.3881    0.8511   -3.8447 H   0  0  0  0  0  0  0  0  0  0  0  0
  1  2  1  0  0  0  0
  2  3  1  0  0  0  0
  2  4  1  0  0  0  0
  2  5  1  0  0  0  0
  5  6  2  0  0  0  0
  5  7  1  0  0  0  0
  7  8  1  0  0  0  0
  7  9  1  0  0  0  0
  9 10  1  0  0  0  0
  9 11  1  0  0  0  0
  9 16  1  0  0  0  0
 11 12  1  0  0  0  0
 11 13  1  0  0  0  0
 11 14  1  0  0  0  0
 14 15  1  0  0  0  0
 16 17  2  0  0  0  0
 16 18  1  0  0  0  0
 18 19  1  0  0  0  0
 18 20  1  0  0  0  0
 20 21  1  0  0  0  0
 20 22  1  0  0  0  0
 20 23  1  0  0  0  0
M  END
$$$$

  -OEChem-01062216073D

 23 22  0     1  0  0  0  0  0999 V2000
   -2.9119   -3.4485    1.2471 H   0  0  0  0  0  0  0  0  0  0  0  0
   -2.8309   -2.3937    0.9696 C   0  0  0  0  0  0  0  0  0  0  0  0
   -3.1258   -1.7832    1.8266 H   0  0  0  0  0  0  0  0  0  0  0  0
   -3.5091   -2.1950    0.1363 H   0  0  0  0  0  0  0  0  0  0  0  0
   -1.4045   -2.0684    0.5687 C   0  0  0  0  0  0  0  0  0  0  0  0
   -0.6119   -2.9810    0.4030 O   0  0  0  0  0  0  0  0  0  0  0  0
   -1.0886   -0.7741    0.1992 N   0  0  0  0  0  0  0  0  0  0  0  0
   -1.8806   -0.1389    0.2511 H   0  0  0  0  0  0  0  0  0  0  0  0
    0.2337   -0.1069    0.2780 C   0  0  1  0  0  0  0  0  0  0  0  0
    0.1275    0.6671    1.0456 H   0  0  0  0  0  0  0  0  0  0  0  0
    1.4555   -0.9271    0.7346 C   0  0  0  0  0  0  0  0  0  0  0  0
    1.5876   -1.7995    0.0871 H   0  0  0  0  0  0  0  0  0  0  0  0
    2.3597   -0.3152    0.6499 H   0  0  0  0  0  0  0  0  0  0  0  0
    1.2675   -1.4646    2.4891 S   0  0  0  0  0  0  0  0  0  0  0  0
    2.2624   -2.3733    2.5832 H   0  0  0  0  0  0  0  0  0  0  0  0
    0.5222    0.6534   -1.0261 C   0  0  0  0  0  0  0  0  0  0  0  0
    0.4036    1.8700   -1.0709 O   0  0  0  0  0  0  0  0  0  0  0  0
    0.8801   -0.0465   -2.1628 N   0  0  0  0  0  0  0  0  0  0  0  0
    0.8229   -1.0611   -2.1086 H   0  0  0  0  0  0  0  0  0  0  0  0
    1.0665    0.5833   -3.4638 C   0  0  0  0  0  0  0  0  0  0  0  0
    1.8287    1.3676   -3.4043 H   0  0  0  0  0  0  0  0  0  0  0  0
    1.3930   -0.1582   -4.1996 H   0  0  0  0  0  0  0  0  0  0  0  0
    0.1289    1.0290   -3.8121 H   0  0  0  0  0  0  0  0  0  0  0  0
  1  2  1  0  0  0  0
  2  3  1  0  0  0  0
  2  4  1  0  0  0  0
  2  5  1  0  0  0  0
  5  6  2  0  0  0  0
  5  7  1  0  0  0  0
  7  8  1  0  0  0  0
  7  9  1  0  0  0  0
  9 10  1  0  0  0  0
  9 11  1  0  0  0  0
  9 16  1  0  0  0  0
 11 12  1  0  0  0  0
 11 13  1  0  0  0  0
 11 14  1  0  0  0  0
 14 15  1  0  0  0  0
 16 17  2  0  0  0  0
 16 18  1  0  0  0  0
 18 19  1  0  0  0  0
 18 20  1  0  0  0  0
 20 21  1  0  0  0  0
 20 22  1  0  0  0  0
 20 23  1  0  0  0  0
M  END
$$$$

  -OEChem-01062216073D

 23 22  0     1  0  0  0  0  0999 V2000
   -2.8866   -3.4653    1.3128 H   0  0  0  0  0  0  0  0  0  0  0  0
   -2.8250   -2.4117    1.0258 C   0  0  0  0  0  0  0  0  0  0  0  0
   -3.0967   -1.7985    1.8885 H   0  0  0  0  0  0  0  0  0  0  0  0
   -3.5325   -2.2246    0.2145 H   0  0  0  0  0  0  0  0  0  0  0  0
   -1.4162   -2.0762    0.5743 C   0  0  0  0  0  0  0  0  0  0  0  0
   -0.6274   -2.9831    0.3662 O   0  0  0  0  0  0  0  0  0  0  0  0
   -1.1202   -0.7794    0.1970 N   0  0  0  0  0  0  0  0  0  0  0  0
   -1.9158   -0.1527    0.2829 H   0  0  0  0  0  0  0  0  0  0  0  0
    0.1977   -0.0998    0.2690 C   0  0  1  0  0  0  0  0  0  0  0  0
    0.0923    0.6713    1.0397 H   0  0  0  0  0  0  0  0  0  0  0  0
    1.4294   -0.9153    0.7040 C   0  0  0  0  0  0  0  0  0  0  0  0
    1.5620   -1.7779    0.0432 H   0  0  0  0  0  0  0  0  0  0  0  0
    2.3275   -0.2945    0.6173 H   0  0  0  0  0  0  0  0  0  0  0  0
    1.2649   -1.4743    2.4543 S   0  0  0  0  0  0  0  0  0  0  0  0
    2.2728   -2.3707    2.5272 H   0  0  0  0  0  0  0  0  0  0  0  0
    0.4819    0.6604   -1.0359 C   0  0  0  0  0  0  0  0  0  0  0  0
    0.6645    1.8695   -1.0252 O   0  0  0  0  0  0  0  0  0  0  0  0
    0.5368   -0.0357   -2.2280 N   0  0  0  0  0  0  0  0  0  0  0  0
    0.3101   -1.0274   -2.1887 H   0  0  0  0  0  0  0  0  0  0  0  0
    0.7734    0.5945   -3.5203 C   0  0  0  0  0  0  0  0  0  0  0  0
    1.7187    1.1474   -3.5091 H   0  0  0  0  0  0  0  0  0  0  0  0
    0.8280   -0.1644   -4.3067 H   0  0  0  0  0  0  0  0  0  0  0  0
   -0.0381    1.2885   -3.7633 H   0  0  0  0  0  0  0  0  0  0  0  0
  1  2  1  0  0  0  0
  2  3  1  0  0  0  0
  2  4  1  0  0  0  0
  2  5  1  0  0  0  0
  5  6  2  0  0  0  0
  5  7  1  0  0  0  0
  7  8  1  0  0  0  0
  7  9  1  0  0  0  0
  9 10  1  0  0  0  0
  9 11  1  0  0  0  0
  9 16  1  0  0  0  0
 11 12  1  0  0  0  0
 11 13  1  0  0  0  0
 11 14  1  0  0  0  0
 14 15  1  0  0  0  0
 16 17  2  0  0  0  0
 16 18  1  0  0  0  0
 18 19  1  0  0  0  0
 18 20  1  0  0  0  0
 20 21  1  0  0  0  0
 20 22  1  0  0  0  0
 20 23  1  0  0  0  0
M  END
$$$$

  -OEChem-01062216073D

 23 22  0     1  0  0  0  0  0999 V2000
   -2.8677   -3.4935    1.3407 H   0  0  0  0  0  0  0  0  0  0  0  0
   -2.8153   -2.4340    1.0743 C   0  0  0  0  0  0  0  0  0  0  0  0
   -3.0536   -1.8393    1.9596 H   0  0  0  0  0  0  0  0  0  0  0  0
   -3.5521   -2.2288    0.2941 H   0  0  0  0  0  0  0  0  0  0  0  0
   -1.4238   -2.0890    0.5792 C   0  0  0  0  0  0  0  0  0  0  0  0
   -0.6372   -2.9895    0.3390 O   0  0  0  0  0  0  0  0  0  0  0  0
   -1.1483   -0.7883    0.2000 N   0  0  0  0  0  0  0  0  0  0  0  0
   -1.9478   -0.1716    0.3159 H   0  0  0  0  0  0  0  0  0  0  0  0
    0.1644   -0.0947    0.2629 C   0  0  1  0  0  0  0  0  0  0  0  0
    0.0575    0.6735    1.0361 H   0  0  0  0  0  0  0  0  0  0  0  0
    1.4051   -0.9040    0.6839 C   0  0  0  0  0  0  0  0  0  0  0  0
    1.5386   -1.7617    0.0169 H   0  0  0  0  0  0  0  0  0  0  0  0
    2.2986   -0.2770    0.5934 H   0  0  0  0  0  0  0  0  0  0  0  0
    1.2589   -1.4731    2.4327 S   0  0  0  0  0  0  0  0  0  0  0  0
    2.2831   -2.3515    2.4938 H   0  0  0  0  0  0  0  0  0  0  0  0
    0.4412    0.6738   -1.0397 C   0  0  0  0  0  0  0  0  0  0  0  0
    0.9001    1.8067   -1.0061 O   0  0  0  0  0  0  0  0  0  0  0  0
    0.1980    0.0658   -2.2562 N   0  0  0  0  0  0  0  0  0  0  0  0
   -0.1550   -0.8885   -2.2271 H   0  0  0  0  0  0  0  0  0  0  0  0
    0.4771    0.6903   -3.5430 C   0  0  0  0  0  0  0  0  0  0  0  0
    1.5422    0.9307   -3.6290 H   0  0  0  0  0  0  0  0  0  0  0  0
    0.2090    0.0121   -4.3590 H   0  0  0  0  0  0  0  0  0  0  0  0
   -0.1027    1.6125   -3.6551 H   0  0  0  0  0  0  0  0  0  0  0  0
  1  2  1  0  0  0  0
  2  3  1  0  0  0  0
  2  4  1  0  0  0  0
  2  5  1  0  0  0  0
  5  6  2  0  0  0  0
  5  7  1  0  0  0  0
  7  8  1  0  0  0  0
  7  9  1  0  0  0  0
  9 10  1  0  0  0  0
  9 11  1  0  0  0  0
  9 16  1  0  0  0  0
 11 12  1  0  0  0  0
 11 13  1  0  0  0  0
 11 14  1  0  0  0  0
 14 15  1  0  0  0  0
 16 17  2  0  0  0  0
 16 18  1  0  0  0  0
 18 19  1  0  0  0  0
 18 20  1  0  0  0  0
 20 21  1  0  0  0  0
 20 22  1  0  0  0  0
 20 23  1  0  0  0  0
M  END
$$$$

  -OEChem-01062216073D

 23 22  0     1  0  0  0  0  0999 V2000
   -2.8504   -3.5213    1.3497 H   0  0  0  0  0  0  0  0  0  0  0  0
   -2.8067   -2.4567    1.1029 C   0  0  0  0  0  0  0  0  0  0  0  0
   -3.0262   -1.8799    2.0047 H   0  0  0  0  0  0  0  0  0  0  0  0
   -3.5620   -2.2396    0.3439 H   0  0  0  0  0  0  0  0  0  0  0  0
   -1.4271   -2.0988    0.5833 C   0  0  0  0  0  0  0  0  0  0  0  0
   -0.6413   -2.9937    0.3220 O   0  0  0  0  0  0  0  0  0  0  0  0
   -1.1656   -0.7933    0.2086 N   0  0  0  0  0  0  0  0  0  0  0  0
   -1.9666   -0.1833    0.3479 H   0  0  0  0  0  0  0  0  0  0  0  0
    0.1442   -0.0896    0.2625 C   0  0  1  0  0  0  0  0  0  0  0  0
    0.0392    0.6741    1.0401 H   0  0  0  0  0  0  0  0  0  0  0  0
    1.3900   -0.8980    0.6712 C   0  0  0  0  0  0  0  0  0  0  0  0
    1.5221   -1.7516   -0.0011 H   0  0  0  0  0  0  0  0  0  0  0  0
    2.2817   -0.2686    0.5780 H   0  0  0  0  0  0  0  0  0  0  0  0
    1.2557   -1.4734    2.4191 S   0  0  0  0  0  0  0  0  0  0  0  0
    2.2958   -2.3335    2.4775 H   0  0  0  0  0  0  0  0  0  0  0  0
    0.4158    0.6940   -1.0342 C   0  0  0  0  0  0  0  0  0  0  0  0
    1.1073    1.7025   -1.0136 O   0  0  0  0  0  0  0  0  0  0  0  0
   -0.1030    0.2440   -2.2332 N   0  0  0  0  0  0  0  0  0  0  0  0
   -0.5798   -0.6546   -2.2081 H   0  0  0  0  0  0  0  0  0  0  0  0
    0.1916    0.8609   -3.5201 C   0  0  0  0  0  0  0  0  0  0  0  0
    1.2625    0.7972   -3.7395 H   0  0  0  0  0  0  0  0  0  0  0  0
   -0.3571    0.3511   -4.3178 H   0  0  0  0  0  0  0  0  0  0  0  0
   -0.1053    1.9151   -3.5173 H   0  0  0  0  0  0  0  0  0  0  0  0
  1  2  1  0  0  0  0
  2  3  1  0  0  0  0
  2  4  1  0  0  0  0
  2  5  1  0  0  0  0
  5  6  2  0  0  0  0
  5  7  1  0  0  0  0
  7  8  1  0  0  0  0
  7  9  1  0  0  0  0
  9 10  1  0  0  0  0
  9 11  1  0  0  0  0
  9 16  1  0  0  0  0
 11 12  1  0  0  0  0
 11 13  1  0  0  0  0
 11 14  1  0  0  0  0
 14 15  1  0  0  0  0
 16 17  2  0  0  0  0
 16 18  1  0  0  0  0
 18 19  1  0  0  0  0
 18 20  1  0  0  0  0
 20 21  1  0  0  0  0
 20 22  1  0  0  0  0
 20 23  1  0  0  0  0
M  END
$$$$

  -OEChem-01062216073D

 23 22  0     1  0  0  0  0  0999 V2000
   -2.8414   -3.5391    1.3336 H   0  0  0  0  0  0  0  0  0  0  0  0
   -2.7963   -2.4693    1.1104 C   0  0  0  0  0  0  0  0  0  0  0  0
   -3.0010   -1.9126    2.0281 H   0  0  0  0  0  0  0  0  0  0  0  0
   -3.5610   -2.2318    0.3672 H   0  0  0  0  0  0  0  0  0  0  0  0
   -1.4221   -2.1059    0.5800 C   0  0  0  0  0  0  0  0  0  0  0  0
   -0.6364   -2.9983    0.3112 O   0  0  0  0  0  0  0  0  0  0  0  0
   -1.1677   -0.7965    0.2123 N   0  0  0  0  0  0  0  0  0  0  0  0
   -1.9678   -0.1913    0.3743 H   0  0  0  0  0  0  0  0  0  0  0  0
    0.1410   -0.0876    0.2634 C   0  0  1  0  0  0  0  0  0  0  0  0
    0.0362    0.6721    1.0444 H   0  0  0  0  0  0  0  0  0  0  0  0
    1.3865   -0.8987    0.6719 C   0  0  0  0  0  0  0  0  0  0  0  0
    1.5181   -1.7511   -0.0017 H   0  0  0  0  0  0  0  0  0  0  0  0
    2.2809   -0.2727    0.5818 H   0  0  0  0  0  0  0  0  0  0  0  0
    1.2497   -1.4733    2.4200 S   0  0  0  0  0  0  0  0  0  0  0  0
    2.2910   -2.3318    2.4781 H   0  0  0  0  0  0  0  0  0  0  0  0
    0.4106    0.7097   -1.0283 C   0  0  0  0  0  0  0  0  0  0  0  0
    1.2799    1.5699   -1.0541 O   0  0  0  0  0  0  0  0  0  0  0  0
   -0.3398    0.4681   -2.1638 N   0  0  0  0  0  0  0  0  0  0  0  0
   -0.9435   -0.3497   -2.1301 H   0  0  0  0  0  0  0  0  0  0  0  0
   -0.0676    1.0957   -3.4510 C   0  0  0  0  0  0  0  0  0  0  0  0
    0.9186    0.7969   -3.8216 H   0  0  0  0  0  0  0  0  0  0  0  0
   -0.8208    0.7947   -4.1855 H   0  0  0  0  0  0  0  0  0  0  0  0
   -0.0937    2.1867   -3.3596 H   0  0  0  0  0  0  0  0  0  0  0  0
  1  2  1  0  0  0  0
  2  3  1  0  0  0  0
  2  4  1  0  0  0  0
  2  5  1  0  0  0  0
  5  6  2  0  0  0  0
  5  7  1  0  0  0  0
  7  8  1  0  0  0  0
  7  9  1  0  0  0  0
  9 10  1  0  0  0  0
  9 11  1  0  0  0  0
  9 16  1  0  0  0  0
 11 12  1  0  0  0  0
 11 13  1  0  0  0  0
 11 14  1  0  0  0  0
 14 15  1  0  0  0  0
 16 17  2  0  0  0  0
 16 18  1  0  0  0  0
 18 19  1  0  0  0  0
 18 20  1  0  0  0  0
 20 21  1  0  0  0  0
 20 22  1  0  0  0  0
 20 23  1  0  0  0  0
M  END
$$$$

  -OEChem-01062216073D

 23 22  0     1  0  0  0  0  0999 V2000
   -2.8248   -3.5356    1.3526 H   0  0  0  0  0  0  0  0  0  0  0  0
   -2.7870   -2.4710    1.1045 C   0  0  0  0  0  0  0  0  0  0  0  0
   -2.9986   -1.8950    2.0085 H   0  0  0  0  0  0  0  0  0  0  0  0
   -3.5513   -2.2570    0.3539 H   0  0  0  0  0  0  0  0  0  0  0  0
   -1.4143   -2.1096    0.5694 C   0  0  0  0  0  0  0  0  0  0  0  0
   -0.6323   -3.0041    0.2979 O   0  0  0  0  0  0  0  0  0  0  0  0
   -1.1590   -0.7981    0.2080 N   0  0  0  0  0  0  0  0  0  0  0  0
   -1.9547   -0.1939    0.3927 H   0  0  0  0  0  0  0  0  0  0  0  0
    0.1519   -0.0916    0.2601 C   0  0  1  0  0  0  0  0  0  0  0  0
    0.0474    0.6677    1.0415 H   0  0  0  0  0  0  0  0  0  0  0  0
    1.3907   -0.9111    0.6782 C   0  0  0  0  0  0  0  0  0  0  0  0
    1.5206   -1.7661    0.0075 H   0  0  0  0  0  0  0  0  0  0  0  0
    2.2916   -0.2942    0.5936 H   0  0  0  0  0  0  0  0  0  0  0  0
    1.2401   -1.4772    2.4280 S   0  0  0  0  0  0  0  0  0  0  0  0
    2.2759   -2.3417    2.4946 H   0  0  0  0  0  0  0  0  0  0  0  0
    0.4221    0.7142   -1.0295 C   0  0  0  0  0  0  0  0  0  0  0  0
    1.4229    1.4108   -1.1307 O   0  0  0  0  0  0  0  0  0  0  0  0
   -0.5031    0.7160   -2.0574 N   0  0  0  0  0  0  0  0  0  0  0  0
   -1.2218   -0.0006   -2.0028 H   0  0  0  0  0  0  0  0  0  0  0  0
   -0.2750    1.3867   -3.3317 C   0  0  0  0  0  0  0  0  0  0  0  0
    0.5846    0.9463   -3.8479 H   0  0  0  0  0  0  0  0  0  0  0  0
   -1.1552    1.2876   -3.9743 H   0  0  0  0  0  0  0  0  0  0  0  0
   -0.0828    2.4536   -3.1755 H   0  0  0  0  0  0  0  0  0  0  0  0
  1  2  1  0  0  0  0
  2  3  1  0  0  0  0
  2  4  1  0  0  0  0
  2  5  1  0  0  0  0
  5  6  2  0  0  0  0
  5  7  1  0  0  0  0
  7  8  1  0  0  0  0
  7  9  1  0  0  0  0
  9 10  1  0  0  0  0
  9 11  1  0  0  0  0
  9 16  1  0  0  0  0
 11 12  1  0  0  0  0
 11 13  1  0  0  0  0
 11 14  1  0  0  0  0
 14 15  1  0  0  0  0
 16 17  2  0  0  0  0
 16 18  1  0  0  0  0
 18 19  1  0  0  0  0
 18 20  1  0  0  0  0
 20 21  1  0  0  0  0
 20 22  1  0  0  0  0
 20 23  1  0  0  0  0
M  END
$$$$

  -OEChem-01062216073D

 23 22  0     1  0  0  0  0  0999 V2000
   -2.8267   -3.5390    1.3185 H   0  0  0  0  0  0  0  0  0  0  0  0
   -2.7815   -2.4717    1.0834 C   0  0  0  0  0  0  0  0  0  0  0  0
   -2.9937   -1.9050    1.9932 H   0  0  0  0  0  0  0  0  0  0  0  0
   -3.5413   -2.2446    0.3319 H   0  0  0  0  0  0  0  0  0  0  0  0
   -1.4045   -2.1118    0.5581 C   0  0  0  0  0  0  0  0  0  0  0  0
   -0.6216   -3.0088    0.2976 O   0  0  0  0  0  0  0  0  0  0  0  0
   -1.1462   -0.7986    0.2025 N   0  0  0  0  0  0  0  0  0  0  0  0
   -1.9383   -0.1957    0.4041 H   0  0  0  0  0  0  0  0  0  0  0  0
    0.1672   -0.0957    0.2541 C   0  0  1  0  0  0  0  0  0  0  0  0
    0.0633    0.6643    1.0344 H   0  0  0  0  0  0  0  0  0  0  0  0
    1.3997   -0.9205    0.6849 C   0  0  0  0  0  0  0  0  0  0  0  0
    1.5294   -1.7803    0.0201 H   0  0  0  0  0  0  0  0  0  0  0  0
    2.3066   -0.3122    0.6045 H   0  0  0  0  0  0  0  0  0  0  0  0
    1.2327   -1.4702    2.4387 S   0  0  0  0  0  0  0  0  0  0  0  0
    2.2630   -2.3403    2.5191 H   0  0  0  0  0  0  0  0  0  0  0  0
    0.4351    0.7165   -1.0348 C   0  0  0  0  0  0  0  0  0  0  0  0
    1.5294    1.2228   -1.2442 O   0  0  0  0  0  0  0  0  0  0  0  0
   -0.5972    0.9824   -1.9171 N   0  0  0  0  0  0  0  0  0  0  0  0
   -1.4264    0.4062   -1.8105 H   0  0  0  0  0  0  0  0  0  0  0  0
   -0.4017    1.6979   -3.1727 C   0  0  0  0  0  0  0  0  0  0  0  0
    0.2844    1.1472   -3.8246 H   0  0  0  0  0  0  0  0  0  0  0  0
   -1.3565    1.8165   -3.6936 H   0  0  0  0  0  0  0  0  0  0  0  0
    0.0133    2.6941   -2.9861 H   0  0  0  0  0  0  0  0  0  0  0  0
  1  2  1  0  0  0  0
  2  3  1  0  0  0  0
  2  4  1  0  0  0  0
  2  5  1  0  0  0  0
  5  6  2  0  0  0  0
  5  7  1  0  0  0  0
  7  8  1  0  0  0  0
  7  9  1  0  0  0  0
  9 10  1  0  0  0  0
  9 11  1  0  0  0  0
  9 16  1  0  0  0  0
 11 12  1  0  0  0  0
 11 13  1  0  0  0  0
 11 14  1  0  0  0  0
 14 15  1  0  0  0  0
 16 17  2  0  0  0  0
 16 18  1  0  0  0  0
 18 19  1  0  0  0  0
 18 20  1  0  0  0  0
 20 21  1  0  0  0  0
 20 22  1  0  0  0  0
 20 23  1  0  0  0  0
M  END
$$$$

  -OEChem-01062216073D

 23 22  0     1  0  0  0  0  0999 V2000
   -2.8281   -3.5417    1.2848 H   0  0  0  0  0  0  0  0  0  0  0  0
   -2.7768   -2.4724    1.0599 C   0  0  0  0  0  0  0  0  0  0  0  0
   -2.9903   -1.9132    1.9740 H   0  0  0  0  0  0  0  0  0  0  0  0
   -3.5318   -2.2349    0.3068 H   0  0  0  0  0  0  0  0  0  0  0  0
   -1.3954   -2.1143    0.5446 C   0  0  0  0  0  0  0  0  0  0  0  0
   -0.6085   -3.0131    0.3035 O   0  0  0  0  0  0  0  0  0  0  0  0
   -1.1353   -0.7998    0.1933 N   0  0  0  0  0  0  0  0  0  0  0  0
   -1.9281   -0.2004    0.3990 H   0  0  0  0  0  0  0  0  0  0  0  0
    0.1787   -0.0987    0.2472 C   0  0  1  0  0  0  0  0  0  0  0  0
    0.0729    0.6615    1.0270 H   0  0  0  0  0  0  0  0  0  0  0  0
    1.4073   -0.9242    0.6908 C   0  0  0  0  0  0  0  0  0  0  0  0
    1.5396   -1.7878    0.0315 H   0  0  0  0  0  0  0  0  0  0  0  0
    2.3159   -0.3181    0.6130 H   0  0  0  0  0  0  0  0  0  0  0  0
    1.2286   -1.4619    2.4474 S   0  0  0  0  0  0  0  0  0  0  0  0
    2.2483   -2.3441    2.5348 H   0  0  0  0  0  0  0  0  0  0  0  0
    0.4462    0.7177   -1.0410 C   0  0  0  0  0  0  0  0  0  0  0  0
    1.5841    1.0070   -1.3875 O   0  0  0  0  0  0  0  0  0  0  0  0
   -0.6114    1.2516   -1.7573 N   0  0  0  0  0  0  0  0  0  0  0  0
   -1.5288    0.8701   -1.5536 H   0  0  0  0  0  0  0  0  0  0  0  0
   -0.4311    2.0093   -2.9909 C   0  0  0  0  0  0  0  0  0  0  0  0
    0.0380    1.3855   -3.7591 H   0  0  0  0  0  0  0  0  0  0  0  0
   -1.3984    2.3558   -3.3671 H   0  0  0  0  0  0  0  0  0  0  0  0
    0.2018    2.8858   -2.8149 H   0  0  0  0  0  0  0  0  0  0  0  0
  1  2  1  0  0  0  0
  2  3  1  0  0  0  0
  2  4  1  0  0  0  0
  2  5  1  0  0  0  0
  5  6  2  0  0  0  0
  5  7  1  0  0  0  0
  7  8  1  0  0  0  0
  7  9  1  0  0  0  0
  9 10  1  0  0  0  0
  9 11  1  0  0  0  0
  9 16  1  0  0  0  0
 11 12  1  0  0  0  0
 11 13  1  0  0  0  0
 11 14  1  0  0  0  0
 14 15  1  0  0  0  0
 16 17  2  0  0  0  0
 16 18  1  0  0  0  0
 18 19  1  0  0  0  0
 18 20  1  0  0  0  0
 20 21  1  0  0  0  0
 20 22  1  0  0  0  0
 20 23  1  0  0  0  0
M  END
$$$$

  -OEChem-01062216073D

 23 22  0     1  0  0  0  0  0999 V2000
   -2.8534   -3.5268    1.2636 H   0  0  0  0  0  0  0  0  0  0  0  0
   -2.7949   -2.4655    1.0056 C   0  0  0  0  0  0  0  0  0  0  0  0
   -3.0656   -1.8774    1.8857 H   0  0  0  0  0  0  0  0  0  0  0  0
   -3.5051   -2.2594    0.2013 H   0  0  0  0  0  0  0  0  0  0  0  0
   -1.3876   -2.1141    0.5602 C   0  0  0  0  0  0  0  0  0  0  0  0
   -0.5863   -3.0165    0.3916 O   0  0  0  0  0  0  0  0  0  0  0  0
   -1.1141   -0.8029    0.2056 N   0  0  0  0  0  0  0  0  0  0  0  0
   -1.9185   -0.2014    0.3442 H   0  0  0  0  0  0  0  0  0  0  0  0
    0.2004   -0.1032    0.2474 C   0  0  1  0  0  0  0  0  0  0  0  0
    0.0989    0.6600    1.0245 H   0  0  0  0  0  0  0  0  0  0  0  0
    1.4327   -0.9204    0.6937 C   0  0  0  0  0  0  0  0  0  0  0  0
    1.5623   -1.7910    0.0427 H   0  0  0  0  0  0  0  0  0  0  0  0
    2.3388   -0.3125    0.6021 H   0  0  0  0  0  0  0  0  0  0  0  0
    1.2657   -1.4395    2.4570 S   0  0  0  0  0  0  0  0  0  0  0  0
    2.2522   -2.3595    2.5295 H   0  0  0  0  0  0  0  0  0  0  0  0
    0.4568    0.7078   -1.0461 C   0  0  0  0  0  0  0  0  0  0  0  0
    1.5619    0.7489   -1.5708 O   0  0  0  0  0  0  0  0  0  0  0  0
   -0.5490    1.4945   -1.5820 N   0  0  0  0  0  0  0  0  0  0  0  0
   -1.4749    1.4067   -1.1796 H   0  0  0  0  0  0  0  0  0  0  0  0
   -0.3814    2.2894   -2.7936 C   0  0  0  0  0  0  0  0  0  0  0  0
   -0.1494    1.6438   -3.6473 H   0  0  0  0  0  0  0  0  0  0  0  0
   -1.3004    2.8403   -3.0157 H   0  0  0  0  0  0  0  0  0  0  0  0
    0.4318    3.0123   -2.6682 H   0  0  0  0  0  0  0  0  0  0  0  0
  1  2  1  0  0  0  0
  2  3  1  0  0  0  0
  2  4  1  0  0  0  0
  2  5  1  0  0  0  0
  5  6  2  0  0  0  0
  5  7  1  0  0  0  0
  7  8  1  0  0  0  0
  7  9  1  0  0  0  0
  9 10  1  0  0  0  0
  9 11  1  0  0  0  0
  9 16  1  0  0  0  0
 11 12  1  0  0  0  0
 11 13  1  0  0  0  0
 11 14  1  0  0  0  0
 14 15  1  0  0  0  0
 16 17  2  0  0  0  0
 16 18  1  0  0  0  0
 18 19  1  0  0  0  0
 18 20  1  0  0  0  0
 20 21  1  0  0  0  0
 20 22  1  0  0  0  0
 20 23  1  0  0  0  0
M  END
$$$$

  -OEChem-01062216073D

 23 22  0     1  0  0  0  0  0999 V2000
   -2.8520   -3.4908    1.1576 H   0  0  0  0  0  0  0  0  0  0  0  0
   -2.7452   -2.4495    0.8398 C   0  0  0  0  0  0  0  0  0  0  0  0
   -3.2745   -1.8107    1.5509 H   0  0  0  0  0  0  0  0  0  0  0  0
   -3.1962   -2.3376   -0.1491 H   0  0  0  0  0  0  0  0  0  0  0  0
   -1.2780   -2.0652    0.7884 C   0  0  0  0  0  0  0  0  0  0  0  0
   -0.4497   -2.9181    1.0489 O   0  0  0  0  0  0  0  0  0  0  0  0
   -0.9555   -0.7791    0.3884 N   0  0  0  0  0  0  0  0  0  0  0  0
   -1.7654   -0.2269    0.1256 H   0  0  0  0  0  0  0  0  0  0  0  0
    0.3587   -0.0826    0.3089 C   0  0  1  0  0  0  0  0  0  0  0  0
    0.3260    0.6957    1.0768 H   0  0  0  0  0  0  0  0  0  0  0  0
    1.6539   -0.8627    0.6305 C   0  0  0  0  0  0  0  0  0  0  0  0
    1.7321   -1.7364   -0.0254 H   0  0  0  0  0  0  0  0  0  0  0  0
    2.5216   -0.2251    0.4311 H   0  0  0  0  0  0  0  0  0  0  0  0
    1.7282   -1.3959    2.3924 S   0  0  0  0  0  0  0  0  0  0  0  0
    0.8159   -2.3975    2.3239 H   0  0  0  0  0  0  0  0  0  0  0  0
    0.4758    0.6779   -1.0319 C   0  0  0  0  0  0  0  0  0  0  0  0
    1.3497    0.4231   -1.8492 O   0  0  0  0  0  0  0  0  0  0  0  0
   -0.4448    1.6677   -1.3340 N   0  0  0  0  0  0  0  0  0  0  0  0
   -1.0825    1.9545   -0.5987 H   0  0  0  0  0  0  0  0  0  0  0  0
   -0.3826    2.4630   -2.5557 C   0  0  0  0  0  0  0  0  0  0  0  0
   -0.4386    1.8163   -3.4379 H   0  0  0  0  0  0  0  0  0  0  0  0
   -1.2194    3.1672   -2.5928 H   0  0  0  0  0  0  0  0  0  0  0  0
    0.5519    3.0327   -2.5958 H   0  0  0  0  0  0  0  0  0  0  0  0
  1  2  1  0  0  0  0
  2  3  1  0  0  0  0
  2  4  1  0  0  0  0
  2  5  1  0  0  0  0
  5  6  2  0  0  0  0
  5  7  1  0  0  0  0
  7  8  1  0  0  0  0
  7  9  1  0  0  0  0
  9 10  1  0  0  0  0
  9 11  1  0  0  0  0
  9 16  1  0  0  0  0
 11 12  1  0  0  0  0
 11 13  1  0  0  0  0
 11 14  1  0  0  0  0
 14 15  1  0  0  0  0
 16 17  2  0  0  0  0
 16 18  1  0  0  0  0
 18 19  1  0  0  0  0
 18 20  1  0  0  0  0
 20 21  1  0  0  0  0
 20 22  1  0  0  0  0
 20 23  1  0  0  0  0
M  END
$$$$

  -OEChem-01062216073D

 23 22  0     1  0  0  0  0  0999 V2000
   -2.8626   -3.4834    1.1530 H   0  0  0  0  0  0  0  0  0  0  0  0
   -2.7523   -2.4424    0.8356 C   0  0  0  0  0  0  0  0  0  0  0  0
   -3.2892   -1.8029    1.5403 H   0  0  0  0  0  0  0  0  0  0  0  0
   -3.1926   -2.3313   -0.1583 H   0  0  0  0  0  0  0  0  0  0  0  0
   -1.2844   -2.0582    0.8001 C   0  0  0  0  0  0  0  0  0  0  0  0
   -0.4589   -2.9093    1.0753 O   0  0  0  0  0  0  0  0  0  0  0  0
   -0.9582   -0.7726    0.4023 N   0  0  0  0  0  0  0  0  0  0  0  0
   -1.7644   -0.2224    0.1222 H   0  0  0  0  0  0  0  0  0  0  0  0
    0.3562   -0.0793    0.3193 C   0  0  1  0  0  0  0  0  0  0  0  0
    0.3300    0.6915    1.0948 H   0  0  0  0  0  0  0  0  0  0  0  0
    1.6565   -0.8575    0.6187 C   0  0  0  0  0  0  0  0  0  0  0  0
    1.7261   -1.7259   -0.0452 H   0  0  0  0  0  0  0  0  0  0  0  0
    2.5190   -0.2158    0.4102 H   0  0  0  0  0  0  0  0  0  0  0  0
    1.7573   -1.4110    2.3725 S   0  0  0  0  0  0  0  0  0  0  0  0
    0.8409   -2.4093    2.3091 H   0  0  0  0  0  0  0  0  0  0  0  0
    0.4690    0.6827   -1.0187 C   0  0  0  0  0  0  0  0  0  0  0  0
    1.1503    0.2622   -1.9434 O   0  0  0  0  0  0  0  0  0  0  0  0
   -0.2325    1.8637   -1.1904 N   0  0  0  0  0  0  0  0  0  0  0  0
   -0.7139    2.2466   -0.3826 H   0  0  0  0  0  0  0  0  0  0  0  0
   -0.1486    2.6687   -2.4043 C   0  0  0  0  0  0  0  0  0  0  0  0
   -0.4418    2.0774   -3.2784 H   0  0  0  0  0  0  0  0  0  0  0  0
   -0.8177    3.5317   -2.3337 H   0  0  0  0  0  0  0  0  0  0  0  0
    0.8733    3.0332   -2.5530 H   0  0  0  0  0  0  0  0  0  0  0  0
  1  2  1  0  0  0  0
  2  3  1  0  0  0  0
  2  4  1  0  0  0  0
  2  5  1  0  0  0  0
  5  6  2  0  0  0  0
  5  7  1  0  0  0  0
  7  8  1  0  0  0  0
  7  9  1  0  0  0  0
  9 10  1  0  0  0  0
  9 11  1  0  0  0  0
  9 16  1  0  0  0  0
 11 12  1  0  0  0  0
 11 13  1  0  0  0  0
 11 14  1  0  0  0  0
 14 15  1  0  0  0  0
 16 17  2  0  0  0  0
 16 18  1  0  0  0  0
 18 19  1  0  0  0  0
 18 20  1  0  0  0  0
 20 21  1  0  0  0  0
 20 22  1  0  0  0  0
 20 23  1  0  0  0  0
M  END
$$$$

  -OEChem-01062216073D

 23 22  0     1  0  0  0  0  0999 V2000
   -2.8651   -3.4895    1.1338 H   0  0  0  0  0  0  0  0  0  0  0  0
   -2.7550   -2.4462    0.8238 C   0  0  0  0  0  0  0  0  0  0  0  0
   -3.3047   -1.8127    1.5240 H   0  0  0  0  0  0  0  0  0  0  0  0
   -3.1812   -2.3313   -0.1758 H   0  0  0  0  0  0  0  0  0  0  0  0
   -1.2886   -2.0554    0.8113 C   0  0  0  0  0  0  0  0  0  0  0  0
   -0.4647   -2.9026    1.1027 O   0  0  0  0  0  0  0  0  0  0  0  0
   -0.9619   -0.7690    0.4178 N   0  0  0  0  0  0  0  0  0  0  0  0
   -1.7654   -0.2240    0.1195 H   0  0  0  0  0  0  0  0  0  0  0  0
    0.3514   -0.0756    0.3336 C   0  0  1  0  0  0  0  0  0  0  0  0
    0.3268    0.6868    1.1174 H   0  0  0  0  0  0  0  0  0  0  0  0
    1.6571   -0.8501    0.6144 C   0  0  0  0  0  0  0  0  0  0  0  0
    1.7214   -1.7126   -0.0583 H   0  0  0  0  0  0  0  0  0  0  0  0
    2.5152   -0.2042    0.4018 H   0  0  0  0  0  0  0  0  0  0  0  0
    1.7805   -1.4233    2.3606 S   0  0  0  0  0  0  0  0  0  0  0  0
    0.8450   -2.4042    2.3090 H   0  0  0  0  0  0  0  0  0  0  0  0
    0.4668    0.6932   -0.9985 C   0  0  0  0  0  0  0  0  0  0  0  0
    0.9026    0.1548   -2.0063 O   0  0  0  0  0  0  0  0  0  0  0  0
    0.0389    2.0073   -1.0733 N   0  0  0  0  0  0  0  0  0  0  0  0
   -0.2563    2.4577   -0.2122 H   0  0  0  0  0  0  0  0  0  0  0  0
    0.1460    2.8111   -2.2860 C   0  0  0  0  0  0  0  0  0  0  0  0
   -0.3893    2.3322   -3.1128 H   0  0  0  0  0  0  0  0  0  0  0  0
   -0.2888    3.8021   -2.1236 H   0  0  0  0  0  0  0  0  0  0  0  0
    1.1958    2.9357   -2.5718 H   0  0  0  0  0  0  0  0  0  0  0  0
  1  2  1  0  0  0  0
  2  3  1  0  0  0  0
  2  4  1  0  0  0  0
  2  5  1  0  0  0  0
  5  6  2  0  0  0  0
  5  7  1  0  0  0  0
  7  8  1  0  0  0  0
  7  9  1  0  0  0  0
  9 10  1  0  0  0  0
  9 11  1  0  0  0  0
  9 16  1  0  0  0  0
 11 12  1  0  0  0  0
 11 13  1  0  0  0  0
 11 14  1  0  0  0  0
 14 15  1  0  0  0  0
 16 17  2  0  0  0  0
 16 18  1  0  0  0  0
 18 19  1  0  0  0  0
 18 20  1  0  0  0  0
 20 21  1  0  0  0  0
 20 22  1  0  0  0  0
 20 23  1  0  0  0  0
M  END
$$$$

  -OEChem-01062216073D

 23 22  0     1  0  0  0  0  0999 V2000
   -2.8740   -3.4883    1.1018 H   0  0  0  0  0  0  0  0  0  0  0  0
   -2.7579   -2.4432    0.8005 C   0  0  0  0  0  0  0  0  0  0  0  0
   -3.3315   -1.8150    1.4859 H   0  0  0  0  0  0  0  0  0  0  0  0
   -3.1530   -2.3252   -0.2115 H   0  0  0  0  0  0  0  0  0  0  0  0
   -1.2938   -2.0463    0.8347 C   0  0  0  0  0  0  0  0  0  0  0  0
   -0.4770   -2.8884    1.1590 O   0  0  0  0  0  0  0  0  0  0  0  0
   -0.9609   -0.7608    0.4447 N   0  0  0  0  0  0  0  0  0  0  0  0
   -1.7541   -0.2297    0.0969 H   0  0  0  0  0  0  0  0  0  0  0  0
    0.3544   -0.0734    0.3553 C   0  0  1  0  0  0  0  0  0  0  0  0
    0.3339    0.6815    1.1463 H   0  0  0  0  0  0  0  0  0  0  0  0
    1.6638   -0.8485    0.6119 C   0  0  0  0  0  0  0  0  0  0  0  0
    1.7167   -1.7032   -0.0715 H   0  0  0  0  0  0  0  0  0  0  0  0
    2.5189   -0.2005    0.3940 H   0  0  0  0  0  0  0  0  0  0  0  0
    1.8185   -1.4445    2.3477 S   0  0  0  0  0  0  0  0  0  0  0  0
    0.8649   -2.4086    2.3132 H   0  0  0  0  0  0  0  0  0  0  0  0
    0.4700    0.7013   -0.9725 C   0  0  0  0  0  0  0  0  0  0  0  0
    0.6009    0.1079   -2.0335 O   0  0  0  0  0  0  0  0  0  0  0  0
    0.3530    2.0799   -0.9859 N   0  0  0  0  0  0  0  0  0  0  0  0
    0.2812    2.5574   -0.0921 H   0  0  0  0  0  0  0  0  0  0  0  0
    0.4630    2.8771   -2.2026 C   0  0  0  0  0  0  0  0  0  0  0  0
   -0.2823    2.5594   -2.9396 H   0  0  0  0  0  0  0  0  0  0  0  0
    0.2951    3.9350   -1.9786 H   0  0  0  0  0  0  0  0  0  0  0  0
    1.4604    2.7695   -2.6422 H   0  0  0  0  0  0  0  0  0  0  0  0
  1  2  1  0  0  0  0
  2  3  1  0  0  0  0
  2  4  1  0  0  0  0
  2  5  1  0  0  0  0
  5  6  2  0  0  0  0
  5  7  1  0  0  0  0
  7  8  1  0  0  0  0
  7  9  1  0  0  0  0
  9 10  1  0  0  0  0
  9 11  1  0  0  0  0
  9 16  1  0  0  0  0
 11 12  1  0  0  0  0
 11 13  1  0  0  0  0
 11 14  1  0  0  0  0
 14 15  1  0  0  0  0
 16 17  2  0  0  0  0
 16 18  1  0  0  0  0
 18 19  1  0  0  0  0
 18 20  1  0  0  0  0
 20 21  1  0  0  0  0
 20 22  1  0  0  0  0
 20 23  1  0  0  0  0
M  END
$$$$

  -OEChem-01062216073D

 23 22  0     1  0  0  0  0  0999 V2000
   -2.8858   -3.4766    1.0912 H   0  0  0  0  0  0  0  0  0  0  0  0
   -2.7602   -2.4365    0.7767 C   0  0  0  0  0  0  0  0  0  0  0  0
   -3.3535   -1.7971    1.4347 H   0  0  0  0  0  0  0  0  0  0  0  0
   -3.1248   -2.3341   -0.2484 H   0  0  0  0  0  0  0  0  0  0  0  0
   -1.2975   -2.0393    0.8485 C   0  0  0  0  0  0  0  0  0  0  0  0
   -0.4898   -2.8780    1.2033 O   0  0  0  0  0  0  0  0  0  0  0  0
   -0.9541   -0.7562    0.4612 N   0  0  0  0  0  0  0  0  0  0  0  0
   -1.7303   -0.2414    0.0547 H   0  0  0  0  0  0  0  0  0  0  0  0
    0.3663   -0.0797    0.3677 C   0  0  1  0  0  0  0  0  0  0  0  0
    0.3479    0.6734    1.1607 H   0  0  0  0  0  0  0  0  0  0  0  0
    1.6735   -0.8593    0.6183 C   0  0  0  0  0  0  0  0  0  0  0  0
    1.7179   -1.7146   -0.0647 H   0  0  0  0  0  0  0  0  0  0  0  0
    2.5307   -0.2157    0.3957 H   0  0  0  0  0  0  0  0  0  0  0  0
    1.8373   -1.4572    2.3523 S   0  0  0  0  0  0  0  0  0  0  0  0
    0.8593   -2.3969    2.3367 H   0  0  0  0  0  0  0  0  0  0  0  0
    0.4881    0.7000   -0.9566 C   0  0  0  0  0  0  0  0  0  0  0  0
    0.2867    0.1430   -2.0266 O   0  0  0  0  0  0  0  0  0  0  0  0
    0.6974    2.0675   -0.9435 N   0  0  0  0  0  0  0  0  0  0  0  0
    0.8717    2.5110   -0.0460 H   0  0  0  0  0  0  0  0  0  0  0  0
    0.7841    2.8739   -2.1560 C   0  0  0  0  0  0  0  0  0  0  0  0
   -0.1330    2.7794   -2.7471 H   0  0  0  0  0  0  0  0  0  0  0  0
    0.9209    3.9290   -1.9000 H   0  0  0  0  0  0  0  0  0  0  0  0
    1.6324    2.5533   -2.7699 H   0  0  0  0  0  0  0  0  0  0  0  0
  1  2  1  0  0  0  0
  2  3  1  0  0  0  0
  2  4  1  0  0  0  0
  2  5  1  0  0  0  0
  5  6  2  0  0  0  0
  5  7  1  0  0  0  0
  7  8  1  0  0  0  0
  7  9  1  0  0  0  0
  9 10  1  0  0  0  0
  9 11  1  0  0  0  0
  9 16  1  0  0  0  0
 11 12  1  0  0  0  0
 11 13  1  0  0  0  0
 11 14  1  0  0  0  0
 14 15  1  0  0  0  0
 16 17  2  0  0  0  0
 16 18  1  0  0  0  0
 18 19  1  0  0  0  0
 18 20  1  0  0  0  0
 20 21  1  0  0  0  0
 20 22  1  0  0  0  0
 20 23  1  0  0  0  0
M  END
$$$$

  -OEChem-01062216073D

 23 22  0     1  0  0  0  0  0999 V2000
   -2.8902   -3.4763    1.0725 H   0  0  0  0  0  0  0  0  0  0  0  0
   -2.7609   -2.4358    0.7610 C   0  0  0  0  0  0  0  0  0  0  0  0
   -3.3740   -1.7986    1.4027 H   0  0  0  0  0  0  0  0  0  0  0  0
   -3.0993   -2.3354   -0.2733 H   0  0  0  0  0  0  0  0  0  0  0  0
   -1.3019   -2.0325    0.8698 C   0  0  0  0  0  0  0  0  0  0  0  0
   -0.5001   -2.8669    1.2477 O   0  0  0  0  0  0  0  0  0  0  0  0
   -0.9509   -0.7526    0.4804 N   0  0  0  0  0  0  0  0  0  0  0  0
   -1.7119   -0.2534    0.0264 H   0  0  0  0  0  0  0  0  0  0  0  0
    0.3739   -0.0868    0.3749 C   0  0  1  0  0  0  0  0  0  0  0  0
    0.3620    0.6696    1.1649 H   0  0  0  0  0  0  0  0  0  0  0  0
    1.6782   -0.8734    0.6210 C   0  0  0  0  0  0  0  0  0  0  0  0
    1.7101   -1.7333   -0.0569 H   0  0  0  0  0  0  0  0  0  0  0  0
    2.5385   -0.2379    0.3879 H   0  0  0  0  0  0  0  0  0  0  0  0
    1.8554   -1.4650    2.3558 S   0  0  0  0  0  0  0  0  0  0  0  0
    0.8514   -2.3768    2.3671 H   0  0  0  0  0  0  0  0  0  0  0  0
    0.4948    0.6950   -0.9491 C   0  0  0  0  0  0  0  0  0  0  0  0
   -0.0027    0.2570   -1.9780 O   0  0  0  0  0  0  0  0  0  0  0  0
    1.0180    1.9757   -0.9537 N   0  0  0  0  0  0  0  0  0  0  0  0
    1.4153    2.3275   -0.0871 H   0  0  0  0  0  0  0  0  0  0  0  0
    1.1091    2.7985   -2.1547 C   0  0  0  0  0  0  0  0  0  0  0  0
    0.1171    2.9496   -2.5935 H   0  0  0  0  0  0  0  0  0  0  0  0
    1.5306    3.7788   -1.9113 H   0  0  0  0  0  0  0  0  0  0  0  0
    1.7541    2.3199   -2.8993 H   0  0  0  0  0  0  0  0  0  0  0  0
  1  2  1  0  0  0  0
  2  3  1  0  0  0  0
  2  4  1  0  0  0  0
  2  5  1  0  0  0  0
  5  6  2  0  0  0  0
  5  7  1  0  0  0  0
  7  8  1  0  0  0  0
  7  9  1  0  0  0  0
  9 10  1  0  0  0  0
  9 11  1  0  0  0  0
  9 16  1  0  0  0  0
 11 12  1  0  0  0  0
 11 13  1  0  0  0  0
 11 14  1  0  0  0  0
 14 15  1  0  0  0  0
 16 17  2  0  0  0  0
 16 18  1  0  0  0  0
 18 19  1  0  0  0  0
 18 20  1  0  0  0  0
 20 21  1  0  0  0  0
 20 22  1  0  0  0  0
 20 23  1  0  0  0  0
M  END
$$$$

  -OEChem-01062216073D

 23 22  0     1  0  0  0  0  0999 V2000
   -2.9003   -3.4651    1.0694 H   0  0  0  0  0  0  0  0  0  0  0  0
   -2.7606   -2.4281    0.7511 C   0  0  0  0  0  0  0  0  0  0  0  0
   -3.3762   -1.7814    1.3808 H   0  0  0  0  0  0  0  0  0  0  0  0
   -3.0868   -2.3333   -0.2876 H   0  0  0  0  0  0  0  0  0  0  0  0
   -1.3004   -2.0335    0.8737 C   0  0  0  0  0  0  0  0  0  0  0  0
   -0.5063   -2.8724    1.2582 O   0  0  0  0  0  0  0  0  0  0  0  0
   -0.9389   -0.7567    0.4847 N   0  0  0  0  0  0  0  0  0  0  0  0
   -1.6862   -0.2632    0.0005 H   0  0  0  0  0  0  0  0  0  0  0  0
    0.3877   -0.0944    0.3829 C   0  0  1  0  0  0  0  0  0  0  0  0
    0.3763    0.6678    1.1677 H   0  0  0  0  0  0  0  0  0  0  0  0
    1.6852   -0.8909    0.6395 C   0  0  0  0  0  0  0  0  0  0  0  0
    1.7147   -1.7538   -0.0347 H   0  0  0  0  0  0  0  0  0  0  0  0
    2.5537   -0.2655    0.4115 H   0  0  0  0  0  0  0  0  0  0  0  0
    1.8463   -1.4773    2.3775 S   0  0  0  0  0  0  0  0  0  0  0  0
    0.8339   -2.3802    2.3881 H   0  0  0  0  0  0  0  0  0  0  0  0
    0.5110    0.6846   -0.9443 C   0  0  0  0  0  0  0  0  0  0  0  0
   -0.2063    0.4072   -1.8978 O   0  0  0  0  0  0  0  0  0  0  0  0
    1.3028    1.8171   -1.0150 N   0  0  0  0  0  0  0  0  0  0  0  0
    1.8574    2.0592   -0.1984 H   0  0  0  0  0  0  0  0  0  0  0  0
    1.3967    2.6554   -2.2050 C   0  0  0  0  0  0  0  0  0  0  0  0
    0.4124    3.0537   -2.4729 H   0  0  0  0  0  0  0  0  0  0  0  0
    2.0711    3.4977   -2.0229 H   0  0  0  0  0  0  0  0  0  0  0  0
    1.7852    2.0781   -3.0507 H   0  0  0  0  0  0  0  0  0  0  0  0
  1  2  1  0  0  0  0
  2  3  1  0  0  0  0
  2  4  1  0  0  0  0
  2  5  1  0  0  0  0
  5  6  2  0  0  0  0
  5  7  1  0  0  0  0
  7  8  1  0  0  0  0
  7  9  1  0  0  0  0
  9 10  1  0  0  0  0
  9 11  1  0  0  0  0
  9 16  1  0  0  0  0
 11 12  1  0  0  0  0
 11 13  1  0  0  0  0
 11 14  1  0  0  0  0
 14 15  1  0  0  0  0
 16 17  2  0  0  0  0
 16 18  1  0  0  0  0
 18 19  1  0  0  0  0
 18 20  1  0  0  0  0
 20 21  1  0  0  0  0
 20 22  1  0  0  0  0
 20 23  1  0  0  0  0
M  END
$$$$

  -OEChem-01062216073D

 23 22  0     1  0  0  0  0  0999 V2000
   -2.9018   -3.4681    1.0562 H   0  0  0  0  0  0  0  0  0  0  0  0
   -2.7593   -2.4273    0.7518 C   0  0  0  0  0  0  0  0  0  0  0  0
   -3.3641   -1.7865    1.3977 H   0  0  0  0  0  0  0  0  0  0  0  0
   -3.0964   -2.3147   -0.2815 H   0  0  0  0  0  0  0  0  0  0  0  0
   -1.2959   -2.0424    0.8643 C   0  0  0  0  0  0  0  0  0  0  0  0
   -0.5019   -2.8910    1.2279 O   0  0  0  0  0  0  0  0  0  0  0  0
   -0.9297   -0.7648    0.4827 N   0  0  0  0  0  0  0  0  0  0  0  0
   -1.6758   -0.2607    0.0063 H   0  0  0  0  0  0  0  0  0  0  0  0
    0.3956   -0.0984    0.3909 C   0  0  1  0  0  0  0  0  0  0  0  0
    0.3796    0.6662    1.1732 H   0  0  0  0  0  0  0  0  0  0  0  0
    1.6859   -0.9047    0.6636 C   0  0  0  0  0  0  0  0  0  0  0  0
    1.7157   -1.7695   -0.0079 H   0  0  0  0  0  0  0  0  0  0  0  0
    2.5648   -0.2906    0.4477 H   0  0  0  0  0  0  0  0  0  0  0  0
    1.8201   -1.4880    2.4046 S   0  0  0  0  0  0  0  0  0  0  0  0
    0.8075   -2.3905    2.3989 H   0  0  0  0  0  0  0  0  0  0  0  0
    0.5198    0.6848   -0.9363 C   0  0  0  0  0  0  0  0  0  0  0  0
   -0.3480    0.5866   -1.7966 O   0  0  0  0  0  0  0  0  0  0  0  0
    1.5213    1.6240   -1.1107 N   0  0  0  0  0  0  0  0  0  0  0  0
    2.2027    1.7343   -0.3650 H   0  0  0  0  0  0  0  0  0  0  0  0
    1.6469    2.4486   -2.3072 C   0  0  0  0  0  0  0  0  0  0  0  0
    0.7502    3.0614   -2.4476 H   0  0  0  0  0  0  0  0  0  0  0  0
    2.5098    3.1157   -2.2189 H   0  0  0  0  0  0  0  0  0  0  0  0
    1.7860    1.8197   -3.1929 H   0  0  0  0  0  0  0  0  0  0  0  0
  1  2  1  0  0  0  0
  2  3  1  0  0  0  0
  2  4  1  0  0  0  0
  2  5  1  0  0  0  0
  5  6  2  0  0  0  0
  5  7  1  0  0  0  0
  7  8  1  0  0  0  0
  7  9  1  0  0  0  0
  9 10  1  0  0  0  0
  9 11  1  0  0  0  0
  9 16  1  0  0  0  0
 11 12  1  0  0  0  0
 11 13  1  0  0  0  0
 11 14  1  0  0  0  0
 14 15  1  0  0  0  0
 16 17  2  0  0  0  0
 16 18  1  0  0  0  0
 18 19  1  0  0  0  0
 18 20  1  0  0  0  0
 20 21  1  0  0  0  0
 20 22  1  0  0  0  0
 20 23  1  0  0  0  0
M  END
$$$$

  -OEChem-01062216073D

 23 22  0     1  0  0  0  0  0999 V2000
   -2.9945   -3.3988    0.9937 H   0  0  0  0  0  0  0  0  0  0  0  0
   -2.7981   -2.3618    0.7066 C   0  0  0  0  0  0  0  0  0  0  0  0
   -3.3713   -1.7018    1.3620 H   0  0  0  0  0  0  0  0  0  0  0  0
   -3.1264   -2.2148   -0.3254 H   0  0  0  0  0  0  0  0  0  0  0  0
   -1.3173   -2.0531    0.8278 C   0  0  0  0  0  0  0  0  0  0  0  0
   -0.5741   -2.9413    1.1949 O   0  0  0  0  0  0  0  0  0  0  0  0
   -0.8923   -0.7906    0.4622 N   0  0  0  0  0  0  0  0  0  0  0  0
   -1.6334   -0.2319    0.0369 H   0  0  0  0  0  0  0  0  0  0  0  0
    0.4339   -0.1225    0.3888 C   0  0  1  0  0  0  0  0  0  0  0  0
    0.5303    0.4399    1.3223 H   0  0  0  0  0  0  0  0  0  0  0  0
    1.7402   -0.9558    0.2908 C   0  0  0  0  0  0  0  0  0  0  0  0
    1.6594   -1.6117   -0.5825 H   0  0  0  0  0  0  0  0  0  0  0  0
    2.5947   -0.2946    0.1252 H   0  0  0  0  0  0  0  0  0  0  0  0
    2.1495   -1.9940    1.7552 S   0  0  0  0  0  0  0  0  0  0  0  0
    1.0474   -2.7760    1.8323 H   0  0  0  0  0  0  0  0  0  0  0  0
    0.3945    0.9395   -0.7405 C   0  0  0  0  0  0  0  0  0  0  0  0
   -0.6535    1.1501   -1.3433 O   0  0  0  0  0  0  0  0  0  0  0  0
    1.4941    1.7250   -1.0422 N   0  0  0  0  0  0  0  0  0  0  0  0
    2.3369    1.5922   -0.4908 H   0  0  0  0  0  0  0  0  0  0  0  0
    1.4773    2.7737   -2.0561 C   0  0  0  0  0  0  0  0  0  0  0  0
    0.7295    3.5349   -1.8097 H   0  0  0  0  0  0  0  0  0  0  0  0
    2.4566    3.2583   -2.1149 H   0  0  0  0  0  0  0  0  0  0  0  0
    1.2412    2.3528   -3.0392 H   0  0  0  0  0  0  0  0  0  0  0  0
  1  2  1  0  0  0  0
  2  3  1  0  0  0  0
  2  4  1  0  0  0  0
  2  5  1  0  0  0  0
  5  6  2  0  0  0  0
  5  7  1  0  0  0  0
  7  8  1  0  0  0  0
  7  9  1  0  0  0  0
  9 10  1  0  0  0  0
  9 11  1  0  0  0  0
  9 16  1  0  0  0  0
 11 12  1  0  0  0  0
 11 13  1  0  0  0  0
 11 14  1  0  0  0  0
 14 15  1  0  0  0  0
 16 17  2  0  0  0  0
 16 18  1  0  0  0  0
 18 19  1  0  0  0  0
 18 20  1  0  0  0  0
 20 21  1  0  0  0  0
 20 22  1  0  0  0  0
 20 23  1  0  0  0  0
M  END
$$$$

  -OEChem-01062216073D

 23 22  0     1  0  0  0  0  0999 V2000
   -2.9913   -3.3958    1.0261 H   0  0  0  0  0  0  0  0  0  0  0  0
   -2.7970   -2.3589    0.7371 C   0  0  0  0  0  0  0  0  0  0  0  0
   -3.3188   -1.6973    1.4329 H   0  0  0  0  0  0  0  0  0  0  0  0
   -3.1862   -2.1963   -0.2710 H   0  0  0  0  0  0  0  0  0  0  0  0
   -1.3068   -2.0737    0.7691 C   0  0  0  0  0  0  0  0  0  0  0  0
   -0.5499   -2.9893    1.0279 O   0  0  0  0  0  0  0  0  0  0  0  0
   -0.8845   -0.8067    0.4170 N   0  0  0  0  0  0  0  0  0  0  0  0
   -1.6397   -0.2106    0.0757 H   0  0  0  0  0  0  0  0  0  0  0  0
    0.4415   -0.1367    0.3692 C   0  0  1  0  0  0  0  0  0  0  0  0
    0.5125    0.4332    1.3007 H   0  0  0  0  0  0  0  0  0  0  0  0
    1.7473   -0.9739    0.3327 C   0  0  0  0  0  0  0  0  0  0  0  0
    1.7023   -1.6509   -0.5269 H   0  0  0  0  0  0  0  0  0  0  0  0
    2.6095   -0.3171    0.1938 H   0  0  0  0  0  0  0  0  0  0  0  0
    2.0826   -1.9678    1.8457 S   0  0  0  0  0  0  0  0  0  0  0  0
    1.0042   -2.7871    1.8435 H   0  0  0  0  0  0  0  0  0  0  0  0
    0.4131    0.9304   -0.7570 C   0  0  0  0  0  0  0  0  0  0  0  0
   -0.6684    1.3121   -1.1939 O   0  0  0  0  0  0  0  0  0  0  0  0
    1.5628    1.5151   -1.2618 N   0  0  0  0  0  0  0  0  0  0  0  0
    2.4544    1.2237   -0.8728 H   0  0  0  0  0  0  0  0  0  0  0  0
    1.5517    2.5449   -2.2951 C   0  0  0  0  0  0  0  0  0  0  0  0
    0.9740    3.4145   -1.9643 H   0  0  0  0  0  0  0  0  0  0  0  0
    2.5724    2.8728   -2.5146 H   0  0  0  0  0  0  0  0  0  0  0  0
    1.1075    2.1569   -3.2178 H   0  0  0  0  0  0  0  0  0  0  0  0
  1  2  1  0  0  0  0
  2  3  1  0  0  0  0
  2  4  1  0  0  0  0
  2  5  1  0  0  0  0
  5  6  2  0  0  0  0
  5  7  1  0  0  0  0
  7  8  1  0  0  0  0
  7  9  1  0  0  0  0
  9 10  1  0  0  0  0
  9 11  1  0  0  0  0
  9 16  1  0  0  0  0
 11 12  1  0  0  0  0
 11 13  1  0  0  0  0
 11 14  1  0  0  0  0
 14 15  1  0  0  0  0
 16 17  2  0  0  0  0
 16 18  1  0  0  0  0
 18 19  1  0  0  0  0
 18 20  1  0  0  0  0
 20 21  1  0  0  0  0
 20 22  1  0  0  0  0
 20 23  1  0  0  0  0
M  END
$$$$

  -OEChem-01062216073D

 23 22  0     1  0  0  0  0  0999 V2000
   -2.9727   -3.3992    1.0571 H   0  0  0  0  0  0  0  0  0  0  0  0
   -2.7896   -2.3620    0.7622 C   0  0  0  0  0  0  0  0  0  0  0  0
   -3.2742   -1.7009    1.4848 H   0  0  0  0  0  0  0  0  0  0  0  0
   -3.2269   -2.1947   -0.2252 H   0  0  0  0  0  0  0  0  0  0  0  0
   -1.2985   -2.0825    0.7236 C   0  0  0  0  0  0  0  0  0  0  0  0
   -0.5311   -3.0086    0.9070 O   0  0  0  0  0  0  0  0  0  0  0  0
   -0.8847   -0.8101    0.3804 N   0  0  0  0  0  0  0  0  0  0  0  0
   -1.6499   -0.1900    0.1131 H   0  0  0  0  0  0  0  0  0  0  0  0
    0.4401   -0.1388    0.3587 C   0  0  1  0  0  0  0  0  0  0  0  0
    0.4902    0.4348    1.2894 H   0  0  0  0  0  0  0  0  0  0  0  0
    1.7458   -0.9738    0.3641 C   0  0  0  0  0  0  0  0  0  0  0  0
    1.7300   -1.6596   -0.4896 H   0  0  0  0  0  0  0  0  0  0  0  0
    2.6089   -0.3125    0.2504 H   0  0  0  0  0  0  0  0  0  0  0  0
    2.0267   -1.9456    1.9026 S   0  0  0  0  0  0  0  0  0  0  0  0
    0.9697   -2.7914    1.8420 H   0  0  0  0  0  0  0  0  0  0  0  0
    0.4240    0.9287   -0.7651 C   0  0  0  0  0  0  0  0  0  0  0  0
   -0.6390    1.4724   -1.0473 O   0  0  0  0  0  0  0  0  0  0  0  0
    1.5581    1.3040   -1.4659 N   0  0  0  0  0  0  0  0  0  0  0  0
    2.4277    0.8256   -1.2521 H   0  0  0  0  0  0  0  0  0  0  0  0
    1.5473    2.2913   -2.5396 C   0  0  0  0  0  0  0  0  0  0  0  0
    1.1743    3.2536   -2.1731 H   0  0  0  0  0  0  0  0  0  0  0  0
    2.5598    2.4405   -2.9273 H   0  0  0  0  0  0  0  0  0  0  0  0
    0.9078    1.9554   -3.3629 H   0  0  0  0  0  0  0  0  0  0  0  0
  1  2  1  0  0  0  0
  2  3  1  0  0  0  0
  2  4  1  0  0  0  0
  2  5  1  0  0  0  0
  5  6  2  0  0  0  0
  5  7  1  0  0  0  0
  7  8  1  0  0  0  0
  7  9  1  0  0  0  0
  9 10  1  0  0  0  0
  9 11  1  0  0  0  0
  9 16  1  0  0  0  0
 11 12  1  0  0  0  0
 11 13  1  0  0  0  0
 11 14  1  0  0  0  0
 14 15  1  0  0  0  0
 16 17  2  0  0  0  0
 16 18  1  0  0  0  0
 18 19  1  0  0  0  0
 18 20  1  0  0  0  0
 20 21  1  0  0  0  0
 20 22  1  0  0  0  0
 20 23  1  0  0  0  0
M  END
$$$$

  -OEChem-01062216073D

 23 22  0     1  0  0  0  0  0999 V2000
   -2.9533   -3.4048    1.0831 H   0  0  0  0  0  0  0  0  0  0  0  0
   -2.7830   -2.3660    0.7860 C   0  0  0  0  0  0  0  0  0  0  0  0
   -3.2457   -1.7096    1.5270 H   0  0  0  0  0  0  0  0  0  0  0  0
   -3.2528   -2.1964   -0.1860 H   0  0  0  0  0  0  0  0  0  0  0  0
   -1.2948   -2.0825    0.6989 C   0  0  0  0  0  0  0  0  0  0  0  0
   -0.5188   -3.0099    0.8355 O   0  0  0  0  0  0  0  0  0  0  0  0
   -0.8913   -0.8070    0.3545 N   0  0  0  0  0  0  0  0  0  0  0  0
   -1.6644   -0.1744    0.1482 H   0  0  0  0  0  0  0  0  0  0  0  0
    0.4324   -0.1349    0.3487 C   0  0  1  0  0  0  0  0  0  0  0  0
    0.4686    0.4424    1.2781 H   0  0  0  0  0  0  0  0  0  0  0  0
    1.7400   -0.9642    0.3762 C   0  0  0  0  0  0  0  0  0  0  0  0
    1.7407   -1.6560   -0.4728 H   0  0  0  0  0  0  0  0  0  0  0  0
    2.5992   -0.2952    0.2702 H   0  0  0  0  0  0  0  0  0  0  0  0
    1.9966   -1.9264    1.9247 S   0  0  0  0  0  0  0  0  0  0  0  0
    0.9568   -2.7907    1.8316 H   0  0  0  0  0  0  0  0  0  0  0  0
    0.4299    0.9270   -0.7767 C   0  0  0  0  0  0  0  0  0  0  0  0
   -0.5698    1.6213   -0.9228 O   0  0  0  0  0  0  0  0  0  0  0  0
    1.4836    1.0890   -1.6608 N   0  0  0  0  0  0  0  0  0  0  0  0
    2.2717    0.4541   -1.5775 H   0  0  0  0  0  0  0  0  0  0  0  0
    1.4610    2.0366   -2.7693 C   0  0  0  0  0  0  0  0  0  0  0  0
    1.3002    3.0554   -2.4009 H   0  0  0  0  0  0  0  0  0  0  0  0
    2.4137    2.0125   -3.3072 H   0  0  0  0  0  0  0  0  0  0  0  0
    0.6600    1.7852   -3.4726 H   0  0  0  0  0  0  0  0  0  0  0  0
  1  2  1  0  0  0  0
  2  3  1  0  0  0  0
  2  4  1  0  0  0  0
  2  5  1  0  0  0  0
  5  6  2  0  0  0  0
  5  7  1  0  0  0  0
  7  8  1  0  0  0  0
  7  9  1  0  0  0  0
  9 10  1  0  0  0  0
  9 11  1  0  0  0  0
  9 16  1  0  0  0  0
 11 12  1  0  0  0  0
 11 13  1  0  0  0  0
 11 14  1  0  0  0  0
 14 15  1  0  0  0  0
 16 17  2  0  0  0  0
 16 18  1  0  0  0  0
 18 19  1  0  0  0  0
 18 20  1  0  0  0  0
 20 21  1  0  0  0  0
 20 22  1  0  0  0  0
 20 23  1  0  0  0  0
M  END
$$$$

  -OEChem-01062216073D

 23 22  0     1  0  0  0  0  0999 V2000
   -2.9322   -3.4140    1.1040 H   0  0  0  0  0  0  0  0  0  0  0  0
   -2.7732   -2.3715    0.8141 C   0  0  0  0  0  0  0  0  0  0  0  0
   -3.2080   -1.7250    1.5802 H   0  0  0  0  0  0  0  0  0  0  0  0
   -3.2792   -2.1896   -0.1371 H   0  0  0  0  0  0  0  0  0  0  0  0
   -1.2898   -2.0850    0.6754 C   0  0  0  0  0  0  0  0  0  0  0  0
   -0.5058   -3.0112    0.7720 O   0  0  0  0  0  0  0  0  0  0  0  0
   -0.8999   -0.8066    0.3264 N   0  0  0  0  0  0  0  0  0  0  0  0
   -1.6809   -0.1687    0.1774 H   0  0  0  0  0  0  0  0  0  0  0  0
    0.4208   -0.1299    0.3331 C   0  0  1  0  0  0  0  0  0  0  0  0
    0.4444    0.4508    1.2610 H   0  0  0  0  0  0  0  0  0  0  0  0
    1.7324   -0.9496    0.3783 C   0  0  0  0  0  0  0  0  0  0  0  0
    1.7478   -1.6483   -0.4645 H   0  0  0  0  0  0  0  0  0  0  0  0
    2.5863   -0.2724    0.2735 H   0  0  0  0  0  0  0  0  0  0  0  0
    1.9698   -1.9012    1.9366 S   0  0  0  0  0  0  0  0  0  0  0  0
    0.9442   -2.7801    1.8208 H   0  0  0  0  0  0  0  0  0  0  0  0
    0.4320    0.9254   -0.7941 C   0  0  0  0  0  0  0  0  0  0  0  0
   -0.4608    1.7638   -0.8167 O   0  0  0  0  0  0  0  0  0  0  0  0
    1.3417    0.8905   -1.8373 N   0  0  0  0  0  0  0  0  0  0  0  0
    1.9991    0.1167   -1.8619 H   0  0  0  0  0  0  0  0  0  0  0  0
    1.2952    1.8081   -2.9697 C   0  0  0  0  0  0  0  0  0  0  0  0
    1.3588    2.8461   -2.6261 H   0  0  0  0  0  0  0  0  0  0  0  0
    2.1348    1.6181   -3.6453 H   0  0  0  0  0  0  0  0  0  0  0  0
    0.3633    1.6788   -3.5299 H   0  0  0  0  0  0  0  0  0  0  0  0
  1  2  1  0  0  0  0
  2  3  1  0  0  0  0
  2  4  1  0  0  0  0
  2  5  1  0  0  0  0
  5  6  2  0  0  0  0
  5  7  1  0  0  0  0
  7  8  1  0  0  0  0
  7  9  1  0  0  0  0
  9 10  1  0  0  0  0
  9 11  1  0  0  0  0
  9 16  1  0  0  0  0
 11 12  1  0  0  0  0
 11 13  1  0  0  0  0
 11 14  1  0  0  0  0
 14 15  1  0  0  0  0
 16 17  2  0  0  0  0
 16 18  1  0  0  0  0
 18 19  1  0  0  0  0
 18 20  1  0  0  0  0
 20 21  1  0  0  0  0
 20 22  1  0  0  0  0
 20 23  1  0  0  0  0
M  END
$$$$

  -OEChem-01062216073D

 23 22  0     1  0  0  0  0  0999 V2000
   -2.9086   -3.4250    1.1360 H   0  0  0  0  0  0  0  0  0  0  0  0
   -2.7657   -2.3808    0.8432 C   0  0  0  0  0  0  0  0  0  0  0  0
   -3.1815   -1.7385    1.6233 H   0  0  0  0  0  0  0  0  0  0  0  0
   -3.3016   -2.2013   -0.0922 H   0  0  0  0  0  0  0  0  0  0  0  0
   -1.2889   -2.0846    0.6604 C   0  0  0  0  0  0  0  0  0  0  0  0
   -0.4968   -3.0073    0.7196 O   0  0  0  0  0  0  0  0  0  0  0  0
   -0.9152   -0.8037    0.3030 N   0  0  0  0  0  0  0  0  0  0  0  0
   -1.7036   -0.1666    0.2005 H   0  0  0  0  0  0  0  0  0  0  0  0
    0.4020   -0.1205    0.3179 C   0  0  1  0  0  0  0  0  0  0  0  0
    0.4159    0.4621    1.2450 H   0  0  0  0  0  0  0  0  0  0  0  0
    1.7187   -0.9302    0.3708 C   0  0  0  0  0  0  0  0  0  0  0  0
    1.7448   -1.6313   -0.4693 H   0  0  0  0  0  0  0  0  0  0  0  0
    2.5666   -0.2453    0.2653 H   0  0  0  0  0  0  0  0  0  0  0  0
    1.9513   -1.8796    1.9311 S   0  0  0  0  0  0  0  0  0  0  0  0
    0.9445   -2.7776    1.7955 H   0  0  0  0  0  0  0  0  0  0  0  0
    0.4276    0.9275   -0.8125 C   0  0  0  0  0  0  0  0  0  0  0  0
   -0.3080    1.9021   -0.7274 O   0  0  0  0  0  0  0  0  0  0  0  0
    1.1368    0.7210   -1.9829 N   0  0  0  0  0  0  0  0  0  0  0  0
    1.6256   -0.1640   -2.0830 H   0  0  0  0  0  0  0  0  0  0  0  0
    1.0696    1.6206   -3.1285 C   0  0  0  0  0  0  0  0  0  0  0  0
    1.3625    2.6351   -2.8377 H   0  0  0  0  0  0  0  0  0  0  0  0
    1.7476    1.2804   -3.9172 H   0  0  0  0  0  0  0  0  0  0  0  0
    0.0529    1.6500   -3.5342 H   0  0  0  0  0  0  0  0  0  0  0  0
  1  2  1  0  0  0  0
  2  3  1  0  0  0  0
  2  4  1  0  0  0  0
  2  5  1  0  0  0  0
  5  6  2  0  0  0  0
  5  7  1  0  0  0  0
  7  8  1  0  0  0  0
  7  9  1  0  0  0  0
  9 10  1  0  0  0  0
  9 11  1  0  0  0  0
  9 16  1  0  0  0  0
 11 12  1  0  0  0  0
 11 13  1  0  0  0  0
 11 14  1  0  0  0  0
 14 15  1  0  0  0  0
 16 17  2  0  0  0  0
 16 18  1  0  0  0  0
 18 19  1  0  0  0  0
 18 20  1  0  0  0  0
 20 21  1  0  0  0  0
 20 22  1  0  0  0  0
 20 23  1  0  0  0  0
M  END
$$$$

  -OEChem-01062216073D

 23 22  0     1  0  0  0  0  0999 V2000
   -2.8754   -3.4421    1.1795 H   0  0  0  0  0  0  0  0  0  0  0  0
   -2.7539   -2.3959    0.8843 C   0  0  0  0  0  0  0  0  0  0  0  0
   -3.1408   -1.7597    1.6840 H   0  0  0  0  0  0  0  0  0  0  0  0
   -3.3307   -2.2181   -0.0265 H   0  0  0  0  0  0  0  0  0  0  0  0
   -1.2887   -2.0877    0.6395 C   0  0  0  0  0  0  0  0  0  0  0  0
   -0.4887   -3.0055    0.6482 O   0  0  0  0  0  0  0  0  0  0  0  0
   -0.9363   -0.8028    0.2746 N   0  0  0  0  0  0  0  0  0  0  0  0
   -1.7326   -0.1706    0.2202 H   0  0  0  0  0  0  0  0  0  0  0  0
    0.3758   -0.1091    0.3013 C   0  0  1  0  0  0  0  0  0  0  0  0
    0.3782    0.4723    1.2296 H   0  0  0  0  0  0  0  0  0  0  0  0
    1.6991   -0.9066    0.3570 C   0  0  0  0  0  0  0  0  0  0  0  0
    1.7395   -1.6017   -0.4874 H   0  0  0  0  0  0  0  0  0  0  0  0
    2.5406   -0.2124    0.2602 H   0  0  0  0  0  0  0  0  0  0  0  0
    1.9272   -1.8621    1.9142 S   0  0  0  0  0  0  0  0  0  0  0  0
    0.9429   -2.7802    1.7513 H   0  0  0  0  0  0  0  0  0  0  0  0
    0.4147    0.9327   -0.8318 C   0  0  0  0  0  0  0  0  0  0  0  0
   -0.1006    2.0281   -0.6570 O   0  0  0  0  0  0  0  0  0  0  0  0
    0.8799    0.5964   -2.0903 N   0  0  0  0  0  0  0  0  0  0  0  0
    1.1580   -0.3698   -2.2387 H   0  0  0  0  0  0  0  0  0  0  0  0
    0.7989    1.4907   -3.2388 C   0  0  0  0  0  0  0  0  0  0  0  0
    1.3233    2.4297   -3.0321 H   0  0  0  0  0  0  0  0  0  0  0  0
    1.2613    1.0242   -4.1138 H   0  0  0  0  0  0  0  0  0  0  0  0
   -0.2460    1.7156   -3.4767 H   0  0  0  0  0  0  0  0  0  0  0  0
  1  2  1  0  0  0  0
  2  3  1  0  0  0  0
  2  4  1  0  0  0  0
  2  5  1  0  0  0  0
  5  6  2  0  0  0  0
  5  7  1  0  0  0  0
  7  8  1  0  0  0  0
  7  9  1  0  0  0  0
  9 10  1  0  0  0  0
  9 11  1  0  0  0  0
  9 16  1  0  0  0  0
 11 12  1  0  0  0  0
 11 13  1  0  0  0  0
 11 14  1  0  0  0  0
 14 15  1  0  0  0  0
 16 17  2  0  0  0  0
 16 18  1  0  0  0  0
 18 19  1  0  0  0  0
 18 20  1  0  0  0  0
 20 21  1  0  0  0  0
 20 22  1  0  0  0  0
 20 23  1  0  0  0  0
M  END
$$$$

  -OEChem-01062216073D

 23 22  0     1  0  0  0  0  0999 V2000
   -2.8512   -3.4659    1.2150 H   0  0  0  0  0  0  0  0  0  0  0  0
   -2.7478   -2.4162    0.9249 C   0  0  0  0  0  0  0  0  0  0  0  0
   -3.1136   -1.7901    1.7424 H   0  0  0  0  0  0  0  0  0  0  0  0
   -3.3562   -2.2360    0.0354 H   0  0  0  0  0  0  0  0  0  0  0  0
   -1.2937   -2.0942    0.6348 C   0  0  0  0  0  0  0  0  0  0  0  0
   -0.4868   -3.0056    0.6064 O   0  0  0  0  0  0  0  0  0  0  0  0
   -0.9628   -0.8063    0.2599 N   0  0  0  0  0  0  0  0  0  0  0  0
   -1.7675   -0.1837    0.2400 H   0  0  0  0  0  0  0  0  0  0  0  0
    0.3419   -0.0971    0.2902 C   0  0  1  0  0  0  0  0  0  0  0  0
    0.3388    0.4830    1.2194 H   0  0  0  0  0  0  0  0  0  0  0  0
    1.6741   -0.8787    0.3352 C   0  0  0  0  0  0  0  0  0  0  0  0
    1.7234   -1.5627   -0.5178 H   0  0  0  0  0  0  0  0  0  0  0  0
    2.5061   -0.1720    0.2439 H   0  0  0  0  0  0  0  0  0  0  0  0
    1.9169   -1.8465    1.8831 S   0  0  0  0  0  0  0  0  0  0  0  0
    0.9559   -2.7860    1.7046 H   0  0  0  0  0  0  0  0  0  0  0  0
    0.3831    0.9374   -0.8479 C   0  0  0  0  0  0  0  0  0  0  0  0
    0.1491    2.1143   -0.6136 O   0  0  0  0  0  0  0  0  0  0  0  0
    0.5654    0.5252   -2.1549 N   0  0  0  0  0  0  0  0  0  0  0  0
    0.6428   -0.4752   -2.3182 H   0  0  0  0  0  0  0  0  0  0  0  0
    0.5078    1.4281   -3.2979 C   0  0  0  0  0  0  0  0  0  0  0  0
    1.2531    2.2240   -3.1960 H   0  0  0  0  0  0  0  0  0  0  0  0
    0.7137    0.8807   -4.2230 H   0  0  0  0  0  0  0  0  0  0  0  0
   -0.4851    1.8831   -3.3777 H   0  0  0  0  0  0  0  0  0  0  0  0
  1  2  1  0  0  0  0
  2  3  1  0  0  0  0
  2  4  1  0  0  0  0
  2  5  1  0  0  0  0
  5  6  2  0  0  0  0
  5  7  1  0  0  0  0
  7  8  1  0  0  0  0
  7  9  1  0  0  0  0
  9 10  1  0  0  0  0
  9 11  1  0  0  0  0
  9 16  1  0  0  0  0
 11 12  1  0  0  0  0
 11 13  1  0  0  0  0
 11 14  1  0  0  0  0
 14 15  1  0  0  0  0
 16 17  2  0  0  0  0
 16 18  1  0  0  0  0
 18 19  1  0  0  0  0
 18 20  1  0  0  0  0
 20 21  1  0  0  0  0
 20 22  1  0  0  0  0
 20 23  1  0  0  0  0
M  END
$$$$

  -OEChem-01062216073D

 23 22  0     1  0  0  0  0  0999 V2000
   -2.8233   -3.4954    1.2549 H   0  0  0  0  0  0  0  0  0  0  0  0
   -2.7393   -2.4430    0.9685 C   0  0  0  0  0  0  0  0  0  0  0  0
   -3.0837   -1.8260    1.8020 H   0  0  0  0  0  0  0  0  0  0  0  0
   -3.3784   -2.2626    0.1007 H   0  0  0  0  0  0  0  0  0  0  0  0
   -1.2987   -2.1052    0.6331 C   0  0  0  0  0  0  0  0  0  0  0  0
   -0.4854   -3.0086    0.5661 O   0  0  0  0  0  0  0  0  0  0  0  0
   -0.9918   -0.8125    0.2540 N   0  0  0  0  0  0  0  0  0  0  0  0
   -1.8047   -0.2009    0.2641 H   0  0  0  0  0  0  0  0  0  0  0  0
    0.3054   -0.0868    0.2819 C   0  0  1  0  0  0  0  0  0  0  0  0
    0.3001    0.4899    1.2131 H   0  0  0  0  0  0  0  0  0  0  0  0
    1.6456   -0.8537    0.3112 C   0  0  0  0  0  0  0  0  0  0  0  0
    1.6978   -1.5272   -0.5503 H   0  0  0  0  0  0  0  0  0  0  0  0
    2.4688   -0.1362    0.2225 H   0  0  0  0  0  0  0  0  0  0  0  0
    1.9079   -1.8322    1.8495 S   0  0  0  0  0  0  0  0  0  0  0  0
    0.9668   -2.7894    1.6594 H   0  0  0  0  0  0  0  0  0  0  0  0
    0.3413    0.9485   -0.8549 C   0  0  0  0  0  0  0  0  0  0  0  0
    0.4238    2.1417   -0.6032 O   0  0  0  0  0  0  0  0  0  0  0  0
    0.2183    0.5317   -2.1668 N   0  0  0  0  0  0  0  0  0  0  0  0
    0.1100   -0.4667   -2.3269 H   0  0  0  0  0  0  0  0  0  0  0  0
    0.2099    1.4429   -3.3043 C   0  0  0  0  0  0  0  0  0  0  0  0
    1.1392    2.0213   -3.3388 H   0  0  0  0  0  0  0  0  0  0  0  0
    0.1188    0.8803   -4.2384 H   0  0  0  0  0  0  0  0  0  0  0  0
   -0.6344    2.1367   -3.2341 H   0  0  0  0  0  0  0  0  0  0  0  0
  1  2  1  0  0  0  0
  2  3  1  0  0  0  0
  2  4  1  0  0  0  0
  2  5  1  0  0  0  0
  5  6  2  0  0  0  0
  5  7  1  0  0  0  0
  7  8  1  0  0  0  0
  7  9  1  0  0  0  0
  9 10  1  0  0  0  0
  9 11  1  0  0  0  0
  9 16  1  0  0  0  0
 11 12  1  0  0  0  0
 11 13  1  0  0  0  0
 11 14  1  0  0  0  0
 14 15  1  0  0  0  0
 16 17  2  0  0  0  0
 16 18  1  0  0  0  0
 18 19  1  0  0  0  0
 18 20  1  0  0  0  0
 20 21  1  0  0  0  0
 20 22  1  0  0  0  0
 20 23  1  0  0  0  0
M  END
$$$$

  -OEChem-01062216073D

 23 22  0     1  0  0  0  0  0999 V2000
   -2.8004   -3.5240    1.2813 H   0  0  0  0  0  0  0  0  0  0  0  0
   -2.7312   -2.4680    1.0043 C   0  0  0  0  0  0  0  0  0  0  0  0
   -3.0601   -1.8622    1.8523 H   0  0  0  0  0  0  0  0  0  0  0  0
   -3.3923   -2.2838    0.1540 H   0  0  0  0  0  0  0  0  0  0  0  0
   -1.3014   -2.1155    0.6392 C   0  0  0  0  0  0  0  0  0  0  0  0
   -0.4832   -3.0118    0.5447 O   0  0  0  0  0  0  0  0  0  0  0  0
   -1.0158   -0.8175    0.2602 N   0  0  0  0  0  0  0  0  0  0  0  0
   -1.8354   -0.2164    0.2956 H   0  0  0  0  0  0  0  0  0  0  0  0
    0.2742   -0.0753    0.2802 C   0  0  1  0  0  0  0  0  0  0  0  0
    0.2703    0.4974    1.2138 H   0  0  0  0  0  0  0  0  0  0  0  0
    1.6203   -0.8317    0.2922 C   0  0  0  0  0  0  0  0  0  0  0  0
    1.6710   -1.4978   -0.5752 H   0  0  0  0  0  0  0  0  0  0  0  0
    2.4367   -0.1067    0.2017 H   0  0  0  0  0  0  0  0  0  0  0  0
    1.9027   -1.8171    1.8229 S   0  0  0  0  0  0  0  0  0  0  0  0
    0.9849   -2.7941    1.6200 H   0  0  0  0  0  0  0  0  0  0  0  0
    0.3007    0.9675   -0.8513 C   0  0  0  0  0  0  0  0  0  0  0  0
    0.6829    2.1079   -0.6345 O   0  0  0  0  0  0  0  0  0  0  0  0
   -0.1250    0.6181   -2.1190 N   0  0  0  0  0  0  0  0  0  0  0  0
   -0.3897   -0.3532   -2.2630 H   0  0  0  0  0  0  0  0  0  0  0  0
   -0.0841    1.5242   -3.2601 C   0  0  0  0  0  0  0  0  0  0  0  0
    0.9453    1.8378   -3.4634 H   0  0  0  0  0  0  0  0  0  0  0  0
   -0.4771    1.0272   -4.1524 H   0  0  0  0  0  0  0  0  0  0  0  0
   -0.6916    2.4143   -3.0654 H   0  0  0  0  0  0  0  0  0  0  0  0
  1  2  1  0  0  0  0
  2  3  1  0  0  0  0
  2  4  1  0  0  0  0
  2  5  1  0  0  0  0
  5  6  2  0  0  0  0
  5  7  1  0  0  0  0
  7  8  1  0  0  0  0
  7  9  1  0  0  0  0
  9 10  1  0  0  0  0
  9 11  1  0  0  0  0
  9 16  1  0  0  0  0
 11 12  1  0  0  0  0
 11 13  1  0  0  0  0
 11 14  1  0  0  0  0
 14 15  1  0  0  0  0
 16 17  2  0  0  0  0
 16 18  1  0  0  0  0
 18 19  1  0  0  0  0
 18 20  1  0  0  0  0
 20 21  1  0  0  0  0
 20 22  1  0  0  0  0
 20 23  1  0  0  0  0
M  END
$$$$

  -OEChem-01062216073D

 23 22  0     1  0  0  0  0  0999 V2000
   -2.7822   -3.5459    1.2893 H   0  0  0  0  0  0  0  0  0  0  0  0
   -2.7224   -2.4859    1.0259 C   0  0  0  0  0  0  0  0  0  0  0  0
   -3.0364   -1.8936    1.8889 H   0  0  0  0  0  0  0  0  0  0  0  0
   -3.4009   -2.2923    0.1915 H   0  0  0  0  0  0  0  0  0  0  0  0
   -1.3013   -2.1235    0.6368 C   0  0  0  0  0  0  0  0  0  0  0  0
   -0.4812   -3.0154    0.5217 O   0  0  0  0  0  0  0  0  0  0  0  0
   -1.0288   -0.8206    0.2630 N   0  0  0  0  0  0  0  0  0  0  0  0
   -1.8503   -0.2244    0.3248 H   0  0  0  0  0  0  0  0  0  0  0  0
    0.2583   -0.0697    0.2782 C   0  0  1  0  0  0  0  0  0  0  0  0
    0.2560    0.4985    1.2143 H   0  0  0  0  0  0  0  0  0  0  0  0
    1.6057   -0.8252    0.2837 C   0  0  0  0  0  0  0  0  0  0  0  0
    1.6535   -1.4890   -0.5855 H   0  0  0  0  0  0  0  0  0  0  0  0
    2.4224   -0.1006    0.1918 H   0  0  0  0  0  0  0  0  0  0  0  0
    1.8934   -1.8113    1.8135 S   0  0  0  0  0  0  0  0  0  0  0  0
    0.9865   -2.7971    1.6044 H   0  0  0  0  0  0  0  0  0  0  0  0
    0.2837    0.9860   -0.8444 C   0  0  0  0  0  0  0  0  0  0  0  0
    0.9063    2.0277   -0.6991 O   0  0  0  0  0  0  0  0  0  0  0  0
   -0.4141    0.7687   -2.0182 N   0  0  0  0  0  0  0  0  0  0  0  0
   -0.8183   -0.1564   -2.1393 H   0  0  0  0  0  0  0  0  0  0  0  0
   -0.3655    1.6768   -3.1579 C   0  0  0  0  0  0  0  0  0  0  0  0
    0.6572    1.7557   -3.5418 H   0  0  0  0  0  0  0  0  0  0  0  0
   -1.0107    1.3098   -3.9619 H   0  0  0  0  0  0  0  0  0  0  0  0
   -0.7106    2.6752   -2.8686 H   0  0  0  0  0  0  0  0  0  0  0  0
  1  2  1  0  0  0  0
  2  3  1  0  0  0  0
  2  4  1  0  0  0  0
  2  5  1  0  0  0  0
  5  6  2  0  0  0  0
  5  7  1  0  0  0  0
  7  8  1  0  0  0  0
  7  9  1  0  0  0  0
  9 10  1  0  0  0  0
  9 11  1  0  0  0  0
  9 16  1  0  0  0  0
 11 12  1  0  0  0  0
 11 13  1  0  0  0  0
 11 14  1  0  0  0  0
 14 15  1  0  0  0  0
 16 17  2  0  0  0  0
 16 18  1  0  0  0  0
 18 19  1  0  0  0  0
 18 20  1  0  0  0  0
 20 21  1  0  0  0  0
 20 22  1  0  0  0  0
 20 23  1  0  0  0  0
M  END
$$$$

  -OEChem-01062216073D

 23 22  0     1  0  0  0  0  0999 V2000
   -2.7699   -3.5538    1.2883 H   0  0  0  0  0  0  0  0  0  0  0  0
   -2.7123   -2.4908    1.0367 C   0  0  0  0  0  0  0  0  0  0  0  0
   -3.0095   -1.9084    1.9122 H   0  0  0  0  0  0  0  0  0  0  0  0
   -3.4052   -2.2860    0.2173 H   0  0  0  0  0  0  0  0  0  0  0  0
   -1.2977   -2.1264    0.6265 C   0  0  0  0  0  0  0  0  0  0  0  0
   -0.4816   -3.0189    0.4891 O   0  0  0  0  0  0  0  0  0  0  0  0
   -1.0313   -0.8204    0.2584 N   0  0  0  0  0  0  0  0  0  0  0  0
   -1.8507   -0.2259    0.3535 H   0  0  0  0  0  0  0  0  0  0  0  0
    0.2554   -0.0666    0.2751 C   0  0  1  0  0  0  0  0  0  0  0  0
    0.2524    0.4990    1.2124 H   0  0  0  0  0  0  0  0  0  0  0  0
    1.5990   -0.8312    0.2859 C   0  0  0  0  0  0  0  0  0  0  0  0
    1.6452   -1.4967   -0.5821 H   0  0  0  0  0  0  0  0  0  0  0  0
    2.4236   -0.1154    0.1972 H   0  0  0  0  0  0  0  0  0  0  0  0
    1.8709   -1.8139    1.8209 S   0  0  0  0  0  0  0  0  0  0  0  0
    0.9790   -2.8087    1.5915 H   0  0  0  0  0  0  0  0  0  0  0  0
    0.2849    0.9992   -0.8415 C   0  0  0  0  0  0  0  0  0  0  0  0
    1.0859    1.9217   -0.7953 O   0  0  0  0  0  0  0  0  0  0  0  0
   -0.6330    0.9562   -1.8758 N   0  0  0  0  0  0  0  0  0  0  0  0
   -1.1679    0.0963   -1.9622 H   0  0  0  0  0  0  0  0  0  0  0  0
   -0.6064    1.8840   -3.0007 C   0  0  0  0  0  0  0  0  0  0  0  0
    0.3334    1.7887   -3.5548 H   0  0  0  0  0  0  0  0  0  0  0  0
   -1.4349    1.6745   -3.6839 H   0  0  0  0  0  0  0  0  0  0  0  0
   -0.7040    2.9167   -2.6492 H   0  0  0  0  0  0  0  0  0  0  0  0
  1  2  1  0  0  0  0
  2  3  1  0  0  0  0
  2  4  1  0  0  0  0
  2  5  1  0  0  0  0
  5  6  2  0  0  0  0
  5  7  1  0  0  0  0
  7  8  1  0  0  0  0
  7  9  1  0  0  0  0
  9 10  1  0  0  0  0
  9 11  1  0  0  0  0
  9 16  1  0  0  0  0
 11 12  1  0  0  0  0
 11 13  1  0  0  0  0
 11 14  1  0  0  0  0
 14 15  1  0  0  0  0
 16 17  2  0  0  0  0
 16 18  1  0  0  0  0
 18 19  1  0  0  0  0
 18 20  1  0  0  0  0
 20 21  1  0  0  0  0
 20 22  1  0  0  0  0
 20 23  1  0  0  0  0
M  END
$$$$

  -OEChem-01062216073D

 23 22  0     1  0  0  0  0  0999 V2000
   -2.7567   -3.5630    1.2656 H   0  0  0  0  0  0  0  0  0  0  0  0
   -2.6972   -2.4931    1.0450 C   0  0  0  0  0  0  0  0  0  0  0  0
   -2.9639   -1.9357    1.9462 H   0  0  0  0  0  0  0  0  0  0  0  0
   -3.4116   -2.2586    0.2522 H   0  0  0  0  0  0  0  0  0  0  0  0
   -1.2916   -2.1274    0.6061 C   0  0  0  0  0  0  0  0  0  0  0  0
   -0.4791   -3.0202    0.4487 O   0  0  0  0  0  0  0  0  0  0  0  0
   -1.0311   -0.8185    0.2422 N   0  0  0  0  0  0  0  0  0  0  0  0
   -1.8469   -0.2265    0.3742 H   0  0  0  0  0  0  0  0  0  0  0  0
    0.2565   -0.0644    0.2655 C   0  0  1  0  0  0  0  0  0  0  0  0
    0.2474    0.5020    1.2023 H   0  0  0  0  0  0  0  0  0  0  0  0
    1.5945   -0.8419    0.2974 C   0  0  0  0  0  0  0  0  0  0  0  0
    1.6461   -1.5148   -0.5646 H   0  0  0  0  0  0  0  0  0  0  0  0
    2.4295   -0.1380    0.2153 H   0  0  0  0  0  0  0  0  0  0  0  0
    1.8343   -1.8112    1.8467 S   0  0  0  0  0  0  0  0  0  0  0  0
    0.9646   -2.8198    1.5915 H   0  0  0  0  0  0  0  0  0  0  0  0
    0.2939    1.0094   -0.8477 C   0  0  0  0  0  0  0  0  0  0  0  0
    1.2276    1.7955   -0.9249 O   0  0  0  0  0  0  0  0  0  0  0  0
   -0.7800    1.1690   -1.7066 N   0  0  0  0  0  0  0  0  0  0  0  0
   -1.4383    0.3965   -1.7399 H   0  0  0  0  0  0  0  0  0  0  0  0
   -0.7797    2.1311   -2.8031 C   0  0  0  0  0  0  0  0  0  0  0  0
    0.0257    1.9068   -3.5104 H   0  0  0  0  0  0  0  0  0  0  0  0
   -1.7330    2.0943   -3.3390 H   0  0  0  0  0  0  0  0  0  0  0  0
   -0.6396    3.1482   -2.4217 H   0  0  0  0  0  0  0  0  0  0  0  0
  1  2  1  0  0  0  0
  2  3  1  0  0  0  0
  2  4  1  0  0  0  0
  2  5  1  0  0  0  0
  5  6  2  0  0  0  0
  5  7  1  0  0  0  0
  7  8  1  0  0  0  0
  7  9  1  0  0  0  0
  9 10  1  0  0  0  0
  9 11  1  0  0  0  0
  9 16  1  0  0  0  0
 11 12  1  0  0  0  0
 11 13  1  0  0  0  0
 11 14  1  0  0  0  0
 14 15  1  0  0  0  0
 16 17  2  0  0  0  0
 16 18  1  0  0  0  0
 18 19  1  0  0  0  0
 18 20  1  0  0  0  0
 20 21  1  0  0  0  0
 20 22  1  0  0  0  0
 20 23  1  0  0  0  0
M  END
$$$$

  -OEChem-01062216073D

 23 22  0     1  0  0  0  0  0999 V2000
   -2.7414   -3.5612    1.2737 H   0  0  0  0  0  0  0  0  0  0  0  0
   -2.6858   -2.4927    1.0457 C   0  0  0  0  0  0  0  0  0  0  0  0
   -2.9420   -1.9301    1.9467 H   0  0  0  0  0  0  0  0  0  0  0  0
   -3.4102   -2.2640    0.2604 H   0  0  0  0  0  0  0  0  0  0  0  0
   -1.2863   -2.1282    0.5865 C   0  0  0  0  0  0  0  0  0  0  0  0
   -0.4783   -3.0228    0.4160 O   0  0  0  0  0  0  0  0  0  0  0  0
   -1.0279   -0.8168    0.2280 N   0  0  0  0  0  0  0  0  0  0  0  0
   -1.8393   -0.2279    0.3900 H   0  0  0  0  0  0  0  0  0  0  0  0
    0.2620   -0.0657    0.2545 C   0  0  1  0  0  0  0  0  0  0  0  0
    0.2513    0.5001    1.1912 H   0  0  0  0  0  0  0  0  0  0  0  0
    1.5937   -0.8560    0.3016 C   0  0  0  0  0  0  0  0  0  0  0  0
    1.6468   -1.5339   -0.5565 H   0  0  0  0  0  0  0  0  0  0  0  0
    2.4384   -0.1633    0.2258 H   0  0  0  0  0  0  0  0  0  0  0  0
    1.8084   -1.8147    1.8613 S   0  0  0  0  0  0  0  0  0  0  0  0
    0.9521   -2.8306    1.5903 H   0  0  0  0  0  0  0  0  0  0  0  0
    0.3034    1.0162   -0.8549 C   0  0  0  0  0  0  0  0  0  0  0  0
    1.3291    1.6405   -1.0888 O   0  0  0  0  0  0  0  0  0  0  0  0
   -0.8562    1.4007   -1.5078 N   0  0  0  0  0  0  0  0  0  0  0  0
   -1.6331    0.7508   -1.4537 H   0  0  0  0  0  0  0  0  0  0  0  0
   -0.8665    2.4018   -2.5695 C   0  0  0  0  0  0  0  0  0  0  0  0
   -0.2361    2.0813   -3.4057 H   0  0  0  0  0  0  0  0  0  0  0  0
   -1.8851    2.5513   -2.9400 H   0  0  0  0  0  0  0  0  0  0  0  0
   -0.4934    3.3614   -2.1960 H   0  0  0  0  0  0  0  0  0  0  0  0
  1  2  1  0  0  0  0
  2  3  1  0  0  0  0
  2  4  1  0  0  0  0
  2  5  1  0  0  0  0
  5  6  2  0  0  0  0
  5  7  1  0  0  0  0
  7  8  1  0  0  0  0
  7  9  1  0  0  0  0
  9 10  1  0  0  0  0
  9 11  1  0  0  0  0
  9 16  1  0  0  0  0
 11 12  1  0  0  0  0
 11 13  1  0  0  0  0
 11 14  1  0  0  0  0
 14 15  1  0  0  0  0
 16 17  2  0  0  0  0
 16 18  1  0  0  0  0
 18 19  1  0  0  0  0
 18 20  1  0  0  0  0
 20 21  1  0  0  0  0
 20 22  1  0  0  0  0
 20 23  1  0  0  0  0
M  END
$$$$

  -OEChem-01062216073D

 23 22  0     1  0  0  0  0  0999 V2000
   -2.7578   -3.5371    1.2805 H   0  0  0  0  0  0  0  0  0  0  0  0
   -2.7007   -2.4825    0.9951 C   0  0  0  0  0  0  0  0  0  0  0  0
   -3.0163   -1.8737    1.8458 H   0  0  0  0  0  0  0  0  0  0  0  0
   -3.3795   -2.3094    0.1565 H   0  0  0  0  0  0  0  0  0  0  0  0
   -1.2808   -2.1250    0.5966 C   0  0  0  0  0  0  0  0  0  0  0  0
   -0.4688   -3.0242    0.4799 O   0  0  0  0  0  0  0  0  0  0  0  0
   -1.0079   -0.8156    0.2405 N   0  0  0  0  0  0  0  0  0  0  0  0
   -1.8224   -0.2252    0.3665 H   0  0  0  0  0  0  0  0  0  0  0  0
    0.2889   -0.0762    0.2435 C   0  0  1  0  0  0  0  0  0  0  0  0
    0.2920    0.4913    1.1790 H   0  0  0  0  0  0  0  0  0  0  0  0
    1.6169   -0.8741    0.2936 C   0  0  0  0  0  0  0  0  0  0  0  0
    1.6598   -1.5654   -0.5545 H   0  0  0  0  0  0  0  0  0  0  0  0
    2.4653   -0.1881    0.2014 H   0  0  0  0  0  0  0  0  0  0  0  0
    1.8393   -1.8064    1.8684 S   0  0  0  0  0  0  0  0  0  0  0  0
    0.9664   -2.8161    1.6289 H   0  0  0  0  0  0  0  0  0  0  0  0
    0.3188    1.0120   -0.8630 C   0  0  0  0  0  0  0  0  0  0  0  0
    1.3718    1.4098   -1.3426 O   0  0  0  0  0  0  0  0  0  0  0  0
   -0.8490    1.6355   -1.2732 N   0  0  0  0  0  0  0  0  0  0  0  0
   -1.7250    1.2302   -0.9681 H   0  0  0  0  0  0  0  0  0  0  0  0
   -0.8814    2.6588   -2.3130 C   0  0  0  0  0  0  0  0  0  0  0  0
   -0.5091    2.2550   -3.2606 H   0  0  0  0  0  0  0  0  0  0  0  0
   -1.9059    3.0117   -2.4652 H   0  0  0  0  0  0  0  0  0  0  0  0
   -0.2618    3.5158   -2.0278 H   0  0  0  0  0  0  0  0  0  0  0  0
  1  2  1  0  0  0  0
  2  3  1  0  0  0  0
  2  4  1  0  0  0  0
  2  5  1  0  0  0  0
  5  6  2  0  0  0  0
  5  7  1  0  0  0  0
  7  8  1  0  0  0  0
  7  9  1  0  0  0  0
  9 10  1  0  0  0  0
  9 11  1  0  0  0  0
  9 16  1  0  0  0  0
 11 12  1  0  0  0  0
 11 13  1  0  0  0  0
 11 14  1  0  0  0  0
 14 15  1  0  0  0  0
 16 17  2  0  0  0  0
 16 18  1  0  0  0  0
 18 19  1  0  0  0  0
 18 20  1  0  0  0  0
 20 21  1  0  0  0  0
 20 22  1  0  0  0  0
 20 23  1  0  0  0  0
M  END
$$$$

  -OEChem-01062216073D

 23 22  0     1  0  0  0  0  0999 V2000
   -2.9096   -3.4634    1.1046 H   0  0  0  0  0  0  0  0  0  0  0  0
   -2.7779   -2.4161    0.8173 C   0  0  0  0  0  0  0  0  0  0  0  0
   -3.2722   -1.7852    1.5598 H   0  0  0  0  0  0  0  0  0  0  0  0
   -3.2466   -2.2596   -0.1573 H   0  0  0  0  0  0  0  0  0  0  0  0
   -1.3010   -2.0743    0.7456 C   0  0  0  0  0  0  0  0  0  0  0  0
   -0.4983   -2.9611    0.9574 O   0  0  0  0  0  0  0  0  0  0  0  0
   -0.9515   -0.7944    0.3524 N   0  0  0  0  0  0  0  0  0  0  0  0
   -1.7551   -0.2395    0.0768 H   0  0  0  0  0  0  0  0  0  0  0  0
    0.3631   -0.0959    0.2606 C   0  0  1  0  0  0  0  0  0  0  0  0
    0.4322    0.4941    1.1791 H   0  0  0  0  0  0  0  0  0  0  0  0
    1.6949   -0.8900    0.2478 C   0  0  0  0  0  0  0  0  0  0  0  0
    1.6752   -1.6017   -0.5841 H   0  0  0  0  0  0  0  0  0  0  0  0
    2.5266   -0.2001    0.0693 H   0  0  0  0  0  0  0  0  0  0  0  0
    2.0592   -1.7980    1.8099 S   0  0  0  0  0  0  0  0  0  0  0  0
    1.0686   -2.7211    1.7764 H   0  0  0  0  0  0  0  0  0  0  0  0
    0.3180    0.9549   -0.8757 C   0  0  0  0  0  0  0  0  0  0  0  0
    1.1982    1.0369   -1.7214 O   0  0  0  0  0  0  0  0  0  0  0  0
   -0.7823    1.7903   -0.9895 N   0  0  0  0  0  0  0  0  0  0  0  0
   -1.4060    1.8426   -0.1909 H   0  0  0  0  0  0  0  0  0  0  0  0
   -0.8831    2.8252   -2.0136 C   0  0  0  0  0  0  0  0  0  0  0  0
   -0.7866    2.3878   -3.0133 H   0  0  0  0  0  0  0  0  0  0  0  0
   -1.8541    3.3261   -1.9518 H   0  0  0  0  0  0  0  0  0  0  0  0
   -0.0956    3.5747   -1.8802 H   0  0  0  0  0  0  0  0  0  0  0  0
  1  2  1  0  0  0  0
  2  3  1  0  0  0  0
  2  4  1  0  0  0  0
  2  5  1  0  0  0  0
  5  6  2  0  0  0  0
  5  7  1  0  0  0  0
  7  8  1  0  0  0  0
  7  9  1  0  0  0  0
  9 10  1  0  0  0  0
  9 11  1  0  0  0  0
  9 16  1  0  0  0  0
 11 12  1  0  0  0  0
 11 13  1  0  0  0  0
 11 14  1  0  0  0  0
 14 15  1  0  0  0  0
 16 17  2  0  0  0  0
 16 18  1  0  0  0  0
 18 19  1  0  0  0  0
 18 20  1  0  0  0  0
 20 21  1  0  0  0  0
 20 22  1  0  0  0  0
 20 23  1  0  0  0  0
M  END
$$$$

  -OEChem-01062216073D

 23 22  0     1  0  0  0  0  0999 V2000
   -2.9284   -3.4395    1.1011 H   0  0  0  0  0  0  0  0  0  0  0  0
   -2.7867   -2.3972    0.8009 C   0  0  0  0  0  0  0  0  0  0  0  0
   -3.3032   -1.7537    1.5170 H   0  0  0  0  0  0  0  0  0  0  0  0
   -3.2246   -2.2563   -0.1903 H   0  0  0  0  0  0  0  0  0  0  0  0
   -1.3078   -2.0572    0.7692 C   0  0  0  0  0  0  0  0  0  0  0  0
   -0.5135   -2.9379    1.0308 O   0  0  0  0  0  0  0  0  0  0  0  0
   -0.9467   -0.7817    0.3728 N   0  0  0  0  0  0  0  0  0  0  0  0
   -1.7431   -0.2279    0.0713 H   0  0  0  0  0  0  0  0  0  0  0  0
    0.3701   -0.0906    0.2772 C   0  0  1  0  0  0  0  0  0  0  0  0
    0.4532    0.4947    1.1977 H   0  0  0  0  0  0  0  0  0  0  0  0
    1.7019   -0.8823    0.2341 C   0  0  0  0  0  0  0  0  0  0  0  0
    1.6677   -1.5811   -0.6083 H   0  0  0  0  0  0  0  0  0  0  0  0
    2.5274   -0.1870    0.0478 H   0  0  0  0  0  0  0  0  0  0  0  0
    2.0994   -1.8208    1.7694 S   0  0  0  0  0  0  0  0  0  0  0  0
    1.0886   -2.7218    1.7629 H   0  0  0  0  0  0  0  0  0  0  0  0
    0.3140    0.9513   -0.8625 C   0  0  0  0  0  0  0  0  0  0  0  0
    1.0297    0.8728   -1.8514 O   0  0  0  0  0  0  0  0  0  0  0  0
   -0.6146    1.9765   -0.7940 N   0  0  0  0  0  0  0  0  0  0  0  0
   -1.0994    2.1069    0.0888 H   0  0  0  0  0  0  0  0  0  0  0  0
   -0.7114    3.0249   -1.8041 C   0  0  0  0  0  0  0  0  0  0  0  0
   -0.8773    2.5897   -2.7955 H   0  0  0  0  0  0  0  0  0  0  0  0
   -1.5488    3.6925   -1.5790 H   0  0  0  0  0  0  0  0  0  0  0  0
    0.2089    3.6180   -1.8304 H   0  0  0  0  0  0  0  0  0  0  0  0
  1  2  1  0  0  0  0
  2  3  1  0  0  0  0
  2  4  1  0  0  0  0
  2  5  1  0  0  0  0
  5  6  2  0  0  0  0
  5  7  1  0  0  0  0
  7  8  1  0  0  0  0
  7  9  1  0  0  0  0
  9 10  1  0  0  0  0
  9 11  1  0  0  0  0
  9 16  1  0  0  0  0
 11 12  1  0  0  0  0
 11 13  1  0  0  0  0
 11 14  1  0  0  0  0
 14 15  1  0  0  0  0
 16 17  2  0  0  0  0
 16 18  1  0  0  0  0
 18 19  1  0  0  0  0
 18 20  1  0  0  0  0
 20 21  1  0  0  0  0
 20 22  1  0  0  0  0
 20 23  1  0  0  0  0
M  END
$$$$

  -OEChem-01062216073D

 23 22  0     1  0  0  0  0  0999 V2000
   -2.9343   -3.4382    1.1015 H   0  0  0  0  0  0  0  0  0  0  0  0
   -2.7917   -2.3987    0.7919 C   0  0  0  0  0  0  0  0  0  0  0  0
   -3.3270   -1.7496    1.4890 H   0  0  0  0  0  0  0  0  0  0  0  0
   -3.2090   -2.2720   -0.2100 H   0  0  0  0  0  0  0  0  0  0  0  0
   -1.3142   -2.0513    0.7875 C   0  0  0  0  0  0  0  0  0  0  0  0
   -0.5226   -2.9245    1.0801 O   0  0  0  0  0  0  0  0  0  0  0  0
   -0.9505   -0.7760    0.3930 N   0  0  0  0  0  0  0  0  0  0  0  0
   -1.7441   -0.2240    0.0800 H   0  0  0  0  0  0  0  0  0  0  0  0
    0.3654   -0.0849    0.2994 C   0  0  1  0  0  0  0  0  0  0  0  0
    0.4549    0.4899    1.2259 H   0  0  0  0  0  0  0  0  0  0  0  0
    1.6994   -0.8705    0.2289 C   0  0  0  0  0  0  0  0  0  0  0  0
    1.6565   -1.5541   -0.6256 H   0  0  0  0  0  0  0  0  0  0  0  0
    2.5184   -0.1678    0.0427 H   0  0  0  0  0  0  0  0  0  0  0  0
    2.1244   -1.8407    1.7364 S   0  0  0  0  0  0  0  0  0  0  0  0
    1.1094   -2.7370    1.7370 H   0  0  0  0  0  0  0  0  0  0  0  0
    0.3100    0.9574   -0.8379 C   0  0  0  0  0  0  0  0  0  0  0  0
    0.8166    0.7443   -1.9304 O   0  0  0  0  0  0  0  0  0  0  0  0
   -0.3792    2.1415   -0.6411 N   0  0  0  0  0  0  0  0  0  0  0  0
   -0.7139    2.3386    0.2975 H   0  0  0  0  0  0  0  0  0  0  0  0
   -0.4515    3.1953   -1.6475 C   0  0  0  0  0  0  0  0  0  0  0  0
   -0.8691    2.8063   -2.5824 H   0  0  0  0  0  0  0  0  0  0  0  0
   -1.0932    4.0099   -1.2980 H   0  0  0  0  0  0  0  0  0  0  0  0
    0.5453    3.6014   -1.8498 H   0  0  0  0  0  0  0  0  0  0  0  0
  1  2  1  0  0  0  0
  2  3  1  0  0  0  0
  2  4  1  0  0  0  0
  2  5  1  0  0  0  0
  5  6  2  0  0  0  0
  5  7  1  0  0  0  0
  7  8  1  0  0  0  0
  7  9  1  0  0  0  0
  9 10  1  0  0  0  0
  9 11  1  0  0  0  0
  9 16  1  0  0  0  0
 11 12  1  0  0  0  0
 11 13  1  0  0  0  0
 11 14  1  0  0  0  0
 14 15  1  0  0  0  0
 16 17  2  0  0  0  0
 16 18  1  0  0  0  0
 18 19  1  0  0  0  0
 18 20  1  0  0  0  0
 20 21  1  0  0  0  0
 20 22  1  0  0  0  0
 20 23  1  0  0  0  0
M  END
$$$$

  -OEChem-01062216073D

 23 22  0     1  0  0  0  0  0999 V2000
   -2.9473   -3.4304    1.0468 H   0  0  0  0  0  0  0  0  0  0  0  0
   -2.7917   -2.3925    0.7382 C   0  0  0  0  0  0  0  0  0  0  0  0
   -3.3862   -1.7421    1.3842 H   0  0  0  0  0  0  0  0  0  0  0  0
   -3.1308   -2.2806   -0.2945 H   0  0  0  0  0  0  0  0  0  0  0  0
   -1.3222   -2.0277    0.8442 C   0  0  0  0  0  0  0  0  0  0  0  0
   -0.5532   -2.8718    1.2562 O   0  0  0  0  0  0  0  0  0  0  0  0
   -0.9436   -0.7583    0.4470 N   0  0  0  0  0  0  0  0  0  0  0  0
   -1.7168   -0.2338    0.0467 H   0  0  0  0  0  0  0  0  0  0  0  0
    0.3773   -0.0804    0.3415 C   0  0  1  0  0  0  0  0  0  0  0  0
    0.4899    0.4815    1.2732 H   0  0  0  0  0  0  0  0  0  0  0  0
    1.7056   -0.8692    0.2158 C   0  0  0  0  0  0  0  0  0  0  0  0
    1.6319   -1.5279   -0.6561 H   0  0  0  0  0  0  0  0  0  0  0  0
    2.5212   -0.1645    0.0221 H   0  0  0  0  0  0  0  0  0  0  0  0
    2.1844   -1.8922    1.6706 S   0  0  0  0  0  0  0  0  0  0  0  0
    1.1260   -2.7323    1.7467 H   0  0  0  0  0  0  0  0  0  0  0  0
    0.3171    0.9609   -0.7947 C   0  0  0  0  0  0  0  0  0  0  0  0
    0.5220    0.6402   -1.9569 O   0  0  0  0  0  0  0  0  0  0  0  0
   -0.0743    2.2583   -0.5167 N   0  0  0  0  0  0  0  0  0  0  0  0
   -0.2086    2.5117    0.4581 H   0  0  0  0  0  0  0  0  0  0  0  0
   -0.1682    3.2999   -1.5335 C   0  0  0  0  0  0  0  0  0  0  0  0
   -0.8675    3.0045   -2.3230 H   0  0  0  0  0  0  0  0  0  0  0  0
   -0.5272    4.2329   -1.0880 H   0  0  0  0  0  0  0  0  0  0  0  0
    0.8126    3.4861   -1.9837 H   0  0  0  0  0  0  0  0  0  0  0  0
  1  2  1  0  0  0  0
  2  3  1  0  0  0  0
  2  4  1  0  0  0  0
  2  5  1  0  0  0  0
  5  6  2  0  0  0  0
  5  7  1  0  0  0  0
  7  8  1  0  0  0  0
  7  9  1  0  0  0  0
  9 10  1  0  0  0  0
  9 11  1  0  0  0  0
  9 16  1  0  0  0  0
 11 12  1  0  0  0  0
 11 13  1  0  0  0  0
 11 14  1  0  0  0  0
 14 15  1  0  0  0  0
 16 17  2  0  0  0  0
 16 18  1  0  0  0  0
 18 19  1  0  0  0  0
 18 20  1  0  0  0  0
 20 21  1  0  0  0  0
 20 22  1  0  0  0  0
 20 23  1  0  0  0  0
M  END
$$$$

  -OEChem-01062216073D

 23 22  0     1  0  0  0  0  0999 V2000
   -2.7924   -3.4580    0.9862 H   0  0  0  0  0  0  0  0  0  0  0  0
   -2.6456   -2.4560    0.5731 C   0  0  0  0  0  0  0  0  0  0  0  0
   -3.4803   -1.8219    0.8812 H   0  0  0  0  0  0  0  0  0  0  0  0
   -2.6318   -2.5262   -0.5174 H   0  0  0  0  0  0  0  0  0  0  0  0
   -1.3375   -1.8713    1.0714 C   0  0  0  0  0  0  0  0  0  0  0  0
   -0.7442   -2.4399    1.9671 O   0  0  0  0  0  0  0  0  0  0  0  0
   -0.9569   -0.6232    0.6244 N   0  0  0  0  0  0  0  0  0  0  0  0
   -1.6227   -0.2621   -0.0564 H   0  0  0  0  0  0  0  0  0  0  0  0
    0.3994   -0.0452    0.4464 C   0  0  1  0  0  0  0  0  0  0  0  0
    0.6531    0.4814    1.3710 H   0  0  0  0  0  0  0  0  0  0  0  0
    1.6108   -0.9557    0.1009 C   0  0  0  0  0  0  0  0  0  0  0  0
    1.3630   -1.5060   -0.8134 H   0  0  0  0  0  0  0  0  0  0  0  0
    2.4750   -0.3237   -0.1293 H   0  0  0  0  0  0  0  0  0  0  0  0
    2.1557   -2.1939    1.3490 S   0  0  0  0  0  0  0  0  0  0  0  0
    0.9821   -2.5948    1.8863 H   0  0  0  0  0  0  0  0  0  0  0  0
    0.3210    0.9769   -0.7055 C   0  0  0  0  0  0  0  0  0  0  0  0
    0.0530    0.6046   -1.8405 O   0  0  0  0  0  0  0  0  0  0  0  0
    0.3338    2.3319   -0.4319 N   0  0  0  0  0  0  0  0  0  0  0  0
    0.4817    2.6179    0.5323 H   0  0  0  0  0  0  0  0  0  0  0  0
    0.1320    3.3578   -1.4486 C   0  0  0  0  0  0  0  0  0  0  0  0
   -0.8700    3.2753   -1.8827 H   0  0  0  0  0  0  0  0  0  0  0  0
    0.2370    4.3536   -1.0073 H   0  0  0  0  0  0  0  0  0  0  0  0
    0.8724    3.2563   -2.2493 H   0  0  0  0  0  0  0  0  0  0  0  0
  1  2  1  0  0  0  0
  2  3  1  0  0  0  0
  2  4  1  0  0  0  0
  2  5  1  0  0  0  0
  5  6  2  0  0  0  0
  5  7  1  0  0  0  0
  7  8  1  0  0  0  0
  7  9  1  0  0  0  0
  9 10  1  0  0  0  0
  9 11  1  0  0  0  0
  9 16  1  0  0  0  0
 11 12  1  0  0  0  0
 11 13  1  0  0  0  0
 11 14  1  0  0  0  0
 14 15  1  0  0  0  0
 16 17  2  0  0  0  0
 16 18  1  0  0  0  0
 18 19  1  0  0  0  0
 18 20  1  0  0  0  0
 20 21  1  0  0  0  0
 20 22  1  0  0  0  0
 20 23  1  0  0  0  0
M  END
$$$$

  -OEChem-01062216073D

 23 22  0     1  0  0  0  0  0999 V2000
   -2.7617   -3.4838    0.9463 H   0  0  0  0  0  0  0  0  0  0  0  0
   -2.6408   -2.4623    0.5748 C   0  0  0  0  0  0  0  0  0  0  0  0
   -3.4851   -1.8594    0.9178 H   0  0  0  0  0  0  0  0  0  0  0  0
   -2.6368   -2.4857   -0.5178 H   0  0  0  0  0  0  0  0  0  0  0  0
   -1.3402   -1.8715    1.0850 C   0  0  0  0  0  0  0  0  0  0  0  0
   -0.7522   -2.4356    1.9876 O   0  0  0  0  0  0  0  0  0  0  0  0
   -0.9595   -0.6221    0.6429 N   0  0  0  0  0  0  0  0  0  0  0  0
   -1.6172   -0.2621   -0.0479 H   0  0  0  0  0  0  0  0  0  0  0  0
    0.3976   -0.0476    0.4655 C   0  0  1  0  0  0  0  0  0  0  0  0
    0.6593    0.4678    1.3942 H   0  0  0  0  0  0  0  0  0  0  0  0
    1.5956   -0.9621    0.0893 C   0  0  0  0  0  0  0  0  0  0  0  0
    1.3322   -1.4895   -0.8341 H   0  0  0  0  0  0  0  0  0  0  0  0
    2.4649   -0.3351   -0.1351 H   0  0  0  0  0  0  0  0  0  0  0  0
    2.1395   -2.2321    1.3047 S   0  0  0  0  0  0  0  0  0  0  0  0
    0.9758   -2.5688    1.9047 H   0  0  0  0  0  0  0  0  0  0  0  0
    0.3236    0.9805   -0.6811 C   0  0  0  0  0  0  0  0  0  0  0  0
   -0.1856    0.6642   -1.7492 O   0  0  0  0  0  0  0  0  0  0  0  0
    0.6479    2.3054   -0.4563 N   0  0  0  0  0  0  0  0  0  0  0  0
    1.0007    2.5568    0.4631 H   0  0  0  0  0  0  0  0  0  0  0  0
    0.4867    3.3516   -1.4597 C   0  0  0  0  0  0  0  0  0  0  0  0
   -0.5681    3.4627   -1.7325 H   0  0  0  0  0  0  0  0  0  0  0  0
    0.8450    4.3091   -1.0692 H   0  0  0  0  0  0  0  0  0  0  0  0
    1.0606    3.1108   -2.3611 H   0  0  0  0  0  0  0  0  0  0  0  0
  1  2  1  0  0  0  0
  2  3  1  0  0  0  0
  2  4  1  0  0  0  0
  2  5  1  0  0  0  0
  5  6  2  0  0  0  0
  5  7  1  0  0  0  0
  7  8  1  0  0  0  0
  7  9  1  0  0  0  0
  9 10  1  0  0  0  0
  9 11  1  0  0  0  0
  9 16  1  0  0  0  0
 11 12  1  0  0  0  0
 11 13  1  0  0  0  0
 11 14  1  0  0  0  0
 14 15  1  0  0  0  0
 16 17  2  0  0  0  0
 16 18  1  0  0  0  0
 18 19  1  0  0  0  0
 18 20  1  0  0  0  0
 20 21  1  0  0  0  0
 20 22  1  0  0  0  0
 20 23  1  0  0  0  0
M  END
$$$$

  -OEChem-01062216073D

 23 22  0     1  0  0  0  0  0999 V2000
   -2.8096   -3.4655    0.9668 H   0  0  0  0  0  0  0  0  0  0  0  0
   -2.6650   -2.4500    0.5870 C   0  0  0  0  0  0  0  0  0  0  0  0
   -3.4860   -1.8211    0.9398 H   0  0  0  0  0  0  0  0  0  0  0  0
   -2.6798   -2.4795   -0.5054 H   0  0  0  0  0  0  0  0  0  0  0  0
   -1.3399   -1.8931    1.0723 C   0  0  0  0  0  0  0  0  0  0  0  0
   -0.7323   -2.4944    1.9366 O   0  0  0  0  0  0  0  0  0  0  0  0
   -0.9510   -0.6428    0.6399 N   0  0  0  0  0  0  0  0  0  0  0  0
   -1.6126   -0.2626   -0.0375 H   0  0  0  0  0  0  0  0  0  0  0  0
    0.4014   -0.0535    0.4740 C   0  0  1  0  0  0  0  0  0  0  0  0
    0.6471    0.4638    1.4061 H   0  0  0  0  0  0  0  0  0  0  0  0
    1.6133   -0.9523    0.1065 C   0  0  0  0  0  0  0  0  0  0  0  0
    1.3619   -1.4809   -0.8196 H   0  0  0  0  0  0  0  0  0  0  0  0
    2.4777   -0.3158   -0.1102 H   0  0  0  0  0  0  0  0  0  0  0  0
    2.1650   -2.2176    1.3232 S   0  0  0  0  0  0  0  0  0  0  0  0
    0.9951   -2.6229    1.8658 H   0  0  0  0  0  0  0  0  0  0  0  0
    0.3306    0.9797   -0.6692 C   0  0  0  0  0  0  0  0  0  0  0  0
   -0.3696    0.7570   -1.6502 O   0  0  0  0  0  0  0  0  0  0  0  0
    0.9251    2.2203   -0.5311 N   0  0  0  0  0  0  0  0  0  0  0  0
    1.4486    2.4026    0.3208 H   0  0  0  0  0  0  0  0  0  0  0  0
    0.8141    3.2777   -1.5296 C   0  0  0  0  0  0  0  0  0  0  0  0
   -0.2316    3.5766   -1.6583 H   0  0  0  0  0  0  0  0  0  0  0  0
    1.3879    4.1554   -1.2166 H   0  0  0  0  0  0  0  0  0  0  0  0
    1.2043    2.9368   -2.4945 H   0  0  0  0  0  0  0  0  0  0  0  0
  1  2  1  0  0  0  0
  2  3  1  0  0  0  0
  2  4  1  0  0  0  0
  2  5  1  0  0  0  0
  5  6  2  0  0  0  0
  5  7  1  0  0  0  0
  7  8  1  0  0  0  0
  7  9  1  0  0  0  0
  9 10  1  0  0  0  0
  9 11  1  0  0  0  0
  9 16  1  0  0  0  0
 11 12  1  0  0  0  0
 11 13  1  0  0  0  0
 11 14  1  0  0  0  0
 14 15  1  0  0  0  0
 16 17  2  0  0  0  0
 16 18  1  0  0  0  0
 18 19  1  0  0  0  0
 18 20  1  0  0  0  0
 20 21  1  0  0  0  0
 20 22  1  0  0  0  0
 20 23  1  0  0  0  0
M  END
$$$$

  -OEChem-01062216073D

 23 22  0     1  0  0  0  0  0999 V2000
   -2.8547   -3.4537    0.9441 H   0  0  0  0  0  0  0  0  0  0  0  0
   -2.6991   -2.4280    0.5977 C   0  0  0  0  0  0  0  0  0  0  0  0
   -3.4867   -1.7928    1.0102 H   0  0  0  0  0  0  0  0  0  0  0  0
   -2.7622   -2.4136   -0.4932 H   0  0  0  0  0  0  0  0  0  0  0  0
   -1.3398   -1.9233    1.0448 C   0  0  0  0  0  0  0  0  0  0  0  0
   -0.7084   -2.5804    1.8487 O   0  0  0  0  0  0  0  0  0  0  0  0
   -0.9364   -0.6728    0.6252 N   0  0  0  0  0  0  0  0  0  0  0  0
   -1.6085   -0.2586   -0.0224 H   0  0  0  0  0  0  0  0  0  0  0  0
    0.4101   -0.0638    0.4778 C   0  0  1  0  0  0  0  0  0  0  0  0
    0.6297    0.4607    1.4126 H   0  0  0  0  0  0  0  0  0  0  0  0
    1.6442   -0.9445    0.1399 C   0  0  0  0  0  0  0  0  0  0  0  0
    1.4183   -1.4843   -0.7861 H   0  0  0  0  0  0  0  0  0  0  0  0
    2.5028   -0.2974   -0.0659 H   0  0  0  0  0  0  0  0  0  0  0  0
    2.1952   -2.1888    1.3779 S   0  0  0  0  0  0  0  0  0  0  0  0
    1.0203   -2.6725    1.8393 H   0  0  0  0  0  0  0  0  0  0  0  0
    0.3435    0.9740   -0.6644 C   0  0  0  0  0  0  0  0  0  0  0  0
   -0.5099    0.8705   -1.5392 O   0  0  0  0  0  0  0  0  0  0  0  0
    1.1636    2.0875   -0.6520 N   0  0  0  0  0  0  0  0  0  0  0  0
    1.8251    2.1809    0.1141 H   0  0  0  0  0  0  0  0  0  0  0  0
    1.0984    3.1402   -1.6591 C   0  0  0  0  0  0  0  0  0  0  0  0
    0.1240    3.6393   -1.6295 H   0  0  0  0  0  0  0  0  0  0  0  0
    1.8762    3.8879   -1.4760 H   0  0  0  0  0  0  0  0  0  0  0  0
    1.2505    2.7236   -2.6607 H   0  0  0  0  0  0  0  0  0  0  0  0
  1  2  1  0  0  0  0
  2  3  1  0  0  0  0
  2  4  1  0  0  0  0
  2  5  1  0  0  0  0
  5  6  2  0  0  0  0
  5  7  1  0  0  0  0
  7  8  1  0  0  0  0
  7  9  1  0  0  0  0
  9 10  1  0  0  0  0
  9 11  1  0  0  0  0
  9 16  1  0  0  0  0
 11 12  1  0  0  0  0
 11 13  1  0  0  0  0
 11 14  1  0  0  0  0
 14 15  1  0  0  0  0
 16 17  2  0  0  0  0
 16 18  1  0  0  0  0
 18 19  1  0  0  0  0
 18 20  1  0  0  0  0
 20 21  1  0  0  0  0
 20 22  1  0  0  0  0
 20 23  1  0  0  0  0
M  END
$$$$

  -OEChem-01062216073D

 23 22  0     1  0  0  0  0  0999 V2000
   -2.9701   -3.4129    0.9683 H   0  0  0  0  0  0  0  0  0  0  0  0
   -2.7846   -2.3772    0.6693 C   0  0  0  0  0  0  0  0  0  0  0  0
   -3.4364   -1.7213    1.2515 H   0  0  0  0  0  0  0  0  0  0  0  0
   -3.0241   -2.2705   -0.3915 H   0  0  0  0  0  0  0  0  0  0  0  0
   -1.3319   -2.0116    0.9121 C   0  0  0  0  0  0  0  0  0  0  0  0
   -0.6150   -2.8351    1.4432 O   0  0  0  0  0  0  0  0  0  0  0  0
   -0.9109   -0.7548    0.5239 N   0  0  0  0  0  0  0  0  0  0  0  0
   -1.6297   -0.2506    0.0027 H   0  0  0  0  0  0  0  0  0  0  0  0
    0.4200   -0.0995    0.4200 C   0  0  1  0  0  0  0  0  0  0  0  0
    0.5547    0.4526    1.3549 H   0  0  0  0  0  0  0  0  0  0  0  0
    1.7174   -0.9326    0.2349 C   0  0  0  0  0  0  0  0  0  0  0  0
    1.5912   -1.5520   -0.6595 H   0  0  0  0  0  0  0  0  0  0  0  0
    2.5611   -0.2620    0.0488 H   0  0  0  0  0  0  0  0  0  0  0  0
    2.2119   -2.0391    1.6198 S   0  0  0  0  0  0  0  0  0  0  0  0
    1.0844   -2.7637    1.8018 H   0  0  0  0  0  0  0  0  0  0  0  0
    0.3705    0.9510   -0.7155 C   0  0  0  0  0  0  0  0  0  0  0  0
   -0.5983    1.0015   -1.4664 O   0  0  0  0  0  0  0  0  0  0  0  0
    1.3548    1.9166   -0.8343 N   0  0  0  0  0  0  0  0  0  0  0  0
    2.1169    1.9013   -0.1621 H   0  0  0  0  0  0  0  0  0  0  0  0
    1.3258    2.9730   -1.8396 C   0  0  0  0  0  0  0  0  0  0  0  0
    0.4405    3.6040   -1.7086 H   0  0  0  0  0  0  0  0  0  0  0  0
    2.2156    3.6040   -1.7511 H   0  0  0  0  0  0  0  0  0  0  0  0
    1.3070    2.5436   -2.8469 H   0  0  0  0  0  0  0  0  0  0  0  0
  1  2  1  0  0  0  0
  2  3  1  0  0  0  0
  2  4  1  0  0  0  0
  2  5  1  0  0  0  0
  5  6  2  0  0  0  0
  5  7  1  0  0  0  0
  7  8  1  0  0  0  0
  7  9  1  0  0  0  0
  9 10  1  0  0  0  0
  9 11  1  0  0  0  0
  9 16  1  0  0  0  0
 11 12  1  0  0  0  0
 11 13  1  0  0  0  0
 11 14  1  0  0  0  0
 14 15  1  0  0  0  0
 16 17  2  0  0  0  0
 16 18  1  0  0  0  0
 18 19  1  0  0  0  0
 18 20  1  0  0  0  0
 20 21  1  0  0  0  0
 20 22  1  0  0  0  0
 20 23  1  0  0  0  0
M  END
$$$$

  -OEChem-01062216073D

 23 22  0     1  0  0  0  0  0999 V2000
   -2.8944   -3.3972    1.1270 H   0  0  0  0  0  0  0  0  0  0  0  0
   -2.7361   -2.4239    0.6543 C   0  0  0  0  0  0  0  0  0  0  0  0
   -3.5782   -1.7716    0.8976 H   0  0  0  0  0  0  0  0  0  0  0  0
   -2.6907   -2.5624   -0.4283 H   0  0  0  0  0  0  0  0  0  0  0  0
   -1.4426   -1.8070    1.1516 C   0  0  0  0  0  0  0  0  0  0  0  0
   -0.8766   -2.3026    2.1089 O   0  0  0  0  0  0  0  0  0  0  0  0
   -1.0590   -0.5738    0.6689 N   0  0  0  0  0  0  0  0  0  0  0  0
   -1.7186   -0.1651    0.0057 H   0  0  0  0  0  0  0  0  0  0  0  0
    0.3014    0.0003    0.5595 C   0  0  1  0  0  0  0  0  0  0  0  0
    0.6521    0.2984    1.5524 H   0  0  0  0  0  0  0  0  0  0  0  0
    1.3532   -0.9296   -0.1178 C   0  0  0  0  0  0  0  0  0  0  0  0
    0.9774   -1.1964   -1.1115 H   0  0  0  0  0  0  0  0  0  0  0  0
    2.2875   -0.3787   -0.2584 H   0  0  0  0  0  0  0  0  0  0  0  0
    1.7969   -2.4884    0.7494 S   0  0  0  0  0  0  0  0  0  0  0  0
    2.6300   -3.0709   -0.1388 H   0  0  0  0  0  0  0  0  0  0  0  0
    0.2352    1.2382   -0.3734 C   0  0  0  0  0  0  0  0  0  0  0  0
   -0.8131    1.5219   -0.9455 O   0  0  0  0  0  0  0  0  0  0  0  0
    1.3639    1.9872   -0.6620 N   0  0  0  0  0  0  0  0  0  0  0  0
    2.2074    1.7868   -0.1322 H   0  0  0  0  0  0  0  0  0  0  0  0
    1.3493    3.1518   -1.5402 C   0  0  0  0  0  0  0  0  0  0  0  0
    0.6876    3.9268   -1.1388 H   0  0  0  0  0  0  0  0  0  0  0  0
    2.3566    3.5696   -1.6312 H   0  0  0  0  0  0  0  0  0  0  0  0
    1.0008    2.8745   -2.5408 H   0  0  0  0  0  0  0  0  0  0  0  0
  1  2  1  0  0  0  0
  2  3  1  0  0  0  0
  2  4  1  0  0  0  0
  2  5  1  0  0  0  0
  5  6  2  0  0  0  0
  5  7  1  0  0  0  0
  7  8  1  0  0  0  0
  7  9  1  0  0  0  0
  9 10  1  0  0  0  0
  9 11  1  0  0  0  0
  9 16  1  0  0  0  0
 11 12  1  0  0  0  0
 11 13  1  0  0  0  0
 11 14  1  0  0  0  0
 14 15  1  0  0  0  0
 16 17  2  0  0  0  0
 16 18  1  0  0  0  0
 18 19  1  0  0  0  0
 18 20  1  0  0  0  0
 20 21  1  0  0  0  0
 20 22  1  0  0  0  0
 20 23  1  0  0  0  0
M  END
$$$$

  -OEChem-01062216073D

 23 22  0     1  0  0  0  0  0999 V2000
   -2.8602   -3.4504    0.9323 H   0  0  0  0  0  0  0  0  0  0  0  0
   -2.6956   -2.4314    0.5706 C   0  0  0  0  0  0  0  0  0  0  0  0
   -3.4450   -1.7729    1.0164 H   0  0  0  0  0  0  0  0  0  0  0  0
   -2.8119   -2.4217   -0.5157 H   0  0  0  0  0  0  0  0  0  0  0  0
   -1.3036   -1.9610    0.9477 C   0  0  0  0  0  0  0  0  0  0  0  0
   -0.6461   -2.6269    1.7256 O   0  0  0  0  0  0  0  0  0  0  0  0
   -0.8939   -0.7072    0.5466 N   0  0  0  0  0  0  0  0  0  0  0  0
   -1.6067   -0.1834    0.0349 H   0  0  0  0  0  0  0  0  0  0  0  0
    0.4525   -0.0908    0.4502 C   0  0  1  0  0  0  0  0  0  0  0  0
    0.7881    0.1885    1.4536 H   0  0  0  0  0  0  0  0  0  0  0  0
    1.5616   -0.9503   -0.2299 C   0  0  0  0  0  0  0  0  0  0  0  0
    1.2081   -1.2134   -1.2325 H   0  0  0  0  0  0  0  0  0  0  0  0
    2.4689   -0.3526   -0.3498 H   0  0  0  0  0  0  0  0  0  0  0  0
    2.0994   -2.5061    0.5892 S   0  0  0  0  0  0  0  0  0  0  0  0
    1.0634   -2.7589    1.4216 H   0  0  0  0  0  0  0  0  0  0  0  0
    0.3129    1.1979   -0.4115 C   0  0  0  0  0  0  0  0  0  0  0  0
   -0.8056    1.6196   -0.6916 O   0  0  0  0  0  0  0  0  0  0  0  0
    1.4032    1.8586   -0.9550 N   0  0  0  0  0  0  0  0  0  0  0  0
    2.3304    1.5361   -0.6942 H   0  0  0  0  0  0  0  0  0  0  0  0
    1.2861    3.0574   -1.7784 C   0  0  0  0  0  0  0  0  0  0  0  0
    0.7931    3.8601   -1.2197 H   0  0  0  0  0  0  0  0  0  0  0  0
    2.2776    3.4068   -2.0821 H   0  0  0  0  0  0  0  0  0  0  0  0
    0.7037    2.8476   -2.6819 H   0  0  0  0  0  0  0  0  0  0  0  0
  1  2  1  0  0  0  0
  2  3  1  0  0  0  0
  2  4  1  0  0  0  0
  2  5  1  0  0  0  0
  5  6  2  0  0  0  0
  5  7  1  0  0  0  0
  7  8  1  0  0  0  0
  7  9  1  0  0  0  0
  9 10  1  0  0  0  0
  9 11  1  0  0  0  0
  9 16  1  0  0  0  0
 11 12  1  0  0  0  0
 11 13  1  0  0  0  0
 11 14  1  0  0  0  0
 14 15  1  0  0  0  0
 16 17  2  0  0  0  0
 16 18  1  0  0  0  0
 18 19  1  0  0  0  0
 18 20  1  0  0  0  0
 20 21  1  0  0  0  0
 20 22  1  0  0  0  0
 20 23  1  0  0  0  0
M  END
$$$$

  -OEChem-01062216073D

 23 22  0     1  0  0  0  0  0999 V2000
   -2.9502   -3.3851    0.9161 H   0  0  0  0  0  0  0  0  0  0  0  0
   -2.7522   -2.3562    0.6028 C   0  0  0  0  0  0  0  0  0  0  0  0
   -3.4197   -1.6865    1.1505 H   0  0  0  0  0  0  0  0  0  0  0  0
   -2.9576   -2.2700   -0.4669 H   0  0  0  0  0  0  0  0  0  0  0  0
   -1.3069   -1.9902    0.8854 C   0  0  0  0  0  0  0  0  0  0  0  0
   -0.6278   -2.7591    1.5366 O   0  0  0  0  0  0  0  0  0  0  0  0
   -0.8613   -0.7429    0.5001 N   0  0  0  0  0  0  0  0  0  0  0  0
   -1.5907   -0.1569    0.0895 H   0  0  0  0  0  0  0  0  0  0  0  0
    0.4827   -0.1142    0.4351 C   0  0  1  0  0  0  0  0  0  0  0  0
    0.7640    0.1942    1.4468 H   0  0  0  0  0  0  0  0  0  0  0  0
    1.6638   -0.9479   -0.1483 C   0  0  0  0  0  0  0  0  0  0  0  0
    1.3813   -1.2598   -1.1593 H   0  0  0  0  0  0  0  0  0  0  0  0
    2.5494   -0.3123   -0.2309 H   0  0  0  0  0  0  0  0  0  0  0  0
    2.2244   -2.4488    0.7540 S   0  0  0  0  0  0  0  0  0  0  0  0
    1.0679   -2.9286    1.2617 H   0  0  0  0  0  0  0  0  0  0  0  0
    0.3283    1.1668   -0.4369 C   0  0  0  0  0  0  0  0  0  0  0  0
   -0.7730    1.7032   -0.5138 O   0  0  0  0  0  0  0  0  0  0  0  0
    1.3475    1.6891   -1.2180 N   0  0  0  0  0  0  0  0  0  0  0  0
    2.2611    1.2496   -1.1628 H   0  0  0  0  0  0  0  0  0  0  0  0
    1.1848    2.8552   -2.0798 C   0  0  0  0  0  0  0  0  0  0  0  0
    0.8772    3.7271   -1.4927 H   0  0  0  0  0  0  0  0  0  0  0  0
    2.1296    3.0918   -2.5789 H   0  0  0  0  0  0  0  0  0  0  0  0
    0.4280    2.6626   -2.8477 H   0  0  0  0  0  0  0  0  0  0  0  0
  1  2  1  0  0  0  0
  2  3  1  0  0  0  0
  2  4  1  0  0  0  0
  2  5  1  0  0  0  0
  5  6  2  0  0  0  0
  5  7  1  0  0  0  0
  7  8  1  0  0  0  0
  7  9  1  0  0  0  0
  9 10  1  0  0  0  0
  9 11  1  0  0  0  0
  9 16  1  0  0  0  0
 11 12  1  0  0  0  0
 11 13  1  0  0  0  0
 11 14  1  0  0  0  0
 14 15  1  0  0  0  0
 16 17  2  0  0  0  0
 16 18  1  0  0  0  0
 18 19  1  0  0  0  0
 18 20  1  0  0  0  0
 20 21  1  0  0  0  0
 20 22  1  0  0  0  0
 20 23  1  0  0  0  0
M  END
$$$$

  -OEChem-01062216073D

 23 22  0     1  0  0  0  0  0999 V2000
   -3.0019   -3.3461    0.9380 H   0  0  0  0  0  0  0  0  0  0  0  0
   -2.7874   -2.3150    0.6429 C   0  0  0  0  0  0  0  0  0  0  0  0
   -3.3797   -1.6406    1.2662 H   0  0  0  0  0  0  0  0  0  0  0  0
   -3.0759   -2.1824   -0.4027 H   0  0  0  0  0  0  0  0  0  0  0  0
   -1.3100   -2.0155    0.8159 C   0  0  0  0  0  0  0  0  0  0  0  0
   -0.6040   -2.8645    1.3209 O   0  0  0  0  0  0  0  0  0  0  0  0
   -0.8541   -0.7676    0.4417 N   0  0  0  0  0  0  0  0  0  0  0  0
   -1.5994   -0.1407    0.1345 H   0  0  0  0  0  0  0  0  0  0  0  0
    0.4857   -0.1276    0.4014 C   0  0  1  0  0  0  0  0  0  0  0  0
    0.7194    0.2040    1.4180 H   0  0  0  0  0  0  0  0  0  0  0  0
    1.7218   -0.9350   -0.0922 C   0  0  0  0  0  0  0  0  0  0  0  0
    1.5013   -1.2991   -1.1010 H   0  0  0  0  0  0  0  0  0  0  0  0
    2.5827   -0.2626   -0.1564 H   0  0  0  0  0  0  0  0  0  0  0  0
    2.2847   -2.3770    0.9005 S   0  0  0  0  0  0  0  0  0  0  0  0
    1.1169   -2.9887    1.1994 H   0  0  0  0  0  0  0  0  0  0  0  0
    0.3315    1.1464   -0.4748 C   0  0  0  0  0  0  0  0  0  0  0  0
   -0.6982    1.8045   -0.3705 O   0  0  0  0  0  0  0  0  0  0  0  0
    1.2333    1.5147   -1.4611 N   0  0  0  0  0  0  0  0  0  0  0  0
    2.0587    0.9373   -1.5898 H   0  0  0  0  0  0  0  0  0  0  0  0
    1.0348    2.6582   -2.3449 C   0  0  0  0  0  0  0  0  0  0  0  0
    0.9347    3.5805   -1.7629 H   0  0  0  0  0  0  0  0  0  0  0  0
    1.8890    2.7682   -3.0198 H   0  0  0  0  0  0  0  0  0  0  0  0
    0.1318    2.5230   -2.9495 H   0  0  0  0  0  0  0  0  0  0  0  0
  1  2  1  0  0  0  0
  2  3  1  0  0  0  0
  2  4  1  0  0  0  0
  2  5  1  0  0  0  0
  5  6  2  0  0  0  0
  5  7  1  0  0  0  0
  7  8  1  0  0  0  0
  7  9  1  0  0  0  0
  9 10  1  0  0  0  0
  9 11  1  0  0  0  0
  9 16  1  0  0  0  0
 11 12  1  0  0  0  0
 11 13  1  0  0  0  0
 11 14  1  0  0  0  0
 14 15  1  0  0  0  0
 16 17  2  0  0  0  0
 16 18  1  0  0  0  0
 18 19  1  0  0  0  0
 18 20  1  0  0  0  0
 20 21  1  0  0  0  0
 20 22  1  0  0  0  0
 20 23  1  0  0  0  0
M  END
$$$$

  -OEChem-01062216073D

 23 22  0     1  0  0  0  0  0999 V2000
   -3.0195   -3.3338    0.9940 H   0  0  0  0  0  0  0  0  0  0  0  0
   -2.8061   -2.3027    0.6978 C   0  0  0  0  0  0  0  0  0  0  0  0
   -3.3238   -1.6268    1.3829 H   0  0  0  0  0  0  0  0  0  0  0  0
   -3.1831   -2.1434   -0.3153 H   0  0  0  0  0  0  0  0  0  0  0  0
   -1.3121   -2.0406    0.7428 C   0  0  0  0  0  0  0  0  0  0  0  0
   -0.5800   -2.9415    1.0976 O   0  0  0  0  0  0  0  0  0  0  0  0
   -0.8660   -0.7861    0.3769 N   0  0  0  0  0  0  0  0  0  0  0  0
   -1.6266   -0.1407    0.1618 H   0  0  0  0  0  0  0  0  0  0  0  0
    0.4668   -0.1305    0.3594 C   0  0  1  0  0  0  0  0  0  0  0  0
    0.6585    0.2145    1.3805 H   0  0  0  0  0  0  0  0  0  0  0  0
    1.7446   -0.9106   -0.0602 C   0  0  0  0  0  0  0  0  0  0  0  0
    1.5751   -1.3206   -1.0609 H   0  0  0  0  0  0  0  0  0  0  0  0
    2.5831   -0.2091   -0.1206 H   0  0  0  0  0  0  0  0  0  0  0  0
    2.2997   -2.2997    1.0098 S   0  0  0  0  0  0  0  0  0  0  0  0
    1.1522   -2.9952    1.1785 H   0  0  0  0  0  0  0  0  0  0  0  0
    0.3231    1.1393   -0.5155 C   0  0  0  0  0  0  0  0  0  0  0  0
   -0.5939    1.9127   -0.2669 O   0  0  0  0  0  0  0  0  0  0  0  0
    1.0644    1.3535   -1.6663 N   0  0  0  0  0  0  0  0  0  0  0  0
    1.7600    0.6576   -1.9176 H   0  0  0  0  0  0  0  0  0  0  0  0
    0.8440    2.4801   -2.5663 C   0  0  0  0  0  0  0  0  0  0  0  0
    0.9546    3.4281   -2.0290 H   0  0  0  0  0  0  0  0  0  0  0  0
    1.5726    2.4605   -3.3827 H   0  0  0  0  0  0  0  0  0  0  0  0
   -0.1611    2.4350   -2.9988 H   0  0  0  0  0  0  0  0  0  0  0  0
  1  2  1  0  0  0  0
  2  3  1  0  0  0  0
  2  4  1  0  0  0  0
  2  5  1  0  0  0  0
  5  6  2  0  0  0  0
  5  7  1  0  0  0  0
  7  8  1  0  0  0  0
  7  9  1  0  0  0  0
  9 10  1  0  0  0  0
  9 11  1  0  0  0  0
  9 16  1  0  0  0  0
 11 12  1  0  0  0  0
 11 13  1  0  0  0  0
 11 14  1  0  0  0  0
 14 15  1  0  0  0  0
 16 17  2  0  0  0  0
 16 18  1  0  0  0  0
 18 19  1  0  0  0  0
 18 20  1  0  0  0  0
 20 21  1  0  0  0  0
 20 22  1  0  0  0  0
 20 23  1  0  0  0  0
M  END
$$$$

  -OEChem-01062216073D

 23 22  0     1  0  0  0  0  0999 V2000
   -3.0044   -3.3476    1.0327 H   0  0  0  0  0  0  0  0  0  0  0  0
   -2.8075   -2.3119    0.7413 C   0  0  0  0  0  0  0  0  0  0  0  0
   -3.2834   -1.6474    1.4665 H   0  0  0  0  0  0  0  0  0  0  0  0
   -3.2430   -2.1363   -0.2453 H   0  0  0  0  0  0  0  0  0  0  0  0
   -1.3129   -2.0517    0.7035 C   0  0  0  0  0  0  0  0  0  0  0  0
   -0.5627   -2.9689    0.9668 O   0  0  0  0  0  0  0  0  0  0  0  0
   -0.8844   -0.7915    0.3352 N   0  0  0  0  0  0  0  0  0  0  0  0
   -1.6563   -0.1434    0.1822 H   0  0  0  0  0  0  0  0  0  0  0  0
    0.4432   -0.1251    0.3281 C   0  0  1  0  0  0  0  0  0  0  0  0
    0.6131    0.2267    1.3510 H   0  0  0  0  0  0  0  0  0  0  0  0
    1.7421   -0.8865   -0.0553 C   0  0  0  0  0  0  0  0  0  0  0  0
    1.6008   -1.3197   -1.0502 H   0  0  0  0  0  0  0  0  0  0  0  0
    2.5662   -0.1678   -0.1169 H   0  0  0  0  0  0  0  0  0  0  0  0
    2.2948   -2.2472    1.0531 S   0  0  0  0  0  0  0  0  0  0  0  0
    1.1647   -2.9811    1.1707 H   0  0  0  0  0  0  0  0  0  0  0  0
    0.3124    1.1405   -0.5481 C   0  0  0  0  0  0  0  0  0  0  0  0
   -0.4350    2.0338   -0.1726 O   0  0  0  0  0  0  0  0  0  0  0  0
    0.8379    1.2146   -1.8275 N   0  0  0  0  0  0  0  0  0  0  0  0
    1.3583    0.4128   -2.1708 H   0  0  0  0  0  0  0  0  0  0  0  0
    0.6000    2.3360   -2.7293 C   0  0  0  0  0  0  0  0  0  0  0  0
    0.9286    3.2744   -2.2699 H   0  0  0  0  0  0  0  0  0  0  0  0
    1.1562    2.1965   -3.6614 H   0  0  0  0  0  0  0  0  0  0  0  0
   -0.4653    2.4155   -2.9703 H   0  0  0  0  0  0  0  0  0  0  0  0
  1  2  1  0  0  0  0
  2  3  1  0  0  0  0
  2  4  1  0  0  0  0
  2  5  1  0  0  0  0
  5  6  2  0  0  0  0
  5  7  1  0  0  0  0
  7  8  1  0  0  0  0
  7  9  1  0  0  0  0
  9 10  1  0  0  0  0
  9 11  1  0  0  0  0
  9 16  1  0  0  0  0
 11 12  1  0  0  0  0
 11 13  1  0  0  0  0
 11 14  1  0  0  0  0
 14 15  1  0  0  0  0
 16 17  2  0  0  0  0
 16 18  1  0  0  0  0
 18 19  1  0  0  0  0
 18 20  1  0  0  0  0
 20 21  1  0  0  0  0
 20 22  1  0  0  0  0
 20 23  1  0  0  0  0
M  END
$$$$

  -OEChem-01062216073D

 23 22  0     1  0  0  0  0  0999 V2000
   -2.9855   -3.3691    1.0606 H   0  0  0  0  0  0  0  0  0  0  0  0
   -2.8042   -2.3308    0.7681 C   0  0  0  0  0  0  0  0  0  0  0  0
   -3.2586   -1.6732    1.5132 H   0  0  0  0  0  0  0  0  0  0  0  0
   -3.2745   -2.1524   -0.2019 H   0  0  0  0  0  0  0  0  0  0  0  0
   -1.3132   -2.0618    0.6806 C   0  0  0  0  0  0  0  0  0  0  0  0
   -0.5492   -2.9803    0.8947 O   0  0  0  0  0  0  0  0  0  0  0  0
   -0.9047   -0.7961    0.3075 N   0  0  0  0  0  0  0  0  0  0  0  0
   -1.6874   -0.1566    0.1828 H   0  0  0  0  0  0  0  0  0  0  0  0
    0.4153   -0.1141    0.3108 C   0  0  1  0  0  0  0  0  0  0  0  0
    0.5695    0.2401    1.3356 H   0  0  0  0  0  0  0  0  0  0  0  0
    1.7306   -0.8522   -0.0563 C   0  0  0  0  0  0  0  0  0  0  0  0
    1.6108   -1.2905   -1.0515 H   0  0  0  0  0  0  0  0  0  0  0  0
    2.5417   -0.1180   -0.1124 H   0  0  0  0  0  0  0  0  0  0  0  0
    2.2885   -2.1990    1.0665 S   0  0  0  0  0  0  0  0  0  0  0  0
    1.1742   -2.9613    1.1493 H   0  0  0  0  0  0  0  0  0  0  0  0
    0.2923    1.1456   -0.5700 C   0  0  0  0  0  0  0  0  0  0  0  0
   -0.2230    2.1500   -0.1005 O   0  0  0  0  0  0  0  0  0  0  0  0
    0.5624    1.1070   -1.9269 N   0  0  0  0  0  0  0  0  0  0  0  0
    0.8715    0.2221   -2.3187 H   0  0  0  0  0  0  0  0  0  0  0  0
    0.3165    2.2285   -2.8262 C   0  0  0  0  0  0  0  0  0  0  0  0
    0.8644    3.1157   -2.4915 H   0  0  0  0  0  0  0  0  0  0  0  0
    0.6482    1.9817   -3.8394 H   0  0  0  0  0  0  0  0  0  0  0  0
   -0.7519    2.4663   -2.8598 H   0  0  0  0  0  0  0  0  0  0  0  0
  1  2  1  0  0  0  0
  2  3  1  0  0  0  0
  2  4  1  0  0  0  0
  2  5  1  0  0  0  0
  5  6  2  0  0  0  0
  5  7  1  0  0  0  0
  7  8  1  0  0  0  0
  7  9  1  0  0  0  0
  9 10  1  0  0  0  0
  9 11  1  0  0  0  0
  9 16  1  0  0  0  0
 11 12  1  0  0  0  0
 11 13  1  0  0  0  0
 11 14  1  0  0  0  0
 14 15  1  0  0  0  0
 16 17  2  0  0  0  0
 16 18  1  0  0  0  0
 18 19  1  0  0  0  0
 18 20  1  0  0  0  0
 20 21  1  0  0  0  0
 20 22  1  0  0  0  0
 20 23  1  0  0  0  0
M  END
$$$$

  -OEChem-01062216073D

 23 22  0     1  0  0  0  0  0999 V2000
   -2.9676   -3.4133    1.0069 H   0  0  0  0  0  0  0  0  0  0  0  0
   -2.8029   -2.3621    0.7521 C   0  0  0  0  0  0  0  0  0  0  0  0
   -3.3041   -1.7387    1.4968 H   0  0  0  0  0  0  0  0  0  0  0  0
   -3.2391   -2.1679   -0.2307 H   0  0  0  0  0  0  0  0  0  0  0  0
   -1.3173   -2.0528    0.7331 C   0  0  0  0  0  0  0  0  0  0  0  0
   -0.5439   -2.9322    1.0494 O   0  0  0  0  0  0  0  0  0  0  0  0
   -0.9234   -0.7883    0.3396 N   0  0  0  0  0  0  0  0  0  0  0  0
   -1.7142   -0.1722    0.1636 H   0  0  0  0  0  0  0  0  0  0  0  0
    0.3924   -0.0952    0.3257 C   0  0  1  0  0  0  0  0  0  0  0  0
    0.5669    0.2582    1.3479 H   0  0  0  0  0  0  0  0  0  0  0  0
    1.7021   -0.8172   -0.0945 C   0  0  0  0  0  0  0  0  0  0  0  0
    1.5586   -1.2277   -1.0983 H   0  0  0  0  0  0  0  0  0  0  0  0
    2.5056   -0.0749   -0.1551 H   0  0  0  0  0  0  0  0  0  0  0  0
    2.3114   -2.1910    0.9670 S   0  0  0  0  0  0  0  0  0  0  0  0
    1.1915   -2.9297    1.1347 H   0  0  0  0  0  0  0  0  0  0  0  0
    0.2590    1.1527   -0.5689 C   0  0  0  0  0  0  0  0  0  0  0  0
    0.0503    2.2445   -0.0615 O   0  0  0  0  0  0  0  0  0  0  0  0
    0.2204    1.0339   -1.9470 N   0  0  0  0  0  0  0  0  0  0  0  0
    0.3188    0.1018   -2.3398 H   0  0  0  0  0  0  0  0  0  0  0  0
    0.0141    2.1637   -2.8457 C   0  0  0  0  0  0  0  0  0  0  0  0
    0.7781    2.9308   -2.6797 H   0  0  0  0  0  0  0  0  0  0  0  0
    0.0775    1.8352   -3.8875 H   0  0  0  0  0  0  0  0  0  0  0  0
   -0.9730    2.6088   -2.6821 H   0  0  0  0  0  0  0  0  0  0  0  0
  1  2  1  0  0  0  0
  2  3  1  0  0  0  0
  2  4  1  0  0  0  0
  2  5  1  0  0  0  0
  5  6  2  0  0  0  0
  5  7  1  0  0  0  0
  7  8  1  0  0  0  0
  7  9  1  0  0  0  0
  9 10  1  0  0  0  0
  9 11  1  0  0  0  0
  9 16  1  0  0  0  0
 11 12  1  0  0  0  0
 11 13  1  0  0  0  0
 11 14  1  0  0  0  0
 14 15  1  0  0  0  0
 16 17  2  0  0  0  0
 16 18  1  0  0  0  0
 18 19  1  0  0  0  0
 18 20  1  0  0  0  0
 20 21  1  0  0  0  0
 20 22  1  0  0  0  0
 20 23  1  0  0  0  0
M  END
$$$$

  -OEChem-01062216073D

 23 22  0     1  0  0  0  0  0999 V2000
   -2.9207   -3.4327    1.0776 H   0  0  0  0  0  0  0  0  0  0  0  0
   -2.7649   -2.4267    0.6768 C   0  0  0  0  0  0  0  0  0  0  0  0
   -3.4184   -1.7322    1.2106 H   0  0  0  0  0  0  0  0  0  0  0  0
   -3.0303   -2.4272   -0.3831 H   0  0  0  0  0  0  0  0  0  0  0  0
   -1.3151   -2.0133    0.8504 C   0  0  0  0  0  0  0  0  0  0  0  0
   -0.5634   -2.7685    1.4311 O   0  0  0  0  0  0  0  0  0  0  0  0
   -0.9373   -0.7532    0.4293 N   0  0  0  0  0  0  0  0  0  0  0  0
   -1.7178   -0.1922    0.0961 H   0  0  0  0  0  0  0  0  0  0  0  0
    0.3877   -0.0807    0.3606 C   0  0  1  0  0  0  0  0  0  0  0  0
    0.6471    0.2489    1.3725 H   0  0  0  0  0  0  0  0  0  0  0  0
    1.6239   -0.8287   -0.2144 C   0  0  0  0  0  0  0  0  0  0  0  0
    1.3766   -1.1642   -1.2260 H   0  0  0  0  0  0  0  0  0  0  0  0
    2.4519   -0.1161   -0.3015 H   0  0  0  0  0  0  0  0  0  0  0  0
    2.2719   -2.2959    0.6860 S   0  0  0  0  0  0  0  0  0  0  0  0
    1.1660   -2.7580    1.3109 H   0  0  0  0  0  0  0  0  0  0  0  0
    0.2385    1.1666   -0.5325 C   0  0  0  0  0  0  0  0  0  0  0  0
    0.4112    2.2819   -0.0662 O   0  0  0  0  0  0  0  0  0  0  0  0
   -0.1631    1.0400   -1.8511 N   0  0  0  0  0  0  0  0  0  0  0  0
   -0.2552    0.0987   -2.2228 H   0  0  0  0  0  0  0  0  0  0  0  0
   -0.2995    2.1749   -2.7568 C   0  0  0  0  0  0  0  0  0  0  0  0
    0.6626    2.6831   -2.8817 H   0  0  0  0  0  0  0  0  0  0  0  0
   -0.6425    1.8365   -3.7393 H   0  0  0  0  0  0  0  0  0  0  0  0
   -1.0284    2.8928   -2.3659 H   0  0  0  0  0  0  0  0  0  0  0  0
  1  2  1  0  0  0  0
  2  3  1  0  0  0  0
  2  4  1  0  0  0  0
  2  5  1  0  0  0  0
  5  6  2  0  0  0  0
  5  7  1  0  0  0  0
  7  8  1  0  0  0  0
  7  9  1  0  0  0  0
  9 10  1  0  0  0  0
  9 11  1  0  0  0  0
  9 16  1  0  0  0  0
 11 12  1  0  0  0  0
 11 13  1  0  0  0  0
 11 14  1  0  0  0  0
 14 15  1  0  0  0  0
 16 17  2  0  0  0  0
 16 18  1  0  0  0  0
 18 19  1  0  0  0  0
 18 20  1  0  0  0  0
 20 21  1  0  0  0  0
 20 22  1  0  0  0  0
 20 23  1  0  0  0  0
M  END
$$$$

  -OEChem-01062216073D

 23 22  0     1  0  0  0  0  0999 V2000
   -2.8585   -3.4918    1.0257 H   0  0  0  0  0  0  0  0  0  0  0  0
   -2.7377   -2.4665    0.6640 C   0  0  0  0  0  0  0  0  0  0  0  0
   -3.4399   -1.8209    1.1972 H   0  0  0  0  0  0  0  0  0  0  0  0
   -2.9683   -2.4435   -0.4037 H   0  0  0  0  0  0  0  0  0  0  0  0
   -1.3152   -1.9940    0.8999 C   0  0  0  0  0  0  0  0  0  0  0  0
   -0.5742   -2.6860    1.5681 O   0  0  0  0  0  0  0  0  0  0  0  0
   -0.9576   -0.7335    0.4632 N   0  0  0  0  0  0  0  0  0  0  0  0
   -1.7370   -0.1991    0.0877 H   0  0  0  0  0  0  0  0  0  0  0  0
    0.3690   -0.0663    0.3721 C   0  0  1  0  0  0  0  0  0  0  0  0
    0.6643    0.2520    1.3777 H   0  0  0  0  0  0  0  0  0  0  0  0
    1.5623   -0.8330   -0.2644 C   0  0  0  0  0  0  0  0  0  0  0  0
    1.2708   -1.1364   -1.2746 H   0  0  0  0  0  0  0  0  0  0  0  0
    2.4067   -0.1415   -0.3648 H   0  0  0  0  0  0  0  0  0  0  0  0
    2.2003   -2.3353    0.5830 S   0  0  0  0  0  0  0  0  0  0  0  0
    1.1635   -2.6606    1.3890 H   0  0  0  0  0  0  0  0  0  0  0  0
    0.2267    1.1815   -0.5223 C   0  0  0  0  0  0  0  0  0  0  0  0
    0.7030    2.2499   -0.1713 O   0  0  0  0  0  0  0  0  0  0  0  0
   -0.4706    1.1096   -1.7167 N   0  0  0  0  0  0  0  0  0  0  0  0
   -0.7332    0.1840   -2.0428 H   0  0  0  0  0  0  0  0  0  0  0  0
   -0.5873    2.2372   -2.6350 C   0  0  0  0  0  0  0  0  0  0  0  0
    0.3999    2.5360   -3.0032 H   0  0  0  0  0  0  0  0  0  0  0  0
   -1.2098    1.9651   -3.4930 H   0  0  0  0  0  0  0  0  0  0  0  0
   -1.0494    3.0944   -2.1335 H   0  0  0  0  0  0  0  0  0  0  0  0
  1  2  1  0  0  0  0
  2  3  1  0  0  0  0
  2  4  1  0  0  0  0
  2  5  1  0  0  0  0
  5  6  2  0  0  0  0
  5  7  1  0  0  0  0
  7  8  1  0  0  0  0
  7  9  1  0  0  0  0
  9 10  1  0  0  0  0
  9 11  1  0  0  0  0
  9 16  1  0  0  0  0
 11 12  1  0  0  0  0
 11 13  1  0  0  0  0
 11 14  1  0  0  0  0
 14 15  1  0  0  0  0
 16 17  2  0  0  0  0
 16 18  1  0  0  0  0
 18 19  1  0  0  0  0
 18 20  1  0  0  0  0
 20 21  1  0  0  0  0
 20 22  1  0  0  0  0
 20 23  1  0  0  0  0
M  END
$$$$

  -OEChem-01062216073D

 23 22  0     1  0  0  0  0  0999 V2000
   -2.8420   -3.5200    1.0290 H   0  0  0  0  0  0  0  0  0  0  0  0
   -2.7384   -2.4845    0.6912 C   0  0  0  0  0  0  0  0  0  0  0  0
   -3.4335   -1.8597    1.2571 H   0  0  0  0  0  0  0  0  0  0  0  0
   -2.9942   -2.4362   -0.3699 H   0  0  0  0  0  0  0  0  0  0  0  0
   -1.3151   -2.0045    0.9072 C   0  0  0  0  0  0  0  0  0  0  0  0
   -0.5653   -2.6886    1.5735 O   0  0  0  0  0  0  0  0  0  0  0  0
   -0.9709   -0.7405    0.4686 N   0  0  0  0  0  0  0  0  0  0  0  0
   -1.7633   -0.1986    0.1342 H   0  0  0  0  0  0  0  0  0  0  0  0
    0.3499   -0.0590    0.3747 C   0  0  1  0  0  0  0  0  0  0  0  0
    0.6527    0.2553    1.3792 H   0  0  0  0  0  0  0  0  0  0  0  0
    1.5361   -0.8204   -0.2836 C   0  0  0  0  0  0  0  0  0  0  0  0
    1.2320   -1.1106   -1.2943 H   0  0  0  0  0  0  0  0  0  0  0  0
    2.3808   -0.1293   -0.3870 H   0  0  0  0  0  0  0  0  0  0  0  0
    2.1868   -2.3312    0.5388 S   0  0  0  0  0  0  0  0  0  0  0  0
    1.1704   -2.6520    1.3719 H   0  0  0  0  0  0  0  0  0  0  0  0
    0.2105    1.1920   -0.5196 C   0  0  0  0  0  0  0  0  0  0  0  0
    0.8934    2.1816   -0.3028 O   0  0  0  0  0  0  0  0  0  0  0  0
   -0.7186    1.2244   -1.5471 N   0  0  0  0  0  0  0  0  0  0  0  0
   -1.1179    0.3331   -1.8250 H   0  0  0  0  0  0  0  0  0  0  0  0
   -0.8325    2.3516   -2.4663 C   0  0  0  0  0  0  0  0  0  0  0  0
    0.0978    2.4831   -3.0291 H   0  0  0  0  0  0  0  0  0  0  0  0
   -1.6473    2.1810   -3.1765 H   0  0  0  0  0  0  0  0  0  0  0  0
   -1.0439    3.2752   -1.9169 H   0  0  0  0  0  0  0  0  0  0  0  0
  1  2  1  0  0  0  0
  2  3  1  0  0  0  0
  2  4  1  0  0  0  0
  2  5  1  0  0  0  0
  5  6  2  0  0  0  0
  5  7  1  0  0  0  0
  7  8  1  0  0  0  0
  7  9  1  0  0  0  0
  9 10  1  0  0  0  0
  9 11  1  0  0  0  0
  9 16  1  0  0  0  0
 11 12  1  0  0  0  0
 11 13  1  0  0  0  0
 11 14  1  0  0  0  0
 14 15  1  0  0  0  0
 16 17  2  0  0  0  0
 16 18  1  0  0  0  0
 18 19  1  0  0  0  0
 18 20  1  0  0  0  0
 20 21  1  0  0  0  0
 20 22  1  0  0  0  0
 20 23  1  0  0  0  0
M  END
$$$$

  -OEChem-01062216073D

 23 22  0     1  0  0  0  0  0999 V2000
   -2.8517   -3.4960    1.2433 H   0  0  0  0  0  0  0  0  0  0  0  0
   -2.7597   -2.4418    0.9658 C   0  0  0  0  0  0  0  0  0  0  0  0
   -3.0728   -1.8295    1.8150 H   0  0  0  0  0  0  0  0  0  0  0  0
   -3.4189   -2.2435    0.1173 H   0  0  0  0  0  0  0  0  0  0  0  0
   -1.3233   -2.1216    0.5957 C   0  0  0  0  0  0  0  0  0  0  0  0
   -0.5364   -3.0405    0.4935 O   0  0  0  0  0  0  0  0  0  0  0  0
   -1.0162   -0.8218    0.2387 N   0  0  0  0  0  0  0  0  0  0  0  0
   -1.8299   -0.2179    0.3231 H   0  0  0  0  0  0  0  0  0  0  0  0
    0.2716   -0.0683    0.2755 C   0  0  1  0  0  0  0  0  0  0  0  0
    0.3854    0.2722    1.3100 H   0  0  0  0  0  0  0  0  0  0  0  0
    1.6188   -0.7557   -0.0672 C   0  0  0  0  0  0  0  0  0  0  0  0
    1.5461   -1.1823   -1.0725 H   0  0  0  0  0  0  0  0  0  0  0  0
    2.4099    0.0018   -0.0896 H   0  0  0  0  0  0  0  0  0  0  0  0
    2.1704   -2.0808    1.0874 S   0  0  0  0  0  0  0  0  0  0  0  0
    1.1748   -2.9832    0.9258 H   0  0  0  0  0  0  0  0  0  0  0  0
    0.1604    1.2155   -0.5770 C   0  0  0  0  0  0  0  0  0  0  0  0
    0.9436    2.1390   -0.4100 O   0  0  0  0  0  0  0  0  0  0  0  0
   -0.8797    1.3729   -1.4771 N   0  0  0  0  0  0  0  0  0  0  0  0
   -1.3865    0.5275   -1.7240 H   0  0  0  0  0  0  0  0  0  0  0  0
   -1.0029    2.5383   -2.3458 C   0  0  0  0  0  0  0  0  0  0  0  0
   -0.1370    2.6139   -3.0121 H   0  0  0  0  0  0  0  0  0  0  0  0
   -1.9066    2.4600   -2.9579 H   0  0  0  0  0  0  0  0  0  0  0  0
   -1.0695    3.4554   -1.7507 H   0  0  0  0  0  0  0  0  0  0  0  0
  1  2  1  0  0  0  0
  2  3  1  0  0  0  0
  2  4  1  0  0  0  0
  2  5  1  0  0  0  0
  5  6  2  0  0  0  0
  5  7  1  0  0  0  0
  7  8  1  0  0  0  0
  7  9  1  0  0  0  0
  9 10  1  0  0  0  0
  9 11  1  0  0  0  0
  9 16  1  0  0  0  0
 11 12  1  0  0  0  0
 11 13  1  0  0  0  0
 11 14  1  0  0  0  0
 14 15  1  0  0  0  0
 16 17  2  0  0  0  0
 16 18  1  0  0  0  0
 18 19  1  0  0  0  0
 18 20  1  0  0  0  0
 20 21  1  0  0  0  0
 20 22  1  0  0  0  0
 20 23  1  0  0  0  0
M  END
$$$$

  -OEChem-01062216073D

 23 22  0     1  0  0  0  0  0999 V2000
   -2.7827   -3.5192    1.2884 H   0  0  0  0  0  0  0  0  0  0  0  0
   -2.7160   -2.4614    1.0174 C   0  0  0  0  0  0  0  0  0  0  0  0
   -2.9675   -1.8609    1.8950 H   0  0  0  0  0  0  0  0  0  0  0  0
   -3.4374   -2.2565    0.2226 H   0  0  0  0  0  0  0  0  0  0  0  0
   -1.3124   -2.1301    0.5448 C   0  0  0  0  0  0  0  0  0  0  0  0
   -0.5438   -3.0462    0.3292 O   0  0  0  0  0  0  0  0  0  0  0  0
   -1.0290   -0.8228    0.1960 N   0  0  0  0  0  0  0  0  0  0  0  0
   -1.8381   -0.2288    0.3548 H   0  0  0  0  0  0  0  0  0  0  0  0
    0.2562   -0.0651    0.2495 C   0  0  1  0  0  0  0  0  0  0  0  0
    0.3523    0.2743    1.2858 H   0  0  0  0  0  0  0  0  0  0  0  0
    1.6037   -0.7717   -0.0537 C   0  0  0  0  0  0  0  0  0  0  0  0
    1.5498   -1.2167   -1.0521 H   0  0  0  0  0  0  0  0  0  0  0  0
    2.4078   -0.0282   -0.0700 H   0  0  0  0  0  0  0  0  0  0  0  0
    2.1002   -2.0774    1.1479 S   0  0  0  0  0  0  0  0  0  0  0  0
    1.1386   -3.0004    0.9089 H   0  0  0  0  0  0  0  0  0  0  0  0
    0.1605    1.2313   -0.5915 C   0  0  0  0  0  0  0  0  0  0  0  0
    1.0645    2.0545   -0.5713 O   0  0  0  0  0  0  0  0  0  0  0  0
   -1.0061    1.5499   -1.2672 N   0  0  0  0  0  0  0  0  0  0  0  0
   -1.6364    0.7750   -1.4493 H   0  0  0  0  0  0  0  0  0  0  0  0
   -1.1383    2.7527   -2.0829 C   0  0  0  0  0  0  0  0  0  0  0  0
   -0.4098    2.7445   -2.9006 H   0  0  0  0  0  0  0  0  0  0  0  0
   -2.1428    2.8103   -2.5130 H   0  0  0  0  0  0  0  0  0  0  0  0
   -0.9742    3.6490   -1.4751 H   0  0  0  0  0  0  0  0  0  0  0  0
  1  2  1  0  0  0  0
  2  3  1  0  0  0  0
  2  4  1  0  0  0  0
  2  5  1  0  0  0  0
  5  6  2  0  0  0  0
  5  7  1  0  0  0  0
  7  8  1  0  0  0  0
  7  9  1  0  0  0  0
  9 10  1  0  0  0  0
  9 11  1  0  0  0  0
  9 16  1  0  0  0  0
 11 12  1  0  0  0  0
 11 13  1  0  0  0  0
 11 14  1  0  0  0  0
 14 15  1  0  0  0  0
 16 17  2  0  0  0  0
 16 18  1  0  0  0  0
 18 19  1  0  0  0  0
 18 20  1  0  0  0  0
 20 21  1  0  0  0  0
 20 22  1  0  0  0  0
 20 23  1  0  0  0  0
M  END
$$$$

  -OEChem-01062216073D

 23 22  0     1  0  0  0  0  0999 V2000
   -2.6529   -3.5086    1.2470 H   0  0  0  0  0  0  0  0  0  0  0  0
   -2.5647   -2.5861    0.6659 C   0  0  0  0  0  0  0  0  0  0  0  0
   -3.5163   -2.0510    0.7067 H   0  0  0  0  0  0  0  0  0  0  0  0
   -2.3417   -2.8470   -0.3714 H   0  0  0  0  0  0  0  0  0  0  0  0
   -1.4550   -1.7218    1.2331 C   0  0  0  0  0  0  0  0  0  0  0  0
   -0.9890   -1.9790    2.3281 O   0  0  0  0  0  0  0  0  0  0  0  0
   -1.1634   -0.5066    0.6489 N   0  0  0  0  0  0  0  0  0  0  0  0
   -1.7684   -0.3417   -0.1500 H   0  0  0  0  0  0  0  0  0  0  0  0
    0.2131    0.0181    0.4464 C   0  0  1  0  0  0  0  0  0  0  0  0
    0.6102    0.3693    1.4044 H   0  0  0  0  0  0  0  0  0  0  0  0
    1.2122   -1.0033   -0.1816 C   0  0  0  0  0  0  0  0  0  0  0  0
    0.8174   -1.3324   -1.1479 H   0  0  0  0  0  0  0  0  0  0  0  0
    2.1624   -0.4934   -0.3741 H   0  0  0  0  0  0  0  0  0  0  0  0
    1.6276   -2.4935    0.8146 S   0  0  0  0  0  0  0  0  0  0  0  0
    2.5671   -3.0760    0.0390 H   0  0  0  0  0  0  0  0  0  0  0  0
    0.1576    1.2108   -0.5490 C   0  0  0  0  0  0  0  0  0  0  0  0
    1.1474    1.5998   -1.1554 O   0  0  0  0  0  0  0  0  0  0  0  0
   -1.0578    1.8111   -0.8390 N   0  0  0  0  0  0  0  0  0  0  0  0
   -1.7993    1.6497   -0.1628 H   0  0  0  0  0  0  0  0  0  0  0  0
   -1.1745    2.9680   -1.7210 C   0  0  0  0  0  0  0  0  0  0  0  0
   -0.7861    2.7328   -2.7178 H   0  0  0  0  0  0  0  0  0  0  0  0
   -2.2237    3.2618   -1.8232 H   0  0  0  0  0  0  0  0  0  0  0  0
   -0.6134    3.8173   -1.3170 H   0  0  0  0  0  0  0  0  0  0  0  0
  1  2  1  0  0  0  0
  2  3  1  0  0  0  0
  2  4  1  0  0  0  0
  2  5  1  0  0  0  0
  5  6  2  0  0  0  0
  5  7  1  0  0  0  0
  7  8  1  0  0  0  0
  7  9  1  0  0  0  0
  9 10  1  0  0  0  0
  9 11  1  0  0  0  0
  9 16  1  0  0  0  0
 11 12  1  0  0  0  0
 11 13  1  0  0  0  0
 11 14  1  0  0  0  0
 14 15  1  0  0  0  0
 16 17  2  0  0  0  0
 16 18  1  0  0  0  0
 18 19  1  0  0  0  0
 18 20  1  0  0  0  0
 20 21  1  0  0  0  0
 20 22  1  0  0  0  0
 20 23  1  0  0  0  0
M  END
$$$$

  -OEChem-01062216073D

 23 22  0     1  0  0  0  0  0999 V2000
   -2.6784   -3.4927    1.2225 H   0  0  0  0  0  0  0  0  0  0  0  0
   -2.5797   -2.5668    0.6488 C   0  0  0  0  0  0  0  0  0  0  0  0
   -3.5228   -2.0177    0.6997 H   0  0  0  0  0  0  0  0  0  0  0  0
   -2.3663   -2.8221   -0.3919 H   0  0  0  0  0  0  0  0  0  0  0  0
   -1.4541   -1.7240    1.2167 C   0  0  0  0  0  0  0  0  0  0  0  0
   -0.9855   -1.9983    2.3064 O   0  0  0  0  0  0  0  0  0  0  0  0
   -1.1513   -0.5068    0.6430 N   0  0  0  0  0  0  0  0  0  0  0  0
   -1.7686   -0.3090   -0.1397 H   0  0  0  0  0  0  0  0  0  0  0  0
    0.2253    0.0157    0.4427 C   0  0  1  0  0  0  0  0  0  0  0  0
    0.6192    0.3689    1.4012 H   0  0  0  0  0  0  0  0  0  0  0  0
    1.2336   -1.0025   -0.1748 C   0  0  0  0  0  0  0  0  0  0  0  0
    0.8445   -1.3396   -1.1410 H   0  0  0  0  0  0  0  0  0  0  0  0
    2.1801   -0.4850   -0.3663 H   0  0  0  0  0  0  0  0  0  0  0  0
    1.6507   -2.4852    0.8317 S   0  0  0  0  0  0  0  0  0  0  0  0
    2.5724   -3.0858    0.0487 H   0  0  0  0  0  0  0  0  0  0  0  0
    0.1479    1.2129   -0.5450 C   0  0  0  0  0  0  0  0  0  0  0  0
    1.0288    1.4640   -1.3577 O   0  0  0  0  0  0  0  0  0  0  0  0
   -1.0006    1.9865   -0.5733 N   0  0  0  0  0  0  0  0  0  0  0  0
   -1.6368    1.8700    0.2117 H   0  0  0  0  0  0  0  0  0  0  0  0
   -1.1488    3.1638   -1.4223 C   0  0  0  0  0  0  0  0  0  0  0  0
   -1.0271    2.8946   -2.4769 H   0  0  0  0  0  0  0  0  0  0  0  0
   -2.1437    3.6009   -1.2928 H   0  0  0  0  0  0  0  0  0  0  0  0
   -0.4006    3.9207   -1.1637 H   0  0  0  0  0  0  0  0  0  0  0  0
  1  2  1  0  0  0  0
  2  3  1  0  0  0  0
  2  4  1  0  0  0  0
  2  5  1  0  0  0  0
  5  6  2  0  0  0  0
  5  7  1  0  0  0  0
  7  8  1  0  0  0  0
  7  9  1  0  0  0  0
  9 10  1  0  0  0  0
  9 11  1  0  0  0  0
  9 16  1  0  0  0  0
 11 12  1  0  0  0  0
 11 13  1  0  0  0  0
 11 14  1  0  0  0  0
 14 15  1  0  0  0  0
 16 17  2  0  0  0  0
 16 18  1  0  0  0  0
 18 19  1  0  0  0  0
 18 20  1  0  0  0  0
 20 21  1  0  0  0  0
 20 22  1  0  0  0  0
 20 23  1  0  0  0  0
M  END
$$$$

  -OEChem-01062216073D

 23 22  0     1  0  0  0  0  0999 V2000
   -2.6945   -3.4878    1.1897 H   0  0  0  0  0  0  0  0  0  0  0  0
   -2.6057   -2.5436    0.6449 C   0  0  0  0  0  0  0  0  0  0  0  0
   -3.5406   -1.9875    0.7462 H   0  0  0  0  0  0  0  0  0  0  0  0
   -2.4302   -2.7645   -0.4106 H   0  0  0  0  0  0  0  0  0  0  0  0
   -1.4533   -1.7303    1.2028 C   0  0  0  0  0  0  0  0  0  0  0  0
   -0.9725   -2.0274    2.2812 O   0  0  0  0  0  0  0  0  0  0  0  0
   -1.1411   -0.5102    0.6407 N   0  0  0  0  0  0  0  0  0  0  0  0
   -1.7685   -0.2846   -0.1266 H   0  0  0  0  0  0  0  0  0  0  0  0
    0.2345    0.0129    0.4455 C   0  0  1  0  0  0  0  0  0  0  0  0
    0.6247    0.3633    1.4066 H   0  0  0  0  0  0  0  0  0  0  0  0
    1.2538   -0.9947   -0.1692 C   0  0  0  0  0  0  0  0  0  0  0  0
    0.8691   -1.3358   -1.1360 H   0  0  0  0  0  0  0  0  0  0  0  0
    2.1932   -0.4643   -0.3603 H   0  0  0  0  0  0  0  0  0  0  0  0
    1.6785   -2.4769    0.8344 S   0  0  0  0  0  0  0  0  0  0  0  0
    2.5978   -3.0746    0.0464 H   0  0  0  0  0  0  0  0  0  0  0  0
    0.1428    1.2145   -0.5321 C   0  0  0  0  0  0  0  0  0  0  0  0
    0.8601    1.3381   -1.5172 O   0  0  0  0  0  0  0  0  0  0  0  0
   -0.8566    2.1501   -0.3314 N   0  0  0  0  0  0  0  0  0  0  0  0
   -1.3846    2.0735    0.5347 H   0  0  0  0  0  0  0  0  0  0  0  0
   -1.0238    3.3406   -1.1571 C   0  0  0  0  0  0  0  0  0  0  0  0
   -1.1832    3.0627   -2.2043 H   0  0  0  0  0  0  0  0  0  0  0  0
   -1.8904    3.9166   -0.8185 H   0  0  0  0  0  0  0  0  0  0  0  0
   -0.1366    3.9795   -1.0933 H   0  0  0  0  0  0  0  0  0  0  0  0
  1  2  1  0  0  0  0
  2  3  1  0  0  0  0
  2  4  1  0  0  0  0
  2  5  1  0  0  0  0
  5  6  2  0  0  0  0
  5  7  1  0  0  0  0
  7  8  1  0  0  0  0
  7  9  1  0  0  0  0
  9 10  1  0  0  0  0
  9 11  1  0  0  0  0
  9 16  1  0  0  0  0
 11 12  1  0  0  0  0
 11 13  1  0  0  0  0
 11 14  1  0  0  0  0
 14 15  1  0  0  0  0
 16 17  2  0  0  0  0
 16 18  1  0  0  0  0
 18 19  1  0  0  0  0
 18 20  1  0  0  0  0
 20 21  1  0  0  0  0
 20 22  1  0  0  0  0
 20 23  1  0  0  0  0
M  END
$$$$

  -OEChem-01062216073D

 23 22  0     1  0  0  0  0  0999 V2000
   -2.7179   -3.4772    1.1851 H   0  0  0  0  0  0  0  0  0  0  0  0
   -2.6134   -2.5359    0.6381 C   0  0  0  0  0  0  0  0  0  0  0  0
   -3.5415   -1.9675    0.7323 H   0  0  0  0  0  0  0  0  0  0  0  0
   -2.4350   -2.7620   -0.4158 H   0  0  0  0  0  0  0  0  0  0  0  0
   -1.4535   -1.7358    1.1995 C   0  0  0  0  0  0  0  0  0  0  0  0
   -0.9646   -2.0522    2.2689 O   0  0  0  0  0  0  0  0  0  0  0  0
   -1.1388   -0.5100    0.6517 N   0  0  0  0  0  0  0  0  0  0  0  0
   -1.7704   -0.2673   -0.1071 H   0  0  0  0  0  0  0  0  0  0  0  0
    0.2354    0.0139    0.4618 C   0  0  1  0  0  0  0  0  0  0  0  0
    0.6258    0.3519    1.4268 H   0  0  0  0  0  0  0  0  0  0  0  0
    1.2596   -0.9820   -0.1623 C   0  0  0  0  0  0  0  0  0  0  0  0
    0.8726   -1.3213   -1.1290 H   0  0  0  0  0  0  0  0  0  0  0  0
    2.1926   -0.4416   -0.3562 H   0  0  0  0  0  0  0  0  0  0  0  0
    1.6907   -2.4730    0.8252 S   0  0  0  0  0  0  0  0  0  0  0  0
    2.5925   -3.0717    0.0179 H   0  0  0  0  0  0  0  0  0  0  0  0
    0.1437    1.2250   -0.5004 C   0  0  0  0  0  0  0  0  0  0  0  0
    0.6473    1.2343   -1.6170 O   0  0  0  0  0  0  0  0  0  0  0  0
   -0.6291    2.3072   -0.1218 N   0  0  0  0  0  0  0  0  0  0  0  0
   -1.0381    2.2806    0.8092 H   0  0  0  0  0  0  0  0  0  0  0  0
   -0.8119    3.4975   -0.9444 C   0  0  0  0  0  0  0  0  0  0  0  0
   -1.2739    3.2353   -1.9021 H   0  0  0  0  0  0  0  0  0  0  0  0
   -1.4611    4.2151   -0.4332 H   0  0  0  0  0  0  0  0  0  0  0  0
    0.1514    3.9806   -1.1390 H   0  0  0  0  0  0  0  0  0  0  0  0
  1  2  1  0  0  0  0
  2  3  1  0  0  0  0
  2  4  1  0  0  0  0
  2  5  1  0  0  0  0
  5  6  2  0  0  0  0
  5  7  1  0  0  0  0
  7  8  1  0  0  0  0
  7  9  1  0  0  0  0
  9 10  1  0  0  0  0
  9 11  1  0  0  0  0
  9 16  1  0  0  0  0
 11 12  1  0  0  0  0
 11 13  1  0  0  0  0
 11 14  1  0  0  0  0
 14 15  1  0  0  0  0
 16 17  2  0  0  0  0
 16 18  1  0  0  0  0
 18 19  1  0  0  0  0
 18 20  1  0  0  0  0
 20 21  1  0  0  0  0
 20 22  1  0  0  0  0
 20 23  1  0  0  0  0
M  END
$$$$

  -OEChem-01062216073D

 23 22  0     1  0  0  0  0  0999 V2000
   -2.7248   -3.4772    1.1659 H   0  0  0  0  0  0  0  0  0  0  0  0
   -2.6179   -2.5309    0.6281 C   0  0  0  0  0  0  0  0  0  0  0  0
   -3.5450   -1.9613    0.7270 H   0  0  0  0  0  0  0  0  0  0  0  0
   -2.4388   -2.7474   -0.4277 H   0  0  0  0  0  0  0  0  0  0  0  0
   -1.4567   -1.7384    1.1974 C   0  0  0  0  0  0  0  0  0  0  0  0
   -0.9640   -2.0700    2.2607 O   0  0  0  0  0  0  0  0  0  0  0  0
   -1.1395   -0.5080    0.6620 N   0  0  0  0  0  0  0  0  0  0  0  0
   -1.7657   -0.2590   -0.0995 H   0  0  0  0  0  0  0  0  0  0  0  0
    0.2346    0.0151    0.4815 C   0  0  1  0  0  0  0  0  0  0  0  0
    0.6234    0.3385    1.4523 H   0  0  0  0  0  0  0  0  0  0  0  0
    1.2627   -0.9688   -0.1534 C   0  0  0  0  0  0  0  0  0  0  0  0
    0.8757   -1.3017   -1.1224 H   0  0  0  0  0  0  0  0  0  0  0  0
    2.1920   -0.4213   -0.3442 H   0  0  0  0  0  0  0  0  0  0  0  0
    1.6942   -2.4720    0.8150 S   0  0  0  0  0  0  0  0  0  0  0  0
    2.5864   -3.0674   -0.0052 H   0  0  0  0  0  0  0  0  0  0  0  0
    0.1533    1.2340   -0.4680 C   0  0  0  0  0  0  0  0  0  0  0  0
    0.3931    1.1530   -1.6666 O   0  0  0  0  0  0  0  0  0  0  0  0
   -0.3402    2.4266    0.0265 N   0  0  0  0  0  0  0  0  0  0  0  0
   -0.5936    2.4524    1.0110 H   0  0  0  0  0  0  0  0  0  0  0  0
   -0.5369    3.6202   -0.7878 C   0  0  0  0  0  0  0  0  0  0  0  0
   -1.2708    3.4291   -1.5778 H   0  0  0  0  0  0  0  0  0  0  0  0
   -0.9026    4.4445   -0.1679 H   0  0  0  0  0  0  0  0  0  0  0  0
    0.4065    3.9290   -1.2503 H   0  0  0  0  0  0  0  0  0  0  0  0
  1  2  1  0  0  0  0
  2  3  1  0  0  0  0
  2  4  1  0  0  0  0
  2  5  1  0  0  0  0
  5  6  2  0  0  0  0
  5  7  1  0  0  0  0
  7  8  1  0  0  0  0
  7  9  1  0  0  0  0
  9 10  1  0  0  0  0
  9 11  1  0  0  0  0
  9 16  1  0  0  0  0
 11 12  1  0  0  0  0
 11 13  1  0  0  0  0
 11 14  1  0  0  0  0
 14 15  1  0  0  0  0
 16 17  2  0  0  0  0
 16 18  1  0  0  0  0
 18 19  1  0  0  0  0
 18 20  1  0  0  0  0
 20 21  1  0  0  0  0
 20 22  1  0  0  0  0
 20 23  1  0  0  0  0
M  END
$$$$

  -OEChem-01062216073D

 23 22  0     1  0  0  0  0  0999 V2000
   -2.7387   -3.4707    1.1392 H   0  0  0  0  0  0  0  0  0  0  0  0
   -2.6312   -2.5138    0.6207 C   0  0  0  0  0  0  0  0  0  0  0  0
   -3.5526   -1.9396    0.7436 H   0  0  0  0  0  0  0  0  0  0  0  0
   -2.4669   -2.7082   -0.4418 H   0  0  0  0  0  0  0  0  0  0  0  0
   -1.4574   -1.7419    1.1924 C   0  0  0  0  0  0  0  0  0  0  0  0
   -0.9594   -2.0946    2.2466 O   0  0  0  0  0  0  0  0  0  0  0  0
   -1.1312   -0.5092    0.6685 N   0  0  0  0  0  0  0  0  0  0  0  0
   -1.7470   -0.2516   -0.0993 H   0  0  0  0  0  0  0  0  0  0  0  0
    0.2435    0.0142    0.5077 C   0  0  1  0  0  0  0  0  0  0  0  0
    0.6245    0.3237    1.4860 H   0  0  0  0  0  0  0  0  0  0  0  0
    1.2770   -0.9537   -0.1400 C   0  0  0  0  0  0  0  0  0  0  0  0
    0.8964   -1.2694   -1.1173 H   0  0  0  0  0  0  0  0  0  0  0  0
    2.2063   -0.4016   -0.3155 H   0  0  0  0  0  0  0  0  0  0  0  0
    1.7016   -2.4759    0.8007 S   0  0  0  0  0  0  0  0  0  0  0  0
    2.5658   -3.0775   -0.0447 H   0  0  0  0  0  0  0  0  0  0  0  0
    0.1754    1.2367   -0.4340 C   0  0  0  0  0  0  0  0  0  0  0  0
    0.1339    1.1051   -1.6514 O   0  0  0  0  0  0  0  0  0  0  0  0
   -0.0171    2.4947    0.1050 N   0  0  0  0  0  0  0  0  0  0  0  0
   -0.0922    2.5617    1.1168 H   0  0  0  0  0  0  0  0  0  0  0  0
   -0.2279    3.6922   -0.7003 C   0  0  0  0  0  0  0  0  0  0  0  0
   -1.1510    3.6049   -1.2831 H   0  0  0  0  0  0  0  0  0  0  0  0
   -0.3071    4.5730   -0.0556 H   0  0  0  0  0  0  0  0  0  0  0  0
    0.6105    3.8439   -1.3887 H   0  0  0  0  0  0  0  0  0  0  0  0
  1  2  1  0  0  0  0
  2  3  1  0  0  0  0
  2  4  1  0  0  0  0
  2  5  1  0  0  0  0
  5  6  2  0  0  0  0
  5  7  1  0  0  0  0
  7  8  1  0  0  0  0
  7  9  1  0  0  0  0
  9 10  1  0  0  0  0
  9 11  1  0  0  0  0
  9 16  1  0  0  0  0
 11 12  1  0  0  0  0
 11 13  1  0  0  0  0
 11 14  1  0  0  0  0
 14 15  1  0  0  0  0
 16 17  2  0  0  0  0
 16 18  1  0  0  0  0
 18 19  1  0  0  0  0
 18 20  1  0  0  0  0
 20 21  1  0  0  0  0
 20 22  1  0  0  0  0
 20 23  1  0  0  0  0
M  END
$$$$

  -OEChem-01062216073D

 23 22  0     1  0  0  0  0  0999 V2000
   -2.7716   -3.4550    1.1429 H   0  0  0  0  0  0  0  0  0  0  0  0
   -2.6473   -2.5018    0.6213 C   0  0  0  0  0  0  0  0  0  0  0  0
   -3.5588   -1.9114    0.7414 H   0  0  0  0  0  0  0  0  0  0  0  0
   -2.4862   -2.7022   -0.4407 H   0  0  0  0  0  0  0  0  0  0  0  0
   -1.4609   -1.7477    1.1911 C   0  0  0  0  0  0  0  0  0  0  0  0
   -0.9521   -2.1214    2.2331 O   0  0  0  0  0  0  0  0  0  0  0  0
   -1.1260   -0.5145    0.6742 N   0  0  0  0  0  0  0  0  0  0  0  0
   -1.7355   -0.2450   -0.0955 H   0  0  0  0  0  0  0  0  0  0  0  0
    0.2487    0.0108    0.5285 C   0  0  1  0  0  0  0  0  0  0  0  0
    0.6229    0.3099    1.5124 H   0  0  0  0  0  0  0  0  0  0  0  0
    1.2854   -0.9411   -0.1339 C   0  0  0  0  0  0  0  0  0  0  0  0
    0.9088   -1.2359   -1.1194 H   0  0  0  0  0  0  0  0  0  0  0  0
    2.2154   -0.3853   -0.2938 H   0  0  0  0  0  0  0  0  0  0  0  0
    1.7074   -2.4811    0.7785 S   0  0  0  0  0  0  0  0  0  0  0  0
    2.5752   -3.0667   -0.0741 H   0  0  0  0  0  0  0  0  0  0  0  0
    0.1910    1.2340   -0.4103 C   0  0  0  0  0  0  0  0  0  0  0  0
   -0.1131    1.0981   -1.5896 O   0  0  0  0  0  0  0  0  0  0  0  0
    0.3059    2.5097    0.1092 N   0  0  0  0  0  0  0  0  0  0  0  0
    0.4347    2.5959    1.1139 H   0  0  0  0  0  0  0  0  0  0  0  0
    0.1088    3.7186   -0.6823 C   0  0  0  0  0  0  0  0  0  0  0  0
   -0.9223    3.7740   -1.0471 H   0  0  0  0  0  0  0  0  0  0  0  0
    0.3095    4.6058   -0.0741 H   0  0  0  0  0  0  0  0  0  0  0  0
    0.7877    3.7304   -1.5417 H   0  0  0  0  0  0  0  0  0  0  0  0
  1  2  1  0  0  0  0
  2  3  1  0  0  0  0
  2  4  1  0  0  0  0
  2  5  1  0  0  0  0
  5  6  2  0  0  0  0
  5  7  1  0  0  0  0
  7  8  1  0  0  0  0
  7  9  1  0  0  0  0
  9 10  1  0  0  0  0
  9 11  1  0  0  0  0
  9 16  1  0  0  0  0
 11 12  1  0  0  0  0
 11 13  1  0  0  0  0
 11 14  1  0  0  0  0
 14 15  1  0  0  0  0
 16 17  2  0  0  0  0
 16 18  1  0  0  0  0
 18 19  1  0  0  0  0
 18 20  1  0  0  0  0
 20 21  1  0  0  0  0
 20 22  1  0  0  0  0
 20 23  1  0  0  0  0
M  END
$$$$

  -OEChem-01062216073D

 23 22  0     1  0  0  0  0  0999 V2000
   -2.7789   -3.4555    1.1393 H   0  0  0  0  0  0  0  0  0  0  0  0
   -2.6617   -2.4941    0.6316 C   0  0  0  0  0  0  0  0  0  0  0  0
   -3.5683   -1.9027    0.7805 H   0  0  0  0  0  0  0  0  0  0  0  0
   -2.5232   -2.6764   -0.4366 H   0  0  0  0  0  0  0  0  0  0  0  0
   -1.4613   -1.7541    1.1903 C   0  0  0  0  0  0  0  0  0  0  0  0
   -0.9403   -2.1418    2.2211 O   0  0  0  0  0  0  0  0  0  0  0  0
   -1.1216   -0.5212    0.6765 N   0  0  0  0  0  0  0  0  0  0  0  0
   -1.7277   -0.2407   -0.0930 H   0  0  0  0  0  0  0  0  0  0  0  0
    0.2513    0.0104    0.5444 C   0  0  1  0  0  0  0  0  0  0  0  0
    0.6181    0.3048    1.5324 H   0  0  0  0  0  0  0  0  0  0  0  0
    1.2908   -0.9274   -0.1307 C   0  0  0  0  0  0  0  0  0  0  0  0
    0.9162   -1.2032   -1.1225 H   0  0  0  0  0  0  0  0  0  0  0  0
    2.2209   -0.3681   -0.2772 H   0  0  0  0  0  0  0  0  0  0  0  0
    1.7140   -2.4823    0.7549 S   0  0  0  0  0  0  0  0  0  0  0  0
    2.5705   -3.0607   -0.1142 H   0  0  0  0  0  0  0  0  0  0  0  0
    0.1991    1.2314   -0.3954 C   0  0  0  0  0  0  0  0  0  0  0  0
   -0.3150    1.1291   -1.5035 O   0  0  0  0  0  0  0  0  0  0  0  0
    0.6046    2.4752    0.0505 N   0  0  0  0  0  0  0  0  0  0  0  0
    0.9224    2.5480    1.0132 H   0  0  0  0  0  0  0  0  0  0  0  0
    0.4531    3.6943   -0.7350 C   0  0  0  0  0  0  0  0  0  0  0  0
   -0.6059    3.9008   -0.9218 H   0  0  0  0  0  0  0  0  0  0  0  0
    0.8826    4.5460   -0.1988 H   0  0  0  0  0  0  0  0  0  0  0  0
    0.9683    3.5981   -1.6966 H   0  0  0  0  0  0  0  0  0  0  0  0
  1  2  1  0  0  0  0
  2  3  1  0  0  0  0
  2  4  1  0  0  0  0
  2  5  1  0  0  0  0
  5  6  2  0  0  0  0
  5  7  1  0  0  0  0
  7  8  1  0  0  0  0
  7  9  1  0  0  0  0
  9 10  1  0  0  0  0
  9 11  1  0  0  0  0
  9 16  1  0  0  0  0
 11 12  1  0  0  0  0
 11 13  1  0  0  0  0
 11 14  1  0  0  0  0
 14 15  1  0  0  0  0
 16 17  2  0  0  0  0
 16 18  1  0  0  0  0
 18 19  1  0  0  0  0
 18 20  1  0  0  0  0
 20 21  1  0  0  0  0
 20 22  1  0  0  0  0
 20 23  1  0  0  0  0
M  END
$$$$

  -OEChem-01062216073D

 23 22  0     1  0  0  0  0  0999 V2000
   -2.7914   -3.4598    1.1319 H   0  0  0  0  0  0  0  0  0  0  0  0
   -2.6799   -2.4877    0.6438 C   0  0  0  0  0  0  0  0  0  0  0  0
   -3.5782   -1.8941    0.8288 H   0  0  0  0  0  0  0  0  0  0  0  0
   -2.5689   -2.6457   -0.4315 H   0  0  0  0  0  0  0  0  0  0  0  0
   -1.4614   -1.7680    1.1895 C   0  0  0  0  0  0  0  0  0  0  0  0
   -0.9233   -2.1784    2.2026 O   0  0  0  0  0  0  0  0  0  0  0  0
   -1.1183   -0.5342    0.6803 N   0  0  0  0  0  0  0  0  0  0  0  0
   -1.7339   -0.2327   -0.0745 H   0  0  0  0  0  0  0  0  0  0  0  0
    0.2495    0.0114    0.5524 C   0  0  1  0  0  0  0  0  0  0  0  0
    0.6117    0.3061    1.5420 H   0  0  0  0  0  0  0  0  0  0  0  0
    1.2949   -0.9126   -0.1308 C   0  0  0  0  0  0  0  0  0  0  0  0
    0.9187   -1.1819   -1.1238 H   0  0  0  0  0  0  0  0  0  0  0  0
    2.2216   -0.3471   -0.2753 H   0  0  0  0  0  0  0  0  0  0  0  0
    1.7315   -2.4713    0.7415 S   0  0  0  0  0  0  0  0  0  0  0  0
    2.5912   -3.0379   -0.1317 H   0  0  0  0  0  0  0  0  0  0  0  0
    0.1954    1.2334   -0.3860 C   0  0  0  0  0  0  0  0  0  0  0  0
   -0.4949    1.1959   -1.3989 O   0  0  0  0  0  0  0  0  0  0  0  0
    0.8636    2.3988   -0.0602 N   0  0  0  0  0  0  0  0  0  0  0  0
    1.3572    2.4257    0.8279 H   0  0  0  0  0  0  0  0  0  0  0  0
    0.7834    3.6158   -0.8592 C   0  0  0  0  0  0  0  0  0  0  0  0
   -0.2469    3.9852   -0.8929 H   0  0  0  0  0  0  0  0  0  0  0  0
    1.4164    4.3959   -0.4253 H   0  0  0  0  0  0  0  0  0  0  0  0
    1.1236    3.4258   -1.8827 H   0  0  0  0  0  0  0  0  0  0  0  0
  1  2  1  0  0  0  0
  2  3  1  0  0  0  0
  2  4  1  0  0  0  0
  2  5  1  0  0  0  0
  5  6  2  0  0  0  0
  5  7  1  0  0  0  0
  7  8  1  0  0  0  0
  7  9  1  0  0  0  0
  9 10  1  0  0  0  0
  9 11  1  0  0  0  0
  9 16  1  0  0  0  0
 11 12  1  0  0  0  0
 11 13  1  0  0  0  0
 11 14  1  0  0  0  0
 14 15  1  0  0  0  0
 16 17  2  0  0  0  0
 16 18  1  0  0  0  0
 18 19  1  0  0  0  0
 18 20  1  0  0  0  0
 20 21  1  0  0  0  0
 20 22  1  0  0  0  0
 20 23  1  0  0  0  0
M  END
$$$$

  -OEChem-01062216073D

 23 22  0     1  0  0  0  0  0999 V2000
   -2.8049   -3.4576    1.1270 H   0  0  0  0  0  0  0  0  0  0  0  0
   -2.6953   -2.4772    0.6551 C   0  0  0  0  0  0  0  0  0  0  0  0
   -3.5819   -1.8776    0.8751 H   0  0  0  0  0  0  0  0  0  0  0  0
   -2.6139   -2.6151   -0.4257 H   0  0  0  0  0  0  0  0  0  0  0  0
   -1.4556   -1.7809    1.1831 C   0  0  0  0  0  0  0  0  0  0  0  0
   -0.9046   -2.2113    2.1808 O   0  0  0  0  0  0  0  0  0  0  0  0
   -1.1072   -0.5463    0.6789 N   0  0  0  0  0  0  0  0  0  0  0  0
   -1.7336   -0.2207   -0.0576 H   0  0  0  0  0  0  0  0  0  0  0  0
    0.2561    0.0130    0.5582 C   0  0  1  0  0  0  0  0  0  0  0  0
    0.6131    0.3091    1.5494 H   0  0  0  0  0  0  0  0  0  0  0  0
    1.3054   -0.9038   -0.1302 C   0  0  0  0  0  0  0  0  0  0  0  0
    0.9286   -1.1666   -1.1249 H   0  0  0  0  0  0  0  0  0  0  0  0
    2.2312   -0.3365   -0.2715 H   0  0  0  0  0  0  0  0  0  0  0  0
    1.7506   -2.4667    0.7302 S   0  0  0  0  0  0  0  0  0  0  0  0
    2.5975   -3.0336   -0.1555 H   0  0  0  0  0  0  0  0  0  0  0  0
    0.2013    1.2371   -0.3801 C   0  0  0  0  0  0  0  0  0  0  0  0
   -0.6356    1.2870   -1.2757 O   0  0  0  0  0  0  0  0  0  0  0  0
    1.0874    2.2865   -0.2197 N   0  0  0  0  0  0  0  0  0  0  0  0
    1.7260    2.2475    0.5701 H   0  0  0  0  0  0  0  0  0  0  0  0
    1.0540    3.4914   -1.0405 C   0  0  0  0  0  0  0  0  0  0  0  0
    0.0984    4.0122   -0.9191 H   0  0  0  0  0  0  0  0  0  0  0  0
    1.8584    4.1724   -0.7464 H   0  0  0  0  0  0  0  0  0  0  0  0
    1.1856    3.2391   -2.0981 H   0  0  0  0  0  0  0  0  0  0  0  0
  1  2  1  0  0  0  0
  2  3  1  0  0  0  0
  2  4  1  0  0  0  0
  2  5  1  0  0  0  0
  5  6  2  0  0  0  0
  5  7  1  0  0  0  0
  7  8  1  0  0  0  0
  7  9  1  0  0  0  0
  9 10  1  0  0  0  0
  9 11  1  0  0  0  0
  9 16  1  0  0  0  0
 11 12  1  0  0  0  0
 11 13  1  0  0  0  0
 11 14  1  0  0  0  0
 14 15  1  0  0  0  0
 16 17  2  0  0  0  0
 16 18  1  0  0  0  0
 18 19  1  0  0  0  0
 18 20  1  0  0  0  0
 20 21  1  0  0  0  0
 20 22  1  0  0  0  0
 20 23  1  0  0  0  0
M  END
$$$$

  -OEChem-01062216073D

 23 22  0     1  0  0  0  0  0999 V2000
   -2.8383   -3.4371    1.1342 H   0  0  0  0  0  0  0  0  0  0  0  0
   -2.7118   -2.4592    0.6614 C   0  0  0  0  0  0  0  0  0  0  0  0
   -3.5808   -1.8388    0.8935 H   0  0  0  0  0  0  0  0  0  0  0  0
   -2.6488   -2.5984   -0.4203 H   0  0  0  0  0  0  0  0  0  0  0  0
   -1.4481   -1.7938    1.1723 C   0  0  0  0  0  0  0  0  0  0  0  0
   -0.8849   -2.2513    2.1505 O   0  0  0  0  0  0  0  0  0  0  0  0
   -1.0884   -0.5586    0.6776 N   0  0  0  0  0  0  0  0  0  0  0  0
   -1.7318   -0.1957   -0.0264 H   0  0  0  0  0  0  0  0  0  0  0  0
    0.2720    0.0106    0.5605 C   0  0  1  0  0  0  0  0  0  0  0  0
    0.6279    0.3058    1.5523 H   0  0  0  0  0  0  0  0  0  0  0  0
    1.3212   -0.9074   -0.1313 C   0  0  0  0  0  0  0  0  0  0  0  0
    0.9411   -1.1684   -1.1250 H   0  0  0  0  0  0  0  0  0  0  0  0
    2.2493   -0.3451   -0.2749 H   0  0  0  0  0  0  0  0  0  0  0  0
    1.7713   -2.4723    0.7223 S   0  0  0  0  0  0  0  0  0  0  0  0
    2.6142   -3.0368   -0.1687 H   0  0  0  0  0  0  0  0  0  0  0  0
    0.2120    1.2412   -0.3741 C   0  0  0  0  0  0  0  0  0  0  0  0
   -0.7460    1.3989   -1.1247 O   0  0  0  0  0  0  0  0  0  0  0  0
    1.2578    2.1461   -0.4212 N   0  0  0  0  0  0  0  0  0  0  0  0
    2.0080    2.0329    0.2551 H   0  0  0  0  0  0  0  0  0  0  0  0
    1.2503    3.3313   -1.2711 C   0  0  0  0  0  0  0  0  0  0  0  0
    0.4255    3.9965   -0.9946 H   0  0  0  0  0  0  0  0  0  0  0  0
    2.1900    3.8812   -1.1619 H   0  0  0  0  0  0  0  0  0  0  0  0
    1.1373    3.0485   -2.3231 H   0  0  0  0  0  0  0  0  0  0  0  0
  1  2  1  0  0  0  0
  2  3  1  0  0  0  0
  2  4  1  0  0  0  0
  2  5  1  0  0  0  0
  5  6  2  0  0  0  0
  5  7  1  0  0  0  0
  7  8  1  0  0  0  0
  7  9  1  0  0  0  0
  9 10  1  0  0  0  0
  9 11  1  0  0  0  0
  9 16  1  0  0  0  0
 11 12  1  0  0  0  0
 11 13  1  0  0  0  0
 11 14  1  0  0  0  0
 14 15  1  0  0  0  0
 16 17  2  0  0  0  0
 16 18  1  0  0  0  0
 18 19  1  0  0  0  0
 18 20  1  0  0  0  0
 20 21  1  0  0  0  0
 20 22  1  0  0  0  0
 20 23  1  0  0  0  0
M  END
$$$$
