default_name
  -OEChem-01062215323D

 23 22  0     1  0  0  0  0  0999 V2000
   -2.6857   -3.6684    0.8743 H   0  0  0  0  0  0  0  0  0  0  0  0
   -2.6617   -2.6474    0.4953 C   0  0  0  0  0  0  0  0  0  0  0  0
   -3.2657   -2.0054    1.1353 H   0  0  0  0  0  0  0  0  0  0  0  0
   -3.0477   -2.6254   -0.5217 H   0  0  0  0  0  0  0  0  0  0  0  0
   -1.2337   -2.1564    0.4993 C   0  0  0  0  0  0  0  0  0  0  0  0
   -0.3327   -2.8864    0.8893 O   0  0  0  0  0  0  0  0  0  0  0  0
   -1.0277   -0.9164    0.0623 N   0  0  0  0  0  0  0  0  0  0  0  0
   -1.8237   -0.3604   -0.2157 H   0  0  0  0  0  0  0  0  0  0  0  0
    0.2713   -0.2414    0.0463 C   0  0  1  0  0  0  0  0  0  0  0  0
    0.6353   -0.1559    1.0721 H   0  0  0  0  0  0  0  0  0  0  0  0
    1.2616   -1.1070   -0.7501 C   0  0  0  0  0  0  0  0  0  0  0  0
    0.8404   -1.3070   -1.7379 H   0  0  0  0  0  0  0  0  0  0  0  0
    2.2019   -0.5656   -0.8722 H   0  0  0  0  0  0  0  0  0  0  0  0
    1.5659   -2.6927    0.0831 S   0  0  0  0  0  0  0  0  0  0  0  0
    2.3301   -3.2372   -0.8715 H   0  0  0  0  0  0  0  0  0  0  0  0
    0.1223    1.1824   -0.5276 C   0  0  0  0  0  0  0  0  0  0  0  0
   -0.9847    1.5884   -0.8829 O   0  0  0  0  0  0  0  0  0  0  0  0
    1.2225    1.9392   -0.6121 N   0  0  0  0  0  0  0  0  0  0  0  0
    2.1007    1.5096   -0.3594 H   0  0  0  0  0  0  0  0  0  0  0  0
    1.2450    3.3081   -1.1242 C   0  0  0  0  0  0  0  0  0  0  0  0
    0.4671    3.8987   -0.6349 H   0  0  0  0  0  0  0  0  0  0  0  0
    2.2165    3.7660   -0.9343 H   0  0  0  0  0  0  0  0  0  0  0  0
    1.0529    3.3008   -2.1985 H   0  0  0  0  0  0  0  0  0  0  0  0
  5  6  2  0  0  0  0
  5  7  1  0  0  0  0
  2  3  1  0  0  0  0
  2  4  1  0  0  0  0
  2  5  1  0  0  0  0
  1  2  1  0  0  0  0
 16 17  2  0  0  0  0
 16 18  1  0  0  0  0
 14 15  1  0  0  0  0
 11 12  1  0  0  0  0
 11 13  1  0  0  0  0
 11 14  1  0  0  0  0
  9 10  1  0  0  0  0
  9 11  1  0  0  0  0
  9 16  1  0  0  0  0
  7  8  1  0  0  0  0
  7  9  1  0  0  0  0
 20 21  1  0  0  0  0
 20 22  1  0  0  0  0
 20 23  1  0  0  0  0
 18 19  1  0  0  0  0
 18 20  1  0  0  0  0
M  END
$$$$
default_name
  -OEChem-01062215323D

 23 22  0     1  0  0  0  0  0999 V2000
   -2.6857   -3.6684    0.8743 H   0  0  0  0  0  0  0  0  0  0  0  0
   -2.6617   -2.6474    0.4953 C   0  0  0  0  0  0  0  0  0  0  0  0
   -3.2657   -2.0054    1.1353 H   0  0  0  0  0  0  0  0  0  0  0  0
   -3.0477   -2.6254   -0.5217 H   0  0  0  0  0  0  0  0  0  0  0  0
   -1.2337   -2.1564    0.4993 C   0  0  0  0  0  0  0  0  0  0  0  0
   -0.3327   -2.8864    0.8893 O   0  0  0  0  0  0  0  0  0  0  0  0
   -1.0277   -0.9164    0.0623 N   0  0  0  0  0  0  0  0  0  0  0  0
   -1.8237   -0.3604   -0.2157 H   0  0  0  0  0  0  0  0  0  0  0  0
    0.2713   -0.2414    0.0463 C   0  0  1  0  0  0  0  0  0  0  0  0
    0.6353   -0.1559    1.0721 H   0  0  0  0  0  0  0  0  0  0  0  0
    1.2616   -1.1070   -0.7501 C   0  0  0  0  0  0  0  0  0  0  0  0
    0.8404   -1.3070   -1.7379 H   0  0  0  0  0  0  0  0  0  0  0  0
    2.2019   -0.5656   -0.8722 H   0  0  0  0  0  0  0  0  0  0  0  0
    1.5659   -2.6927    0.0831 S   0  0  0  0  0  0  0  0  0  0  0  0
    2.3301   -3.2372   -0.8715 H   0  0  0  0  0  0  0  0  0  0  0  0
    0.1223    1.1824   -0.5276 C   0  0  0  0  0  0  0  0  0  0  0  0
   -0.9948    1.6916   -0.6243 O   0  0  0  0  0  0  0  0  0  0  0  0
    1.2356    1.8249   -0.8989 N   0  0  0  0  0  0  0  0  0  0  0  0
    2.1048    1.3136   -0.8467 H   0  0  0  0  0  0  0  0  0  0  0  0
    1.2620    3.1780   -1.4516 C   0  0  0  0  0  0  0  0  0  0  0  0
    0.6830    3.8493   -0.8134 H   0  0  0  0  0  0  0  0  0  0  0  0
    2.2890    3.5395   -1.5151 H   0  0  0  0  0  0  0  0  0  0  0  0
    0.8178    3.1754   -2.4484 H   0  0  0  0  0  0  0  0  0  0  0  0
  5  6  2  0  0  0  0
  5  7  1  0  0  0  0
  2  3  1  0  0  0  0
  2  4  1  0  0  0  0
  2  5  1  0  0  0  0
  1  2  1  0  0  0  0
 16 17  2  0  0  0  0
 16 18  1  0  0  0  0
 14 15  1  0  0  0  0
 11 12  1  0  0  0  0
 11 13  1  0  0  0  0
 11 14  1  0  0  0  0
  9 10  1  0  0  0  0
  9 11  1  0  0  0  0
  9 16  1  0  0  0  0
  7  8  1  0  0  0  0
  7  9  1  0  0  0  0
 20 21  1  0  0  0  0
 20 22  1  0  0  0  0
 20 23  1  0  0  0  0
 18 19  1  0  0  0  0
 18 20  1  0  0  0  0
M  END
$$$$
default_name
  -OEChem-01062215323D

 23 22  0     1  0  0  0  0  0999 V2000
   -2.6857   -3.6684    0.8743 H   0  0  0  0  0  0  0  0  0  0  0  0
   -2.6617   -2.6474    0.4953 C   0  0  0  0  0  0  0  0  0  0  0  0
   -3.2657   -2.0054    1.1353 H   0  0  0  0  0  0  0  0  0  0  0  0
   -3.0477   -2.6254   -0.5217 H   0  0  0  0  0  0  0  0  0  0  0  0
   -1.2337   -2.1564    0.4993 C   0  0  0  0  0  0  0  0  0  0  0  0
   -0.3327   -2.8864    0.8893 O   0  0  0  0  0  0  0  0  0  0  0  0
   -1.0277   -0.9164    0.0623 N   0  0  0  0  0  0  0  0  0  0  0  0
   -1.8237   -0.3604   -0.2157 H   0  0  0  0  0  0  0  0  0  0  0  0
    0.2713   -0.2414    0.0463 C   0  0  1  0  0  0  0  0  0  0  0  0
    0.6353   -0.1559    1.0721 H   0  0  0  0  0  0  0  0  0  0  0  0
    1.2616   -1.1070   -0.7501 C   0  0  0  0  0  0  0  0  0  0  0  0
    0.8404   -1.3070   -1.7379 H   0  0  0  0  0  0  0  0  0  0  0  0
    2.2019   -0.5656   -0.8722 H   0  0  0  0  0  0  0  0  0  0  0  0
    1.5659   -2.6927    0.0831 S   0  0  0  0  0  0  0  0  0  0  0  0
    2.3301   -3.2372   -0.8715 H   0  0  0  0  0  0  0  0  0  0  0  0
    0.1223    1.1824   -0.5276 C   0  0  0  0  0  0  0  0  0  0  0  0
   -0.9328    1.7987   -0.3746 O   0  0  0  0  0  0  0  0  0  0  0  0
    1.1688    1.7062   -1.1763 N   0  0  0  0  0  0  0  0  0  0  0  0
    1.9735    1.1118   -1.3134 H   0  0  0  0  0  0  0  0  0  0  0  0
    1.1877    3.0424   -1.7687 C   0  0  0  0  0  0  0  0  0  0  0  0
    0.8442    3.7764   -1.0363 H   0  0  0  0  0  0  0  0  0  0  0  0
    2.1986    3.2992   -2.0877 H   0  0  0  0  0  0  0  0  0  0  0  0
    0.5188    3.0707   -2.6305 H   0  0  0  0  0  0  0  0  0  0  0  0
  5  6  2  0  0  0  0
  5  7  1  0  0  0  0
  2  3  1  0  0  0  0
  2  4  1  0  0  0  0
  2  5  1  0  0  0  0
  1  2  1  0  0  0  0
 16 17  2  0  0  0  0
 16 18  1  0  0  0  0
 14 15  1  0  0  0  0
 11 12  1  0  0  0  0
 11 13  1  0  0  0  0
 11 14  1  0  0  0  0
  9 10  1  0  0  0  0
  9 11  1  0  0  0  0
  9 16  1  0  0  0  0
  7  8  1  0  0  0  0
  7  9  1  0  0  0  0
 20 21  1  0  0  0  0
 20 22  1  0  0  0  0
 20 23  1  0  0  0  0
 18 19  1  0  0  0  0
 18 20  1  0  0  0  0
M  END
$$$$
default_name
  -OEChem-01062215323D

 23 22  0     1  0  0  0  0  0999 V2000
   -2.6857   -3.6684    0.8743 H   0  0  0  0  0  0  0  0  0  0  0  0
   -2.6617   -2.6474    0.4953 C   0  0  0  0  0  0  0  0  0  0  0  0
   -3.2657   -2.0054    1.1353 H   0  0  0  0  0  0  0  0  0  0  0  0
   -3.0477   -2.6254   -0.5217 H   0  0  0  0  0  0  0  0  0  0  0  0
   -1.2337   -2.1564    0.4993 C   0  0  0  0  0  0  0  0  0  0  0  0
   -0.3327   -2.8864    0.8893 O   0  0  0  0  0  0  0  0  0  0  0  0
   -1.0277   -0.9164    0.0623 N   0  0  0  0  0  0  0  0  0  0  0  0
   -1.8237   -0.3604   -0.2157 H   0  0  0  0  0  0  0  0  0  0  0  0
    0.2713   -0.2414    0.0463 C   0  0  1  0  0  0  0  0  0  0  0  0
    0.6353   -0.1559    1.0721 H   0  0  0  0  0  0  0  0  0  0  0  0
    1.2616   -1.1070   -0.7501 C   0  0  0  0  0  0  0  0  0  0  0  0
    0.8404   -1.3070   -1.7379 H   0  0  0  0  0  0  0  0  0  0  0  0
    2.2019   -0.5656   -0.8722 H   0  0  0  0  0  0  0  0  0  0  0  0
    1.5659   -2.6927    0.0831 S   0  0  0  0  0  0  0  0  0  0  0  0
    2.3301   -3.2372   -0.8715 H   0  0  0  0  0  0  0  0  0  0  0  0
    0.1223    1.1824   -0.5276 C   0  0  0  0  0  0  0  0  0  0  0  0
   -0.8030    1.9025   -0.1509 O   0  0  0  0  0  0  0  0  0  0  0  0
    1.0265    1.5909   -1.4252 N   0  0  0  0  0  0  0  0  0  0  0  0
    1.7157    0.9178   -1.7278 H   0  0  0  0  0  0  0  0  0  0  0  0
    1.0272    2.9107   -2.0538 C   0  0  0  0  0  0  0  0  0  0  0  0
    0.9395    3.6848   -1.2882 H   0  0  0  0  0  0  0  0  0  0  0  0
    1.9512    3.0615   -2.6131 H   0  0  0  0  0  0  0  0  0  0  0  0
    0.1765    2.9938   -2.7324 H   0  0  0  0  0  0  0  0  0  0  0  0
  5  6  2  0  0  0  0
  5  7  1  0  0  0  0
  2  3  1  0  0  0  0
  2  4  1  0  0  0  0
  2  5  1  0  0  0  0
  1  2  1  0  0  0  0
 16 17  2  0  0  0  0
 16 18  1  0  0  0  0
 14 15  1  0  0  0  0
 11 12  1  0  0  0  0
 11 13  1  0  0  0  0
 11 14  1  0  0  0  0
  9 10  1  0  0  0  0
  9 11  1  0  0  0  0
  9 16  1  0  0  0  0
  7  8  1  0  0  0  0
  7  9  1  0  0  0  0
 20 21  1  0  0  0  0
 20 22  1  0  0  0  0
 20 23  1  0  0  0  0
 18 19  1  0  0  0  0
 18 20  1  0  0  0  0
M  END
$$$$
default_name
  -OEChem-01062215323D

 23 22  0     1  0  0  0  0  0999 V2000
   -2.6857   -3.6684    0.8743 H   0  0  0  0  0  0  0  0  0  0  0  0
   -2.6617   -2.6474    0.4953 C   0  0  0  0  0  0  0  0  0  0  0  0
   -3.2657   -2.0054    1.1353 H   0  0  0  0  0  0  0  0  0  0  0  0
   -3.0477   -2.6254   -0.5217 H   0  0  0  0  0  0  0  0  0  0  0  0
   -1.2337   -2.1564    0.4993 C   0  0  0  0  0  0  0  0  0  0  0  0
   -0.3327   -2.8864    0.8893 O   0  0  0  0  0  0  0  0  0  0  0  0
   -1.0277   -0.9164    0.0623 N   0  0  0  0  0  0  0  0  0  0  0  0
   -1.8237   -0.3604   -0.2157 H   0  0  0  0  0  0  0  0  0  0  0  0
    0.2713   -0.2414    0.0463 C   0  0  1  0  0  0  0  0  0  0  0  0
    0.6353   -0.1559    1.0721 H   0  0  0  0  0  0  0  0  0  0  0  0
    1.2616   -1.1070   -0.7501 C   0  0  0  0  0  0  0  0  0  0  0  0
    0.8404   -1.3070   -1.7379 H   0  0  0  0  0  0  0  0  0  0  0  0
    2.2019   -0.5656   -0.8722 H   0  0  0  0  0  0  0  0  0  0  0  0
    1.5659   -2.6927    0.0831 S   0  0  0  0  0  0  0  0  0  0  0  0
    2.3301   -3.2372   -0.8715 H   0  0  0  0  0  0  0  0  0  0  0  0
    0.1223    1.1824   -0.5276 C   0  0  0  0  0  0  0  0  0  0  0  0
   -0.6142    1.9958    0.0315 O   0  0  0  0  0  0  0  0  0  0  0  0
    0.8185    1.4871   -1.6288 N   0  0  0  0  0  0  0  0  0  0  0  0
    1.3490    0.7448   -2.0616 H   0  0  0  0  0  0  0  0  0  0  0  0
    0.7913    2.7917   -2.2876 C   0  0  0  0  0  0  0  0  0  0  0  0
    0.9627    3.5809   -1.5520 H   0  0  0  0  0  0  0  0  0  0  0  0
    1.5639    2.8426   -3.0557 H   0  0  0  0  0  0  0  0  0  0  0  0
   -0.1859    2.9500   -2.7471 H   0  0  0  0  0  0  0  0  0  0  0  0
  5  6  2  0  0  0  0
  5  7  1  0  0  0  0
  2  3  1  0  0  0  0
  2  4  1  0  0  0  0
  2  5  1  0  0  0  0
  1  2  1  0  0  0  0
 16 17  2  0  0  0  0
 16 18  1  0  0  0  0
 14 15  1  0  0  0  0
 11 12  1  0  0  0  0
 11 13  1  0  0  0  0
 11 14  1  0  0  0  0
  9 10  1  0  0  0  0
  9 11  1  0  0  0  0
  9 16  1  0  0  0  0
  7  8  1  0  0  0  0
  7  9  1  0  0  0  0
 20 21  1  0  0  0  0
 20 22  1  0  0  0  0
 20 23  1  0  0  0  0
 18 19  1  0  0  0  0
 18 20  1  0  0  0  0
M  END
$$$$
default_name
  -OEChem-01062215323D

 23 22  0     1  0  0  0  0  0999 V2000
   -2.6857   -3.6684    0.8743 H   0  0  0  0  0  0  0  0  0  0  0  0
   -2.6617   -2.6474    0.4953 C   0  0  0  0  0  0  0  0  0  0  0  0
   -3.2657   -2.0054    1.1353 H   0  0  0  0  0  0  0  0  0  0  0  0
   -3.0477   -2.6254   -0.5217 H   0  0  0  0  0  0  0  0  0  0  0  0
   -1.2337   -2.1564    0.4993 C   0  0  0  0  0  0  0  0  0  0  0  0
   -0.3327   -2.8864    0.8893 O   0  0  0  0  0  0  0  0  0  0  0  0
   -1.0277   -0.9164    0.0623 N   0  0  0  0  0  0  0  0  0  0  0  0
   -1.8237   -0.3604   -0.2157 H   0  0  0  0  0  0  0  0  0  0  0  0
    0.2713   -0.2414    0.0463 C   0  0  1  0  0  0  0  0  0  0  0  0
    0.6353   -0.1559    1.0721 H   0  0  0  0  0  0  0  0  0  0  0  0
    1.2616   -1.1070   -0.7501 C   0  0  0  0  0  0  0  0  0  0  0  0
    0.8404   -1.3070   -1.7379 H   0  0  0  0  0  0  0  0  0  0  0  0
    2.2019   -0.5656   -0.8722 H   0  0  0  0  0  0  0  0  0  0  0  0
    1.5659   -2.6927    0.0831 S   0  0  0  0  0  0  0  0  0  0  0  0
    2.3301   -3.2372   -0.8715 H   0  0  0  0  0  0  0  0  0  0  0  0
    0.1223    1.1824   -0.5276 C   0  0  0  0  0  0  0  0  0  0  0  0
   -0.3792    2.0723    0.1603 O   0  0  0  0  0  0  0  0  0  0  0  0
    0.5590    1.4017   -1.7732 N   0  0  0  0  0  0  0  0  0  0  0  0
    0.8984    0.6048   -2.2921 H   0  0  0  0  0  0  0  0  0  0  0  0
    0.4961    2.6937   -2.4540 C   0  0  0  0  0  0  0  0  0  0  0  0
    0.9120    3.4717   -1.8098 H   0  0  0  0  0  0  0  0  0  0  0  0
    1.0629    2.6574   -3.3851 H   0  0  0  0  0  0  0  0  0  0  0  0
   -0.5437    2.9421   -2.6736 H   0  0  0  0  0  0  0  0  0  0  0  0
  5  6  2  0  0  0  0
  5  7  1  0  0  0  0
  2  3  1  0  0  0  0
  2  4  1  0  0  0  0
  2  5  1  0  0  0  0
  1  2  1  0  0  0  0
 16 17  2  0  0  0  0
 16 18  1  0  0  0  0
 14 15  1  0  0  0  0
 11 12  1  0  0  0  0
 11 13  1  0  0  0  0
 11 14  1  0  0  0  0
  9 10  1  0  0  0  0
  9 11  1  0  0  0  0
  9 16  1  0  0  0  0
  7  8  1  0  0  0  0
  7  9  1  0  0  0  0
 20 21  1  0  0  0  0
 20 22  1  0  0  0  0
 20 23  1  0  0  0  0
 18 19  1  0  0  0  0
 18 20  1  0  0  0  0
M  END
$$$$
default_name
  -OEChem-01062215323D

 23 22  0     1  0  0  0  0  0999 V2000
   -2.6857   -3.6684    0.8743 H   0  0  0  0  0  0  0  0  0  0  0  0
   -2.6617   -2.6474    0.4953 C   0  0  0  0  0  0  0  0  0  0  0  0
   -3.2657   -2.0054    1.1353 H   0  0  0  0  0  0  0  0  0  0  0  0
   -3.0477   -2.6254   -0.5217 H   0  0  0  0  0  0  0  0  0  0  0  0
   -1.2337   -2.1564    0.4993 C   0  0  0  0  0  0  0  0  0  0  0  0
   -0.3327   -2.8864    0.8893 O   0  0  0  0  0  0  0  0  0  0  0  0
   -1.0277   -0.9164    0.0623 N   0  0  0  0  0  0  0  0  0  0  0  0
   -1.8237   -0.3604   -0.2157 H   0  0  0  0  0  0  0  0  0  0  0  0
    0.2713   -0.2414    0.0463 C   0  0  1  0  0  0  0  0  0  0  0  0
    0.6353   -0.1559    1.0721 H   0  0  0  0  0  0  0  0  0  0  0  0
    1.2616   -1.1070   -0.7501 C   0  0  0  0  0  0  0  0  0  0  0  0
    0.8404   -1.3070   -1.7379 H   0  0  0  0  0  0  0  0  0  0  0  0
    2.2019   -0.5656   -0.8722 H   0  0  0  0  0  0  0  0  0  0  0  0
    1.5659   -2.6927    0.0831 S   0  0  0  0  0  0  0  0  0  0  0  0
    2.3301   -3.2372   -0.8715 H   0  0  0  0  0  0  0  0  0  0  0  0
    0.1223    1.1824   -0.5276 C   0  0  0  0  0  0  0  0  0  0  0  0
   -0.1141    2.1268    0.2266 O   0  0  0  0  0  0  0  0  0  0  0  0
    0.2655    1.3407   -1.8485 N   0  0  0  0  0  0  0  0  0  0  0  0
    0.3946    0.5071   -2.4036 H   0  0  0  0  0  0  0  0  0  0  0  0
    0.1618    2.6234   -2.5418 C   0  0  0  0  0  0  0  0  0  0  0  0
    0.7909    3.3647   -2.0439 H   0  0  0  0  0  0  0  0  0  0  0  0
    0.4825    2.5185   -3.5790 H   0  0  0  0  0  0  0  0  0  0  0  0
   -0.8724    2.9709   -2.5169 H   0  0  0  0  0  0  0  0  0  0  0  0
  5  6  2  0  0  0  0
  5  7  1  0  0  0  0
  2  3  1  0  0  0  0
  2  4  1  0  0  0  0
  2  5  1  0  0  0  0
  1  2  1  0  0  0  0
 16 17  2  0  0  0  0
 16 18  1  0  0  0  0
 14 15  1  0  0  0  0
 11 12  1  0  0  0  0
 11 13  1  0  0  0  0
 11 14  1  0  0  0  0
  9 10  1  0  0  0  0
  9 11  1  0  0  0  0
  9 16  1  0  0  0  0
  7  8  1  0  0  0  0
  7  9  1  0  0  0  0
 20 21  1  0  0  0  0
 20 22  1  0  0  0  0
 20 23  1  0  0  0  0
 18 19  1  0  0  0  0
 18 20  1  0  0  0  0
M  END
$$$$
default_name
  -OEChem-01062215323D

 23 22  0     1  0  0  0  0  0999 V2000
   -2.6857   -3.6684    0.8743 H   0  0  0  0  0  0  0  0  0  0  0  0
   -2.6617   -2.6474    0.4953 C   0  0  0  0  0  0  0  0  0  0  0  0
   -3.2657   -2.0054    1.1353 H   0  0  0  0  0  0  0  0  0  0  0  0
   -3.0477   -2.6254   -0.5217 H   0  0  0  0  0  0  0  0  0  0  0  0
   -1.2337   -2.1564    0.4993 C   0  0  0  0  0  0  0  0  0  0  0  0
   -0.3327   -2.8864    0.8893 O   0  0  0  0  0  0  0  0  0  0  0  0
   -1.0277   -0.9164    0.0623 N   0  0  0  0  0  0  0  0  0  0  0  0
   -1.8237   -0.3604   -0.2157 H   0  0  0  0  0  0  0  0  0  0  0  0
    0.2713   -0.2414    0.0463 C   0  0  1  0  0  0  0  0  0  0  0  0
    0.6353   -0.1559    1.0721 H   0  0  0  0  0  0  0  0  0  0  0  0
    1.2616   -1.1070   -0.7501 C   0  0  0  0  0  0  0  0  0  0  0  0
    0.8404   -1.3070   -1.7379 H   0  0  0  0  0  0  0  0  0  0  0  0
    2.2019   -0.5656   -0.8722 H   0  0  0  0  0  0  0  0  0  0  0  0
    1.5659   -2.6927    0.0831 S   0  0  0  0  0  0  0  0  0  0  0  0
    2.3301   -3.2372   -0.8715 H   0  0  0  0  0  0  0  0  0  0  0  0
    0.1223    1.1824   -0.5276 C   0  0  0  0  0  0  0  0  0  0  0  0
    0.1631    2.1555    0.2260 O   0  0  0  0  0  0  0  0  0  0  0  0
   -0.0418    1.3080   -1.8496 N   0  0  0  0  0  0  0  0  0  0  0  0
   -0.1281    0.4585   -2.3884 H   0  0  0  0  0  0  0  0  0  0  0  0
   -0.1889    2.5854   -2.5450 C   0  0  0  0  0  0  0  0  0  0  0  0
    0.6077    3.2671   -2.2385 H   0  0  0  0  0  0  0  0  0  0  0  0
   -0.1379    2.4354   -3.6241 H   0  0  0  0  0  0  0  0  0  0  0  0
   -1.1498    3.0342   -2.2877 H   0  0  0  0  0  0  0  0  0  0  0  0
  5  6  2  0  0  0  0
  5  7  1  0  0  0  0
  2  3  1  0  0  0  0
  2  4  1  0  0  0  0
  2  5  1  0  0  0  0
  1  2  1  0  0  0  0
 16 17  2  0  0  0  0
 16 18  1  0  0  0  0
 14 15  1  0  0  0  0
 11 12  1  0  0  0  0
 11 13  1  0  0  0  0
 11 14  1  0  0  0  0
  9 10  1  0  0  0  0
  9 11  1  0  0  0  0
  9 16  1  0  0  0  0
  7  8  1  0  0  0  0
  7  9  1  0  0  0  0
 20 21  1  0  0  0  0
 20 22  1  0  0  0  0
 20 23  1  0  0  0  0
 18 19  1  0  0  0  0
 18 20  1  0  0  0  0
M  END
$$$$
default_name
  -OEChem-01062215323D

 23 22  0     1  0  0  0  0  0999 V2000
   -2.6857   -3.6684    0.8743 H   0  0  0  0  0  0  0  0  0  0  0  0
   -2.6617   -2.6474    0.4953 C   0  0  0  0  0  0  0  0  0  0  0  0
   -3.2657   -2.0054    1.1353 H   0  0  0  0  0  0  0  0  0  0  0  0
   -3.0477   -2.6254   -0.5217 H   0  0  0  0  0  0  0  0  0  0  0  0
   -1.2337   -2.1564    0.4993 C   0  0  0  0  0  0  0  0  0  0  0  0
   -0.3327   -2.8864    0.8893 O   0  0  0  0  0  0  0  0  0  0  0  0
   -1.0277   -0.9164    0.0623 N   0  0  0  0  0  0  0  0  0  0  0  0
   -1.8237   -0.3604   -0.2157 H   0  0  0  0  0  0  0  0  0  0  0  0
    0.2713   -0.2414    0.0463 C   0  0  1  0  0  0  0  0  0  0  0  0
    0.6353   -0.1559    1.0721 H   0  0  0  0  0  0  0  0  0  0  0  0
    1.2616   -1.1070   -0.7501 C   0  0  0  0  0  0  0  0  0  0  0  0
    0.8404   -1.3070   -1.7379 H   0  0  0  0  0  0  0  0  0  0  0  0
    2.2019   -0.5656   -0.8722 H   0  0  0  0  0  0  0  0  0  0  0  0
    1.5659   -2.6927    0.0831 S   0  0  0  0  0  0  0  0  0  0  0  0
    2.3301   -3.2372   -0.8715 H   0  0  0  0  0  0  0  0  0  0  0  0
    0.1223    1.1824   -0.5276 C   0  0  0  0  0  0  0  0  0  0  0  0
    0.4334    2.1566    0.1584 O   0  0  0  0  0  0  0  0  0  0  0  0
   -0.3420    1.3061   -1.7764 N   0  0  0  0  0  0  0  0  0  0  0  0
   -0.6341    0.4622   -2.2477 H   0  0  0  0  0  0  0  0  0  0  0  0
   -0.5321    2.5824   -2.4633 C   0  0  0  0  0  0  0  0  0  0  0  0
    0.3748    3.1856   -2.3802 H   0  0  0  0  0  0  0  0  0  0  0  0
   -0.7559    2.4137   -3.5173 H   0  0  0  0  0  0  0  0  0  0  0  0
   -1.3569    3.1278   -2.0017 H   0  0  0  0  0  0  0  0  0  0  0  0
  5  6  2  0  0  0  0
  5  7  1  0  0  0  0
  2  3  1  0  0  0  0
  2  4  1  0  0  0  0
  2  5  1  0  0  0  0
  1  2  1  0  0  0  0
 16 17  2  0  0  0  0
 16 18  1  0  0  0  0
 14 15  1  0  0  0  0
 11 12  1  0  0  0  0
 11 13  1  0  0  0  0
 11 14  1  0  0  0  0
  9 10  1  0  0  0  0
  9 11  1  0  0  0  0
  9 16  1  0  0  0  0
  7  8  1  0  0  0  0
  7  9  1  0  0  0  0
 20 21  1  0  0  0  0
 20 22  1  0  0  0  0
 20 23  1  0  0  0  0
 18 19  1  0  0  0  0
 18 20  1  0  0  0  0
M  END
$$$$
default_name
  -OEChem-01062215323D

 23 22  0     1  0  0  0  0  0999 V2000
   -2.6857   -3.6684    0.8743 H   0  0  0  0  0  0  0  0  0  0  0  0
   -2.6617   -2.6474    0.4953 C   0  0  0  0  0  0  0  0  0  0  0  0
   -3.2657   -2.0054    1.1353 H   0  0  0  0  0  0  0  0  0  0  0  0
   -3.0477   -2.6254   -0.5217 H   0  0  0  0  0  0  0  0  0  0  0  0
   -1.2337   -2.1564    0.4993 C   0  0  0  0  0  0  0  0  0  0  0  0
   -0.3327   -2.8864    0.8893 O   0  0  0  0  0  0  0  0  0  0  0  0
   -1.0277   -0.9164    0.0623 N   0  0  0  0  0  0  0  0  0  0  0  0
   -1.8237   -0.3604   -0.2157 H   0  0  0  0  0  0  0  0  0  0  0  0
    0.2713   -0.2414    0.0463 C   0  0  1  0  0  0  0  0  0  0  0  0
    0.6353   -0.1559    1.0721 H   0  0  0  0  0  0  0  0  0  0  0  0
    1.2616   -1.1070   -0.7501 C   0  0  0  0  0  0  0  0  0  0  0  0
    0.8404   -1.3070   -1.7379 H   0  0  0  0  0  0  0  0  0  0  0  0
    2.2019   -0.5656   -0.8722 H   0  0  0  0  0  0  0  0  0  0  0  0
    1.5659   -2.6927    0.0831 S   0  0  0  0  0  0  0  0  0  0  0  0
    2.3301   -3.2372   -0.8715 H   0  0  0  0  0  0  0  0  0  0  0  0
    0.1223    1.1824   -0.5276 C   0  0  0  0  0  0  0  0  0  0  0  0
    0.6785    2.1299    0.0285 O   0  0  0  0  0  0  0  0  0  0  0  0
   -0.6147    1.3350   -1.6339 N   0  0  0  0  0  0  0  0  0  0  0  0
   -1.0888    0.5181   -1.9909 H   0  0  0  0  0  0  0  0  0  0  0  0
   -0.8443    2.6145   -2.3024 C   0  0  0  0  0  0  0  0  0  0  0  0
    0.1082    3.1257   -2.4594 H   0  0  0  0  0  0  0  0  0  0  0  0
   -1.3294    2.4549   -3.2660 H   0  0  0  0  0  0  0  0  0  0  0  0
   -1.4796    3.2453   -1.6782 H   0  0  0  0  0  0  0  0  0  0  0  0
  5  6  2  0  0  0  0
  5  7  1  0  0  0  0
  2  3  1  0  0  0  0
  2  4  1  0  0  0  0
  2  5  1  0  0  0  0
  1  2  1  0  0  0  0
 16 17  2  0  0  0  0
 16 18  1  0  0  0  0
 14 15  1  0  0  0  0
 11 12  1  0  0  0  0
 11 13  1  0  0  0  0
 11 14  1  0  0  0  0
  9 10  1  0  0  0  0
  9 11  1  0  0  0  0
  9 16  1  0  0  0  0
  7  8  1  0  0  0  0
  7  9  1  0  0  0  0
 20 21  1  0  0  0  0
 20 22  1  0  0  0  0
 20 23  1  0  0  0  0
 18 19  1  0  0  0  0
 18 20  1  0  0  0  0
M  END
$$$$
default_name
  -OEChem-01062215323D

 23 22  0     1  0  0  0  0  0999 V2000
   -2.6857   -3.6684    0.8743 H   0  0  0  0  0  0  0  0  0  0  0  0
   -2.6617   -2.6474    0.4953 C   0  0  0  0  0  0  0  0  0  0  0  0
   -3.2657   -2.0054    1.1353 H   0  0  0  0  0  0  0  0  0  0  0  0
   -3.0477   -2.6254   -0.5217 H   0  0  0  0  0  0  0  0  0  0  0  0
   -1.2337   -2.1564    0.4993 C   0  0  0  0  0  0  0  0  0  0  0  0
   -0.3327   -2.8864    0.8893 O   0  0  0  0  0  0  0  0  0  0  0  0
   -1.0277   -0.9164    0.0623 N   0  0  0  0  0  0  0  0  0  0  0  0
   -1.8237   -0.3604   -0.2157 H   0  0  0  0  0  0  0  0  0  0  0  0
    0.2713   -0.2414    0.0463 C   0  0  1  0  0  0  0  0  0  0  0  0
    0.6353   -0.1559    1.0721 H   0  0  0  0  0  0  0  0  0  0  0  0
    1.2616   -1.1070   -0.7501 C   0  0  0  0  0  0  0  0  0  0  0  0
    0.8404   -1.3070   -1.7379 H   0  0  0  0  0  0  0  0  0  0  0  0
    2.2019   -0.5656   -0.8722 H   0  0  0  0  0  0  0  0  0  0  0  0
    1.5659   -2.6927    0.0831 S   0  0  0  0  0  0  0  0  0  0  0  0
    2.3301   -3.2372   -0.8715 H   0  0  0  0  0  0  0  0  0  0  0  0
    0.1223    1.1824   -0.5276 C   0  0  0  0  0  0  0  0  0  0  0  0
    0.8817    2.0773   -0.1548 O   0  0  0  0  0  0  0  0  0  0  0  0
   -0.8413    1.3927   -1.4319 N   0  0  0  0  0  0  0  0  0  0  0  0
   -1.4613    0.6223   -1.6357 H   0  0  0  0  0  0  0  0  0  0  0  0
   -1.1043    2.6797   -2.0731 C   0  0  0  0  0  0  0  0  0  0  0  0
   -0.1740    3.0916   -2.4707 H   0  0  0  0  0  0  0  0  0  0  0  0
   -1.8194    2.5563   -2.8873 H   0  0  0  0  0  0  0  0  0  0  0  0
   -1.5094    3.3787   -1.3395 H   0  0  0  0  0  0  0  0  0  0  0  0
  5  6  2  0  0  0  0
  5  7  1  0  0  0  0
  2  3  1  0  0  0  0
  2  4  1  0  0  0  0
  2  5  1  0  0  0  0
  1  2  1  0  0  0  0
 16 17  2  0  0  0  0
 16 18  1  0  0  0  0
 14 15  1  0  0  0  0
 11 12  1  0  0  0  0
 11 13  1  0  0  0  0
 11 14  1  0  0  0  0
  9 10  1  0  0  0  0
  9 11  1  0  0  0  0
  9 16  1  0  0  0  0
  7  8  1  0  0  0  0
  7  9  1  0  0  0  0
 20 21  1  0  0  0  0
 20 22  1  0  0  0  0
 20 23  1  0  0  0  0
 18 19  1  0  0  0  0
 18 20  1  0  0  0  0
M  END
$$$$
default_name
  -OEChem-01062215323D

 23 22  0     1  0  0  0  0  0999 V2000
   -2.6857   -3.6684    0.8743 H   0  0  0  0  0  0  0  0  0  0  0  0
   -2.6617   -2.6474    0.4953 C   0  0  0  0  0  0  0  0  0  0  0  0
   -3.2657   -2.0054    1.1353 H   0  0  0  0  0  0  0  0  0  0  0  0
   -3.0477   -2.6254   -0.5217 H   0  0  0  0  0  0  0  0  0  0  0  0
   -1.2337   -2.1564    0.4993 C   0  0  0  0  0  0  0  0  0  0  0  0
   -0.3327   -2.8864    0.8893 O   0  0  0  0  0  0  0  0  0  0  0  0
   -1.0277   -0.9164    0.0623 N   0  0  0  0  0  0  0  0  0  0  0  0
   -1.8237   -0.3604   -0.2157 H   0  0  0  0  0  0  0  0  0  0  0  0
    0.2713   -0.2414    0.0463 C   0  0  1  0  0  0  0  0  0  0  0  0
    0.6353   -0.1559    1.0721 H   0  0  0  0  0  0  0  0  0  0  0  0
    1.2616   -1.1070   -0.7501 C   0  0  0  0  0  0  0  0  0  0  0  0
    0.8404   -1.3070   -1.7379 H   0  0  0  0  0  0  0  0  0  0  0  0
    2.2019   -0.5656   -0.8722 H   0  0  0  0  0  0  0  0  0  0  0  0
    1.5659   -2.6927    0.0831 S   0  0  0  0  0  0  0  0  0  0  0  0
    2.3301   -3.2372   -0.8715 H   0  0  0  0  0  0  0  0  0  0  0  0
    0.1223    1.1824   -0.5276 C   0  0  0  0  0  0  0  0  0  0  0  0
    1.0290    2.0023   -0.3791 O   0  0  0  0  0  0  0  0  0  0  0  0
   -1.0063    1.4753   -1.1840 N   0  0  0  0  0  0  0  0  0  0  0  0
   -1.7262    0.7676   -1.2062 H   0  0  0  0  0  0  0  0  0  0  0  0
   -1.2944    2.7735   -1.7911 C   0  0  0  0  0  0  0  0  0  0  0  0
   -0.4526    3.0856   -2.4133 H   0  0  0  0  0  0  0  0  0  0  0  0
   -2.1924    2.7108   -2.4069 H   0  0  0  0  0  0  0  0  0  0  0  0
   -1.4445    3.5190   -1.0084 H   0  0  0  0  0  0  0  0  0  0  0  0
  5  6  2  0  0  0  0
  5  7  1  0  0  0  0
  2  3  1  0  0  0  0
  2  4  1  0  0  0  0
  2  5  1  0  0  0  0
  1  2  1  0  0  0  0
 16 17  2  0  0  0  0
 16 18  1  0  0  0  0
 14 15  1  0  0  0  0
 11 12  1  0  0  0  0
 11 13  1  0  0  0  0
 11 14  1  0  0  0  0
  9 10  1  0  0  0  0
  9 11  1  0  0  0  0
  9 16  1  0  0  0  0
  7  8  1  0  0  0  0
  7  9  1  0  0  0  0
 20 21  1  0  0  0  0
 20 22  1  0  0  0  0
 20 23  1  0  0  0  0
 18 19  1  0  0  0  0
 18 20  1  0  0  0  0
M  END
$$$$
default_name
  -OEChem-01062215323D

 23 22  0     1  0  0  0  0  0999 V2000
   -2.6857   -3.6684    0.8743 H   0  0  0  0  0  0  0  0  0  0  0  0
   -2.6617   -2.6474    0.4953 C   0  0  0  0  0  0  0  0  0  0  0  0
   -3.2657   -2.0054    1.1353 H   0  0  0  0  0  0  0  0  0  0  0  0
   -3.0477   -2.6254   -0.5217 H   0  0  0  0  0  0  0  0  0  0  0  0
   -1.2337   -2.1564    0.4993 C   0  0  0  0  0  0  0  0  0  0  0  0
   -0.3327   -2.8864    0.8893 O   0  0  0  0  0  0  0  0  0  0  0  0
   -1.0277   -0.9164    0.0623 N   0  0  0  0  0  0  0  0  0  0  0  0
   -1.8237   -0.3604   -0.2157 H   0  0  0  0  0  0  0  0  0  0  0  0
    0.2713   -0.2414    0.0463 C   0  0  1  0  0  0  0  0  0  0  0  0
    0.6353   -0.1559    1.0721 H   0  0  0  0  0  0  0  0  0  0  0  0
    1.2616   -1.1070   -0.7501 C   0  0  0  0  0  0  0  0  0  0  0  0
    0.8404   -1.3070   -1.7379 H   0  0  0  0  0  0  0  0  0  0  0  0
    2.2019   -0.5656   -0.8722 H   0  0  0  0  0  0  0  0  0  0  0  0
    1.5659   -2.6927    0.0831 S   0  0  0  0  0  0  0  0  0  0  0  0
    2.3301   -3.2372   -0.8715 H   0  0  0  0  0  0  0  0  0  0  0  0
    0.1223    1.1824   -0.5276 C   0  0  0  0  0  0  0  0  0  0  0  0
    1.1105    1.9101   -0.6291 O   0  0  0  0  0  0  0  0  0  0  0  0
   -1.0985    1.5772   -0.9072 N   0  0  0  0  0  0  0  0  0  0  0  0
   -1.8655    0.9443   -0.7316 H   0  0  0  0  0  0  0  0  0  0  0  0
   -1.4017    2.8894   -1.4757 C   0  0  0  0  0  0  0  0  0  0  0  0
   -0.7086    3.1080   -2.2912 H   0  0  0  0  0  0  0  0  0  0  0  0
   -2.4231    2.9080   -1.8576 H   0  0  0  0  0  0  0  0  0  0  0  0
   -1.2892    3.6565   -0.7077 H   0  0  0  0  0  0  0  0  0  0  0  0
  5  6  2  0  0  0  0
  5  7  1  0  0  0  0
  2  3  1  0  0  0  0
  2  4  1  0  0  0  0
  2  5  1  0  0  0  0
  1  2  1  0  0  0  0
 16 17  2  0  0  0  0
 16 18  1  0  0  0  0
 14 15  1  0  0  0  0
 11 12  1  0  0  0  0
 11 13  1  0  0  0  0
 11 14  1  0  0  0  0
  9 10  1  0  0  0  0
  9 11  1  0  0  0  0
  9 16  1  0  0  0  0
  7  8  1  0  0  0  0
  7  9  1  0  0  0  0
 20 21  1  0  0  0  0
 20 22  1  0  0  0  0
 20 23  1  0  0  0  0
 18 19  1  0  0  0  0
 18 20  1  0  0  0  0
M  END
$$$$
default_name
  -OEChem-01062215323D

 23 22  0     1  0  0  0  0  0999 V2000
   -2.6857   -3.6684    0.8743 H   0  0  0  0  0  0  0  0  0  0  0  0
   -2.6617   -2.6474    0.4953 C   0  0  0  0  0  0  0  0  0  0  0  0
   -3.2657   -2.0054    1.1353 H   0  0  0  0  0  0  0  0  0  0  0  0
   -3.0477   -2.6254   -0.5217 H   0  0  0  0  0  0  0  0  0  0  0  0
   -1.2337   -2.1564    0.4993 C   0  0  0  0  0  0  0  0  0  0  0  0
   -0.3327   -2.8864    0.8893 O   0  0  0  0  0  0  0  0  0  0  0  0
   -1.0277   -0.9164    0.0623 N   0  0  0  0  0  0  0  0  0  0  0  0
   -1.8237   -0.3604   -0.2157 H   0  0  0  0  0  0  0  0  0  0  0  0
    0.2713   -0.2414    0.0463 C   0  0  1  0  0  0  0  0  0  0  0  0
    0.6353   -0.1559    1.0721 H   0  0  0  0  0  0  0  0  0  0  0  0
    1.2616   -1.1070   -0.7501 C   0  0  0  0  0  0  0  0  0  0  0  0
    0.8404   -1.3070   -1.7379 H   0  0  0  0  0  0  0  0  0  0  0  0
    2.2019   -0.5656   -0.8722 H   0  0  0  0  0  0  0  0  0  0  0  0
    1.5659   -2.6927    0.0831 S   0  0  0  0  0  0  0  0  0  0  0  0
    2.3301   -3.2372   -0.8715 H   0  0  0  0  0  0  0  0  0  0  0  0
    0.1223    1.1824   -0.5276 C   0  0  0  0  0  0  0  0  0  0  0  0
    1.1206    1.8069   -0.8878 O   0  0  0  0  0  0  0  0  0  0  0  0
   -1.1117    1.6915   -0.6204 N   0  0  0  0  0  0  0  0  0  0  0  0
   -1.8696    1.1403   -0.2444 H   0  0  0  0  0  0  0  0  0  0  0  0
   -1.4188    3.0195   -1.1483 C   0  0  0  0  0  0  0  0  0  0  0  0
   -0.9245    3.1574   -2.1126 H   0  0  0  0  0  0  0  0  0  0  0  0
   -2.4956    3.1345   -1.2769 H   0  0  0  0  0  0  0  0  0  0  0  0
   -1.0540    3.7818   -0.4577 H   0  0  0  0  0  0  0  0  0  0  0  0
  5  6  2  0  0  0  0
  5  7  1  0  0  0  0
  2  3  1  0  0  0  0
  2  4  1  0  0  0  0
  2  5  1  0  0  0  0
  1  2  1  0  0  0  0
 16 17  2  0  0  0  0
 16 18  1  0  0  0  0
 14 15  1  0  0  0  0
 11 12  1  0  0  0  0
 11 13  1  0  0  0  0
 11 14  1  0  0  0  0
  9 10  1  0  0  0  0
  9 11  1  0  0  0  0
  9 16  1  0  0  0  0
  7  8  1  0  0  0  0
  7  9  1  0  0  0  0
 20 21  1  0  0  0  0
 20 22  1  0  0  0  0
 20 23  1  0  0  0  0
 18 19  1  0  0  0  0
 18 20  1  0  0  0  0
M  END
$$$$
default_name
  -OEChem-01062215323D

 23 22  0     1  0  0  0  0  0999 V2000
   -2.6857   -3.6684    0.8743 H   0  0  0  0  0  0  0  0  0  0  0  0
   -2.6617   -2.6474    0.4953 C   0  0  0  0  0  0  0  0  0  0  0  0
   -3.2657   -2.0054    1.1353 H   0  0  0  0  0  0  0  0  0  0  0  0
   -3.0477   -2.6254   -0.5217 H   0  0  0  0  0  0  0  0  0  0  0  0
   -1.2337   -2.1564    0.4993 C   0  0  0  0  0  0  0  0  0  0  0  0
   -0.3327   -2.8864    0.8893 O   0  0  0  0  0  0  0  0  0  0  0  0
   -1.0277   -0.9164    0.0623 N   0  0  0  0  0  0  0  0  0  0  0  0
   -1.8237   -0.3604   -0.2157 H   0  0  0  0  0  0  0  0  0  0  0  0
    0.2713   -0.2414    0.0463 C   0  0  1  0  0  0  0  0  0  0  0  0
    0.6353   -0.1559    1.0721 H   0  0  0  0  0  0  0  0  0  0  0  0
    1.2616   -1.1070   -0.7501 C   0  0  0  0  0  0  0  0  0  0  0  0
    0.8404   -1.3070   -1.7379 H   0  0  0  0  0  0  0  0  0  0  0  0
    2.2019   -0.5656   -0.8722 H   0  0  0  0  0  0  0  0  0  0  0  0
    1.5659   -2.6927    0.0831 S   0  0  0  0  0  0  0  0  0  0  0  0
    2.3301   -3.2372   -0.8715 H   0  0  0  0  0  0  0  0  0  0  0  0
    0.1223    1.1824   -0.5276 C   0  0  0  0  0  0  0  0  0  0  0  0
    1.0587    1.6998   -1.1375 O   0  0  0  0  0  0  0  0  0  0  0  0
   -1.0448    1.8102   -0.3430 N   0  0  0  0  0  0  0  0  0  0  0  0
   -1.7383    1.3421    0.2223 H   0  0  0  0  0  0  0  0  0  0  0  0
   -1.3445    3.1551   -0.8312 C   0  0  0  0  0  0  0  0  0  0  0  0
   -1.0856    3.2303   -1.8898 H   0  0  0  0  0  0  0  0  0  0  0  0
   -2.4052    3.3748   -0.7043 H   0  0  0  0  0  0  0  0  0  0  0  0
   -0.7551    3.8865   -0.2756 H   0  0  0  0  0  0  0  0  0  0  0  0
  5  6  2  0  0  0  0
  5  7  1  0  0  0  0
  2  3  1  0  0  0  0
  2  4  1  0  0  0  0
  2  5  1  0  0  0  0
  1  2  1  0  0  0  0
 16 17  2  0  0  0  0
 16 18  1  0  0  0  0
 14 15  1  0  0  0  0
 11 12  1  0  0  0  0
 11 13  1  0  0  0  0
 11 14  1  0  0  0  0
  9 10  1  0  0  0  0
  9 11  1  0  0  0  0
  9 16  1  0  0  0  0
  7  8  1  0  0  0  0
  7  9  1  0  0  0  0
 20 21  1  0  0  0  0
 20 22  1  0  0  0  0
 20 23  1  0  0  0  0
 18 19  1  0  0  0  0
 18 20  1  0  0  0  0
M  END
$$$$
default_name
  -OEChem-01062215323D

 23 22  0     1  0  0  0  0  0999 V2000
   -2.6857   -3.6684    0.8743 H   0  0  0  0  0  0  0  0  0  0  0  0
   -2.6617   -2.6474    0.4953 C   0  0  0  0  0  0  0  0  0  0  0  0
   -3.2657   -2.0054    1.1353 H   0  0  0  0  0  0  0  0  0  0  0  0
   -3.0477   -2.6254   -0.5217 H   0  0  0  0  0  0  0  0  0  0  0  0
   -1.2337   -2.1564    0.4993 C   0  0  0  0  0  0  0  0  0  0  0  0
   -0.3327   -2.8864    0.8893 O   0  0  0  0  0  0  0  0  0  0  0  0
   -1.0277   -0.9164    0.0623 N   0  0  0  0  0  0  0  0  0  0  0  0
   -1.8237   -0.3604   -0.2157 H   0  0  0  0  0  0  0  0  0  0  0  0
    0.2713   -0.2414    0.0463 C   0  0  1  0  0  0  0  0  0  0  0  0
    0.6353   -0.1559    1.0721 H   0  0  0  0  0  0  0  0  0  0  0  0
    1.2616   -1.1070   -0.7501 C   0  0  0  0  0  0  0  0  0  0  0  0
    0.8404   -1.3070   -1.7379 H   0  0  0  0  0  0  0  0  0  0  0  0
    2.2019   -0.5656   -0.8722 H   0  0  0  0  0  0  0  0  0  0  0  0
    1.5659   -2.6927    0.0831 S   0  0  0  0  0  0  0  0  0  0  0  0
    2.3301   -3.2372   -0.8715 H   0  0  0  0  0  0  0  0  0  0  0  0
    0.1223    1.1824   -0.5276 C   0  0  0  0  0  0  0  0  0  0  0  0
    0.9288    1.5960   -1.3611 O   0  0  0  0  0  0  0  0  0  0  0  0
   -0.9026    1.9255   -0.0941 N   0  0  0  0  0  0  0  0  0  0  0  0
   -1.4805    1.5361    0.6367 H   0  0  0  0  0  0  0  0  0  0  0  0
   -1.1839    3.2868   -0.5461 C   0  0  0  0  0  0  0  0  0  0  0  0
   -1.1810    3.3219   -1.6379 H   0  0  0  0  0  0  0  0  0  0  0  0
   -2.1579    3.6125   -0.1788 H   0  0  0  0  0  0  0  0  0  0  0  0
   -0.4128    3.9634   -0.1737 H   0  0  0  0  0  0  0  0  0  0  0  0
  5  6  2  0  0  0  0
  5  7  1  0  0  0  0
  2  3  1  0  0  0  0
  2  4  1  0  0  0  0
  2  5  1  0  0  0  0
  1  2  1  0  0  0  0
 16 17  2  0  0  0  0
 16 18  1  0  0  0  0
 14 15  1  0  0  0  0
 11 12  1  0  0  0  0
 11 13  1  0  0  0  0
 11 14  1  0  0  0  0
  9 10  1  0  0  0  0
  9 11  1  0  0  0  0
  9 16  1  0  0  0  0
  7  8  1  0  0  0  0
  7  9  1  0  0  0  0
 20 21  1  0  0  0  0
 20 22  1  0  0  0  0
 20 23  1  0  0  0  0
 18 19  1  0  0  0  0
 18 20  1  0  0  0  0
M  END
$$$$
default_name
  -OEChem-01062215323D

 23 22  0     1  0  0  0  0  0999 V2000
   -2.6857   -3.6684    0.8743 H   0  0  0  0  0  0  0  0  0  0  0  0
   -2.6617   -2.6474    0.4953 C   0  0  0  0  0  0  0  0  0  0  0  0
   -3.2657   -2.0054    1.1353 H   0  0  0  0  0  0  0  0  0  0  0  0
   -3.0477   -2.6254   -0.5217 H   0  0  0  0  0  0  0  0  0  0  0  0
   -1.2337   -2.1564    0.4993 C   0  0  0  0  0  0  0  0  0  0  0  0
   -0.3327   -2.8864    0.8893 O   0  0  0  0  0  0  0  0  0  0  0  0
   -1.0277   -0.9164    0.0623 N   0  0  0  0  0  0  0  0  0  0  0  0
   -1.8237   -0.3604   -0.2157 H   0  0  0  0  0  0  0  0  0  0  0  0
    0.2713   -0.2414    0.0463 C   0  0  1  0  0  0  0  0  0  0  0  0
    0.6353   -0.1559    1.0721 H   0  0  0  0  0  0  0  0  0  0  0  0
    1.2616   -1.1070   -0.7501 C   0  0  0  0  0  0  0  0  0  0  0  0
    0.8404   -1.3070   -1.7379 H   0  0  0  0  0  0  0  0  0  0  0  0
    2.2019   -0.5656   -0.8722 H   0  0  0  0  0  0  0  0  0  0  0  0
    1.5659   -2.6927    0.0831 S   0  0  0  0  0  0  0  0  0  0  0  0
    2.3301   -3.2372   -0.8715 H   0  0  0  0  0  0  0  0  0  0  0  0
    0.1223    1.1824   -0.5276 C   0  0  0  0  0  0  0  0  0  0  0  0
    0.7400    1.5027   -1.5436 O   0  0  0  0  0  0  0  0  0  0  0  0
   -0.6946    2.0293    0.1095 N   0  0  0  0  0  0  0  0  0  0  0  0
   -1.1138    1.7091    0.9705 H   0  0  0  0  0  0  0  0  0  0  0  0
   -0.9480    3.4058   -0.3123 C   0  0  0  0  0  0  0  0  0  0  0  0
   -1.2041    3.4258   -1.3741 H   0  0  0  0  0  0  0  0  0  0  0  0
   -1.7705    3.8314    0.2637 H   0  0  0  0  0  0  0  0  0  0  0  0
   -0.0504    4.0073   -0.1590 H   0  0  0  0  0  0  0  0  0  0  0  0
  5  6  2  0  0  0  0
  5  7  1  0  0  0  0
  2  3  1  0  0  0  0
  2  4  1  0  0  0  0
  2  5  1  0  0  0  0
  1  2  1  0  0  0  0
 16 17  2  0  0  0  0
 16 18  1  0  0  0  0
 14 15  1  0  0  0  0
 11 12  1  0  0  0  0
 11 13  1  0  0  0  0
 11 14  1  0  0  0  0
  9 10  1  0  0  0  0
  9 11  1  0  0  0  0
  9 16  1  0  0  0  0
  7  8  1  0  0  0  0
  7  9  1  0  0  0  0
 20 21  1  0  0  0  0
 20 22  1  0  0  0  0
 20 23  1  0  0  0  0
 18 19  1  0  0  0  0
 18 20  1  0  0  0  0
M  END
$$$$
default_name
  -OEChem-01062215323D

 23 22  0     1  0  0  0  0  0999 V2000
   -2.6857   -3.6684    0.8743 H   0  0  0  0  0  0  0  0  0  0  0  0
   -2.6617   -2.6474    0.4953 C   0  0  0  0  0  0  0  0  0  0  0  0
   -3.2657   -2.0054    1.1353 H   0  0  0  0  0  0  0  0  0  0  0  0
   -3.0477   -2.6254   -0.5217 H   0  0  0  0  0  0  0  0  0  0  0  0
   -1.2337   -2.1564    0.4993 C   0  0  0  0  0  0  0  0  0  0  0  0
   -0.3327   -2.8864    0.8893 O   0  0  0  0  0  0  0  0  0  0  0  0
   -1.0277   -0.9164    0.0623 N   0  0  0  0  0  0  0  0  0  0  0  0
   -1.8237   -0.3604   -0.2157 H   0  0  0  0  0  0  0  0  0  0  0  0
    0.2713   -0.2414    0.0463 C   0  0  1  0  0  0  0  0  0  0  0  0
    0.6353   -0.1559    1.0721 H   0  0  0  0  0  0  0  0  0  0  0  0
    1.2616   -1.1070   -0.7501 C   0  0  0  0  0  0  0  0  0  0  0  0
    0.8404   -1.3070   -1.7379 H   0  0  0  0  0  0  0  0  0  0  0  0
    2.2019   -0.5656   -0.8722 H   0  0  0  0  0  0  0  0  0  0  0  0
    1.5659   -2.6927    0.0831 S   0  0  0  0  0  0  0  0  0  0  0  0
    2.3301   -3.2372   -0.8715 H   0  0  0  0  0  0  0  0  0  0  0  0
    0.1223    1.1824   -0.5276 C   0  0  0  0  0  0  0  0  0  0  0  0
    0.5050    1.4262   -1.6724 O   0  0  0  0  0  0  0  0  0  0  0  0
   -0.4350    2.1147    0.2539 N   0  0  0  0  0  0  0  0  0  0  0  0
   -0.6632    1.8492    1.2010 H   0  0  0  0  0  0  0  0  0  0  0  0
   -0.6528    3.5037   -0.1459 C   0  0  0  0  0  0  0  0  0  0  0  0
   -1.1534    3.5350   -1.1163 H   0  0  0  0  0  0  0  0  0  0  0  0
   -1.2695    4.0166    0.5931 H   0  0  0  0  0  0  0  0  0  0  0  0
    0.3074    4.0151   -0.2325 H   0  0  0  0  0  0  0  0  0  0  0  0
  5  6  2  0  0  0  0
  5  7  1  0  0  0  0
  2  3  1  0  0  0  0
  2  4  1  0  0  0  0
  2  5  1  0  0  0  0
  1  2  1  0  0  0  0
 16 17  2  0  0  0  0
 16 18  1  0  0  0  0
 14 15  1  0  0  0  0
 11 12  1  0  0  0  0
 11 13  1  0  0  0  0
 11 14  1  0  0  0  0
  9 10  1  0  0  0  0
  9 11  1  0  0  0  0
  9 16  1  0  0  0  0
  7  8  1  0  0  0  0
  7  9  1  0  0  0  0
 20 21  1  0  0  0  0
 20 22  1  0  0  0  0
 20 23  1  0  0  0  0
 18 19  1  0  0  0  0
 18 20  1  0  0  0  0
M  END
$$$$
default_name
  -OEChem-01062215323D

 23 22  0     1  0  0  0  0  0999 V2000
   -2.6857   -3.6684    0.8743 H   0  0  0  0  0  0  0  0  0  0  0  0
   -2.6617   -2.6474    0.4953 C   0  0  0  0  0  0  0  0  0  0  0  0
   -3.2657   -2.0054    1.1353 H   0  0  0  0  0  0  0  0  0  0  0  0
   -3.0477   -2.6254   -0.5217 H   0  0  0  0  0  0  0  0  0  0  0  0
   -1.2337   -2.1564    0.4993 C   0  0  0  0  0  0  0  0  0  0  0  0
   -0.3327   -2.8864    0.8893 O   0  0  0  0  0  0  0  0  0  0  0  0
   -1.0277   -0.9164    0.0623 N   0  0  0  0  0  0  0  0  0  0  0  0
   -1.8237   -0.3604   -0.2157 H   0  0  0  0  0  0  0  0  0  0  0  0
    0.2713   -0.2414    0.0463 C   0  0  1  0  0  0  0  0  0  0  0  0
    0.6353   -0.1559    1.0721 H   0  0  0  0  0  0  0  0  0  0  0  0
    1.2616   -1.1070   -0.7501 C   0  0  0  0  0  0  0  0  0  0  0  0
    0.8404   -1.3070   -1.7379 H   0  0  0  0  0  0  0  0  0  0  0  0
    2.2019   -0.5656   -0.8722 H   0  0  0  0  0  0  0  0  0  0  0  0
    1.5659   -2.6927    0.0831 S   0  0  0  0  0  0  0  0  0  0  0  0
    2.3301   -3.2372   -0.8715 H   0  0  0  0  0  0  0  0  0  0  0  0
    0.1223    1.1824   -0.5276 C   0  0  0  0  0  0  0  0  0  0  0  0
    0.2399    1.3717   -1.7387 O   0  0  0  0  0  0  0  0  0  0  0  0
   -0.1416    2.1757    0.3292 N   0  0  0  0  0  0  0  0  0  0  0  0
   -0.1593    1.9468    1.3125 H   0  0  0  0  0  0  0  0  0  0  0  0
   -0.3185    3.5741   -0.0581 C   0  0  0  0  0  0  0  0  0  0  0  0
   -1.0324    3.6420   -0.8822 H   0  0  0  0  0  0  0  0  0  0  0  0
   -0.6891    4.1555    0.7870 H   0  0  0  0  0  0  0  0  0  0  0  0
    0.6362    3.9864   -0.3892 H   0  0  0  0  0  0  0  0  0  0  0  0
  5  6  2  0  0  0  0
  5  7  1  0  0  0  0
  2  3  1  0  0  0  0
  2  4  1  0  0  0  0
  2  5  1  0  0  0  0
  1  2  1  0  0  0  0
 16 17  2  0  0  0  0
 16 18  1  0  0  0  0
 14 15  1  0  0  0  0
 11 12  1  0  0  0  0
 11 13  1  0  0  0  0
 11 14  1  0  0  0  0
  9 10  1  0  0  0  0
  9 11  1  0  0  0  0
  9 16  1  0  0  0  0
  7  8  1  0  0  0  0
  7  9  1  0  0  0  0
 20 21  1  0  0  0  0
 20 22  1  0  0  0  0
 20 23  1  0  0  0  0
 18 19  1  0  0  0  0
 18 20  1  0  0  0  0
M  END
$$$$
default_name
  -OEChem-01062215323D

 23 22  0     1  0  0  0  0  0999 V2000
   -2.6857   -3.6684    0.8743 H   0  0  0  0  0  0  0  0  0  0  0  0
   -2.6617   -2.6474    0.4953 C   0  0  0  0  0  0  0  0  0  0  0  0
   -3.2657   -2.0054    1.1353 H   0  0  0  0  0  0  0  0  0  0  0  0
   -3.0477   -2.6254   -0.5217 H   0  0  0  0  0  0  0  0  0  0  0  0
   -1.2337   -2.1564    0.4993 C   0  0  0  0  0  0  0  0  0  0  0  0
   -0.3327   -2.8864    0.8893 O   0  0  0  0  0  0  0  0  0  0  0  0
   -1.0277   -0.9164    0.0623 N   0  0  0  0  0  0  0  0  0  0  0  0
   -1.8237   -0.3604   -0.2157 H   0  0  0  0  0  0  0  0  0  0  0  0
    0.2713   -0.2414    0.0463 C   0  0  1  0  0  0  0  0  0  0  0  0
    0.6353   -0.1559    1.0721 H   0  0  0  0  0  0  0  0  0  0  0  0
    1.2616   -1.1070   -0.7501 C   0  0  0  0  0  0  0  0  0  0  0  0
    0.8404   -1.3070   -1.7379 H   0  0  0  0  0  0  0  0  0  0  0  0
    2.2019   -0.5656   -0.8722 H   0  0  0  0  0  0  0  0  0  0  0  0
    1.5659   -2.6927    0.0831 S   0  0  0  0  0  0  0  0  0  0  0  0
    2.3301   -3.2372   -0.8715 H   0  0  0  0  0  0  0  0  0  0  0  0
    0.1223    1.1824   -0.5276 C   0  0  0  0  0  0  0  0  0  0  0  0
   -0.0372    1.3430   -1.7380 O   0  0  0  0  0  0  0  0  0  0  0  0
    0.1657    2.2084    0.3303 N   0  0  0  0  0  0  0  0  0  0  0  0
    0.3634    1.9955    1.2973 H   0  0  0  0  0  0  0  0  0  0  0  0
    0.0322    3.6121   -0.0549 C   0  0  0  0  0  0  0  0  0  0  0  0
   -0.8491    3.7396   -0.6876 H   0  0  0  0  0  0  0  0  0  0  0  0
   -0.0687    4.2386    0.8321 H   0  0  0  0  0  0  0  0  0  0  0  0
    0.9135    3.9231   -0.6184 H   0  0  0  0  0  0  0  0  0  0  0  0
  5  6  2  0  0  0  0
  5  7  1  0  0  0  0
  2  3  1  0  0  0  0
  2  4  1  0  0  0  0
  2  5  1  0  0  0  0
  1  2  1  0  0  0  0
 16 17  2  0  0  0  0
 16 18  1  0  0  0  0
 14 15  1  0  0  0  0
 11 12  1  0  0  0  0
 11 13  1  0  0  0  0
 11 14  1  0  0  0  0
  9 10  1  0  0  0  0
  9 11  1  0  0  0  0
  9 16  1  0  0  0  0
  7  8  1  0  0  0  0
  7  9  1  0  0  0  0
 20 21  1  0  0  0  0
 20 22  1  0  0  0  0
 20 23  1  0  0  0  0
 18 19  1  0  0  0  0
 18 20  1  0  0  0  0
M  END
$$$$
default_name
  -OEChem-01062215323D

 23 22  0     1  0  0  0  0  0999 V2000
   -2.6857   -3.6684    0.8743 H   0  0  0  0  0  0  0  0  0  0  0  0
   -2.6617   -2.6474    0.4953 C   0  0  0  0  0  0  0  0  0  0  0  0
   -3.2657   -2.0054    1.1353 H   0  0  0  0  0  0  0  0  0  0  0  0
   -3.0477   -2.6254   -0.5217 H   0  0  0  0  0  0  0  0  0  0  0  0
   -1.2337   -2.1564    0.4993 C   0  0  0  0  0  0  0  0  0  0  0  0
   -0.3327   -2.8864    0.8893 O   0  0  0  0  0  0  0  0  0  0  0  0
   -1.0277   -0.9164    0.0623 N   0  0  0  0  0  0  0  0  0  0  0  0
   -1.8237   -0.3604   -0.2157 H   0  0  0  0  0  0  0  0  0  0  0  0
    0.2713   -0.2414    0.0463 C   0  0  1  0  0  0  0  0  0  0  0  0
    0.6353   -0.1559    1.0721 H   0  0  0  0  0  0  0  0  0  0  0  0
    1.2616   -1.1070   -0.7501 C   0  0  0  0  0  0  0  0  0  0  0  0
    0.8404   -1.3070   -1.7379 H   0  0  0  0  0  0  0  0  0  0  0  0
    2.2019   -0.5656   -0.8722 H   0  0  0  0  0  0  0  0  0  0  0  0
    1.5659   -2.6927    0.0831 S   0  0  0  0  0  0  0  0  0  0  0  0
    2.3301   -3.2372   -0.8715 H   0  0  0  0  0  0  0  0  0  0  0  0
    0.1223    1.1824   -0.5276 C   0  0  0  0  0  0  0  0  0  0  0  0
   -0.3076    1.3419   -1.6705 O   0  0  0  0  0  0  0  0  0  0  0  0
    0.4660    2.2103    0.2571 N   0  0  0  0  0  0  0  0  0  0  0  0
    0.8693    1.9917    1.1566 H   0  0  0  0  0  0  0  0  0  0  0  0
    0.3753    3.6151   -0.1366 C   0  0  0  0  0  0  0  0  0  0  0  0
   -0.6163    3.8211   -0.5459 H   0  0  0  0  0  0  0  0  0  0  0  0
    0.5493    4.2603    0.7253 H   0  0  0  0  0  0  0  0  0  0  0  0
    1.1206    3.8294   -0.9045 H   0  0  0  0  0  0  0  0  0  0  0  0
  5  6  2  0  0  0  0
  5  7  1  0  0  0  0
  2  3  1  0  0  0  0
  2  4  1  0  0  0  0
  2  5  1  0  0  0  0
  1  2  1  0  0  0  0
 16 17  2  0  0  0  0
 16 18  1  0  0  0  0
 14 15  1  0  0  0  0
 11 12  1  0  0  0  0
 11 13  1  0  0  0  0
 11 14  1  0  0  0  0
  9 10  1  0  0  0  0
  9 11  1  0  0  0  0
  9 16  1  0  0  0  0
  7  8  1  0  0  0  0
  7  9  1  0  0  0  0
 20 21  1  0  0  0  0
 20 22  1  0  0  0  0
 20 23  1  0  0  0  0
 18 19  1  0  0  0  0
 18 20  1  0  0  0  0
M  END
$$$$
default_name
  -OEChem-01062215323D

 23 22  0     1  0  0  0  0  0999 V2000
   -2.6857   -3.6684    0.8743 H   0  0  0  0  0  0  0  0  0  0  0  0
   -2.6617   -2.6474    0.4953 C   0  0  0  0  0  0  0  0  0  0  0  0
   -3.2657   -2.0054    1.1353 H   0  0  0  0  0  0  0  0  0  0  0  0
   -3.0477   -2.6254   -0.5217 H   0  0  0  0  0  0  0  0  0  0  0  0
   -1.2337   -2.1564    0.4993 C   0  0  0  0  0  0  0  0  0  0  0  0
   -0.3327   -2.8864    0.8893 O   0  0  0  0  0  0  0  0  0  0  0  0
   -1.0277   -0.9164    0.0623 N   0  0  0  0  0  0  0  0  0  0  0  0
   -1.8237   -0.3604   -0.2157 H   0  0  0  0  0  0  0  0  0  0  0  0
    0.2713   -0.2414    0.0463 C   0  0  1  0  0  0  0  0  0  0  0  0
    0.6353   -0.1559    1.0721 H   0  0  0  0  0  0  0  0  0  0  0  0
    1.2616   -1.1070   -0.7501 C   0  0  0  0  0  0  0  0  0  0  0  0
    0.8404   -1.3070   -1.7379 H   0  0  0  0  0  0  0  0  0  0  0  0
    2.2019   -0.5656   -0.8722 H   0  0  0  0  0  0  0  0  0  0  0  0
    1.5659   -2.6927    0.0831 S   0  0  0  0  0  0  0  0  0  0  0  0
    2.3301   -3.2372   -0.8715 H   0  0  0  0  0  0  0  0  0  0  0  0
    0.1223    1.1824   -0.5276 C   0  0  0  0  0  0  0  0  0  0  0  0
   -0.5527    1.3686   -1.5406 O   0  0  0  0  0  0  0  0  0  0  0  0
    0.7387    2.1814    0.1146 N   0  0  0  0  0  0  0  0  0  0  0  0
    1.3240    1.9358    0.8999 H   0  0  0  0  0  0  0  0  0  0  0  0
    0.6875    3.5830   -0.2975 C   0  0  0  0  0  0  0  0  0  0  0  0
   -0.3497    3.8809   -0.4667 H   0  0  0  0  0  0  0  0  0  0  0  0
    1.1228    4.2191    0.4740 H   0  0  0  0  0  0  0  0  0  0  0  0
    1.2433    3.7119   -1.2279 H   0  0  0  0  0  0  0  0  0  0  0  0
  5  6  2  0  0  0  0
  5  7  1  0  0  0  0
  2  3  1  0  0  0  0
  2  4  1  0  0  0  0
  2  5  1  0  0  0  0
  1  2  1  0  0  0  0
 16 17  2  0  0  0  0
 16 18  1  0  0  0  0
 14 15  1  0  0  0  0
 11 12  1  0  0  0  0
 11 13  1  0  0  0  0
 11 14  1  0  0  0  0
  9 10  1  0  0  0  0
  9 11  1  0  0  0  0
  9 16  1  0  0  0  0
  7  8  1  0  0  0  0
  7  9  1  0  0  0  0
 20 21  1  0  0  0  0
 20 22  1  0  0  0  0
 20 23  1  0  0  0  0
 18 19  1  0  0  0  0
 18 20  1  0  0  0  0
M  END
$$$$
default_name
  -OEChem-01062215323D

 23 22  0     1  0  0  0  0  0999 V2000
   -2.6857   -3.6684    0.8743 H   0  0  0  0  0  0  0  0  0  0  0  0
   -2.6617   -2.6474    0.4953 C   0  0  0  0  0  0  0  0  0  0  0  0
   -3.2657   -2.0054    1.1353 H   0  0  0  0  0  0  0  0  0  0  0  0
   -3.0477   -2.6254   -0.5217 H   0  0  0  0  0  0  0  0  0  0  0  0
   -1.2337   -2.1564    0.4993 C   0  0  0  0  0  0  0  0  0  0  0  0
   -0.3327   -2.8864    0.8893 O   0  0  0  0  0  0  0  0  0  0  0  0
   -1.0277   -0.9164    0.0623 N   0  0  0  0  0  0  0  0  0  0  0  0
   -1.8237   -0.3604   -0.2157 H   0  0  0  0  0  0  0  0  0  0  0  0
    0.2713   -0.2414    0.0463 C   0  0  1  0  0  0  0  0  0  0  0  0
    0.6353   -0.1559    1.0721 H   0  0  0  0  0  0  0  0  0  0  0  0
    1.2616   -1.1070   -0.7501 C   0  0  0  0  0  0  0  0  0  0  0  0
    0.8404   -1.3070   -1.7379 H   0  0  0  0  0  0  0  0  0  0  0  0
    2.2019   -0.5656   -0.8722 H   0  0  0  0  0  0  0  0  0  0  0  0
    1.5659   -2.6927    0.0831 S   0  0  0  0  0  0  0  0  0  0  0  0
    2.3301   -3.2372   -0.8715 H   0  0  0  0  0  0  0  0  0  0  0  0
    0.1223    1.1824   -0.5276 C   0  0  0  0  0  0  0  0  0  0  0  0
   -0.7558    1.4212   -1.3573 O   0  0  0  0  0  0  0  0  0  0  0  0
    0.9652    2.1237   -0.0874 N   0  0  0  0  0  0  0  0  0  0  0  0
    1.6965    1.8317    0.5446 H   0  0  0  0  0  0  0  0  0  0  0  0
    0.9476    3.5178   -0.5268 C   0  0  0  0  0  0  0  0  0  0  0  0
   -0.0675    3.9151   -0.4554 H   0  0  0  0  0  0  0  0  0  0  0  0
    1.6128    4.1177    0.0953 H   0  0  0  0  0  0  0  0  0  0  0  0
    1.2731    3.5785   -1.5667 H   0  0  0  0  0  0  0  0  0  0  0  0
  5  6  2  0  0  0  0
  5  7  1  0  0  0  0
  2  3  1  0  0  0  0
  2  4  1  0  0  0  0
  2  5  1  0  0  0  0
  1  2  1  0  0  0  0
 16 17  2  0  0  0  0
 16 18  1  0  0  0  0
 14 15  1  0  0  0  0
 11 12  1  0  0  0  0
 11 13  1  0  0  0  0
 11 14  1  0  0  0  0
  9 10  1  0  0  0  0
  9 11  1  0  0  0  0
  9 16  1  0  0  0  0
  7  8  1  0  0  0  0
  7  9  1  0  0  0  0
 20 21  1  0  0  0  0
 20 22  1  0  0  0  0
 20 23  1  0  0  0  0
 18 19  1  0  0  0  0
 18 20  1  0  0  0  0
M  END
$$$$
default_name
  -OEChem-01062215323D

 23 22  0     1  0  0  0  0  0999 V2000
   -2.6857   -3.6684    0.8743 H   0  0  0  0  0  0  0  0  0  0  0  0
   -2.6617   -2.6474    0.4953 C   0  0  0  0  0  0  0  0  0  0  0  0
   -3.2657   -2.0054    1.1353 H   0  0  0  0  0  0  0  0  0  0  0  0
   -3.0477   -2.6254   -0.5217 H   0  0  0  0  0  0  0  0  0  0  0  0
   -1.2337   -2.1564    0.4993 C   0  0  0  0  0  0  0  0  0  0  0  0
   -0.3327   -2.8864    0.8893 O   0  0  0  0  0  0  0  0  0  0  0  0
   -1.0277   -0.9164    0.0623 N   0  0  0  0  0  0  0  0  0  0  0  0
   -1.8237   -0.3604   -0.2157 H   0  0  0  0  0  0  0  0  0  0  0  0
    0.2713   -0.2414    0.0463 C   0  0  1  0  0  0  0  0  0  0  0  0
    0.6353   -0.1559    1.0721 H   0  0  0  0  0  0  0  0  0  0  0  0
    1.2616   -1.1070   -0.7501 C   0  0  0  0  0  0  0  0  0  0  0  0
    0.8404   -1.3070   -1.7379 H   0  0  0  0  0  0  0  0  0  0  0  0
    2.2019   -0.5656   -0.8722 H   0  0  0  0  0  0  0  0  0  0  0  0
    1.5659   -2.6927    0.0831 S   0  0  0  0  0  0  0  0  0  0  0  0
    2.3301   -3.2372   -0.8715 H   0  0  0  0  0  0  0  0  0  0  0  0
    0.1223    1.1824   -0.5276 C   0  0  0  0  0  0  0  0  0  0  0  0
   -0.9032    1.4962   -1.1329 O   0  0  0  0  0  0  0  0  0  0  0  0
    1.1303    2.0411   -0.3353 N   0  0  0  0  0  0  0  0  0  0  0  0
    1.9614    1.6863    0.1151 H   0  0  0  0  0  0  0  0  0  0  0  0
    1.1377    3.4240   -0.8088 C   0  0  0  0  0  0  0  0  0  0  0  0
    0.2111    3.9211   -0.5127 H   0  0  0  0  0  0  0  0  0  0  0  0
    1.9858    3.9632   -0.3851 H   0  0  0  0  0  0  0  0  0  0  0  0
    1.2082    3.4383   -1.8977 H   0  0  0  0  0  0  0  0  0  0  0  0
  5  6  2  0  0  0  0
  5  7  1  0  0  0  0
  2  3  1  0  0  0  0
  2  4  1  0  0  0  0
  2  5  1  0  0  0  0
  1  2  1  0  0  0  0
 16 17  2  0  0  0  0
 16 18  1  0  0  0  0
 14 15  1  0  0  0  0
 11 12  1  0  0  0  0
 11 13  1  0  0  0  0
 11 14  1  0  0  0  0
  9 10  1  0  0  0  0
  9 11  1  0  0  0  0
  9 16  1  0  0  0  0
  7  8  1  0  0  0  0
  7  9  1  0  0  0  0
 20 21  1  0  0  0  0
 20 22  1  0  0  0  0
 20 23  1  0  0  0  0
 18 19  1  0  0  0  0
 18 20  1  0  0  0  0
M  END
$$$$
default_name
  -OEChem-01062215323D

 23 22  0     1  0  0  0  0  0999 V2000
   -2.6857   -3.6684    0.8743 H   0  0  0  0  0  0  0  0  0  0  0  0
   -2.6617   -2.6474    0.4953 C   0  0  0  0  0  0  0  0  0  0  0  0
   -3.2657   -2.0054    1.1353 H   0  0  0  0  0  0  0  0  0  0  0  0
   -3.0477   -2.6254   -0.5217 H   0  0  0  0  0  0  0  0  0  0  0  0
   -1.2337   -2.1564    0.4993 C   0  0  0  0  0  0  0  0  0  0  0  0
   -0.3327   -2.8864    0.8893 O   0  0  0  0  0  0  0  0  0  0  0  0
   -1.0277   -0.9164    0.0623 N   0  0  0  0  0  0  0  0  0  0  0  0
   -1.8237   -0.3604   -0.2157 H   0  0  0  0  0  0  0  0  0  0  0  0
    0.2713   -0.2414    0.0463 C   0  0  1  0  0  0  0  0  0  0  0  0
    0.7561   -0.3899    1.0132 H   0  0  0  0  0  0  0  0  0  0  0  0
    1.1451   -0.8898   -1.0401 C   0  0  0  0  0  0  0  0  0  0  0  0
    0.6061   -0.8620   -1.9898 H   0  0  0  0  0  0  0  0  0  0  0  0
    2.0731   -0.3244   -1.1463 H   0  0  0  0  0  0  0  0  0  0  0  0
    1.5198   -2.6210   -0.6356 S   0  0  0  0  0  0  0  0  0  0  0  0
    2.1557   -2.9230   -1.7741 H   0  0  0  0  0  0  0  0  0  0  0  0
    0.0789    1.2745   -0.1634 C   0  0  0  0  0  0  0  0  0  0  0  0
   -1.0555    1.7389   -0.2811 O   0  0  0  0  0  0  0  0  0  0  0  0
    1.1738    2.0426   -0.2031 N   0  0  0  0  0  0  0  0  0  0  0  0
    2.0685    1.5762   -0.1627 H   0  0  0  0  0  0  0  0  0  0  0  0
    1.1581    3.4927   -0.3863 C   0  0  0  0  0  0  0  0  0  0  0  0
    0.4541    3.9463    0.3150 H   0  0  0  0  0  0  0  0  0  0  0  0
    2.1529    3.9054   -0.2141 H   0  0  0  0  0  0  0  0  0  0  0  0
    0.8395    3.7303   -1.4027 H   0  0  0  0  0  0  0  0  0  0  0  0
  5  6  2  0  0  0  0
  5  7  1  0  0  0  0
  2  3  1  0  0  0  0
  2  4  1  0  0  0  0
  2  5  1  0  0  0  0
  1  2  1  0  0  0  0
 16 17  2  0  0  0  0
 16 18  1  0  0  0  0
 14 15  1  0  0  0  0
 11 12  1  0  0  0  0
 11 13  1  0  0  0  0
 11 14  1  0  0  0  0
  9 10  1  0  0  0  0
  9 11  1  0  0  0  0
  9 16  1  0  0  0  0
  7  8  1  0  0  0  0
  7  9  1  0  0  0  0
 20 21  1  0  0  0  0
 20 22  1  0  0  0  0
 20 23  1  0  0  0  0
 18 19  1  0  0  0  0
 18 20  1  0  0  0  0
M  END
$$$$
default_name
  -OEChem-01062215323D

 23 22  0     1  0  0  0  0  0999 V2000
   -2.6857   -3.6684    0.8743 H   0  0  0  0  0  0  0  0  0  0  0  0
   -2.6617   -2.6474    0.4953 C   0  0  0  0  0  0  0  0  0  0  0  0
   -3.2657   -2.0054    1.1353 H   0  0  0  0  0  0  0  0  0  0  0  0
   -3.0477   -2.6254   -0.5217 H   0  0  0  0  0  0  0  0  0  0  0  0
   -1.2337   -2.1564    0.4993 C   0  0  0  0  0  0  0  0  0  0  0  0
   -0.3327   -2.8864    0.8893 O   0  0  0  0  0  0  0  0  0  0  0  0
   -1.0277   -0.9164    0.0623 N   0  0  0  0  0  0  0  0  0  0  0  0
   -1.8237   -0.3604   -0.2157 H   0  0  0  0  0  0  0  0  0  0  0  0
    0.2713   -0.2414    0.0463 C   0  0  1  0  0  0  0  0  0  0  0  0
    0.7561   -0.3899    1.0132 H   0  0  0  0  0  0  0  0  0  0  0  0
    1.1451   -0.8898   -1.0401 C   0  0  0  0  0  0  0  0  0  0  0  0
    0.6061   -0.8620   -1.9898 H   0  0  0  0  0  0  0  0  0  0  0  0
    2.0731   -0.3244   -1.1463 H   0  0  0  0  0  0  0  0  0  0  0  0
    1.5198   -2.6210   -0.6356 S   0  0  0  0  0  0  0  0  0  0  0  0
    2.1557   -2.9230   -1.7741 H   0  0  0  0  0  0  0  0  0  0  0  0
    0.0789    1.2745   -0.1634 C   0  0  0  0  0  0  0  0  0  0  0  0
   -1.0330    1.7798   -0.0063 O   0  0  0  0  0  0  0  0  0  0  0  0
    1.1508    1.9975   -0.5079 N   0  0  0  0  0  0  0  0  0  0  0  0
    2.0113    1.4975   -0.6788 H   0  0  0  0  0  0  0  0  0  0  0  0
    1.1339    3.4415   -0.7345 C   0  0  0  0  0  0  0  0  0  0  0  0
    0.6463    3.9417    0.1053 H   0  0  0  0  0  0  0  0  0  0  0  0
    2.1520    3.8193   -0.8357 H   0  0  0  0  0  0  0  0  0  0  0  0
    0.5742    3.6632   -1.6447 H   0  0  0  0  0  0  0  0  0  0  0  0
  5  6  2  0  0  0  0
  5  7  1  0  0  0  0
  2  3  1  0  0  0  0
  2  4  1  0  0  0  0
  2  5  1  0  0  0  0
  1  2  1  0  0  0  0
 16 17  2  0  0  0  0
 16 18  1  0  0  0  0
 14 15  1  0  0  0  0
 11 12  1  0  0  0  0
 11 13  1  0  0  0  0
 11 14  1  0  0  0  0
  9 10  1  0  0  0  0
  9 11  1  0  0  0  0
  9 16  1  0  0  0  0
  7  8  1  0  0  0  0
  7  9  1  0  0  0  0
 20 21  1  0  0  0  0
 20 22  1  0  0  0  0
 20 23  1  0  0  0  0
 18 19  1  0  0  0  0
 18 20  1  0  0  0  0
M  END
$$$$
default_name
  -OEChem-01062215323D

 23 22  0     1  0  0  0  0  0999 V2000
   -2.6857   -3.6684    0.8743 H   0  0  0  0  0  0  0  0  0  0  0  0
   -2.6617   -2.6474    0.4953 C   0  0  0  0  0  0  0  0  0  0  0  0
   -3.2657   -2.0054    1.1353 H   0  0  0  0  0  0  0  0  0  0  0  0
   -3.0477   -2.6254   -0.5217 H   0  0  0  0  0  0  0  0  0  0  0  0
   -1.2337   -2.1564    0.4993 C   0  0  0  0  0  0  0  0  0  0  0  0
   -0.3327   -2.8864    0.8893 O   0  0  0  0  0  0  0  0  0  0  0  0
   -1.0277   -0.9164    0.0623 N   0  0  0  0  0  0  0  0  0  0  0  0
   -1.8237   -0.3604   -0.2157 H   0  0  0  0  0  0  0  0  0  0  0  0
    0.2713   -0.2414    0.0463 C   0  0  1  0  0  0  0  0  0  0  0  0
    0.7561   -0.3899    1.0132 H   0  0  0  0  0  0  0  0  0  0  0  0
    1.1451   -0.8898   -1.0401 C   0  0  0  0  0  0  0  0  0  0  0  0
    0.6061   -0.8620   -1.9898 H   0  0  0  0  0  0  0  0  0  0  0  0
    2.0731   -0.3244   -1.1463 H   0  0  0  0  0  0  0  0  0  0  0  0
    1.5198   -2.6210   -0.6356 S   0  0  0  0  0  0  0  0  0  0  0  0
    2.1557   -2.9230   -1.7741 H   0  0  0  0  0  0  0  0  0  0  0  0
    0.0789    1.2745   -0.1634 C   0  0  0  0  0  0  0  0  0  0  0  0
   -0.9400    1.8273    0.2520 O   0  0  0  0  0  0  0  0  0  0  0  0
    1.0495    1.9449   -0.7951 N   0  0  0  0  0  0  0  0  0  0  0  0
    1.8220    1.4069   -1.1602 H   0  0  0  0  0  0  0  0  0  0  0  0
    1.0202    3.3816   -1.0629 C   0  0  0  0  0  0  0  0  0  0  0  0
    0.7786    3.9237   -0.1459 H   0  0  0  0  0  0  0  0  0  0  0  0
    1.9900    3.7161   -1.4331 H   0  0  0  0  0  0  0  0  0  0  0  0
    0.2540    3.5998   -1.8089 H   0  0  0  0  0  0  0  0  0  0  0  0
  5  6  2  0  0  0  0
  5  7  1  0  0  0  0
  2  3  1  0  0  0  0
  2  4  1  0  0  0  0
  2  5  1  0  0  0  0
  1  2  1  0  0  0  0
 16 17  2  0  0  0  0
 16 18  1  0  0  0  0
 14 15  1  0  0  0  0
 11 12  1  0  0  0  0
 11 13  1  0  0  0  0
 11 14  1  0  0  0  0
  9 10  1  0  0  0  0
  9 11  1  0  0  0  0
  9 16  1  0  0  0  0
  7  8  1  0  0  0  0
  7  9  1  0  0  0  0
 20 21  1  0  0  0  0
 20 22  1  0  0  0  0
 20 23  1  0  0  0  0
 18 19  1  0  0  0  0
 18 20  1  0  0  0  0
M  END
$$$$
default_name
  -OEChem-01062215323D

 23 22  0     1  0  0  0  0  0999 V2000
   -2.6857   -3.6684    0.8743 H   0  0  0  0  0  0  0  0  0  0  0  0
   -2.6617   -2.6474    0.4953 C   0  0  0  0  0  0  0  0  0  0  0  0
   -3.2657   -2.0054    1.1353 H   0  0  0  0  0  0  0  0  0  0  0  0
   -3.0477   -2.6254   -0.5217 H   0  0  0  0  0  0  0  0  0  0  0  0
   -1.2337   -2.1564    0.4993 C   0  0  0  0  0  0  0  0  0  0  0  0
   -0.3327   -2.8864    0.8893 O   0  0  0  0  0  0  0  0  0  0  0  0
   -1.0277   -0.9164    0.0623 N   0  0  0  0  0  0  0  0  0  0  0  0
   -1.8237   -0.3604   -0.2157 H   0  0  0  0  0  0  0  0  0  0  0  0
    0.2713   -0.2414    0.0463 C   0  0  1  0  0  0  0  0  0  0  0  0
    0.7561   -0.3899    1.0132 H   0  0  0  0  0  0  0  0  0  0  0  0
    1.1451   -0.8898   -1.0401 C   0  0  0  0  0  0  0  0  0  0  0  0
    0.6061   -0.8620   -1.9898 H   0  0  0  0  0  0  0  0  0  0  0  0
    2.0731   -0.3244   -1.1463 H   0  0  0  0  0  0  0  0  0  0  0  0
    1.5198   -2.6210   -0.6356 S   0  0  0  0  0  0  0  0  0  0  0  0
    2.1557   -2.9230   -1.7741 H   0  0  0  0  0  0  0  0  0  0  0  0
    0.0789    1.2745   -0.1634 C   0  0  0  0  0  0  0  0  0  0  0  0
   -0.7827    1.8783    0.4763 O   0  0  0  0  0  0  0  0  0  0  0  0
    0.8767    1.8883   -1.0450 N   0  0  0  0  0  0  0  0  0  0  0  0
    1.5135    1.3104   -1.5741 H   0  0  0  0  0  0  0  0  0  0  0  0
    0.8246    3.3171   -1.3494 C   0  0  0  0  0  0  0  0  0  0  0  0
    0.8417    3.8936   -0.4217 H   0  0  0  0  0  0  0  0  0  0  0  0
    1.6780    3.6028   -1.9656 H   0  0  0  0  0  0  0  0  0  0  0  0
   -0.0992    3.5446   -1.8840 H   0  0  0  0  0  0  0  0  0  0  0  0
  5  6  2  0  0  0  0
  5  7  1  0  0  0  0
  2  3  1  0  0  0  0
  2  4  1  0  0  0  0
  2  5  1  0  0  0  0
  1  2  1  0  0  0  0
 16 17  2  0  0  0  0
 16 18  1  0  0  0  0
 14 15  1  0  0  0  0
 11 12  1  0  0  0  0
 11 13  1  0  0  0  0
 11 14  1  0  0  0  0
  9 10  1  0  0  0  0
  9 11  1  0  0  0  0
  9 16  1  0  0  0  0
  7  8  1  0  0  0  0
  7  9  1  0  0  0  0
 20 21  1  0  0  0  0
 20 22  1  0  0  0  0
 20 23  1  0  0  0  0
 18 19  1  0  0  0  0
 18 20  1  0  0  0  0
M  END
$$$$
default_name
  -OEChem-01062215323D

 23 22  0     1  0  0  0  0  0999 V2000
   -2.6857   -3.6684    0.8743 H   0  0  0  0  0  0  0  0  0  0  0  0
   -2.6617   -2.6474    0.4953 C   0  0  0  0  0  0  0  0  0  0  0  0
   -3.2657   -2.0054    1.1353 H   0  0  0  0  0  0  0  0  0  0  0  0
   -3.0477   -2.6254   -0.5217 H   0  0  0  0  0  0  0  0  0  0  0  0
   -1.2337   -2.1564    0.4993 C   0  0  0  0  0  0  0  0  0  0  0  0
   -0.3327   -2.8864    0.8893 O   0  0  0  0  0  0  0  0  0  0  0  0
   -1.0277   -0.9164    0.0623 N   0  0  0  0  0  0  0  0  0  0  0  0
   -1.8237   -0.3604   -0.2157 H   0  0  0  0  0  0  0  0  0  0  0  0
    0.2713   -0.2414    0.0463 C   0  0  1  0  0  0  0  0  0  0  0  0
    0.7561   -0.3899    1.0132 H   0  0  0  0  0  0  0  0  0  0  0  0
    1.1451   -0.8898   -1.0401 C   0  0  0  0  0  0  0  0  0  0  0  0
    0.6061   -0.8620   -1.9898 H   0  0  0  0  0  0  0  0  0  0  0  0
    2.0731   -0.3244   -1.1463 H   0  0  0  0  0  0  0  0  0  0  0  0
    1.5198   -2.6210   -0.6356 S   0  0  0  0  0  0  0  0  0  0  0  0
    2.1557   -2.9230   -1.7741 H   0  0  0  0  0  0  0  0  0  0  0  0
    0.0789    1.2745   -0.1634 C   0  0  0  0  0  0  0  0  0  0  0  0
   -0.5720    1.9293    0.6514 O   0  0  0  0  0  0  0  0  0  0  0  0
    0.6442    1.8318   -1.2406 N   0  0  0  0  0  0  0  0  0  0  0  0
    1.1069    1.2148   -1.8924 H   0  0  0  0  0  0  0  0  0  0  0  0
    0.5606    3.2525   -1.5742 C   0  0  0  0  0  0  0  0  0  0  0  0
    0.8316    3.8534   -0.7031 H   0  0  0  0  0  0  0  0  0  0  0  0
    1.2371    3.4871   -2.3969 H   0  0  0  0  0  0  0  0  0  0  0  0
   -0.4615    3.5012   -1.8649 H   0  0  0  0  0  0  0  0  0  0  0  0
  5  6  2  0  0  0  0
  5  7  1  0  0  0  0
  2  3  1  0  0  0  0
  2  4  1  0  0  0  0
  2  5  1  0  0  0  0
  1  2  1  0  0  0  0
 16 17  2  0  0  0  0
 16 18  1  0  0  0  0
 14 15  1  0  0  0  0
 11 12  1  0  0  0  0
 11 13  1  0  0  0  0
 11 14  1  0  0  0  0
  9 10  1  0  0  0  0
  9 11  1  0  0  0  0
  9 16  1  0  0  0  0
  7  8  1  0  0  0  0
  7  9  1  0  0  0  0
 20 21  1  0  0  0  0
 20 22  1  0  0  0  0
 20 23  1  0  0  0  0
 18 19  1  0  0  0  0
 18 20  1  0  0  0  0
M  END
$$$$
default_name
  -OEChem-01062215323D

 23 22  0     1  0  0  0  0  0999 V2000
   -2.6857   -3.6684    0.8743 H   0  0  0  0  0  0  0  0  0  0  0  0
   -2.6617   -2.6474    0.4953 C   0  0  0  0  0  0  0  0  0  0  0  0
   -3.2657   -2.0054    1.1353 H   0  0  0  0  0  0  0  0  0  0  0  0
   -3.0477   -2.6254   -0.5217 H   0  0  0  0  0  0  0  0  0  0  0  0
   -1.2337   -2.1564    0.4993 C   0  0  0  0  0  0  0  0  0  0  0  0
   -0.3327   -2.8864    0.8893 O   0  0  0  0  0  0  0  0  0  0  0  0
   -1.0277   -0.9164    0.0623 N   0  0  0  0  0  0  0  0  0  0  0  0
   -1.8237   -0.3604   -0.2157 H   0  0  0  0  0  0  0  0  0  0  0  0
    0.2713   -0.2414    0.0463 C   0  0  1  0  0  0  0  0  0  0  0  0
    0.7561   -0.3899    1.0132 H   0  0  0  0  0  0  0  0  0  0  0  0
    1.1451   -0.8898   -1.0401 C   0  0  0  0  0  0  0  0  0  0  0  0
    0.6061   -0.8620   -1.9898 H   0  0  0  0  0  0  0  0  0  0  0  0
    2.0731   -0.3244   -1.1463 H   0  0  0  0  0  0  0  0  0  0  0  0
    1.5198   -2.6210   -0.6356 S   0  0  0  0  0  0  0  0  0  0  0  0
    2.1557   -2.9230   -1.7741 H   0  0  0  0  0  0  0  0  0  0  0  0
    0.0789    1.2745   -0.1634 C   0  0  0  0  0  0  0  0  0  0  0  0
   -0.3221    1.9768    0.7652 O   0  0  0  0  0  0  0  0  0  0  0  0
    0.3679    1.7790   -1.3685 N   0  0  0  0  0  0  0  0  0  0  0  0
    0.6298    1.1264   -2.0933 H   0  0  0  0  0  0  0  0  0  0  0  0
    0.2461    3.1921   -1.7222 C   0  0  0  0  0  0  0  0  0  0  0  0
    0.7487    3.8058   -0.9711 H   0  0  0  0  0  0  0  0  0  0  0  0
    0.6974    3.3770   -2.6977 H   0  0  0  0  0  0  0  0  0  0  0  0
   -0.8080    3.4728   -1.7528 H   0  0  0  0  0  0  0  0  0  0  0  0
  5  6  2  0  0  0  0
  5  7  1  0  0  0  0
  2  3  1  0  0  0  0
  2  4  1  0  0  0  0
  2  5  1  0  0  0  0
  1  2  1  0  0  0  0
 16 17  2  0  0  0  0
 16 18  1  0  0  0  0
 14 15  1  0  0  0  0
 11 12  1  0  0  0  0
 11 13  1  0  0  0  0
 11 14  1  0  0  0  0
  9 10  1  0  0  0  0
  9 11  1  0  0  0  0
  9 16  1  0  0  0  0
  7  8  1  0  0  0  0
  7  9  1  0  0  0  0
 20 21  1  0  0  0  0
 20 22  1  0  0  0  0
 20 23  1  0  0  0  0
 18 19  1  0  0  0  0
 18 20  1  0  0  0  0
M  END
$$$$
default_name
  -OEChem-01062215323D

 23 22  0     1  0  0  0  0  0999 V2000
   -2.6857   -3.6684    0.8743 H   0  0  0  0  0  0  0  0  0  0  0  0
   -2.6617   -2.6474    0.4953 C   0  0  0  0  0  0  0  0  0  0  0  0
   -3.2657   -2.0054    1.1353 H   0  0  0  0  0  0  0  0  0  0  0  0
   -3.0477   -2.6254   -0.5217 H   0  0  0  0  0  0  0  0  0  0  0  0
   -1.2337   -2.1564    0.4993 C   0  0  0  0  0  0  0  0  0  0  0  0
   -0.3327   -2.8864    0.8893 O   0  0  0  0  0  0  0  0  0  0  0  0
   -1.0277   -0.9164    0.0623 N   0  0  0  0  0  0  0  0  0  0  0  0
   -1.8237   -0.3604   -0.2157 H   0  0  0  0  0  0  0  0  0  0  0  0
    0.2713   -0.2414    0.0463 C   0  0  1  0  0  0  0  0  0  0  0  0
    0.7561   -0.3899    1.0132 H   0  0  0  0  0  0  0  0  0  0  0  0
    1.1451   -0.8898   -1.0401 C   0  0  0  0  0  0  0  0  0  0  0  0
    0.6061   -0.8620   -1.9898 H   0  0  0  0  0  0  0  0  0  0  0  0
    2.0731   -0.3244   -1.1463 H   0  0  0  0  0  0  0  0  0  0  0  0
    1.5198   -2.6210   -0.6356 S   0  0  0  0  0  0  0  0  0  0  0  0
    2.1557   -2.9230   -1.7741 H   0  0  0  0  0  0  0  0  0  0  0  0
    0.0789    1.2745   -0.1634 C   0  0  0  0  0  0  0  0  0  0  0  0
   -0.0501    2.0175    0.8100 O   0  0  0  0  0  0  0  0  0  0  0  0
    0.0666    1.7336   -1.4202 N   0  0  0  0  0  0  0  0  0  0  0  0
    0.1147    1.0514   -2.1631 H   0  0  0  0  0  0  0  0  0  0  0  0
   -0.0974    3.1401   -1.7831 C   0  0  0  0  0  0  0  0  0  0  0  0
    0.5989    3.7541   -1.2073 H   0  0  0  0  0  0  0  0  0  0  0  0
    0.0958    3.2799   -2.8474 H   0  0  0  0  0  0  0  0  0  0  0  0
   -1.1153    3.4610   -1.5556 H   0  0  0  0  0  0  0  0  0  0  0  0
  5  6  2  0  0  0  0
  5  7  1  0  0  0  0
  2  3  1  0  0  0  0
  2  4  1  0  0  0  0
  2  5  1  0  0  0  0
  1  2  1  0  0  0  0
 16 17  2  0  0  0  0
 16 18  1  0  0  0  0
 14 15  1  0  0  0  0
 11 12  1  0  0  0  0
 11 13  1  0  0  0  0
 11 14  1  0  0  0  0
  9 10  1  0  0  0  0
  9 11  1  0  0  0  0
  9 16  1  0  0  0  0
  7  8  1  0  0  0  0
  7  9  1  0  0  0  0
 20 21  1  0  0  0  0
 20 22  1  0  0  0  0
 20 23  1  0  0  0  0
 18 19  1  0  0  0  0
 18 20  1  0  0  0  0
M  END
$$$$
default_name
  -OEChem-01062215323D

 23 22  0     1  0  0  0  0  0999 V2000
   -2.6857   -3.6684    0.8743 H   0  0  0  0  0  0  0  0  0  0  0  0
   -2.6617   -2.6474    0.4953 C   0  0  0  0  0  0  0  0  0  0  0  0
   -3.2657   -2.0054    1.1353 H   0  0  0  0  0  0  0  0  0  0  0  0
   -3.0477   -2.6254   -0.5217 H   0  0  0  0  0  0  0  0  0  0  0  0
   -1.2337   -2.1564    0.4993 C   0  0  0  0  0  0  0  0  0  0  0  0
   -0.3327   -2.8864    0.8893 O   0  0  0  0  0  0  0  0  0  0  0  0
   -1.0277   -0.9164    0.0623 N   0  0  0  0  0  0  0  0  0  0  0  0
   -1.8237   -0.3604   -0.2157 H   0  0  0  0  0  0  0  0  0  0  0  0
    0.2713   -0.2414    0.0463 C   0  0  1  0  0  0  0  0  0  0  0  0
    0.7561   -0.3899    1.0132 H   0  0  0  0  0  0  0  0  0  0  0  0
    1.1451   -0.8898   -1.0401 C   0  0  0  0  0  0  0  0  0  0  0  0
    0.6061   -0.8620   -1.9898 H   0  0  0  0  0  0  0  0  0  0  0  0
    2.0731   -0.3244   -1.1463 H   0  0  0  0  0  0  0  0  0  0  0  0
    1.5198   -2.6210   -0.6356 S   0  0  0  0  0  0  0  0  0  0  0  0
    2.1557   -2.9230   -1.7741 H   0  0  0  0  0  0  0  0  0  0  0  0
    0.0789    1.2745   -0.1634 C   0  0  0  0  0  0  0  0  0  0  0  0
    0.2255    2.0487    0.7828 O   0  0  0  0  0  0  0  0  0  0  0  0
   -0.2391    1.6987   -1.3919 N   0  0  0  0  0  0  0  0  0  0  0  0
   -0.4032    0.9948   -2.0970 H   0  0  0  0  0  0  0  0  0  0  0  0
   -0.4465    3.0999   -1.7530 C   0  0  0  0  0  0  0  0  0  0  0  0
    0.3922    3.7018   -1.3957 H   0  0  0  0  0  0  0  0  0  0  0  0
   -0.5268    3.2025   -2.8358 H   0  0  0  0  0  0  0  0  0  0  0  0
   -1.3623    3.4669   -1.2865 H   0  0  0  0  0  0  0  0  0  0  0  0
  5  6  2  0  0  0  0
  5  7  1  0  0  0  0
  2  3  1  0  0  0  0
  2  4  1  0  0  0  0
  2  5  1  0  0  0  0
  1  2  1  0  0  0  0
 16 17  2  0  0  0  0
 16 18  1  0  0  0  0
 14 15  1  0  0  0  0
 11 12  1  0  0  0  0
 11 13  1  0  0  0  0
 11 14  1  0  0  0  0
  9 10  1  0  0  0  0
  9 11  1  0  0  0  0
  9 16  1  0  0  0  0
  7  8  1  0  0  0  0
  7  9  1  0  0  0  0
 20 21  1  0  0  0  0
 20 22  1  0  0  0  0
 20 23  1  0  0  0  0
 18 19  1  0  0  0  0
 18 20  1  0  0  0  0
M  END
$$$$
default_name
  -OEChem-01062215323D

 23 22  0     1  0  0  0  0  0999 V2000
   -2.6857   -3.6684    0.8743 H   0  0  0  0  0  0  0  0  0  0  0  0
   -2.6617   -2.6474    0.4953 C   0  0  0  0  0  0  0  0  0  0  0  0
   -3.2657   -2.0054    1.1353 H   0  0  0  0  0  0  0  0  0  0  0  0
   -3.0477   -2.6254   -0.5217 H   0  0  0  0  0  0  0  0  0  0  0  0
   -1.2337   -2.1564    0.4993 C   0  0  0  0  0  0  0  0  0  0  0  0
   -0.3327   -2.8864    0.8893 O   0  0  0  0  0  0  0  0  0  0  0  0
   -1.0277   -0.9164    0.0623 N   0  0  0  0  0  0  0  0  0  0  0  0
   -1.8237   -0.3604   -0.2157 H   0  0  0  0  0  0  0  0  0  0  0  0
    0.2713   -0.2414    0.0463 C   0  0  1  0  0  0  0  0  0  0  0  0
    0.7561   -0.3899    1.0132 H   0  0  0  0  0  0  0  0  0  0  0  0
    1.1451   -0.8898   -1.0401 C   0  0  0  0  0  0  0  0  0  0  0  0
    0.6061   -0.8620   -1.9898 H   0  0  0  0  0  0  0  0  0  0  0  0
    2.0731   -0.3244   -1.1463 H   0  0  0  0  0  0  0  0  0  0  0  0
    1.5198   -2.6210   -0.6356 S   0  0  0  0  0  0  0  0  0  0  0  0
    2.1557   -2.9230   -1.7741 H   0  0  0  0  0  0  0  0  0  0  0  0
    0.0789    1.2745   -0.1634 C   0  0  0  0  0  0  0  0  0  0  0  0
    0.4858    2.0683    0.6855 O   0  0  0  0  0  0  0  0  0  0  0  0
   -0.5285    1.6767   -1.2858 N   0  0  0  0  0  0  0  0  0  0  0  0
   -0.8887    0.9605   -1.8997 H   0  0  0  0  0  0  0  0  0  0  0  0
   -0.7775    3.0744   -1.6337 C   0  0  0  0  0  0  0  0  0  0  0  0
    0.1428    3.6524   -1.5235 H   0  0  0  0  0  0  0  0  0  0  0  0
   -1.1280    3.1500   -2.6637 H   0  0  0  0  0  0  0  0  0  0  0  0
   -1.5323    3.4900   -0.9639 H   0  0  0  0  0  0  0  0  0  0  0  0
  5  6  2  0  0  0  0
  5  7  1  0  0  0  0
  2  3  1  0  0  0  0
  2  4  1  0  0  0  0
  2  5  1  0  0  0  0
  1  2  1  0  0  0  0
 16 17  2  0  0  0  0
 16 18  1  0  0  0  0
 14 15  1  0  0  0  0
 11 12  1  0  0  0  0
 11 13  1  0  0  0  0
 11 14  1  0  0  0  0
  9 10  1  0  0  0  0
  9 11  1  0  0  0  0
  9 16  1  0  0  0  0
  7  8  1  0  0  0  0
  7  9  1  0  0  0  0
 20 21  1  0  0  0  0
 20 22  1  0  0  0  0
 20 23  1  0  0  0  0
 18 19  1  0  0  0  0
 18 20  1  0  0  0  0
M  END
$$$$
default_name
  -OEChem-01062215323D

 23 22  0     1  0  0  0  0  0999 V2000
   -2.6857   -3.6684    0.8743 H   0  0  0  0  0  0  0  0  0  0  0  0
   -2.6617   -2.6474    0.4953 C   0  0  0  0  0  0  0  0  0  0  0  0
   -3.2657   -2.0054    1.1353 H   0  0  0  0  0  0  0  0  0  0  0  0
   -3.0477   -2.6254   -0.5217 H   0  0  0  0  0  0  0  0  0  0  0  0
   -1.2337   -2.1564    0.4993 C   0  0  0  0  0  0  0  0  0  0  0  0
   -0.3327   -2.8864    0.8893 O   0  0  0  0  0  0  0  0  0  0  0  0
   -1.0277   -0.9164    0.0623 N   0  0  0  0  0  0  0  0  0  0  0  0
   -1.8237   -0.3604   -0.2157 H   0  0  0  0  0  0  0  0  0  0  0  0
    0.2713   -0.2414    0.0463 C   0  0  1  0  0  0  0  0  0  0  0  0
    0.7561   -0.3899    1.0132 H   0  0  0  0  0  0  0  0  0  0  0  0
    1.1451   -0.8898   -1.0401 C   0  0  0  0  0  0  0  0  0  0  0  0
    0.6061   -0.8620   -1.9898 H   0  0  0  0  0  0  0  0  0  0  0  0
    2.0731   -0.3244   -1.1463 H   0  0  0  0  0  0  0  0  0  0  0  0
    1.5198   -2.6210   -0.6356 S   0  0  0  0  0  0  0  0  0  0  0  0
    2.1557   -2.9230   -1.7741 H   0  0  0  0  0  0  0  0  0  0  0  0
    0.0789    1.2745   -0.1634 C   0  0  0  0  0  0  0  0  0  0  0  0
    0.7132    2.0749    0.5246 O   0  0  0  0  0  0  0  0  0  0  0  0
   -0.7818    1.6690   -1.1089 N   0  0  0  0  0  0  0  0  0  0  0  0
   -1.3087    0.9508   -1.5845 H   0  0  0  0  0  0  0  0  0  0  0  0
   -1.0678    3.0653   -1.4335 C   0  0  0  0  0  0  0  0  0  0  0  0
   -0.1323    3.6094   -1.5818 H   0  0  0  0  0  0  0  0  0  0  0  0
   -1.6668    3.1260   -2.3429 H   0  0  0  0  0  0  0  0  0  0  0  0
   -1.6136    3.5287   -0.6098 H   0  0  0  0  0  0  0  0  0  0  0  0
  5  6  2  0  0  0  0
  5  7  1  0  0  0  0
  2  3  1  0  0  0  0
  2  4  1  0  0  0  0
  2  5  1  0  0  0  0
  1  2  1  0  0  0  0
 16 17  2  0  0  0  0
 16 18  1  0  0  0  0
 14 15  1  0  0  0  0
 11 12  1  0  0  0  0
 11 13  1  0  0  0  0
 11 14  1  0  0  0  0
  9 10  1  0  0  0  0
  9 11  1  0  0  0  0
  9 16  1  0  0  0  0
  7  8  1  0  0  0  0
  7  9  1  0  0  0  0
 20 21  1  0  0  0  0
 20 22  1  0  0  0  0
 20 23  1  0  0  0  0
 18 19  1  0  0  0  0
 18 20  1  0  0  0  0
M  END
$$$$
default_name
  -OEChem-01062215323D

 23 22  0     1  0  0  0  0  0999 V2000
   -2.6857   -3.6684    0.8743 H   0  0  0  0  0  0  0  0  0  0  0  0
   -2.6617   -2.6474    0.4953 C   0  0  0  0  0  0  0  0  0  0  0  0
   -3.2657   -2.0054    1.1353 H   0  0  0  0  0  0  0  0  0  0  0  0
   -3.0477   -2.6254   -0.5217 H   0  0  0  0  0  0  0  0  0  0  0  0
   -1.2337   -2.1564    0.4993 C   0  0  0  0  0  0  0  0  0  0  0  0
   -0.3327   -2.8864    0.8893 O   0  0  0  0  0  0  0  0  0  0  0  0
   -1.0277   -0.9164    0.0623 N   0  0  0  0  0  0  0  0  0  0  0  0
   -1.8237   -0.3604   -0.2157 H   0  0  0  0  0  0  0  0  0  0  0  0
    0.2713   -0.2414    0.0463 C   0  0  1  0  0  0  0  0  0  0  0  0
    0.7561   -0.3899    1.0132 H   0  0  0  0  0  0  0  0  0  0  0  0
    1.1451   -0.8898   -1.0401 C   0  0  0  0  0  0  0  0  0  0  0  0
    0.6061   -0.8620   -1.9898 H   0  0  0  0  0  0  0  0  0  0  0  0
    2.0731   -0.3244   -1.1463 H   0  0  0  0  0  0  0  0  0  0  0  0
    1.5198   -2.6210   -0.6356 S   0  0  0  0  0  0  0  0  0  0  0  0
    2.1557   -2.9230   -1.7741 H   0  0  0  0  0  0  0  0  0  0  0  0
    0.0789    1.2745   -0.1634 C   0  0  0  0  0  0  0  0  0  0  0  0
    0.8922    2.0681    0.3111 O   0  0  0  0  0  0  0  0  0  0  0  0
   -0.9817    1.6762   -0.8734 N   0  0  0  0  0  0  0  0  0  0  0  0
   -1.6344    0.9664   -1.1729 H   0  0  0  0  0  0  0  0  0  0  0  0
   -1.2976    3.0731   -1.1659 C   0  0  0  0  0  0  0  0  0  0  0  0
   -0.4144    3.5757   -1.5668 H   0  0  0  0  0  0  0  0  0  0  0  0
   -2.1064    3.1322   -1.8951 H   0  0  0  0  0  0  0  0  0  0  0  0
   -1.6007    3.5803   -0.2484 H   0  0  0  0  0  0  0  0  0  0  0  0
  5  6  2  0  0  0  0
  5  7  1  0  0  0  0
  2  3  1  0  0  0  0
  2  4  1  0  0  0  0
  2  5  1  0  0  0  0
  1  2  1  0  0  0  0
 16 17  2  0  0  0  0
 16 18  1  0  0  0  0
 14 15  1  0  0  0  0
 11 12  1  0  0  0  0
 11 13  1  0  0  0  0
 11 14  1  0  0  0  0
  9 10  1  0  0  0  0
  9 11  1  0  0  0  0
  9 16  1  0  0  0  0
  7  8  1  0  0  0  0
  7  9  1  0  0  0  0
 20 21  1  0  0  0  0
 20 22  1  0  0  0  0
 20 23  1  0  0  0  0
 18 19  1  0  0  0  0
 18 20  1  0  0  0  0
M  END
$$$$
default_name
  -OEChem-01062215323D

 23 22  0     1  0  0  0  0  0999 V2000
   -2.6857   -3.6684    0.8743 H   0  0  0  0  0  0  0  0  0  0  0  0
   -2.6617   -2.6474    0.4953 C   0  0  0  0  0  0  0  0  0  0  0  0
   -3.2657   -2.0054    1.1353 H   0  0  0  0  0  0  0  0  0  0  0  0
   -3.0477   -2.6254   -0.5217 H   0  0  0  0  0  0  0  0  0  0  0  0
   -1.2337   -2.1564    0.4993 C   0  0  0  0  0  0  0  0  0  0  0  0
   -0.3327   -2.8864    0.8893 O   0  0  0  0  0  0  0  0  0  0  0  0
   -1.0277   -0.9164    0.0623 N   0  0  0  0  0  0  0  0  0  0  0  0
   -1.8237   -0.3604   -0.2157 H   0  0  0  0  0  0  0  0  0  0  0  0
    0.2713   -0.2414    0.0463 C   0  0  1  0  0  0  0  0  0  0  0  0
    0.7561   -0.3899    1.0132 H   0  0  0  0  0  0  0  0  0  0  0  0
    1.1451   -0.8898   -1.0401 C   0  0  0  0  0  0  0  0  0  0  0  0
    0.6061   -0.8620   -1.9898 H   0  0  0  0  0  0  0  0  0  0  0  0
    2.0731   -0.3244   -1.1463 H   0  0  0  0  0  0  0  0  0  0  0  0
    1.5198   -2.6210   -0.6356 S   0  0  0  0  0  0  0  0  0  0  0  0
    2.1557   -2.9230   -1.7741 H   0  0  0  0  0  0  0  0  0  0  0  0
    0.0789    1.2745   -0.1634 C   0  0  0  0  0  0  0  0  0  0  0  0
    1.0105    2.0483    0.0596 O   0  0  0  0  0  0  0  0  0  0  0  0
   -1.1147    1.6978   -0.5952 N   0  0  0  0  0  0  0  0  0  0  0  0
   -1.8439    1.0062   -0.6929 H   0  0  0  0  0  0  0  0  0  0  0  0
   -1.4512    3.0974   -0.8493 C   0  0  0  0  0  0  0  0  0  0  0  0
   -0.6843    3.5535   -1.4794 H   0  0  0  0  0  0  0  0  0  0  0  0
   -2.4170    3.1680   -1.3510 H   0  0  0  0  0  0  0  0  0  0  0  0
   -1.4945    3.6414    0.0958 H   0  0  0  0  0  0  0  0  0  0  0  0
  5  6  2  0  0  0  0
  5  7  1  0  0  0  0
  2  3  1  0  0  0  0
  2  4  1  0  0  0  0
  2  5  1  0  0  0  0
  1  2  1  0  0  0  0
 16 17  2  0  0  0  0
 16 18  1  0  0  0  0
 14 15  1  0  0  0  0
 11 12  1  0  0  0  0
 11 13  1  0  0  0  0
 11 14  1  0  0  0  0
  9 10  1  0  0  0  0
  9 11  1  0  0  0  0
  9 16  1  0  0  0  0
  7  8  1  0  0  0  0
  7  9  1  0  0  0  0
 20 21  1  0  0  0  0
 20 22  1  0  0  0  0
 20 23  1  0  0  0  0
 18 19  1  0  0  0  0
 18 20  1  0  0  0  0
M  END
$$$$
default_name
  -OEChem-01062215323D

 23 22  0     1  0  0  0  0  0999 V2000
   -2.6857   -3.6684    0.8743 H   0  0  0  0  0  0  0  0  0  0  0  0
   -2.6617   -2.6474    0.4953 C   0  0  0  0  0  0  0  0  0  0  0  0
   -3.2657   -2.0054    1.1353 H   0  0  0  0  0  0  0  0  0  0  0  0
   -3.0477   -2.6254   -0.5217 H   0  0  0  0  0  0  0  0  0  0  0  0
   -1.2337   -2.1564    0.4993 C   0  0  0  0  0  0  0  0  0  0  0  0
   -0.3327   -2.8864    0.8893 O   0  0  0  0  0  0  0  0  0  0  0  0
   -1.0277   -0.9164    0.0623 N   0  0  0  0  0  0  0  0  0  0  0  0
   -1.8237   -0.3604   -0.2157 H   0  0  0  0  0  0  0  0  0  0  0  0
    0.2713   -0.2414    0.0463 C   0  0  1  0  0  0  0  0  0  0  0  0
    0.7561   -0.3899    1.0132 H   0  0  0  0  0  0  0  0  0  0  0  0
    1.1451   -0.8898   -1.0401 C   0  0  0  0  0  0  0  0  0  0  0  0
    0.6061   -0.8620   -1.9898 H   0  0  0  0  0  0  0  0  0  0  0  0
    2.0731   -0.3244   -1.1463 H   0  0  0  0  0  0  0  0  0  0  0  0
    1.5198   -2.6210   -0.6356 S   0  0  0  0  0  0  0  0  0  0  0  0
    2.1557   -2.9230   -1.7741 H   0  0  0  0  0  0  0  0  0  0  0  0
    0.0789    1.2745   -0.1634 C   0  0  0  0  0  0  0  0  0  0  0  0
    1.0601    2.0169   -0.2128 O   0  0  0  0  0  0  0  0  0  0  0  0
   -1.1716    1.7323   -0.2935 N   0  0  0  0  0  0  0  0  0  0  0  0
   -1.9227    1.0676   -0.1773 H   0  0  0  0  0  0  0  0  0  0  0  0
   -1.5182    3.1366   -0.5052 C   0  0  0  0  0  0  0  0  0  0  0  0
   -0.9235    3.5445   -1.3257 H   0  0  0  0  0  0  0  0  0  0  0  0
   -2.5773    3.2312   -0.7476 H   0  0  0  0  0  0  0  0  0  0  0  0
   -1.3022    3.7078    0.3992 H   0  0  0  0  0  0  0  0  0  0  0  0
  5  6  2  0  0  0  0
  5  7  1  0  0  0  0
  2  3  1  0  0  0  0
  2  4  1  0  0  0  0
  2  5  1  0  0  0  0
  1  2  1  0  0  0  0
 16 17  2  0  0  0  0
 16 18  1  0  0  0  0
 14 15  1  0  0  0  0
 11 12  1  0  0  0  0
 11 13  1  0  0  0  0
 11 14  1  0  0  0  0
  9 10  1  0  0  0  0
  9 11  1  0  0  0  0
  9 16  1  0  0  0  0
  7  8  1  0  0  0  0
  7  9  1  0  0  0  0
 20 21  1  0  0  0  0
 20 22  1  0  0  0  0
 20 23  1  0  0  0  0
 18 19  1  0  0  0  0
 18 20  1  0  0  0  0
M  END
$$$$
default_name
  -OEChem-01062215323D

 23 22  0     1  0  0  0  0  0999 V2000
   -2.6857   -3.6684    0.8743 H   0  0  0  0  0  0  0  0  0  0  0  0
   -2.6617   -2.6474    0.4953 C   0  0  0  0  0  0  0  0  0  0  0  0
   -3.2657   -2.0054    1.1353 H   0  0  0  0  0  0  0  0  0  0  0  0
   -3.0477   -2.6254   -0.5217 H   0  0  0  0  0  0  0  0  0  0  0  0
   -1.2337   -2.1564    0.4993 C   0  0  0  0  0  0  0  0  0  0  0  0
   -0.3327   -2.8864    0.8893 O   0  0  0  0  0  0  0  0  0  0  0  0
   -1.0277   -0.9164    0.0623 N   0  0  0  0  0  0  0  0  0  0  0  0
   -1.8237   -0.3604   -0.2157 H   0  0  0  0  0  0  0  0  0  0  0  0
    0.2713   -0.2414    0.0463 C   0  0  1  0  0  0  0  0  0  0  0  0
    0.7561   -0.3899    1.0132 H   0  0  0  0  0  0  0  0  0  0  0  0
    1.1451   -0.8898   -1.0401 C   0  0  0  0  0  0  0  0  0  0  0  0
    0.6061   -0.8620   -1.9898 H   0  0  0  0  0  0  0  0  0  0  0  0
    2.0731   -0.3244   -1.1463 H   0  0  0  0  0  0  0  0  0  0  0  0
    1.5198   -2.6210   -0.6356 S   0  0  0  0  0  0  0  0  0  0  0  0
    2.1557   -2.9230   -1.7741 H   0  0  0  0  0  0  0  0  0  0  0  0
    0.0789    1.2745   -0.1634 C   0  0  0  0  0  0  0  0  0  0  0  0
    1.0377    1.9760   -0.4875 O   0  0  0  0  0  0  0  0  0  0  0  0
   -1.1486    1.7774    0.0114 N   0  0  0  0  0  0  0  0  0  0  0  0
   -1.8655    1.1462    0.3388 H   0  0  0  0  0  0  0  0  0  0  0  0
   -1.4940    3.1878   -0.1570 C   0  0  0  0  0  0  0  0  0  0  0  0
   -1.1157    3.5491   -1.1160 H   0  0  0  0  0  0  0  0  0  0  0  0
   -2.5765    3.3173   -0.1260 H   0  0  0  0  0  0  0  0  0  0  0  0
   -1.0369    3.7750    0.6413 H   0  0  0  0  0  0  0  0  0  0  0  0
  5  6  2  0  0  0  0
  5  7  1  0  0  0  0
  2  3  1  0  0  0  0
  2  4  1  0  0  0  0
  2  5  1  0  0  0  0
  1  2  1  0  0  0  0
 16 17  2  0  0  0  0
 16 18  1  0  0  0  0
 14 15  1  0  0  0  0
 11 12  1  0  0  0  0
 11 13  1  0  0  0  0
 11 14  1  0  0  0  0
  9 10  1  0  0  0  0
  9 11  1  0  0  0  0
  9 16  1  0  0  0  0
  7  8  1  0  0  0  0
  7  9  1  0  0  0  0
 20 21  1  0  0  0  0
 20 22  1  0  0  0  0
 20 23  1  0  0  0  0
 18 19  1  0  0  0  0
 18 20  1  0  0  0  0
M  END
$$$$
default_name
  -OEChem-01062215323D

 23 22  0     1  0  0  0  0  0999 V2000
   -2.6857   -3.6684    0.8743 H   0  0  0  0  0  0  0  0  0  0  0  0
   -2.6617   -2.6474    0.4953 C   0  0  0  0  0  0  0  0  0  0  0  0
   -3.2657   -2.0054    1.1353 H   0  0  0  0  0  0  0  0  0  0  0  0
   -3.0477   -2.6254   -0.5217 H   0  0  0  0  0  0  0  0  0  0  0  0
   -1.2337   -2.1564    0.4993 C   0  0  0  0  0  0  0  0  0  0  0  0
   -0.3327   -2.8864    0.8893 O   0  0  0  0  0  0  0  0  0  0  0  0
   -1.0277   -0.9164    0.0623 N   0  0  0  0  0  0  0  0  0  0  0  0
   -1.8237   -0.3604   -0.2157 H   0  0  0  0  0  0  0  0  0  0  0  0
    0.2713   -0.2414    0.0463 C   0  0  1  0  0  0  0  0  0  0  0  0
    0.7561   -0.3899    1.0132 H   0  0  0  0  0  0  0  0  0  0  0  0
    1.1451   -0.8898   -1.0401 C   0  0  0  0  0  0  0  0  0  0  0  0
    0.6061   -0.8620   -1.9898 H   0  0  0  0  0  0  0  0  0  0  0  0
    2.0731   -0.3244   -1.1463 H   0  0  0  0  0  0  0  0  0  0  0  0
    1.5198   -2.6210   -0.6356 S   0  0  0  0  0  0  0  0  0  0  0  0
    2.1557   -2.9230   -1.7741 H   0  0  0  0  0  0  0  0  0  0  0  0
    0.0789    1.2745   -0.1634 C   0  0  0  0  0  0  0  0  0  0  0  0
    0.9446    1.9285   -0.7459 O   0  0  0  0  0  0  0  0  0  0  0  0
   -1.0472    1.8300    0.2986 N   0  0  0  0  0  0  0  0  0  0  0  0
   -1.6762    1.2369    0.8202 H   0  0  0  0  0  0  0  0  0  0  0  0
   -1.3802    3.2477    0.1715 C   0  0  0  0  0  0  0  0  0  0  0  0
   -1.2480    3.5670   -0.8648 H   0  0  0  0  0  0  0  0  0  0  0  0
   -2.4145    3.4205    0.4714 H   0  0  0  0  0  0  0  0  0  0  0  0
   -0.7168    3.8383    0.8055 H   0  0  0  0  0  0  0  0  0  0  0  0
  5  6  2  0  0  0  0
  5  7  1  0  0  0  0
  2  3  1  0  0  0  0
  2  4  1  0  0  0  0
  2  5  1  0  0  0  0
  1  2  1  0  0  0  0
 16 17  2  0  0  0  0
 16 18  1  0  0  0  0
 14 15  1  0  0  0  0
 11 12  1  0  0  0  0
 11 13  1  0  0  0  0
 11 14  1  0  0  0  0
  9 10  1  0  0  0  0
  9 11  1  0  0  0  0
  9 16  1  0  0  0  0
  7  8  1  0  0  0  0
  7  9  1  0  0  0  0
 20 21  1  0  0  0  0
 20 22  1  0  0  0  0
 20 23  1  0  0  0  0
 18 19  1  0  0  0  0
 18 20  1  0  0  0  0
M  END
$$$$
default_name
  -OEChem-01062215323D

 23 22  0     1  0  0  0  0  0999 V2000
   -2.6857   -3.6684    0.8743 H   0  0  0  0  0  0  0  0  0  0  0  0
   -2.6617   -2.6474    0.4953 C   0  0  0  0  0  0  0  0  0  0  0  0
   -3.2657   -2.0054    1.1353 H   0  0  0  0  0  0  0  0  0  0  0  0
   -3.0477   -2.6254   -0.5217 H   0  0  0  0  0  0  0  0  0  0  0  0
   -1.2337   -2.1564    0.4993 C   0  0  0  0  0  0  0  0  0  0  0  0
   -0.3327   -2.8864    0.8893 O   0  0  0  0  0  0  0  0  0  0  0  0
   -1.0277   -0.9164    0.0623 N   0  0  0  0  0  0  0  0  0  0  0  0
   -1.8237   -0.3604   -0.2157 H   0  0  0  0  0  0  0  0  0  0  0  0
    0.2713   -0.2414    0.0463 C   0  0  1  0  0  0  0  0  0  0  0  0
    0.7561   -0.3899    1.0132 H   0  0  0  0  0  0  0  0  0  0  0  0
    1.1451   -0.8898   -1.0401 C   0  0  0  0  0  0  0  0  0  0  0  0
    0.6061   -0.8620   -1.9898 H   0  0  0  0  0  0  0  0  0  0  0  0
    2.0731   -0.3244   -1.1463 H   0  0  0  0  0  0  0  0  0  0  0  0
    1.5198   -2.6210   -0.6356 S   0  0  0  0  0  0  0  0  0  0  0  0
    2.1557   -2.9230   -1.7741 H   0  0  0  0  0  0  0  0  0  0  0  0
    0.0789    1.2745   -0.1634 C   0  0  0  0  0  0  0  0  0  0  0  0
    0.7874    1.8775   -0.9702 O   0  0  0  0  0  0  0  0  0  0  0  0
   -0.8744    1.8866    0.5484 N   0  0  0  0  0  0  0  0  0  0  0  0
   -1.3677    1.3333    1.2341 H   0  0  0  0  0  0  0  0  0  0  0  0
   -1.1847    3.3122    0.4579 C   0  0  0  0  0  0  0  0  0  0  0  0
   -1.3112    3.5972   -0.5890 H   0  0  0  0  0  0  0  0  0  0  0  0
   -2.1024    3.5338    1.0039 H   0  0  0  0  0  0  0  0  0  0  0  0
   -0.3635    3.8936    0.8806 H   0  0  0  0  0  0  0  0  0  0  0  0
  5  6  2  0  0  0  0
  5  7  1  0  0  0  0
  2  3  1  0  0  0  0
  2  4  1  0  0  0  0
  2  5  1  0  0  0  0
  1  2  1  0  0  0  0
 16 17  2  0  0  0  0
 16 18  1  0  0  0  0
 14 15  1  0  0  0  0
 11 12  1  0  0  0  0
 11 13  1  0  0  0  0
 11 14  1  0  0  0  0
  9 10  1  0  0  0  0
  9 11  1  0  0  0  0
  9 16  1  0  0  0  0
  7  8  1  0  0  0  0
  7  9  1  0  0  0  0
 20 21  1  0  0  0  0
 20 22  1  0  0  0  0
 20 23  1  0  0  0  0
 18 19  1  0  0  0  0
 18 20  1  0  0  0  0
M  END
$$$$
default_name
  -OEChem-01062215323D

 23 22  0     1  0  0  0  0  0999 V2000
   -2.6857   -3.6684    0.8743 H   0  0  0  0  0  0  0  0  0  0  0  0
   -2.6617   -2.6474    0.4953 C   0  0  0  0  0  0  0  0  0  0  0  0
   -3.2657   -2.0054    1.1353 H   0  0  0  0  0  0  0  0  0  0  0  0
   -3.0477   -2.6254   -0.5217 H   0  0  0  0  0  0  0  0  0  0  0  0
   -1.2337   -2.1564    0.4993 C   0  0  0  0  0  0  0  0  0  0  0  0
   -0.3327   -2.8864    0.8893 O   0  0  0  0  0  0  0  0  0  0  0  0
   -1.0277   -0.9164    0.0623 N   0  0  0  0  0  0  0  0  0  0  0  0
   -1.8237   -0.3604   -0.2157 H   0  0  0  0  0  0  0  0  0  0  0  0
    0.2713   -0.2414    0.0463 C   0  0  1  0  0  0  0  0  0  0  0  0
    0.7561   -0.3899    1.0132 H   0  0  0  0  0  0  0  0  0  0  0  0
    1.1451   -0.8898   -1.0401 C   0  0  0  0  0  0  0  0  0  0  0  0
    0.6061   -0.8620   -1.9898 H   0  0  0  0  0  0  0  0  0  0  0  0
    2.0731   -0.3244   -1.1463 H   0  0  0  0  0  0  0  0  0  0  0  0
    1.5198   -2.6210   -0.6356 S   0  0  0  0  0  0  0  0  0  0  0  0
    2.1557   -2.9230   -1.7741 H   0  0  0  0  0  0  0  0  0  0  0  0
    0.0789    1.2745   -0.1634 C   0  0  0  0  0  0  0  0  0  0  0  0
    0.5767    1.8265   -1.1452 O   0  0  0  0  0  0  0  0  0  0  0  0
   -0.6420    1.9431    0.7440 N   0  0  0  0  0  0  0  0  0  0  0  0
   -0.9611    1.4290    1.5524 H   0  0  0  0  0  0  0  0  0  0  0  0
   -0.9207    3.3768    0.6827 C   0  0  0  0  0  0  0  0  0  0  0  0
   -1.3010    3.6374   -0.3076 H   0  0  0  0  0  0  0  0  0  0  0  0
   -1.6615    3.6495    1.4352 H   0  0  0  0  0  0  0  0  0  0  0  0
   -0.0013    3.9369    0.8614 H   0  0  0  0  0  0  0  0  0  0  0  0
  5  6  2  0  0  0  0
  5  7  1  0  0  0  0
  2  3  1  0  0  0  0
  2  4  1  0  0  0  0
  2  5  1  0  0  0  0
  1  2  1  0  0  0  0
 16 17  2  0  0  0  0
 16 18  1  0  0  0  0
 14 15  1  0  0  0  0
 11 12  1  0  0  0  0
 11 13  1  0  0  0  0
 11 14  1  0  0  0  0
  9 10  1  0  0  0  0
  9 11  1  0  0  0  0
  9 16  1  0  0  0  0
  7  8  1  0  0  0  0
  7  9  1  0  0  0  0
 20 21  1  0  0  0  0
 20 22  1  0  0  0  0
 20 23  1  0  0  0  0
 18 19  1  0  0  0  0
 18 20  1  0  0  0  0
M  END
$$$$
default_name
  -OEChem-01062215323D

 23 22  0     1  0  0  0  0  0999 V2000
   -2.6857   -3.6684    0.8743 H   0  0  0  0  0  0  0  0  0  0  0  0
   -2.6617   -2.6474    0.4953 C   0  0  0  0  0  0  0  0  0  0  0  0
   -3.2657   -2.0054    1.1353 H   0  0  0  0  0  0  0  0  0  0  0  0
   -3.0477   -2.6254   -0.5217 H   0  0  0  0  0  0  0  0  0  0  0  0
   -1.2337   -2.1564    0.4993 C   0  0  0  0  0  0  0  0  0  0  0  0
   -0.3327   -2.8864    0.8893 O   0  0  0  0  0  0  0  0  0  0  0  0
   -1.0277   -0.9164    0.0623 N   0  0  0  0  0  0  0  0  0  0  0  0
   -1.8237   -0.3604   -0.2157 H   0  0  0  0  0  0  0  0  0  0  0  0
    0.2713   -0.2414    0.0463 C   0  0  1  0  0  0  0  0  0  0  0  0
    0.7561   -0.3899    1.0132 H   0  0  0  0  0  0  0  0  0  0  0  0
    1.1451   -0.8898   -1.0401 C   0  0  0  0  0  0  0  0  0  0  0  0
    0.6061   -0.8620   -1.9898 H   0  0  0  0  0  0  0  0  0  0  0  0
    2.0731   -0.3244   -1.1463 H   0  0  0  0  0  0  0  0  0  0  0  0
    1.5198   -2.6210   -0.6356 S   0  0  0  0  0  0  0  0  0  0  0  0
    2.1557   -2.9230   -1.7741 H   0  0  0  0  0  0  0  0  0  0  0  0
    0.0789    1.2745   -0.1634 C   0  0  0  0  0  0  0  0  0  0  0  0
    0.3268    1.7790   -1.2591 O   0  0  0  0  0  0  0  0  0  0  0  0
   -0.3657    1.9959    0.8720 N   0  0  0  0  0  0  0  0  0  0  0  0
   -0.4839    1.5173    1.7532 H   0  0  0  0  0  0  0  0  0  0  0  0
   -0.6062    3.4372    0.8307 C   0  0  0  0  0  0  0  0  0  0  0  0
   -1.2181    3.6850   -0.0396 H   0  0  0  0  0  0  0  0  0  0  0  0
   -1.1219    3.7596    1.7360 H   0  0  0  0  0  0  0  0  0  0  0  0
    0.3453    3.9654    0.7494 H   0  0  0  0  0  0  0  0  0  0  0  0
  5  6  2  0  0  0  0
  5  7  1  0  0  0  0
  2  3  1  0  0  0  0
  2  4  1  0  0  0  0
  2  5  1  0  0  0  0
  1  2  1  0  0  0  0
 16 17  2  0  0  0  0
 16 18  1  0  0  0  0
 14 15  1  0  0  0  0
 11 12  1  0  0  0  0
 11 13  1  0  0  0  0
 11 14  1  0  0  0  0
  9 10  1  0  0  0  0
  9 11  1  0  0  0  0
  9 16  1  0  0  0  0
  7  8  1  0  0  0  0
  7  9  1  0  0  0  0
 20 21  1  0  0  0  0
 20 22  1  0  0  0  0
 20 23  1  0  0  0  0
 18 19  1  0  0  0  0
 18 20  1  0  0  0  0
M  END
$$$$
default_name
  -OEChem-01062215323D

 23 22  0     1  0  0  0  0  0999 V2000
   -2.6857   -3.6684    0.8743 H   0  0  0  0  0  0  0  0  0  0  0  0
   -2.6617   -2.6474    0.4953 C   0  0  0  0  0  0  0  0  0  0  0  0
   -3.2657   -2.0054    1.1353 H   0  0  0  0  0  0  0  0  0  0  0  0
   -3.0477   -2.6254   -0.5217 H   0  0  0  0  0  0  0  0  0  0  0  0
   -1.2337   -2.1564    0.4993 C   0  0  0  0  0  0  0  0  0  0  0  0
   -0.3327   -2.8864    0.8893 O   0  0  0  0  0  0  0  0  0  0  0  0
   -1.0277   -0.9164    0.0623 N   0  0  0  0  0  0  0  0  0  0  0  0
   -1.8237   -0.3604   -0.2157 H   0  0  0  0  0  0  0  0  0  0  0  0
    0.2713   -0.2414    0.0463 C   0  0  1  0  0  0  0  0  0  0  0  0
    0.7561   -0.3899    1.0132 H   0  0  0  0  0  0  0  0  0  0  0  0
    1.1451   -0.8898   -1.0401 C   0  0  0  0  0  0  0  0  0  0  0  0
    0.6061   -0.8620   -1.9898 H   0  0  0  0  0  0  0  0  0  0  0  0
    2.0731   -0.3244   -1.1463 H   0  0  0  0  0  0  0  0  0  0  0  0
    1.5198   -2.6210   -0.6356 S   0  0  0  0  0  0  0  0  0  0  0  0
    2.1557   -2.9230   -1.7741 H   0  0  0  0  0  0  0  0  0  0  0  0
    0.0789    1.2745   -0.1634 C   0  0  0  0  0  0  0  0  0  0  0  0
    0.0548    1.7383   -1.3039 O   0  0  0  0  0  0  0  0  0  0  0  0
   -0.0644    2.0413    0.9236 N   0  0  0  0  0  0  0  0  0  0  0  0
    0.0312    1.5923    1.8230 H   0  0  0  0  0  0  0  0  0  0  0  0
   -0.2627    3.4892    0.8916 C   0  0  0  0  0  0  0  0  0  0  0  0
   -1.0683    3.7367    0.1967 H   0  0  0  0  0  0  0  0  0  0  0  0
   -0.5203    3.8566    1.8857 H   0  0  0  0  0  0  0  0  0  0  0  0
    0.6526    3.9771    0.5522 H   0  0  0  0  0  0  0  0  0  0  0  0
  5  6  2  0  0  0  0
  5  7  1  0  0  0  0
  2  3  1  0  0  0  0
  2  4  1  0  0  0  0
  2  5  1  0  0  0  0
  1  2  1  0  0  0  0
 16 17  2  0  0  0  0
 16 18  1  0  0  0  0
 14 15  1  0  0  0  0
 11 12  1  0  0  0  0
 11 13  1  0  0  0  0
 11 14  1  0  0  0  0
  9 10  1  0  0  0  0
  9 11  1  0  0  0  0
  9 16  1  0  0  0  0
  7  8  1  0  0  0  0
  7  9  1  0  0  0  0
 20 21  1  0  0  0  0
 20 22  1  0  0  0  0
 20 23  1  0  0  0  0
 18 19  1  0  0  0  0
 18 20  1  0  0  0  0
M  END
$$$$
default_name
  -OEChem-01062215323D

 23 22  0     1  0  0  0  0  0999 V2000
   -2.6857   -3.6684    0.8743 H   0  0  0  0  0  0  0  0  0  0  0  0
   -2.6617   -2.6474    0.4953 C   0  0  0  0  0  0  0  0  0  0  0  0
   -3.2657   -2.0054    1.1353 H   0  0  0  0  0  0  0  0  0  0  0  0
   -3.0477   -2.6254   -0.5217 H   0  0  0  0  0  0  0  0  0  0  0  0
   -1.2337   -2.1564    0.4993 C   0  0  0  0  0  0  0  0  0  0  0  0
   -0.3327   -2.8864    0.8893 O   0  0  0  0  0  0  0  0  0  0  0  0
   -1.0277   -0.9164    0.0623 N   0  0  0  0  0  0  0  0  0  0  0  0
   -1.8237   -0.3604   -0.2157 H   0  0  0  0  0  0  0  0  0  0  0  0
    0.2713   -0.2414    0.0463 C   0  0  1  0  0  0  0  0  0  0  0  0
    0.7561   -0.3899    1.0132 H   0  0  0  0  0  0  0  0  0  0  0  0
    1.1451   -0.8898   -1.0401 C   0  0  0  0  0  0  0  0  0  0  0  0
    0.6061   -0.8620   -1.9898 H   0  0  0  0  0  0  0  0  0  0  0  0
    2.0731   -0.3244   -1.1463 H   0  0  0  0  0  0  0  0  0  0  0  0
    1.5198   -2.6210   -0.6356 S   0  0  0  0  0  0  0  0  0  0  0  0
    2.1557   -2.9230   -1.7741 H   0  0  0  0  0  0  0  0  0  0  0  0
    0.0789    1.2745   -0.1634 C   0  0  0  0  0  0  0  0  0  0  0  0
   -0.2208    1.7071   -1.2767 O   0  0  0  0  0  0  0  0  0  0  0  0
    0.2414    2.0762    0.8954 N   0  0  0  0  0  0  0  0  0  0  0  0
    0.5491    1.6490    1.7570 H   0  0  0  0  0  0  0  0  0  0  0  0
    0.0865    3.5293    0.8615 C   0  0  0  0  0  0  0  0  0  0  0  0
   -0.8616    3.7890    0.3850 H   0  0  0  0  0  0  0  0  0  0  0  0
    0.1024    3.9341    1.8741 H   0  0  0  0  0  0  0  0  0  0  0  0
    0.8996    3.9712    0.2831 H   0  0  0  0  0  0  0  0  0  0  0  0
  5  6  2  0  0  0  0
  5  7  1  0  0  0  0
  2  3  1  0  0  0  0
  2  4  1  0  0  0  0
  2  5  1  0  0  0  0
  1  2  1  0  0  0  0
 16 17  2  0  0  0  0
 16 18  1  0  0  0  0
 14 15  1  0  0  0  0
 11 12  1  0  0  0  0
 11 13  1  0  0  0  0
 11 14  1  0  0  0  0
  9 10  1  0  0  0  0
  9 11  1  0  0  0  0
  9 16  1  0  0  0  0
  7  8  1  0  0  0  0
  7  9  1  0  0  0  0
 20 21  1  0  0  0  0
 20 22  1  0  0  0  0
 20 23  1  0  0  0  0
 18 19  1  0  0  0  0
 18 20  1  0  0  0  0
M  END
$$$$
default_name
  -OEChem-01062215323D

 23 22  0     1  0  0  0  0  0999 V2000
   -2.6857   -3.6684    0.8743 H   0  0  0  0  0  0  0  0  0  0  0  0
   -2.6617   -2.6474    0.4953 C   0  0  0  0  0  0  0  0  0  0  0  0
   -3.2657   -2.0054    1.1353 H   0  0  0  0  0  0  0  0  0  0  0  0
   -3.0477   -2.6254   -0.5217 H   0  0  0  0  0  0  0  0  0  0  0  0
   -1.2337   -2.1564    0.4993 C   0  0  0  0  0  0  0  0  0  0  0  0
   -0.3327   -2.8864    0.8893 O   0  0  0  0  0  0  0  0  0  0  0  0
   -1.0277   -0.9164    0.0623 N   0  0  0  0  0  0  0  0  0  0  0  0
   -1.8237   -0.3604   -0.2157 H   0  0  0  0  0  0  0  0  0  0  0  0
    0.2713   -0.2414    0.0463 C   0  0  1  0  0  0  0  0  0  0  0  0
    0.7561   -0.3899    1.0132 H   0  0  0  0  0  0  0  0  0  0  0  0
    1.1451   -0.8898   -1.0401 C   0  0  0  0  0  0  0  0  0  0  0  0
    0.6061   -0.8620   -1.9898 H   0  0  0  0  0  0  0  0  0  0  0  0
    2.0731   -0.3244   -1.1463 H   0  0  0  0  0  0  0  0  0  0  0  0
    1.5198   -2.6210   -0.6356 S   0  0  0  0  0  0  0  0  0  0  0  0
    2.1557   -2.9230   -1.7741 H   0  0  0  0  0  0  0  0  0  0  0  0
    0.0789    1.2745   -0.1634 C   0  0  0  0  0  0  0  0  0  0  0  0
   -0.4811    1.6875   -1.1794 O   0  0  0  0  0  0  0  0  0  0  0  0
    0.5307    2.0982    0.7892 N   0  0  0  0  0  0  0  0  0  0  0  0
    1.0345    1.6833    1.5597 H   0  0  0  0  0  0  0  0  0  0  0  0
    0.4175    3.5549    0.7422 C   0  0  0  0  0  0  0  0  0  0  0  0
   -0.6122    3.8383    0.5128 H   0  0  0  0  0  0  0  0  0  0  0  0
    0.7035    3.9866    1.7020 H   0  0  0  0  0  0  0  0  0  0  0  0
    1.0696    3.9482   -0.0395 H   0  0  0  0  0  0  0  0  0  0  0  0
  5  6  2  0  0  0  0
  5  7  1  0  0  0  0
  2  3  1  0  0  0  0
  2  4  1  0  0  0  0
  2  5  1  0  0  0  0
  1  2  1  0  0  0  0
 16 17  2  0  0  0  0
 16 18  1  0  0  0  0
 14 15  1  0  0  0  0
 11 12  1  0  0  0  0
 11 13  1  0  0  0  0
 11 14  1  0  0  0  0
  9 10  1  0  0  0  0
  9 11  1  0  0  0  0
  9 16  1  0  0  0  0
  7  8  1  0  0  0  0
  7  9  1  0  0  0  0
 20 21  1  0  0  0  0
 20 22  1  0  0  0  0
 20 23  1  0  0  0  0
 18 19  1  0  0  0  0
 18 20  1  0  0  0  0
M  END
$$$$
default_name
  -OEChem-01062215323D

 23 22  0     1  0  0  0  0  0999 V2000
   -2.6857   -3.6684    0.8743 H   0  0  0  0  0  0  0  0  0  0  0  0
   -2.6617   -2.6474    0.4953 C   0  0  0  0  0  0  0  0  0  0  0  0
   -3.2657   -2.0054    1.1353 H   0  0  0  0  0  0  0  0  0  0  0  0
   -3.0477   -2.6254   -0.5217 H   0  0  0  0  0  0  0  0  0  0  0  0
   -1.2337   -2.1564    0.4993 C   0  0  0  0  0  0  0  0  0  0  0  0
   -0.3327   -2.8864    0.8893 O   0  0  0  0  0  0  0  0  0  0  0  0
   -1.0277   -0.9164    0.0623 N   0  0  0  0  0  0  0  0  0  0  0  0
   -1.8237   -0.3604   -0.2157 H   0  0  0  0  0  0  0  0  0  0  0  0
    0.2713   -0.2414    0.0463 C   0  0  1  0  0  0  0  0  0  0  0  0
    0.7561   -0.3899    1.0132 H   0  0  0  0  0  0  0  0  0  0  0  0
    1.1451   -0.8898   -1.0401 C   0  0  0  0  0  0  0  0  0  0  0  0
    0.6061   -0.8620   -1.9898 H   0  0  0  0  0  0  0  0  0  0  0  0
    2.0731   -0.3244   -1.1463 H   0  0  0  0  0  0  0  0  0  0  0  0
    1.5198   -2.6210   -0.6356 S   0  0  0  0  0  0  0  0  0  0  0  0
    2.1557   -2.9230   -1.7741 H   0  0  0  0  0  0  0  0  0  0  0  0
    0.0789    1.2745   -0.1634 C   0  0  0  0  0  0  0  0  0  0  0  0
   -0.7086    1.6809   -1.0185 O   0  0  0  0  0  0  0  0  0  0  0  0
    0.7840    2.1059    0.6123 N   0  0  0  0  0  0  0  0  0  0  0  0
    1.4545    1.6930    1.2445 H   0  0  0  0  0  0  0  0  0  0  0  0
    0.7077    3.5640    0.5420 C   0  0  0  0  0  0  0  0  0  0  0  0
   -0.3371    3.8813    0.5711 H   0  0  0  0  0  0  0  0  0  0  0  0
    1.2423    4.0106    1.3812 H   0  0  0  0  0  0  0  0  0  0  0  0
    1.1509    3.9095   -0.3936 H   0  0  0  0  0  0  0  0  0  0  0  0
  5  6  2  0  0  0  0
  5  7  1  0  0  0  0
  2  3  1  0  0  0  0
  2  4  1  0  0  0  0
  2  5  1  0  0  0  0
  1  2  1  0  0  0  0
 16 17  2  0  0  0  0
 16 18  1  0  0  0  0
 14 15  1  0  0  0  0
 11 12  1  0  0  0  0
 11 13  1  0  0  0  0
 11 14  1  0  0  0  0
  9 10  1  0  0  0  0
  9 11  1  0  0  0  0
  9 16  1  0  0  0  0
  7  8  1  0  0  0  0
  7  9  1  0  0  0  0
 20 21  1  0  0  0  0
 20 22  1  0  0  0  0
 20 23  1  0  0  0  0
 18 19  1  0  0  0  0
 18 20  1  0  0  0  0
M  END
$$$$
default_name
  -OEChem-01062215323D

 23 22  0     1  0  0  0  0  0999 V2000
   -2.6857   -3.6684    0.8743 H   0  0  0  0  0  0  0  0  0  0  0  0
   -2.6617   -2.6474    0.4953 C   0  0  0  0  0  0  0  0  0  0  0  0
   -3.2657   -2.0054    1.1353 H   0  0  0  0  0  0  0  0  0  0  0  0
   -3.0477   -2.6254   -0.5217 H   0  0  0  0  0  0  0  0  0  0  0  0
   -1.2337   -2.1564    0.4993 C   0  0  0  0  0  0  0  0  0  0  0  0
   -0.3327   -2.8864    0.8893 O   0  0  0  0  0  0  0  0  0  0  0  0
   -1.0277   -0.9164    0.0623 N   0  0  0  0  0  0  0  0  0  0  0  0
   -1.8237   -0.3604   -0.2157 H   0  0  0  0  0  0  0  0  0  0  0  0
    0.2713   -0.2414    0.0463 C   0  0  1  0  0  0  0  0  0  0  0  0
    0.7561   -0.3899    1.0132 H   0  0  0  0  0  0  0  0  0  0  0  0
    1.1451   -0.8898   -1.0401 C   0  0  0  0  0  0  0  0  0  0  0  0
    0.6061   -0.8620   -1.9898 H   0  0  0  0  0  0  0  0  0  0  0  0
    2.0731   -0.3244   -1.1463 H   0  0  0  0  0  0  0  0  0  0  0  0
    1.5198   -2.6210   -0.6356 S   0  0  0  0  0  0  0  0  0  0  0  0
    2.1557   -2.9230   -1.7741 H   0  0  0  0  0  0  0  0  0  0  0  0
    0.0789    1.2745   -0.1634 C   0  0  0  0  0  0  0  0  0  0  0  0
   -0.8875    1.6877   -0.8050 O   0  0  0  0  0  0  0  0  0  0  0  0
    0.9840    2.0987    0.3768 N   0  0  0  0  0  0  0  0  0  0  0  0
    1.7803    1.6774    0.8328 H   0  0  0  0  0  0  0  0  0  0  0  0
    0.9375    3.5561    0.2744 C   0  0  0  0  0  0  0  0  0  0  0  0
   -0.0550    3.9151    0.5561 H   0  0  0  0  0  0  0  0  0  0  0  0
    1.6820    4.0044    0.9334 H   0  0  0  0  0  0  0  0  0  0  0  0
    1.1380    3.8578   -0.7550 H   0  0  0  0  0  0  0  0  0  0  0  0
  5  6  2  0  0  0  0
  5  7  1  0  0  0  0
  2  3  1  0  0  0  0
  2  4  1  0  0  0  0
  2  5  1  0  0  0  0
  1  2  1  0  0  0  0
 16 17  2  0  0  0  0
 16 18  1  0  0  0  0
 14 15  1  0  0  0  0
 11 12  1  0  0  0  0
 11 13  1  0  0  0  0
 11 14  1  0  0  0  0
  9 10  1  0  0  0  0
  9 11  1  0  0  0  0
  9 16  1  0  0  0  0
  7  8  1  0  0  0  0
  7  9  1  0  0  0  0
 20 21  1  0  0  0  0
 20 22  1  0  0  0  0
 20 23  1  0  0  0  0
 18 19  1  0  0  0  0
 18 20  1  0  0  0  0
M  END
$$$$
default_name
  -OEChem-01062215323D

 23 22  0     1  0  0  0  0  0999 V2000
   -2.6857   -3.6684    0.8743 H   0  0  0  0  0  0  0  0  0  0  0  0
   -2.6617   -2.6474    0.4953 C   0  0  0  0  0  0  0  0  0  0  0  0
   -3.2657   -2.0054    1.1353 H   0  0  0  0  0  0  0  0  0  0  0  0
   -3.0477   -2.6254   -0.5217 H   0  0  0  0  0  0  0  0  0  0  0  0
   -1.2337   -2.1564    0.4993 C   0  0  0  0  0  0  0  0  0  0  0  0
   -0.3327   -2.8864    0.8893 O   0  0  0  0  0  0  0  0  0  0  0  0
   -1.0277   -0.9164    0.0623 N   0  0  0  0  0  0  0  0  0  0  0  0
   -1.8237   -0.3604   -0.2157 H   0  0  0  0  0  0  0  0  0  0  0  0
    0.2713   -0.2414    0.0463 C   0  0  1  0  0  0  0  0  0  0  0  0
    0.7561   -0.3899    1.0132 H   0  0  0  0  0  0  0  0  0  0  0  0
    1.1451   -0.8898   -1.0401 C   0  0  0  0  0  0  0  0  0  0  0  0
    0.6061   -0.8620   -1.9898 H   0  0  0  0  0  0  0  0  0  0  0  0
    2.0731   -0.3244   -1.1463 H   0  0  0  0  0  0  0  0  0  0  0  0
    1.5198   -2.6210   -0.6356 S   0  0  0  0  0  0  0  0  0  0  0  0
    2.1557   -2.9230   -1.7741 H   0  0  0  0  0  0  0  0  0  0  0  0
    0.0789    1.2745   -0.1634 C   0  0  0  0  0  0  0  0  0  0  0  0
   -1.0059    1.7075   -0.5535 O   0  0  0  0  0  0  0  0  0  0  0  0
    1.1169    2.0771    0.0987 N   0  0  0  0  0  0  0  0  0  0  0  0
    1.9897    1.6375    0.3529 H   0  0  0  0  0  0  0  0  0  0  0  0
    1.0911    3.5318   -0.0422 C   0  0  0  0  0  0  0  0  0  0  0  0
    0.2148    3.9372    0.4687 H   0  0  0  0  0  0  0  0  0  0  0  0
    1.9925    3.9686    0.3893 H   0  0  0  0  0  0  0  0  0  0  0  0
    1.0318    3.7967   -1.0992 H   0  0  0  0  0  0  0  0  0  0  0  0
  5  6  2  0  0  0  0
  5  7  1  0  0  0  0
  2  3  1  0  0  0  0
  2  4  1  0  0  0  0
  2  5  1  0  0  0  0
  1  2  1  0  0  0  0
 16 17  2  0  0  0  0
 16 18  1  0  0  0  0
 14 15  1  0  0  0  0
 11 12  1  0  0  0  0
 11 13  1  0  0  0  0
 11 14  1  0  0  0  0
  9 10  1  0  0  0  0
  9 11  1  0  0  0  0
  9 16  1  0  0  0  0
  7  8  1  0  0  0  0
  7  9  1  0  0  0  0
 20 21  1  0  0  0  0
 20 22  1  0  0  0  0
 20 23  1  0  0  0  0
 18 19  1  0  0  0  0
 18 20  1  0  0  0  0
M  END
$$$$
default_name
  -OEChem-01062215323D

 23 22  0     1  0  0  0  0  0999 V2000
   -2.6857   -3.6684    0.8743 H   0  0  0  0  0  0  0  0  0  0  0  0
   -2.6617   -2.6474    0.4953 C   0  0  0  0  0  0  0  0  0  0  0  0
   -3.2657   -2.0054    1.1353 H   0  0  0  0  0  0  0  0  0  0  0  0
   -3.0477   -2.6254   -0.5217 H   0  0  0  0  0  0  0  0  0  0  0  0
   -1.2337   -2.1564    0.4993 C   0  0  0  0  0  0  0  0  0  0  0  0
   -0.3327   -2.8864    0.8893 O   0  0  0  0  0  0  0  0  0  0  0  0
   -1.0277   -0.9164    0.0623 N   0  0  0  0  0  0  0  0  0  0  0  0
   -1.8237   -0.3604   -0.2157 H   0  0  0  0  0  0  0  0  0  0  0  0
    0.2713   -0.2414    0.0463 C   0  0  1  0  0  0  0  0  0  0  0  0
    0.8652   -0.6028    0.8882 H   0  0  0  0  0  0  0  0  0  0  0  0
    0.9986   -0.6130   -1.2564 C   0  0  0  0  0  0  0  0  0  0  0  0
    0.3510   -0.3737   -2.1029 H   0  0  0  0  0  0  0  0  0  0  0  0
    1.9168   -0.0280   -1.3403 H   0  0  0  0  0  0  0  0  0  0  0  0
    1.3897   -2.3866   -1.3079 S   0  0  0  0  0  0  0  0  0  0  0  0
    1.8804   -2.4118   -2.5529 H   0  0  0  0  0  0  0  0  0  0  0  0
    0.0808    1.2799    0.2146 C   0  0  0  0  0  0  0  0  0  0  0  0
   -1.0516    1.7463    0.3433 O   0  0  0  0  0  0  0  0  0  0  0  0
    1.1759    2.0486    0.2215 N   0  0  0  0  0  0  0  0  0  0  0  0
    2.0611    1.5954    0.0465 H   0  0  0  0  0  0  0  0  0  0  0  0
    1.1628    3.5018    0.3792 C   0  0  0  0  0  0  0  0  0  0  0  0
    0.5549    3.7742    1.2450 H   0  0  0  0  0  0  0  0  0  0  0  0
    2.1778    3.8749    0.5213 H   0  0  0  0  0  0  0  0  0  0  0  0
    0.7295    3.9631   -0.5098 H   0  0  0  0  0  0  0  0  0  0  0  0
  5  6  2  0  0  0  0
  5  7  1  0  0  0  0
  2  3  1  0  0  0  0
  2  4  1  0  0  0  0
  2  5  1  0  0  0  0
  1  2  1  0  0  0  0
 16 17  2  0  0  0  0
 16 18  1  0  0  0  0
 14 15  1  0  0  0  0
 11 12  1  0  0  0  0
 11 13  1  0  0  0  0
 11 14  1  0  0  0  0
  9 10  1  0  0  0  0
  9 11  1  0  0  0  0
  9 16  1  0  0  0  0
  7  8  1  0  0  0  0
  7  9  1  0  0  0  0
 20 21  1  0  0  0  0
 20 22  1  0  0  0  0
 20 23  1  0  0  0  0
 18 19  1  0  0  0  0
 18 20  1  0  0  0  0
M  END
$$$$
default_name
  -OEChem-01062215323D

 23 22  0     1  0  0  0  0  0999 V2000
   -2.6857   -3.6684    0.8743 H   0  0  0  0  0  0  0  0  0  0  0  0
   -2.6617   -2.6474    0.4953 C   0  0  0  0  0  0  0  0  0  0  0  0
   -3.2657   -2.0054    1.1353 H   0  0  0  0  0  0  0  0  0  0  0  0
   -3.0477   -2.6254   -0.5217 H   0  0  0  0  0  0  0  0  0  0  0  0
   -1.2337   -2.1564    0.4993 C   0  0  0  0  0  0  0  0  0  0  0  0
   -0.3327   -2.8864    0.8893 O   0  0  0  0  0  0  0  0  0  0  0  0
   -1.0277   -0.9164    0.0623 N   0  0  0  0  0  0  0  0  0  0  0  0
   -1.8237   -0.3604   -0.2157 H   0  0  0  0  0  0  0  0  0  0  0  0
    0.2713   -0.2414    0.0463 C   0  0  1  0  0  0  0  0  0  0  0  0
    0.8652   -0.6028    0.8882 H   0  0  0  0  0  0  0  0  0  0  0  0
    0.9986   -0.6130   -1.2564 C   0  0  0  0  0  0  0  0  0  0  0  0
    0.3510   -0.3737   -2.1029 H   0  0  0  0  0  0  0  0  0  0  0  0
    1.9168   -0.0280   -1.3403 H   0  0  0  0  0  0  0  0  0  0  0  0
    1.3897   -2.3866   -1.3079 S   0  0  0  0  0  0  0  0  0  0  0  0
    1.8804   -2.4118   -2.5529 H   0  0  0  0  0  0  0  0  0  0  0  0
    0.0808    1.2799    0.2146 C   0  0  0  0  0  0  0  0  0  0  0  0
   -0.9959    1.7232    0.6154 O   0  0  0  0  0  0  0  0  0  0  0  0
    1.1160    2.0745   -0.0805 N   0  0  0  0  0  0  0  0  0  0  0  0
    1.9416    1.6368   -0.4633 H   0  0  0  0  0  0  0  0  0  0  0  0
    1.0965    3.5317    0.0341 C   0  0  0  0  0  0  0  0  0  0  0  0
    0.7208    3.8201    1.0184 H   0  0  0  0  0  0  0  0  0  0  0  0
    2.1015    3.9339   -0.0988 H   0  0  0  0  0  0  0  0  0  0  0  0
    0.4363    3.9504   -0.7273 H   0  0  0  0  0  0  0  0  0  0  0  0
  5  6  2  0  0  0  0
  5  7  1  0  0  0  0
  2  3  1  0  0  0  0
  2  4  1  0  0  0  0
  2  5  1  0  0  0  0
  1  2  1  0  0  0  0
 16 17  2  0  0  0  0
 16 18  1  0  0  0  0
 14 15  1  0  0  0  0
 11 12  1  0  0  0  0
 11 13  1  0  0  0  0
 11 14  1  0  0  0  0
  9 10  1  0  0  0  0
  9 11  1  0  0  0  0
  9 16  1  0  0  0  0
  7  8  1  0  0  0  0
  7  9  1  0  0  0  0
 20 21  1  0  0  0  0
 20 22  1  0  0  0  0
 20 23  1  0  0  0  0
 18 19  1  0  0  0  0
 18 20  1  0  0  0  0
M  END
$$$$
default_name
  -OEChem-01062215323D

 23 22  0     1  0  0  0  0  0999 V2000
   -2.6857   -3.6684    0.8743 H   0  0  0  0  0  0  0  0  0  0  0  0
   -2.6617   -2.6474    0.4953 C   0  0  0  0  0  0  0  0  0  0  0  0
   -3.2657   -2.0054    1.1353 H   0  0  0  0  0  0  0  0  0  0  0  0
   -3.0477   -2.6254   -0.5217 H   0  0  0  0  0  0  0  0  0  0  0  0
   -1.2337   -2.1564    0.4993 C   0  0  0  0  0  0  0  0  0  0  0  0
   -0.3327   -2.8864    0.8893 O   0  0  0  0  0  0  0  0  0  0  0  0
   -1.0277   -0.9164    0.0623 N   0  0  0  0  0  0  0  0  0  0  0  0
   -1.8237   -0.3604   -0.2157 H   0  0  0  0  0  0  0  0  0  0  0  0
    0.2713   -0.2414    0.0463 C   0  0  1  0  0  0  0  0  0  0  0  0
    0.8652   -0.6028    0.8882 H   0  0  0  0  0  0  0  0  0  0  0  0
    0.9986   -0.6130   -1.2564 C   0  0  0  0  0  0  0  0  0  0  0  0
    0.3510   -0.3737   -2.1029 H   0  0  0  0  0  0  0  0  0  0  0  0
    1.9168   -0.0280   -1.3403 H   0  0  0  0  0  0  0  0  0  0  0  0
    1.3897   -2.3866   -1.3079 S   0  0  0  0  0  0  0  0  0  0  0  0
    1.8804   -2.4118   -2.5529 H   0  0  0  0  0  0  0  0  0  0  0  0
    0.0808    1.2799    0.2146 C   0  0  0  0  0  0  0  0  0  0  0  0
   -0.8720    1.7111    0.8647 O   0  0  0  0  0  0  0  0  0  0  0  0
    0.9804    2.0882   -0.3578 N   0  0  0  0  0  0  0  0  0  0  0  0
    1.6949    1.6572   -0.9264 H   0  0  0  0  0  0  0  0  0  0  0  0
    0.9435    3.5476   -0.2834 C   0  0  0  0  0  0  0  0  0  0  0  0
    0.8219    3.8618    0.7557 H   0  0  0  0  0  0  0  0  0  0  0  0
    1.8679    3.9690   -0.6802 H   0  0  0  0  0  0  0  0  0  0  0  0
    0.0978    3.9229   -0.8621 H   0  0  0  0  0  0  0  0  0  0  0  0
  5  6  2  0  0  0  0
  5  7  1  0  0  0  0
  2  3  1  0  0  0  0
  2  4  1  0  0  0  0
  2  5  1  0  0  0  0
  1  2  1  0  0  0  0
 16 17  2  0  0  0  0
 16 18  1  0  0  0  0
 14 15  1  0  0  0  0
 11 12  1  0  0  0  0
 11 13  1  0  0  0  0
 11 14  1  0  0  0  0
  9 10  1  0  0  0  0
  9 11  1  0  0  0  0
  9 16  1  0  0  0  0
  7  8  1  0  0  0  0
  7  9  1  0  0  0  0
 20 21  1  0  0  0  0
 20 22  1  0  0  0  0
 20 23  1  0  0  0  0
 18 19  1  0  0  0  0
 18 20  1  0  0  0  0
M  END
$$$$
default_name
  -OEChem-01062215323D

 23 22  0     1  0  0  0  0  0999 V2000
   -2.6857   -3.6684    0.8743 H   0  0  0  0  0  0  0  0  0  0  0  0
   -2.6617   -2.6474    0.4953 C   0  0  0  0  0  0  0  0  0  0  0  0
   -3.2657   -2.0054    1.1353 H   0  0  0  0  0  0  0  0  0  0  0  0
   -3.0477   -2.6254   -0.5217 H   0  0  0  0  0  0  0  0  0  0  0  0
   -1.2337   -2.1564    0.4993 C   0  0  0  0  0  0  0  0  0  0  0  0
   -0.3327   -2.8864    0.8893 O   0  0  0  0  0  0  0  0  0  0  0  0
   -1.0277   -0.9164    0.0623 N   0  0  0  0  0  0  0  0  0  0  0  0
   -1.8237   -0.3604   -0.2157 H   0  0  0  0  0  0  0  0  0  0  0  0
    0.2713   -0.2414    0.0463 C   0  0  1  0  0  0  0  0  0  0  0  0
    0.8652   -0.6028    0.8882 H   0  0  0  0  0  0  0  0  0  0  0  0
    0.9986   -0.6130   -1.2564 C   0  0  0  0  0  0  0  0  0  0  0  0
    0.3510   -0.3737   -2.1029 H   0  0  0  0  0  0  0  0  0  0  0  0
    1.9168   -0.0280   -1.3403 H   0  0  0  0  0  0  0  0  0  0  0  0
    1.3897   -2.3866   -1.3079 S   0  0  0  0  0  0  0  0  0  0  0  0
    1.8804   -2.4118   -2.5529 H   0  0  0  0  0  0  0  0  0  0  0  0
    0.0808    1.2799    0.2146 C   0  0  0  0  0  0  0  0  0  0  0  0
   -0.6884    1.7109    1.0742 O   0  0  0  0  0  0  0  0  0  0  0  0
    0.7781    2.0887   -0.5915 N   0  0  0  0  0  0  0  0  0  0  0  0
    1.3377    1.6550   -1.3115 H   0  0  0  0  0  0  0  0  0  0  0  0
    0.7142    3.5486   -0.5514 C   0  0  0  0  0  0  0  0  0  0  0  0
    0.8513    3.8965    0.4749 H   0  0  0  0  0  0  0  0  0  0  0  0
    1.4928    3.9776   -1.1832 H   0  0  0  0  0  0  0  0  0  0  0  0
   -0.2627    3.8825   -0.9051 H   0  0  0  0  0  0  0  0  0  0  0  0
  5  6  2  0  0  0  0
  5  7  1  0  0  0  0
  2  3  1  0  0  0  0
  2  4  1  0  0  0  0
  2  5  1  0  0  0  0
  1  2  1  0  0  0  0
 16 17  2  0  0  0  0
 16 18  1  0  0  0  0
 14 15  1  0  0  0  0
 11 12  1  0  0  0  0
 11 13  1  0  0  0  0
 11 14  1  0  0  0  0
  9 10  1  0  0  0  0
  9 11  1  0  0  0  0
  9 16  1  0  0  0  0
  7  8  1  0  0  0  0
  7  9  1  0  0  0  0
 20 21  1  0  0  0  0
 20 22  1  0  0  0  0
 20 23  1  0  0  0  0
 18 19  1  0  0  0  0
 18 20  1  0  0  0  0
M  END
$$$$
default_name
  -OEChem-01062215323D

 23 22  0     1  0  0  0  0  0999 V2000
   -2.6857   -3.6684    0.8743 H   0  0  0  0  0  0  0  0  0  0  0  0
   -2.6617   -2.6474    0.4953 C   0  0  0  0  0  0  0  0  0  0  0  0
   -3.2657   -2.0054    1.1353 H   0  0  0  0  0  0  0  0  0  0  0  0
   -3.0477   -2.6254   -0.5217 H   0  0  0  0  0  0  0  0  0  0  0  0
   -1.2337   -2.1564    0.4993 C   0  0  0  0  0  0  0  0  0  0  0  0
   -0.3327   -2.8864    0.8893 O   0  0  0  0  0  0  0  0  0  0  0  0
   -1.0277   -0.9164    0.0623 N   0  0  0  0  0  0  0  0  0  0  0  0
   -1.8237   -0.3604   -0.2157 H   0  0  0  0  0  0  0  0  0  0  0  0
    0.2713   -0.2414    0.0463 C   0  0  1  0  0  0  0  0  0  0  0  0
    0.8652   -0.6028    0.8882 H   0  0  0  0  0  0  0  0  0  0  0  0
    0.9986   -0.6130   -1.2564 C   0  0  0  0  0  0  0  0  0  0  0  0
    0.3510   -0.3737   -2.1029 H   0  0  0  0  0  0  0  0  0  0  0  0
    1.9168   -0.0280   -1.3403 H   0  0  0  0  0  0  0  0  0  0  0  0
    1.3897   -2.3866   -1.3079 S   0  0  0  0  0  0  0  0  0  0  0  0
    1.8804   -2.4118   -2.5529 H   0  0  0  0  0  0  0  0  0  0  0  0
    0.0808    1.2799    0.2146 C   0  0  0  0  0  0  0  0  0  0  0  0
   -0.4575    1.7226    1.2298 O   0  0  0  0  0  0  0  0  0  0  0  0
    0.5231    2.0760   -0.7656 N   0  0  0  0  0  0  0  0  0  0  0  0
    0.8945    1.6306   -1.5922 H   0  0  0  0  0  0  0  0  0  0  0  0
    0.4243    3.5344   -0.7518 C   0  0  0  0  0  0  0  0  0  0  0  0
    0.8070    3.9220    0.1950 H   0  0  0  0  0  0  0  0  0  0  0  0
    1.0019    3.9593   -1.5736 H   0  0  0  0  0  0  0  0  0  0  0  0
   -0.6208    3.8319   -0.8532 H   0  0  0  0  0  0  0  0  0  0  0  0
  5  6  2  0  0  0  0
  5  7  1  0  0  0  0
  2  3  1  0  0  0  0
  2  4  1  0  0  0  0
  2  5  1  0  0  0  0
  1  2  1  0  0  0  0
 16 17  2  0  0  0  0
 16 18  1  0  0  0  0
 14 15  1  0  0  0  0
 11 12  1  0  0  0  0
 11 13  1  0  0  0  0
 11 14  1  0  0  0  0
  9 10  1  0  0  0  0
  9 11  1  0  0  0  0
  9 16  1  0  0  0  0
  7  8  1  0  0  0  0
  7  9  1  0  0  0  0
 20 21  1  0  0  0  0
 20 22  1  0  0  0  0
 20 23  1  0  0  0  0
 18 19  1  0  0  0  0
 18 20  1  0  0  0  0
M  END
$$$$
default_name
  -OEChem-01062215323D

 23 22  0     1  0  0  0  0  0999 V2000
   -2.6857   -3.6684    0.8743 H   0  0  0  0  0  0  0  0  0  0  0  0
   -2.6617   -2.6474    0.4953 C   0  0  0  0  0  0  0  0  0  0  0  0
   -3.2657   -2.0054    1.1353 H   0  0  0  0  0  0  0  0  0  0  0  0
   -3.0477   -2.6254   -0.5217 H   0  0  0  0  0  0  0  0  0  0  0  0
   -1.2337   -2.1564    0.4993 C   0  0  0  0  0  0  0  0  0  0  0  0
   -0.3327   -2.8864    0.8893 O   0  0  0  0  0  0  0  0  0  0  0  0
   -1.0277   -0.9164    0.0623 N   0  0  0  0  0  0  0  0  0  0  0  0
   -1.8237   -0.3604   -0.2157 H   0  0  0  0  0  0  0  0  0  0  0  0
    0.2713   -0.2414    0.0463 C   0  0  1  0  0  0  0  0  0  0  0  0
    0.8652   -0.6028    0.8882 H   0  0  0  0  0  0  0  0  0  0  0  0
    0.9986   -0.6130   -1.2564 C   0  0  0  0  0  0  0  0  0  0  0  0
    0.3510   -0.3737   -2.1029 H   0  0  0  0  0  0  0  0  0  0  0  0
    1.9168   -0.0280   -1.3403 H   0  0  0  0  0  0  0  0  0  0  0  0
    1.3897   -2.3866   -1.3079 S   0  0  0  0  0  0  0  0  0  0  0  0
    1.8804   -2.4118   -2.5529 H   0  0  0  0  0  0  0  0  0  0  0  0
    0.0808    1.2799    0.2146 C   0  0  0  0  0  0  0  0  0  0  0  0
   -0.1951    1.7454    1.3207 O   0  0  0  0  0  0  0  0  0  0  0  0
    0.2327    2.0510   -0.8683 N   0  0  0  0  0  0  0  0  0  0  0  0
    0.3955    1.5854   -1.7494 H   0  0  0  0  0  0  0  0  0  0  0  0
    0.0935    3.5062   -0.8710 C   0  0  0  0  0  0  0  0  0  0  0  0
    0.6920    3.9363   -0.0648 H   0  0  0  0  0  0  0  0  0  0  0  0
    0.4285    3.9153   -1.8248 H   0  0  0  0  0  0  0  0  0  0  0  0
   -0.9520    3.7746   -0.7101 H   0  0  0  0  0  0  0  0  0  0  0  0
  5  6  2  0  0  0  0
  5  7  1  0  0  0  0
  2  3  1  0  0  0  0
  2  4  1  0  0  0  0
  2  5  1  0  0  0  0
  1  2  1  0  0  0  0
 16 17  2  0  0  0  0
 16 18  1  0  0  0  0
 14 15  1  0  0  0  0
 11 12  1  0  0  0  0
 11 13  1  0  0  0  0
 11 14  1  0  0  0  0
  9 10  1  0  0  0  0
  9 11  1  0  0  0  0
  9 16  1  0  0  0  0
  7  8  1  0  0  0  0
  7  9  1  0  0  0  0
 20 21  1  0  0  0  0
 20 22  1  0  0  0  0
 20 23  1  0  0  0  0
 18 19  1  0  0  0  0
 18 20  1  0  0  0  0
M  END
$$$$
default_name
  -OEChem-01062215323D

 23 22  0     1  0  0  0  0  0999 V2000
   -2.6857   -3.6684    0.8743 H   0  0  0  0  0  0  0  0  0  0  0  0
   -2.6617   -2.6474    0.4953 C   0  0  0  0  0  0  0  0  0  0  0  0
   -3.2657   -2.0054    1.1353 H   0  0  0  0  0  0  0  0  0  0  0  0
   -3.0477   -2.6254   -0.5217 H   0  0  0  0  0  0  0  0  0  0  0  0
   -1.2337   -2.1564    0.4993 C   0  0  0  0  0  0  0  0  0  0  0  0
   -0.3327   -2.8864    0.8893 O   0  0  0  0  0  0  0  0  0  0  0  0
   -1.0277   -0.9164    0.0623 N   0  0  0  0  0  0  0  0  0  0  0  0
   -1.8237   -0.3604   -0.2157 H   0  0  0  0  0  0  0  0  0  0  0  0
    0.2713   -0.2414    0.0463 C   0  0  1  0  0  0  0  0  0  0  0  0
    0.8652   -0.6028    0.8882 H   0  0  0  0  0  0  0  0  0  0  0  0
    0.9986   -0.6130   -1.2564 C   0  0  0  0  0  0  0  0  0  0  0  0
    0.3510   -0.3737   -2.1029 H   0  0  0  0  0  0  0  0  0  0  0  0
    1.9168   -0.0280   -1.3403 H   0  0  0  0  0  0  0  0  0  0  0  0
    1.3897   -2.3866   -1.3079 S   0  0  0  0  0  0  0  0  0  0  0  0
    1.8804   -2.4118   -2.5529 H   0  0  0  0  0  0  0  0  0  0  0  0
    0.0808    1.2799    0.2146 C   0  0  0  0  0  0  0  0  0  0  0  0
    0.0810    1.7778    1.3409 O   0  0  0  0  0  0  0  0  0  0  0  0
   -0.0733    2.0154   -0.8925 N   0  0  0  0  0  0  0  0  0  0  0  0
   -0.1254    1.5227   -1.7724 H   0  0  0  0  0  0  0  0  0  0  0  0
   -0.2557    3.4657   -0.9007 C   0  0  0  0  0  0  0  0  0  0  0  0
    0.5143    3.9386   -0.2869 H   0  0  0  0  0  0  0  0  0  0  0  0
   -0.1882    3.8485   -1.9197 H   0  0  0  0  0  0  0  0  0  0  0  0
   -1.2338    3.7144   -0.4854 H   0  0  0  0  0  0  0  0  0  0  0  0
  5  6  2  0  0  0  0
  5  7  1  0  0  0  0
  2  3  1  0  0  0  0
  2  4  1  0  0  0  0
  2  5  1  0  0  0  0
  1  2  1  0  0  0  0
 16 17  2  0  0  0  0
 16 18  1  0  0  0  0
 14 15  1  0  0  0  0
 11 12  1  0  0  0  0
 11 13  1  0  0  0  0
 11 14  1  0  0  0  0
  9 10  1  0  0  0  0
  9 11  1  0  0  0  0
  9 16  1  0  0  0  0
  7  8  1  0  0  0  0
  7  9  1  0  0  0  0
 20 21  1  0  0  0  0
 20 22  1  0  0  0  0
 20 23  1  0  0  0  0
 18 19  1  0  0  0  0
 18 20  1  0  0  0  0
M  END
$$$$
default_name
  -OEChem-01062215323D

 23 22  0     1  0  0  0  0  0999 V2000
   -2.6857   -3.6684    0.8743 H   0  0  0  0  0  0  0  0  0  0  0  0
   -2.6617   -2.6474    0.4953 C   0  0  0  0  0  0  0  0  0  0  0  0
   -3.2657   -2.0054    1.1353 H   0  0  0  0  0  0  0  0  0  0  0  0
   -3.0477   -2.6254   -0.5217 H   0  0  0  0  0  0  0  0  0  0  0  0
   -1.2337   -2.1564    0.4993 C   0  0  0  0  0  0  0  0  0  0  0  0
   -0.3327   -2.8864    0.8893 O   0  0  0  0  0  0  0  0  0  0  0  0
   -1.0277   -0.9164    0.0623 N   0  0  0  0  0  0  0  0  0  0  0  0
   -1.8237   -0.3604   -0.2157 H   0  0  0  0  0  0  0  0  0  0  0  0
    0.2713   -0.2414    0.0463 C   0  0  1  0  0  0  0  0  0  0  0  0
    0.8652   -0.6028    0.8882 H   0  0  0  0  0  0  0  0  0  0  0  0
    0.9986   -0.6130   -1.2564 C   0  0  0  0  0  0  0  0  0  0  0  0
    0.3510   -0.3737   -2.1029 H   0  0  0  0  0  0  0  0  0  0  0  0
    1.9168   -0.0280   -1.3403 H   0  0  0  0  0  0  0  0  0  0  0  0
    1.3897   -2.3866   -1.3079 S   0  0  0  0  0  0  0  0  0  0  0  0
    1.8804   -2.4118   -2.5529 H   0  0  0  0  0  0  0  0  0  0  0  0
    0.0808    1.2799    0.2146 C   0  0  0  0  0  0  0  0  0  0  0  0
    0.3518    1.8175    1.2888 O   0  0  0  0  0  0  0  0  0  0  0  0
   -0.3740    1.9715   -0.8366 N   0  0  0  0  0  0  0  0  0  0  0  0
   -0.6327    1.4467   -1.6596 H   0  0  0  0  0  0  0  0  0  0  0  0
   -0.5994    3.4158   -0.8390 C   0  0  0  0  0  0  0  0  0  0  0  0
    0.2858    3.9287   -0.4562 H   0  0  0  0  0  0  0  0  0  0  0  0
   -0.8063    3.7636   -1.8518 H   0  0  0  0  0  0  0  0  0  0  0  0
   -1.4469    3.6556   -0.1946 H   0  0  0  0  0  0  0  0  0  0  0  0
  5  6  2  0  0  0  0
  5  7  1  0  0  0  0
  2  3  1  0  0  0  0
  2  4  1  0  0  0  0
  2  5  1  0  0  0  0
  1  2  1  0  0  0  0
 16 17  2  0  0  0  0
 16 18  1  0  0  0  0
 14 15  1  0  0  0  0
 11 12  1  0  0  0  0
 11 13  1  0  0  0  0
 11 14  1  0  0  0  0
  9 10  1  0  0  0  0
  9 11  1  0  0  0  0
  9 16  1  0  0  0  0
  7  8  1  0  0  0  0
  7  9  1  0  0  0  0
 20 21  1  0  0  0  0
 20 22  1  0  0  0  0
 20 23  1  0  0  0  0
 18 19  1  0  0  0  0
 18 20  1  0  0  0  0
M  END
$$$$
default_name
  -OEChem-01062215323D

 23 22  0     1  0  0  0  0  0999 V2000
   -2.6857   -3.6684    0.8743 H   0  0  0  0  0  0  0  0  0  0  0  0
   -2.6617   -2.6474    0.4953 C   0  0  0  0  0  0  0  0  0  0  0  0
   -3.2657   -2.0054    1.1353 H   0  0  0  0  0  0  0  0  0  0  0  0
   -3.0477   -2.6254   -0.5217 H   0  0  0  0  0  0  0  0  0  0  0  0
   -1.2337   -2.1564    0.4993 C   0  0  0  0  0  0  0  0  0  0  0  0
   -0.3327   -2.8864    0.8893 O   0  0  0  0  0  0  0  0  0  0  0  0
   -1.0277   -0.9164    0.0623 N   0  0  0  0  0  0  0  0  0  0  0  0
   -1.8237   -0.3604   -0.2157 H   0  0  0  0  0  0  0  0  0  0  0  0
    0.2713   -0.2414    0.0463 C   0  0  1  0  0  0  0  0  0  0  0  0
    0.8652   -0.6028    0.8882 H   0  0  0  0  0  0  0  0  0  0  0  0
    0.9986   -0.6130   -1.2564 C   0  0  0  0  0  0  0  0  0  0  0  0
    0.3510   -0.3737   -2.1029 H   0  0  0  0  0  0  0  0  0  0  0  0
    1.9168   -0.0280   -1.3403 H   0  0  0  0  0  0  0  0  0  0  0  0
    1.3897   -2.3866   -1.3079 S   0  0  0  0  0  0  0  0  0  0  0  0
    1.8804   -2.4118   -2.5529 H   0  0  0  0  0  0  0  0  0  0  0  0
    0.0808    1.2799    0.2146 C   0  0  0  0  0  0  0  0  0  0  0  0
    0.5991    1.8618    1.1681 O   0  0  0  0  0  0  0  0  0  0  0  0
   -0.6491    1.9225   -0.7045 N   0  0  0  0  0  0  0  0  0  0  0  0
   -1.0917    1.3626   -1.4188 H   0  0  0  0  0  0  0  0  0  0  0  0
   -0.9142    3.3599   -0.6900 C   0  0  0  0  0  0  0  0  0  0  0  0
    0.0222    3.9073   -0.5610 H   0  0  0  0  0  0  0  0  0  0  0  0
   -1.3835    3.6663   -1.6257 H   0  0  0  0  0  0  0  0  0  0  0  0
   -1.5769    3.6020    0.1426 H   0  0  0  0  0  0  0  0  0  0  0  0
  5  6  2  0  0  0  0
  5  7  1  0  0  0  0
  2  3  1  0  0  0  0
  2  4  1  0  0  0  0
  2  5  1  0  0  0  0
  1  2  1  0  0  0  0
 16 17  2  0  0  0  0
 16 18  1  0  0  0  0
 14 15  1  0  0  0  0
 11 12  1  0  0  0  0
 11 13  1  0  0  0  0
 11 14  1  0  0  0  0
  9 10  1  0  0  0  0
  9 11  1  0  0  0  0
  9 16  1  0  0  0  0
  7  8  1  0  0  0  0
  7  9  1  0  0  0  0
 20 21  1  0  0  0  0
 20 22  1  0  0  0  0
 20 23  1  0  0  0  0
 18 19  1  0  0  0  0
 18 20  1  0  0  0  0
M  END
$$$$
default_name
  -OEChem-01062215323D

 23 22  0     1  0  0  0  0  0999 V2000
   -2.6857   -3.6684    0.8743 H   0  0  0  0  0  0  0  0  0  0  0  0
   -2.6617   -2.6474    0.4953 C   0  0  0  0  0  0  0  0  0  0  0  0
   -3.2657   -2.0054    1.1353 H   0  0  0  0  0  0  0  0  0  0  0  0
   -3.0477   -2.6254   -0.5217 H   0  0  0  0  0  0  0  0  0  0  0  0
   -1.2337   -2.1564    0.4993 C   0  0  0  0  0  0  0  0  0  0  0  0
   -0.3327   -2.8864    0.8893 O   0  0  0  0  0  0  0  0  0  0  0  0
   -1.0277   -0.9164    0.0623 N   0  0  0  0  0  0  0  0  0  0  0  0
   -1.8237   -0.3604   -0.2157 H   0  0  0  0  0  0  0  0  0  0  0  0
    0.2713   -0.2414    0.0463 C   0  0  1  0  0  0  0  0  0  0  0  0
    0.8652   -0.6028    0.8882 H   0  0  0  0  0  0  0  0  0  0  0  0
    0.9986   -0.6130   -1.2564 C   0  0  0  0  0  0  0  0  0  0  0  0
    0.3510   -0.3737   -2.1029 H   0  0  0  0  0  0  0  0  0  0  0  0
    1.9168   -0.0280   -1.3403 H   0  0  0  0  0  0  0  0  0  0  0  0
    1.3897   -2.3866   -1.3079 S   0  0  0  0  0  0  0  0  0  0  0  0
    1.8804   -2.4118   -2.5529 H   0  0  0  0  0  0  0  0  0  0  0  0
    0.0808    1.2799    0.2146 C   0  0  0  0  0  0  0  0  0  0  0  0
    0.8058    1.9077    0.9870 O   0  0  0  0  0  0  0  0  0  0  0  0
   -0.8796    1.8715   -0.5051 N   0  0  0  0  0  0  0  0  0  0  0  0
   -1.4713    1.2760   -1.0663 H   0  0  0  0  0  0  0  0  0  0  0  0
   -1.1787    3.3018   -0.4640 C   0  0  0  0  0  0  0  0  0  0  0  0
   -0.2586    3.8758   -0.5943 H   0  0  0  0  0  0  0  0  0  0  0  0
   -1.8806    3.5632   -1.2568 H   0  0  0  0  0  0  0  0  0  0  0  0
   -1.6148    3.5574    0.5032 H   0  0  0  0  0  0  0  0  0  0  0  0
  5  6  2  0  0  0  0
  5  7  1  0  0  0  0
  2  3  1  0  0  0  0
  2  4  1  0  0  0  0
  2  5  1  0  0  0  0
  1  2  1  0  0  0  0
 16 17  2  0  0  0  0
 16 18  1  0  0  0  0
 14 15  1  0  0  0  0
 11 12  1  0  0  0  0
 11 13  1  0  0  0  0
 11 14  1  0  0  0  0
  9 10  1  0  0  0  0
  9 11  1  0  0  0  0
  9 16  1  0  0  0  0
  7  8  1  0  0  0  0
  7  9  1  0  0  0  0
 20 21  1  0  0  0  0
 20 22  1  0  0  0  0
 20 23  1  0  0  0  0
 18 19  1  0  0  0  0
 18 20  1  0  0  0  0
M  END
$$$$
default_name
  -OEChem-01062215323D

 23 22  0     1  0  0  0  0  0999 V2000
   -2.6857   -3.6684    0.8743 H   0  0  0  0  0  0  0  0  0  0  0  0
   -2.6617   -2.6474    0.4953 C   0  0  0  0  0  0  0  0  0  0  0  0
   -3.2657   -2.0054    1.1353 H   0  0  0  0  0  0  0  0  0  0  0  0
   -3.0477   -2.6254   -0.5217 H   0  0  0  0  0  0  0  0  0  0  0  0
   -1.2337   -2.1564    0.4993 C   0  0  0  0  0  0  0  0  0  0  0  0
   -0.3327   -2.8864    0.8893 O   0  0  0  0  0  0  0  0  0  0  0  0
   -1.0277   -0.9164    0.0623 N   0  0  0  0  0  0  0  0  0  0  0  0
   -1.8237   -0.3604   -0.2157 H   0  0  0  0  0  0  0  0  0  0  0  0
    0.2713   -0.2414    0.0463 C   0  0  1  0  0  0  0  0  0  0  0  0
    0.8652   -0.6028    0.8882 H   0  0  0  0  0  0  0  0  0  0  0  0
    0.9986   -0.6130   -1.2564 C   0  0  0  0  0  0  0  0  0  0  0  0
    0.3510   -0.3737   -2.1029 H   0  0  0  0  0  0  0  0  0  0  0  0
    1.9168   -0.0280   -1.3403 H   0  0  0  0  0  0  0  0  0  0  0  0
    1.3897   -2.3866   -1.3079 S   0  0  0  0  0  0  0  0  0  0  0  0
    1.8804   -2.4118   -2.5529 H   0  0  0  0  0  0  0  0  0  0  0  0
    0.0808    1.2799    0.2146 C   0  0  0  0  0  0  0  0  0  0  0  0
    0.9579    1.9522    0.7578 O   0  0  0  0  0  0  0  0  0  0  0  0
   -1.0499    1.8222   -0.2520 N   0  0  0  0  0  0  0  0  0  0  0  0
   -1.7455    1.1930   -0.6261 H   0  0  0  0  0  0  0  0  0  0  0  0
   -1.3749    3.2454   -0.1763 C   0  0  0  0  0  0  0  0  0  0  0  0
   -0.5374    3.8364   -0.5538 H   0  0  0  0  0  0  0  0  0  0  0  0
   -2.2637    3.4614   -0.7703 H   0  0  0  0  0  0  0  0  0  0  0  0
   -1.5581    3.5247    0.8627 H   0  0  0  0  0  0  0  0  0  0  0  0
  5  6  2  0  0  0  0
  5  7  1  0  0  0  0
  2  3  1  0  0  0  0
  2  4  1  0  0  0  0
  2  5  1  0  0  0  0
  1  2  1  0  0  0  0
 16 17  2  0  0  0  0
 16 18  1  0  0  0  0
 14 15  1  0  0  0  0
 11 12  1  0  0  0  0
 11 13  1  0  0  0  0
 11 14  1  0  0  0  0
  9 10  1  0  0  0  0
  9 11  1  0  0  0  0
  9 16  1  0  0  0  0
  7  8  1  0  0  0  0
  7  9  1  0  0  0  0
 20 21  1  0  0  0  0
 20 22  1  0  0  0  0
 20 23  1  0  0  0  0
 18 19  1  0  0  0  0
 18 20  1  0  0  0  0
M  END
$$$$
default_name
  -OEChem-01062215323D

 23 22  0     1  0  0  0  0  0999 V2000
   -2.6857   -3.6684    0.8743 H   0  0  0  0  0  0  0  0  0  0  0  0
   -2.6617   -2.6474    0.4953 C   0  0  0  0  0  0  0  0  0  0  0  0
   -3.2657   -2.0054    1.1353 H   0  0  0  0  0  0  0  0  0  0  0  0
   -3.0477   -2.6254   -0.5217 H   0  0  0  0  0  0  0  0  0  0  0  0
   -1.2337   -2.1564    0.4993 C   0  0  0  0  0  0  0  0  0  0  0  0
   -0.3327   -2.8864    0.8893 O   0  0  0  0  0  0  0  0  0  0  0  0
   -1.0277   -0.9164    0.0623 N   0  0  0  0  0  0  0  0  0  0  0  0
   -1.8237   -0.3604   -0.2157 H   0  0  0  0  0  0  0  0  0  0  0  0
    0.2713   -0.2414    0.0463 C   0  0  1  0  0  0  0  0  0  0  0  0
    0.8652   -0.6028    0.8882 H   0  0  0  0  0  0  0  0  0  0  0  0
    0.9986   -0.6130   -1.2564 C   0  0  0  0  0  0  0  0  0  0  0  0
    0.3510   -0.3737   -2.1029 H   0  0  0  0  0  0  0  0  0  0  0  0
    1.9168   -0.0280   -1.3403 H   0  0  0  0  0  0  0  0  0  0  0  0
    1.3897   -2.3866   -1.3079 S   0  0  0  0  0  0  0  0  0  0  0  0
    1.8804   -2.4118   -2.5529 H   0  0  0  0  0  0  0  0  0  0  0  0
    0.0808    1.2799    0.2146 C   0  0  0  0  0  0  0  0  0  0  0  0
    1.0451    1.9920    0.4961 O   0  0  0  0  0  0  0  0  0  0  0  0
   -1.1484    1.7778    0.0375 N   0  0  0  0  0  0  0  0  0  0  0  0
   -1.8956    1.1191   -0.1283 H   0  0  0  0  0  0  0  0  0  0  0  0
   -1.4893    3.1946    0.1535 C   0  0  0  0  0  0  0  0  0  0  0  0
   -0.7953    3.7917   -0.4422 H   0  0  0  0  0  0  0  0  0  0  0  0
   -2.5066    3.3678   -0.1993 H   0  0  0  0  0  0  0  0  0  0  0  0
   -1.4107    3.5062    1.1964 H   0  0  0  0  0  0  0  0  0  0  0  0
  5  6  2  0  0  0  0
  5  7  1  0  0  0  0
  2  3  1  0  0  0  0
  2  4  1  0  0  0  0
  2  5  1  0  0  0  0
  1  2  1  0  0  0  0
 16 17  2  0  0  0  0
 16 18  1  0  0  0  0
 14 15  1  0  0  0  0
 11 12  1  0  0  0  0
 11 13  1  0  0  0  0
 11 14  1  0  0  0  0
  9 10  1  0  0  0  0
  9 11  1  0  0  0  0
  9 16  1  0  0  0  0
  7  8  1  0  0  0  0
  7  9  1  0  0  0  0
 20 21  1  0  0  0  0
 20 22  1  0  0  0  0
 20 23  1  0  0  0  0
 18 19  1  0  0  0  0
 18 20  1  0  0  0  0
M  END
$$$$
default_name
  -OEChem-01062215323D

 23 22  0     1  0  0  0  0  0999 V2000
   -2.6857   -3.6684    0.8743 H   0  0  0  0  0  0  0  0  0  0  0  0
   -2.6617   -2.6474    0.4953 C   0  0  0  0  0  0  0  0  0  0  0  0
   -3.2657   -2.0054    1.1353 H   0  0  0  0  0  0  0  0  0  0  0  0
   -3.0477   -2.6254   -0.5217 H   0  0  0  0  0  0  0  0  0  0  0  0
   -1.2337   -2.1564    0.4993 C   0  0  0  0  0  0  0  0  0  0  0  0
   -0.3327   -2.8864    0.8893 O   0  0  0  0  0  0  0  0  0  0  0  0
   -1.0277   -0.9164    0.0623 N   0  0  0  0  0  0  0  0  0  0  0  0
   -1.8237   -0.3604   -0.2157 H   0  0  0  0  0  0  0  0  0  0  0  0
    0.2713   -0.2414    0.0463 C   0  0  1  0  0  0  0  0  0  0  0  0
    0.8652   -0.6028    0.8882 H   0  0  0  0  0  0  0  0  0  0  0  0
    0.9986   -0.6130   -1.2564 C   0  0  0  0  0  0  0  0  0  0  0  0
    0.3510   -0.3737   -2.1029 H   0  0  0  0  0  0  0  0  0  0  0  0
    1.9168   -0.0280   -1.3403 H   0  0  0  0  0  0  0  0  0  0  0  0
    1.3897   -2.3866   -1.3079 S   0  0  0  0  0  0  0  0  0  0  0  0
    1.8804   -2.4118   -2.5529 H   0  0  0  0  0  0  0  0  0  0  0  0
    0.0808    1.2799    0.2146 C   0  0  0  0  0  0  0  0  0  0  0  0
    1.0615    2.0246    0.2199 O   0  0  0  0  0  0  0  0  0  0  0  0
   -1.1685    1.7414    0.3437 N   0  0  0  0  0  0  0  0  0  0  0  0
   -1.9114    1.0594    0.3932 H   0  0  0  0  0  0  0  0  0  0  0  0
   -1.5142    3.1528    0.5029 C   0  0  0  0  0  0  0  0  0  0  0  0
   -1.0146    3.7449   -0.2672 H   0  0  0  0  0  0  0  0  0  0  0  0
   -2.5929    3.2888    0.4172 H   0  0  0  0  0  0  0  0  0  0  0  0
   -1.1826    3.5033    1.4818 H   0  0  0  0  0  0  0  0  0  0  0  0
  5  6  2  0  0  0  0
  5  7  1  0  0  0  0
  2  3  1  0  0  0  0
  2  4  1  0  0  0  0
  2  5  1  0  0  0  0
  1  2  1  0  0  0  0
 16 17  2  0  0  0  0
 16 18  1  0  0  0  0
 14 15  1  0  0  0  0
 11 12  1  0  0  0  0
 11 13  1  0  0  0  0
 11 14  1  0  0  0  0
  9 10  1  0  0  0  0
  9 11  1  0  0  0  0
  9 16  1  0  0  0  0
  7  8  1  0  0  0  0
  7  9  1  0  0  0  0
 20 21  1  0  0  0  0
 20 22  1  0  0  0  0
 20 23  1  0  0  0  0
 18 19  1  0  0  0  0
 18 20  1  0  0  0  0
M  END
$$$$
default_name
  -OEChem-01062215323D

 23 22  0     1  0  0  0  0  0999 V2000
   -2.6857   -3.6684    0.8743 H   0  0  0  0  0  0  0  0  0  0  0  0
   -2.6617   -2.6474    0.4953 C   0  0  0  0  0  0  0  0  0  0  0  0
   -3.2657   -2.0054    1.1353 H   0  0  0  0  0  0  0  0  0  0  0  0
   -3.0477   -2.6254   -0.5217 H   0  0  0  0  0  0  0  0  0  0  0  0
   -1.2337   -2.1564    0.4993 C   0  0  0  0  0  0  0  0  0  0  0  0
   -0.3327   -2.8864    0.8893 O   0  0  0  0  0  0  0  0  0  0  0  0
   -1.0277   -0.9164    0.0623 N   0  0  0  0  0  0  0  0  0  0  0  0
   -1.8237   -0.3604   -0.2157 H   0  0  0  0  0  0  0  0  0  0  0  0
    0.2713   -0.2414    0.0463 C   0  0  1  0  0  0  0  0  0  0  0  0
    0.8652   -0.6028    0.8882 H   0  0  0  0  0  0  0  0  0  0  0  0
    0.9986   -0.6130   -1.2564 C   0  0  0  0  0  0  0  0  0  0  0  0
    0.3510   -0.3737   -2.1029 H   0  0  0  0  0  0  0  0  0  0  0  0
    1.9168   -0.0280   -1.3403 H   0  0  0  0  0  0  0  0  0  0  0  0
    1.3897   -2.3866   -1.3079 S   0  0  0  0  0  0  0  0  0  0  0  0
    1.8804   -2.4118   -2.5529 H   0  0  0  0  0  0  0  0  0  0  0  0
    0.0808    1.2799    0.2146 C   0  0  0  0  0  0  0  0  0  0  0  0
    1.0058    2.0477   -0.0522 O   0  0  0  0  0  0  0  0  0  0  0  0
   -1.1086    1.7155    0.6458 N   0  0  0  0  0  0  0  0  0  0  0  0
   -1.7919    1.0180    0.9030 H   0  0  0  0  0  0  0  0  0  0  0  0
   -1.4479    3.1229    0.8481 C   0  0  0  0  0  0  0  0  0  0  0  0
   -1.1804    3.6991   -0.0406 H   0  0  0  0  0  0  0  0  0  0  0  0
   -2.5166    3.2298    1.0373 H   0  0  0  0  0  0  0  0  0  0  0  0
   -0.8893    3.5159    1.6993 H   0  0  0  0  0  0  0  0  0  0  0  0
  5  6  2  0  0  0  0
  5  7  1  0  0  0  0
  2  3  1  0  0  0  0
  2  4  1  0  0  0  0
  2  5  1  0  0  0  0
  1  2  1  0  0  0  0
 16 17  2  0  0  0  0
 16 18  1  0  0  0  0
 14 15  1  0  0  0  0
 11 12  1  0  0  0  0
 11 13  1  0  0  0  0
 11 14  1  0  0  0  0
  9 10  1  0  0  0  0
  9 11  1  0  0  0  0
  9 16  1  0  0  0  0
  7  8  1  0  0  0  0
  7  9  1  0  0  0  0
 20 21  1  0  0  0  0
 20 22  1  0  0  0  0
 20 23  1  0  0  0  0
 18 19  1  0  0  0  0
 18 20  1  0  0  0  0
M  END
$$$$
default_name
  -OEChem-01062215323D

 23 22  0     1  0  0  0  0  0999 V2000
   -2.6857   -3.6684    0.8743 H   0  0  0  0  0  0  0  0  0  0  0  0
   -2.6617   -2.6474    0.4953 C   0  0  0  0  0  0  0  0  0  0  0  0
   -3.2657   -2.0054    1.1353 H   0  0  0  0  0  0  0  0  0  0  0  0
   -3.0477   -2.6254   -0.5217 H   0  0  0  0  0  0  0  0  0  0  0  0
   -1.2337   -2.1564    0.4993 C   0  0  0  0  0  0  0  0  0  0  0  0
   -0.3327   -2.8864    0.8893 O   0  0  0  0  0  0  0  0  0  0  0  0
   -1.0277   -0.9164    0.0623 N   0  0  0  0  0  0  0  0  0  0  0  0
   -1.8237   -0.3604   -0.2157 H   0  0  0  0  0  0  0  0  0  0  0  0
    0.2713   -0.2414    0.0463 C   0  0  1  0  0  0  0  0  0  0  0  0
    0.8652   -0.6028    0.8882 H   0  0  0  0  0  0  0  0  0  0  0  0
    0.9986   -0.6130   -1.2564 C   0  0  0  0  0  0  0  0  0  0  0  0
    0.3510   -0.3737   -2.1029 H   0  0  0  0  0  0  0  0  0  0  0  0
    1.9168   -0.0280   -1.3403 H   0  0  0  0  0  0  0  0  0  0  0  0
    1.3897   -2.3866   -1.3079 S   0  0  0  0  0  0  0  0  0  0  0  0
    1.8804   -2.4118   -2.5529 H   0  0  0  0  0  0  0  0  0  0  0  0
    0.0808    1.2799    0.2146 C   0  0  0  0  0  0  0  0  0  0  0  0
    0.8819    2.0598   -0.3015 O   0  0  0  0  0  0  0  0  0  0  0  0
   -0.9729    1.7018    0.9231 N   0  0  0  0  0  0  0  0  0  0  0  0
   -1.5452    0.9977    1.3661 H   0  0  0  0  0  0  0  0  0  0  0  0
   -1.2949    3.1070    1.1655 C   0  0  0  0  0  0  0  0  0  0  0  0
   -1.2815    3.6574    0.2220 H   0  0  0  0  0  0  0  0  0  0  0  0
   -2.2830    3.1947    1.6186 H   0  0  0  0  0  0  0  0  0  0  0  0
   -0.5509    3.5434    1.8341 H   0  0  0  0  0  0  0  0  0  0  0  0
  5  6  2  0  0  0  0
  5  7  1  0  0  0  0
  2  3  1  0  0  0  0
  2  4  1  0  0  0  0
  2  5  1  0  0  0  0
  1  2  1  0  0  0  0
 16 17  2  0  0  0  0
 16 18  1  0  0  0  0
 14 15  1  0  0  0  0
 11 12  1  0  0  0  0
 11 13  1  0  0  0  0
 11 14  1  0  0  0  0
  9 10  1  0  0  0  0
  9 11  1  0  0  0  0
  9 16  1  0  0  0  0
  7  8  1  0  0  0  0
  7  9  1  0  0  0  0
 20 21  1  0  0  0  0
 20 22  1  0  0  0  0
 20 23  1  0  0  0  0
 18 19  1  0  0  0  0
 18 20  1  0  0  0  0
M  END
$$$$
default_name
  -OEChem-01062215323D

 23 22  0     1  0  0  0  0  0999 V2000
   -2.6857   -3.6684    0.8743 H   0  0  0  0  0  0  0  0  0  0  0  0
   -2.6617   -2.6474    0.4953 C   0  0  0  0  0  0  0  0  0  0  0  0
   -3.2657   -2.0054    1.1353 H   0  0  0  0  0  0  0  0  0  0  0  0
   -3.0477   -2.6254   -0.5217 H   0  0  0  0  0  0  0  0  0  0  0  0
   -1.2337   -2.1564    0.4993 C   0  0  0  0  0  0  0  0  0  0  0  0
   -0.3327   -2.8864    0.8893 O   0  0  0  0  0  0  0  0  0  0  0  0
   -1.0277   -0.9164    0.0623 N   0  0  0  0  0  0  0  0  0  0  0  0
   -1.8237   -0.3604   -0.2157 H   0  0  0  0  0  0  0  0  0  0  0  0
    0.2713   -0.2414    0.0463 C   0  0  1  0  0  0  0  0  0  0  0  0
    0.8652   -0.6028    0.8882 H   0  0  0  0  0  0  0  0  0  0  0  0
    0.9986   -0.6130   -1.2564 C   0  0  0  0  0  0  0  0  0  0  0  0
    0.3510   -0.3737   -2.1029 H   0  0  0  0  0  0  0  0  0  0  0  0
    1.9168   -0.0280   -1.3403 H   0  0  0  0  0  0  0  0  0  0  0  0
    1.3897   -2.3866   -1.3079 S   0  0  0  0  0  0  0  0  0  0  0  0
    1.8804   -2.4118   -2.5529 H   0  0  0  0  0  0  0  0  0  0  0  0
    0.0808    1.2799    0.2146 C   0  0  0  0  0  0  0  0  0  0  0  0
    0.6982    2.0600   -0.5111 O   0  0  0  0  0  0  0  0  0  0  0  0
   -0.7707    1.7013    1.1568 N   0  0  0  0  0  0  0  0  0  0  0  0
   -1.1881    0.9998    1.7512 H   0  0  0  0  0  0  0  0  0  0  0  0
   -1.0656    3.1060    1.4336 C   0  0  0  0  0  0  0  0  0  0  0  0
   -1.3109    3.6226    0.5029 H   0  0  0  0  0  0  0  0  0  0  0  0
   -1.9079    3.1861    2.1217 H   0  0  0  0  0  0  0  0  0  0  0  0
   -0.1903    3.5838    1.8770 H   0  0  0  0  0  0  0  0  0  0  0  0
  5  6  2  0  0  0  0
  5  7  1  0  0  0  0
  2  3  1  0  0  0  0
  2  4  1  0  0  0  0
  2  5  1  0  0  0  0
  1  2  1  0  0  0  0
 16 17  2  0  0  0  0
 16 18  1  0  0  0  0
 14 15  1  0  0  0  0
 11 12  1  0  0  0  0
 11 13  1  0  0  0  0
 11 14  1  0  0  0  0
  9 10  1  0  0  0  0
  9 11  1  0  0  0  0
  9 16  1  0  0  0  0
  7  8  1  0  0  0  0
  7  9  1  0  0  0  0
 20 21  1  0  0  0  0
 20 22  1  0  0  0  0
 20 23  1  0  0  0  0
 18 19  1  0  0  0  0
 18 20  1  0  0  0  0
M  END
$$$$
default_name
  -OEChem-01062215323D

 23 22  0     1  0  0  0  0  0999 V2000
   -2.6857   -3.6684    0.8743 H   0  0  0  0  0  0  0  0  0  0  0  0
   -2.6617   -2.6474    0.4953 C   0  0  0  0  0  0  0  0  0  0  0  0
   -3.2657   -2.0054    1.1353 H   0  0  0  0  0  0  0  0  0  0  0  0
   -3.0477   -2.6254   -0.5217 H   0  0  0  0  0  0  0  0  0  0  0  0
   -1.2337   -2.1564    0.4993 C   0  0  0  0  0  0  0  0  0  0  0  0
   -0.3327   -2.8864    0.8893 O   0  0  0  0  0  0  0  0  0  0  0  0
   -1.0277   -0.9164    0.0623 N   0  0  0  0  0  0  0  0  0  0  0  0
   -1.8237   -0.3604   -0.2157 H   0  0  0  0  0  0  0  0  0  0  0  0
    0.2713   -0.2414    0.0463 C   0  0  1  0  0  0  0  0  0  0  0  0
    0.8652   -0.6028    0.8882 H   0  0  0  0  0  0  0  0  0  0  0  0
    0.9986   -0.6130   -1.2564 C   0  0  0  0  0  0  0  0  0  0  0  0
    0.3510   -0.3737   -2.1029 H   0  0  0  0  0  0  0  0  0  0  0  0
    1.9168   -0.0280   -1.3403 H   0  0  0  0  0  0  0  0  0  0  0  0
    1.3897   -2.3866   -1.3079 S   0  0  0  0  0  0  0  0  0  0  0  0
    1.8804   -2.4118   -2.5529 H   0  0  0  0  0  0  0  0  0  0  0  0
    0.0808    1.2799    0.2146 C   0  0  0  0  0  0  0  0  0  0  0  0
    0.4673    2.0483   -0.6666 O   0  0  0  0  0  0  0  0  0  0  0  0
   -0.5157    1.7140    1.3309 N   0  0  0  0  0  0  0  0  0  0  0  0
   -0.7449    1.0243    2.0319 H   0  0  0  0  0  0  0  0  0  0  0  0
   -0.7756    3.1202    1.6340 C   0  0  0  0  0  0  0  0  0  0  0  0
   -1.2666    3.5972    0.7828 H   0  0  0  0  0  0  0  0  0  0  0  0
   -1.4170    3.2044    2.5121 H   0  0  0  0  0  0  0  0  0  0  0  0
    0.1678    3.6344    1.8251 H   0  0  0  0  0  0  0  0  0  0  0  0
  5  6  2  0  0  0  0
  5  7  1  0  0  0  0
  2  3  1  0  0  0  0
  2  4  1  0  0  0  0
  2  5  1  0  0  0  0
  1  2  1  0  0  0  0
 16 17  2  0  0  0  0
 16 18  1  0  0  0  0
 14 15  1  0  0  0  0
 11 12  1  0  0  0  0
 11 13  1  0  0  0  0
 11 14  1  0  0  0  0
  9 10  1  0  0  0  0
  9 11  1  0  0  0  0
  9 16  1  0  0  0  0
  7  8  1  0  0  0  0
  7  9  1  0  0  0  0
 20 21  1  0  0  0  0
 20 22  1  0  0  0  0
 20 23  1  0  0  0  0
 18 19  1  0  0  0  0
 18 20  1  0  0  0  0
M  END
$$$$
default_name
  -OEChem-01062215323D

 23 22  0     1  0  0  0  0  0999 V2000
   -2.6857   -3.6684    0.8743 H   0  0  0  0  0  0  0  0  0  0  0  0
   -2.6617   -2.6474    0.4953 C   0  0  0  0  0  0  0  0  0  0  0  0
   -3.2657   -2.0054    1.1353 H   0  0  0  0  0  0  0  0  0  0  0  0
   -3.0477   -2.6254   -0.5217 H   0  0  0  0  0  0  0  0  0  0  0  0
   -1.2337   -2.1564    0.4993 C   0  0  0  0  0  0  0  0  0  0  0  0
   -0.3327   -2.8864    0.8893 O   0  0  0  0  0  0  0  0  0  0  0  0
   -1.0277   -0.9164    0.0623 N   0  0  0  0  0  0  0  0  0  0  0  0
   -1.8237   -0.3604   -0.2157 H   0  0  0  0  0  0  0  0  0  0  0  0
    0.2713   -0.2414    0.0463 C   0  0  1  0  0  0  0  0  0  0  0  0
    0.8652   -0.6028    0.8882 H   0  0  0  0  0  0  0  0  0  0  0  0
    0.9986   -0.6130   -1.2564 C   0  0  0  0  0  0  0  0  0  0  0  0
    0.3510   -0.3737   -2.1029 H   0  0  0  0  0  0  0  0  0  0  0  0
    1.9168   -0.0280   -1.3403 H   0  0  0  0  0  0  0  0  0  0  0  0
    1.3897   -2.3866   -1.3079 S   0  0  0  0  0  0  0  0  0  0  0  0
    1.8804   -2.4118   -2.5529 H   0  0  0  0  0  0  0  0  0  0  0  0
    0.0808    1.2799    0.2146 C   0  0  0  0  0  0  0  0  0  0  0  0
    0.2049    2.0255   -0.7576 O   0  0  0  0  0  0  0  0  0  0  0  0
   -0.2253    1.7390    1.4335 N   0  0  0  0  0  0  0  0  0  0  0  0
   -0.2458    1.0694    2.1891 H   0  0  0  0  0  0  0  0  0  0  0  0
   -0.4448    3.1484    1.7531 C   0  0  0  0  0  0  0  0  0  0  0  0
   -1.1517    3.5828    1.0426 H   0  0  0  0  0  0  0  0  0  0  0  0
   -0.8436    3.2484    2.7633 H   0  0  0  0  0  0  0  0  0  0  0  0
    0.4990    3.6917    1.6820 H   0  0  0  0  0  0  0  0  0  0  0  0
  5  6  2  0  0  0  0
  5  7  1  0  0  0  0
  2  3  1  0  0  0  0
  2  4  1  0  0  0  0
  2  5  1  0  0  0  0
  1  2  1  0  0  0  0
 16 17  2  0  0  0  0
 16 18  1  0  0  0  0
 14 15  1  0  0  0  0
 11 12  1  0  0  0  0
 11 13  1  0  0  0  0
 11 14  1  0  0  0  0
  9 10  1  0  0  0  0
  9 11  1  0  0  0  0
  9 16  1  0  0  0  0
  7  8  1  0  0  0  0
  7  9  1  0  0  0  0
 20 21  1  0  0  0  0
 20 22  1  0  0  0  0
 20 23  1  0  0  0  0
 18 19  1  0  0  0  0
 18 20  1  0  0  0  0
M  END
$$$$
default_name
  -OEChem-01062215323D

 23 22  0     1  0  0  0  0  0999 V2000
   -2.6857   -3.6684    0.8743 H   0  0  0  0  0  0  0  0  0  0  0  0
   -2.6617   -2.6474    0.4953 C   0  0  0  0  0  0  0  0  0  0  0  0
   -3.2657   -2.0054    1.1353 H   0  0  0  0  0  0  0  0  0  0  0  0
   -3.0477   -2.6254   -0.5217 H   0  0  0  0  0  0  0  0  0  0  0  0
   -1.2337   -2.1564    0.4993 C   0  0  0  0  0  0  0  0  0  0  0  0
   -0.3327   -2.8864    0.8893 O   0  0  0  0  0  0  0  0  0  0  0  0
   -1.0277   -0.9164    0.0623 N   0  0  0  0  0  0  0  0  0  0  0  0
   -1.8237   -0.3604   -0.2157 H   0  0  0  0  0  0  0  0  0  0  0  0
    0.2713   -0.2414    0.0463 C   0  0  1  0  0  0  0  0  0  0  0  0
    0.8652   -0.6028    0.8882 H   0  0  0  0  0  0  0  0  0  0  0  0
    0.9986   -0.6130   -1.2564 C   0  0  0  0  0  0  0  0  0  0  0  0
    0.3510   -0.3737   -2.1029 H   0  0  0  0  0  0  0  0  0  0  0  0
    1.9168   -0.0280   -1.3403 H   0  0  0  0  0  0  0  0  0  0  0  0
    1.3897   -2.3866   -1.3079 S   0  0  0  0  0  0  0  0  0  0  0  0
    1.8804   -2.4118   -2.5529 H   0  0  0  0  0  0  0  0  0  0  0  0
    0.0808    1.2799    0.2146 C   0  0  0  0  0  0  0  0  0  0  0  0
   -0.0711    1.9931   -0.7777 O   0  0  0  0  0  0  0  0  0  0  0  0
    0.0807    1.7747    1.4578 N   0  0  0  0  0  0  0  0  0  0  0  0
    0.2751    1.1321    2.2121 H   0  0  0  0  0  0  0  0  0  0  0  0
   -0.0957    3.1889    1.7828 C   0  0  0  0  0  0  0  0  0  0  0  0
   -0.9740    3.5805    1.2647 H   0  0  0  0  0  0  0  0  0  0  0  0
   -0.2269    3.3152    2.8582 H   0  0  0  0  0  0  0  0  0  0  0  0
    0.7807    3.7519    1.4574 H   0  0  0  0  0  0  0  0  0  0  0  0
  5  6  2  0  0  0  0
  5  7  1  0  0  0  0
  2  3  1  0  0  0  0
  2  4  1  0  0  0  0
  2  5  1  0  0  0  0
  1  2  1  0  0  0  0
 16 17  2  0  0  0  0
 16 18  1  0  0  0  0
 14 15  1  0  0  0  0
 11 12  1  0  0  0  0
 11 13  1  0  0  0  0
 11 14  1  0  0  0  0
  9 10  1  0  0  0  0
  9 11  1  0  0  0  0
  9 16  1  0  0  0  0
  7  8  1  0  0  0  0
  7  9  1  0  0  0  0
 20 21  1  0  0  0  0
 20 22  1  0  0  0  0
 20 23  1  0  0  0  0
 18 19  1  0  0  0  0
 18 20  1  0  0  0  0
M  END
$$$$
default_name
  -OEChem-01062215323D

 23 22  0     1  0  0  0  0  0999 V2000
   -2.6857   -3.6684    0.8743 H   0  0  0  0  0  0  0  0  0  0  0  0
   -2.6617   -2.6474    0.4953 C   0  0  0  0  0  0  0  0  0  0  0  0
   -3.2657   -2.0054    1.1353 H   0  0  0  0  0  0  0  0  0  0  0  0
   -3.0477   -2.6254   -0.5217 H   0  0  0  0  0  0  0  0  0  0  0  0
   -1.2337   -2.1564    0.4993 C   0  0  0  0  0  0  0  0  0  0  0  0
   -0.3327   -2.8864    0.8893 O   0  0  0  0  0  0  0  0  0  0  0  0
   -1.0277   -0.9164    0.0623 N   0  0  0  0  0  0  0  0  0  0  0  0
   -1.8237   -0.3604   -0.2157 H   0  0  0  0  0  0  0  0  0  0  0  0
    0.2713   -0.2414    0.0463 C   0  0  1  0  0  0  0  0  0  0  0  0
    0.8652   -0.6028    0.8882 H   0  0  0  0  0  0  0  0  0  0  0  0
    0.9986   -0.6130   -1.2564 C   0  0  0  0  0  0  0  0  0  0  0  0
    0.3510   -0.3737   -2.1029 H   0  0  0  0  0  0  0  0  0  0  0  0
    1.9168   -0.0280   -1.3403 H   0  0  0  0  0  0  0  0  0  0  0  0
    1.3897   -2.3866   -1.3079 S   0  0  0  0  0  0  0  0  0  0  0  0
    1.8804   -2.4118   -2.5529 H   0  0  0  0  0  0  0  0  0  0  0  0
    0.0808    1.2799    0.2146 C   0  0  0  0  0  0  0  0  0  0  0  0
   -0.3420    1.9534   -0.7256 O   0  0  0  0  0  0  0  0  0  0  0  0
    0.3815    1.8185    1.4019 N   0  0  0  0  0  0  0  0  0  0  0  0
    0.7823    1.2082    2.0993 H   0  0  0  0  0  0  0  0  0  0  0  0
    0.2480    3.2388    1.7211 C   0  0  0  0  0  0  0  0  0  0  0  0
   -0.7455    3.5904    1.4340 H   0  0  0  0  0  0  0  0  0  0  0  0
    0.3911    3.4001    2.7902 H   0  0  0  0  0  0  0  0  0  0  0  0
    0.9939    3.8108    1.1665 H   0  0  0  0  0  0  0  0  0  0  0  0
  5  6  2  0  0  0  0
  5  7  1  0  0  0  0
  2  3  1  0  0  0  0
  2  4  1  0  0  0  0
  2  5  1  0  0  0  0
  1  2  1  0  0  0  0
 16 17  2  0  0  0  0
 16 18  1  0  0  0  0
 14 15  1  0  0  0  0
 11 12  1  0  0  0  0
 11 13  1  0  0  0  0
 11 14  1  0  0  0  0
  9 10  1  0  0  0  0
  9 11  1  0  0  0  0
  9 16  1  0  0  0  0
  7  8  1  0  0  0  0
  7  9  1  0  0  0  0
 20 21  1  0  0  0  0
 20 22  1  0  0  0  0
 20 23  1  0  0  0  0
 18 19  1  0  0  0  0
 18 20  1  0  0  0  0
M  END
$$$$
default_name
  -OEChem-01062215323D

 23 22  0     1  0  0  0  0  0999 V2000
   -2.6857   -3.6684    0.8743 H   0  0  0  0  0  0  0  0  0  0  0  0
   -2.6617   -2.6474    0.4953 C   0  0  0  0  0  0  0  0  0  0  0  0
   -3.2657   -2.0054    1.1353 H   0  0  0  0  0  0  0  0  0  0  0  0
   -3.0477   -2.6254   -0.5217 H   0  0  0  0  0  0  0  0  0  0  0  0
   -1.2337   -2.1564    0.4993 C   0  0  0  0  0  0  0  0  0  0  0  0
   -0.3327   -2.8864    0.8893 O   0  0  0  0  0  0  0  0  0  0  0  0
   -1.0277   -0.9164    0.0623 N   0  0  0  0  0  0  0  0  0  0  0  0
   -1.8237   -0.3604   -0.2157 H   0  0  0  0  0  0  0  0  0  0  0  0
    0.2713   -0.2414    0.0463 C   0  0  1  0  0  0  0  0  0  0  0  0
    0.8652   -0.6028    0.8882 H   0  0  0  0  0  0  0  0  0  0  0  0
    0.9986   -0.6130   -1.2564 C   0  0  0  0  0  0  0  0  0  0  0  0
    0.3510   -0.3737   -2.1029 H   0  0  0  0  0  0  0  0  0  0  0  0
    1.9168   -0.0280   -1.3403 H   0  0  0  0  0  0  0  0  0  0  0  0
    1.3897   -2.3866   -1.3079 S   0  0  0  0  0  0  0  0  0  0  0  0
    1.8804   -2.4118   -2.5529 H   0  0  0  0  0  0  0  0  0  0  0  0
    0.0808    1.2799    0.2146 C   0  0  0  0  0  0  0  0  0  0  0  0
   -0.5892    1.9091   -0.6049 O   0  0  0  0  0  0  0  0  0  0  0  0
    0.6565    1.8676    1.2698 N   0  0  0  0  0  0  0  0  0  0  0  0
    1.2414    1.2923    1.8585 H   0  0  0  0  0  0  0  0  0  0  0  0
    0.5629    3.2947    1.5722 C   0  0  0  0  0  0  0  0  0  0  0  0
   -0.4819    3.6119    1.5388 H   0  0  0  0  0  0  0  0  0  0  0  0
    0.9683    3.4974    2.5641 H   0  0  0  0  0  0  0  0  0  0  0  0
    1.1238    3.8643    0.8293 H   0  0  0  0  0  0  0  0  0  0  0  0
  5  6  2  0  0  0  0
  5  7  1  0  0  0  0
  2  3  1  0  0  0  0
  2  4  1  0  0  0  0
  2  5  1  0  0  0  0
  1  2  1  0  0  0  0
 16 17  2  0  0  0  0
 16 18  1  0  0  0  0
 14 15  1  0  0  0  0
 11 12  1  0  0  0  0
 11 13  1  0  0  0  0
 11 14  1  0  0  0  0
  9 10  1  0  0  0  0
  9 11  1  0  0  0  0
  9 16  1  0  0  0  0
  7  8  1  0  0  0  0
  7  9  1  0  0  0  0
 20 21  1  0  0  0  0
 20 22  1  0  0  0  0
 20 23  1  0  0  0  0
 18 19  1  0  0  0  0
 18 20  1  0  0  0  0
M  END
$$$$
default_name
  -OEChem-01062215323D

 23 22  0     1  0  0  0  0  0999 V2000
   -2.6857   -3.6684    0.8743 H   0  0  0  0  0  0  0  0  0  0  0  0
   -2.6617   -2.6474    0.4953 C   0  0  0  0  0  0  0  0  0  0  0  0
   -3.2657   -2.0054    1.1353 H   0  0  0  0  0  0  0  0  0  0  0  0
   -3.0477   -2.6254   -0.5217 H   0  0  0  0  0  0  0  0  0  0  0  0
   -1.2337   -2.1564    0.4993 C   0  0  0  0  0  0  0  0  0  0  0  0
   -0.3327   -2.8864    0.8893 O   0  0  0  0  0  0  0  0  0  0  0  0
   -1.0277   -0.9164    0.0623 N   0  0  0  0  0  0  0  0  0  0  0  0
   -1.8237   -0.3604   -0.2157 H   0  0  0  0  0  0  0  0  0  0  0  0
    0.2713   -0.2414    0.0463 C   0  0  1  0  0  0  0  0  0  0  0  0
    0.8652   -0.6028    0.8882 H   0  0  0  0  0  0  0  0  0  0  0  0
    0.9986   -0.6130   -1.2564 C   0  0  0  0  0  0  0  0  0  0  0  0
    0.3510   -0.3737   -2.1029 H   0  0  0  0  0  0  0  0  0  0  0  0
    1.9168   -0.0280   -1.3403 H   0  0  0  0  0  0  0  0  0  0  0  0
    1.3897   -2.3866   -1.3079 S   0  0  0  0  0  0  0  0  0  0  0  0
    1.8804   -2.4118   -2.5529 H   0  0  0  0  0  0  0  0  0  0  0  0
    0.0808    1.2799    0.2146 C   0  0  0  0  0  0  0  0  0  0  0  0
   -0.7959    1.8632   -0.4238 O   0  0  0  0  0  0  0  0  0  0  0  0
    0.8870    1.9185    1.0704 N   0  0  0  0  0  0  0  0  0  0  0  0
    1.6209    1.3788    1.5060 H   0  0  0  0  0  0  0  0  0  0  0  0
    0.8274    3.3528    1.3461 C   0  0  0  0  0  0  0  0  0  0  0  0
   -0.2011    3.6434    1.5721 H   0  0  0  0  0  0  0  0  0  0  0  0
    1.4654    3.6005    2.1952 H   0  0  0  0  0  0  0  0  0  0  0  0
    1.1618    3.9090    0.4687 H   0  0  0  0  0  0  0  0  0  0  0  0
  5  6  2  0  0  0  0
  5  7  1  0  0  0  0
  2  3  1  0  0  0  0
  2  4  1  0  0  0  0
  2  5  1  0  0  0  0
  1  2  1  0  0  0  0
 16 17  2  0  0  0  0
 16 18  1  0  0  0  0
 14 15  1  0  0  0  0
 11 12  1  0  0  0  0
 11 13  1  0  0  0  0
 11 14  1  0  0  0  0
  9 10  1  0  0  0  0
  9 11  1  0  0  0  0
  9 16  1  0  0  0  0
  7  8  1  0  0  0  0
  7  9  1  0  0  0  0
 20 21  1  0  0  0  0
 20 22  1  0  0  0  0
 20 23  1  0  0  0  0
 18 19  1  0  0  0  0
 18 20  1  0  0  0  0
M  END
$$$$
default_name
  -OEChem-01062215323D

 23 22  0     1  0  0  0  0  0999 V2000
   -2.6857   -3.6684    0.8743 H   0  0  0  0  0  0  0  0  0  0  0  0
   -2.6617   -2.6474    0.4953 C   0  0  0  0  0  0  0  0  0  0  0  0
   -3.2657   -2.0054    1.1353 H   0  0  0  0  0  0  0  0  0  0  0  0
   -3.0477   -2.6254   -0.5217 H   0  0  0  0  0  0  0  0  0  0  0  0
   -1.2337   -2.1564    0.4993 C   0  0  0  0  0  0  0  0  0  0  0  0
   -0.3327   -2.8864    0.8893 O   0  0  0  0  0  0  0  0  0  0  0  0
   -1.0277   -0.9164    0.0623 N   0  0  0  0  0  0  0  0  0  0  0  0
   -1.8237   -0.3604   -0.2157 H   0  0  0  0  0  0  0  0  0  0  0  0
    0.2713   -0.2414    0.0463 C   0  0  1  0  0  0  0  0  0  0  0  0
    0.8652   -0.6028    0.8882 H   0  0  0  0  0  0  0  0  0  0  0  0
    0.9986   -0.6130   -1.2564 C   0  0  0  0  0  0  0  0  0  0  0  0
    0.3510   -0.3737   -2.1029 H   0  0  0  0  0  0  0  0  0  0  0  0
    1.9168   -0.0280   -1.3403 H   0  0  0  0  0  0  0  0  0  0  0  0
    1.3897   -2.3866   -1.3079 S   0  0  0  0  0  0  0  0  0  0  0  0
    1.8804   -2.4118   -2.5529 H   0  0  0  0  0  0  0  0  0  0  0  0
    0.0808    1.2799    0.2146 C   0  0  0  0  0  0  0  0  0  0  0  0
   -0.9481    1.8187   -0.1946 O   0  0  0  0  0  0  0  0  0  0  0  0
    1.0574    1.9679    0.8173 N   0  0  0  0  0  0  0  0  0  0  0  0
    1.8951    1.4619    1.0658 H   0  0  0  0  0  0  0  0  0  0  0  0
    1.0235    3.4092    1.0584 C   0  0  0  0  0  0  0  0  0  0  0  0
    0.0777    3.6828    1.5316 H   0  0  0  0  0  0  0  0  0  0  0  0
    1.8485    3.7023    1.7088 H   0  0  0  0  0  0  0  0  0  0  0  0
    1.1051    3.9416    0.1093 H   0  0  0  0  0  0  0  0  0  0  0  0
  5  6  2  0  0  0  0
  5  7  1  0  0  0  0
  2  3  1  0  0  0  0
  2  4  1  0  0  0  0
  2  5  1  0  0  0  0
  1  2  1  0  0  0  0
 16 17  2  0  0  0  0
 16 18  1  0  0  0  0
 14 15  1  0  0  0  0
 11 12  1  0  0  0  0
 11 13  1  0  0  0  0
 11 14  1  0  0  0  0
  9 10  1  0  0  0  0
  9 11  1  0  0  0  0
  9 16  1  0  0  0  0
  7  8  1  0  0  0  0
  7  9  1  0  0  0  0
 20 21  1  0  0  0  0
 20 22  1  0  0  0  0
 20 23  1  0  0  0  0
 18 19  1  0  0  0  0
 18 20  1  0  0  0  0
M  END
$$$$
default_name
  -OEChem-01062215323D

 23 22  0     1  0  0  0  0  0999 V2000
   -2.6857   -3.6684    0.8743 H   0  0  0  0  0  0  0  0  0  0  0  0
   -2.6617   -2.6474    0.4953 C   0  0  0  0  0  0  0  0  0  0  0  0
   -3.2657   -2.0054    1.1353 H   0  0  0  0  0  0  0  0  0  0  0  0
   -3.0477   -2.6254   -0.5217 H   0  0  0  0  0  0  0  0  0  0  0  0
   -1.2337   -2.1564    0.4993 C   0  0  0  0  0  0  0  0  0  0  0  0
   -0.3327   -2.8864    0.8893 O   0  0  0  0  0  0  0  0  0  0  0  0
   -1.0277   -0.9164    0.0623 N   0  0  0  0  0  0  0  0  0  0  0  0
   -1.8237   -0.3604   -0.2157 H   0  0  0  0  0  0  0  0  0  0  0  0
    0.2713   -0.2414    0.0463 C   0  0  1  0  0  0  0  0  0  0  0  0
    0.8652   -0.6028    0.8882 H   0  0  0  0  0  0  0  0  0  0  0  0
    0.9986   -0.6130   -1.2564 C   0  0  0  0  0  0  0  0  0  0  0  0
    0.3510   -0.3737   -2.1029 H   0  0  0  0  0  0  0  0  0  0  0  0
    1.9168   -0.0280   -1.3403 H   0  0  0  0  0  0  0  0  0  0  0  0
    1.3897   -2.3866   -1.3079 S   0  0  0  0  0  0  0  0  0  0  0  0
    1.8804   -2.4118   -2.5529 H   0  0  0  0  0  0  0  0  0  0  0  0
    0.0808    1.2799    0.2146 C   0  0  0  0  0  0  0  0  0  0  0  0
   -1.0353    1.7789    0.0670 O   0  0  0  0  0  0  0  0  0  0  0  0
    1.1559    2.0122    0.5278 N   0  0  0  0  0  0  0  0  0  0  0  0
    2.0452    1.5357    0.5680 H   0  0  0  0  0  0  0  0  0  0  0  0
    1.1379    3.4600    0.7286 C   0  0  0  0  0  0  0  0  0  0  0  0
    0.3356    3.7274    1.4200 H   0  0  0  0  0  0  0  0  0  0  0  0
    2.0915    3.7959    1.1378 H   0  0  0  0  0  0  0  0  0  0  0  0
    0.9577    3.9601   -0.2245 H   0  0  0  0  0  0  0  0  0  0  0  0
  5  6  2  0  0  0  0
  5  7  1  0  0  0  0
  2  3  1  0  0  0  0
  2  4  1  0  0  0  0
  2  5  1  0  0  0  0
  1  2  1  0  0  0  0
 16 17  2  0  0  0  0
 16 18  1  0  0  0  0
 14 15  1  0  0  0  0
 11 12  1  0  0  0  0
 11 13  1  0  0  0  0
 11 14  1  0  0  0  0
  9 10  1  0  0  0  0
  9 11  1  0  0  0  0
  9 16  1  0  0  0  0
  7  8  1  0  0  0  0
  7  9  1  0  0  0  0
 20 21  1  0  0  0  0
 20 22  1  0  0  0  0
 20 23  1  0  0  0  0
 18 19  1  0  0  0  0
 18 20  1  0  0  0  0
M  END
$$$$
default_name
  -OEChem-01062215323D

 23 22  0     1  0  0  0  0  0999 V2000
   -2.6857   -3.6684    0.8743 H   0  0  0  0  0  0  0  0  0  0  0  0
   -2.6617   -2.6474    0.4953 C   0  0  0  0  0  0  0  0  0  0  0  0
   -3.2657   -2.0054    1.1353 H   0  0  0  0  0  0  0  0  0  0  0  0
   -3.0477   -2.6254   -0.5217 H   0  0  0  0  0  0  0  0  0  0  0  0
   -1.2337   -2.1564    0.4993 C   0  0  0  0  0  0  0  0  0  0  0  0
   -0.3327   -2.8864    0.8893 O   0  0  0  0  0  0  0  0  0  0  0  0
   -1.0277   -0.9164    0.0623 N   0  0  0  0  0  0  0  0  0  0  0  0
   -1.8237   -0.3604   -0.2157 H   0  0  0  0  0  0  0  0  0  0  0  0
    0.2713   -0.2414    0.0463 C   0  0  1  0  0  0  0  0  0  0  0  0
    0.9550   -0.7800    0.7055 H   0  0  0  0  0  0  0  0  0  0  0  0
    0.8321   -0.2955   -1.3843 C   0  0  0  0  0  0  0  0  0  0  0  0
    0.0924    0.1246   -2.0695 H   0  0  0  0  0  0  0  0  0  0  0  0
    1.7434    0.3032   -1.4410 H   0  0  0  0  0  0  0  0  0  0  0  0
    1.1845   -2.0054   -1.8878 S   0  0  0  0  0  0  0  0  0  0  0  0
    1.5231   -1.7383   -3.1549 H   0  0  0  0  0  0  0  0  0  0  0  0
    0.1277    1.1982    0.5808 C   0  0  0  0  0  0  0  0  0  0  0  0
   -0.9733    1.6100    0.9476 O   0  0  0  0  0  0  0  0  0  0  0  0
    1.2286    1.9569    0.6329 N   0  0  0  0  0  0  0  0  0  0  0  0
    2.0789    1.5660    0.2538 H   0  0  0  0  0  0  0  0  0  0  0  0
    1.2588    3.3348    1.1202 C   0  0  0  0  0  0  0  0  0  0  0  0
    0.7628    3.3942    2.0917 H   0  0  0  0  0  0  0  0  0  0  0  0
    2.2895    3.6765    1.2216 H   0  0  0  0  0  0  0  0  0  0  0  0
    0.7305    3.9832    0.4191 H   0  0  0  0  0  0  0  0  0  0  0  0
  5  6  2  0  0  0  0
  5  7  1  0  0  0  0
  2  3  1  0  0  0  0
  2  4  1  0  0  0  0
  2  5  1  0  0  0  0
  1  2  1  0  0  0  0
 16 17  2  0  0  0  0
 16 18  1  0  0  0  0
 14 15  1  0  0  0  0
 11 12  1  0  0  0  0
 11 13  1  0  0  0  0
 11 14  1  0  0  0  0
  9 10  1  0  0  0  0
  9 11  1  0  0  0  0
  9 16  1  0  0  0  0
  7  8  1  0  0  0  0
  7  9  1  0  0  0  0
 20 21  1  0  0  0  0
 20 22  1  0  0  0  0
 20 23  1  0  0  0  0
 18 19  1  0  0  0  0
 18 20  1  0  0  0  0
M  END
$$$$
default_name
  -OEChem-01062215323D

 23 22  0     1  0  0  0  0  0999 V2000
   -2.6857   -3.6684    0.8743 H   0  0  0  0  0  0  0  0  0  0  0  0
   -2.6617   -2.6474    0.4953 C   0  0  0  0  0  0  0  0  0  0  0  0
   -3.2657   -2.0054    1.1353 H   0  0  0  0  0  0  0  0  0  0  0  0
   -3.0477   -2.6254   -0.5217 H   0  0  0  0  0  0  0  0  0  0  0  0
   -1.2337   -2.1564    0.4993 C   0  0  0  0  0  0  0  0  0  0  0  0
   -0.3327   -2.8864    0.8893 O   0  0  0  0  0  0  0  0  0  0  0  0
   -1.0277   -0.9164    0.0623 N   0  0  0  0  0  0  0  0  0  0  0  0
   -1.8237   -0.3604   -0.2157 H   0  0  0  0  0  0  0  0  0  0  0  0
    0.2713   -0.2414    0.0463 C   0  0  1  0  0  0  0  0  0  0  0  0
    0.9550   -0.7800    0.7055 H   0  0  0  0  0  0  0  0  0  0  0  0
    0.8321   -0.2955   -1.3843 C   0  0  0  0  0  0  0  0  0  0  0  0
    0.0924    0.1246   -2.0695 H   0  0  0  0  0  0  0  0  0  0  0  0
    1.7434    0.3032   -1.4410 H   0  0  0  0  0  0  0  0  0  0  0  0
    1.1845   -2.0054   -1.8878 S   0  0  0  0  0  0  0  0  0  0  0  0
    1.5231   -1.7383   -3.1549 H   0  0  0  0  0  0  0  0  0  0  0  0
    0.1277    1.1982    0.5808 C   0  0  0  0  0  0  0  0  0  0  0  0
   -0.8861    1.5256    1.1984 O   0  0  0  0  0  0  0  0  0  0  0  0
    1.1337    2.0509    0.3542 N   0  0  0  0  0  0  0  0  0  0  0  0
    1.9003    1.7221   -0.2147 H   0  0  0  0  0  0  0  0  0  0  0  0
    1.1523    3.4424    0.8016 C   0  0  0  0  0  0  0  0  0  0  0  0
    0.9013    3.4927    1.8635 H   0  0  0  0  0  0  0  0  0  0  0  0
    2.1410    3.8756    0.6453 H   0  0  0  0  0  0  0  0  0  0  0  0
    0.4133    4.0176    0.2412 H   0  0  0  0  0  0  0  0  0  0  0  0
  5  6  2  0  0  0  0
  5  7  1  0  0  0  0
  2  3  1  0  0  0  0
  2  4  1  0  0  0  0
  2  5  1  0  0  0  0
  1  2  1  0  0  0  0
 16 17  2  0  0  0  0
 16 18  1  0  0  0  0
 14 15  1  0  0  0  0
 11 12  1  0  0  0  0
 11 13  1  0  0  0  0
 11 14  1  0  0  0  0
  9 10  1  0  0  0  0
  9 11  1  0  0  0  0
  9 16  1  0  0  0  0
  7  8  1  0  0  0  0
  7  9  1  0  0  0  0
 20 21  1  0  0  0  0
 20 22  1  0  0  0  0
 20 23  1  0  0  0  0
 18 19  1  0  0  0  0
 18 20  1  0  0  0  0
M  END
$$$$
default_name
  -OEChem-01062215323D

 23 22  0     1  0  0  0  0  0999 V2000
   -2.6857   -3.6684    0.8743 H   0  0  0  0  0  0  0  0  0  0  0  0
   -2.6617   -2.6474    0.4953 C   0  0  0  0  0  0  0  0  0  0  0  0
   -3.2657   -2.0054    1.1353 H   0  0  0  0  0  0  0  0  0  0  0  0
   -3.0477   -2.6254   -0.5217 H   0  0  0  0  0  0  0  0  0  0  0  0
   -1.2337   -2.1564    0.4993 C   0  0  0  0  0  0  0  0  0  0  0  0
   -0.3327   -2.8864    0.8893 O   0  0  0  0  0  0  0  0  0  0  0  0
   -1.0277   -0.9164    0.0623 N   0  0  0  0  0  0  0  0  0  0  0  0
   -1.8237   -0.3604   -0.2157 H   0  0  0  0  0  0  0  0  0  0  0  0
    0.2713   -0.2414    0.0463 C   0  0  1  0  0  0  0  0  0  0  0  0
    0.9550   -0.7800    0.7055 H   0  0  0  0  0  0  0  0  0  0  0  0
    0.8321   -0.2955   -1.3843 C   0  0  0  0  0  0  0  0  0  0  0  0
    0.0924    0.1246   -2.0695 H   0  0  0  0  0  0  0  0  0  0  0  0
    1.7434    0.3032   -1.4410 H   0  0  0  0  0  0  0  0  0  0  0  0
    1.1845   -2.0054   -1.8878 S   0  0  0  0  0  0  0  0  0  0  0  0
    1.5231   -1.7383   -3.1549 H   0  0  0  0  0  0  0  0  0  0  0  0
    0.1277    1.1982    0.5808 C   0  0  0  0  0  0  0  0  0  0  0  0
   -0.7336    1.4579    1.4217 O   0  0  0  0  0  0  0  0  0  0  0  0
    0.9662    2.1265    0.1057 N   0  0  0  0  0  0  0  0  0  0  0  0
    1.6006    1.8456   -0.6279 H   0  0  0  0  0  0  0  0  0  0  0  0
    0.9629    3.5292    0.5170 C   0  0  0  0  0  0  0  0  0  0  0  0
    0.9711    3.5948    1.6073 H   0  0  0  0  0  0  0  0  0  0  0  0
    1.8404    4.0407    0.1197 H   0  0  0  0  0  0  0  0  0  0  0  0
    0.0608    4.0180    0.1452 H   0  0  0  0  0  0  0  0  0  0  0  0
  5  6  2  0  0  0  0
  5  7  1  0  0  0  0
  2  3  1  0  0  0  0
  2  4  1  0  0  0  0
  2  5  1  0  0  0  0
  1  2  1  0  0  0  0
 16 17  2  0  0  0  0
 16 18  1  0  0  0  0
 14 15  1  0  0  0  0
 11 12  1  0  0  0  0
 11 13  1  0  0  0  0
 11 14  1  0  0  0  0
  9 10  1  0  0  0  0
  9 11  1  0  0  0  0
  9 16  1  0  0  0  0
  7  8  1  0  0  0  0
  7  9  1  0  0  0  0
 20 21  1  0  0  0  0
 20 22  1  0  0  0  0
 20 23  1  0  0  0  0
 18 19  1  0  0  0  0
 18 20  1  0  0  0  0
M  END
$$$$
default_name
  -OEChem-01062215323D

 23 22  0     1  0  0  0  0  0999 V2000
   -2.6857   -3.6684    0.8743 H   0  0  0  0  0  0  0  0  0  0  0  0
   -2.6617   -2.6474    0.4953 C   0  0  0  0  0  0  0  0  0  0  0  0
   -3.2657   -2.0054    1.1353 H   0  0  0  0  0  0  0  0  0  0  0  0
   -3.0477   -2.6254   -0.5217 H   0  0  0  0  0  0  0  0  0  0  0  0
   -1.2337   -2.1564    0.4993 C   0  0  0  0  0  0  0  0  0  0  0  0
   -0.3327   -2.8864    0.8893 O   0  0  0  0  0  0  0  0  0  0  0  0
   -1.0277   -0.9164    0.0623 N   0  0  0  0  0  0  0  0  0  0  0  0
   -1.8237   -0.3604   -0.2157 H   0  0  0  0  0  0  0  0  0  0  0  0
    0.2713   -0.2414    0.0463 C   0  0  1  0  0  0  0  0  0  0  0  0
    0.9550   -0.7800    0.7055 H   0  0  0  0  0  0  0  0  0  0  0  0
    0.8321   -0.2955   -1.3843 C   0  0  0  0  0  0  0  0  0  0  0  0
    0.0924    0.1246   -2.0695 H   0  0  0  0  0  0  0  0  0  0  0  0
    1.7434    0.3032   -1.4410 H   0  0  0  0  0  0  0  0  0  0  0  0
    1.1845   -2.0054   -1.8878 S   0  0  0  0  0  0  0  0  0  0  0  0
    1.5231   -1.7383   -3.1549 H   0  0  0  0  0  0  0  0  0  0  0  0
    0.1277    1.1982    0.5808 C   0  0  0  0  0  0  0  0  0  0  0  0
   -0.5264    1.4116    1.6021 O   0  0  0  0  0  0  0  0  0  0  0  0
    0.7376    2.1784   -0.0957 N   0  0  0  0  0  0  0  0  0  0  0  0
    1.2002    1.9280   -0.9576 H   0  0  0  0  0  0  0  0  0  0  0  0
    0.7034    3.5892    0.2857 C   0  0  0  0  0  0  0  0  0  0  0  0
    0.9674    3.6935    1.3405 H   0  0  0  0  0  0  0  0  0  0  0  0
    1.4084    4.1606   -0.3193 H   0  0  0  0  0  0  0  0  0  0  0  0
   -0.3029    3.9846    0.1376 H   0  0  0  0  0  0  0  0  0  0  0  0
  5  6  2  0  0  0  0
  5  7  1  0  0  0  0
  2  3  1  0  0  0  0
  2  4  1  0  0  0  0
  2  5  1  0  0  0  0
  1  2  1  0  0  0  0
 16 17  2  0  0  0  0
 16 18  1  0  0  0  0
 14 15  1  0  0  0  0
 11 12  1  0  0  0  0
 11 13  1  0  0  0  0
 11 14  1  0  0  0  0
  9 10  1  0  0  0  0
  9 11  1  0  0  0  0
  9 16  1  0  0  0  0
  7  8  1  0  0  0  0
  7  9  1  0  0  0  0
 20 21  1  0  0  0  0
 20 22  1  0  0  0  0
 20 23  1  0  0  0  0
 18 19  1  0  0  0  0
 18 20  1  0  0  0  0
M  END
$$$$
default_name
  -OEChem-01062215323D

 23 22  0     1  0  0  0  0  0999 V2000
   -2.6857   -3.6684    0.8743 H   0  0  0  0  0  0  0  0  0  0  0  0
   -2.6617   -2.6474    0.4953 C   0  0  0  0  0  0  0  0  0  0  0  0
   -3.2657   -2.0054    1.1353 H   0  0  0  0  0  0  0  0  0  0  0  0
   -3.0477   -2.6254   -0.5217 H   0  0  0  0  0  0  0  0  0  0  0  0
   -1.2337   -2.1564    0.4993 C   0  0  0  0  0  0  0  0  0  0  0  0
   -0.3327   -2.8864    0.8893 O   0  0  0  0  0  0  0  0  0  0  0  0
   -1.0277   -0.9164    0.0623 N   0  0  0  0  0  0  0  0  0  0  0  0
   -1.8237   -0.3604   -0.2157 H   0  0  0  0  0  0  0  0  0  0  0  0
    0.2713   -0.2414    0.0463 C   0  0  1  0  0  0  0  0  0  0  0  0
    0.9550   -0.7800    0.7055 H   0  0  0  0  0  0  0  0  0  0  0  0
    0.8321   -0.2955   -1.3843 C   0  0  0  0  0  0  0  0  0  0  0  0
    0.0924    0.1246   -2.0695 H   0  0  0  0  0  0  0  0  0  0  0  0
    1.7434    0.3032   -1.4410 H   0  0  0  0  0  0  0  0  0  0  0  0
    1.1845   -2.0054   -1.8878 S   0  0  0  0  0  0  0  0  0  0  0  0
    1.5231   -1.7383   -3.1549 H   0  0  0  0  0  0  0  0  0  0  0  0
    0.1277    1.1982    0.5808 C   0  0  0  0  0  0  0  0  0  0  0  0
   -0.2784    1.3899    1.7274 O   0  0  0  0  0  0  0  0  0  0  0  0
    0.4635    2.2033   -0.2362 N   0  0  0  0  0  0  0  0  0  0  0  0
    0.7264    1.9638   -1.1813 H   0  0  0  0  0  0  0  0  0  0  0  0
    0.3915    3.6182    0.1235 C   0  0  0  0  0  0  0  0  0  0  0  0
    0.8906    3.7820    1.0813 H   0  0  0  0  0  0  0  0  0  0  0  0
    0.8742    4.2270   -0.6419 H   0  0  0  0  0  0  0  0  0  0  0  0
   -0.6531    3.9194    0.2190 H   0  0  0  0  0  0  0  0  0  0  0  0
  5  6  2  0  0  0  0
  5  7  1  0  0  0  0
  2  3  1  0  0  0  0
  2  4  1  0  0  0  0
  2  5  1  0  0  0  0
  1  2  1  0  0  0  0
 16 17  2  0  0  0  0
 16 18  1  0  0  0  0
 14 15  1  0  0  0  0
 11 12  1  0  0  0  0
 11 13  1  0  0  0  0
 11 14  1  0  0  0  0
  9 10  1  0  0  0  0
  9 11  1  0  0  0  0
  9 16  1  0  0  0  0
  7  8  1  0  0  0  0
  7  9  1  0  0  0  0
 20 21  1  0  0  0  0
 20 22  1  0  0  0  0
 20 23  1  0  0  0  0
 18 19  1  0  0  0  0
 18 20  1  0  0  0  0
M  END
$$$$
default_name
  -OEChem-01062215323D

 23 22  0     1  0  0  0  0  0999 V2000
   -2.6857   -3.6684    0.8743 H   0  0  0  0  0  0  0  0  0  0  0  0
   -2.6617   -2.6474    0.4953 C   0  0  0  0  0  0  0  0  0  0  0  0
   -3.2657   -2.0054    1.1353 H   0  0  0  0  0  0  0  0  0  0  0  0
   -3.0477   -2.6254   -0.5217 H   0  0  0  0  0  0  0  0  0  0  0  0
   -1.2337   -2.1564    0.4993 C   0  0  0  0  0  0  0  0  0  0  0  0
   -0.3327   -2.8864    0.8893 O   0  0  0  0  0  0  0  0  0  0  0  0
   -1.0277   -0.9164    0.0623 N   0  0  0  0  0  0  0  0  0  0  0  0
   -1.8237   -0.3604   -0.2157 H   0  0  0  0  0  0  0  0  0  0  0  0
    0.2713   -0.2414    0.0463 C   0  0  1  0  0  0  0  0  0  0  0  0
    0.9550   -0.7800    0.7055 H   0  0  0  0  0  0  0  0  0  0  0  0
    0.8321   -0.2955   -1.3843 C   0  0  0  0  0  0  0  0  0  0  0  0
    0.0924    0.1246   -2.0695 H   0  0  0  0  0  0  0  0  0  0  0  0
    1.7434    0.3032   -1.4410 H   0  0  0  0  0  0  0  0  0  0  0  0
    1.1845   -2.0054   -1.8878 S   0  0  0  0  0  0  0  0  0  0  0  0
    1.5231   -1.7383   -3.1549 H   0  0  0  0  0  0  0  0  0  0  0  0
    0.1277    1.1982    0.5808 C   0  0  0  0  0  0  0  0  0  0  0  0
   -0.0067    1.3941    1.7891 O   0  0  0  0  0  0  0  0  0  0  0  0
    0.1626    2.1993   -0.3064 N   0  0  0  0  0  0  0  0  0  0  0  0
    0.2115    1.9505   -1.2838 H   0  0  0  0  0  0  0  0  0  0  0  0
    0.0484    3.6144    0.0415 C   0  0  0  0  0  0  0  0  0  0  0  0
    0.7458    3.8544    0.8473 H   0  0  0  0  0  0  0  0  0  0  0  0
    0.2744    4.2355   -0.8260 H   0  0  0  0  0  0  0  0  0  0  0  0
   -0.9658    3.8271    0.3837 H   0  0  0  0  0  0  0  0  0  0  0  0
  5  6  2  0  0  0  0
  5  7  1  0  0  0  0
  2  3  1  0  0  0  0
  2  4  1  0  0  0  0
  2  5  1  0  0  0  0
  1  2  1  0  0  0  0
 16 17  2  0  0  0  0
 16 18  1  0  0  0  0
 14 15  1  0  0  0  0
 11 12  1  0  0  0  0
 11 13  1  0  0  0  0
 11 14  1  0  0  0  0
  9 10  1  0  0  0  0
  9 11  1  0  0  0  0
  9 16  1  0  0  0  0
  7  8  1  0  0  0  0
  7  9  1  0  0  0  0
 20 21  1  0  0  0  0
 20 22  1  0  0  0  0
 20 23  1  0  0  0  0
 18 19  1  0  0  0  0
 18 20  1  0  0  0  0
M  END
$$$$
default_name
  -OEChem-01062215323D

 23 22  0     1  0  0  0  0  0999 V2000
   -2.6857   -3.6684    0.8743 H   0  0  0  0  0  0  0  0  0  0  0  0
   -2.6617   -2.6474    0.4953 C   0  0  0  0  0  0  0  0  0  0  0  0
   -3.2657   -2.0054    1.1353 H   0  0  0  0  0  0  0  0  0  0  0  0
   -3.0477   -2.6254   -0.5217 H   0  0  0  0  0  0  0  0  0  0  0  0
   -1.2337   -2.1564    0.4993 C   0  0  0  0  0  0  0  0  0  0  0  0
   -0.3327   -2.8864    0.8893 O   0  0  0  0  0  0  0  0  0  0  0  0
   -1.0277   -0.9164    0.0623 N   0  0  0  0  0  0  0  0  0  0  0  0
   -1.8237   -0.3604   -0.2157 H   0  0  0  0  0  0  0  0  0  0  0  0
    0.2713   -0.2414    0.0463 C   0  0  1  0  0  0  0  0  0  0  0  0
    0.9550   -0.7800    0.7055 H   0  0  0  0  0  0  0  0  0  0  0  0
    0.8321   -0.2955   -1.3843 C   0  0  0  0  0  0  0  0  0  0  0  0
    0.0924    0.1246   -2.0695 H   0  0  0  0  0  0  0  0  0  0  0  0
    1.7434    0.3032   -1.4410 H   0  0  0  0  0  0  0  0  0  0  0  0
    1.1845   -2.0054   -1.8878 S   0  0  0  0  0  0  0  0  0  0  0  0
    1.5231   -1.7383   -3.1549 H   0  0  0  0  0  0  0  0  0  0  0  0
    0.1277    1.1982    0.5808 C   0  0  0  0  0  0  0  0  0  0  0  0
    0.2703    1.4240    1.7829 O   0  0  0  0  0  0  0  0  0  0  0  0
   -0.1447    2.1667   -0.3014 N   0  0  0  0  0  0  0  0  0  0  0  0
   -0.3094    1.8890   -1.2581 H   0  0  0  0  0  0  0  0  0  0  0  0
   -0.3024    3.5780    0.0453 C   0  0  0  0  0  0  0  0  0  0  0  0
    0.5430    3.9057    0.6546 H   0  0  0  0  0  0  0  0  0  0  0  0
   -0.3503    4.1855   -0.8592 H   0  0  0  0  0  0  0  0  0  0  0  0
   -1.2198    3.7138    0.6206 H   0  0  0  0  0  0  0  0  0  0  0  0
  5  6  2  0  0  0  0
  5  7  1  0  0  0  0
  2  3  1  0  0  0  0
  2  4  1  0  0  0  0
  2  5  1  0  0  0  0
  1  2  1  0  0  0  0
 16 17  2  0  0  0  0
 16 18  1  0  0  0  0
 14 15  1  0  0  0  0
 11 12  1  0  0  0  0
 11 13  1  0  0  0  0
 11 14  1  0  0  0  0
  9 10  1  0  0  0  0
  9 11  1  0  0  0  0
  9 16  1  0  0  0  0
  7  8  1  0  0  0  0
  7  9  1  0  0  0  0
 20 21  1  0  0  0  0
 20 22  1  0  0  0  0
 20 23  1  0  0  0  0
 18 19  1  0  0  0  0
 18 20  1  0  0  0  0
M  END
$$$$
default_name
  -OEChem-01062215323D

 23 22  0     1  0  0  0  0  0999 V2000
   -2.6857   -3.6684    0.8743 H   0  0  0  0  0  0  0  0  0  0  0  0
   -2.6617   -2.6474    0.4953 C   0  0  0  0  0  0  0  0  0  0  0  0
   -3.2657   -2.0054    1.1353 H   0  0  0  0  0  0  0  0  0  0  0  0
   -3.0477   -2.6254   -0.5217 H   0  0  0  0  0  0  0  0  0  0  0  0
   -1.2337   -2.1564    0.4993 C   0  0  0  0  0  0  0  0  0  0  0  0
   -0.3327   -2.8864    0.8893 O   0  0  0  0  0  0  0  0  0  0  0  0
   -1.0277   -0.9164    0.0623 N   0  0  0  0  0  0  0  0  0  0  0  0
   -1.8237   -0.3604   -0.2157 H   0  0  0  0  0  0  0  0  0  0  0  0
    0.2713   -0.2414    0.0463 C   0  0  1  0  0  0  0  0  0  0  0  0
    0.9550   -0.7800    0.7055 H   0  0  0  0  0  0  0  0  0  0  0  0
    0.8321   -0.2955   -1.3843 C   0  0  0  0  0  0  0  0  0  0  0  0
    0.0924    0.1246   -2.0695 H   0  0  0  0  0  0  0  0  0  0  0  0
    1.7434    0.3032   -1.4410 H   0  0  0  0  0  0  0  0  0  0  0  0
    1.1845   -2.0054   -1.8878 S   0  0  0  0  0  0  0  0  0  0  0  0
    1.5231   -1.7383   -3.1549 H   0  0  0  0  0  0  0  0  0  0  0  0
    0.1277    1.1982    0.5808 C   0  0  0  0  0  0  0  0  0  0  0  0
    0.5336    1.4776    1.7093 O   0  0  0  0  0  0  0  0  0  0  0  0
   -0.4373    2.1079   -0.2215 N   0  0  0  0  0  0  0  0  0  0  0  0
   -0.8008    1.7834   -1.1059 H   0  0  0  0  0  0  0  0  0  0  0  0
   -0.6371    3.5115    0.1346 C   0  0  0  0  0  0  0  0  0  0  0  0
    0.2958    3.9325    0.5161 H   0  0  0  0  0  0  0  0  0  0  0  0
   -0.9572    4.0804   -0.7391 H   0  0  0  0  0  0  0  0  0  0  0  0
   -1.3978    3.5873    0.9135 H   0  0  0  0  0  0  0  0  0  0  0  0
  5  6  2  0  0  0  0
  5  7  1  0  0  0  0
  2  3  1  0  0  0  0
  2  4  1  0  0  0  0
  2  5  1  0  0  0  0
  1  2  1  0  0  0  0
 16 17  2  0  0  0  0
 16 18  1  0  0  0  0
 14 15  1  0  0  0  0
 11 12  1  0  0  0  0
 11 13  1  0  0  0  0
 11 14  1  0  0  0  0
  9 10  1  0  0  0  0
  9 11  1  0  0  0  0
  9 16  1  0  0  0  0
  7  8  1  0  0  0  0
  7  9  1  0  0  0  0
 20 21  1  0  0  0  0
 20 22  1  0  0  0  0
 20 23  1  0  0  0  0
 18 19  1  0  0  0  0
 18 20  1  0  0  0  0
M  END
$$$$
default_name
  -OEChem-01062215323D

 23 22  0     1  0  0  0  0  0999 V2000
   -2.6857   -3.6684    0.8743 H   0  0  0  0  0  0  0  0  0  0  0  0
   -2.6617   -2.6474    0.4953 C   0  0  0  0  0  0  0  0  0  0  0  0
   -3.2657   -2.0054    1.1353 H   0  0  0  0  0  0  0  0  0  0  0  0
   -3.0477   -2.6254   -0.5217 H   0  0  0  0  0  0  0  0  0  0  0  0
   -1.2337   -2.1564    0.4993 C   0  0  0  0  0  0  0  0  0  0  0  0
   -0.3327   -2.8864    0.8893 O   0  0  0  0  0  0  0  0  0  0  0  0
   -1.0277   -0.9164    0.0623 N   0  0  0  0  0  0  0  0  0  0  0  0
   -1.8237   -0.3604   -0.2157 H   0  0  0  0  0  0  0  0  0  0  0  0
    0.2713   -0.2414    0.0463 C   0  0  1  0  0  0  0  0  0  0  0  0
    0.9550   -0.7800    0.7055 H   0  0  0  0  0  0  0  0  0  0  0  0
    0.8321   -0.2955   -1.3843 C   0  0  0  0  0  0  0  0  0  0  0  0
    0.0924    0.1246   -2.0695 H   0  0  0  0  0  0  0  0  0  0  0  0
    1.7434    0.3032   -1.4410 H   0  0  0  0  0  0  0  0  0  0  0  0
    1.1845   -2.0054   -1.8878 S   0  0  0  0  0  0  0  0  0  0  0  0
    1.5231   -1.7383   -3.1549 H   0  0  0  0  0  0  0  0  0  0  0  0
    0.1277    1.1982    0.5808 C   0  0  0  0  0  0  0  0  0  0  0  0
    0.7654    1.5512    1.5733 O   0  0  0  0  0  0  0  0  0  0  0  0
   -0.6954    2.0267   -0.0722 N   0  0  0  0  0  0  0  0  0  0  0  0
   -1.2293    1.6411   -0.8377 H   0  0  0  0  0  0  0  0  0  0  0  0
   -0.9329    3.4193    0.3034 C   0  0  0  0  0  0  0  0  0  0  0  0
    0.0213    3.9328    0.4415 H   0  0  0  0  0  0  0  0  0  0  0  0
   -1.5049    3.9273   -0.4739 H   0  0  0  0  0  0  0  0  0  0  0  0
   -1.4876    3.4562    1.2425 H   0  0  0  0  0  0  0  0  0  0  0  0
  5  6  2  0  0  0  0
  5  7  1  0  0  0  0
  2  3  1  0  0  0  0
  2  4  1  0  0  0  0
  2  5  1  0  0  0  0
  1  2  1  0  0  0  0
 16 17  2  0  0  0  0
 16 18  1  0  0  0  0
 14 15  1  0  0  0  0
 11 12  1  0  0  0  0
 11 13  1  0  0  0  0
 11 14  1  0  0  0  0
  9 10  1  0  0  0  0
  9 11  1  0  0  0  0
  9 16  1  0  0  0  0
  7  8  1  0  0  0  0
  7  9  1  0  0  0  0
 20 21  1  0  0  0  0
 20 22  1  0  0  0  0
 20 23  1  0  0  0  0
 18 19  1  0  0  0  0
 18 20  1  0  0  0  0
M  END
$$$$
default_name
  -OEChem-01062215323D

 23 22  0     1  0  0  0  0  0999 V2000
   -2.6857   -3.6684    0.8743 H   0  0  0  0  0  0  0  0  0  0  0  0
   -2.6617   -2.6474    0.4953 C   0  0  0  0  0  0  0  0  0  0  0  0
   -3.2657   -2.0054    1.1353 H   0  0  0  0  0  0  0  0  0  0  0  0
   -3.0477   -2.6254   -0.5217 H   0  0  0  0  0  0  0  0  0  0  0  0
   -1.2337   -2.1564    0.4993 C   0  0  0  0  0  0  0  0  0  0  0  0
   -0.3327   -2.8864    0.8893 O   0  0  0  0  0  0  0  0  0  0  0  0
   -1.0277   -0.9164    0.0623 N   0  0  0  0  0  0  0  0  0  0  0  0
   -1.8237   -0.3604   -0.2157 H   0  0  0  0  0  0  0  0  0  0  0  0
    0.2713   -0.2414    0.0463 C   0  0  1  0  0  0  0  0  0  0  0  0
    0.9550   -0.7800    0.7055 H   0  0  0  0  0  0  0  0  0  0  0  0
    0.8321   -0.2955   -1.3843 C   0  0  0  0  0  0  0  0  0  0  0  0
    0.0924    0.1246   -2.0695 H   0  0  0  0  0  0  0  0  0  0  0  0
    1.7434    0.3032   -1.4410 H   0  0  0  0  0  0  0  0  0  0  0  0
    1.1845   -2.0054   -1.8878 S   0  0  0  0  0  0  0  0  0  0  0  0
    1.5231   -1.7383   -3.1549 H   0  0  0  0  0  0  0  0  0  0  0  0
    0.1277    1.1982    0.5808 C   0  0  0  0  0  0  0  0  0  0  0  0
    0.9499    1.6398    1.3841 O   0  0  0  0  0  0  0  0  0  0  0  0
   -0.9014    1.9288    0.1363 N   0  0  0  0  0  0  0  0  0  0  0  0
   -1.5656    1.4716   -0.4716 H   0  0  0  0  0  0  0  0  0  0  0  0
   -1.1695    3.3079    0.5400 C   0  0  0  0  0  0  0  0  0  0  0  0
   -0.2619    3.9067    0.4357 H   0  0  0  0  0  0  0  0  0  0  0  0
   -1.9563    3.7367   -0.0818 H   0  0  0  0  0  0  0  0  0  0  0  0
   -1.4831    3.3295    1.5851 H   0  0  0  0  0  0  0  0  0  0  0  0
  5  6  2  0  0  0  0
  5  7  1  0  0  0  0
  2  3  1  0  0  0  0
  2  4  1  0  0  0  0
  2  5  1  0  0  0  0
  1  2  1  0  0  0  0
 16 17  2  0  0  0  0
 16 18  1  0  0  0  0
 14 15  1  0  0  0  0
 11 12  1  0  0  0  0
 11 13  1  0  0  0  0
 11 14  1  0  0  0  0
  9 10  1  0  0  0  0
  9 11  1  0  0  0  0
  9 16  1  0  0  0  0
  7  8  1  0  0  0  0
  7  9  1  0  0  0  0
 20 21  1  0  0  0  0
 20 22  1  0  0  0  0
 20 23  1  0  0  0  0
 18 19  1  0  0  0  0
 18 20  1  0  0  0  0
M  END
$$$$
default_name
  -OEChem-01062215323D

 23 22  0     1  0  0  0  0  0999 V2000
   -2.6857   -3.6684    0.8743 H   0  0  0  0  0  0  0  0  0  0  0  0
   -2.6617   -2.6474    0.4953 C   0  0  0  0  0  0  0  0  0  0  0  0
   -3.2657   -2.0054    1.1353 H   0  0  0  0  0  0  0  0  0  0  0  0
   -3.0477   -2.6254   -0.5217 H   0  0  0  0  0  0  0  0  0  0  0  0
   -1.2337   -2.1564    0.4993 C   0  0  0  0  0  0  0  0  0  0  0  0
   -0.3327   -2.8864    0.8893 O   0  0  0  0  0  0  0  0  0  0  0  0
   -1.0277   -0.9164    0.0623 N   0  0  0  0  0  0  0  0  0  0  0  0
   -1.8237   -0.3604   -0.2157 H   0  0  0  0  0  0  0  0  0  0  0  0
    0.2713   -0.2414    0.0463 C   0  0  1  0  0  0  0  0  0  0  0  0
    0.9550   -0.7800    0.7055 H   0  0  0  0  0  0  0  0  0  0  0  0
    0.8321   -0.2955   -1.3843 C   0  0  0  0  0  0  0  0  0  0  0  0
    0.0924    0.1246   -2.0695 H   0  0  0  0  0  0  0  0  0  0  0  0
    1.7434    0.3032   -1.4410 H   0  0  0  0  0  0  0  0  0  0  0  0
    1.1845   -2.0054   -1.8878 S   0  0  0  0  0  0  0  0  0  0  0  0
    1.5231   -1.7383   -3.1549 H   0  0  0  0  0  0  0  0  0  0  0  0
    0.1277    1.1982    0.5808 C   0  0  0  0  0  0  0  0  0  0  0  0
    1.0744    1.7374    1.1547 O   0  0  0  0  0  0  0  0  0  0  0  0
   -1.0412    1.8207    0.3898 N   0  0  0  0  0  0  0  0  0  0  0  0
   -1.7868    1.2866   -0.0327 H   0  0  0  0  0  0  0  0  0  0  0  0
   -1.3310    3.1847    0.8285 C   0  0  0  0  0  0  0  0  0  0  0  0
   -0.5346    3.8559    0.4992 H   0  0  0  0  0  0  0  0  0  0  0  0
   -2.2804    3.5216    0.4106 H   0  0  0  0  0  0  0  0  0  0  0  0
   -1.3846    3.2157    1.9180 H   0  0  0  0  0  0  0  0  0  0  0  0
  5  6  2  0  0  0  0
  5  7  1  0  0  0  0
  2  3  1  0  0  0  0
  2  4  1  0  0  0  0
  2  5  1  0  0  0  0
  1  2  1  0  0  0  0
 16 17  2  0  0  0  0
 16 18  1  0  0  0  0
 14 15  1  0  0  0  0
 11 12  1  0  0  0  0
 11 13  1  0  0  0  0
 11 14  1  0  0  0  0
  9 10  1  0  0  0  0
  9 11  1  0  0  0  0
  9 16  1  0  0  0  0
  7  8  1  0  0  0  0
  7  9  1  0  0  0  0
 20 21  1  0  0  0  0
 20 22  1  0  0  0  0
 20 23  1  0  0  0  0
 18 19  1  0  0  0  0
 18 20  1  0  0  0  0
M  END
$$$$
default_name
  -OEChem-01062215323D

 23 22  0     1  0  0  0  0  0999 V2000
   -2.6857   -3.6684    0.8743 H   0  0  0  0  0  0  0  0  0  0  0  0
   -2.6617   -2.6474    0.4953 C   0  0  0  0  0  0  0  0  0  0  0  0
   -3.2657   -2.0054    1.1353 H   0  0  0  0  0  0  0  0  0  0  0  0
   -3.0477   -2.6254   -0.5217 H   0  0  0  0  0  0  0  0  0  0  0  0
   -1.2337   -2.1564    0.4993 C   0  0  0  0  0  0  0  0  0  0  0  0
   -0.3327   -2.8864    0.8893 O   0  0  0  0  0  0  0  0  0  0  0  0
   -1.0277   -0.9164    0.0623 N   0  0  0  0  0  0  0  0  0  0  0  0
   -1.8237   -0.3604   -0.2157 H   0  0  0  0  0  0  0  0  0  0  0  0
    0.2713   -0.2414    0.0463 C   0  0  1  0  0  0  0  0  0  0  0  0
    0.9550   -0.7800    0.7055 H   0  0  0  0  0  0  0  0  0  0  0  0
    0.8321   -0.2955   -1.3843 C   0  0  0  0  0  0  0  0  0  0  0  0
    0.0924    0.1246   -2.0695 H   0  0  0  0  0  0  0  0  0  0  0  0
    1.7434    0.3032   -1.4410 H   0  0  0  0  0  0  0  0  0  0  0  0
    1.1845   -2.0054   -1.8878 S   0  0  0  0  0  0  0  0  0  0  0  0
    1.5231   -1.7383   -3.1549 H   0  0  0  0  0  0  0  0  0  0  0  0
    0.1277    1.1982    0.5808 C   0  0  0  0  0  0  0  0  0  0  0  0
    1.1305    1.8373    0.9007 O   0  0  0  0  0  0  0  0  0  0  0  0
   -1.1053    1.7099    0.6711 N   0  0  0  0  0  0  0  0  0  0  0  0
   -1.8779    1.0987    0.4492 H   0  0  0  0  0  0  0  0  0  0  0  0
   -1.4062    3.0582    1.1490 C   0  0  0  0  0  0  0  0  0  0  0  0
   -0.7780    3.7840    0.6276 H   0  0  0  0  0  0  0  0  0  0  0  0
   -2.4552    3.2966    0.9697 H   0  0  0  0  0  0  0  0  0  0  0  0
   -1.1988    3.1227    2.2185 H   0  0  0  0  0  0  0  0  0  0  0  0
  5  6  2  0  0  0  0
  5  7  1  0  0  0  0
  2  3  1  0  0  0  0
  2  4  1  0  0  0  0
  2  5  1  0  0  0  0
  1  2  1  0  0  0  0
 16 17  2  0  0  0  0
 16 18  1  0  0  0  0
 14 15  1  0  0  0  0
 11 12  1  0  0  0  0
 11 13  1  0  0  0  0
 11 14  1  0  0  0  0
  9 10  1  0  0  0  0
  9 11  1  0  0  0  0
  9 16  1  0  0  0  0
  7  8  1  0  0  0  0
  7  9  1  0  0  0  0
 20 21  1  0  0  0  0
 20 22  1  0  0  0  0
 20 23  1  0  0  0  0
 18 19  1  0  0  0  0
 18 20  1  0  0  0  0
M  END
$$$$
default_name
  -OEChem-01062215323D

 23 22  0     1  0  0  0  0  0999 V2000
   -2.6857   -3.6684    0.8743 H   0  0  0  0  0  0  0  0  0  0  0  0
   -2.6617   -2.6474    0.4953 C   0  0  0  0  0  0  0  0  0  0  0  0
   -3.2657   -2.0054    1.1353 H   0  0  0  0  0  0  0  0  0  0  0  0
   -3.0477   -2.6254   -0.5217 H   0  0  0  0  0  0  0  0  0  0  0  0
   -1.2337   -2.1564    0.4993 C   0  0  0  0  0  0  0  0  0  0  0  0
   -0.3327   -2.8864    0.8893 O   0  0  0  0  0  0  0  0  0  0  0  0
   -1.0277   -0.9164    0.0623 N   0  0  0  0  0  0  0  0  0  0  0  0
   -1.8237   -0.3604   -0.2157 H   0  0  0  0  0  0  0  0  0  0  0  0
    0.2713   -0.2414    0.0463 C   0  0  1  0  0  0  0  0  0  0  0  0
    0.9550   -0.7800    0.7055 H   0  0  0  0  0  0  0  0  0  0  0  0
    0.8321   -0.2955   -1.3843 C   0  0  0  0  0  0  0  0  0  0  0  0
    0.0924    0.1246   -2.0695 H   0  0  0  0  0  0  0  0  0  0  0  0
    1.7434    0.3032   -1.4410 H   0  0  0  0  0  0  0  0  0  0  0  0
    1.1845   -2.0054   -1.8878 S   0  0  0  0  0  0  0  0  0  0  0  0
    1.5231   -1.7383   -3.1549 H   0  0  0  0  0  0  0  0  0  0  0  0
    0.1277    1.1982    0.5808 C   0  0  0  0  0  0  0  0  0  0  0  0
    1.1144    1.9327    0.6394 O   0  0  0  0  0  0  0  0  0  0  0  0
   -1.0894    1.6039    0.9609 N   0  0  0  0  0  0  0  0  0  0  0  0
   -1.8325    0.9206    0.9411 H   0  0  0  0  0  0  0  0  0  0  0  0
   -1.3900    2.9369    1.4799 C   0  0  0  0  0  0  0  0  0  0  0  0
   -0.9757    3.6957    0.8122 H   0  0  0  0  0  0  0  0  0  0  0  0
   -2.4688    3.0770    1.5574 H   0  0  0  0  0  0  0  0  0  0  0  0
   -0.9384    3.0567    2.4662 H   0  0  0  0  0  0  0  0  0  0  0  0
  5  6  2  0  0  0  0
  5  7  1  0  0  0  0
  2  3  1  0  0  0  0
  2  4  1  0  0  0  0
  2  5  1  0  0  0  0
  1  2  1  0  0  0  0
 16 17  2  0  0  0  0
 16 18  1  0  0  0  0
 14 15  1  0  0  0  0
 11 12  1  0  0  0  0
 11 13  1  0  0  0  0
 11 14  1  0  0  0  0
  9 10  1  0  0  0  0
  9 11  1  0  0  0  0
  9 16  1  0  0  0  0
  7  8  1  0  0  0  0
  7  9  1  0  0  0  0
 20 21  1  0  0  0  0
 20 22  1  0  0  0  0
 20 23  1  0  0  0  0
 18 19  1  0  0  0  0
 18 20  1  0  0  0  0
M  END
$$$$
default_name
  -OEChem-01062215323D

 23 22  0     1  0  0  0  0  0999 V2000
   -2.6857   -3.6684    0.8743 H   0  0  0  0  0  0  0  0  0  0  0  0
   -2.6617   -2.6474    0.4953 C   0  0  0  0  0  0  0  0  0  0  0  0
   -3.2657   -2.0054    1.1353 H   0  0  0  0  0  0  0  0  0  0  0  0
   -3.0477   -2.6254   -0.5217 H   0  0  0  0  0  0  0  0  0  0  0  0
   -1.2337   -2.1564    0.4993 C   0  0  0  0  0  0  0  0  0  0  0  0
   -0.3327   -2.8864    0.8893 O   0  0  0  0  0  0  0  0  0  0  0  0
   -1.0277   -0.9164    0.0623 N   0  0  0  0  0  0  0  0  0  0  0  0
   -1.8237   -0.3604   -0.2157 H   0  0  0  0  0  0  0  0  0  0  0  0
    0.2713   -0.2414    0.0463 C   0  0  1  0  0  0  0  0  0  0  0  0
    0.9550   -0.7800    0.7055 H   0  0  0  0  0  0  0  0  0  0  0  0
    0.8321   -0.2955   -1.3843 C   0  0  0  0  0  0  0  0  0  0  0  0
    0.0924    0.1246   -2.0695 H   0  0  0  0  0  0  0  0  0  0  0  0
    1.7434    0.3032   -1.4410 H   0  0  0  0  0  0  0  0  0  0  0  0
    1.1845   -2.0054   -1.8878 S   0  0  0  0  0  0  0  0  0  0  0  0
    1.5231   -1.7383   -3.1549 H   0  0  0  0  0  0  0  0  0  0  0  0
    0.1277    1.1982    0.5808 C   0  0  0  0  0  0  0  0  0  0  0  0
    1.0271    2.0171    0.3886 O   0  0  0  0  0  0  0  0  0  0  0  0
   -0.9944    1.5099    1.2396 N   0  0  0  0  0  0  0  0  0  0  0  0
   -1.6539    0.7644    1.4097 H   0  0  0  0  0  0  0  0  0  0  0  0
   -1.2836    2.8293    1.7985 C   0  0  0  0  0  0  0  0  0  0  0  0
   -1.1142    3.5972    1.0403 H   0  0  0  0  0  0  0  0  0  0  0  0
   -2.3203    2.8779    2.1337 H   0  0  0  0  0  0  0  0  0  0  0  0
   -0.6212    3.0223    2.6441 H   0  0  0  0  0  0  0  0  0  0  0  0
  5  6  2  0  0  0  0
  5  7  1  0  0  0  0
  2  3  1  0  0  0  0
  2  4  1  0  0  0  0
  2  5  1  0  0  0  0
  1  2  1  0  0  0  0
 16 17  2  0  0  0  0
 16 18  1  0  0  0  0
 14 15  1  0  0  0  0
 11 12  1  0  0  0  0
 11 13  1  0  0  0  0
 11 14  1  0  0  0  0
  9 10  1  0  0  0  0
  9 11  1  0  0  0  0
  9 16  1  0  0  0  0
  7  8  1  0  0  0  0
  7  9  1  0  0  0  0
 20 21  1  0  0  0  0
 20 22  1  0  0  0  0
 20 23  1  0  0  0  0
 18 19  1  0  0  0  0
 18 20  1  0  0  0  0
M  END
$$$$
default_name
  -OEChem-01062215323D

 23 22  0     1  0  0  0  0  0999 V2000
   -2.6857   -3.6684    0.8743 H   0  0  0  0  0  0  0  0  0  0  0  0
   -2.6617   -2.6474    0.4953 C   0  0  0  0  0  0  0  0  0  0  0  0
   -3.2657   -2.0054    1.1353 H   0  0  0  0  0  0  0  0  0  0  0  0
   -3.0477   -2.6254   -0.5217 H   0  0  0  0  0  0  0  0  0  0  0  0
   -1.2337   -2.1564    0.4993 C   0  0  0  0  0  0  0  0  0  0  0  0
   -0.3327   -2.8864    0.8893 O   0  0  0  0  0  0  0  0  0  0  0  0
   -1.0277   -0.9164    0.0623 N   0  0  0  0  0  0  0  0  0  0  0  0
   -1.8237   -0.3604   -0.2157 H   0  0  0  0  0  0  0  0  0  0  0  0
    0.2713   -0.2414    0.0463 C   0  0  1  0  0  0  0  0  0  0  0  0
    0.9550   -0.7800    0.7055 H   0  0  0  0  0  0  0  0  0  0  0  0
    0.8321   -0.2955   -1.3843 C   0  0  0  0  0  0  0  0  0  0  0  0
    0.0924    0.1246   -2.0695 H   0  0  0  0  0  0  0  0  0  0  0  0
    1.7434    0.3032   -1.4410 H   0  0  0  0  0  0  0  0  0  0  0  0
    1.1845   -2.0054   -1.8878 S   0  0  0  0  0  0  0  0  0  0  0  0
    1.5231   -1.7383   -3.1549 H   0  0  0  0  0  0  0  0  0  0  0  0
    0.1277    1.1982    0.5808 C   0  0  0  0  0  0  0  0  0  0  0  0
    0.8747    2.0848    0.1654 O   0  0  0  0  0  0  0  0  0  0  0  0
   -0.8270    1.4344    1.4881 N   0  0  0  0  0  0  0  0  0  0  0  0
   -1.3542    0.6410    1.8229 H   0  0  0  0  0  0  0  0  0  0  0  0
   -1.0942    2.7425    2.0832 C   0  0  0  0  0  0  0  0  0  0  0  0
   -1.1840    3.4951    1.2966 H   0  0  0  0  0  0  0  0  0  0  0  0
   -2.0198    2.7128    2.6593 H   0  0  0  0  0  0  0  0  0  0  0  0
   -0.2687    3.0219    2.7401 H   0  0  0  0  0  0  0  0  0  0  0  0
  5  6  2  0  0  0  0
  5  7  1  0  0  0  0
  2  3  1  0  0  0  0
  2  4  1  0  0  0  0
  2  5  1  0  0  0  0
  1  2  1  0  0  0  0
 16 17  2  0  0  0  0
 16 18  1  0  0  0  0
 14 15  1  0  0  0  0
 11 12  1  0  0  0  0
 11 13  1  0  0  0  0
 11 14  1  0  0  0  0
  9 10  1  0  0  0  0
  9 11  1  0  0  0  0
  9 16  1  0  0  0  0
  7  8  1  0  0  0  0
  7  9  1  0  0  0  0
 20 21  1  0  0  0  0
 20 22  1  0  0  0  0
 20 23  1  0  0  0  0
 18 19  1  0  0  0  0
 18 20  1  0  0  0  0
M  END
$$$$
default_name
  -OEChem-01062215323D

 23 22  0     1  0  0  0  0  0999 V2000
   -2.6857   -3.6684    0.8743 H   0  0  0  0  0  0  0  0  0  0  0  0
   -2.6617   -2.6474    0.4953 C   0  0  0  0  0  0  0  0  0  0  0  0
   -3.2657   -2.0054    1.1353 H   0  0  0  0  0  0  0  0  0  0  0  0
   -3.0477   -2.6254   -0.5217 H   0  0  0  0  0  0  0  0  0  0  0  0
   -1.2337   -2.1564    0.4993 C   0  0  0  0  0  0  0  0  0  0  0  0
   -0.3327   -2.8864    0.8893 O   0  0  0  0  0  0  0  0  0  0  0  0
   -1.0277   -0.9164    0.0623 N   0  0  0  0  0  0  0  0  0  0  0  0
   -1.8237   -0.3604   -0.2157 H   0  0  0  0  0  0  0  0  0  0  0  0
    0.2713   -0.2414    0.0463 C   0  0  1  0  0  0  0  0  0  0  0  0
    0.9550   -0.7800    0.7055 H   0  0  0  0  0  0  0  0  0  0  0  0
    0.8321   -0.2955   -1.3843 C   0  0  0  0  0  0  0  0  0  0  0  0
    0.0924    0.1246   -2.0695 H   0  0  0  0  0  0  0  0  0  0  0  0
    1.7434    0.3032   -1.4410 H   0  0  0  0  0  0  0  0  0  0  0  0
    1.1845   -2.0054   -1.8878 S   0  0  0  0  0  0  0  0  0  0  0  0
    1.5231   -1.7383   -3.1549 H   0  0  0  0  0  0  0  0  0  0  0  0
    0.1277    1.1982    0.5808 C   0  0  0  0  0  0  0  0  0  0  0  0
    0.6674    2.1311   -0.0151 O   0  0  0  0  0  0  0  0  0  0  0  0
   -0.5984    1.3824    1.6894 N   0  0  0  0  0  0  0  0  0  0  0  0
   -0.9538    0.5585    2.1526 H   0  0  0  0  0  0  0  0  0  0  0  0
   -0.8347    2.6825    2.3145 C   0  0  0  0  0  0  0  0  0  0  0  0
   -1.1803    3.3964    1.5634 H   0  0  0  0  0  0  0  0  0  0  0  0
   -1.5877    2.5929    3.0983 H   0  0  0  0  0  0  0  0  0  0  0  0
    0.0950    3.0553    2.7477 H   0  0  0  0  0  0  0  0  0  0  0  0
  5  6  2  0  0  0  0
  5  7  1  0  0  0  0
  2  3  1  0  0  0  0
  2  4  1  0  0  0  0
  2  5  1  0  0  0  0
  1  2  1  0  0  0  0
 16 17  2  0  0  0  0
 16 18  1  0  0  0  0
 14 15  1  0  0  0  0
 11 12  1  0  0  0  0
 11 13  1  0  0  0  0
 11 14  1  0  0  0  0
  9 10  1  0  0  0  0
  9 11  1  0  0  0  0
  9 16  1  0  0  0  0
  7  8  1  0  0  0  0
  7  9  1  0  0  0  0
 20 21  1  0  0  0  0
 20 22  1  0  0  0  0
 20 23  1  0  0  0  0
 18 19  1  0  0  0  0
 18 20  1  0  0  0  0
M  END
$$$$
default_name
  -OEChem-01062215323D

 23 22  0     1  0  0  0  0  0999 V2000
   -2.6857   -3.6684    0.8743 H   0  0  0  0  0  0  0  0  0  0  0  0
   -2.6617   -2.6474    0.4953 C   0  0  0  0  0  0  0  0  0  0  0  0
   -3.2657   -2.0054    1.1353 H   0  0  0  0  0  0  0  0  0  0  0  0
   -3.0477   -2.6254   -0.5217 H   0  0  0  0  0  0  0  0  0  0  0  0
   -1.2337   -2.1564    0.4993 C   0  0  0  0  0  0  0  0  0  0  0  0
   -0.3327   -2.8864    0.8893 O   0  0  0  0  0  0  0  0  0  0  0  0
   -1.0277   -0.9164    0.0623 N   0  0  0  0  0  0  0  0  0  0  0  0
   -1.8237   -0.3604   -0.2157 H   0  0  0  0  0  0  0  0  0  0  0  0
    0.2713   -0.2414    0.0463 C   0  0  1  0  0  0  0  0  0  0  0  0
    0.9550   -0.7800    0.7055 H   0  0  0  0  0  0  0  0  0  0  0  0
    0.8321   -0.2955   -1.3843 C   0  0  0  0  0  0  0  0  0  0  0  0
    0.0924    0.1246   -2.0695 H   0  0  0  0  0  0  0  0  0  0  0  0
    1.7434    0.3032   -1.4410 H   0  0  0  0  0  0  0  0  0  0  0  0
    1.1845   -2.0054   -1.8878 S   0  0  0  0  0  0  0  0  0  0  0  0
    1.5231   -1.7383   -3.1549 H   0  0  0  0  0  0  0  0  0  0  0  0
    0.1277    1.1982    0.5808 C   0  0  0  0  0  0  0  0  0  0  0  0
    0.4195    2.1529   -0.1404 O   0  0  0  0  0  0  0  0  0  0  0  0
   -0.3243    1.3576    1.8300 N   0  0  0  0  0  0  0  0  0  0  0  0
   -0.4800    0.5227    2.3763 H   0  0  0  0  0  0  0  0  0  0  0  0
   -0.5227    2.6535    2.4766 C   0  0  0  0  0  0  0  0  0  0  0  0
   -1.1035    3.3079    1.8226 H   0  0  0  0  0  0  0  0  0  0  0  0
   -1.0535    2.5265    3.4208 H   0  0  0  0  0  0  0  0  0  0  0  0
    0.4452    3.1205    2.6663 H   0  0  0  0  0  0  0  0  0  0  0  0
  5  6  2  0  0  0  0
  5  7  1  0  0  0  0
  2  3  1  0  0  0  0
  2  4  1  0  0  0  0
  2  5  1  0  0  0  0
  1  2  1  0  0  0  0
 16 17  2  0  0  0  0
 16 18  1  0  0  0  0
 14 15  1  0  0  0  0
 11 12  1  0  0  0  0
 11 13  1  0  0  0  0
 11 14  1  0  0  0  0
  9 10  1  0  0  0  0
  9 11  1  0  0  0  0
  9 16  1  0  0  0  0
  7  8  1  0  0  0  0
  7  9  1  0  0  0  0
 20 21  1  0  0  0  0
 20 22  1  0  0  0  0
 20 23  1  0  0  0  0
 18 19  1  0  0  0  0
 18 20  1  0  0  0  0
M  END
$$$$
default_name
  -OEChem-01062215323D

 23 22  0     1  0  0  0  0  0999 V2000
   -2.6857   -3.6684    0.8743 H   0  0  0  0  0  0  0  0  0  0  0  0
   -2.6617   -2.6474    0.4953 C   0  0  0  0  0  0  0  0  0  0  0  0
   -3.2657   -2.0054    1.1353 H   0  0  0  0  0  0  0  0  0  0  0  0
   -3.0477   -2.6254   -0.5217 H   0  0  0  0  0  0  0  0  0  0  0  0
   -1.2337   -2.1564    0.4993 C   0  0  0  0  0  0  0  0  0  0  0  0
   -0.3327   -2.8864    0.8893 O   0  0  0  0  0  0  0  0  0  0  0  0
   -1.0277   -0.9164    0.0623 N   0  0  0  0  0  0  0  0  0  0  0  0
   -1.8237   -0.3604   -0.2157 H   0  0  0  0  0  0  0  0  0  0  0  0
    0.2713   -0.2414    0.0463 C   0  0  1  0  0  0  0  0  0  0  0  0
    0.9550   -0.7800    0.7055 H   0  0  0  0  0  0  0  0  0  0  0  0
    0.8321   -0.2955   -1.3843 C   0  0  0  0  0  0  0  0  0  0  0  0
    0.0924    0.1246   -2.0695 H   0  0  0  0  0  0  0  0  0  0  0  0
    1.7434    0.3032   -1.4410 H   0  0  0  0  0  0  0  0  0  0  0  0
    1.1845   -2.0054   -1.8878 S   0  0  0  0  0  0  0  0  0  0  0  0
    1.5231   -1.7383   -3.1549 H   0  0  0  0  0  0  0  0  0  0  0  0
    0.1277    1.1982    0.5808 C   0  0  0  0  0  0  0  0  0  0  0  0
    0.1477    2.1486   -0.2020 O   0  0  0  0  0  0  0  0  0  0  0  0
   -0.0234    1.3616    1.9002 N   0  0  0  0  0  0  0  0  0  0  0  0
    0.0349    0.5361    2.4788 H   0  0  0  0  0  0  0  0  0  0  0  0
   -0.1797    2.6573    2.5586 C   0  0  0  0  0  0  0  0  0  0  0  0
   -0.9587    3.2355    2.0565 H   0  0  0  0  0  0  0  0  0  0  0  0
   -0.4537    2.5180    3.6050 H   0  0  0  0  0  0  0  0  0  0  0  0
    0.7579    3.2128    2.5016 H   0  0  0  0  0  0  0  0  0  0  0  0
  5  6  2  0  0  0  0
  5  7  1  0  0  0  0
  2  3  1  0  0  0  0
  2  4  1  0  0  0  0
  2  5  1  0  0  0  0
  1  2  1  0  0  0  0
 16 17  2  0  0  0  0
 16 18  1  0  0  0  0
 14 15  1  0  0  0  0
 11 12  1  0  0  0  0
 11 13  1  0  0  0  0
 11 14  1  0  0  0  0
  9 10  1  0  0  0  0
  9 11  1  0  0  0  0
  9 16  1  0  0  0  0
  7  8  1  0  0  0  0
  7  9  1  0  0  0  0
 20 21  1  0  0  0  0
 20 22  1  0  0  0  0
 20 23  1  0  0  0  0
 18 19  1  0  0  0  0
 18 20  1  0  0  0  0
M  END
$$$$
default_name
  -OEChem-01062215323D

 23 22  0     1  0  0  0  0  0999 V2000
   -2.6857   -3.6684    0.8743 H   0  0  0  0  0  0  0  0  0  0  0  0
   -2.6617   -2.6474    0.4953 C   0  0  0  0  0  0  0  0  0  0  0  0
   -3.2657   -2.0054    1.1353 H   0  0  0  0  0  0  0  0  0  0  0  0
   -3.0477   -2.6254   -0.5217 H   0  0  0  0  0  0  0  0  0  0  0  0
   -1.2337   -2.1564    0.4993 C   0  0  0  0  0  0  0  0  0  0  0  0
   -0.3327   -2.8864    0.8893 O   0  0  0  0  0  0  0  0  0  0  0  0
   -1.0277   -0.9164    0.0623 N   0  0  0  0  0  0  0  0  0  0  0  0
   -1.8237   -0.3604   -0.2157 H   0  0  0  0  0  0  0  0  0  0  0  0
    0.2713   -0.2414    0.0463 C   0  0  1  0  0  0  0  0  0  0  0  0
    0.9550   -0.7800    0.7055 H   0  0  0  0  0  0  0  0  0  0  0  0
    0.8321   -0.2955   -1.3843 C   0  0  0  0  0  0  0  0  0  0  0  0
    0.0924    0.1246   -2.0695 H   0  0  0  0  0  0  0  0  0  0  0  0
    1.7434    0.3032   -1.4410 H   0  0  0  0  0  0  0  0  0  0  0  0
    1.1845   -2.0054   -1.8878 S   0  0  0  0  0  0  0  0  0  0  0  0
    1.5231   -1.7383   -3.1549 H   0  0  0  0  0  0  0  0  0  0  0  0
    0.1277    1.1982    0.5808 C   0  0  0  0  0  0  0  0  0  0  0  0
   -0.1292    2.1187   -0.1959 O   0  0  0  0  0  0  0  0  0  0  0  0
    0.2839    1.3941    1.8951 N   0  0  0  0  0  0  0  0  0  0  0  0
    0.5558    0.5976    2.4530 H   0  0  0  0  0  0  0  0  0  0  0  0
    0.1712    2.6937    2.5548 C   0  0  0  0  0  0  0  0  0  0  0  0
   -0.7559    3.1841    2.2493 H   0  0  0  0  0  0  0  0  0  0  0  0
    0.1709    2.5680    3.6381 H   0  0  0  0  0  0  0  0  0  0  0  0
    1.0119    3.3261    2.2647 H   0  0  0  0  0  0  0  0  0  0  0  0
  5  6  2  0  0  0  0
  5  7  1  0  0  0  0
  2  3  1  0  0  0  0
  2  4  1  0  0  0  0
  2  5  1  0  0  0  0
  1  2  1  0  0  0  0
 16 17  2  0  0  0  0
 16 18  1  0  0  0  0
 14 15  1  0  0  0  0
 11 12  1  0  0  0  0
 11 13  1  0  0  0  0
 11 14  1  0  0  0  0
  9 10  1  0  0  0  0
  9 11  1  0  0  0  0
  9 16  1  0  0  0  0
  7  8  1  0  0  0  0
  7  9  1  0  0  0  0
 20 21  1  0  0  0  0
 20 22  1  0  0  0  0
 20 23  1  0  0  0  0
 18 19  1  0  0  0  0
 18 20  1  0  0  0  0
M  END
$$$$
default_name
  -OEChem-01062215323D

 23 22  0     1  0  0  0  0  0999 V2000
   -2.6857   -3.6684    0.8743 H   0  0  0  0  0  0  0  0  0  0  0  0
   -2.6617   -2.6474    0.4953 C   0  0  0  0  0  0  0  0  0  0  0  0
   -3.2657   -2.0054    1.1353 H   0  0  0  0  0  0  0  0  0  0  0  0
   -3.0477   -2.6254   -0.5217 H   0  0  0  0  0  0  0  0  0  0  0  0
   -1.2337   -2.1564    0.4993 C   0  0  0  0  0  0  0  0  0  0  0  0
   -0.3327   -2.8864    0.8893 O   0  0  0  0  0  0  0  0  0  0  0  0
   -1.0277   -0.9164    0.0623 N   0  0  0  0  0  0  0  0  0  0  0  0
   -1.8237   -0.3604   -0.2157 H   0  0  0  0  0  0  0  0  0  0  0  0
    0.2713   -0.2414    0.0463 C   0  0  1  0  0  0  0  0  0  0  0  0
    0.9550   -0.7800    0.7055 H   0  0  0  0  0  0  0  0  0  0  0  0
    0.8321   -0.2955   -1.3843 C   0  0  0  0  0  0  0  0  0  0  0  0
    0.0924    0.1246   -2.0695 H   0  0  0  0  0  0  0  0  0  0  0  0
    1.7434    0.3032   -1.4410 H   0  0  0  0  0  0  0  0  0  0  0  0
    1.1845   -2.0054   -1.8878 S   0  0  0  0  0  0  0  0  0  0  0  0
    1.5231   -1.7383   -3.1549 H   0  0  0  0  0  0  0  0  0  0  0  0
    0.1277    1.1982    0.5808 C   0  0  0  0  0  0  0  0  0  0  0  0
   -0.3926    2.0651   -0.1223 O   0  0  0  0  0  0  0  0  0  0  0  0
    0.5766    1.4529    1.8153 N   0  0  0  0  0  0  0  0  0  0  0  0
    1.0473    0.7031    2.3009 H   0  0  0  0  0  0  0  0  0  0  0  0
    0.5059    2.7602    2.4655 C   0  0  0  0  0  0  0  0  0  0  0  0
   -0.5087    3.1574    2.3877 H   0  0  0  0  0  0  0  0  0  0  0  0
    0.7778    2.6731    3.5181 H   0  0  0  0  0  0  0  0  0  0  0  0
    1.1899    3.4526    1.9718 H   0  0  0  0  0  0  0  0  0  0  0  0
  5  6  2  0  0  0  0
  5  7  1  0  0  0  0
  2  3  1  0  0  0  0
  2  4  1  0  0  0  0
  2  5  1  0  0  0  0
  1  2  1  0  0  0  0
 16 17  2  0  0  0  0
 16 18  1  0  0  0  0
 14 15  1  0  0  0  0
 11 12  1  0  0  0  0
 11 13  1  0  0  0  0
 11 14  1  0  0  0  0
  9 10  1  0  0  0  0
  9 11  1  0  0  0  0
  9 16  1  0  0  0  0
  7  8  1  0  0  0  0
  7  9  1  0  0  0  0
 20 21  1  0  0  0  0
 20 22  1  0  0  0  0
 20 23  1  0  0  0  0
 18 19  1  0  0  0  0
 18 20  1  0  0  0  0
M  END
$$$$
default_name
  -OEChem-01062215323D

 23 22  0     1  0  0  0  0  0999 V2000
   -2.6857   -3.6684    0.8743 H   0  0  0  0  0  0  0  0  0  0  0  0
   -2.6617   -2.6474    0.4953 C   0  0  0  0  0  0  0  0  0  0  0  0
   -3.2657   -2.0054    1.1353 H   0  0  0  0  0  0  0  0  0  0  0  0
   -3.0477   -2.6254   -0.5217 H   0  0  0  0  0  0  0  0  0  0  0  0
   -1.2337   -2.1564    0.4993 C   0  0  0  0  0  0  0  0  0  0  0  0
   -0.3327   -2.8864    0.8893 O   0  0  0  0  0  0  0  0  0  0  0  0
   -1.0277   -0.9164    0.0623 N   0  0  0  0  0  0  0  0  0  0  0  0
   -1.8237   -0.3604   -0.2157 H   0  0  0  0  0  0  0  0  0  0  0  0
    0.2713   -0.2414    0.0463 C   0  0  1  0  0  0  0  0  0  0  0  0
    0.9550   -0.7800    0.7055 H   0  0  0  0  0  0  0  0  0  0  0  0
    0.8321   -0.2955   -1.3843 C   0  0  0  0  0  0  0  0  0  0  0  0
    0.0924    0.1246   -2.0695 H   0  0  0  0  0  0  0  0  0  0  0  0
    1.7434    0.3032   -1.4410 H   0  0  0  0  0  0  0  0  0  0  0  0
    1.1845   -2.0054   -1.8878 S   0  0  0  0  0  0  0  0  0  0  0  0
    1.5231   -1.7383   -3.1549 H   0  0  0  0  0  0  0  0  0  0  0  0
    0.1277    1.1982    0.5808 C   0  0  0  0  0  0  0  0  0  0  0  0
   -0.6244    1.9915    0.0137 O   0  0  0  0  0  0  0  0  0  0  0  0
    0.8347    1.5341    1.6660 N   0  0  0  0  0  0  0  0  0  0  0  0
    1.4757    0.8455    2.0326 H   0  0  0  0  0  0  0  0  0  0  0  0
    0.8016    2.8524    2.2968 C   0  0  0  0  0  0  0  0  0  0  0  0
   -0.2342    3.1571    2.4624 H   0  0  0  0  0  0  0  0  0  0  0  0
    1.3256    2.8262    3.2529 H   0  0  0  0  0  0  0  0  0  0  0  0
    1.2797    3.5837    1.6428 H   0  0  0  0  0  0  0  0  0  0  0  0
  5  6  2  0  0  0  0
  5  7  1  0  0  0  0
  2  3  1  0  0  0  0
  2  4  1  0  0  0  0
  2  5  1  0  0  0  0
  1  2  1  0  0  0  0
 16 17  2  0  0  0  0
 16 18  1  0  0  0  0
 14 15  1  0  0  0  0
 11 12  1  0  0  0  0
 11 13  1  0  0  0  0
 11 14  1  0  0  0  0
  9 10  1  0  0  0  0
  9 11  1  0  0  0  0
  9 16  1  0  0  0  0
  7  8  1  0  0  0  0
  7  9  1  0  0  0  0
 20 21  1  0  0  0  0
 20 22  1  0  0  0  0
 20 23  1  0  0  0  0
 18 19  1  0  0  0  0
 18 20  1  0  0  0  0
M  END
$$$$
default_name
  -OEChem-01062215323D

 23 22  0     1  0  0  0  0  0999 V2000
   -2.6857   -3.6684    0.8743 H   0  0  0  0  0  0  0  0  0  0  0  0
   -2.6617   -2.6474    0.4953 C   0  0  0  0  0  0  0  0  0  0  0  0
   -3.2657   -2.0054    1.1353 H   0  0  0  0  0  0  0  0  0  0  0  0
   -3.0477   -2.6254   -0.5217 H   0  0  0  0  0  0  0  0  0  0  0  0
   -1.2337   -2.1564    0.4993 C   0  0  0  0  0  0  0  0  0  0  0  0
   -0.3327   -2.8864    0.8893 O   0  0  0  0  0  0  0  0  0  0  0  0
   -1.0277   -0.9164    0.0623 N   0  0  0  0  0  0  0  0  0  0  0  0
   -1.8237   -0.3604   -0.2157 H   0  0  0  0  0  0  0  0  0  0  0  0
    0.2713   -0.2414    0.0463 C   0  0  1  0  0  0  0  0  0  0  0  0
    0.9550   -0.7800    0.7055 H   0  0  0  0  0  0  0  0  0  0  0  0
    0.8321   -0.2955   -1.3843 C   0  0  0  0  0  0  0  0  0  0  0  0
    0.0924    0.1246   -2.0695 H   0  0  0  0  0  0  0  0  0  0  0  0
    1.7434    0.3032   -1.4410 H   0  0  0  0  0  0  0  0  0  0  0  0
    1.1845   -2.0054   -1.8878 S   0  0  0  0  0  0  0  0  0  0  0  0
    1.5231   -1.7383   -3.1549 H   0  0  0  0  0  0  0  0  0  0  0  0
    0.1277    1.1982    0.5808 C   0  0  0  0  0  0  0  0  0  0  0  0
   -0.8089    1.9029    0.2029 O   0  0  0  0  0  0  0  0  0  0  0  0
    1.0407    1.6321    1.4575 N   0  0  0  0  0  0  0  0  0  0  0  0
    1.8120    1.0149    1.6665 H   0  0  0  0  0  0  0  0  0  0  0  0
    1.0383    2.9638    2.0601 C   0  0  0  0  0  0  0  0  0  0  0  0
    0.0490    3.1832    2.4681 H   0  0  0  0  0  0  0  0  0  0  0  0
    1.7769    3.0168    2.8608 H   0  0  0  0  0  0  0  0  0  0  0  0
    1.2752    3.7104    1.3002 H   0  0  0  0  0  0  0  0  0  0  0  0
  5  6  2  0  0  0  0
  5  7  1  0  0  0  0
  2  3  1  0  0  0  0
  2  4  1  0  0  0  0
  2  5  1  0  0  0  0
  1  2  1  0  0  0  0
 16 17  2  0  0  0  0
 16 18  1  0  0  0  0
 14 15  1  0  0  0  0
 11 12  1  0  0  0  0
 11 13  1  0  0  0  0
 11 14  1  0  0  0  0
  9 10  1  0  0  0  0
  9 11  1  0  0  0  0
  9 16  1  0  0  0  0
  7  8  1  0  0  0  0
  7  9  1  0  0  0  0
 20 21  1  0  0  0  0
 20 22  1  0  0  0  0
 20 23  1  0  0  0  0
 18 19  1  0  0  0  0
 18 20  1  0  0  0  0
M  END
$$$$
default_name
  -OEChem-01062215323D

 23 22  0     1  0  0  0  0  0999 V2000
   -2.6857   -3.6684    0.8743 H   0  0  0  0  0  0  0  0  0  0  0  0
   -2.6617   -2.6474    0.4953 C   0  0  0  0  0  0  0  0  0  0  0  0
   -3.2657   -2.0054    1.1353 H   0  0  0  0  0  0  0  0  0  0  0  0
   -3.0477   -2.6254   -0.5217 H   0  0  0  0  0  0  0  0  0  0  0  0
   -1.2337   -2.1564    0.4993 C   0  0  0  0  0  0  0  0  0  0  0  0
   -0.3327   -2.8864    0.8893 O   0  0  0  0  0  0  0  0  0  0  0  0
   -1.0277   -0.9164    0.0623 N   0  0  0  0  0  0  0  0  0  0  0  0
   -1.8237   -0.3604   -0.2157 H   0  0  0  0  0  0  0  0  0  0  0  0
    0.2713   -0.2414    0.0463 C   0  0  1  0  0  0  0  0  0  0  0  0
    0.9550   -0.7800    0.7055 H   0  0  0  0  0  0  0  0  0  0  0  0
    0.8321   -0.2955   -1.3843 C   0  0  0  0  0  0  0  0  0  0  0  0
    0.0924    0.1246   -2.0695 H   0  0  0  0  0  0  0  0  0  0  0  0
    1.7434    0.3032   -1.4410 H   0  0  0  0  0  0  0  0  0  0  0  0
    1.1845   -2.0054   -1.8878 S   0  0  0  0  0  0  0  0  0  0  0  0
    1.5231   -1.7383   -3.1549 H   0  0  0  0  0  0  0  0  0  0  0  0
    0.1277    1.1982    0.5808 C   0  0  0  0  0  0  0  0  0  0  0  0
   -0.9334    1.8053    0.4323 O   0  0  0  0  0  0  0  0  0  0  0  0
    1.1805    1.7401    1.2040 N   0  0  0  0  0  0  0  0  0  0  0  0
    2.0332    1.1999    1.2276 H   0  0  0  0  0  0  0  0  0  0  0  0
    1.1997    3.0870    1.7717 C   0  0  0  0  0  0  0  0  0  0  0  0
    0.3217    3.2340    2.4047 H   0  0  0  0  0  0  0  0  0  0  0  0
    2.1011    3.2319    2.3684 H   0  0  0  0  0  0  0  0  0  0  0  0
    1.1767    3.8242    0.9673 H   0  0  0  0  0  0  0  0  0  0  0  0
  5  6  2  0  0  0  0
  5  7  1  0  0  0  0
  2  3  1  0  0  0  0
  2  4  1  0  0  0  0
  2  5  1  0  0  0  0
  1  2  1  0  0  0  0
 16 17  2  0  0  0  0
 16 18  1  0  0  0  0
 14 15  1  0  0  0  0
 11 12  1  0  0  0  0
 11 13  1  0  0  0  0
 11 14  1  0  0  0  0
  9 10  1  0  0  0  0
  9 11  1  0  0  0  0
  9 16  1  0  0  0  0
  7  8  1  0  0  0  0
  7  9  1  0  0  0  0
 20 21  1  0  0  0  0
 20 22  1  0  0  0  0
 20 23  1  0  0  0  0
 18 19  1  0  0  0  0
 18 20  1  0  0  0  0
M  END
$$$$
default_name
  -OEChem-01062215323D

 23 22  0     1  0  0  0  0  0999 V2000
   -2.6857   -3.6684    0.8743 H   0  0  0  0  0  0  0  0  0  0  0  0
   -2.6617   -2.6474    0.4953 C   0  0  0  0  0  0  0  0  0  0  0  0
   -3.2657   -2.0054    1.1353 H   0  0  0  0  0  0  0  0  0  0  0  0
   -3.0477   -2.6254   -0.5217 H   0  0  0  0  0  0  0  0  0  0  0  0
   -1.2337   -2.1564    0.4993 C   0  0  0  0  0  0  0  0  0  0  0  0
   -0.3327   -2.8864    0.8893 O   0  0  0  0  0  0  0  0  0  0  0  0
   -1.0277   -0.9164    0.0623 N   0  0  0  0  0  0  0  0  0  0  0  0
   -1.8237   -0.3604   -0.2157 H   0  0  0  0  0  0  0  0  0  0  0  0
    0.2713   -0.2414    0.0463 C   0  0  1  0  0  0  0  0  0  0  0  0
    0.9550   -0.7800    0.7055 H   0  0  0  0  0  0  0  0  0  0  0  0
    0.8321   -0.2955   -1.3843 C   0  0  0  0  0  0  0  0  0  0  0  0
    0.0924    0.1246   -2.0695 H   0  0  0  0  0  0  0  0  0  0  0  0
    1.7434    0.3032   -1.4410 H   0  0  0  0  0  0  0  0  0  0  0  0
    1.1845   -2.0054   -1.8878 S   0  0  0  0  0  0  0  0  0  0  0  0
    1.5231   -1.7383   -3.1549 H   0  0  0  0  0  0  0  0  0  0  0  0
    0.1277    1.1982    0.5808 C   0  0  0  0  0  0  0  0  0  0  0  0
   -0.9895    1.7054    0.6863 O   0  0  0  0  0  0  0  0  0  0  0  0
    1.2446    1.8509    0.9227 N   0  0  0  0  0  0  0  0  0  0  0  0
    2.1243    1.3879    0.7458 H   0  0  0  0  0  0  0  0  0  0  0  0
    1.2749    3.2135    1.4511 C   0  0  0  0  0  0  0  0  0  0  0  0
    0.5651    3.3059    2.2763 H   0  0  0  0  0  0  0  0  0  0  0  0
    2.2759    3.4569    1.8093 H   0  0  0  0  0  0  0  0  0  0  0  0
    0.9909    3.9172    0.6668 H   0  0  0  0  0  0  0  0  0  0  0  0
  5  6  2  0  0  0  0
  5  7  1  0  0  0  0
  2  3  1  0  0  0  0
  2  4  1  0  0  0  0
  2  5  1  0  0  0  0
  1  2  1  0  0  0  0
 16 17  2  0  0  0  0
 16 18  1  0  0  0  0
 14 15  1  0  0  0  0
 11 12  1  0  0  0  0
 11 13  1  0  0  0  0
 11 14  1  0  0  0  0
  9 10  1  0  0  0  0
  9 11  1  0  0  0  0
  9 16  1  0  0  0  0
  7  8  1  0  0  0  0
  7  9  1  0  0  0  0
 20 21  1  0  0  0  0
 20 22  1  0  0  0  0
 20 23  1  0  0  0  0
 18 19  1  0  0  0  0
 18 20  1  0  0  0  0
M  END
$$$$
default_name
  -OEChem-01062215323D

 23 22  0     1  0  0  0  0  0999 V2000
   -2.6857   -3.6684    0.8743 H   0  0  0  0  0  0  0  0  0  0  0  0
   -2.6617   -2.6474    0.4953 C   0  0  0  0  0  0  0  0  0  0  0  0
   -3.2657   -2.0054    1.1353 H   0  0  0  0  0  0  0  0  0  0  0  0
   -3.0477   -2.6254   -0.5217 H   0  0  0  0  0  0  0  0  0  0  0  0
   -1.2337   -2.1564    0.4993 C   0  0  0  0  0  0  0  0  0  0  0  0
   -0.3327   -2.8864    0.8893 O   0  0  0  0  0  0  0  0  0  0  0  0
   -1.0277   -0.9164    0.0623 N   0  0  0  0  0  0  0  0  0  0  0  0
   -1.8237   -0.3604   -0.2157 H   0  0  0  0  0  0  0  0  0  0  0  0
    0.2713   -0.2414    0.0463 C   0  0  1  0  0  0  0  0  0  0  0  0
    1.0195   -0.9094    0.4777 H   0  0  0  0  0  0  0  0  0  0  0  0
    0.6569    0.0409   -1.4151 C   0  0  0  0  0  0  0  0  0  0  0  0
   -0.1519    0.5991   -1.8920 H   0  0  0  0  0  0  0  0  0  0  0  0
    1.5649    0.6468   -1.4415 H   0  0  0  0  0  0  0  0  0  0  0  0
    0.9181   -1.5034   -2.3360 S   0  0  0  0  0  0  0  0  0  0  0  0
    1.1079   -0.9485   -3.5391 H   0  0  0  0  0  0  0  0  0  0  0  0
    0.2165    1.0352    0.9101 C   0  0  0  0  0  0  0  0  0  0  0  0
   -0.8260    1.3393    1.4907 O   0  0  0  0  0  0  0  0  0  0  0  0
    1.3283    1.7738    1.0028 N   0  0  0  0  0  0  0  0  0  0  0  0
    2.1208    1.4899    0.4452 H   0  0  0  0  0  0  0  0  0  0  0  0
    1.4394    3.0030    1.7861 C   0  0  0  0  0  0  0  0  0  0  0  0
    1.0637    2.8320    2.7975 H   0  0  0  0  0  0  0  0  0  0  0  0
    2.4804    3.3237    1.8391 H   0  0  0  0  0  0  0  0  0  0  0  0
    0.8424    3.7893    1.3209 H   0  0  0  0  0  0  0  0  0  0  0  0
  5  6  2  0  0  0  0
  5  7  1  0  0  0  0
  2  3  1  0  0  0  0
  2  4  1  0  0  0  0
  2  5  1  0  0  0  0
  1  2  1  0  0  0  0
 16 17  2  0  0  0  0
 16 18  1  0  0  0  0
 14 15  1  0  0  0  0
 11 12  1  0  0  0  0
 11 13  1  0  0  0  0
 11 14  1  0  0  0  0
  9 10  1  0  0  0  0
  9 11  1  0  0  0  0
  9 16  1  0  0  0  0
  7  8  1  0  0  0  0
  7  9  1  0  0  0  0
 20 21  1  0  0  0  0
 20 22  1  0  0  0  0
 20 23  1  0  0  0  0
 18 19  1  0  0  0  0
 18 20  1  0  0  0  0
M  END
$$$$
default_name
  -OEChem-01062215323D

 23 22  0     1  0  0  0  0  0999 V2000
   -2.6857   -3.6684    0.8743 H   0  0  0  0  0  0  0  0  0  0  0  0
   -2.6617   -2.6474    0.4953 C   0  0  0  0  0  0  0  0  0  0  0  0
   -3.2657   -2.0054    1.1353 H   0  0  0  0  0  0  0  0  0  0  0  0
   -3.0477   -2.6254   -0.5217 H   0  0  0  0  0  0  0  0  0  0  0  0
   -1.2337   -2.1564    0.4993 C   0  0  0  0  0  0  0  0  0  0  0  0
   -0.3327   -2.8864    0.8893 O   0  0  0  0  0  0  0  0  0  0  0  0
   -1.0277   -0.9164    0.0623 N   0  0  0  0  0  0  0  0  0  0  0  0
   -1.8237   -0.3604   -0.2157 H   0  0  0  0  0  0  0  0  0  0  0  0
    0.2713   -0.2414    0.0463 C   0  0  1  0  0  0  0  0  0  0  0  0
    1.0195   -0.9094    0.4777 H   0  0  0  0  0  0  0  0  0  0  0  0
    0.6569    0.0409   -1.4151 C   0  0  0  0  0  0  0  0  0  0  0  0
   -0.1519    0.5991   -1.8920 H   0  0  0  0  0  0  0  0  0  0  0  0
    1.5649    0.6468   -1.4415 H   0  0  0  0  0  0  0  0  0  0  0  0
    0.9181   -1.5034   -2.3360 S   0  0  0  0  0  0  0  0  0  0  0  0
    1.1079   -0.9485   -3.5391 H   0  0  0  0  0  0  0  0  0  0  0  0
    0.2165    1.0352    0.9101 C   0  0  0  0  0  0  0  0  0  0  0  0
   -0.7109    1.2005    1.7032 O   0  0  0  0  0  0  0  0  0  0  0  0
    1.2025    1.9282    0.7666 N   0  0  0  0  0  0  0  0  0  0  0  0
    1.8904    1.7475    0.0498 H   0  0  0  0  0  0  0  0  0  0  0  0
    1.2976    3.1798    1.5158 C   0  0  0  0  0  0  0  0  0  0  0  0
    1.1756    2.9819    2.5831 H   0  0  0  0  0  0  0  0  0  0  0  0
    2.2677    3.6482    1.3459 H   0  0  0  0  0  0  0  0  0  0  0  0
    0.5069    3.8601    1.1950 H   0  0  0  0  0  0  0  0  0  0  0  0
  5  6  2  0  0  0  0
  5  7  1  0  0  0  0
  2  3  1  0  0  0  0
  2  4  1  0  0  0  0
  2  5  1  0  0  0  0
  1  2  1  0  0  0  0
 16 17  2  0  0  0  0
 16 18  1  0  0  0  0
 14 15  1  0  0  0  0
 11 12  1  0  0  0  0
 11 13  1  0  0  0  0
 11 14  1  0  0  0  0
  9 10  1  0  0  0  0
  9 11  1  0  0  0  0
  9 16  1  0  0  0  0
  7  8  1  0  0  0  0
  7  9  1  0  0  0  0
 20 21  1  0  0  0  0
 20 22  1  0  0  0  0
 20 23  1  0  0  0  0
 18 19  1  0  0  0  0
 18 20  1  0  0  0  0
M  END
$$$$
default_name
  -OEChem-01062215323D

 23 22  0     1  0  0  0  0  0999 V2000
   -2.6857   -3.6684    0.8743 H   0  0  0  0  0  0  0  0  0  0  0  0
   -2.6617   -2.6474    0.4953 C   0  0  0  0  0  0  0  0  0  0  0  0
   -3.2657   -2.0054    1.1353 H   0  0  0  0  0  0  0  0  0  0  0  0
   -3.0477   -2.6254   -0.5217 H   0  0  0  0  0  0  0  0  0  0  0  0
   -1.2337   -2.1564    0.4993 C   0  0  0  0  0  0  0  0  0  0  0  0
   -0.3327   -2.8864    0.8893 O   0  0  0  0  0  0  0  0  0  0  0  0
   -1.0277   -0.9164    0.0623 N   0  0  0  0  0  0  0  0  0  0  0  0
   -1.8237   -0.3604   -0.2157 H   0  0  0  0  0  0  0  0  0  0  0  0
    0.2713   -0.2414    0.0463 C   0  0  1  0  0  0  0  0  0  0  0  0
    1.0195   -0.9094    0.4777 H   0  0  0  0  0  0  0  0  0  0  0  0
    0.6569    0.0409   -1.4151 C   0  0  0  0  0  0  0  0  0  0  0  0
   -0.1519    0.5991   -1.8920 H   0  0  0  0  0  0  0  0  0  0  0  0
    1.5649    0.6468   -1.4415 H   0  0  0  0  0  0  0  0  0  0  0  0
    0.9181   -1.5034   -2.3360 S   0  0  0  0  0  0  0  0  0  0  0  0
    1.1079   -0.9485   -3.5391 H   0  0  0  0  0  0  0  0  0  0  0  0
    0.2165    1.0352    0.9101 C   0  0  0  0  0  0  0  0  0  0  0  0
   -0.5342    1.0851    1.8850 O   0  0  0  0  0  0  0  0  0  0  0  0
    1.0079    2.0570    0.5639 N   0  0  0  0  0  0  0  0  0  0  0  0
    1.5458    1.9593   -0.2851 H   0  0  0  0  0  0  0  0  0  0  0  0
    1.0772    3.3275    1.2834 C   0  0  0  0  0  0  0  0  0  0  0  0
    1.2161    3.1409    2.3507 H   0  0  0  0  0  0  0  0  0  0  0  0
    1.9096    3.9264    0.9121 H   0  0  0  0  0  0  0  0  0  0  0  0
    0.1455    3.8787    1.1445 H   0  0  0  0  0  0  0  0  0  0  0  0
  5  6  2  0  0  0  0
  5  7  1  0  0  0  0
  2  3  1  0  0  0  0
  2  4  1  0  0  0  0
  2  5  1  0  0  0  0
  1  2  1  0  0  0  0
 16 17  2  0  0  0  0
 16 18  1  0  0  0  0
 14 15  1  0  0  0  0
 11 12  1  0  0  0  0
 11 13  1  0  0  0  0
 11 14  1  0  0  0  0
  9 10  1  0  0  0  0
  9 11  1  0  0  0  0
  9 16  1  0  0  0  0
  7  8  1  0  0  0  0
  7  9  1  0  0  0  0
 20 21  1  0  0  0  0
 20 22  1  0  0  0  0
 20 23  1  0  0  0  0
 18 19  1  0  0  0  0
 18 20  1  0  0  0  0
M  END
$$$$
default_name
  -OEChem-01062215323D

 23 22  0     1  0  0  0  0  0999 V2000
   -2.6857   -3.6684    0.8743 H   0  0  0  0  0  0  0  0  0  0  0  0
   -2.6617   -2.6474    0.4953 C   0  0  0  0  0  0  0  0  0  0  0  0
   -3.2657   -2.0054    1.1353 H   0  0  0  0  0  0  0  0  0  0  0  0
   -3.0477   -2.6254   -0.5217 H   0  0  0  0  0  0  0  0  0  0  0  0
   -1.2337   -2.1564    0.4993 C   0  0  0  0  0  0  0  0  0  0  0  0
   -0.3327   -2.8864    0.8893 O   0  0  0  0  0  0  0  0  0  0  0  0
   -1.0277   -0.9164    0.0623 N   0  0  0  0  0  0  0  0  0  0  0  0
   -1.8237   -0.3604   -0.2157 H   0  0  0  0  0  0  0  0  0  0  0  0
    0.2713   -0.2414    0.0463 C   0  0  1  0  0  0  0  0  0  0  0  0
    1.0195   -0.9094    0.4777 H   0  0  0  0  0  0  0  0  0  0  0  0
    0.6569    0.0409   -1.4151 C   0  0  0  0  0  0  0  0  0  0  0  0
   -0.1519    0.5991   -1.8920 H   0  0  0  0  0  0  0  0  0  0  0  0
    1.5649    0.6468   -1.4415 H   0  0  0  0  0  0  0  0  0  0  0  0
    0.9181   -1.5034   -2.3360 S   0  0  0  0  0  0  0  0  0  0  0  0
    1.1079   -0.9485   -3.5391 H   0  0  0  0  0  0  0  0  0  0  0  0
    0.2165    1.0352    0.9101 C   0  0  0  0  0  0  0  0  0  0  0  0
   -0.3077    1.0009    2.0239 O   0  0  0  0  0  0  0  0  0  0  0  0
    0.7579    2.1513    0.4087 N   0  0  0  0  0  0  0  0  0  0  0  0
    1.1104    2.1109   -0.5367 H   0  0  0  0  0  0  0  0  0  0  0  0
    0.7930    3.4362    1.1048 C   0  0  0  0  0  0  0  0  0  0  0  0
    1.1824    3.2982    2.1161 H   0  0  0  0  0  0  0  0  0  0  0  0
    1.4305    4.1391    0.5673 H   0  0  0  0  0  0  0  0  0  0  0  0
   -0.2170    3.8438    1.1730 H   0  0  0  0  0  0  0  0  0  0  0  0
  5  6  2  0  0  0  0
  5  7  1  0  0  0  0
  2  3  1  0  0  0  0
  2  4  1  0  0  0  0
  2  5  1  0  0  0  0
  1  2  1  0  0  0  0
 16 17  2  0  0  0  0
 16 18  1  0  0  0  0
 14 15  1  0  0  0  0
 11 12  1  0  0  0  0
 11 13  1  0  0  0  0
 11 14  1  0  0  0  0
  9 10  1  0  0  0  0
  9 11  1  0  0  0  0
  9 16  1  0  0  0  0
  7  8  1  0  0  0  0
  7  9  1  0  0  0  0
 20 21  1  0  0  0  0
 20 22  1  0  0  0  0
 20 23  1  0  0  0  0
 18 19  1  0  0  0  0
 18 20  1  0  0  0  0
M  END
$$$$
default_name
  -OEChem-01062215323D

 23 22  0     1  0  0  0  0  0999 V2000
   -2.6857   -3.6684    0.8743 H   0  0  0  0  0  0  0  0  0  0  0  0
   -2.6617   -2.6474    0.4953 C   0  0  0  0  0  0  0  0  0  0  0  0
   -3.2657   -2.0054    1.1353 H   0  0  0  0  0  0  0  0  0  0  0  0
   -3.0477   -2.6254   -0.5217 H   0  0  0  0  0  0  0  0  0  0  0  0
   -1.2337   -2.1564    0.4993 C   0  0  0  0  0  0  0  0  0  0  0  0
   -0.3327   -2.8864    0.8893 O   0  0  0  0  0  0  0  0  0  0  0  0
   -1.0277   -0.9164    0.0623 N   0  0  0  0  0  0  0  0  0  0  0  0
   -1.8237   -0.3604   -0.2157 H   0  0  0  0  0  0  0  0  0  0  0  0
    0.2713   -0.2414    0.0463 C   0  0  1  0  0  0  0  0  0  0  0  0
    1.0195   -0.9094    0.4777 H   0  0  0  0  0  0  0  0  0  0  0  0
    0.6569    0.0409   -1.4151 C   0  0  0  0  0  0  0  0  0  0  0  0
   -0.1519    0.5991   -1.8920 H   0  0  0  0  0  0  0  0  0  0  0  0
    1.5649    0.6468   -1.4415 H   0  0  0  0  0  0  0  0  0  0  0  0
    0.9181   -1.5034   -2.3360 S   0  0  0  0  0  0  0  0  0  0  0  0
    1.1079   -0.9485   -3.5391 H   0  0  0  0  0  0  0  0  0  0  0  0
    0.2165    1.0352    0.9101 C   0  0  0  0  0  0  0  0  0  0  0  0
   -0.0470    0.9536    2.1103 O   0  0  0  0  0  0  0  0  0  0  0  0
    0.4695    2.2047    0.3114 N   0  0  0  0  0  0  0  0  0  0  0  0
    0.6140    2.1918   -0.6879 H   0  0  0  0  0  0  0  0  0  0  0  0
    0.4645    3.4983    0.9922 C   0  0  0  0  0  0  0  0  0  0  0  0
    1.0768    3.4431    1.8952 H   0  0  0  0  0  0  0  0  0  0  0  0
    0.8629    4.2720    0.3349 H   0  0  0  0  0  0  0  0  0  0  0  0
   -0.5561    3.7578    1.2785 H   0  0  0  0  0  0  0  0  0  0  0  0
  5  6  2  0  0  0  0
  5  7  1  0  0  0  0
  2  3  1  0  0  0  0
  2  4  1  0  0  0  0
  2  5  1  0  0  0  0
  1  2  1  0  0  0  0
 16 17  2  0  0  0  0
 16 18  1  0  0  0  0
 14 15  1  0  0  0  0
 11 12  1  0  0  0  0
 11 13  1  0  0  0  0
 11 14  1  0  0  0  0
  9 10  1  0  0  0  0
  9 11  1  0  0  0  0
  9 16  1  0  0  0  0
  7  8  1  0  0  0  0
  7  9  1  0  0  0  0
 20 21  1  0  0  0  0
 20 22  1  0  0  0  0
 20 23  1  0  0  0  0
 18 19  1  0  0  0  0
 18 20  1  0  0  0  0
M  END
$$$$
default_name
  -OEChem-01062215323D

 23 22  0     1  0  0  0  0  0999 V2000
   -2.6857   -3.6684    0.8743 H   0  0  0  0  0  0  0  0  0  0  0  0
   -2.6617   -2.6474    0.4953 C   0  0  0  0  0  0  0  0  0  0  0  0
   -3.2657   -2.0054    1.1353 H   0  0  0  0  0  0  0  0  0  0  0  0
   -3.0477   -2.6254   -0.5217 H   0  0  0  0  0  0  0  0  0  0  0  0
   -1.2337   -2.1564    0.4993 C   0  0  0  0  0  0  0  0  0  0  0  0
   -0.3327   -2.8864    0.8893 O   0  0  0  0  0  0  0  0  0  0  0  0
   -1.0277   -0.9164    0.0623 N   0  0  0  0  0  0  0  0  0  0  0  0
   -1.8237   -0.3604   -0.2157 H   0  0  0  0  0  0  0  0  0  0  0  0
    0.2713   -0.2414    0.0463 C   0  0  1  0  0  0  0  0  0  0  0  0
    1.0195   -0.9094    0.4777 H   0  0  0  0  0  0  0  0  0  0  0  0
    0.6569    0.0409   -1.4151 C   0  0  0  0  0  0  0  0  0  0  0  0
   -0.1519    0.5991   -1.8920 H   0  0  0  0  0  0  0  0  0  0  0  0
    1.5649    0.6468   -1.4415 H   0  0  0  0  0  0  0  0  0  0  0  0
    0.9181   -1.5034   -2.3360 S   0  0  0  0  0  0  0  0  0  0  0  0
    1.1079   -0.9485   -3.5391 H   0  0  0  0  0  0  0  0  0  0  0  0
    0.2165    1.0352    0.9101 C   0  0  0  0  0  0  0  0  0  0  0  0
    0.2301    0.9466    2.1383 O   0  0  0  0  0  0  0  0  0  0  0  0
    0.1624    2.2136    0.2787 N   0  0  0  0  0  0  0  0  0  0  0  0
    0.0904    2.1967   -0.7283 H   0  0  0  0  0  0  0  0  0  0  0  0
    0.1141    3.5096    0.9532 C   0  0  0  0  0  0  0  0  0  0  0  0
    0.9064    3.5657    1.7032 H   0  0  0  0  0  0  0  0  0  0  0  0
    0.2456    4.3159    0.2307 H   0  0  0  0  0  0  0  0  0  0  0  0
   -0.8485    3.6266    1.4539 H   0  0  0  0  0  0  0  0  0  0  0  0
  5  6  2  0  0  0  0
  5  7  1  0  0  0  0
  2  3  1  0  0  0  0
  2  4  1  0  0  0  0
  2  5  1  0  0  0  0
  1  2  1  0  0  0  0
 16 17  2  0  0  0  0
 16 18  1  0  0  0  0
 14 15  1  0  0  0  0
 11 12  1  0  0  0  0
 11 13  1  0  0  0  0
 11 14  1  0  0  0  0
  9 10  1  0  0  0  0
  9 11  1  0  0  0  0
  9 16  1  0  0  0  0
  7  8  1  0  0  0  0
  7  9  1  0  0  0  0
 20 21  1  0  0  0  0
 20 22  1  0  0  0  0
 20 23  1  0  0  0  0
 18 19  1  0  0  0  0
 18 20  1  0  0  0  0
M  END
$$$$
default_name
  -OEChem-01062215323D

 23 22  0     1  0  0  0  0  0999 V2000
   -2.6857   -3.6684    0.8743 H   0  0  0  0  0  0  0  0  0  0  0  0
   -2.6617   -2.6474    0.4953 C   0  0  0  0  0  0  0  0  0  0  0  0
   -3.2657   -2.0054    1.1353 H   0  0  0  0  0  0  0  0  0  0  0  0
   -3.0477   -2.6254   -0.5217 H   0  0  0  0  0  0  0  0  0  0  0  0
   -1.2337   -2.1564    0.4993 C   0  0  0  0  0  0  0  0  0  0  0  0
   -0.3327   -2.8864    0.8893 O   0  0  0  0  0  0  0  0  0  0  0  0
   -1.0277   -0.9164    0.0623 N   0  0  0  0  0  0  0  0  0  0  0  0
   -1.8237   -0.3604   -0.2157 H   0  0  0  0  0  0  0  0  0  0  0  0
    0.2713   -0.2414    0.0463 C   0  0  1  0  0  0  0  0  0  0  0  0
    1.0195   -0.9094    0.4777 H   0  0  0  0  0  0  0  0  0  0  0  0
    0.6569    0.0409   -1.4151 C   0  0  0  0  0  0  0  0  0  0  0  0
   -0.1519    0.5991   -1.8920 H   0  0  0  0  0  0  0  0  0  0  0  0
    1.5649    0.6468   -1.4415 H   0  0  0  0  0  0  0  0  0  0  0  0
    0.9181   -1.5034   -2.3360 S   0  0  0  0  0  0  0  0  0  0  0  0
    1.1079   -0.9485   -3.5391 H   0  0  0  0  0  0  0  0  0  0  0  0
    0.2165    1.0352    0.9101 C   0  0  0  0  0  0  0  0  0  0  0  0
    0.5049    0.9802    2.1060 O   0  0  0  0  0  0  0  0  0  0  0  0
   -0.1426    2.1774    0.3129 N   0  0  0  0  0  0  0  0  0  0  0  0
   -0.4247    2.1251   -0.6553 H   0  0  0  0  0  0  0  0  0  0  0  0
   -0.2343    3.4694    0.9905 C   0  0  0  0  0  0  0  0  0  0  0  0
    0.6829    3.6577    1.5530 H   0  0  0  0  0  0  0  0  0  0  0  0
   -0.3793    4.2679    0.2620 H   0  0  0  0  0  0  0  0  0  0  0  0
   -1.0744    3.4591    1.6871 H   0  0  0  0  0  0  0  0  0  0  0  0
  5  6  2  0  0  0  0
  5  7  1  0  0  0  0
  2  3  1  0  0  0  0
  2  4  1  0  0  0  0
  2  5  1  0  0  0  0
  1  2  1  0  0  0  0
 16 17  2  0  0  0  0
 16 18  1  0  0  0  0
 14 15  1  0  0  0  0
 11 12  1  0  0  0  0
 11 13  1  0  0  0  0
 11 14  1  0  0  0  0
  9 10  1  0  0  0  0
  9 11  1  0  0  0  0
  9 16  1  0  0  0  0
  7  8  1  0  0  0  0
  7  9  1  0  0  0  0
 20 21  1  0  0  0  0
 20 22  1  0  0  0  0
 20 23  1  0  0  0  0
 18 19  1  0  0  0  0
 18 20  1  0  0  0  0
M  END
$$$$
default_name
  -OEChem-01062215323D

 23 22  0     1  0  0  0  0  0999 V2000
   -2.6857   -3.6684    0.8743 H   0  0  0  0  0  0  0  0  0  0  0  0
   -2.6617   -2.6474    0.4953 C   0  0  0  0  0  0  0  0  0  0  0  0
   -3.2657   -2.0054    1.1353 H   0  0  0  0  0  0  0  0  0  0  0  0
   -3.0477   -2.6254   -0.5217 H   0  0  0  0  0  0  0  0  0  0  0  0
   -1.2337   -2.1564    0.4993 C   0  0  0  0  0  0  0  0  0  0  0  0
   -0.3327   -2.8864    0.8893 O   0  0  0  0  0  0  0  0  0  0  0  0
   -1.0277   -0.9164    0.0623 N   0  0  0  0  0  0  0  0  0  0  0  0
   -1.8237   -0.3604   -0.2157 H   0  0  0  0  0  0  0  0  0  0  0  0
    0.2713   -0.2414    0.0463 C   0  0  1  0  0  0  0  0  0  0  0  0
    1.0195   -0.9094    0.4777 H   0  0  0  0  0  0  0  0  0  0  0  0
    0.6569    0.0409   -1.4151 C   0  0  0  0  0  0  0  0  0  0  0  0
   -0.1519    0.5991   -1.8920 H   0  0  0  0  0  0  0  0  0  0  0  0
    1.5649    0.6468   -1.4415 H   0  0  0  0  0  0  0  0  0  0  0  0
    0.9181   -1.5034   -2.3360 S   0  0  0  0  0  0  0  0  0  0  0  0
    1.1079   -0.9485   -3.5391 H   0  0  0  0  0  0  0  0  0  0  0  0
    0.2165    1.0352    0.9101 C   0  0  0  0  0  0  0  0  0  0  0  0
    0.7585    1.0522    2.0157 O   0  0  0  0  0  0  0  0  0  0  0  0
   -0.4247    2.0985    0.4115 N   0  0  0  0  0  0  0  0  0  0  0  0
   -0.8962    1.9820   -0.4737 H   0  0  0  0  0  0  0  0  0  0  0  0
   -0.5571    3.3804    1.1016 C   0  0  0  0  0  0  0  0  0  0  0  0
    0.4216    3.7128    1.4550 H   0  0  0  0  0  0  0  0  0  0  0  0
   -0.9692    4.1313    0.4265 H   0  0  0  0  0  0  0  0  0  0  0  0
   -1.2183    3.2667    1.9623 H   0  0  0  0  0  0  0  0  0  0  0  0
  5  6  2  0  0  0  0
  5  7  1  0  0  0  0
  2  3  1  0  0  0  0
  2  4  1  0  0  0  0
  2  5  1  0  0  0  0
  1  2  1  0  0  0  0
 16 17  2  0  0  0  0
 16 18  1  0  0  0  0
 14 15  1  0  0  0  0
 11 12  1  0  0  0  0
 11 13  1  0  0  0  0
 11 14  1  0  0  0  0
  9 10  1  0  0  0  0
  9 11  1  0  0  0  0
  9 16  1  0  0  0  0
  7  8  1  0  0  0  0
  7  9  1  0  0  0  0
 20 21  1  0  0  0  0
 20 22  1  0  0  0  0
 20 23  1  0  0  0  0
 18 19  1  0  0  0  0
 18 20  1  0  0  0  0
M  END
$$$$
default_name
  -OEChem-01062215323D

 23 22  0     1  0  0  0  0  0999 V2000
   -2.6857   -3.6684    0.8743 H   0  0  0  0  0  0  0  0  0  0  0  0
   -2.6617   -2.6474    0.4953 C   0  0  0  0  0  0  0  0  0  0  0  0
   -3.2657   -2.0054    1.1353 H   0  0  0  0  0  0  0  0  0  0  0  0
   -3.0477   -2.6254   -0.5217 H   0  0  0  0  0  0  0  0  0  0  0  0
   -1.2337   -2.1564    0.4993 C   0  0  0  0  0  0  0  0  0  0  0  0
   -0.3327   -2.8864    0.8893 O   0  0  0  0  0  0  0  0  0  0  0  0
   -1.0277   -0.9164    0.0623 N   0  0  0  0  0  0  0  0  0  0  0  0
   -1.8237   -0.3604   -0.2157 H   0  0  0  0  0  0  0  0  0  0  0  0
    0.2713   -0.2414    0.0463 C   0  0  1  0  0  0  0  0  0  0  0  0
    1.0195   -0.9094    0.4777 H   0  0  0  0  0  0  0  0  0  0  0  0
    0.6569    0.0409   -1.4151 C   0  0  0  0  0  0  0  0  0  0  0  0
   -0.1519    0.5991   -1.8920 H   0  0  0  0  0  0  0  0  0  0  0  0
    1.5649    0.6468   -1.4415 H   0  0  0  0  0  0  0  0  0  0  0  0
    0.9181   -1.5034   -2.3360 S   0  0  0  0  0  0  0  0  0  0  0  0
    1.1079   -0.9485   -3.5391 H   0  0  0  0  0  0  0  0  0  0  0  0
    0.2165    1.0352    0.9101 C   0  0  0  0  0  0  0  0  0  0  0  0
    0.9736    1.1577    1.8735 O   0  0  0  0  0  0  0  0  0  0  0  0
   -0.6645    1.9824    0.5680 N   0  0  0  0  0  0  0  0  0  0  0  0
   -1.2921    1.7771   -0.1960 H   0  0  0  0  0  0  0  0  0  0  0  0
   -0.8322    3.2487    1.2788 C   0  0  0  0  0  0  0  0  0  0  0  0
    0.1402    3.7272    1.4159 H   0  0  0  0  0  0  0  0  0  0  0  0
   -1.4841    3.9153    0.7130 H   0  0  0  0  0  0  0  0  0  0  0  0
   -1.2705    3.0625    2.2607 H   0  0  0  0  0  0  0  0  0  0  0  0
  5  6  2  0  0  0  0
  5  7  1  0  0  0  0
  2  3  1  0  0  0  0
  2  4  1  0  0  0  0
  2  5  1  0  0  0  0
  1  2  1  0  0  0  0
 16 17  2  0  0  0  0
 16 18  1  0  0  0  0
 14 15  1  0  0  0  0
 11 12  1  0  0  0  0
 11 13  1  0  0  0  0
 11 14  1  0  0  0  0
  9 10  1  0  0  0  0
  9 11  1  0  0  0  0
  9 16  1  0  0  0  0
  7  8  1  0  0  0  0
  7  9  1  0  0  0  0
 20 21  1  0  0  0  0
 20 22  1  0  0  0  0
 20 23  1  0  0  0  0
 18 19  1  0  0  0  0
 18 20  1  0  0  0  0
M  END
$$$$
default_name
  -OEChem-01062215323D

 23 22  0     1  0  0  0  0  0999 V2000
   -2.6857   -3.6684    0.8743 H   0  0  0  0  0  0  0  0  0  0  0  0
   -2.6617   -2.6474    0.4953 C   0  0  0  0  0  0  0  0  0  0  0  0
   -3.2657   -2.0054    1.1353 H   0  0  0  0  0  0  0  0  0  0  0  0
   -3.0477   -2.6254   -0.5217 H   0  0  0  0  0  0  0  0  0  0  0  0
   -1.2337   -2.1564    0.4993 C   0  0  0  0  0  0  0  0  0  0  0  0
   -0.3327   -2.8864    0.8893 O   0  0  0  0  0  0  0  0  0  0  0  0
   -1.0277   -0.9164    0.0623 N   0  0  0  0  0  0  0  0  0  0  0  0
   -1.8237   -0.3604   -0.2157 H   0  0  0  0  0  0  0  0  0  0  0  0
    0.2713   -0.2414    0.0463 C   0  0  1  0  0  0  0  0  0  0  0  0
    1.0195   -0.9094    0.4777 H   0  0  0  0  0  0  0  0  0  0  0  0
    0.6569    0.0409   -1.4151 C   0  0  0  0  0  0  0  0  0  0  0  0
   -0.1519    0.5991   -1.8920 H   0  0  0  0  0  0  0  0  0  0  0  0
    1.5649    0.6468   -1.4415 H   0  0  0  0  0  0  0  0  0  0  0  0
    0.9181   -1.5034   -2.3360 S   0  0  0  0  0  0  0  0  0  0  0  0
    1.1079   -0.9485   -3.5391 H   0  0  0  0  0  0  0  0  0  0  0  0
    0.2165    1.0352    0.9101 C   0  0  0  0  0  0  0  0  0  0  0  0
    1.1357    1.2894    1.6891 O   0  0  0  0  0  0  0  0  0  0  0  0
   -0.8458    1.8368    0.7716 N   0  0  0  0  0  0  0  0  0  0  0  0
   -1.5852    1.5243    0.1590 H   0  0  0  0  0  0  0  0  0  0  0  0
   -1.0408    3.0832    1.5101 C   0  0  0  0  0  0  0  0  0  0  0  0
   -0.1422    3.7000    1.4382 H   0  0  0  0  0  0  0  0  0  0  0  0
   -1.8887    3.6347    1.1020 H   0  0  0  0  0  0  0  0  0  0  0  0
   -1.2274    2.8605    2.5621 H   0  0  0  0  0  0  0  0  0  0  0  0
  5  6  2  0  0  0  0
  5  7  1  0  0  0  0
  2  3  1  0  0  0  0
  2  4  1  0  0  0  0
  2  5  1  0  0  0  0
  1  2  1  0  0  0  0
 16 17  2  0  0  0  0
 16 18  1  0  0  0  0
 14 15  1  0  0  0  0
 11 12  1  0  0  0  0
 11 13  1  0  0  0  0
 11 14  1  0  0  0  0
  9 10  1  0  0  0  0
  9 11  1  0  0  0  0
  9 16  1  0  0  0  0
  7  8  1  0  0  0  0
  7  9  1  0  0  0  0
 20 21  1  0  0  0  0
 20 22  1  0  0  0  0
 20 23  1  0  0  0  0
 18 19  1  0  0  0  0
 18 20  1  0  0  0  0
M  END
$$$$
default_name
  -OEChem-01062215323D

 23 22  0     1  0  0  0  0  0999 V2000
   -2.6857   -3.6684    0.8743 H   0  0  0  0  0  0  0  0  0  0  0  0
   -2.6617   -2.6474    0.4953 C   0  0  0  0  0  0  0  0  0  0  0  0
   -3.2657   -2.0054    1.1353 H   0  0  0  0  0  0  0  0  0  0  0  0
   -3.0477   -2.6254   -0.5217 H   0  0  0  0  0  0  0  0  0  0  0  0
   -1.2337   -2.1564    0.4993 C   0  0  0  0  0  0  0  0  0  0  0  0
   -0.3327   -2.8864    0.8893 O   0  0  0  0  0  0  0  0  0  0  0  0
   -1.0277   -0.9164    0.0623 N   0  0  0  0  0  0  0  0  0  0  0  0
   -1.8237   -0.3604   -0.2157 H   0  0  0  0  0  0  0  0  0  0  0  0
    0.2713   -0.2414    0.0463 C   0  0  1  0  0  0  0  0  0  0  0  0
    1.0195   -0.9094    0.4777 H   0  0  0  0  0  0  0  0  0  0  0  0
    0.6569    0.0409   -1.4151 C   0  0  0  0  0  0  0  0  0  0  0  0
   -0.1519    0.5991   -1.8920 H   0  0  0  0  0  0  0  0  0  0  0  0
    1.5649    0.6468   -1.4415 H   0  0  0  0  0  0  0  0  0  0  0  0
    0.9181   -1.5034   -2.3360 S   0  0  0  0  0  0  0  0  0  0  0  0
    1.1079   -0.9485   -3.5391 H   0  0  0  0  0  0  0  0  0  0  0  0
    0.2165    1.0352    0.9101 C   0  0  0  0  0  0  0  0  0  0  0  0
    1.2337    1.4385    1.4750 O   0  0  0  0  0  0  0  0  0  0  0  0
   -0.9563    1.6718    1.0084 N   0  0  0  0  0  0  0  0  0  0  0  0
   -1.7557    1.2409    0.5670 H   0  0  0  0  0  0  0  0  0  0  0  0
   -1.1688    2.8952    1.7798 C   0  0  0  0  0  0  0  0  0  0  0  0
   -0.4061    3.6329    1.5205 H   0  0  0  0  0  0  0  0  0  0  0  0
   -2.1554    3.3085    1.5671 H   0  0  0  0  0  0  0  0  0  0  0  0
   -1.0919    2.6744    2.8457 H   0  0  0  0  0  0  0  0  0  0  0  0
  5  6  2  0  0  0  0
  5  7  1  0  0  0  0
  2  3  1  0  0  0  0
  2  4  1  0  0  0  0
  2  5  1  0  0  0  0
  1  2  1  0  0  0  0
 16 17  2  0  0  0  0
 16 18  1  0  0  0  0
 14 15  1  0  0  0  0
 11 12  1  0  0  0  0
 11 13  1  0  0  0  0
 11 14  1  0  0  0  0
  9 10  1  0  0  0  0
  9 11  1  0  0  0  0
  9 16  1  0  0  0  0
  7  8  1  0  0  0  0
  7  9  1  0  0  0  0
 20 21  1  0  0  0  0
 20 22  1  0  0  0  0
 20 23  1  0  0  0  0
 18 19  1  0  0  0  0
 18 20  1  0  0  0  0
M  END
$$$$
default_name
  -OEChem-01062215323D

 23 22  0     1  0  0  0  0  0999 V2000
   -2.6857   -3.6684    0.8743 H   0  0  0  0  0  0  0  0  0  0  0  0
   -2.6617   -2.6474    0.4953 C   0  0  0  0  0  0  0  0  0  0  0  0
   -3.2657   -2.0054    1.1353 H   0  0  0  0  0  0  0  0  0  0  0  0
   -3.0477   -2.6254   -0.5217 H   0  0  0  0  0  0  0  0  0  0  0  0
   -1.2337   -2.1564    0.4993 C   0  0  0  0  0  0  0  0  0  0  0  0
   -0.3327   -2.8864    0.8893 O   0  0  0  0  0  0  0  0  0  0  0  0
   -1.0277   -0.9164    0.0623 N   0  0  0  0  0  0  0  0  0  0  0  0
   -1.8237   -0.3604   -0.2157 H   0  0  0  0  0  0  0  0  0  0  0  0
    0.2713   -0.2414    0.0463 C   0  0  1  0  0  0  0  0  0  0  0  0
    1.0195   -0.9094    0.4777 H   0  0  0  0  0  0  0  0  0  0  0  0
    0.6569    0.0409   -1.4151 C   0  0  0  0  0  0  0  0  0  0  0  0
   -0.1519    0.5991   -1.8920 H   0  0  0  0  0  0  0  0  0  0  0  0
    1.5649    0.6468   -1.4415 H   0  0  0  0  0  0  0  0  0  0  0  0
    0.9181   -1.5034   -2.3360 S   0  0  0  0  0  0  0  0  0  0  0  0
    1.1079   -0.9485   -3.5391 H   0  0  0  0  0  0  0  0  0  0  0  0
    0.2165    1.0352    0.9101 C   0  0  0  0  0  0  0  0  0  0  0  0
    1.2608    1.5947    1.2458 O   0  0  0  0  0  0  0  0  0  0  0  0
   -0.9883    1.4987    1.2623 N   0  0  0  0  0  0  0  0  0  0  0  0
   -1.7919    0.9462    1.0002 H   0  0  0  0  0  0  0  0  0  0  0  0
   -1.2075    2.6976    2.0694 C   0  0  0  0  0  0  0  0  0  0  0  0
   -0.6338    3.5307    1.6571 H   0  0  0  0  0  0  0  0  0  0  0  0
   -2.2662    2.9591    2.0764 H   0  0  0  0  0  0  0  0  0  0  0  0
   -0.8732    2.5169    3.0924 H   0  0  0  0  0  0  0  0  0  0  0  0
  5  6  2  0  0  0  0
  5  7  1  0  0  0  0
  2  3  1  0  0  0  0
  2  4  1  0  0  0  0
  2  5  1  0  0  0  0
  1  2  1  0  0  0  0
 16 17  2  0  0  0  0
 16 18  1  0  0  0  0
 14 15  1  0  0  0  0
 11 12  1  0  0  0  0
 11 13  1  0  0  0  0
 11 14  1  0  0  0  0
  9 10  1  0  0  0  0
  9 11  1  0  0  0  0
  9 16  1  0  0  0  0
  7  8  1  0  0  0  0
  7  9  1  0  0  0  0
 20 21  1  0  0  0  0
 20 22  1  0  0  0  0
 20 23  1  0  0  0  0
 18 19  1  0  0  0  0
 18 20  1  0  0  0  0
M  END
$$$$
default_name
  -OEChem-01062215323D

 23 22  0     1  0  0  0  0  0999 V2000
   -2.6857   -3.6684    0.8743 H   0  0  0  0  0  0  0  0  0  0  0  0
   -2.6617   -2.6474    0.4953 C   0  0  0  0  0  0  0  0  0  0  0  0
   -3.2657   -2.0054    1.1353 H   0  0  0  0  0  0  0  0  0  0  0  0
   -3.0477   -2.6254   -0.5217 H   0  0  0  0  0  0  0  0  0  0  0  0
   -1.2337   -2.1564    0.4993 C   0  0  0  0  0  0  0  0  0  0  0  0
   -0.3327   -2.8864    0.8893 O   0  0  0  0  0  0  0  0  0  0  0  0
   -1.0277   -0.9164    0.0623 N   0  0  0  0  0  0  0  0  0  0  0  0
   -1.8237   -0.3604   -0.2157 H   0  0  0  0  0  0  0  0  0  0  0  0
    0.2713   -0.2414    0.0463 C   0  0  1  0  0  0  0  0  0  0  0  0
    1.0195   -0.9094    0.4777 H   0  0  0  0  0  0  0  0  0  0  0  0
    0.6569    0.0409   -1.4151 C   0  0  0  0  0  0  0  0  0  0  0  0
   -0.1519    0.5991   -1.8920 H   0  0  0  0  0  0  0  0  0  0  0  0
    1.5649    0.6468   -1.4415 H   0  0  0  0  0  0  0  0  0  0  0  0
    0.9181   -1.5034   -2.3360 S   0  0  0  0  0  0  0  0  0  0  0  0
    1.1079   -0.9485   -3.5391 H   0  0  0  0  0  0  0  0  0  0  0  0
    0.2165    1.0352    0.9101 C   0  0  0  0  0  0  0  0  0  0  0  0
    1.2153    1.7474    1.0172 O   0  0  0  0  0  0  0  0  0  0  0  0
   -0.9397    1.3291    1.5160 N   0  0  0  0  0  0  0  0  0  0  0  0
   -1.6913    0.6604    1.4291 H   0  0  0  0  0  0  0  0  0  0  0  0
   -1.1541    2.5037    2.3592 C   0  0  0  0  0  0  0  0  0  0  0  0
   -0.8095    3.4002    1.8388 H   0  0  0  0  0  0  0  0  0  0  0  0
   -2.2135    2.6103    2.5954 H   0  0  0  0  0  0  0  0  0  0  0  0
   -0.5864    2.3986    3.2854 H   0  0  0  0  0  0  0  0  0  0  0  0
  5  6  2  0  0  0  0
  5  7  1  0  0  0  0
  2  3  1  0  0  0  0
  2  4  1  0  0  0  0
  2  5  1  0  0  0  0
  1  2  1  0  0  0  0
 16 17  2  0  0  0  0
 16 18  1  0  0  0  0
 14 15  1  0  0  0  0
 11 12  1  0  0  0  0
 11 13  1  0  0  0  0
 11 14  1  0  0  0  0
  9 10  1  0  0  0  0
  9 11  1  0  0  0  0
  9 16  1  0  0  0  0
  7  8  1  0  0  0  0
  7  9  1  0  0  0  0
 20 21  1  0  0  0  0
 20 22  1  0  0  0  0
 20 23  1  0  0  0  0
 18 19  1  0  0  0  0
 18 20  1  0  0  0  0
M  END
$$$$
default_name
  -OEChem-01062215323D

 23 22  0     1  0  0  0  0  0999 V2000
   -2.6857   -3.6684    0.8743 H   0  0  0  0  0  0  0  0  0  0  0  0
   -2.6617   -2.6474    0.4953 C   0  0  0  0  0  0  0  0  0  0  0  0
   -3.2657   -2.0054    1.1353 H   0  0  0  0  0  0  0  0  0  0  0  0
   -3.0477   -2.6254   -0.5217 H   0  0  0  0  0  0  0  0  0  0  0  0
   -1.2337   -2.1564    0.4993 C   0  0  0  0  0  0  0  0  0  0  0  0
   -0.3327   -2.8864    0.8893 O   0  0  0  0  0  0  0  0  0  0  0  0
   -1.0277   -0.9164    0.0623 N   0  0  0  0  0  0  0  0  0  0  0  0
   -1.8237   -0.3604   -0.2157 H   0  0  0  0  0  0  0  0  0  0  0  0
    0.2713   -0.2414    0.0463 C   0  0  1  0  0  0  0  0  0  0  0  0
    1.0195   -0.9094    0.4777 H   0  0  0  0  0  0  0  0  0  0  0  0
    0.6569    0.0409   -1.4151 C   0  0  0  0  0  0  0  0  0  0  0  0
   -0.1519    0.5991   -1.8920 H   0  0  0  0  0  0  0  0  0  0  0  0
    1.5649    0.6468   -1.4415 H   0  0  0  0  0  0  0  0  0  0  0  0
    0.9181   -1.5034   -2.3360 S   0  0  0  0  0  0  0  0  0  0  0  0
    1.1079   -0.9485   -3.5391 H   0  0  0  0  0  0  0  0  0  0  0  0
    0.2165    1.0352    0.9101 C   0  0  0  0  0  0  0  0  0  0  0  0
    1.1002    1.8863    0.8048 O   0  0  0  0  0  0  0  0  0  0  0  0
   -0.8139    1.1746    1.7523 N   0  0  0  0  0  0  0  0  0  0  0  0
   -1.4609    0.4027    1.8244 H   0  0  0  0  0  0  0  0  0  0  0  0
   -1.0123    2.3269    2.6296 C   0  0  0  0  0  0  0  0  0  0  0  0
   -0.9215    3.2504    2.0531 H   0  0  0  0  0  0  0  0  0  0  0  0
   -2.0008    2.2857    3.0885 H   0  0  0  0  0  0  0  0  0  0  0  0
   -0.2508    2.3278    3.4113 H   0  0  0  0  0  0  0  0  0  0  0  0
  5  6  2  0  0  0  0
  5  7  1  0  0  0  0
  2  3  1  0  0  0  0
  2  4  1  0  0  0  0
  2  5  1  0  0  0  0
  1  2  1  0  0  0  0
 16 17  2  0  0  0  0
 16 18  1  0  0  0  0
 14 15  1  0  0  0  0
 11 12  1  0  0  0  0
 11 13  1  0  0  0  0
 11 14  1  0  0  0  0
  9 10  1  0  0  0  0
  9 11  1  0  0  0  0
  9 16  1  0  0  0  0
  7  8  1  0  0  0  0
  7  9  1  0  0  0  0
 20 21  1  0  0  0  0
 20 22  1  0  0  0  0
 20 23  1  0  0  0  0
 18 19  1  0  0  0  0
 18 20  1  0  0  0  0
M  END
$$$$
default_name
  -OEChem-01062215323D

 23 22  0     1  0  0  0  0  0999 V2000
   -2.6857   -3.6684    0.8743 H   0  0  0  0  0  0  0  0  0  0  0  0
   -2.6617   -2.6474    0.4953 C   0  0  0  0  0  0  0  0  0  0  0  0
   -3.2657   -2.0054    1.1353 H   0  0  0  0  0  0  0  0  0  0  0  0
   -3.0477   -2.6254   -0.5217 H   0  0  0  0  0  0  0  0  0  0  0  0
   -1.2337   -2.1564    0.4993 C   0  0  0  0  0  0  0  0  0  0  0  0
   -0.3327   -2.8864    0.8893 O   0  0  0  0  0  0  0  0  0  0  0  0
   -1.0277   -0.9164    0.0623 N   0  0  0  0  0  0  0  0  0  0  0  0
   -1.8237   -0.3604   -0.2157 H   0  0  0  0  0  0  0  0  0  0  0  0
    0.2713   -0.2414    0.0463 C   0  0  1  0  0  0  0  0  0  0  0  0
    1.0195   -0.9094    0.4777 H   0  0  0  0  0  0  0  0  0  0  0  0
    0.6569    0.0409   -1.4151 C   0  0  0  0  0  0  0  0  0  0  0  0
   -0.1519    0.5991   -1.8920 H   0  0  0  0  0  0  0  0  0  0  0  0
    1.5649    0.6468   -1.4415 H   0  0  0  0  0  0  0  0  0  0  0  0
    0.9181   -1.5034   -2.3360 S   0  0  0  0  0  0  0  0  0  0  0  0
    1.1079   -0.9485   -3.5391 H   0  0  0  0  0  0  0  0  0  0  0  0
    0.2165    1.0352    0.9101 C   0  0  0  0  0  0  0  0  0  0  0  0
    0.9235    2.0017    0.6229 O   0  0  0  0  0  0  0  0  0  0  0  0
   -0.6193    1.0459    1.9549 N   0  0  0  0  0  0  0  0  0  0  0  0
   -1.1162    0.1909    2.1594 H   0  0  0  0  0  0  0  0  0  0  0  0
   -0.7919    2.1792    2.8619 C   0  0  0  0  0  0  0  0  0  0  0  0
   -0.9620    3.0914    2.2856 H   0  0  0  0  0  0  0  0  0  0  0  0
   -1.6427    2.0076    3.5223 H   0  0  0  0  0  0  0  0  0  0  0  0
    0.1105    2.3092    3.4618 H   0  0  0  0  0  0  0  0  0  0  0  0
  5  6  2  0  0  0  0
  5  7  1  0  0  0  0
  2  3  1  0  0  0  0
  2  4  1  0  0  0  0
  2  5  1  0  0  0  0
  1  2  1  0  0  0  0
 16 17  2  0  0  0  0
 16 18  1  0  0  0  0
 14 15  1  0  0  0  0
 11 12  1  0  0  0  0
 11 13  1  0  0  0  0
 11 14  1  0  0  0  0
  9 10  1  0  0  0  0
  9 11  1  0  0  0  0
  9 16  1  0  0  0  0
  7  8  1  0  0  0  0
  7  9  1  0  0  0  0
 20 21  1  0  0  0  0
 20 22  1  0  0  0  0
 20 23  1  0  0  0  0
 18 19  1  0  0  0  0
 18 20  1  0  0  0  0
M  END
$$$$
default_name
  -OEChem-01062215323D

 23 22  0     1  0  0  0  0  0999 V2000
   -2.6857   -3.6684    0.8743 H   0  0  0  0  0  0  0  0  0  0  0  0
   -2.6617   -2.6474    0.4953 C   0  0  0  0  0  0  0  0  0  0  0  0
   -3.2657   -2.0054    1.1353 H   0  0  0  0  0  0  0  0  0  0  0  0
   -3.0477   -2.6254   -0.5217 H   0  0  0  0  0  0  0  0  0  0  0  0
   -1.2337   -2.1564    0.4993 C   0  0  0  0  0  0  0  0  0  0  0  0
   -0.3327   -2.8864    0.8893 O   0  0  0  0  0  0  0  0  0  0  0  0
   -1.0277   -0.9164    0.0623 N   0  0  0  0  0  0  0  0  0  0  0  0
   -1.8237   -0.3604   -0.2157 H   0  0  0  0  0  0  0  0  0  0  0  0
    0.2713   -0.2414    0.0463 C   0  0  1  0  0  0  0  0  0  0  0  0
    1.0195   -0.9094    0.4777 H   0  0  0  0  0  0  0  0  0  0  0  0
    0.6569    0.0409   -1.4151 C   0  0  0  0  0  0  0  0  0  0  0  0
   -0.1519    0.5991   -1.8920 H   0  0  0  0  0  0  0  0  0  0  0  0
    1.5649    0.6468   -1.4415 H   0  0  0  0  0  0  0  0  0  0  0  0
    0.9181   -1.5034   -2.3360 S   0  0  0  0  0  0  0  0  0  0  0  0
    1.1079   -0.9485   -3.5391 H   0  0  0  0  0  0  0  0  0  0  0  0
    0.2165    1.0352    0.9101 C   0  0  0  0  0  0  0  0  0  0  0  0
    0.6970    2.0859    0.4841 O   0  0  0  0  0  0  0  0  0  0  0  0
   -0.3693    0.9516    2.1102 N   0  0  0  0  0  0  0  0  0  0  0  0
   -0.6809    0.0394    2.4110 H   0  0  0  0  0  0  0  0  0  0  0  0
   -0.5077    2.0705    3.0405 C   0  0  0  0  0  0  0  0  0  0  0  0
   -0.9283    2.9340    2.5202 H   0  0  0  0  0  0  0  0  0  0  0  0
   -1.1635    1.7948    3.8672 H   0  0  0  0  0  0  0  0  0  0  0  0
    0.4731    2.3441    3.4333 H   0  0  0  0  0  0  0  0  0  0  0  0
  5  6  2  0  0  0  0
  5  7  1  0  0  0  0
  2  3  1  0  0  0  0
  2  4  1  0  0  0  0
  2  5  1  0  0  0  0
  1  2  1  0  0  0  0
 16 17  2  0  0  0  0
 16 18  1  0  0  0  0
 14 15  1  0  0  0  0
 11 12  1  0  0  0  0
 11 13  1  0  0  0  0
 11 14  1  0  0  0  0
  9 10  1  0  0  0  0
  9 11  1  0  0  0  0
  9 16  1  0  0  0  0
  7  8  1  0  0  0  0
  7  9  1  0  0  0  0
 20 21  1  0  0  0  0
 20 22  1  0  0  0  0
 20 23  1  0  0  0  0
 18 19  1  0  0  0  0
 18 20  1  0  0  0  0
M  END
$$$$
default_name
  -OEChem-01062215323D

 23 22  0     1  0  0  0  0  0999 V2000
   -2.6857   -3.6684    0.8743 H   0  0  0  0  0  0  0  0  0  0  0  0
   -2.6617   -2.6474    0.4953 C   0  0  0  0  0  0  0  0  0  0  0  0
   -3.2657   -2.0054    1.1353 H   0  0  0  0  0  0  0  0  0  0  0  0
   -3.0477   -2.6254   -0.5217 H   0  0  0  0  0  0  0  0  0  0  0  0
   -1.2337   -2.1564    0.4993 C   0  0  0  0  0  0  0  0  0  0  0  0
   -0.3327   -2.8864    0.8893 O   0  0  0  0  0  0  0  0  0  0  0  0
   -1.0277   -0.9164    0.0623 N   0  0  0  0  0  0  0  0  0  0  0  0
   -1.8237   -0.3604   -0.2157 H   0  0  0  0  0  0  0  0  0  0  0  0
    0.2713   -0.2414    0.0463 C   0  0  1  0  0  0  0  0  0  0  0  0
    1.0195   -0.9094    0.4777 H   0  0  0  0  0  0  0  0  0  0  0  0
    0.6569    0.0409   -1.4151 C   0  0  0  0  0  0  0  0  0  0  0  0
   -0.1519    0.5991   -1.8920 H   0  0  0  0  0  0  0  0  0  0  0  0
    1.5649    0.6468   -1.4415 H   0  0  0  0  0  0  0  0  0  0  0  0
    0.9181   -1.5034   -2.3360 S   0  0  0  0  0  0  0  0  0  0  0  0
    1.1079   -0.9485   -3.5391 H   0  0  0  0  0  0  0  0  0  0  0  0
    0.2165    1.0352    0.9101 C   0  0  0  0  0  0  0  0  0  0  0  0
    0.4363    2.1332    0.3977 O   0  0  0  0  0  0  0  0  0  0  0  0
   -0.0809    0.8981    2.2075 N   0  0  0  0  0  0  0  0  0  0  0  0
   -0.1845   -0.0416    2.5622 H   0  0  0  0  0  0  0  0  0  0  0  0
   -0.1792    2.0084    3.1531 C   0  0  0  0  0  0  0  0  0  0  0  0
   -0.8226    2.7891    2.7411 H   0  0  0  0  0  0  0  0  0  0  0  0
   -0.5960    1.6620    4.0996 H   0  0  0  0  0  0  0  0  0  0  0  0
    0.8121    2.4301    3.3278 H   0  0  0  0  0  0  0  0  0  0  0  0
  5  6  2  0  0  0  0
  5  7  1  0  0  0  0
  2  3  1  0  0  0  0
  2  4  1  0  0  0  0
  2  5  1  0  0  0  0
  1  2  1  0  0  0  0
 16 17  2  0  0  0  0
 16 18  1  0  0  0  0
 14 15  1  0  0  0  0
 11 12  1  0  0  0  0
 11 13  1  0  0  0  0
 11 14  1  0  0  0  0
  9 10  1  0  0  0  0
  9 11  1  0  0  0  0
  9 16  1  0  0  0  0
  7  8  1  0  0  0  0
  7  9  1  0  0  0  0
 20 21  1  0  0  0  0
 20 22  1  0  0  0  0
 20 23  1  0  0  0  0
 18 19  1  0  0  0  0
 18 20  1  0  0  0  0
M  END
$$$$
default_name
  -OEChem-01062215323D

 23 22  0     1  0  0  0  0  0999 V2000
   -2.6857   -3.6684    0.8743 H   0  0  0  0  0  0  0  0  0  0  0  0
   -2.6617   -2.6474    0.4953 C   0  0  0  0  0  0  0  0  0  0  0  0
   -3.2657   -2.0054    1.1353 H   0  0  0  0  0  0  0  0  0  0  0  0
   -3.0477   -2.6254   -0.5217 H   0  0  0  0  0  0  0  0  0  0  0  0
   -1.2337   -2.1564    0.4993 C   0  0  0  0  0  0  0  0  0  0  0  0
   -0.3327   -2.8864    0.8893 O   0  0  0  0  0  0  0  0  0  0  0  0
   -1.0277   -0.9164    0.0623 N   0  0  0  0  0  0  0  0  0  0  0  0
   -1.8237   -0.3604   -0.2157 H   0  0  0  0  0  0  0  0  0  0  0  0
    0.2713   -0.2414    0.0463 C   0  0  1  0  0  0  0  0  0  0  0  0
    1.0195   -0.9094    0.4777 H   0  0  0  0  0  0  0  0  0  0  0  0
    0.6569    0.0409   -1.4151 C   0  0  0  0  0  0  0  0  0  0  0  0
   -0.1519    0.5991   -1.8920 H   0  0  0  0  0  0  0  0  0  0  0  0
    1.5649    0.6468   -1.4415 H   0  0  0  0  0  0  0  0  0  0  0  0
    0.9181   -1.5034   -2.3360 S   0  0  0  0  0  0  0  0  0  0  0  0
    1.1079   -0.9485   -3.5391 H   0  0  0  0  0  0  0  0  0  0  0  0
    0.2165    1.0352    0.9101 C   0  0  0  0  0  0  0  0  0  0  0  0
    0.1592    2.1402    0.3697 O   0  0  0  0  0  0  0  0  0  0  0  0
    0.2263    0.8892    2.2401 N   0  0  0  0  0  0  0  0  0  0  0  0
    0.3391   -0.0464    2.6026 H   0  0  0  0  0  0  0  0  0  0  0  0
    0.1712    1.9971    3.1921 C   0  0  0  0  0  0  0  0  0  0  0  0
   -0.6523    2.6665    2.9331 H   0  0  0  0  0  0  0  0  0  0  0  0
    0.0213    1.6180    4.2037 H   0  0  0  0  0  0  0  0  0  0  0  0
    1.1045    2.5613    3.1524 H   0  0  0  0  0  0  0  0  0  0  0  0
  5  6  2  0  0  0  0
  5  7  1  0  0  0  0
  2  3  1  0  0  0  0
  2  4  1  0  0  0  0
  2  5  1  0  0  0  0
  1  2  1  0  0  0  0
 16 17  2  0  0  0  0
 16 18  1  0  0  0  0
 14 15  1  0  0  0  0
 11 12  1  0  0  0  0
 11 13  1  0  0  0  0
 11 14  1  0  0  0  0
  9 10  1  0  0  0  0
  9 11  1  0  0  0  0
  9 16  1  0  0  0  0
  7  8  1  0  0  0  0
  7  9  1  0  0  0  0
 20 21  1  0  0  0  0
 20 22  1  0  0  0  0
 20 23  1  0  0  0  0
 18 19  1  0  0  0  0
 18 20  1  0  0  0  0
M  END
$$$$
default_name
  -OEChem-01062215323D

 23 22  0     1  0  0  0  0  0999 V2000
   -2.6857   -3.6684    0.8743 H   0  0  0  0  0  0  0  0  0  0  0  0
   -2.6617   -2.6474    0.4953 C   0  0  0  0  0  0  0  0  0  0  0  0
   -3.2657   -2.0054    1.1353 H   0  0  0  0  0  0  0  0  0  0  0  0
   -3.0477   -2.6254   -0.5217 H   0  0  0  0  0  0  0  0  0  0  0  0
   -1.2337   -2.1564    0.4993 C   0  0  0  0  0  0  0  0  0  0  0  0
   -0.3327   -2.8864    0.8893 O   0  0  0  0  0  0  0  0  0  0  0  0
   -1.0277   -0.9164    0.0623 N   0  0  0  0  0  0  0  0  0  0  0  0
   -1.8237   -0.3604   -0.2157 H   0  0  0  0  0  0  0  0  0  0  0  0
    0.2713   -0.2414    0.0463 C   0  0  1  0  0  0  0  0  0  0  0  0
    1.0195   -0.9094    0.4777 H   0  0  0  0  0  0  0  0  0  0  0  0
    0.6569    0.0409   -1.4151 C   0  0  0  0  0  0  0  0  0  0  0  0
   -0.1519    0.5991   -1.8920 H   0  0  0  0  0  0  0  0  0  0  0  0
    1.5649    0.6468   -1.4415 H   0  0  0  0  0  0  0  0  0  0  0  0
    0.9181   -1.5034   -2.3360 S   0  0  0  0  0  0  0  0  0  0  0  0
    1.1079   -0.9485   -3.5391 H   0  0  0  0  0  0  0  0  0  0  0  0
    0.2165    1.0352    0.9101 C   0  0  0  0  0  0  0  0  0  0  0  0
   -0.1156    2.1066    0.4019 O   0  0  0  0  0  0  0  0  0  0  0  0
    0.5312    0.9254    2.2060 N   0  0  0  0  0  0  0  0  0  0  0  0
    0.8542    0.0251    2.5295 H   0  0  0  0  0  0  0  0  0  0  0  0
    0.5196    2.0373    3.1549 C   0  0  0  0  0  0  0  0  0  0  0  0
   -0.4288    2.5745    3.0833 H   0  0  0  0  0  0  0  0  0  0  0  0
    0.6462    1.6660    4.1725 H   0  0  0  0  0  0  0  0  0  0  0  0
    1.3304    2.7288    2.9192 H   0  0  0  0  0  0  0  0  0  0  0  0
  5  6  2  0  0  0  0
  5  7  1  0  0  0  0
  2  3  1  0  0  0  0
  2  4  1  0  0  0  0
  2  5  1  0  0  0  0
  1  2  1  0  0  0  0
 16 17  2  0  0  0  0
 16 18  1  0  0  0  0
 14 15  1  0  0  0  0
 11 12  1  0  0  0  0
 11 13  1  0  0  0  0
 11 14  1  0  0  0  0
  9 10  1  0  0  0  0
  9 11  1  0  0  0  0
  9 16  1  0  0  0  0
  7  8  1  0  0  0  0
  7  9  1  0  0  0  0
 20 21  1  0  0  0  0
 20 22  1  0  0  0  0
 20 23  1  0  0  0  0
 18 19  1  0  0  0  0
 18 20  1  0  0  0  0
M  END
$$$$
default_name
  -OEChem-01062215323D

 23 22  0     1  0  0  0  0  0999 V2000
   -2.6857   -3.6684    0.8743 H   0  0  0  0  0  0  0  0  0  0  0  0
   -2.6617   -2.6474    0.4953 C   0  0  0  0  0  0  0  0  0  0  0  0
   -3.2657   -2.0054    1.1353 H   0  0  0  0  0  0  0  0  0  0  0  0
   -3.0477   -2.6254   -0.5217 H   0  0  0  0  0  0  0  0  0  0  0  0
   -1.2337   -2.1564    0.4993 C   0  0  0  0  0  0  0  0  0  0  0  0
   -0.3327   -2.8864    0.8893 O   0  0  0  0  0  0  0  0  0  0  0  0
   -1.0277   -0.9164    0.0623 N   0  0  0  0  0  0  0  0  0  0  0  0
   -1.8237   -0.3604   -0.2157 H   0  0  0  0  0  0  0  0  0  0  0  0
    0.2713   -0.2414    0.0463 C   0  0  1  0  0  0  0  0  0  0  0  0
    1.0195   -0.9094    0.4777 H   0  0  0  0  0  0  0  0  0  0  0  0
    0.6569    0.0409   -1.4151 C   0  0  0  0  0  0  0  0  0  0  0  0
   -0.1519    0.5991   -1.8920 H   0  0  0  0  0  0  0  0  0  0  0  0
    1.5649    0.6468   -1.4415 H   0  0  0  0  0  0  0  0  0  0  0  0
    0.9181   -1.5034   -2.3360 S   0  0  0  0  0  0  0  0  0  0  0  0
    1.1079   -0.9485   -3.5391 H   0  0  0  0  0  0  0  0  0  0  0  0
    0.2165    1.0352    0.9101 C   0  0  0  0  0  0  0  0  0  0  0  0
   -0.3692    2.0346    0.4922 O   0  0  0  0  0  0  0  0  0  0  0  0
    0.8133    1.0043    2.1073 N   0  0  0  0  0  0  0  0  0  0  0  0
    1.3258    0.1683    2.3480 H   0  0  0  0  0  0  0  0  0  0  0  0
    0.8424    2.1263    3.0438 C   0  0  0  0  0  0  0  0  0  0  0  0
   -0.1675    2.5194    3.1812 H   0  0  0  0  0  0  0  0  0  0  0  0
    1.2362    1.8027    4.0080 H   0  0  0  0  0  0  0  0  0  0  0  0
    1.4743    2.9212    2.6440 H   0  0  0  0  0  0  0  0  0  0  0  0
  5  6  2  0  0  0  0
  5  7  1  0  0  0  0
  2  3  1  0  0  0  0
  2  4  1  0  0  0  0
  2  5  1  0  0  0  0
  1  2  1  0  0  0  0
 16 17  2  0  0  0  0
 16 18  1  0  0  0  0
 14 15  1  0  0  0  0
 11 12  1  0  0  0  0
 11 13  1  0  0  0  0
 11 14  1  0  0  0  0
  9 10  1  0  0  0  0
  9 11  1  0  0  0  0
  9 16  1  0  0  0  0
  7  8  1  0  0  0  0
  7  9  1  0  0  0  0
 20 21  1  0  0  0  0
 20 22  1  0  0  0  0
 20 23  1  0  0  0  0
 18 19  1  0  0  0  0
 18 20  1  0  0  0  0
M  END
$$$$
default_name
  -OEChem-01062215323D

 23 22  0     1  0  0  0  0  0999 V2000
   -2.6857   -3.6684    0.8743 H   0  0  0  0  0  0  0  0  0  0  0  0
   -2.6617   -2.6474    0.4953 C   0  0  0  0  0  0  0  0  0  0  0  0
   -3.2657   -2.0054    1.1353 H   0  0  0  0  0  0  0  0  0  0  0  0
   -3.0477   -2.6254   -0.5217 H   0  0  0  0  0  0  0  0  0  0  0  0
   -1.2337   -2.1564    0.4993 C   0  0  0  0  0  0  0  0  0  0  0  0
   -0.3327   -2.8864    0.8893 O   0  0  0  0  0  0  0  0  0  0  0  0
   -1.0277   -0.9164    0.0623 N   0  0  0  0  0  0  0  0  0  0  0  0
   -1.8237   -0.3604   -0.2157 H   0  0  0  0  0  0  0  0  0  0  0  0
    0.2713   -0.2414    0.0463 C   0  0  1  0  0  0  0  0  0  0  0  0
    1.0195   -0.9094    0.4777 H   0  0  0  0  0  0  0  0  0  0  0  0
    0.6569    0.0409   -1.4151 C   0  0  0  0  0  0  0  0  0  0  0  0
   -0.1519    0.5991   -1.8920 H   0  0  0  0  0  0  0  0  0  0  0  0
    1.5649    0.6468   -1.4415 H   0  0  0  0  0  0  0  0  0  0  0  0
    0.9181   -1.5034   -2.3360 S   0  0  0  0  0  0  0  0  0  0  0  0
    1.1079   -0.9485   -3.5391 H   0  0  0  0  0  0  0  0  0  0  0  0
    0.2165    1.0352    0.9101 C   0  0  0  0  0  0  0  0  0  0  0  0
   -0.5843    1.9291    0.6344 O   0  0  0  0  0  0  0  0  0  0  0  0
    1.0531    1.1205    1.9508 N   0  0  0  0  0  0  0  0  0  0  0  0
    1.7216    0.3732    2.0702 H   0  0  0  0  0  0  0  0  0  0  0  0
    1.1175    2.2581    2.8666 C   0  0  0  0  0  0  0  0  0  0  0  0
    0.1140    2.5050    3.2204 H   0  0  0  0  0  0  0  0  0  0  0  0
    1.7510    2.0187    3.7215 H   0  0  0  0  0  0  0  0  0  0  0  0
    1.5265    3.1254    2.3455 H   0  0  0  0  0  0  0  0  0  0  0  0
  5  6  2  0  0  0  0
  5  7  1  0  0  0  0
  2  3  1  0  0  0  0
  2  4  1  0  0  0  0
  2  5  1  0  0  0  0
  1  2  1  0  0  0  0
 16 17  2  0  0  0  0
 16 18  1  0  0  0  0
 14 15  1  0  0  0  0
 11 12  1  0  0  0  0
 11 13  1  0  0  0  0
 11 14  1  0  0  0  0
  9 10  1  0  0  0  0
  9 11  1  0  0  0  0
  9 16  1  0  0  0  0
  7  8  1  0  0  0  0
  7  9  1  0  0  0  0
 20 21  1  0  0  0  0
 20 22  1  0  0  0  0
 20 23  1  0  0  0  0
 18 19  1  0  0  0  0
 18 20  1  0  0  0  0
M  END
$$$$
default_name
  -OEChem-01062215323D

 23 22  0     1  0  0  0  0  0999 V2000
   -2.6857   -3.6684    0.8743 H   0  0  0  0  0  0  0  0  0  0  0  0
   -2.6617   -2.6474    0.4953 C   0  0  0  0  0  0  0  0  0  0  0  0
   -3.2657   -2.0054    1.1353 H   0  0  0  0  0  0  0  0  0  0  0  0
   -3.0477   -2.6254   -0.5217 H   0  0  0  0  0  0  0  0  0  0  0  0
   -1.2337   -2.1564    0.4993 C   0  0  0  0  0  0  0  0  0  0  0  0
   -0.3327   -2.8864    0.8893 O   0  0  0  0  0  0  0  0  0  0  0  0
   -1.0277   -0.9164    0.0623 N   0  0  0  0  0  0  0  0  0  0  0  0
   -1.8237   -0.3604   -0.2157 H   0  0  0  0  0  0  0  0  0  0  0  0
    0.2713   -0.2414    0.0463 C   0  0  1  0  0  0  0  0  0  0  0  0
    1.0195   -0.9094    0.4777 H   0  0  0  0  0  0  0  0  0  0  0  0
    0.6569    0.0409   -1.4151 C   0  0  0  0  0  0  0  0  0  0  0  0
   -0.1519    0.5991   -1.8920 H   0  0  0  0  0  0  0  0  0  0  0  0
    1.5649    0.6468   -1.4415 H   0  0  0  0  0  0  0  0  0  0  0  0
    0.9181   -1.5034   -2.3360 S   0  0  0  0  0  0  0  0  0  0  0  0
    1.1079   -0.9485   -3.5391 H   0  0  0  0  0  0  0  0  0  0  0  0
    0.2165    1.0352    0.9101 C   0  0  0  0  0  0  0  0  0  0  0  0
   -0.7464    1.7974    0.8189 O   0  0  0  0  0  0  0  0  0  0  0  0
    1.2344    1.2660    1.7473 N   0  0  0  0  0  0  0  0  0  0  0  0
    2.0147    0.6259    1.7153 H   0  0  0  0  0  0  0  0  0  0  0  0
    1.3261    2.4235    2.6353 C   0  0  0  0  0  0  0  0  0  0  0  0
    0.3963    2.5323    3.1981 H   0  0  0  0  0  0  0  0  0  0  0  0
    2.1556    2.2993    3.3324 H   0  0  0  0  0  0  0  0  0  0  0  0
    1.4834    3.3274    2.0442 H   0  0  0  0  0  0  0  0  0  0  0  0
  5  6  2  0  0  0  0
  5  7  1  0  0  0  0
  2  3  1  0  0  0  0
  2  4  1  0  0  0  0
  2  5  1  0  0  0  0
  1  2  1  0  0  0  0
 16 17  2  0  0  0  0
 16 18  1  0  0  0  0
 14 15  1  0  0  0  0
 11 12  1  0  0  0  0
 11 13  1  0  0  0  0
 11 14  1  0  0  0  0
  9 10  1  0  0  0  0
  9 11  1  0  0  0  0
  9 16  1  0  0  0  0
  7  8  1  0  0  0  0
  7  9  1  0  0  0  0
 20 21  1  0  0  0  0
 20 22  1  0  0  0  0
 20 23  1  0  0  0  0
 18 19  1  0  0  0  0
 18 20  1  0  0  0  0
M  END
$$$$
default_name
  -OEChem-01062215323D

 23 22  0     1  0  0  0  0  0999 V2000
   -2.6857   -3.6684    0.8743 H   0  0  0  0  0  0  0  0  0  0  0  0
   -2.6617   -2.6474    0.4953 C   0  0  0  0  0  0  0  0  0  0  0  0
   -3.2657   -2.0054    1.1353 H   0  0  0  0  0  0  0  0  0  0  0  0
   -3.0477   -2.6254   -0.5217 H   0  0  0  0  0  0  0  0  0  0  0  0
   -1.2337   -2.1564    0.4993 C   0  0  0  0  0  0  0  0  0  0  0  0
   -0.3327   -2.8864    0.8893 O   0  0  0  0  0  0  0  0  0  0  0  0
   -1.0277   -0.9164    0.0623 N   0  0  0  0  0  0  0  0  0  0  0  0
   -1.8237   -0.3604   -0.2157 H   0  0  0  0  0  0  0  0  0  0  0  0
    0.2713   -0.2414    0.0463 C   0  0  1  0  0  0  0  0  0  0  0  0
    1.0195   -0.9094    0.4777 H   0  0  0  0  0  0  0  0  0  0  0  0
    0.6569    0.0409   -1.4151 C   0  0  0  0  0  0  0  0  0  0  0  0
   -0.1519    0.5991   -1.8920 H   0  0  0  0  0  0  0  0  0  0  0  0
    1.5649    0.6468   -1.4415 H   0  0  0  0  0  0  0  0  0  0  0  0
    0.9181   -1.5034   -2.3360 S   0  0  0  0  0  0  0  0  0  0  0  0
    1.1079   -0.9485   -3.5391 H   0  0  0  0  0  0  0  0  0  0  0  0
    0.2165    1.0352    0.9101 C   0  0  0  0  0  0  0  0  0  0  0  0
   -0.8444    1.6483    1.0330 O   0  0  0  0  0  0  0  0  0  0  0  0
    1.3449    1.4310    1.5105 N   0  0  0  0  0  0  0  0  0  0  0  0
    2.1852    0.9093    1.3073 H   0  0  0  0  0  0  0  0  0  0  0  0
    1.4541    2.6115    2.3656 C   0  0  0  0  0  0  0  0  0  0  0  0
    0.6602    2.5993    3.1158 H   0  0  0  0  0  0  0  0  0  0  0  0
    2.4224    2.6254    2.8674 H   0  0  0  0  0  0  0  0  0  0  0  0
    1.3479    3.5135    1.7605 H   0  0  0  0  0  0  0  0  0  0  0  0
  5  6  2  0  0  0  0
  5  7  1  0  0  0  0
  2  3  1  0  0  0  0
  2  4  1  0  0  0  0
  2  5  1  0  0  0  0
  1  2  1  0  0  0  0
 16 17  2  0  0  0  0
 16 18  1  0  0  0  0
 14 15  1  0  0  0  0
 11 12  1  0  0  0  0
 11 13  1  0  0  0  0
 11 14  1  0  0  0  0
  9 10  1  0  0  0  0
  9 11  1  0  0  0  0
  9 16  1  0  0  0  0
  7  8  1  0  0  0  0
  7  9  1  0  0  0  0
 20 21  1  0  0  0  0
 20 22  1  0  0  0  0
 20 23  1  0  0  0  0
 18 19  1  0  0  0  0
 18 20  1  0  0  0  0
M  END
$$$$
default_name
  -OEChem-01062215323D

 23 22  0     1  0  0  0  0  0999 V2000
   -2.6857   -3.6684    0.8743 H   0  0  0  0  0  0  0  0  0  0  0  0
   -2.6617   -2.6474    0.4953 C   0  0  0  0  0  0  0  0  0  0  0  0
   -3.2657   -2.0054    1.1353 H   0  0  0  0  0  0  0  0  0  0  0  0
   -3.0477   -2.6254   -0.5217 H   0  0  0  0  0  0  0  0  0  0  0  0
   -1.2337   -2.1564    0.4993 C   0  0  0  0  0  0  0  0  0  0  0  0
   -0.3327   -2.8864    0.8893 O   0  0  0  0  0  0  0  0  0  0  0  0
   -1.0277   -0.9164    0.0623 N   0  0  0  0  0  0  0  0  0  0  0  0
   -1.8237   -0.3604   -0.2157 H   0  0  0  0  0  0  0  0  0  0  0  0
    0.2713   -0.2414    0.0463 C   0  0  1  0  0  0  0  0  0  0  0  0
    1.0195   -0.9094    0.4777 H   0  0  0  0  0  0  0  0  0  0  0  0
    0.6569    0.0409   -1.4151 C   0  0  0  0  0  0  0  0  0  0  0  0
   -0.1519    0.5991   -1.8920 H   0  0  0  0  0  0  0  0  0  0  0  0
    1.5649    0.6468   -1.4415 H   0  0  0  0  0  0  0  0  0  0  0  0
    0.9181   -1.5034   -2.3360 S   0  0  0  0  0  0  0  0  0  0  0  0
    1.1079   -0.9485   -3.5391 H   0  0  0  0  0  0  0  0  0  0  0  0
    0.2165    1.0352    0.9101 C   0  0  0  0  0  0  0  0  0  0  0  0
   -0.8715    1.4921    1.2621 O   0  0  0  0  0  0  0  0  0  0  0  0
    1.3769    1.6042    1.2565 N   0  0  0  0  0  0  0  0  0  0  0  0
    2.2214    1.2040    0.8741 H   0  0  0  0  0  0  0  0  0  0  0  0
    1.4928    2.8091    2.0760 C   0  0  0  0  0  0  0  0  0  0  0  0
    0.8879    2.7015    2.9792 H   0  0  0  0  0  0  0  0  0  0  0  0
    2.5332    2.9748    2.3580 H   0  0  0  0  0  0  0  0  0  0  0  0
    1.1293    3.6710    1.5138 H   0  0  0  0  0  0  0  0  0  0  0  0
  5  6  2  0  0  0  0
  5  7  1  0  0  0  0
  2  3  1  0  0  0  0
  2  4  1  0  0  0  0
  2  5  1  0  0  0  0
  1  2  1  0  0  0  0
 16 17  2  0  0  0  0
 16 18  1  0  0  0  0
 14 15  1  0  0  0  0
 11 12  1  0  0  0  0
 11 13  1  0  0  0  0
 11 14  1  0  0  0  0
  9 10  1  0  0  0  0
  9 11  1  0  0  0  0
  9 16  1  0  0  0  0
  7  8  1  0  0  0  0
  7  9  1  0  0  0  0
 20 21  1  0  0  0  0
 20 22  1  0  0  0  0
 20 23  1  0  0  0  0
 18 19  1  0  0  0  0
 18 20  1  0  0  0  0
M  END
$$$$
default_name
  -OEChem-01062215323D

 23 22  0     1  0  0  0  0  0999 V2000
   -2.6857   -3.6684    0.8743 H   0  0  0  0  0  0  0  0  0  0  0  0
   -2.6617   -2.6474    0.4953 C   0  0  0  0  0  0  0  0  0  0  0  0
   -3.2657   -2.0054    1.1353 H   0  0  0  0  0  0  0  0  0  0  0  0
   -3.0477   -2.6254   -0.5217 H   0  0  0  0  0  0  0  0  0  0  0  0
   -1.2337   -2.1564    0.4993 C   0  0  0  0  0  0  0  0  0  0  0  0
   -0.3327   -2.8864    0.8893 O   0  0  0  0  0  0  0  0  0  0  0  0
   -1.0277   -0.9164    0.0623 N   0  0  0  0  0  0  0  0  0  0  0  0
   -1.8237   -0.3604   -0.2157 H   0  0  0  0  0  0  0  0  0  0  0  0
    0.2713   -0.2414    0.0463 C   0  0  1  0  0  0  0  0  0  0  0  0
    1.0542   -0.9823    0.2202 H   0  0  0  0  0  0  0  0  0  0  0  0
    0.4849    0.3735   -1.3466 C   0  0  0  0  0  0  0  0  0  0  0  0
   -0.3654    1.0173   -1.5824 H   0  0  0  0  0  0  0  0  0  0  0  0
    1.3934    0.9792   -1.3418 H   0  0  0  0  0  0  0  0  0  0  0  0
    0.6088   -0.9149   -2.6218 S   0  0  0  0  0  0  0  0  0  0  0  0
    0.6633   -0.0962   -3.6793 H   0  0  0  0  0  0  0  0  0  0  0  0
    0.3411    0.8018    1.1802 C   0  0  0  0  0  0  0  0  0  0  0  0
   -0.6197    0.9528    1.9356 O   0  0  0  0  0  0  0  0  0  0  0  0
    1.4683    1.5116    1.3062 N   0  0  0  0  0  0  0  0  0  0  0  0
    2.1839    1.3723    0.6076 H   0  0  0  0  0  0  0  0  0  0  0  0
    1.6924    2.5291    2.3316 C   0  0  0  0  0  0  0  0  0  0  0  0
    1.4369    2.1261    3.3142 H   0  0  0  0  0  0  0  0  0  0  0  0
    2.7375    2.8406    2.3318 H   0  0  0  0  0  0  0  0  0  0  0  0
    1.0576    3.3945    2.1341 H   0  0  0  0  0  0  0  0  0  0  0  0
  5  6  2  0  0  0  0
  5  7  1  0  0  0  0
  2  3  1  0  0  0  0
  2  4  1  0  0  0  0
  2  5  1  0  0  0  0
  1  2  1  0  0  0  0
 16 17  2  0  0  0  0
 16 18  1  0  0  0  0
 14 15  1  0  0  0  0
 11 12  1  0  0  0  0
 11 13  1  0  0  0  0
 11 14  1  0  0  0  0
  9 10  1  0  0  0  0
  9 11  1  0  0  0  0
  9 16  1  0  0  0  0
  7  8  1  0  0  0  0
  7  9  1  0  0  0  0
 20 21  1  0  0  0  0
 20 22  1  0  0  0  0
 20 23  1  0  0  0  0
 18 19  1  0  0  0  0
 18 20  1  0  0  0  0
M  END
$$$$
default_name
  -OEChem-01062215323D

 23 22  0     1  0  0  0  0  0999 V2000
   -2.6857   -3.6684    0.8743 H   0  0  0  0  0  0  0  0  0  0  0  0
   -2.6617   -2.6474    0.4953 C   0  0  0  0  0  0  0  0  0  0  0  0
   -3.2657   -2.0054    1.1353 H   0  0  0  0  0  0  0  0  0  0  0  0
   -3.0477   -2.6254   -0.5217 H   0  0  0  0  0  0  0  0  0  0  0  0
   -1.2337   -2.1564    0.4993 C   0  0  0  0  0  0  0  0  0  0  0  0
   -0.3327   -2.8864    0.8893 O   0  0  0  0  0  0  0  0  0  0  0  0
   -1.0277   -0.9164    0.0623 N   0  0  0  0  0  0  0  0  0  0  0  0
   -1.8237   -0.3604   -0.2157 H   0  0  0  0  0  0  0  0  0  0  0  0
    0.2713   -0.2414    0.0463 C   0  0  1  0  0  0  0  0  0  0  0  0
    1.0542   -0.9823    0.2202 H   0  0  0  0  0  0  0  0  0  0  0  0
    0.4849    0.3735   -1.3466 C   0  0  0  0  0  0  0  0  0  0  0  0
   -0.3654    1.0173   -1.5824 H   0  0  0  0  0  0  0  0  0  0  0  0
    1.3934    0.9792   -1.3418 H   0  0  0  0  0  0  0  0  0  0  0  0
    0.6088   -0.9149   -2.6218 S   0  0  0  0  0  0  0  0  0  0  0  0
    0.6633   -0.0962   -3.6793 H   0  0  0  0  0  0  0  0  0  0  0  0
    0.3411    0.8018    1.1802 C   0  0  0  0  0  0  0  0  0  0  0  0
   -0.4825    0.7701    2.0952 O   0  0  0  0  0  0  0  0  0  0  0  0
    1.3178    1.7148    1.1285 N   0  0  0  0  0  0  0  0  0  0  0  0
    1.9124    1.7113    0.3124 H   0  0  0  0  0  0  0  0  0  0  0  0
    1.5224    2.7617    2.1280 C   0  0  0  0  0  0  0  0  0  0  0  0
    1.5250    2.3224    3.1282 H   0  0  0  0  0  0  0  0  0  0  0  0
    2.4732    3.2674    1.9553 H   0  0  0  0  0  0  0  0  0  0  0  0
    0.7106    3.4887    2.0688 H   0  0  0  0  0  0  0  0  0  0  0  0
  5  6  2  0  0  0  0
  5  7  1  0  0  0  0
  2  3  1  0  0  0  0
  2  4  1  0  0  0  0
  2  5  1  0  0  0  0
  1  2  1  0  0  0  0
 16 17  2  0  0  0  0
 16 18  1  0  0  0  0
 14 15  1  0  0  0  0
 11 12  1  0  0  0  0
 11 13  1  0  0  0  0
 11 14  1  0  0  0  0
  9 10  1  0  0  0  0
  9 11  1  0  0  0  0
  9 16  1  0  0  0  0
  7  8  1  0  0  0  0
  7  9  1  0  0  0  0
 20 21  1  0  0  0  0
 20 22  1  0  0  0  0
 20 23  1  0  0  0  0
 18 19  1  0  0  0  0
 18 20  1  0  0  0  0
M  END
$$$$
default_name
  -OEChem-01062215323D

 23 22  0     1  0  0  0  0  0999 V2000
   -2.6857   -3.6684    0.8743 H   0  0  0  0  0  0  0  0  0  0  0  0
   -2.6617   -2.6474    0.4953 C   0  0  0  0  0  0  0  0  0  0  0  0
   -3.2657   -2.0054    1.1353 H   0  0  0  0  0  0  0  0  0  0  0  0
   -3.0477   -2.6254   -0.5217 H   0  0  0  0  0  0  0  0  0  0  0  0
   -1.2337   -2.1564    0.4993 C   0  0  0  0  0  0  0  0  0  0  0  0
   -0.3327   -2.8864    0.8893 O   0  0  0  0  0  0  0  0  0  0  0  0
   -1.0277   -0.9164    0.0623 N   0  0  0  0  0  0  0  0  0  0  0  0
   -1.8237   -0.3604   -0.2157 H   0  0  0  0  0  0  0  0  0  0  0  0
    0.2713   -0.2414    0.0463 C   0  0  1  0  0  0  0  0  0  0  0  0
    1.0542   -0.9823    0.2202 H   0  0  0  0  0  0  0  0  0  0  0  0
    0.4849    0.3735   -1.3466 C   0  0  0  0  0  0  0  0  0  0  0  0
   -0.3654    1.0173   -1.5824 H   0  0  0  0  0  0  0  0  0  0  0  0
    1.3934    0.9792   -1.3418 H   0  0  0  0  0  0  0  0  0  0  0  0
    0.6088   -0.9149   -2.6218 S   0  0  0  0  0  0  0  0  0  0  0  0
    0.6633   -0.0962   -3.6793 H   0  0  0  0  0  0  0  0  0  0  0  0
    0.3411    0.8018    1.1802 C   0  0  0  0  0  0  0  0  0  0  0  0
   -0.2873    0.6180    2.2232 O   0  0  0  0  0  0  0  0  0  0  0  0
    1.1027    1.8846    0.9856 N   0  0  0  0  0  0  0  0  0  0  0  0
    1.5340    1.9906    0.0787 H   0  0  0  0  0  0  0  0  0  0  0  0
    1.2784    2.9564    1.9639 C   0  0  0  0  0  0  0  0  0  0  0  0
    1.5402    2.5310    2.9353 H   0  0  0  0  0  0  0  0  0  0  0  0
    2.0707    3.6338    1.6430 H   0  0  0  0  0  0  0  0  0  0  0  0
    0.3462    3.5143    2.0676 H   0  0  0  0  0  0  0  0  0  0  0  0
  5  6  2  0  0  0  0
  5  7  1  0  0  0  0
  2  3  1  0  0  0  0
  2  4  1  0  0  0  0
  2  5  1  0  0  0  0
  1  2  1  0  0  0  0
 16 17  2  0  0  0  0
 16 18  1  0  0  0  0
 14 15  1  0  0  0  0
 11 12  1  0  0  0  0
 11 13  1  0  0  0  0
 11 14  1  0  0  0  0
  9 10  1  0  0  0  0
  9 11  1  0  0  0  0
  9 16  1  0  0  0  0
  7  8  1  0  0  0  0
  7  9  1  0  0  0  0
 20 21  1  0  0  0  0
 20 22  1  0  0  0  0
 20 23  1  0  0  0  0
 18 19  1  0  0  0  0
 18 20  1  0  0  0  0
M  END
$$$$
default_name
  -OEChem-01062215323D

 23 22  0     1  0  0  0  0  0999 V2000
   -2.6857   -3.6684    0.8743 H   0  0  0  0  0  0  0  0  0  0  0  0
   -2.6617   -2.6474    0.4953 C   0  0  0  0  0  0  0  0  0  0  0  0
   -3.2657   -2.0054    1.1353 H   0  0  0  0  0  0  0  0  0  0  0  0
   -3.0477   -2.6254   -0.5217 H   0  0  0  0  0  0  0  0  0  0  0  0
   -1.2337   -2.1564    0.4993 C   0  0  0  0  0  0  0  0  0  0  0  0
   -0.3327   -2.8864    0.8893 O   0  0  0  0  0  0  0  0  0  0  0  0
   -1.0277   -0.9164    0.0623 N   0  0  0  0  0  0  0  0  0  0  0  0
   -1.8237   -0.3604   -0.2157 H   0  0  0  0  0  0  0  0  0  0  0  0
    0.2713   -0.2414    0.0463 C   0  0  1  0  0  0  0  0  0  0  0  0
    1.0542   -0.9823    0.2202 H   0  0  0  0  0  0  0  0  0  0  0  0
    0.4849    0.3735   -1.3466 C   0  0  0  0  0  0  0  0  0  0  0  0
   -0.3654    1.0173   -1.5824 H   0  0  0  0  0  0  0  0  0  0  0  0
    1.3934    0.9792   -1.3418 H   0  0  0  0  0  0  0  0  0  0  0  0
    0.6088   -0.9149   -2.6218 S   0  0  0  0  0  0  0  0  0  0  0  0
    0.6633   -0.0962   -3.6793 H   0  0  0  0  0  0  0  0  0  0  0  0
    0.3411    0.8018    1.1802 C   0  0  0  0  0  0  0  0  0  0  0  0
   -0.0473    0.5066    2.3109 O   0  0  0  0  0  0  0  0  0  0  0  0
    0.8376    2.0092    0.8872 N   0  0  0  0  0  0  0  0  0  0  0  0
    1.0744    2.1911   -0.0775 H   0  0  0  0  0  0  0  0  0  0  0  0
    0.9769    3.1000    1.8503 C   0  0  0  0  0  0  0  0  0  0  0  0
    1.4815    2.7377    2.7488 H   0  0  0  0  0  0  0  0  0  0  0  0
    1.5575    3.9147    1.4161 H   0  0  0  0  0  0  0  0  0  0  0  0
   -0.0109    3.4698    2.1305 H   0  0  0  0  0  0  0  0  0  0  0  0
  5  6  2  0  0  0  0
  5  7  1  0  0  0  0
  2  3  1  0  0  0  0
  2  4  1  0  0  0  0
  2  5  1  0  0  0  0
  1  2  1  0  0  0  0
 16 17  2  0  0  0  0
 16 18  1  0  0  0  0
 14 15  1  0  0  0  0
 11 12  1  0  0  0  0
 11 13  1  0  0  0  0
 11 14  1  0  0  0  0
  9 10  1  0  0  0  0
  9 11  1  0  0  0  0
  9 16  1  0  0  0  0
  7  8  1  0  0  0  0
  7  9  1  0  0  0  0
 20 21  1  0  0  0  0
 20 22  1  0  0  0  0
 20 23  1  0  0  0  0
 18 19  1  0  0  0  0
 18 20  1  0  0  0  0
M  END
$$$$
default_name
  -OEChem-01062215323D

 23 22  0     1  0  0  0  0  0999 V2000
   -2.6857   -3.6684    0.8743 H   0  0  0  0  0  0  0  0  0  0  0  0
   -2.6617   -2.6474    0.4953 C   0  0  0  0  0  0  0  0  0  0  0  0
   -3.2657   -2.0054    1.1353 H   0  0  0  0  0  0  0  0  0  0  0  0
   -3.0477   -2.6254   -0.5217 H   0  0  0  0  0  0  0  0  0  0  0  0
   -1.2337   -2.1564    0.4993 C   0  0  0  0  0  0  0  0  0  0  0  0
   -0.3327   -2.8864    0.8893 O   0  0  0  0  0  0  0  0  0  0  0  0
   -1.0277   -0.9164    0.0623 N   0  0  0  0  0  0  0  0  0  0  0  0
   -1.8237   -0.3604   -0.2157 H   0  0  0  0  0  0  0  0  0  0  0  0
    0.2713   -0.2414    0.0463 C   0  0  1  0  0  0  0  0  0  0  0  0
    1.0542   -0.9823    0.2202 H   0  0  0  0  0  0  0  0  0  0  0  0
    0.4849    0.3735   -1.3466 C   0  0  0  0  0  0  0  0  0  0  0  0
   -0.3654    1.0173   -1.5824 H   0  0  0  0  0  0  0  0  0  0  0  0
    1.3934    0.9792   -1.3418 H   0  0  0  0  0  0  0  0  0  0  0  0
    0.6088   -0.9149   -2.6218 S   0  0  0  0  0  0  0  0  0  0  0  0
    0.6633   -0.0962   -3.6793 H   0  0  0  0  0  0  0  0  0  0  0  0
    0.3411    0.8018    1.1802 C   0  0  0  0  0  0  0  0  0  0  0  0
    0.2209    0.4437    2.3523 O   0  0  0  0  0  0  0  0  0  0  0  0
    0.5406    2.0804    0.8400 N   0  0  0  0  0  0  0  0  0  0  0  0
    0.5650    2.2991   -0.1455 H   0  0  0  0  0  0  0  0  0  0  0  0
    0.6384    3.1827    1.7951 C   0  0  0  0  0  0  0  0  0  0  0  0
    1.3527    2.9283    2.5814 H   0  0  0  0  0  0  0  0  0  0  0  0
    0.9686    4.0912    1.2900 H   0  0  0  0  0  0  0  0  0  0  0  0
   -0.3364    3.3582    2.2533 H   0  0  0  0  0  0  0  0  0  0  0  0
  5  6  2  0  0  0  0
  5  7  1  0  0  0  0
  2  3  1  0  0  0  0
  2  4  1  0  0  0  0
  2  5  1  0  0  0  0
  1  2  1  0  0  0  0
 16 17  2  0  0  0  0
 16 18  1  0  0  0  0
 14 15  1  0  0  0  0
 11 12  1  0  0  0  0
 11 13  1  0  0  0  0
 11 14  1  0  0  0  0
  9 10  1  0  0  0  0
  9 11  1  0  0  0  0
  9 16  1  0  0  0  0
  7  8  1  0  0  0  0
  7  9  1  0  0  0  0
 20 21  1  0  0  0  0
 20 22  1  0  0  0  0
 20 23  1  0  0  0  0
 18 19  1  0  0  0  0
 18 20  1  0  0  0  0
M  END
$$$$
default_name
  -OEChem-01062215323D

 23 22  0     1  0  0  0  0  0999 V2000
   -2.6857   -3.6684    0.8743 H   0  0  0  0  0  0  0  0  0  0  0  0
   -2.6617   -2.6474    0.4953 C   0  0  0  0  0  0  0  0  0  0  0  0
   -3.2657   -2.0054    1.1353 H   0  0  0  0  0  0  0  0  0  0  0  0
   -3.0477   -2.6254   -0.5217 H   0  0  0  0  0  0  0  0  0  0  0  0
   -1.2337   -2.1564    0.4993 C   0  0  0  0  0  0  0  0  0  0  0  0
   -0.3327   -2.8864    0.8893 O   0  0  0  0  0  0  0  0  0  0  0  0
   -1.0277   -0.9164    0.0623 N   0  0  0  0  0  0  0  0  0  0  0  0
   -1.8237   -0.3604   -0.2157 H   0  0  0  0  0  0  0  0  0  0  0  0
    0.2713   -0.2414    0.0463 C   0  0  1  0  0  0  0  0  0  0  0  0
    1.0542   -0.9823    0.2202 H   0  0  0  0  0  0  0  0  0  0  0  0
    0.4849    0.3735   -1.3466 C   0  0  0  0  0  0  0  0  0  0  0  0
   -0.3654    1.0173   -1.5824 H   0  0  0  0  0  0  0  0  0  0  0  0
    1.3934    0.9792   -1.3418 H   0  0  0  0  0  0  0  0  0  0  0  0
    0.6088   -0.9149   -2.6218 S   0  0  0  0  0  0  0  0  0  0  0  0
    0.6633   -0.0962   -3.6793 H   0  0  0  0  0  0  0  0  0  0  0  0
    0.3411    0.8018    1.1802 C   0  0  0  0  0  0  0  0  0  0  0  0
    0.4993    0.4335    2.3446 O   0  0  0  0  0  0  0  0  0  0  0  0
    0.2320    2.0931    0.8472 N   0  0  0  0  0  0  0  0  0  0  0  0
    0.0404    2.3073   -0.1208 H   0  0  0  0  0  0  0  0  0  0  0  0
    0.2861    3.1988    1.8019 C   0  0  0  0  0  0  0  0  0  0  0  0
    1.1628    3.0898    2.4444 H   0  0  0  0  0  0  0  0  0  0  0  0
    0.3442    4.1510    1.2733 H   0  0  0  0  0  0  0  0  0  0  0  0
   -0.6080    3.1869    2.4276 H   0  0  0  0  0  0  0  0  0  0  0  0
  5  6  2  0  0  0  0
  5  7  1  0  0  0  0
  2  3  1  0  0  0  0
  2  4  1  0  0  0  0
  2  5  1  0  0  0  0
  1  2  1  0  0  0  0
 16 17  2  0  0  0  0
 16 18  1  0  0  0  0
 14 15  1  0  0  0  0
 11 12  1  0  0  0  0
 11 13  1  0  0  0  0
 11 14  1  0  0  0  0
  9 10  1  0  0  0  0
  9 11  1  0  0  0  0
  9 16  1  0  0  0  0
  7  8  1  0  0  0  0
  7  9  1  0  0  0  0
 20 21  1  0  0  0  0
 20 22  1  0  0  0  0
 20 23  1  0  0  0  0
 18 19  1  0  0  0  0
 18 20  1  0  0  0  0
M  END
$$$$
default_name
  -OEChem-01062215323D

 23 22  0     1  0  0  0  0  0999 V2000
   -2.6857   -3.6684    0.8743 H   0  0  0  0  0  0  0  0  0  0  0  0
   -2.6617   -2.6474    0.4953 C   0  0  0  0  0  0  0  0  0  0  0  0
   -3.2657   -2.0054    1.1353 H   0  0  0  0  0  0  0  0  0  0  0  0
   -3.0477   -2.6254   -0.5217 H   0  0  0  0  0  0  0  0  0  0  0  0
   -1.2337   -2.1564    0.4993 C   0  0  0  0  0  0  0  0  0  0  0  0
   -0.3327   -2.8864    0.8893 O   0  0  0  0  0  0  0  0  0  0  0  0
   -1.0277   -0.9164    0.0623 N   0  0  0  0  0  0  0  0  0  0  0  0
   -1.8237   -0.3604   -0.2157 H   0  0  0  0  0  0  0  0  0  0  0  0
    0.2713   -0.2414    0.0463 C   0  0  1  0  0  0  0  0  0  0  0  0
    1.0542   -0.9823    0.2202 H   0  0  0  0  0  0  0  0  0  0  0  0
    0.4849    0.3735   -1.3466 C   0  0  0  0  0  0  0  0  0  0  0  0
   -0.3654    1.0173   -1.5824 H   0  0  0  0  0  0  0  0  0  0  0  0
    1.3934    0.9792   -1.3418 H   0  0  0  0  0  0  0  0  0  0  0  0
    0.6088   -0.9149   -2.6218 S   0  0  0  0  0  0  0  0  0  0  0  0
    0.6633   -0.0962   -3.6793 H   0  0  0  0  0  0  0  0  0  0  0  0
    0.3411    0.8018    1.1802 C   0  0  0  0  0  0  0  0  0  0  0  0
    0.7688    0.4766    2.2883 O   0  0  0  0  0  0  0  0  0  0  0  0
   -0.0674    2.0466    0.9084 N   0  0  0  0  0  0  0  0  0  0  0  0
   -0.4634    2.2151   -0.0050 H   0  0  0  0  0  0  0  0  0  0  0  0
   -0.0561    3.1472    1.8704 C   0  0  0  0  0  0  0  0  0  0  0  0
    0.9246    3.2114    2.3472 H   0  0  0  0  0  0  0  0  0  0  0  0
   -0.2733    4.0902    1.3673 H   0  0  0  0  0  0  0  0  0  0  0  0
   -0.8073    2.9678    2.6414 H   0  0  0  0  0  0  0  0  0  0  0  0
  5  6  2  0  0  0  0
  5  7  1  0  0  0  0
  2  3  1  0  0  0  0
  2  4  1  0  0  0  0
  2  5  1  0  0  0  0
  1  2  1  0  0  0  0
 16 17  2  0  0  0  0
 16 18  1  0  0  0  0
 14 15  1  0  0  0  0
 11 12  1  0  0  0  0
 11 13  1  0  0  0  0
 11 14  1  0  0  0  0
  9 10  1  0  0  0  0
  9 11  1  0  0  0  0
  9 16  1  0  0  0  0
  7  8  1  0  0  0  0
  7  9  1  0  0  0  0
 20 21  1  0  0  0  0
 20 22  1  0  0  0  0
 20 23  1  0  0  0  0
 18 19  1  0  0  0  0
 18 20  1  0  0  0  0
M  END
$$$$
default_name
  -OEChem-01062215323D

 23 22  0     1  0  0  0  0  0999 V2000
   -2.6857   -3.6684    0.8743 H   0  0  0  0  0  0  0  0  0  0  0  0
   -2.6617   -2.6474    0.4953 C   0  0  0  0  0  0  0  0  0  0  0  0
   -3.2657   -2.0054    1.1353 H   0  0  0  0  0  0  0  0  0  0  0  0
   -3.0477   -2.6254   -0.5217 H   0  0  0  0  0  0  0  0  0  0  0  0
   -1.2337   -2.1564    0.4993 C   0  0  0  0  0  0  0  0  0  0  0  0
   -0.3327   -2.8864    0.8893 O   0  0  0  0  0  0  0  0  0  0  0  0
   -1.0277   -0.9164    0.0623 N   0  0  0  0  0  0  0  0  0  0  0  0
   -1.8237   -0.3604   -0.2157 H   0  0  0  0  0  0  0  0  0  0  0  0
    0.2713   -0.2414    0.0463 C   0  0  1  0  0  0  0  0  0  0  0  0
    1.0542   -0.9823    0.2202 H   0  0  0  0  0  0  0  0  0  0  0  0
    0.4849    0.3735   -1.3466 C   0  0  0  0  0  0  0  0  0  0  0  0
   -0.3654    1.0173   -1.5824 H   0  0  0  0  0  0  0  0  0  0  0  0
    1.3934    0.9792   -1.3418 H   0  0  0  0  0  0  0  0  0  0  0  0
    0.6088   -0.9149   -2.6218 S   0  0  0  0  0  0  0  0  0  0  0  0
    0.6633   -0.0962   -3.6793 H   0  0  0  0  0  0  0  0  0  0  0  0
    0.3411    0.8018    1.1802 C   0  0  0  0  0  0  0  0  0  0  0  0
    1.0110    0.5703    2.1872 O   0  0  0  0  0  0  0  0  0  0  0  0
   -0.3369    1.9441    1.0194 N   0  0  0  0  0  0  0  0  0  0  0  0
   -0.9124    2.0289    0.1940 H   0  0  0  0  0  0  0  0  0  0  0  0
   -0.3648    3.0315    1.9959 C   0  0  0  0  0  0  0  0  0  0  0  0
    0.6544    3.2846    2.2965 H   0  0  0  0  0  0  0  0  0  0  0  0
   -0.8417    3.9128    1.5654 H   0  0  0  0  0  0  0  0  0  0  0  0
   -0.9207    2.7157    2.8803 H   0  0  0  0  0  0  0  0  0  0  0  0
  5  6  2  0  0  0  0
  5  7  1  0  0  0  0
  2  3  1  0  0  0  0
  2  4  1  0  0  0  0
  2  5  1  0  0  0  0
  1  2  1  0  0  0  0
 16 17  2  0  0  0  0
 16 18  1  0  0  0  0
 14 15  1  0  0  0  0
 11 12  1  0  0  0  0
 11 13  1  0  0  0  0
 11 14  1  0  0  0  0
  9 10  1  0  0  0  0
  9 11  1  0  0  0  0
  9 16  1  0  0  0  0
  7  8  1  0  0  0  0
  7  9  1  0  0  0  0
 20 21  1  0  0  0  0
 20 22  1  0  0  0  0
 20 23  1  0  0  0  0
 18 19  1  0  0  0  0
 18 20  1  0  0  0  0
M  END
$$$$
default_name
  -OEChem-01062215323D

 23 22  0     1  0  0  0  0  0999 V2000
   -2.6857   -3.6684    0.8743 H   0  0  0  0  0  0  0  0  0  0  0  0
   -2.6617   -2.6474    0.4953 C   0  0  0  0  0  0  0  0  0  0  0  0
   -3.2657   -2.0054    1.1353 H   0  0  0  0  0  0  0  0  0  0  0  0
   -3.0477   -2.6254   -0.5217 H   0  0  0  0  0  0  0  0  0  0  0  0
   -1.2337   -2.1564    0.4993 C   0  0  0  0  0  0  0  0  0  0  0  0
   -0.3327   -2.8864    0.8893 O   0  0  0  0  0  0  0  0  0  0  0  0
   -1.0277   -0.9164    0.0623 N   0  0  0  0  0  0  0  0  0  0  0  0
   -1.8237   -0.3604   -0.2157 H   0  0  0  0  0  0  0  0  0  0  0  0
    0.2713   -0.2414    0.0463 C   0  0  1  0  0  0  0  0  0  0  0  0
    1.0542   -0.9823    0.2202 H   0  0  0  0  0  0  0  0  0  0  0  0
    0.4849    0.3735   -1.3466 C   0  0  0  0  0  0  0  0  0  0  0  0
   -0.3654    1.0173   -1.5824 H   0  0  0  0  0  0  0  0  0  0  0  0
    1.3934    0.9792   -1.3418 H   0  0  0  0  0  0  0  0  0  0  0  0
    0.6088   -0.9149   -2.6218 S   0  0  0  0  0  0  0  0  0  0  0  0
    0.6633   -0.0962   -3.6793 H   0  0  0  0  0  0  0  0  0  0  0  0
    0.3411    0.8018    1.1802 C   0  0  0  0  0  0  0  0  0  0  0  0
    1.2095    0.7080    2.0483 O   0  0  0  0  0  0  0  0  0  0  0  0
   -0.5584    1.7924    1.1725 N   0  0  0  0  0  0  0  0  0  0  0  0
   -1.2757    1.7612    0.4626 H   0  0  0  0  0  0  0  0  0  0  0  0
   -0.6190    2.8595    2.1697 C   0  0  0  0  0  0  0  0  0  0  0  0
    0.3706    3.3045    2.2956 H   0  0  0  0  0  0  0  0  0  0  0  0
   -1.3223    3.6310    1.8542 H   0  0  0  0  0  0  0  0  0  0  0  0
   -0.9404    2.4478    3.1280 H   0  0  0  0  0  0  0  0  0  0  0  0
  5  6  2  0  0  0  0
  5  7  1  0  0  0  0
  2  3  1  0  0  0  0
  2  4  1  0  0  0  0
  2  5  1  0  0  0  0
  1  2  1  0  0  0  0
 16 17  2  0  0  0  0
 16 18  1  0  0  0  0
 14 15  1  0  0  0  0
 11 12  1  0  0  0  0
 11 13  1  0  0  0  0
 11 14  1  0  0  0  0
  9 10  1  0  0  0  0
  9 11  1  0  0  0  0
  9 16  1  0  0  0  0
  7  8  1  0  0  0  0
  7  9  1  0  0  0  0
 20 21  1  0  0  0  0
 20 22  1  0  0  0  0
 20 23  1  0  0  0  0
 18 19  1  0  0  0  0
 18 20  1  0  0  0  0
M  END
$$$$
default_name
  -OEChem-01062215323D

 23 22  0     1  0  0  0  0  0999 V2000
   -2.6857   -3.6684    0.8743 H   0  0  0  0  0  0  0  0  0  0  0  0
   -2.6617   -2.6474    0.4953 C   0  0  0  0  0  0  0  0  0  0  0  0
   -3.2657   -2.0054    1.1353 H   0  0  0  0  0  0  0  0  0  0  0  0
   -3.0477   -2.6254   -0.5217 H   0  0  0  0  0  0  0  0  0  0  0  0
   -1.2337   -2.1564    0.4993 C   0  0  0  0  0  0  0  0  0  0  0  0
   -0.3327   -2.8864    0.8893 O   0  0  0  0  0  0  0  0  0  0  0  0
   -1.0277   -0.9164    0.0623 N   0  0  0  0  0  0  0  0  0  0  0  0
   -1.8237   -0.3604   -0.2157 H   0  0  0  0  0  0  0  0  0  0  0  0
    0.2713   -0.2414    0.0463 C   0  0  1  0  0  0  0  0  0  0  0  0
    1.0542   -0.9823    0.2202 H   0  0  0  0  0  0  0  0  0  0  0  0
    0.4849    0.3735   -1.3466 C   0  0  0  0  0  0  0  0  0  0  0  0
   -0.3654    1.0173   -1.5824 H   0  0  0  0  0  0  0  0  0  0  0  0
    1.3934    0.9792   -1.3418 H   0  0  0  0  0  0  0  0  0  0  0  0
    0.6088   -0.9149   -2.6218 S   0  0  0  0  0  0  0  0  0  0  0  0
    0.6633   -0.0962   -3.6793 H   0  0  0  0  0  0  0  0  0  0  0  0
    0.3411    0.8018    1.1802 C   0  0  0  0  0  0  0  0  0  0  0  0
    1.3506    0.8804    1.8810 O   0  0  0  0  0  0  0  0  0  0  0  0
   -0.7166    1.6020    1.3575 N   0  0  0  0  0  0  0  0  0  0  0  0
   -1.5287    1.4304    0.7825 H   0  0  0  0  0  0  0  0  0  0  0  0
   -0.8014    2.6430    2.3802 C   0  0  0  0  0  0  0  0  0  0  0  0
    0.0926    3.2697    2.3447 H   0  0  0  0  0  0  0  0  0  0  0  0
   -1.6824    3.2640    2.2140 H   0  0  0  0  0  0  0  0  0  0  0  0
   -0.8651    2.1825    3.3675 H   0  0  0  0  0  0  0  0  0  0  0  0
  5  6  2  0  0  0  0
  5  7  1  0  0  0  0
  2  3  1  0  0  0  0
  2  4  1  0  0  0  0
  2  5  1  0  0  0  0
  1  2  1  0  0  0  0
 16 17  2  0  0  0  0
 16 18  1  0  0  0  0
 14 15  1  0  0  0  0
 11 12  1  0  0  0  0
 11 13  1  0  0  0  0
 11 14  1  0  0  0  0
  9 10  1  0  0  0  0
  9 11  1  0  0  0  0
  9 16  1  0  0  0  0
  7  8  1  0  0  0  0
  7  9  1  0  0  0  0
 20 21  1  0  0  0  0
 20 22  1  0  0  0  0
 20 23  1  0  0  0  0
 18 19  1  0  0  0  0
 18 20  1  0  0  0  0
M  END
$$$$
default_name
  -OEChem-01062215323D

 23 22  0     1  0  0  0  0  0999 V2000
   -2.6857   -3.6684    0.8743 H   0  0  0  0  0  0  0  0  0  0  0  0
   -2.6617   -2.6474    0.4953 C   0  0  0  0  0  0  0  0  0  0  0  0
   -3.2657   -2.0054    1.1353 H   0  0  0  0  0  0  0  0  0  0  0  0
   -3.0477   -2.6254   -0.5217 H   0  0  0  0  0  0  0  0  0  0  0  0
   -1.2337   -2.1564    0.4993 C   0  0  0  0  0  0  0  0  0  0  0  0
   -0.3327   -2.8864    0.8893 O   0  0  0  0  0  0  0  0  0  0  0  0
   -1.0277   -0.9164    0.0623 N   0  0  0  0  0  0  0  0  0  0  0  0
   -1.8237   -0.3604   -0.2157 H   0  0  0  0  0  0  0  0  0  0  0  0
    0.2713   -0.2414    0.0463 C   0  0  1  0  0  0  0  0  0  0  0  0
    1.0542   -0.9823    0.2202 H   0  0  0  0  0  0  0  0  0  0  0  0
    0.4849    0.3735   -1.3466 C   0  0  0  0  0  0  0  0  0  0  0  0
   -0.3654    1.0173   -1.5824 H   0  0  0  0  0  0  0  0  0  0  0  0
    1.3934    0.9792   -1.3418 H   0  0  0  0  0  0  0  0  0  0  0  0
    0.6088   -0.9149   -2.6218 S   0  0  0  0  0  0  0  0  0  0  0  0
    0.6633   -0.0962   -3.6793 H   0  0  0  0  0  0  0  0  0  0  0  0
    0.3411    0.8018    1.1802 C   0  0  0  0  0  0  0  0  0  0  0  0
    1.4249    1.0758    1.6967 O   0  0  0  0  0  0  0  0  0  0  0  0
   -0.8008    1.3858    1.5616 N   0  0  0  0  0  0  0  0  0  0  0  0
   -1.6542    1.0590    1.1319 H   0  0  0  0  0  0  0  0  0  0  0  0
   -0.8995    2.3967    2.6128 C   0  0  0  0  0  0  0  0  0  0  0  0
   -0.1608    3.1827    2.4404 H   0  0  0  0  0  0  0  0  0  0  0  0
   -1.8973    2.8368    2.6203 H   0  0  0  0  0  0  0  0  0  0  0  0
   -0.7000    1.9376    3.5826 H   0  0  0  0  0  0  0  0  0  0  0  0
  5  6  2  0  0  0  0
  5  7  1  0  0  0  0
  2  3  1  0  0  0  0
  2  4  1  0  0  0  0
  2  5  1  0  0  0  0
  1  2  1  0  0  0  0
 16 17  2  0  0  0  0
 16 18  1  0  0  0  0
 14 15  1  0  0  0  0
 11 12  1  0  0  0  0
 11 13  1  0  0  0  0
 11 14  1  0  0  0  0
  9 10  1  0  0  0  0
  9 11  1  0  0  0  0
  9 16  1  0  0  0  0
  7  8  1  0  0  0  0
  7  9  1  0  0  0  0
 20 21  1  0  0  0  0
 20 22  1  0  0  0  0
 20 23  1  0  0  0  0
 18 19  1  0  0  0  0
 18 20  1  0  0  0  0
M  END
$$$$
default_name
  -OEChem-01062215323D

 23 22  0     1  0  0  0  0  0999 V2000
   -2.6857   -3.6684    0.8743 H   0  0  0  0  0  0  0  0  0  0  0  0
   -2.6617   -2.6474    0.4953 C   0  0  0  0  0  0  0  0  0  0  0  0
   -3.2657   -2.0054    1.1353 H   0  0  0  0  0  0  0  0  0  0  0  0
   -3.0477   -2.6254   -0.5217 H   0  0  0  0  0  0  0  0  0  0  0  0
   -1.2337   -2.1564    0.4993 C   0  0  0  0  0  0  0  0  0  0  0  0
   -0.3327   -2.8864    0.8893 O   0  0  0  0  0  0  0  0  0  0  0  0
   -1.0277   -0.9164    0.0623 N   0  0  0  0  0  0  0  0  0  0  0  0
   -1.8237   -0.3604   -0.2157 H   0  0  0  0  0  0  0  0  0  0  0  0
    0.2713   -0.2414    0.0463 C   0  0  1  0  0  0  0  0  0  0  0  0
    1.0542   -0.9823    0.2202 H   0  0  0  0  0  0  0  0  0  0  0  0
    0.4849    0.3735   -1.3466 C   0  0  0  0  0  0  0  0  0  0  0  0
   -0.3654    1.0173   -1.5824 H   0  0  0  0  0  0  0  0  0  0  0  0
    1.3934    0.9792   -1.3418 H   0  0  0  0  0  0  0  0  0  0  0  0
    0.6088   -0.9149   -2.6218 S   0  0  0  0  0  0  0  0  0  0  0  0
    0.6633   -0.0962   -3.6793 H   0  0  0  0  0  0  0  0  0  0  0  0
    0.3411    0.8018    1.1802 C   0  0  0  0  0  0  0  0  0  0  0  0
    1.4272    1.2808    1.5079 O   0  0  0  0  0  0  0  0  0  0  0  0
   -0.8053    1.1585    1.7709 N   0  0  0  0  0  0  0  0  0  0  0  0
   -1.6435    0.6722    1.4871 H   0  0  0  0  0  0  0  0  0  0  0  0
   -0.9067    2.1373    2.8519 C   0  0  0  0  0  0  0  0  0  0  0  0
   -0.3723    3.0492    2.5761 H   0  0  0  0  0  0  0  0  0  0  0  0
   -1.9526    2.3785    3.0454 H   0  0  0  0  0  0  0  0  0  0  0  0
   -0.4562    1.7301    3.7586 H   0  0  0  0  0  0  0  0  0  0  0  0
  5  6  2  0  0  0  0
  5  7  1  0  0  0  0
  2  3  1  0  0  0  0
  2  4  1  0  0  0  0
  2  5  1  0  0  0  0
  1  2  1  0  0  0  0
 16 17  2  0  0  0  0
 16 18  1  0  0  0  0
 14 15  1  0  0  0  0
 11 12  1  0  0  0  0
 11 13  1  0  0  0  0
 11 14  1  0  0  0  0
  9 10  1  0  0  0  0
  9 11  1  0  0  0  0
  9 16  1  0  0  0  0
  7  8  1  0  0  0  0
  7  9  1  0  0  0  0
 20 21  1  0  0  0  0
 20 22  1  0  0  0  0
 20 23  1  0  0  0  0
 18 19  1  0  0  0  0
 18 20  1  0  0  0  0
M  END
$$$$
default_name
  -OEChem-01062215323D

 23 22  0     1  0  0  0  0  0999 V2000
   -2.6857   -3.6684    0.8743 H   0  0  0  0  0  0  0  0  0  0  0  0
   -2.6617   -2.6474    0.4953 C   0  0  0  0  0  0  0  0  0  0  0  0
   -3.2657   -2.0054    1.1353 H   0  0  0  0  0  0  0  0  0  0  0  0
   -3.0477   -2.6254   -0.5217 H   0  0  0  0  0  0  0  0  0  0  0  0
   -1.2337   -2.1564    0.4993 C   0  0  0  0  0  0  0  0  0  0  0  0
   -0.3327   -2.8864    0.8893 O   0  0  0  0  0  0  0  0  0  0  0  0
   -1.0277   -0.9164    0.0623 N   0  0  0  0  0  0  0  0  0  0  0  0
   -1.8237   -0.3604   -0.2157 H   0  0  0  0  0  0  0  0  0  0  0  0
    0.2713   -0.2414    0.0463 C   0  0  1  0  0  0  0  0  0  0  0  0
    1.0542   -0.9823    0.2202 H   0  0  0  0  0  0  0  0  0  0  0  0
    0.4849    0.3735   -1.3466 C   0  0  0  0  0  0  0  0  0  0  0  0
   -0.3654    1.0173   -1.5824 H   0  0  0  0  0  0  0  0  0  0  0  0
    1.3934    0.9792   -1.3418 H   0  0  0  0  0  0  0  0  0  0  0  0
    0.6088   -0.9149   -2.6218 S   0  0  0  0  0  0  0  0  0  0  0  0
    0.6633   -0.0962   -3.6793 H   0  0  0  0  0  0  0  0  0  0  0  0
    0.3411    0.8018    1.1802 C   0  0  0  0  0  0  0  0  0  0  0  0
    1.3574    1.4814    1.3276 O   0  0  0  0  0  0  0  0  0  0  0  0
   -0.7297    0.9357    1.9713 N   0  0  0  0  0  0  0  0  0  0  0  0
   -1.4974    0.2966    1.8237 H   0  0  0  0  0  0  0  0  0  0  0  0
   -0.8225    1.8827    3.0810 C   0  0  0  0  0  0  0  0  0  0  0  0
   -0.5273    2.8785    2.7427 H   0  0  0  0  0  0  0  0  0  0  0  0
   -1.8443    1.9203    3.4603 H   0  0  0  0  0  0  0  0  0  0  0  0
   -0.1504    1.5739    3.8835 H   0  0  0  0  0  0  0  0  0  0  0  0
  5  6  2  0  0  0  0
  5  7  1  0  0  0  0
  2  3  1  0  0  0  0
  2  4  1  0  0  0  0
  2  5  1  0  0  0  0
  1  2  1  0  0  0  0
 16 17  2  0  0  0  0
 16 18  1  0  0  0  0
 14 15  1  0  0  0  0
 11 12  1  0  0  0  0
 11 13  1  0  0  0  0
 11 14  1  0  0  0  0
  9 10  1  0  0  0  0
  9 11  1  0  0  0  0
  9 16  1  0  0  0  0
  7  8  1  0  0  0  0
  7  9  1  0  0  0  0
 20 21  1  0  0  0  0
 20 22  1  0  0  0  0
 20 23  1  0  0  0  0
 18 19  1  0  0  0  0
 18 20  1  0  0  0  0
M  END
$$$$
default_name
  -OEChem-01062215323D

 23 22  0     1  0  0  0  0  0999 V2000
   -2.6857   -3.6684    0.8743 H   0  0  0  0  0  0  0  0  0  0  0  0
   -2.6617   -2.6474    0.4953 C   0  0  0  0  0  0  0  0  0  0  0  0
   -3.2657   -2.0054    1.1353 H   0  0  0  0  0  0  0  0  0  0  0  0
   -3.0477   -2.6254   -0.5217 H   0  0  0  0  0  0  0  0  0  0  0  0
   -1.2337   -2.1564    0.4993 C   0  0  0  0  0  0  0  0  0  0  0  0
   -0.3327   -2.8864    0.8893 O   0  0  0  0  0  0  0  0  0  0  0  0
   -1.0277   -0.9164    0.0623 N   0  0  0  0  0  0  0  0  0  0  0  0
   -1.8237   -0.3604   -0.2157 H   0  0  0  0  0  0  0  0  0  0  0  0
    0.2713   -0.2414    0.0463 C   0  0  1  0  0  0  0  0  0  0  0  0
    1.0542   -0.9823    0.2202 H   0  0  0  0  0  0  0  0  0  0  0  0
    0.4849    0.3735   -1.3466 C   0  0  0  0  0  0  0  0  0  0  0  0
   -0.3654    1.0173   -1.5824 H   0  0  0  0  0  0  0  0  0  0  0  0
    1.3934    0.9792   -1.3418 H   0  0  0  0  0  0  0  0  0  0  0  0
    0.6088   -0.9149   -2.6218 S   0  0  0  0  0  0  0  0  0  0  0  0
    0.6633   -0.0962   -3.6793 H   0  0  0  0  0  0  0  0  0  0  0  0
    0.3411    0.8018    1.1802 C   0  0  0  0  0  0  0  0  0  0  0  0
    1.2202    1.6641    1.1680 O   0  0  0  0  0  0  0  0  0  0  0  0
   -0.5793    0.7325    2.1490 N   0  0  0  0  0  0  0  0  0  0  0  0
   -1.2259   -0.0425    2.1190 H   0  0  0  0  0  0  0  0  0  0  0  0
   -0.6525    1.6501    3.2845 C   0  0  0  0  0  0  0  0  0  0  0  0
   -0.6155    2.6822    2.9288 H   0  0  0  0  0  0  0  0  0  0  0  0
   -1.5799    1.4935    3.8367 H   0  0  0  0  0  0  0  0  0  0  0  0
    0.1965    1.4797    3.9488 H   0  0  0  0  0  0  0  0  0  0  0  0
  5  6  2  0  0  0  0
  5  7  1  0  0  0  0
  2  3  1  0  0  0  0
  2  4  1  0  0  0  0
  2  5  1  0  0  0  0
  1  2  1  0  0  0  0
 16 17  2  0  0  0  0
 16 18  1  0  0  0  0
 14 15  1  0  0  0  0
 11 12  1  0  0  0  0
 11 13  1  0  0  0  0
 11 14  1  0  0  0  0
  9 10  1  0  0  0  0
  9 11  1  0  0  0  0
  9 16  1  0  0  0  0
  7  8  1  0  0  0  0
  7  9  1  0  0  0  0
 20 21  1  0  0  0  0
 20 22  1  0  0  0  0
 20 23  1  0  0  0  0
 18 19  1  0  0  0  0
 18 20  1  0  0  0  0
M  END
$$$$
default_name
  -OEChem-01062215323D

 23 22  0     1  0  0  0  0  0999 V2000
   -2.6857   -3.6684    0.8743 H   0  0  0  0  0  0  0  0  0  0  0  0
   -2.6617   -2.6474    0.4953 C   0  0  0  0  0  0  0  0  0  0  0  0
   -3.2657   -2.0054    1.1353 H   0  0  0  0  0  0  0  0  0  0  0  0
   -3.0477   -2.6254   -0.5217 H   0  0  0  0  0  0  0  0  0  0  0  0
   -1.2337   -2.1564    0.4993 C   0  0  0  0  0  0  0  0  0  0  0  0
   -0.3327   -2.8864    0.8893 O   0  0  0  0  0  0  0  0  0  0  0  0
   -1.0277   -0.9164    0.0623 N   0  0  0  0  0  0  0  0  0  0  0  0
   -1.8237   -0.3604   -0.2157 H   0  0  0  0  0  0  0  0  0  0  0  0
    0.2713   -0.2414    0.0463 C   0  0  1  0  0  0  0  0  0  0  0  0
    1.0542   -0.9823    0.2202 H   0  0  0  0  0  0  0  0  0  0  0  0
    0.4849    0.3735   -1.3466 C   0  0  0  0  0  0  0  0  0  0  0  0
   -0.3654    1.0173   -1.5824 H   0  0  0  0  0  0  0  0  0  0  0  0
    1.3934    0.9792   -1.3418 H   0  0  0  0  0  0  0  0  0  0  0  0
    0.6088   -0.9149   -2.6218 S   0  0  0  0  0  0  0  0  0  0  0  0
    0.6633   -0.0962   -3.6793 H   0  0  0  0  0  0  0  0  0  0  0  0
    0.3411    0.8018    1.1802 C   0  0  0  0  0  0  0  0  0  0  0  0
    1.0250    1.8162    1.0400 O   0  0  0  0  0  0  0  0  0  0  0  0
   -0.3642    0.5628    2.2919 N   0  0  0  0  0  0  0  0  0  0  0  0
   -0.8474   -0.3217    2.3526 H   0  0  0  0  0  0  0  0  0  0  0  0
   -0.4085    1.4553    3.4487 C   0  0  0  0  0  0  0  0  0  0  0  0
   -0.6307    2.4736    3.1217 H   0  0  0  0  0  0  0  0  0  0  0  0
   -1.1774    1.1271    4.1490 H   0  0  0  0  0  0  0  0  0  0  0  0
    0.5609    1.4540    3.9500 H   0  0  0  0  0  0  0  0  0  0  0  0
  5  6  2  0  0  0  0
  5  7  1  0  0  0  0
  2  3  1  0  0  0  0
  2  4  1  0  0  0  0
  2  5  1  0  0  0  0
  1  2  1  0  0  0  0
 16 17  2  0  0  0  0
 16 18  1  0  0  0  0
 14 15  1  0  0  0  0
 11 12  1  0  0  0  0
 11 13  1  0  0  0  0
 11 14  1  0  0  0  0
  9 10  1  0  0  0  0
  9 11  1  0  0  0  0
  9 16  1  0  0  0  0
  7  8  1  0  0  0  0
  7  9  1  0  0  0  0
 20 21  1  0  0  0  0
 20 22  1  0  0  0  0
 20 23  1  0  0  0  0
 18 19  1  0  0  0  0
 18 20  1  0  0  0  0
M  END
$$$$
default_name
  -OEChem-01062215323D

 23 22  0     1  0  0  0  0  0999 V2000
   -2.6857   -3.6684    0.8743 H   0  0  0  0  0  0  0  0  0  0  0  0
   -2.6617   -2.6474    0.4953 C   0  0  0  0  0  0  0  0  0  0  0  0
   -3.2657   -2.0054    1.1353 H   0  0  0  0  0  0  0  0  0  0  0  0
   -3.0477   -2.6254   -0.5217 H   0  0  0  0  0  0  0  0  0  0  0  0
   -1.2337   -2.1564    0.4993 C   0  0  0  0  0  0  0  0  0  0  0  0
   -0.3327   -2.8864    0.8893 O   0  0  0  0  0  0  0  0  0  0  0  0
   -1.0277   -0.9164    0.0623 N   0  0  0  0  0  0  0  0  0  0  0  0
   -1.8237   -0.3604   -0.2157 H   0  0  0  0  0  0  0  0  0  0  0  0
    0.2713   -0.2414    0.0463 C   0  0  1  0  0  0  0  0  0  0  0  0
    1.0542   -0.9823    0.2202 H   0  0  0  0  0  0  0  0  0  0  0  0
    0.4849    0.3735   -1.3466 C   0  0  0  0  0  0  0  0  0  0  0  0
   -0.3654    1.0173   -1.5824 H   0  0  0  0  0  0  0  0  0  0  0  0
    1.3934    0.9792   -1.3418 H   0  0  0  0  0  0  0  0  0  0  0  0
    0.6088   -0.9149   -2.6218 S   0  0  0  0  0  0  0  0  0  0  0  0
    0.6633   -0.0962   -3.6793 H   0  0  0  0  0  0  0  0  0  0  0  0
    0.3411    0.8018    1.1802 C   0  0  0  0  0  0  0  0  0  0  0  0
    0.7850    1.9276    0.9523 O   0  0  0  0  0  0  0  0  0  0  0  0
   -0.0991    0.4381    2.3903 N   0  0  0  0  0  0  0  0  0  0  0  0
   -0.3879   -0.5222    2.5088 H   0  0  0  0  0  0  0  0  0  0  0  0
   -0.1070    1.3117    3.5623 C   0  0  0  0  0  0  0  0  0  0  0  0
   -0.5719    2.2670    3.3082 H   0  0  0  0  0  0  0  0  0  0  0  0
   -0.6643    0.8461    4.3760 H   0  0  0  0  0  0  0  0  0  0  0  0
    0.9180    1.4986    3.8871 H   0  0  0  0  0  0  0  0  0  0  0  0
  5  6  2  0  0  0  0
  5  7  1  0  0  0  0
  2  3  1  0  0  0  0
  2  4  1  0  0  0  0
  2  5  1  0  0  0  0
  1  2  1  0  0  0  0
 16 17  2  0  0  0  0
 16 18  1  0  0  0  0
 14 15  1  0  0  0  0
 11 12  1  0  0  0  0
 11 13  1  0  0  0  0
 11 14  1  0  0  0  0
  9 10  1  0  0  0  0
  9 11  1  0  0  0  0
  9 16  1  0  0  0  0
  7  8  1  0  0  0  0
  7  9  1  0  0  0  0
 20 21  1  0  0  0  0
 20 22  1  0  0  0  0
 20 23  1  0  0  0  0
 18 19  1  0  0  0  0
 18 20  1  0  0  0  0
M  END
$$$$
default_name
  -OEChem-01062215323D

 23 22  0     1  0  0  0  0  0999 V2000
   -2.6857   -3.6684    0.8743 H   0  0  0  0  0  0  0  0  0  0  0  0
   -2.6617   -2.6474    0.4953 C   0  0  0  0  0  0  0  0  0  0  0  0
   -3.2657   -2.0054    1.1353 H   0  0  0  0  0  0  0  0  0  0  0  0
   -3.0477   -2.6254   -0.5217 H   0  0  0  0  0  0  0  0  0  0  0  0
   -1.2337   -2.1564    0.4993 C   0  0  0  0  0  0  0  0  0  0  0  0
   -0.3327   -2.8864    0.8893 O   0  0  0  0  0  0  0  0  0  0  0  0
   -1.0277   -0.9164    0.0623 N   0  0  0  0  0  0  0  0  0  0  0  0
   -1.8237   -0.3604   -0.2157 H   0  0  0  0  0  0  0  0  0  0  0  0
    0.2713   -0.2414    0.0463 C   0  0  1  0  0  0  0  0  0  0  0  0
    1.0542   -0.9823    0.2202 H   0  0  0  0  0  0  0  0  0  0  0  0
    0.4849    0.3735   -1.3466 C   0  0  0  0  0  0  0  0  0  0  0  0
   -0.3654    1.0173   -1.5824 H   0  0  0  0  0  0  0  0  0  0  0  0
    1.3934    0.9792   -1.3418 H   0  0  0  0  0  0  0  0  0  0  0  0
    0.6088   -0.9149   -2.6218 S   0  0  0  0  0  0  0  0  0  0  0  0
    0.6633   -0.0962   -3.6793 H   0  0  0  0  0  0  0  0  0  0  0  0
    0.3411    0.8018    1.1802 C   0  0  0  0  0  0  0  0  0  0  0  0
    0.5168    1.9905    0.9109 O   0  0  0  0  0  0  0  0  0  0  0  0
    0.1979    0.3670    2.4375 N   0  0  0  0  0  0  0  0  0  0  0  0
    0.1216   -0.6302    2.5769 H   0  0  0  0  0  0  0  0  0  0  0  0
    0.2315    1.2291    3.6175 C   0  0  0  0  0  0  0  0  0  0  0  0
   -0.4432    2.0763    3.4756 H   0  0  0  0  0  0  0  0  0  0  0  0
   -0.0754    0.6697    4.5021 H   0  0  0  0  0  0  0  0  0  0  0  0
    1.2435    1.6102    3.7643 H   0  0  0  0  0  0  0  0  0  0  0  0
  5  6  2  0  0  0  0
  5  7  1  0  0  0  0
  2  3  1  0  0  0  0
  2  4  1  0  0  0  0
  2  5  1  0  0  0  0
  1  2  1  0  0  0  0
 16 17  2  0  0  0  0
 16 18  1  0  0  0  0
 14 15  1  0  0  0  0
 11 12  1  0  0  0  0
 11 13  1  0  0  0  0
 11 14  1  0  0  0  0
  9 10  1  0  0  0  0
  9 11  1  0  0  0  0
  9 16  1  0  0  0  0
  7  8  1  0  0  0  0
  7  9  1  0  0  0  0
 20 21  1  0  0  0  0
 20 22  1  0  0  0  0
 20 23  1  0  0  0  0
 18 19  1  0  0  0  0
 18 20  1  0  0  0  0
M  END
$$$$
default_name
  -OEChem-01062215323D

 23 22  0     1  0  0  0  0  0999 V2000
   -2.6857   -3.6684    0.8743 H   0  0  0  0  0  0  0  0  0  0  0  0
   -2.6617   -2.6474    0.4953 C   0  0  0  0  0  0  0  0  0  0  0  0
   -3.2657   -2.0054    1.1353 H   0  0  0  0  0  0  0  0  0  0  0  0
   -3.0477   -2.6254   -0.5217 H   0  0  0  0  0  0  0  0  0  0  0  0
   -1.2337   -2.1564    0.4993 C   0  0  0  0  0  0  0  0  0  0  0  0
   -0.3327   -2.8864    0.8893 O   0  0  0  0  0  0  0  0  0  0  0  0
   -1.0277   -0.9164    0.0623 N   0  0  0  0  0  0  0  0  0  0  0  0
   -1.8237   -0.3604   -0.2157 H   0  0  0  0  0  0  0  0  0  0  0  0
    0.2713   -0.2414    0.0463 C   0  0  1  0  0  0  0  0  0  0  0  0
    1.0542   -0.9823    0.2202 H   0  0  0  0  0  0  0  0  0  0  0  0
    0.4849    0.3735   -1.3466 C   0  0  0  0  0  0  0  0  0  0  0  0
   -0.3654    1.0173   -1.5824 H   0  0  0  0  0  0  0  0  0  0  0  0
    1.3934    0.9792   -1.3418 H   0  0  0  0  0  0  0  0  0  0  0  0
    0.6088   -0.9149   -2.6218 S   0  0  0  0  0  0  0  0  0  0  0  0
    0.6633   -0.0962   -3.6793 H   0  0  0  0  0  0  0  0  0  0  0  0
    0.3411    0.8018    1.1802 C   0  0  0  0  0  0  0  0  0  0  0  0
    0.2384    2.0007    0.9186 O   0  0  0  0  0  0  0  0  0  0  0  0
    0.5066    0.3542    2.4302 N   0  0  0  0  0  0  0  0  0  0  0  0
    0.6461   -0.6384    2.5521 H   0  0  0  0  0  0  0  0  0  0  0  0
    0.5838    1.2130    3.6107 C   0  0  0  0  0  0  0  0  0  0  0  0
   -0.2533    1.9148    3.6126 H   0  0  0  0  0  0  0  0  0  0  0  0
    0.5490    0.6099    4.5187 H   0  0  0  0  0  0  0  0  0  0  0  0
    1.5151    1.7815    3.5900 H   0  0  0  0  0  0  0  0  0  0  0  0
  5  6  2  0  0  0  0
  5  7  1  0  0  0  0
  2  3  1  0  0  0  0
  2  4  1  0  0  0  0
  2  5  1  0  0  0  0
  1  2  1  0  0  0  0
 16 17  2  0  0  0  0
 16 18  1  0  0  0  0
 14 15  1  0  0  0  0
 11 12  1  0  0  0  0
 11 13  1  0  0  0  0
 11 14  1  0  0  0  0
  9 10  1  0  0  0  0
  9 11  1  0  0  0  0
  9 16  1  0  0  0  0
  7  8  1  0  0  0  0
  7  9  1  0  0  0  0
 20 21  1  0  0  0  0
 20 22  1  0  0  0  0
 20 23  1  0  0  0  0
 18 19  1  0  0  0  0
 18 20  1  0  0  0  0
M  END
$$$$
default_name
  -OEChem-01062215323D

 23 22  0     1  0  0  0  0  0999 V2000
   -2.6857   -3.6684    0.8743 H   0  0  0  0  0  0  0  0  0  0  0  0
   -2.6617   -2.6474    0.4953 C   0  0  0  0  0  0  0  0  0  0  0  0
   -3.2657   -2.0054    1.1353 H   0  0  0  0  0  0  0  0  0  0  0  0
   -3.0477   -2.6254   -0.5217 H   0  0  0  0  0  0  0  0  0  0  0  0
   -1.2337   -2.1564    0.4993 C   0  0  0  0  0  0  0  0  0  0  0  0
   -0.3327   -2.8864    0.8893 O   0  0  0  0  0  0  0  0  0  0  0  0
   -1.0277   -0.9164    0.0623 N   0  0  0  0  0  0  0  0  0  0  0  0
   -1.8237   -0.3604   -0.2157 H   0  0  0  0  0  0  0  0  0  0  0  0
    0.2713   -0.2414    0.0463 C   0  0  1  0  0  0  0  0  0  0  0  0
    1.0542   -0.9823    0.2202 H   0  0  0  0  0  0  0  0  0  0  0  0
    0.4849    0.3735   -1.3466 C   0  0  0  0  0  0  0  0  0  0  0  0
   -0.3654    1.0173   -1.5824 H   0  0  0  0  0  0  0  0  0  0  0  0
    1.3934    0.9792   -1.3418 H   0  0  0  0  0  0  0  0  0  0  0  0
    0.6088   -0.9149   -2.6218 S   0  0  0  0  0  0  0  0  0  0  0  0
    0.6633   -0.0962   -3.6793 H   0  0  0  0  0  0  0  0  0  0  0  0
    0.3411    0.8018    1.1802 C   0  0  0  0  0  0  0  0  0  0  0  0
   -0.0311    1.9576    0.9749 O   0  0  0  0  0  0  0  0  0  0  0  0
    0.8059    0.4007    2.3691 N   0  0  0  0  0  0  0  0  0  0  0  0
    1.1500   -0.5463    2.4364 H   0  0  0  0  0  0  0  0  0  0  0  0
    0.9260    1.2645    3.5422 C   0  0  0  0  0  0  0  0  0  0  0  0
   -0.0151    1.7932    3.7098 H   0  0  0  0  0  0  0  0  0  0  0  0
    1.1665    0.6707    4.4248 H   0  0  0  0  0  0  0  0  0  0  0  0
    1.7144    2.0006    3.3762 H   0  0  0  0  0  0  0  0  0  0  0  0
  5  6  2  0  0  0  0
  5  7  1  0  0  0  0
  2  3  1  0  0  0  0
  2  4  1  0  0  0  0
  2  5  1  0  0  0  0
  1  2  1  0  0  0  0
 16 17  2  0  0  0  0
 16 18  1  0  0  0  0
 14 15  1  0  0  0  0
 11 12  1  0  0  0  0
 11 13  1  0  0  0  0
 11 14  1  0  0  0  0
  9 10  1  0  0  0  0
  9 11  1  0  0  0  0
  9 16  1  0  0  0  0
  7  8  1  0  0  0  0
  7  9  1  0  0  0  0
 20 21  1  0  0  0  0
 20 22  1  0  0  0  0
 20 23  1  0  0  0  0
 18 19  1  0  0  0  0
 18 20  1  0  0  0  0
M  END
$$$$
default_name
  -OEChem-01062215323D

 23 22  0     1  0  0  0  0  0999 V2000
   -2.6857   -3.6684    0.8743 H   0  0  0  0  0  0  0  0  0  0  0  0
   -2.6617   -2.6474    0.4953 C   0  0  0  0  0  0  0  0  0  0  0  0
   -3.2657   -2.0054    1.1353 H   0  0  0  0  0  0  0  0  0  0  0  0
   -3.0477   -2.6254   -0.5217 H   0  0  0  0  0  0  0  0  0  0  0  0
   -1.2337   -2.1564    0.4993 C   0  0  0  0  0  0  0  0  0  0  0  0
   -0.3327   -2.8864    0.8893 O   0  0  0  0  0  0  0  0  0  0  0  0
   -1.0277   -0.9164    0.0623 N   0  0  0  0  0  0  0  0  0  0  0  0
   -1.8237   -0.3604   -0.2157 H   0  0  0  0  0  0  0  0  0  0  0  0
    0.2713   -0.2414    0.0463 C   0  0  1  0  0  0  0  0  0  0  0  0
    1.0542   -0.9823    0.2202 H   0  0  0  0  0  0  0  0  0  0  0  0
    0.4849    0.3735   -1.3466 C   0  0  0  0  0  0  0  0  0  0  0  0
   -0.3654    1.0173   -1.5824 H   0  0  0  0  0  0  0  0  0  0  0  0
    1.3934    0.9792   -1.3418 H   0  0  0  0  0  0  0  0  0  0  0  0
    0.6088   -0.9149   -2.6218 S   0  0  0  0  0  0  0  0  0  0  0  0
    0.6633   -0.0962   -3.6793 H   0  0  0  0  0  0  0  0  0  0  0  0
    0.3411    0.8018    1.1802 C   0  0  0  0  0  0  0  0  0  0  0  0
   -0.2733    1.8639    1.0760 O   0  0  0  0  0  0  0  0  0  0  0  0
    1.0755    0.5033    2.2581 N   0  0  0  0  0  0  0  0  0  0  0  0
    1.5989   -0.3600    2.2374 H   0  0  0  0  0  0  0  0  0  0  0  0
    1.2347    1.3802    3.4167 C   0  0  0  0  0  0  0  0  0  0  0  0
    0.2551    1.7200    3.7605 H   0  0  0  0  0  0  0  0  0  0  0  0
    1.7349    0.8481    4.2266 H   0  0  0  0  0  0  0  0  0  0  0  0
    1.8278    2.2527    3.1373 H   0  0  0  0  0  0  0  0  0  0  0  0
  5  6  2  0  0  0  0
  5  7  1  0  0  0  0
  2  3  1  0  0  0  0
  2  4  1  0  0  0  0
  2  5  1  0  0  0  0
  1  2  1  0  0  0  0
 16 17  2  0  0  0  0
 16 18  1  0  0  0  0
 14 15  1  0  0  0  0
 11 12  1  0  0  0  0
 11 13  1  0  0  0  0
 11 14  1  0  0  0  0
  9 10  1  0  0  0  0
  9 11  1  0  0  0  0
  9 16  1  0  0  0  0
  7  8  1  0  0  0  0
  7  9  1  0  0  0  0
 20 21  1  0  0  0  0
 20 22  1  0  0  0  0
 20 23  1  0  0  0  0
 18 19  1  0  0  0  0
 18 20  1  0  0  0  0
M  END
$$$$
default_name
  -OEChem-01062215323D

 23 22  0     1  0  0  0  0  0999 V2000
   -2.6857   -3.6684    0.8743 H   0  0  0  0  0  0  0  0  0  0  0  0
   -2.6617   -2.6474    0.4953 C   0  0  0  0  0  0  0  0  0  0  0  0
   -3.2657   -2.0054    1.1353 H   0  0  0  0  0  0  0  0  0  0  0  0
   -3.0477   -2.6254   -0.5217 H   0  0  0  0  0  0  0  0  0  0  0  0
   -1.2337   -2.1564    0.4993 C   0  0  0  0  0  0  0  0  0  0  0  0
   -0.3327   -2.8864    0.8893 O   0  0  0  0  0  0  0  0  0  0  0  0
   -1.0277   -0.9164    0.0623 N   0  0  0  0  0  0  0  0  0  0  0  0
   -1.8237   -0.3604   -0.2157 H   0  0  0  0  0  0  0  0  0  0  0  0
    0.2713   -0.2414    0.0463 C   0  0  1  0  0  0  0  0  0  0  0  0
    1.0542   -0.9823    0.2202 H   0  0  0  0  0  0  0  0  0  0  0  0
    0.4849    0.3735   -1.3466 C   0  0  0  0  0  0  0  0  0  0  0  0
   -0.3654    1.0173   -1.5824 H   0  0  0  0  0  0  0  0  0  0  0  0
    1.3934    0.9792   -1.3418 H   0  0  0  0  0  0  0  0  0  0  0  0
    0.6088   -0.9149   -2.6218 S   0  0  0  0  0  0  0  0  0  0  0  0
    0.6633   -0.0962   -3.6793 H   0  0  0  0  0  0  0  0  0  0  0  0
    0.3411    0.8018    1.1802 C   0  0  0  0  0  0  0  0  0  0  0  0
   -0.4718    1.7262    1.2149 O   0  0  0  0  0  0  0  0  0  0  0  0
    1.2969    0.6549    2.1049 N   0  0  0  0  0  0  0  0  0  0  0  0
    1.9622   -0.0923    1.9688 H   0  0  0  0  0  0  0  0  0  0  0  0
    1.4889    1.5522    3.2428 C   0  0  0  0  0  0  0  0  0  0  0  0
    0.5389    1.7001    3.7614 H   0  0  0  0  0  0  0  0  0  0  0  0
    2.2155    1.1298    3.9378 H   0  0  0  0  0  0  0  0  0  0  0  0
    1.8475    2.5206    2.8896 H   0  0  0  0  0  0  0  0  0  0  0  0
  5  6  2  0  0  0  0
  5  7  1  0  0  0  0
  2  3  1  0  0  0  0
  2  4  1  0  0  0  0
  2  5  1  0  0  0  0
  1  2  1  0  0  0  0
 16 17  2  0  0  0  0
 16 18  1  0  0  0  0
 14 15  1  0  0  0  0
 11 12  1  0  0  0  0
 11 13  1  0  0  0  0
 11 14  1  0  0  0  0
  9 10  1  0  0  0  0
  9 11  1  0  0  0  0
  9 16  1  0  0  0  0
  7  8  1  0  0  0  0
  7  9  1  0  0  0  0
 20 21  1  0  0  0  0
 20 22  1  0  0  0  0
 20 23  1  0  0  0  0
 18 19  1  0  0  0  0
 18 20  1  0  0  0  0
M  END
$$$$
default_name
  -OEChem-01062215323D

 23 22  0     1  0  0  0  0  0999 V2000
   -2.6857   -3.6684    0.8743 H   0  0  0  0  0  0  0  0  0  0  0  0
   -2.6617   -2.6474    0.4953 C   0  0  0  0  0  0  0  0  0  0  0  0
   -3.2657   -2.0054    1.1353 H   0  0  0  0  0  0  0  0  0  0  0  0
   -3.0477   -2.6254   -0.5217 H   0  0  0  0  0  0  0  0  0  0  0  0
   -1.2337   -2.1564    0.4993 C   0  0  0  0  0  0  0  0  0  0  0  0
   -0.3327   -2.8864    0.8893 O   0  0  0  0  0  0  0  0  0  0  0  0
   -1.0277   -0.9164    0.0623 N   0  0  0  0  0  0  0  0  0  0  0  0
   -1.8237   -0.3604   -0.2157 H   0  0  0  0  0  0  0  0  0  0  0  0
    0.2713   -0.2414    0.0463 C   0  0  1  0  0  0  0  0  0  0  0  0
    1.0542   -0.9823    0.2202 H   0  0  0  0  0  0  0  0  0  0  0  0
    0.4849    0.3735   -1.3466 C   0  0  0  0  0  0  0  0  0  0  0  0
   -0.3654    1.0173   -1.5824 H   0  0  0  0  0  0  0  0  0  0  0  0
    1.3934    0.9792   -1.3418 H   0  0  0  0  0  0  0  0  0  0  0  0
    0.6088   -0.9149   -2.6218 S   0  0  0  0  0  0  0  0  0  0  0  0
    0.6633   -0.0962   -3.6793 H   0  0  0  0  0  0  0  0  0  0  0  0
    0.3411    0.8018    1.1802 C   0  0  0  0  0  0  0  0  0  0  0  0
   -0.6129    1.5538    1.3822 O   0  0  0  0  0  0  0  0  0  0  0  0
    1.4552    0.8454    1.9200 N   0  0  0  0  0  0  0  0  0  0  0  0
    2.2153    0.2385    1.6488 H   0  0  0  0  0  0  0  0  0  0  0  0
    1.6713    1.7688    3.0324 C   0  0  0  0  0  0  0  0  0  0  0  0
    0.8170    1.7349    3.7123 H   0  0  0  0  0  0  0  0  0  0  0  0
    2.5756    1.4968    3.5780 H   0  0  0  0  0  0  0  0  0  0  0  0
    1.7722    2.7859    2.6501 H   0  0  0  0  0  0  0  0  0  0  0  0
  5  6  2  0  0  0  0
  5  7  1  0  0  0  0
  2  3  1  0  0  0  0
  2  4  1  0  0  0  0
  2  5  1  0  0  0  0
  1  2  1  0  0  0  0
 16 17  2  0  0  0  0
 16 18  1  0  0  0  0
 14 15  1  0  0  0  0
 11 12  1  0  0  0  0
 11 13  1  0  0  0  0
 11 14  1  0  0  0  0
  9 10  1  0  0  0  0
  9 11  1  0  0  0  0
  9 16  1  0  0  0  0
  7  8  1  0  0  0  0
  7  9  1  0  0  0  0
 20 21  1  0  0  0  0
 20 22  1  0  0  0  0
 20 23  1  0  0  0  0
 18 19  1  0  0  0  0
 18 20  1  0  0  0  0
M  END
$$$$
default_name
  -OEChem-01062215323D

 23 22  0     1  0  0  0  0  0999 V2000
   -2.6857   -3.6684    0.8743 H   0  0  0  0  0  0  0  0  0  0  0  0
   -2.6617   -2.6474    0.4953 C   0  0  0  0  0  0  0  0  0  0  0  0
   -3.2657   -2.0054    1.1353 H   0  0  0  0  0  0  0  0  0  0  0  0
   -3.0477   -2.6254   -0.5217 H   0  0  0  0  0  0  0  0  0  0  0  0
   -1.2337   -2.1564    0.4993 C   0  0  0  0  0  0  0  0  0  0  0  0
   -0.3327   -2.8864    0.8893 O   0  0  0  0  0  0  0  0  0  0  0  0
   -1.0277   -0.9164    0.0623 N   0  0  0  0  0  0  0  0  0  0  0  0
   -1.8237   -0.3604   -0.2157 H   0  0  0  0  0  0  0  0  0  0  0  0
    0.2713   -0.2414    0.0463 C   0  0  1  0  0  0  0  0  0  0  0  0
    1.0542   -0.9823    0.2202 H   0  0  0  0  0  0  0  0  0  0  0  0
    0.4849    0.3735   -1.3466 C   0  0  0  0  0  0  0  0  0  0  0  0
   -0.3654    1.0173   -1.5824 H   0  0  0  0  0  0  0  0  0  0  0  0
    1.3934    0.9792   -1.3418 H   0  0  0  0  0  0  0  0  0  0  0  0
    0.6088   -0.9149   -2.6218 S   0  0  0  0  0  0  0  0  0  0  0  0
    0.6633   -0.0962   -3.6793 H   0  0  0  0  0  0  0  0  0  0  0  0
    0.3411    0.8018    1.1802 C   0  0  0  0  0  0  0  0  0  0  0  0
   -0.6872    1.3584    1.5665 O   0  0  0  0  0  0  0  0  0  0  0  0
    1.5394    1.0616    1.7159 N   0  0  0  0  0  0  0  0  0  0  0  0
    2.3407    0.6099    1.2994 H   0  0  0  0  0  0  0  0  0  0  0  0
    1.7694    2.0151    2.7997 C   0  0  0  0  0  0  0  0  0  0  0  0
    1.0703    1.8219    3.6166 H   0  0  0  0  0  0  0  0  0  0  0  0
    2.7906    1.9241    3.1718 H   0  0  0  0  0  0  0  0  0  0  0  0
    1.6071    3.0308    2.4350 H   0  0  0  0  0  0  0  0  0  0  0  0
  5  6  2  0  0  0  0
  5  7  1  0  0  0  0
  2  3  1  0  0  0  0
  2  4  1  0  0  0  0
  2  5  1  0  0  0  0
  1  2  1  0  0  0  0
 16 17  2  0  0  0  0
 16 18  1  0  0  0  0
 14 15  1  0  0  0  0
 11 12  1  0  0  0  0
 11 13  1  0  0  0  0
 11 14  1  0  0  0  0
  9 10  1  0  0  0  0
  9 11  1  0  0  0  0
  9 16  1  0  0  0  0
  7  8  1  0  0  0  0
  7  9  1  0  0  0  0
 20 21  1  0  0  0  0
 20 22  1  0  0  0  0
 20 23  1  0  0  0  0
 18 19  1  0  0  0  0
 18 20  1  0  0  0  0
M  END
$$$$
default_name
  -OEChem-01062215323D

 23 22  0     1  0  0  0  0  0999 V2000
   -2.6857   -3.6684    0.8743 H   0  0  0  0  0  0  0  0  0  0  0  0
   -2.6617   -2.6474    0.4953 C   0  0  0  0  0  0  0  0  0  0  0  0
   -3.2657   -2.0054    1.1353 H   0  0  0  0  0  0  0  0  0  0  0  0
   -3.0477   -2.6254   -0.5217 H   0  0  0  0  0  0  0  0  0  0  0  0
   -1.2337   -2.1564    0.4993 C   0  0  0  0  0  0  0  0  0  0  0  0
   -0.3327   -2.8864    0.8893 O   0  0  0  0  0  0  0  0  0  0  0  0
   -1.0277   -0.9164    0.0623 N   0  0  0  0  0  0  0  0  0  0  0  0
   -1.8237   -0.3604   -0.2157 H   0  0  0  0  0  0  0  0  0  0  0  0
    0.2713   -0.2414    0.0463 C   0  0  1  0  0  0  0  0  0  0  0  0
    1.0542   -0.9823    0.2202 H   0  0  0  0  0  0  0  0  0  0  0  0
    0.4849    0.3735   -1.3466 C   0  0  0  0  0  0  0  0  0  0  0  0
   -0.3654    1.0173   -1.5824 H   0  0  0  0  0  0  0  0  0  0  0  0
    1.3934    0.9792   -1.3418 H   0  0  0  0  0  0  0  0  0  0  0  0
    0.6088   -0.9149   -2.6218 S   0  0  0  0  0  0  0  0  0  0  0  0
    0.6633   -0.0962   -3.6793 H   0  0  0  0  0  0  0  0  0  0  0  0
    0.3411    0.8018    1.1802 C   0  0  0  0  0  0  0  0  0  0  0  0
   -0.6895    1.1534    1.7553 O   0  0  0  0  0  0  0  0  0  0  0  0
    1.5439    1.2888    1.5065 N   0  0  0  0  0  0  0  0  0  0  0  0
    2.3300    0.9966    0.9443 H   0  0  0  0  0  0  0  0  0  0  0  0
    1.7766    2.2744    2.5607 C   0  0  0  0  0  0  0  0  0  0  0  0
    1.2818    1.9554    3.4808 H   0  0  0  0  0  0  0  0  0  0  0  0
    2.8458    2.3824    2.7467 H   0  0  0  0  0  0  0  0  0  0  0  0
    1.3633    3.2383    2.2590 H   0  0  0  0  0  0  0  0  0  0  0  0
  5  6  2  0  0  0  0
  5  7  1  0  0  0  0
  2  3  1  0  0  0  0
  2  4  1  0  0  0  0
  2  5  1  0  0  0  0
  1  2  1  0  0  0  0
 16 17  2  0  0  0  0
 16 18  1  0  0  0  0
 14 15  1  0  0  0  0
 11 12  1  0  0  0  0
 11 13  1  0  0  0  0
 11 14  1  0  0  0  0
  9 10  1  0  0  0  0
  9 11  1  0  0  0  0
  9 16  1  0  0  0  0
  7  8  1  0  0  0  0
  7  9  1  0  0  0  0
 20 21  1  0  0  0  0
 20 22  1  0  0  0  0
 20 23  1  0  0  0  0
 18 19  1  0  0  0  0
 18 20  1  0  0  0  0
M  END
$$$$
default_name
  -OEChem-01062215323D

 23 22  0     1  0  0  0  0  0999 V2000
   -2.6857   -3.6684    0.8743 H   0  0  0  0  0  0  0  0  0  0  0  0
   -2.6617   -2.6474    0.4953 C   0  0  0  0  0  0  0  0  0  0  0  0
   -3.2657   -2.0054    1.1353 H   0  0  0  0  0  0  0  0  0  0  0  0
   -3.0477   -2.6254   -0.5217 H   0  0  0  0  0  0  0  0  0  0  0  0
   -1.2337   -2.1564    0.4993 C   0  0  0  0  0  0  0  0  0  0  0  0
   -0.3327   -2.8864    0.8893 O   0  0  0  0  0  0  0  0  0  0  0  0
   -1.0277   -0.9164    0.0623 N   0  0  0  0  0  0  0  0  0  0  0  0
   -1.8237   -0.3604   -0.2157 H   0  0  0  0  0  0  0  0  0  0  0  0
    0.2713   -0.2414    0.0463 C   0  0  1  0  0  0  0  0  0  0  0  0
    1.0568   -0.9937   -0.0494 H   0  0  0  0  0  0  0  0  0  0  0  0
    0.3279    0.6795   -1.1836 C   0  0  0  0  0  0  0  0  0  0  0  0
   -0.5335    1.3508   -1.1619 H   0  0  0  0  0  0  0  0  0  0  0  0
    1.2405    1.2780   -1.1486 H   0  0  0  0  0  0  0  0  0  0  0  0
    0.2776   -0.2798   -2.7258 S   0  0  0  0  0  0  0  0  0  0  0  0
    0.2196    0.7605   -3.5660 H   0  0  0  0  0  0  0  0  0  0  0  0
    0.4930    0.5140    1.3726 C   0  0  0  0  0  0  0  0  0  0  0  0
   -0.3684    0.4766    2.2519 O   0  0  0  0  0  0  0  0  0  0  0  0
    1.6389    1.1884    1.5223 N   0  0  0  0  0  0  0  0  0  0  0  0
    2.2639    1.2213    0.7299 H   0  0  0  0  0  0  0  0  0  0  0  0
    2.0005    1.9453    2.7195 C   0  0  0  0  0  0  0  0  0  0  0  0
    1.8570    1.3245    3.6067 H   0  0  0  0  0  0  0  0  0  0  0  0
    3.0433    2.2600    2.6661 H   0  0  0  0  0  0  0  0  0  0  0  0
    1.3613    2.8259    2.8033 H   0  0  0  0  0  0  0  0  0  0  0  0
  5  6  2  0  0  0  0
  5  7  1  0  0  0  0
  2  3  1  0  0  0  0
  2  4  1  0  0  0  0
  2  5  1  0  0  0  0
  1  2  1  0  0  0  0
 16 17  2  0  0  0  0
 16 18  1  0  0  0  0
 14 15  1  0  0  0  0
 11 12  1  0  0  0  0
 11 13  1  0  0  0  0
 11 14  1  0  0  0  0
  9 10  1  0  0  0  0
  9 11  1  0  0  0  0
  9 16  1  0  0  0  0
  7  8  1  0  0  0  0
  7  9  1  0  0  0  0
 20 21  1  0  0  0  0
 20 22  1  0  0  0  0
 20 23  1  0  0  0  0
 18 19  1  0  0  0  0
 18 20  1  0  0  0  0
M  END
$$$$
default_name
  -OEChem-01062215323D

 23 22  0     1  0  0  0  0  0999 V2000
   -2.6857   -3.6684    0.8743 H   0  0  0  0  0  0  0  0  0  0  0  0
   -2.6617   -2.6474    0.4953 C   0  0  0  0  0  0  0  0  0  0  0  0
   -3.2657   -2.0054    1.1353 H   0  0  0  0  0  0  0  0  0  0  0  0
   -3.0477   -2.6254   -0.5217 H   0  0  0  0  0  0  0  0  0  0  0  0
   -1.2337   -2.1564    0.4993 C   0  0  0  0  0  0  0  0  0  0  0  0
   -0.3327   -2.8864    0.8893 O   0  0  0  0  0  0  0  0  0  0  0  0
   -1.0277   -0.9164    0.0623 N   0  0  0  0  0  0  0  0  0  0  0  0
   -1.8237   -0.3604   -0.2157 H   0  0  0  0  0  0  0  0  0  0  0  0
    0.2713   -0.2414    0.0463 C   0  0  1  0  0  0  0  0  0  0  0  0
    1.0568   -0.9937   -0.0494 H   0  0  0  0  0  0  0  0  0  0  0  0
    0.3279    0.6795   -1.1836 C   0  0  0  0  0  0  0  0  0  0  0  0
   -0.5335    1.3508   -1.1619 H   0  0  0  0  0  0  0  0  0  0  0  0
    1.2405    1.2780   -1.1486 H   0  0  0  0  0  0  0  0  0  0  0  0
    0.2776   -0.2798   -2.7258 S   0  0  0  0  0  0  0  0  0  0  0  0
    0.2196    0.7605   -3.5660 H   0  0  0  0  0  0  0  0  0  0  0  0
    0.4930    0.5140    1.3726 C   0  0  0  0  0  0  0  0  0  0  0  0
   -0.2162    0.2638    2.3477 O   0  0  0  0  0  0  0  0  0  0  0  0
    1.4718    1.4253    1.4153 N   0  0  0  0  0  0  0  0  0  0  0  0
    1.9649    1.6160    0.5551 H   0  0  0  0  0  0  0  0  0  0  0  0
    1.8114    2.2166    2.5965 C   0  0  0  0  0  0  0  0  0  0  0  0
    1.9257    1.5593    3.4615 H   0  0  0  0  0  0  0  0  0  0  0  0
    2.7432    2.7590    2.4320 H   0  0  0  0  0  0  0  0  0  0  0  0
    1.0107    2.9286    2.8033 H   0  0  0  0  0  0  0  0  0  0  0  0
  5  6  2  0  0  0  0
  5  7  1  0  0  0  0
  2  3  1  0  0  0  0
  2  4  1  0  0  0  0
  2  5  1  0  0  0  0
  1  2  1  0  0  0  0
 16 17  2  0  0  0  0
 16 18  1  0  0  0  0
 14 15  1  0  0  0  0
 11 12  1  0  0  0  0
 11 13  1  0  0  0  0
 11 14  1  0  0  0  0
  9 10  1  0  0  0  0
  9 11  1  0  0  0  0
  9 16  1  0  0  0  0
  7  8  1  0  0  0  0
  7  9  1  0  0  0  0
 20 21  1  0  0  0  0
 20 22  1  0  0  0  0
 20 23  1  0  0  0  0
 18 19  1  0  0  0  0
 18 20  1  0  0  0  0
M  END
$$$$
default_name
  -OEChem-01062215323D

 23 22  0     1  0  0  0  0  0999 V2000
   -2.6857   -3.6684    0.8743 H   0  0  0  0  0  0  0  0  0  0  0  0
   -2.6617   -2.6474    0.4953 C   0  0  0  0  0  0  0  0  0  0  0  0
   -3.2657   -2.0054    1.1353 H   0  0  0  0  0  0  0  0  0  0  0  0
   -3.0477   -2.6254   -0.5217 H   0  0  0  0  0  0  0  0  0  0  0  0
   -1.2337   -2.1564    0.4993 C   0  0  0  0  0  0  0  0  0  0  0  0
   -0.3327   -2.8864    0.8893 O   0  0  0  0  0  0  0  0  0  0  0  0
   -1.0277   -0.9164    0.0623 N   0  0  0  0  0  0  0  0  0  0  0  0
   -1.8237   -0.3604   -0.2157 H   0  0  0  0  0  0  0  0  0  0  0  0
    0.2713   -0.2414    0.0463 C   0  0  1  0  0  0  0  0  0  0  0  0
    1.0568   -0.9937   -0.0494 H   0  0  0  0  0  0  0  0  0  0  0  0
    0.3279    0.6795   -1.1836 C   0  0  0  0  0  0  0  0  0  0  0  0
   -0.5335    1.3508   -1.1619 H   0  0  0  0  0  0  0  0  0  0  0  0
    1.2405    1.2780   -1.1486 H   0  0  0  0  0  0  0  0  0  0  0  0
    0.2776   -0.2798   -2.7258 S   0  0  0  0  0  0  0  0  0  0  0  0
    0.2196    0.7605   -3.5660 H   0  0  0  0  0  0  0  0  0  0  0  0
    0.4930    0.5140    1.3726 C   0  0  0  0  0  0  0  0  0  0  0  0
   -0.0098    0.0884    2.4131 O   0  0  0  0  0  0  0  0  0  0  0  0
    1.2441    1.6209    1.3420 N   0  0  0  0  0  0  0  0  0  0  0  0
    1.5661    1.9373    0.4387 H   0  0  0  0  0  0  0  0  0  0  0  0
    1.5529    2.4411    2.5119 C   0  0  0  0  0  0  0  0  0  0  0  0
    1.9213    1.8068    3.3213 H   0  0  0  0  0  0  0  0  0  0  0  0
    2.3126    3.1828    2.2626 H   0  0  0  0  0  0  0  0  0  0  0  0
    0.6492    2.9499    2.8517 H   0  0  0  0  0  0  0  0  0  0  0  0
  5  6  2  0  0  0  0
  5  7  1  0  0  0  0
  2  3  1  0  0  0  0
  2  4  1  0  0  0  0
  2  5  1  0  0  0  0
  1  2  1  0  0  0  0
 16 17  2  0  0  0  0
 16 18  1  0  0  0  0
 14 15  1  0  0  0  0
 11 12  1  0  0  0  0
 11 13  1  0  0  0  0
 11 14  1  0  0  0  0
  9 10  1  0  0  0  0
  9 11  1  0  0  0  0
  9 16  1  0  0  0  0
  7  8  1  0  0  0  0
  7  9  1  0  0  0  0
 20 21  1  0  0  0  0
 20 22  1  0  0  0  0
 20 23  1  0  0  0  0
 18 19  1  0  0  0  0
 18 20  1  0  0  0  0
M  END
$$$$
default_name
  -OEChem-01062215323D

 23 22  0     1  0  0  0  0  0999 V2000
   -2.6857   -3.6684    0.8743 H   0  0  0  0  0  0  0  0  0  0  0  0
   -2.6617   -2.6474    0.4953 C   0  0  0  0  0  0  0  0  0  0  0  0
   -3.2657   -2.0054    1.1353 H   0  0  0  0  0  0  0  0  0  0  0  0
   -3.0477   -2.6254   -0.5217 H   0  0  0  0  0  0  0  0  0  0  0  0
   -1.2337   -2.1564    0.4993 C   0  0  0  0  0  0  0  0  0  0  0  0
   -0.3327   -2.8864    0.8893 O   0  0  0  0  0  0  0  0  0  0  0  0
   -1.0277   -0.9164    0.0623 N   0  0  0  0  0  0  0  0  0  0  0  0
   -1.8237   -0.3604   -0.2157 H   0  0  0  0  0  0  0  0  0  0  0  0
    0.2713   -0.2414    0.0463 C   0  0  1  0  0  0  0  0  0  0  0  0
    1.0568   -0.9937   -0.0494 H   0  0  0  0  0  0  0  0  0  0  0  0
    0.3279    0.6795   -1.1836 C   0  0  0  0  0  0  0  0  0  0  0  0
   -0.5335    1.3508   -1.1619 H   0  0  0  0  0  0  0  0  0  0  0  0
    1.2405    1.2780   -1.1486 H   0  0  0  0  0  0  0  0  0  0  0  0
    0.2776   -0.2798   -2.7258 S   0  0  0  0  0  0  0  0  0  0  0  0
    0.2196    0.7605   -3.5660 H   0  0  0  0  0  0  0  0  0  0  0  0
    0.4930    0.5140    1.3726 C   0  0  0  0  0  0  0  0  0  0  0  0
    0.2370   -0.0374    2.4435 O   0  0  0  0  0  0  0  0  0  0  0  0
    0.9713    1.7619    1.3072 N   0  0  0  0  0  0  0  0  0  0  0  0
    1.0946    2.1632    0.3889 H   0  0  0  0  0  0  0  0  0  0  0  0
    1.2425    2.6036    2.4712 C   0  0  0  0  0  0  0  0  0  0  0  0
    1.8442    2.0501    3.1956 H   0  0  0  0  0  0  0  0  0  0  0  0
    1.7809    3.5027    2.1692 H   0  0  0  0  0  0  0  0  0  0  0  0
    0.3014    2.8881    2.9450 H   0  0  0  0  0  0  0  0  0  0  0  0
  5  6  2  0  0  0  0
  5  7  1  0  0  0  0
  2  3  1  0  0  0  0
  2  4  1  0  0  0  0
  2  5  1  0  0  0  0
  1  2  1  0  0  0  0
 16 17  2  0  0  0  0
 16 18  1  0  0  0  0
 14 15  1  0  0  0  0
 11 12  1  0  0  0  0
 11 13  1  0  0  0  0
 11 14  1  0  0  0  0
  9 10  1  0  0  0  0
  9 11  1  0  0  0  0
  9 16  1  0  0  0  0
  7  8  1  0  0  0  0
  7  9  1  0  0  0  0
 20 21  1  0  0  0  0
 20 22  1  0  0  0  0
 20 23  1  0  0  0  0
 18 19  1  0  0  0  0
 18 20  1  0  0  0  0
M  END
$$$$
default_name
  -OEChem-01062215323D

 23 22  0     1  0  0  0  0  0999 V2000
   -2.6857   -3.6684    0.8743 H   0  0  0  0  0  0  0  0  0  0  0  0
   -2.6617   -2.6474    0.4953 C   0  0  0  0  0  0  0  0  0  0  0  0
   -3.2657   -2.0054    1.1353 H   0  0  0  0  0  0  0  0  0  0  0  0
   -3.0477   -2.6254   -0.5217 H   0  0  0  0  0  0  0  0  0  0  0  0
   -1.2337   -2.1564    0.4993 C   0  0  0  0  0  0  0  0  0  0  0  0
   -0.3327   -2.8864    0.8893 O   0  0  0  0  0  0  0  0  0  0  0  0
   -1.0277   -0.9164    0.0623 N   0  0  0  0  0  0  0  0  0  0  0  0
   -1.8237   -0.3604   -0.2157 H   0  0  0  0  0  0  0  0  0  0  0  0
    0.2713   -0.2414    0.0463 C   0  0  1  0  0  0  0  0  0  0  0  0
    1.0568   -0.9937   -0.0494 H   0  0  0  0  0  0  0  0  0  0  0  0
    0.3279    0.6795   -1.1836 C   0  0  0  0  0  0  0  0  0  0  0  0
   -0.5335    1.3508   -1.1619 H   0  0  0  0  0  0  0  0  0  0  0  0
    1.2405    1.2780   -1.1486 H   0  0  0  0  0  0  0  0  0  0  0  0
    0.2776   -0.2798   -2.7258 S   0  0  0  0  0  0  0  0  0  0  0  0
    0.2196    0.7605   -3.5660 H   0  0  0  0  0  0  0  0  0  0  0  0
    0.4930    0.5140    1.3726 C   0  0  0  0  0  0  0  0  0  0  0  0
    0.5072   -0.1052    2.4370 O   0  0  0  0  0  0  0  0  0  0  0  0
    0.6721    1.8387    1.3135 N   0  0  0  0  0  0  0  0  0  0  0  0
    0.5826    2.2783    0.4089 H   0  0  0  0  0  0  0  0  0  0  0  0
    0.9013    2.6930    2.4773 C   0  0  0  0  0  0  0  0  0  0  0  0
    1.6997    2.2726    3.0930 H   0  0  0  0  0  0  0  0  0  0  0  0
    1.1842    3.6968    2.1584 H   0  0  0  0  0  0  0  0  0  0  0  0
   -0.0090    2.7476    3.0769 H   0  0  0  0  0  0  0  0  0  0  0  0
  5  6  2  0  0  0  0
  5  7  1  0  0  0  0
  2  3  1  0  0  0  0
  2  4  1  0  0  0  0
  2  5  1  0  0  0  0
  1  2  1  0  0  0  0
 16 17  2  0  0  0  0
 16 18  1  0  0  0  0
 14 15  1  0  0  0  0
 11 12  1  0  0  0  0
 11 13  1  0  0  0  0
 11 14  1  0  0  0  0
  9 10  1  0  0  0  0
  9 11  1  0  0  0  0
  9 16  1  0  0  0  0
  7  8  1  0  0  0  0
  7  9  1  0  0  0  0
 20 21  1  0  0  0  0
 20 22  1  0  0  0  0
 20 23  1  0  0  0  0
 18 19  1  0  0  0  0
 18 20  1  0  0  0  0
M  END
$$$$
default_name
  -OEChem-01062215323D

 23 22  0     1  0  0  0  0  0999 V2000
   -2.6857   -3.6684    0.8743 H   0  0  0  0  0  0  0  0  0  0  0  0
   -2.6617   -2.6474    0.4953 C   0  0  0  0  0  0  0  0  0  0  0  0
   -3.2657   -2.0054    1.1353 H   0  0  0  0  0  0  0  0  0  0  0  0
   -3.0477   -2.6254   -0.5217 H   0  0  0  0  0  0  0  0  0  0  0  0
   -1.2337   -2.1564    0.4993 C   0  0  0  0  0  0  0  0  0  0  0  0
   -0.3327   -2.8864    0.8893 O   0  0  0  0  0  0  0  0  0  0  0  0
   -1.0277   -0.9164    0.0623 N   0  0  0  0  0  0  0  0  0  0  0  0
   -1.8237   -0.3604   -0.2157 H   0  0  0  0  0  0  0  0  0  0  0  0
    0.2713   -0.2414    0.0463 C   0  0  1  0  0  0  0  0  0  0  0  0
    1.0568   -0.9937   -0.0494 H   0  0  0  0  0  0  0  0  0  0  0  0
    0.3279    0.6795   -1.1836 C   0  0  0  0  0  0  0  0  0  0  0  0
   -0.5335    1.3508   -1.1619 H   0  0  0  0  0  0  0  0  0  0  0  0
    1.2405    1.2780   -1.1486 H   0  0  0  0  0  0  0  0  0  0  0  0
    0.2776   -0.2798   -2.7258 S   0  0  0  0  0  0  0  0  0  0  0  0
    0.2196    0.7605   -3.5660 H   0  0  0  0  0  0  0  0  0  0  0  0
    0.4930    0.5140    1.3726 C   0  0  0  0  0  0  0  0  0  0  0  0
    0.7825   -0.1103    2.3938 O   0  0  0  0  0  0  0  0  0  0  0  0
    0.3667    1.8460    1.3604 N   0  0  0  0  0  0  0  0  0  0  0  0
    0.0650    2.2747    0.4974 H   0  0  0  0  0  0  0  0  0  0  0  0
    0.5526    2.7032    2.5298 C   0  0  0  0  0  0  0  0  0  0  0  0
    1.4976    2.4592    3.0205 H   0  0  0  0  0  0  0  0  0  0  0  0
    0.5633    3.7519    2.2308 H   0  0  0  0  0  0  0  0  0  0  0  0
   -0.2608    2.5379    3.2384 H   0  0  0  0  0  0  0  0  0  0  0  0
  5  6  2  0  0  0  0
  5  7  1  0  0  0  0
  2  3  1  0  0  0  0
  2  4  1  0  0  0  0
  2  5  1  0  0  0  0
  1  2  1  0  0  0  0
 16 17  2  0  0  0  0
 16 18  1  0  0  0  0
 14 15  1  0  0  0  0
 11 12  1  0  0  0  0
 11 13  1  0  0  0  0
 11 14  1  0  0  0  0
  9 10  1  0  0  0  0
  9 11  1  0  0  0  0
  9 16  1  0  0  0  0
  7  8  1  0  0  0  0
  7  9  1  0  0  0  0
 20 21  1  0  0  0  0
 20 22  1  0  0  0  0
 20 23  1  0  0  0  0
 18 19  1  0  0  0  0
 18 20  1  0  0  0  0
M  END
$$$$
default_name
  -OEChem-01062215323D

 23 22  0     1  0  0  0  0  0999 V2000
   -2.6857   -3.6684    0.8743 H   0  0  0  0  0  0  0  0  0  0  0  0
   -2.6617   -2.6474    0.4953 C   0  0  0  0  0  0  0  0  0  0  0  0
   -3.2657   -2.0054    1.1353 H   0  0  0  0  0  0  0  0  0  0  0  0
   -3.0477   -2.6254   -0.5217 H   0  0  0  0  0  0  0  0  0  0  0  0
   -1.2337   -2.1564    0.4993 C   0  0  0  0  0  0  0  0  0  0  0  0
   -0.3327   -2.8864    0.8893 O   0  0  0  0  0  0  0  0  0  0  0  0
   -1.0277   -0.9164    0.0623 N   0  0  0  0  0  0  0  0  0  0  0  0
   -1.8237   -0.3604   -0.2157 H   0  0  0  0  0  0  0  0  0  0  0  0
    0.2713   -0.2414    0.0463 C   0  0  1  0  0  0  0  0  0  0  0  0
    1.0568   -0.9937   -0.0494 H   0  0  0  0  0  0  0  0  0  0  0  0
    0.3279    0.6795   -1.1836 C   0  0  0  0  0  0  0  0  0  0  0  0
   -0.5335    1.3508   -1.1619 H   0  0  0  0  0  0  0  0  0  0  0  0
    1.2405    1.2780   -1.1486 H   0  0  0  0  0  0  0  0  0  0  0  0
    0.2776   -0.2798   -2.7258 S   0  0  0  0  0  0  0  0  0  0  0  0
    0.2196    0.7605   -3.5660 H   0  0  0  0  0  0  0  0  0  0  0  0
    0.4930    0.5140    1.3726 C   0  0  0  0  0  0  0  0  0  0  0  0
    1.0440   -0.0523    2.3171 O   0  0  0  0  0  0  0  0  0  0  0  0
    0.0761    1.7834    1.4446 N   0  0  0  0  0  0  0  0  0  0  0  0
   -0.4230    2.1528    0.6484 H   0  0  0  0  0  0  0  0  0  0  0  0
    0.2202    2.6334    2.6251 C   0  0  0  0  0  0  0  0  0  0  0  0
    1.2516    2.5972    2.9830 H   0  0  0  0  0  0  0  0  0  0  0  0
   -0.0395    3.6643    2.3814 H   0  0  0  0  0  0  0  0  0  0  0  0
   -0.4368    2.2733    3.4185 H   0  0  0  0  0  0  0  0  0  0  0  0
  5  6  2  0  0  0  0
  5  7  1  0  0  0  0
  2  3  1  0  0  0  0
  2  4  1  0  0  0  0
  2  5  1  0  0  0  0
  1  2  1  0  0  0  0
 16 17  2  0  0  0  0
 16 18  1  0  0  0  0
 14 15  1  0  0  0  0
 11 12  1  0  0  0  0
 11 13  1  0  0  0  0
 11 14  1  0  0  0  0
  9 10  1  0  0  0  0
  9 11  1  0  0  0  0
  9 16  1  0  0  0  0
  7  8  1  0  0  0  0
  7  9  1  0  0  0  0
 20 21  1  0  0  0  0
 20 22  1  0  0  0  0
 20 23  1  0  0  0  0
 18 19  1  0  0  0  0
 18 20  1  0  0  0  0
M  END
$$$$
default_name
  -OEChem-01062215323D

 23 22  0     1  0  0  0  0  0999 V2000
   -2.6857   -3.6684    0.8743 H   0  0  0  0  0  0  0  0  0  0  0  0
   -2.6617   -2.6474    0.4953 C   0  0  0  0  0  0  0  0  0  0  0  0
   -3.2657   -2.0054    1.1353 H   0  0  0  0  0  0  0  0  0  0  0  0
   -3.0477   -2.6254   -0.5217 H   0  0  0  0  0  0  0  0  0  0  0  0
   -1.2337   -2.1564    0.4993 C   0  0  0  0  0  0  0  0  0  0  0  0
   -0.3327   -2.8864    0.8893 O   0  0  0  0  0  0  0  0  0  0  0  0
   -1.0277   -0.9164    0.0623 N   0  0  0  0  0  0  0  0  0  0  0  0
   -1.8237   -0.3604   -0.2157 H   0  0  0  0  0  0  0  0  0  0  0  0
    0.2713   -0.2414    0.0463 C   0  0  1  0  0  0  0  0  0  0  0  0
    1.0568   -0.9937   -0.0494 H   0  0  0  0  0  0  0  0  0  0  0  0
    0.3279    0.6795   -1.1836 C   0  0  0  0  0  0  0  0  0  0  0  0
   -0.5335    1.3508   -1.1619 H   0  0  0  0  0  0  0  0  0  0  0  0
    1.2405    1.2780   -1.1486 H   0  0  0  0  0  0  0  0  0  0  0  0
    0.2776   -0.2798   -2.7258 S   0  0  0  0  0  0  0  0  0  0  0  0
    0.2196    0.7605   -3.5660 H   0  0  0  0  0  0  0  0  0  0  0  0
    0.4930    0.5140    1.3726 C   0  0  0  0  0  0  0  0  0  0  0  0
    1.2740    0.0647    2.2120 O   0  0  0  0  0  0  0  0  0  0  0  0
   -0.1801    1.6550    1.5605 N   0  0  0  0  0  0  0  0  0  0  0  0
   -0.8481    1.9209    0.8516 H   0  0  0  0  0  0  0  0  0  0  0  0
   -0.0733    2.4886    2.7566 C   0  0  0  0  0  0  0  0  0  0  0  0
    0.9786    2.6771    2.9831 H   0  0  0  0  0  0  0  0  0  0  0  0
   -0.5832    3.4399    2.6001 H   0  0  0  0  0  0  0  0  0  0  0  0
   -0.5252    1.9718    3.6050 H   0  0  0  0  0  0  0  0  0  0  0  0
  5  6  2  0  0  0  0
  5  7  1  0  0  0  0
  2  3  1  0  0  0  0
  2  4  1  0  0  0  0
  2  5  1  0  0  0  0
  1  2  1  0  0  0  0
 16 17  2  0  0  0  0
 16 18  1  0  0  0  0
 14 15  1  0  0  0  0
 11 12  1  0  0  0  0
 11 13  1  0  0  0  0
 11 14  1  0  0  0  0
  9 10  1  0  0  0  0
  9 11  1  0  0  0  0
  9 16  1  0  0  0  0
  7  8  1  0  0  0  0
  7  9  1  0  0  0  0
 20 21  1  0  0  0  0
 20 22  1  0  0  0  0
 20 23  1  0  0  0  0
 18 19  1  0  0  0  0
 18 20  1  0  0  0  0
M  END
$$$$
default_name
  -OEChem-01062215323D

 23 22  0     1  0  0  0  0  0999 V2000
   -2.6857   -3.6684    0.8743 H   0  0  0  0  0  0  0  0  0  0  0  0
   -2.6617   -2.6474    0.4953 C   0  0  0  0  0  0  0  0  0  0  0  0
   -3.2657   -2.0054    1.1353 H   0  0  0  0  0  0  0  0  0  0  0  0
   -3.0477   -2.6254   -0.5217 H   0  0  0  0  0  0  0  0  0  0  0  0
   -1.2337   -2.1564    0.4993 C   0  0  0  0  0  0  0  0  0  0  0  0
   -0.3327   -2.8864    0.8893 O   0  0  0  0  0  0  0  0  0  0  0  0
   -1.0277   -0.9164    0.0623 N   0  0  0  0  0  0  0  0  0  0  0  0
   -1.8237   -0.3604   -0.2157 H   0  0  0  0  0  0  0  0  0  0  0  0
    0.2713   -0.2414    0.0463 C   0  0  1  0  0  0  0  0  0  0  0  0
    1.0568   -0.9937   -0.0494 H   0  0  0  0  0  0  0  0  0  0  0  0
    0.3279    0.6795   -1.1836 C   0  0  0  0  0  0  0  0  0  0  0  0
   -0.5335    1.3508   -1.1619 H   0  0  0  0  0  0  0  0  0  0  0  0
    1.2405    1.2780   -1.1486 H   0  0  0  0  0  0  0  0  0  0  0  0
    0.2776   -0.2798   -2.7258 S   0  0  0  0  0  0  0  0  0  0  0  0
    0.2196    0.7605   -3.5660 H   0  0  0  0  0  0  0  0  0  0  0  0
    0.4930    0.5140    1.3726 C   0  0  0  0  0  0  0  0  0  0  0  0
    1.4568    0.2329    2.0857 O   0  0  0  0  0  0  0  0  0  0  0  0
   -0.3842    1.4698    1.7002 N   0  0  0  0  0  0  0  0  0  0  0  0
   -1.1814    1.5946    1.0931 H   0  0  0  0  0  0  0  0  0  0  0  0
   -0.3079    2.2784    2.9155 C   0  0  0  0  0  0  0  0  0  0  0  0
    0.6970    2.6935    3.0208 H   0  0  0  0  0  0  0  0  0  0  0  0
   -1.0307    3.0939    2.8720 H   0  0  0  0  0  0  0  0  0  0  0  0
   -0.5198    1.6540    3.7851 H   0  0  0  0  0  0  0  0  0  0  0  0
  5  6  2  0  0  0  0
  5  7  1  0  0  0  0
  2  3  1  0  0  0  0
  2  4  1  0  0  0  0
  2  5  1  0  0  0  0
  1  2  1  0  0  0  0
 16 17  2  0  0  0  0
 16 18  1  0  0  0  0
 14 15  1  0  0  0  0
 11 12  1  0  0  0  0
 11 13  1  0  0  0  0
 11 14  1  0  0  0  0
  9 10  1  0  0  0  0
  9 11  1  0  0  0  0
  9 16  1  0  0  0  0
  7  8  1  0  0  0  0
  7  9  1  0  0  0  0
 20 21  1  0  0  0  0
 20 22  1  0  0  0  0
 20 23  1  0  0  0  0
 18 19  1  0  0  0  0
 18 20  1  0  0  0  0
M  END
$$$$
default_name
  -OEChem-01062215323D

 23 22  0     1  0  0  0  0  0999 V2000
   -2.6857   -3.6684    0.8743 H   0  0  0  0  0  0  0  0  0  0  0  0
   -2.6617   -2.6474    0.4953 C   0  0  0  0  0  0  0  0  0  0  0  0
   -3.2657   -2.0054    1.1353 H   0  0  0  0  0  0  0  0  0  0  0  0
   -3.0477   -2.6254   -0.5217 H   0  0  0  0  0  0  0  0  0  0  0  0
   -1.2337   -2.1564    0.4993 C   0  0  0  0  0  0  0  0  0  0  0  0
   -0.3327   -2.8864    0.8893 O   0  0  0  0  0  0  0  0  0  0  0  0
   -1.0277   -0.9164    0.0623 N   0  0  0  0  0  0  0  0  0  0  0  0
   -1.8237   -0.3604   -0.2157 H   0  0  0  0  0  0  0  0  0  0  0  0
    0.2713   -0.2414    0.0463 C   0  0  1  0  0  0  0  0  0  0  0  0
    1.0568   -0.9937   -0.0494 H   0  0  0  0  0  0  0  0  0  0  0  0
    0.3279    0.6795   -1.1836 C   0  0  0  0  0  0  0  0  0  0  0  0
   -0.5335    1.3508   -1.1619 H   0  0  0  0  0  0  0  0  0  0  0  0
    1.2405    1.2780   -1.1486 H   0  0  0  0  0  0  0  0  0  0  0  0
    0.2776   -0.2798   -2.7258 S   0  0  0  0  0  0  0  0  0  0  0  0
    0.2196    0.7605   -3.5660 H   0  0  0  0  0  0  0  0  0  0  0  0
    0.4930    0.5140    1.3726 C   0  0  0  0  0  0  0  0  0  0  0  0
    1.5799    0.4407    1.9468 O   0  0  0  0  0  0  0  0  0  0  0  0
   -0.5225    1.2402    1.8540 N   0  0  0  0  0  0  0  0  0  0  0  0
   -1.4000    1.1963    1.3565 H   0  0  0  0  0  0  0  0  0  0  0  0
   -0.4675    2.0173    3.0909 C   0  0  0  0  0  0  0  0  0  0  0  0
    0.4263    2.6453    3.0935 H   0  0  0  0  0  0  0  0  0  0  0  0
   -1.3515    2.6501    3.1784 H   0  0  0  0  0  0  0  0  0  0  0  0
   -0.4210    1.3415    3.9466 H   0  0  0  0  0  0  0  0  0  0  0  0
  5  6  2  0  0  0  0
  5  7  1  0  0  0  0
  2  3  1  0  0  0  0
  2  4  1  0  0  0  0
  2  5  1  0  0  0  0
  1  2  1  0  0  0  0
 16 17  2  0  0  0  0
 16 18  1  0  0  0  0
 14 15  1  0  0  0  0
 11 12  1  0  0  0  0
 11 13  1  0  0  0  0
 11 14  1  0  0  0  0
  9 10  1  0  0  0  0
  9 11  1  0  0  0  0
  9 16  1  0  0  0  0
  7  8  1  0  0  0  0
  7  9  1  0  0  0  0
 20 21  1  0  0  0  0
 20 22  1  0  0  0  0
 20 23  1  0  0  0  0
 18 19  1  0  0  0  0
 18 20  1  0  0  0  0
M  END
$$$$
default_name
  -OEChem-01062215323D

 23 22  0     1  0  0  0  0  0999 V2000
   -2.6857   -3.6684    0.8743 H   0  0  0  0  0  0  0  0  0  0  0  0
   -2.6617   -2.6474    0.4953 C   0  0  0  0  0  0  0  0  0  0  0  0
   -3.2657   -2.0054    1.1353 H   0  0  0  0  0  0  0  0  0  0  0  0
   -3.0477   -2.6254   -0.5217 H   0  0  0  0  0  0  0  0  0  0  0  0
   -1.2337   -2.1564    0.4993 C   0  0  0  0  0  0  0  0  0  0  0  0
   -0.3327   -2.8864    0.8893 O   0  0  0  0  0  0  0  0  0  0  0  0
   -1.0277   -0.9164    0.0623 N   0  0  0  0  0  0  0  0  0  0  0  0
   -1.8237   -0.3604   -0.2157 H   0  0  0  0  0  0  0  0  0  0  0  0
    0.2713   -0.2414    0.0463 C   0  0  1  0  0  0  0  0  0  0  0  0
    1.0568   -0.9937   -0.0494 H   0  0  0  0  0  0  0  0  0  0  0  0
    0.3279    0.6795   -1.1836 C   0  0  0  0  0  0  0  0  0  0  0  0
   -0.5335    1.3508   -1.1619 H   0  0  0  0  0  0  0  0  0  0  0  0
    1.2405    1.2780   -1.1486 H   0  0  0  0  0  0  0  0  0  0  0  0
    0.2776   -0.2798   -2.7258 S   0  0  0  0  0  0  0  0  0  0  0  0
    0.2196    0.7605   -3.5660 H   0  0  0  0  0  0  0  0  0  0  0  0
    0.4930    0.5140    1.3726 C   0  0  0  0  0  0  0  0  0  0  0  0
    1.6350    0.6740    1.8047 O   0  0  0  0  0  0  0  0  0  0  0  0
   -0.5854    0.9820    2.0116 N   0  0  0  0  0  0  0  0  0  0  0  0
   -1.4892    0.7532    1.6238 H   0  0  0  0  0  0  0  0  0  0  0  0
   -0.5414    1.7230    3.2709 C   0  0  0  0  0  0  0  0  0  0  0  0
    0.1846    2.5358    3.1963 H   0  0  0  0  0  0  0  0  0  0  0  0
   -1.5237    2.1386    3.4985 H   0  0  0  0  0  0  0  0  0  0  0  0
   -0.2355    1.0557    4.0784 H   0  0  0  0  0  0  0  0  0  0  0  0
  5  6  2  0  0  0  0
  5  7  1  0  0  0  0
  2  3  1  0  0  0  0
  2  4  1  0  0  0  0
  2  5  1  0  0  0  0
  1  2  1  0  0  0  0
 16 17  2  0  0  0  0
 16 18  1  0  0  0  0
 14 15  1  0  0  0  0
 11 12  1  0  0  0  0
 11 13  1  0  0  0  0
 11 14  1  0  0  0  0
  9 10  1  0  0  0  0
  9 11  1  0  0  0  0
  9 16  1  0  0  0  0
  7  8  1  0  0  0  0
  7  9  1  0  0  0  0
 20 21  1  0  0  0  0
 20 22  1  0  0  0  0
 20 23  1  0  0  0  0
 18 19  1  0  0  0  0
 18 20  1  0  0  0  0
M  END
$$$$
default_name
  -OEChem-01062215323D

 23 22  0     1  0  0  0  0  0999 V2000
   -2.6857   -3.6684    0.8743 H   0  0  0  0  0  0  0  0  0  0  0  0
   -2.6617   -2.6474    0.4953 C   0  0  0  0  0  0  0  0  0  0  0  0
   -3.2657   -2.0054    1.1353 H   0  0  0  0  0  0  0  0  0  0  0  0
   -3.0477   -2.6254   -0.5217 H   0  0  0  0  0  0  0  0  0  0  0  0
   -1.2337   -2.1564    0.4993 C   0  0  0  0  0  0  0  0  0  0  0  0
   -0.3327   -2.8864    0.8893 O   0  0  0  0  0  0  0  0  0  0  0  0
   -1.0277   -0.9164    0.0623 N   0  0  0  0  0  0  0  0  0  0  0  0
   -1.8237   -0.3604   -0.2157 H   0  0  0  0  0  0  0  0  0  0  0  0
    0.2713   -0.2414    0.0463 C   0  0  1  0  0  0  0  0  0  0  0  0
    1.0568   -0.9937   -0.0494 H   0  0  0  0  0  0  0  0  0  0  0  0
    0.3279    0.6795   -1.1836 C   0  0  0  0  0  0  0  0  0  0  0  0
   -0.5335    1.3508   -1.1619 H   0  0  0  0  0  0  0  0  0  0  0  0
    1.2405    1.2780   -1.1486 H   0  0  0  0  0  0  0  0  0  0  0  0
    0.2776   -0.2798   -2.7258 S   0  0  0  0  0  0  0  0  0  0  0  0
    0.2196    0.7605   -3.5660 H   0  0  0  0  0  0  0  0  0  0  0  0
    0.4930    0.5140    1.3726 C   0  0  0  0  0  0  0  0  0  0  0  0
    1.6183    0.9169    1.6691 O   0  0  0  0  0  0  0  0  0  0  0  0
   -0.5688    0.7126    2.1623 N   0  0  0  0  0  0  0  0  0  0  0  0
   -1.4428    0.2953    1.8768 H   0  0  0  0  0  0  0  0  0  0  0  0
   -0.5244    1.4156    3.4431 C   0  0  0  0  0  0  0  0  0  0  0  0
   -0.0114    2.3724    3.3221 H   0  0  0  0  0  0  0  0  0  0  0  0
   -1.5356    1.5942    3.8105 H   0  0  0  0  0  0  0  0  0  0  0  0
    0.0239    0.8159    4.1716 H   0  0  0  0  0  0  0  0  0  0  0  0
  5  6  2  0  0  0  0
  5  7  1  0  0  0  0
  2  3  1  0  0  0  0
  2  4  1  0  0  0  0
  2  5  1  0  0  0  0
  1  2  1  0  0  0  0
 16 17  2  0  0  0  0
 16 18  1  0  0  0  0
 14 15  1  0  0  0  0
 11 12  1  0  0  0  0
 11 13  1  0  0  0  0
 11 14  1  0  0  0  0
  9 10  1  0  0  0  0
  9 11  1  0  0  0  0
  9 16  1  0  0  0  0
  7  8  1  0  0  0  0
  7  9  1  0  0  0  0
 20 21  1  0  0  0  0
 20 22  1  0  0  0  0
 20 23  1  0  0  0  0
 18 19  1  0  0  0  0
 18 20  1  0  0  0  0
M  END
$$$$
default_name
  -OEChem-01062215323D

 23 22  0     1  0  0  0  0  0999 V2000
   -2.6857   -3.6684    0.8743 H   0  0  0  0  0  0  0  0  0  0  0  0
   -2.6617   -2.6474    0.4953 C   0  0  0  0  0  0  0  0  0  0  0  0
   -3.2657   -2.0054    1.1353 H   0  0  0  0  0  0  0  0  0  0  0  0
   -3.0477   -2.6254   -0.5217 H   0  0  0  0  0  0  0  0  0  0  0  0
   -1.2337   -2.1564    0.4993 C   0  0  0  0  0  0  0  0  0  0  0  0
   -0.3327   -2.8864    0.8893 O   0  0  0  0  0  0  0  0  0  0  0  0
   -1.0277   -0.9164    0.0623 N   0  0  0  0  0  0  0  0  0  0  0  0
   -1.8237   -0.3604   -0.2157 H   0  0  0  0  0  0  0  0  0  0  0  0
    0.2713   -0.2414    0.0463 C   0  0  1  0  0  0  0  0  0  0  0  0
    1.0568   -0.9937   -0.0494 H   0  0  0  0  0  0  0  0  0  0  0  0
    0.3279    0.6795   -1.1836 C   0  0  0  0  0  0  0  0  0  0  0  0
   -0.5335    1.3508   -1.1619 H   0  0  0  0  0  0  0  0  0  0  0  0
    1.2405    1.2780   -1.1486 H   0  0  0  0  0  0  0  0  0  0  0  0
    0.2776   -0.2798   -2.7258 S   0  0  0  0  0  0  0  0  0  0  0  0
    0.2196    0.7605   -3.5660 H   0  0  0  0  0  0  0  0  0  0  0  0
    0.4930    0.5140    1.3726 C   0  0  0  0  0  0  0  0  0  0  0  0
    1.5309    1.1528    1.5494 O   0  0  0  0  0  0  0  0  0  0  0  0
   -0.4736    0.4506    2.2956 N   0  0  0  0  0  0  0  0  0  0  0  0
   -1.2640   -0.1460    2.0983 H   0  0  0  0  0  0  0  0  0  0  0  0
   -0.4178    1.1161    3.5959 C   0  0  0  0  0  0  0  0  0  0  0  0
   -0.1483    2.1663    3.4624 H   0  0  0  0  0  0  0  0  0  0  0  0
   -1.3865    1.0542    4.0932 H   0  0  0  0  0  0  0  0  0  0  0  0
    0.3397    0.6386    4.2198 H   0  0  0  0  0  0  0  0  0  0  0  0
  5  6  2  0  0  0  0
  5  7  1  0  0  0  0
  2  3  1  0  0  0  0
  2  4  1  0  0  0  0
  2  5  1  0  0  0  0
  1  2  1  0  0  0  0
 16 17  2  0  0  0  0
 16 18  1  0  0  0  0
 14 15  1  0  0  0  0
 11 12  1  0  0  0  0
 11 13  1  0  0  0  0
 11 14  1  0  0  0  0
  9 10  1  0  0  0  0
  9 11  1  0  0  0  0
  9 16  1  0  0  0  0
  7  8  1  0  0  0  0
  7  9  1  0  0  0  0
 20 21  1  0  0  0  0
 20 22  1  0  0  0  0
 20 23  1  0  0  0  0
 18 19  1  0  0  0  0
 18 20  1  0  0  0  0
M  END
$$$$
default_name
  -OEChem-01062215323D

 23 22  0     1  0  0  0  0  0999 V2000
   -2.6857   -3.6684    0.8743 H   0  0  0  0  0  0  0  0  0  0  0  0
   -2.6617   -2.6474    0.4953 C   0  0  0  0  0  0  0  0  0  0  0  0
   -3.2657   -2.0054    1.1353 H   0  0  0  0  0  0  0  0  0  0  0  0
   -3.0477   -2.6254   -0.5217 H   0  0  0  0  0  0  0  0  0  0  0  0
   -1.2337   -2.1564    0.4993 C   0  0  0  0  0  0  0  0  0  0  0  0
   -0.3327   -2.8864    0.8893 O   0  0  0  0  0  0  0  0  0  0  0  0
   -1.0277   -0.9164    0.0623 N   0  0  0  0  0  0  0  0  0  0  0  0
   -1.8237   -0.3604   -0.2157 H   0  0  0  0  0  0  0  0  0  0  0  0
    0.2713   -0.2414    0.0463 C   0  0  1  0  0  0  0  0  0  0  0  0
    1.0568   -0.9937   -0.0494 H   0  0  0  0  0  0  0  0  0  0  0  0
    0.3279    0.6795   -1.1836 C   0  0  0  0  0  0  0  0  0  0  0  0
   -0.5335    1.3508   -1.1619 H   0  0  0  0  0  0  0  0  0  0  0  0
    1.2405    1.2780   -1.1486 H   0  0  0  0  0  0  0  0  0  0  0  0
    0.2776   -0.2798   -2.7258 S   0  0  0  0  0  0  0  0  0  0  0  0
    0.2196    0.7605   -3.5660 H   0  0  0  0  0  0  0  0  0  0  0  0
    0.4930    0.5140    1.3726 C   0  0  0  0  0  0  0  0  0  0  0  0
    1.3787    1.3657    1.4535 O   0  0  0  0  0  0  0  0  0  0  0  0
   -0.3065    0.2137    2.4026 N   0  0  0  0  0  0  0  0  0  0  0  0
   -0.9651   -0.5408    2.2732 H   0  0  0  0  0  0  0  0  0  0  0  0
   -0.2288    0.8448    3.7188 C   0  0  0  0  0  0  0  0  0  0  0  0
   -0.2170    1.9314    3.6076 H   0  0  0  0  0  0  0  0  0  0  0  0
   -1.0864    0.5553    4.3272 H   0  0  0  0  0  0  0  0  0  0  0  0
    0.6903    0.5359    4.2197 H   0  0  0  0  0  0  0  0  0  0  0  0
  5  6  2  0  0  0  0
  5  7  1  0  0  0  0
  2  3  1  0  0  0  0
  2  4  1  0  0  0  0
  2  5  1  0  0  0  0
  1  2  1  0  0  0  0
 16 17  2  0  0  0  0
 16 18  1  0  0  0  0
 14 15  1  0  0  0  0
 11 12  1  0  0  0  0
 11 13  1  0  0  0  0
 11 14  1  0  0  0  0
  9 10  1  0  0  0  0
  9 11  1  0  0  0  0
  9 16  1  0  0  0  0
  7  8  1  0  0  0  0
  7  9  1  0  0  0  0
 20 21  1  0  0  0  0
 20 22  1  0  0  0  0
 20 23  1  0  0  0  0
 18 19  1  0  0  0  0
 18 20  1  0  0  0  0
M  END
$$$$
default_name
  -OEChem-01062215323D

 23 22  0     1  0  0  0  0  0999 V2000
   -2.6857   -3.6684    0.8743 H   0  0  0  0  0  0  0  0  0  0  0  0
   -2.6617   -2.6474    0.4953 C   0  0  0  0  0  0  0  0  0  0  0  0
   -3.2657   -2.0054    1.1353 H   0  0  0  0  0  0  0  0  0  0  0  0
   -3.0477   -2.6254   -0.5217 H   0  0  0  0  0  0  0  0  0  0  0  0
   -1.2337   -2.1564    0.4993 C   0  0  0  0  0  0  0  0  0  0  0  0
   -0.3327   -2.8864    0.8893 O   0  0  0  0  0  0  0  0  0  0  0  0
   -1.0277   -0.9164    0.0623 N   0  0  0  0  0  0  0  0  0  0  0  0
   -1.8237   -0.3604   -0.2157 H   0  0  0  0  0  0  0  0  0  0  0  0
    0.2713   -0.2414    0.0463 C   0  0  1  0  0  0  0  0  0  0  0  0
    1.0568   -0.9937   -0.0494 H   0  0  0  0  0  0  0  0  0  0  0  0
    0.3279    0.6795   -1.1836 C   0  0  0  0  0  0  0  0  0  0  0  0
   -0.5335    1.3508   -1.1619 H   0  0  0  0  0  0  0  0  0  0  0  0
    1.2405    1.2780   -1.1486 H   0  0  0  0  0  0  0  0  0  0  0  0
    0.2776   -0.2798   -2.7258 S   0  0  0  0  0  0  0  0  0  0  0  0
    0.2196    0.7605   -3.5660 H   0  0  0  0  0  0  0  0  0  0  0  0
    0.4930    0.5140    1.3726 C   0  0  0  0  0  0  0  0  0  0  0  0
    1.1723    1.5410    1.3882 O   0  0  0  0  0  0  0  0  0  0  0  0
   -0.0788    0.0181    2.4760 N   0  0  0  0  0  0  0  0  0  0  0  0
   -0.5662   -0.8620    2.3895 H   0  0  0  0  0  0  0  0  0  0  0  0
    0.0298    0.6203    3.8035 C   0  0  0  0  0  0  0  0  0  0  0  0
   -0.2126    1.6839    3.7479 H   0  0  0  0  0  0  0  0  0  0  0  0
   -0.6558    0.1314    4.4967 H   0  0  0  0  0  0  0  0  0  0  0  0
    1.0518    0.5146    4.1714 H   0  0  0  0  0  0  0  0  0  0  0  0
  5  6  2  0  0  0  0
  5  7  1  0  0  0  0
  2  3  1  0  0  0  0
  2  4  1  0  0  0  0
  2  5  1  0  0  0  0
  1  2  1  0  0  0  0
 16 17  2  0  0  0  0
 16 18  1  0  0  0  0
 14 15  1  0  0  0  0
 11 12  1  0  0  0  0
 11 13  1  0  0  0  0
 11 14  1  0  0  0  0
  9 10  1  0  0  0  0
  9 11  1  0  0  0  0
  9 16  1  0  0  0  0
  7  8  1  0  0  0  0
  7  9  1  0  0  0  0
 20 21  1  0  0  0  0
 20 22  1  0  0  0  0
 20 23  1  0  0  0  0
 18 19  1  0  0  0  0
 18 20  1  0  0  0  0
M  END
$$$$
default_name
  -OEChem-01062215323D

 23 22  0     1  0  0  0  0  0999 V2000
   -2.6857   -3.6684    0.8743 H   0  0  0  0  0  0  0  0  0  0  0  0
   -2.6617   -2.6474    0.4953 C   0  0  0  0  0  0  0  0  0  0  0  0
   -3.2657   -2.0054    1.1353 H   0  0  0  0  0  0  0  0  0  0  0  0
   -3.0477   -2.6254   -0.5217 H   0  0  0  0  0  0  0  0  0  0  0  0
   -1.2337   -2.1564    0.4993 C   0  0  0  0  0  0  0  0  0  0  0  0
   -0.3327   -2.8864    0.8893 O   0  0  0  0  0  0  0  0  0  0  0  0
   -1.0277   -0.9164    0.0623 N   0  0  0  0  0  0  0  0  0  0  0  0
   -1.8237   -0.3604   -0.2157 H   0  0  0  0  0  0  0  0  0  0  0  0
    0.2713   -0.2414    0.0463 C   0  0  1  0  0  0  0  0  0  0  0  0
    1.0568   -0.9937   -0.0494 H   0  0  0  0  0  0  0  0  0  0  0  0
    0.3279    0.6795   -1.1836 C   0  0  0  0  0  0  0  0  0  0  0  0
   -0.5335    1.3508   -1.1619 H   0  0  0  0  0  0  0  0  0  0  0  0
    1.2405    1.2780   -1.1486 H   0  0  0  0  0  0  0  0  0  0  0  0
    0.2776   -0.2798   -2.7258 S   0  0  0  0  0  0  0  0  0  0  0  0
    0.2196    0.7605   -3.5660 H   0  0  0  0  0  0  0  0  0  0  0  0
    0.4930    0.5140    1.3726 C   0  0  0  0  0  0  0  0  0  0  0  0
    0.9255    1.6669    1.3577 O   0  0  0  0  0  0  0  0  0  0  0  0
    0.1939   -0.1229    2.5107 N   0  0  0  0  0  0  0  0  0  0  0  0
   -0.0947   -1.0879    2.4394 H   0  0  0  0  0  0  0  0  0  0  0  0
    0.3402    0.4578    3.8442 C   0  0  0  0  0  0  0  0  0  0  0  0
   -0.1356    1.4406    3.8736 H   0  0  0  0  0  0  0  0  0  0  0  0
   -0.1240   -0.1885    4.5900 H   0  0  0  0  0  0  0  0  0  0  0  0
    1.3996    0.5764    4.0781 H   0  0  0  0  0  0  0  0  0  0  0  0
  5  6  2  0  0  0  0
  5  7  1  0  0  0  0
  2  3  1  0  0  0  0
  2  4  1  0  0  0  0
  2  5  1  0  0  0  0
  1  2  1  0  0  0  0
 16 17  2  0  0  0  0
 16 18  1  0  0  0  0
 14 15  1  0  0  0  0
 11 12  1  0  0  0  0
 11 13  1  0  0  0  0
 11 14  1  0  0  0  0
  9 10  1  0  0  0  0
  9 11  1  0  0  0  0
  9 16  1  0  0  0  0
  7  8  1  0  0  0  0
  7  9  1  0  0  0  0
 20 21  1  0  0  0  0
 20 22  1  0  0  0  0
 20 23  1  0  0  0  0
 18 19  1  0  0  0  0
 18 20  1  0  0  0  0
M  END
$$$$
default_name
  -OEChem-01062215323D

 23 22  0     1  0  0  0  0  0999 V2000
   -2.6857   -3.6684    0.8743 H   0  0  0  0  0  0  0  0  0  0  0  0
   -2.6617   -2.6474    0.4953 C   0  0  0  0  0  0  0  0  0  0  0  0
   -3.2657   -2.0054    1.1353 H   0  0  0  0  0  0  0  0  0  0  0  0
   -3.0477   -2.6254   -0.5217 H   0  0  0  0  0  0  0  0  0  0  0  0
   -1.2337   -2.1564    0.4993 C   0  0  0  0  0  0  0  0  0  0  0  0
   -0.3327   -2.8864    0.8893 O   0  0  0  0  0  0  0  0  0  0  0  0
   -1.0277   -0.9164    0.0623 N   0  0  0  0  0  0  0  0  0  0  0  0
   -1.8237   -0.3604   -0.2157 H   0  0  0  0  0  0  0  0  0  0  0  0
    0.2713   -0.2414    0.0463 C   0  0  1  0  0  0  0  0  0  0  0  0
    1.0568   -0.9937   -0.0494 H   0  0  0  0  0  0  0  0  0  0  0  0
    0.3279    0.6795   -1.1836 C   0  0  0  0  0  0  0  0  0  0  0  0
   -0.5335    1.3508   -1.1619 H   0  0  0  0  0  0  0  0  0  0  0  0
    1.2405    1.2780   -1.1486 H   0  0  0  0  0  0  0  0  0  0  0  0
    0.2776   -0.2798   -2.7258 S   0  0  0  0  0  0  0  0  0  0  0  0
    0.2196    0.7605   -3.5660 H   0  0  0  0  0  0  0  0  0  0  0  0
    0.4930    0.5140    1.3726 C   0  0  0  0  0  0  0  0  0  0  0  0
    0.6553    1.7347    1.3643 O   0  0  0  0  0  0  0  0  0  0  0  0
    0.4932   -0.1997    2.5044 N   0  0  0  0  0  0  0  0  0  0  0  0
    0.4173   -1.2030    2.4193 H   0  0  0  0  0  0  0  0  0  0  0  0
    0.6814    0.3684    3.8381 C   0  0  0  0  0  0  0  0  0  0  0  0
    0.0089    1.2181    3.9762 H   0  0  0  0  0  0  0  0  0  0  0  0
    0.4726   -0.3826    4.6008 H   0  0  0  0  0  0  0  0  0  0  0  0
    1.7099    0.7169    3.9462 H   0  0  0  0  0  0  0  0  0  0  0  0
  5  6  2  0  0  0  0
  5  7  1  0  0  0  0
  2  3  1  0  0  0  0
  2  4  1  0  0  0  0
  2  5  1  0  0  0  0
  1  2  1  0  0  0  0
 16 17  2  0  0  0  0
 16 18  1  0  0  0  0
 14 15  1  0  0  0  0
 11 12  1  0  0  0  0
 11 13  1  0  0  0  0
 11 14  1  0  0  0  0
  9 10  1  0  0  0  0
  9 11  1  0  0  0  0
  9 16  1  0  0  0  0
  7  8  1  0  0  0  0
  7  9  1  0  0  0  0
 20 21  1  0  0  0  0
 20 22  1  0  0  0  0
 20 23  1  0  0  0  0
 18 19  1  0  0  0  0
 18 20  1  0  0  0  0
M  END
$$$$
default_name
  -OEChem-01062215323D

 23 22  0     1  0  0  0  0  0999 V2000
   -2.6857   -3.6684    0.8743 H   0  0  0  0  0  0  0  0  0  0  0  0
   -2.6617   -2.6474    0.4953 C   0  0  0  0  0  0  0  0  0  0  0  0
   -3.2657   -2.0054    1.1353 H   0  0  0  0  0  0  0  0  0  0  0  0
   -3.0477   -2.6254   -0.5217 H   0  0  0  0  0  0  0  0  0  0  0  0
   -1.2337   -2.1564    0.4993 C   0  0  0  0  0  0  0  0  0  0  0  0
   -0.3327   -2.8864    0.8893 O   0  0  0  0  0  0  0  0  0  0  0  0
   -1.0277   -0.9164    0.0623 N   0  0  0  0  0  0  0  0  0  0  0  0
   -1.8237   -0.3604   -0.2157 H   0  0  0  0  0  0  0  0  0  0  0  0
    0.2713   -0.2414    0.0463 C   0  0  1  0  0  0  0  0  0  0  0  0
    1.0568   -0.9937   -0.0494 H   0  0  0  0  0  0  0  0  0  0  0  0
    0.3279    0.6795   -1.1836 C   0  0  0  0  0  0  0  0  0  0  0  0
   -0.5335    1.3508   -1.1619 H   0  0  0  0  0  0  0  0  0  0  0  0
    1.2405    1.2780   -1.1486 H   0  0  0  0  0  0  0  0  0  0  0  0
    0.2776   -0.2798   -2.7258 S   0  0  0  0  0  0  0  0  0  0  0  0
    0.2196    0.7605   -3.5660 H   0  0  0  0  0  0  0  0  0  0  0  0
    0.4930    0.5140    1.3726 C   0  0  0  0  0  0  0  0  0  0  0  0
    0.3800    1.7397    1.4074 O   0  0  0  0  0  0  0  0  0  0  0  0
    0.7986   -0.2071    2.4575 N   0  0  0  0  0  0  0  0  0  0  0  0
    0.9349   -1.1995    2.3308 H   0  0  0  0  0  0  0  0  0  0  0  0
    1.0301    0.3582    3.7856 C   0  0  0  0  0  0  0  0  0  0  0  0
    0.2111    1.0315    4.0487 H   0  0  0  0  0  0  0  0  0  0  0  0
    1.0935   -0.4377    4.5285 H   0  0  0  0  0  0  0  0  0  0  0  0
    1.9617    0.9266    3.7847 H   0  0  0  0  0  0  0  0  0  0  0  0
  5  6  2  0  0  0  0
  5  7  1  0  0  0  0
  2  3  1  0  0  0  0
  2  4  1  0  0  0  0
  2  5  1  0  0  0  0
  1  2  1  0  0  0  0
 16 17  2  0  0  0  0
 16 18  1  0  0  0  0
 14 15  1  0  0  0  0
 11 12  1  0  0  0  0
 11 13  1  0  0  0  0
 11 14  1  0  0  0  0
  9 10  1  0  0  0  0
  9 11  1  0  0  0  0
  9 16  1  0  0  0  0
  7  8  1  0  0  0  0
  7  9  1  0  0  0  0
 20 21  1  0  0  0  0
 20 22  1  0  0  0  0
 20 23  1  0  0  0  0
 18 19  1  0  0  0  0
 18 20  1  0  0  0  0
M  END
$$$$
default_name
  -OEChem-01062215323D

 23 22  0     1  0  0  0  0  0999 V2000
   -2.6857   -3.6684    0.8743 H   0  0  0  0  0  0  0  0  0  0  0  0
   -2.6617   -2.6474    0.4953 C   0  0  0  0  0  0  0  0  0  0  0  0
   -3.2657   -2.0054    1.1353 H   0  0  0  0  0  0  0  0  0  0  0  0
   -3.0477   -2.6254   -0.5217 H   0  0  0  0  0  0  0  0  0  0  0  0
   -1.2337   -2.1564    0.4993 C   0  0  0  0  0  0  0  0  0  0  0  0
   -0.3327   -2.8864    0.8893 O   0  0  0  0  0  0  0  0  0  0  0  0
   -1.0277   -0.9164    0.0623 N   0  0  0  0  0  0  0  0  0  0  0  0
   -1.8237   -0.3604   -0.2157 H   0  0  0  0  0  0  0  0  0  0  0  0
    0.2713   -0.2414    0.0463 C   0  0  1  0  0  0  0  0  0  0  0  0
    1.0568   -0.9937   -0.0494 H   0  0  0  0  0  0  0  0  0  0  0  0
    0.3279    0.6795   -1.1836 C   0  0  0  0  0  0  0  0  0  0  0  0
   -0.5335    1.3508   -1.1619 H   0  0  0  0  0  0  0  0  0  0  0  0
    1.2405    1.2780   -1.1486 H   0  0  0  0  0  0  0  0  0  0  0  0
    0.2776   -0.2798   -2.7258 S   0  0  0  0  0  0  0  0  0  0  0  0
    0.2196    0.7605   -3.5660 H   0  0  0  0  0  0  0  0  0  0  0  0
    0.4930    0.5140    1.3726 C   0  0  0  0  0  0  0  0  0  0  0  0
    0.1185    1.6818    1.4841 O   0  0  0  0  0  0  0  0  0  0  0  0
    1.0892   -0.1444    2.3733 N   0  0  0  0  0  0  0  0  0  0  0  0
    1.4229   -1.0776    2.1798 H   0  0  0  0  0  0  0  0  0  0  0  0
    1.3625    0.4280    3.6903 C   0  0  0  0  0  0  0  0  0  0  0  0
    0.4571    0.8935    4.0861 H   0  0  0  0  0  0  0  0  0  0  0  0
    1.6964   -0.3501    4.3778 H   0  0  0  0  0  0  0  0  0  0  0  0
    2.1378    1.1912    3.6045 H   0  0  0  0  0  0  0  0  0  0  0  0
  5  6  2  0  0  0  0
  5  7  1  0  0  0  0
  2  3  1  0  0  0  0
  2  4  1  0  0  0  0
  2  5  1  0  0  0  0
  1  2  1  0  0  0  0
 16 17  2  0  0  0  0
 16 18  1  0  0  0  0
 14 15  1  0  0  0  0
 11 12  1  0  0  0  0
 11 13  1  0  0  0  0
 11 14  1  0  0  0  0
  9 10  1  0  0  0  0
  9 11  1  0  0  0  0
  9 16  1  0  0  0  0
  7  8  1  0  0  0  0
  7  9  1  0  0  0  0
 20 21  1  0  0  0  0
 20 22  1  0  0  0  0
 20 23  1  0  0  0  0
 18 19  1  0  0  0  0
 18 20  1  0  0  0  0
M  END
$$$$
default_name
  -OEChem-01062215323D

 23 22  0     1  0  0  0  0  0999 V2000
   -2.6857   -3.6684    0.8743 H   0  0  0  0  0  0  0  0  0  0  0  0
   -2.6617   -2.6474    0.4953 C   0  0  0  0  0  0  0  0  0  0  0  0
   -3.2657   -2.0054    1.1353 H   0  0  0  0  0  0  0  0  0  0  0  0
   -3.0477   -2.6254   -0.5217 H   0  0  0  0  0  0  0  0  0  0  0  0
   -1.2337   -2.1564    0.4993 C   0  0  0  0  0  0  0  0  0  0  0  0
   -0.3327   -2.8864    0.8893 O   0  0  0  0  0  0  0  0  0  0  0  0
   -1.0277   -0.9164    0.0623 N   0  0  0  0  0  0  0  0  0  0  0  0
   -1.8237   -0.3604   -0.2157 H   0  0  0  0  0  0  0  0  0  0  0  0
    0.2713   -0.2414    0.0463 C   0  0  1  0  0  0  0  0  0  0  0  0
    1.0568   -0.9937   -0.0494 H   0  0  0  0  0  0  0  0  0  0  0  0
    0.3279    0.6795   -1.1836 C   0  0  0  0  0  0  0  0  0  0  0  0
   -0.5335    1.3508   -1.1619 H   0  0  0  0  0  0  0  0  0  0  0  0
    1.2405    1.2780   -1.1486 H   0  0  0  0  0  0  0  0  0  0  0  0
    0.2776   -0.2798   -2.7258 S   0  0  0  0  0  0  0  0  0  0  0  0
    0.2196    0.7605   -3.5660 H   0  0  0  0  0  0  0  0  0  0  0  0
    0.4930    0.5140    1.3726 C   0  0  0  0  0  0  0  0  0  0  0  0
   -0.1115    1.5647    1.5892 O   0  0  0  0  0  0  0  0  0  0  0  0
    1.3454   -0.0161    2.2574 N   0  0  0  0  0  0  0  0  0  0  0  0
    1.8480   -0.8456    1.9767 H   0  0  0  0  0  0  0  0  0  0  0  0
    1.6560    0.5729    3.5587 C   0  0  0  0  0  0  0  0  0  0  0  0
    0.7301    0.8136    4.0860 H   0  0  0  0  0  0  0  0  0  0  0  0
    2.2401   -0.1256    4.1591 H   0  0  0  0  0  0  0  0  0  0  0  0
    2.2261    1.4927    3.4181 H   0  0  0  0  0  0  0  0  0  0  0  0
  5  6  2  0  0  0  0
  5  7  1  0  0  0  0
  2  3  1  0  0  0  0
  2  4  1  0  0  0  0
  2  5  1  0  0  0  0
  1  2  1  0  0  0  0
 16 17  2  0  0  0  0
 16 18  1  0  0  0  0
 14 15  1  0  0  0  0
 11 12  1  0  0  0  0
 11 13  1  0  0  0  0
 11 14  1  0  0  0  0
  9 10  1  0  0  0  0
  9 11  1  0  0  0  0
  9 16  1  0  0  0  0
  7  8  1  0  0  0  0
  7  9  1  0  0  0  0
 20 21  1  0  0  0  0
 20 22  1  0  0  0  0
 20 23  1  0  0  0  0
 18 19  1  0  0  0  0
 18 20  1  0  0  0  0
M  END
$$$$
default_name
  -OEChem-01062215323D

 23 22  0     1  0  0  0  0  0999 V2000
   -2.6857   -3.6684    0.8743 H   0  0  0  0  0  0  0  0  0  0  0  0
   -2.6617   -2.6474    0.4953 C   0  0  0  0  0  0  0  0  0  0  0  0
   -3.2657   -2.0054    1.1353 H   0  0  0  0  0  0  0  0  0  0  0  0
   -3.0477   -2.6254   -0.5217 H   0  0  0  0  0  0  0  0  0  0  0  0
   -1.2337   -2.1564    0.4993 C   0  0  0  0  0  0  0  0  0  0  0  0
   -0.3327   -2.8864    0.8893 O   0  0  0  0  0  0  0  0  0  0  0  0
   -1.0277   -0.9164    0.0623 N   0  0  0  0  0  0  0  0  0  0  0  0
   -1.8237   -0.3604   -0.2157 H   0  0  0  0  0  0  0  0  0  0  0  0
    0.2713   -0.2414    0.0463 C   0  0  1  0  0  0  0  0  0  0  0  0
    1.0568   -0.9937   -0.0494 H   0  0  0  0  0  0  0  0  0  0  0  0
    0.3279    0.6795   -1.1836 C   0  0  0  0  0  0  0  0  0  0  0  0
   -0.5335    1.3508   -1.1619 H   0  0  0  0  0  0  0  0  0  0  0  0
    1.2405    1.2780   -1.1486 H   0  0  0  0  0  0  0  0  0  0  0  0
    0.2776   -0.2798   -2.7258 S   0  0  0  0  0  0  0  0  0  0  0  0
    0.2196    0.7605   -3.5660 H   0  0  0  0  0  0  0  0  0  0  0  0
    0.4930    0.5140    1.3726 C   0  0  0  0  0  0  0  0  0  0  0  0
   -0.2943    1.3966    1.7155 O   0  0  0  0  0  0  0  0  0  0  0  0
    1.5495    0.1692    2.1178 N   0  0  0  0  0  0  0  0  0  0  0  0
    2.1813   -0.5194    1.7352 H   0  0  0  0  0  0  0  0  0  0  0  0
    1.8905    0.7830    3.3998 C   0  0  0  0  0  0  0  0  0  0  0  0
    1.0116    0.7972    4.0483 H   0  0  0  0  0  0  0  0  0  0  0  0
    2.6875    0.2203    3.8873 H   0  0  0  0  0  0  0  0  0  0  0  0
    2.2207    1.8105    3.2380 H   0  0  0  0  0  0  0  0  0  0  0  0
  5  6  2  0  0  0  0
  5  7  1  0  0  0  0
  2  3  1  0  0  0  0
  2  4  1  0  0  0  0
  2  5  1  0  0  0  0
  1  2  1  0  0  0  0
 16 17  2  0  0  0  0
 16 18  1  0  0  0  0
 14 15  1  0  0  0  0
 11 12  1  0  0  0  0
 11 13  1  0  0  0  0
 11 14  1  0  0  0  0
  9 10  1  0  0  0  0
  9 11  1  0  0  0  0
  9 16  1  0  0  0  0
  7  8  1  0  0  0  0
  7  9  1  0  0  0  0
 20 21  1  0  0  0  0
 20 22  1  0  0  0  0
 20 23  1  0  0  0  0
 18 19  1  0  0  0  0
 18 20  1  0  0  0  0
M  END
$$$$
default_name
  -OEChem-01062215323D

 23 22  0     1  0  0  0  0  0999 V2000
   -2.6857   -3.6684    0.8743 H   0  0  0  0  0  0  0  0  0  0  0  0
   -2.6617   -2.6474    0.4953 C   0  0  0  0  0  0  0  0  0  0  0  0
   -3.2657   -2.0054    1.1353 H   0  0  0  0  0  0  0  0  0  0  0  0
   -3.0477   -2.6254   -0.5217 H   0  0  0  0  0  0  0  0  0  0  0  0
   -1.2337   -2.1564    0.4993 C   0  0  0  0  0  0  0  0  0  0  0  0
   -0.3327   -2.8864    0.8893 O   0  0  0  0  0  0  0  0  0  0  0  0
   -1.0277   -0.9164    0.0623 N   0  0  0  0  0  0  0  0  0  0  0  0
   -1.8237   -0.3604   -0.2157 H   0  0  0  0  0  0  0  0  0  0  0  0
    0.2713   -0.2414    0.0463 C   0  0  1  0  0  0  0  0  0  0  0  0
    1.0568   -0.9937   -0.0494 H   0  0  0  0  0  0  0  0  0  0  0  0
    0.3279    0.6795   -1.1836 C   0  0  0  0  0  0  0  0  0  0  0  0
   -0.5335    1.3508   -1.1619 H   0  0  0  0  0  0  0  0  0  0  0  0
    1.2405    1.2780   -1.1486 H   0  0  0  0  0  0  0  0  0  0  0  0
    0.2776   -0.2798   -2.7258 S   0  0  0  0  0  0  0  0  0  0  0  0
    0.2196    0.7605   -3.5660 H   0  0  0  0  0  0  0  0  0  0  0  0
    0.4930    0.5140    1.3726 C   0  0  0  0  0  0  0  0  0  0  0  0
   -0.4174    1.1888    1.8545 O   0  0  0  0  0  0  0  0  0  0  0  0
    1.6878    0.3987    1.9639 N   0  0  0  0  0  0  0  0  0  0  0  0
    2.3999   -0.1211    1.4718 H   0  0  0  0  0  0  0  0  0  0  0  0
    2.0502    1.0441    3.2244 C   0  0  0  0  0  0  0  0  0  0  0  0
    1.2824    0.8454    3.9756 H   0  0  0  0  0  0  0  0  0  0  0  0
    3.0083    0.6641    3.5809 H   0  0  0  0  0  0  0  0  0  0  0  0
    2.1219    2.1230    3.0765 H   0  0  0  0  0  0  0  0  0  0  0  0
  5  6  2  0  0  0  0
  5  7  1  0  0  0  0
  2  3  1  0  0  0  0
  2  4  1  0  0  0  0
  2  5  1  0  0  0  0
  1  2  1  0  0  0  0
 16 17  2  0  0  0  0
 16 18  1  0  0  0  0
 14 15  1  0  0  0  0
 11 12  1  0  0  0  0
 11 13  1  0  0  0  0
 11 14  1  0  0  0  0
  9 10  1  0  0  0  0
  9 11  1  0  0  0  0
  9 16  1  0  0  0  0
  7  8  1  0  0  0  0
  7  9  1  0  0  0  0
 20 21  1  0  0  0  0
 20 22  1  0  0  0  0
 20 23  1  0  0  0  0
 18 19  1  0  0  0  0
 18 20  1  0  0  0  0
M  END
$$$$
default_name
  -OEChem-01062215323D

 23 22  0     1  0  0  0  0  0999 V2000
   -2.6857   -3.6684    0.8743 H   0  0  0  0  0  0  0  0  0  0  0  0
   -2.6617   -2.6474    0.4953 C   0  0  0  0  0  0  0  0  0  0  0  0
   -3.2657   -2.0054    1.1353 H   0  0  0  0  0  0  0  0  0  0  0  0
   -3.0477   -2.6254   -0.5217 H   0  0  0  0  0  0  0  0  0  0  0  0
   -1.2337   -2.1564    0.4993 C   0  0  0  0  0  0  0  0  0  0  0  0
   -0.3327   -2.8864    0.8893 O   0  0  0  0  0  0  0  0  0  0  0  0
   -1.0277   -0.9164    0.0623 N   0  0  0  0  0  0  0  0  0  0  0  0
   -1.8237   -0.3604   -0.2157 H   0  0  0  0  0  0  0  0  0  0  0  0
    0.2713   -0.2414    0.0463 C   0  0  1  0  0  0  0  0  0  0  0  0
    1.0568   -0.9937   -0.0494 H   0  0  0  0  0  0  0  0  0  0  0  0
    0.3279    0.6795   -1.1836 C   0  0  0  0  0  0  0  0  0  0  0  0
   -0.5335    1.3508   -1.1619 H   0  0  0  0  0  0  0  0  0  0  0  0
    1.2405    1.2780   -1.1486 H   0  0  0  0  0  0  0  0  0  0  0  0
    0.2776   -0.2798   -2.7258 S   0  0  0  0  0  0  0  0  0  0  0  0
    0.2196    0.7605   -3.5660 H   0  0  0  0  0  0  0  0  0  0  0  0
    0.4930    0.5140    1.3726 C   0  0  0  0  0  0  0  0  0  0  0  0
   -0.4725    0.9555    1.9966 O   0  0  0  0  0  0  0  0  0  0  0  0
    1.7507    0.6570    1.8063 N   0  0  0  0  0  0  0  0  0  0  0  0
    2.4891    0.3221    1.2044 H   0  0  0  0  0  0  0  0  0  0  0  0
    2.1241    1.3384    3.0445 C   0  0  0  0  0  0  0  0  0  0  0  0
    1.5240    0.9549    3.8728 H   0  0  0  0  0  0  0  0  0  0  0  0
    3.1806    1.1756    3.2607 H   0  0  0  0  0  0  0  0  0  0  0  0
    1.9365    2.4088    2.9447 H   0  0  0  0  0  0  0  0  0  0  0  0
  5  6  2  0  0  0  0
  5  7  1  0  0  0  0
  2  3  1  0  0  0  0
  2  4  1  0  0  0  0
  2  5  1  0  0  0  0
  1  2  1  0  0  0  0
 16 17  2  0  0  0  0
 16 18  1  0  0  0  0
 14 15  1  0  0  0  0
 11 12  1  0  0  0  0
 11 13  1  0  0  0  0
 11 14  1  0  0  0  0
  9 10  1  0  0  0  0
  9 11  1  0  0  0  0
  9 16  1  0  0  0  0
  7  8  1  0  0  0  0
  7  9  1  0  0  0  0
 20 21  1  0  0  0  0
 20 22  1  0  0  0  0
 20 23  1  0  0  0  0
 18 19  1  0  0  0  0
 18 20  1  0  0  0  0
M  END
$$$$
default_name
  -OEChem-01062215323D

 23 22  0     1  0  0  0  0  0999 V2000
   -2.6857   -3.6684    0.8743 H   0  0  0  0  0  0  0  0  0  0  0  0
   -2.6617   -2.6474    0.4953 C   0  0  0  0  0  0  0  0  0  0  0  0
   -3.2657   -2.0054    1.1353 H   0  0  0  0  0  0  0  0  0  0  0  0
   -3.0477   -2.6254   -0.5217 H   0  0  0  0  0  0  0  0  0  0  0  0
   -1.2337   -2.1564    0.4993 C   0  0  0  0  0  0  0  0  0  0  0  0
   -0.3327   -2.8864    0.8893 O   0  0  0  0  0  0  0  0  0  0  0  0
   -1.0277   -0.9164    0.0623 N   0  0  0  0  0  0  0  0  0  0  0  0
   -1.8237   -0.3604   -0.2157 H   0  0  0  0  0  0  0  0  0  0  0  0
    0.2713   -0.2414    0.0463 C   0  0  1  0  0  0  0  0  0  0  0  0
    1.0568   -0.9937   -0.0494 H   0  0  0  0  0  0  0  0  0  0  0  0
    0.3279    0.6795   -1.1836 C   0  0  0  0  0  0  0  0  0  0  0  0
   -0.5335    1.3508   -1.1619 H   0  0  0  0  0  0  0  0  0  0  0  0
    1.2405    1.2780   -1.1486 H   0  0  0  0  0  0  0  0  0  0  0  0
    0.2776   -0.2798   -2.7258 S   0  0  0  0  0  0  0  0  0  0  0  0
    0.2196    0.7605   -3.5660 H   0  0  0  0  0  0  0  0  0  0  0  0
    0.4930    0.5140    1.3726 C   0  0  0  0  0  0  0  0  0  0  0  0
   -0.4558    0.7126    2.1321 O   0  0  0  0  0  0  0  0  0  0  0  0
    1.7341    0.9263    1.6557 N   0  0  0  0  0  0  0  0  0  0  0  0
    2.4427    0.7799    0.9514 H   0  0  0  0  0  0  0  0  0  0  0  0
    2.1071    1.6458    2.8723 C   0  0  0  0  0  0  0  0  0  0  0  0
    1.7200    1.1183    3.7470 H   0  0  0  0  0  0  0  0  0  0  0  0
    3.1925    1.7200    2.9487 H   0  0  0  0  0  0  0  0  0  0  0  0
    1.6771    2.6486    2.8515 H   0  0  0  0  0  0  0  0  0  0  0  0
  5  6  2  0  0  0  0
  5  7  1  0  0  0  0
  2  3  1  0  0  0  0
  2  4  1  0  0  0  0
  2  5  1  0  0  0  0
  1  2  1  0  0  0  0
 16 17  2  0  0  0  0
 16 18  1  0  0  0  0
 14 15  1  0  0  0  0
 11 12  1  0  0  0  0
 11 13  1  0  0  0  0
 11 14  1  0  0  0  0
  9 10  1  0  0  0  0
  9 11  1  0  0  0  0
  9 16  1  0  0  0  0
  7  8  1  0  0  0  0
  7  9  1  0  0  0  0
 20 21  1  0  0  0  0
 20 22  1  0  0  0  0
 20 23  1  0  0  0  0
 18 19  1  0  0  0  0
 18 20  1  0  0  0  0
M  END
$$$$
default_name
  -OEChem-01062215323D

 23 22  0     1  0  0  0  0  0999 V2000
   -2.6857   -3.6684    0.8743 H   0  0  0  0  0  0  0  0  0  0  0  0
   -2.6617   -2.6474    0.4953 C   0  0  0  0  0  0  0  0  0  0  0  0
   -3.2657   -2.0054    1.1353 H   0  0  0  0  0  0  0  0  0  0  0  0
   -3.0477   -2.6254   -0.5217 H   0  0  0  0  0  0  0  0  0  0  0  0
   -1.2337   -2.1564    0.4993 C   0  0  0  0  0  0  0  0  0  0  0  0
   -0.3327   -2.8864    0.8893 O   0  0  0  0  0  0  0  0  0  0  0  0
   -1.0277   -0.9164    0.0623 N   0  0  0  0  0  0  0  0  0  0  0  0
   -1.8237   -0.3604   -0.2157 H   0  0  0  0  0  0  0  0  0  0  0  0
    0.2713   -0.2414    0.0463 C   0  0  1  0  0  0  0  0  0  0  0  0
    1.0271   -0.9428   -0.3128 H   0  0  0  0  0  0  0  0  0  0  0  0
    0.1966    0.9381   -0.9372 C   0  0  0  0  0  0  0  0  0  0  0  0
   -0.6448    1.5768   -0.6591 H   0  0  0  0  0  0  0  0  0  0  0  0
    1.1168    1.5226   -0.8752 H   0  0  0  0  0  0  0  0  0  0  0  0
   -0.0530    0.3583   -2.6409 S   0  0  0  0  0  0  0  0  0  0  0  0
   -0.1931    1.5632   -3.2068 H   0  0  0  0  0  0  0  0  0  0  0  0
    0.6619    0.1914    1.4743 C   0  0  0  0  0  0  0  0  0  0  0  0
   -0.0892   -0.0566    2.4181 O   0  0  0  0  0  0  0  0  0  0  0  0
    1.8287    0.8260    1.6365 N   0  0  0  0  0  0  0  0  0  0  0  0
    2.3554    1.0471    0.8039 H   0  0  0  0  0  0  0  0  0  0  0  0
    2.3427    1.2915    2.9233 C   0  0  0  0  0  0  0  0  0  0  0  0
    2.2955    0.4818    3.6550 H   0  0  0  0  0  0  0  0  0  0  0  0
    3.3769    1.6216    2.8191 H   0  0  0  0  0  0  0  0  0  0  0  0
    1.7329    2.1221    3.2828 H   0  0  0  0  0  0  0  0  0  0  0  0
  5  6  2  0  0  0  0
  5  7  1  0  0  0  0
  2  3  1  0  0  0  0
  2  4  1  0  0  0  0
  2  5  1  0  0  0  0
  1  2  1  0  0  0  0
 16 17  2  0  0  0  0
 16 18  1  0  0  0  0
 14 15  1  0  0  0  0
 11 12  1  0  0  0  0
 11 13  1  0  0  0  0
 11 14  1  0  0  0  0
  9 10  1  0  0  0  0
  9 11  1  0  0  0  0
  9 16  1  0  0  0  0
  7  8  1  0  0  0  0
  7  9  1  0  0  0  0
 20 21  1  0  0  0  0
 20 22  1  0  0  0  0
 20 23  1  0  0  0  0
 18 19  1  0  0  0  0
 18 20  1  0  0  0  0
M  END
$$$$
default_name
  -OEChem-01062215323D

 23 22  0     1  0  0  0  0  0999 V2000
   -2.6857   -3.6684    0.8743 H   0  0  0  0  0  0  0  0  0  0  0  0
   -2.6617   -2.6474    0.4953 C   0  0  0  0  0  0  0  0  0  0  0  0
   -3.2657   -2.0054    1.1353 H   0  0  0  0  0  0  0  0  0  0  0  0
   -3.0477   -2.6254   -0.5217 H   0  0  0  0  0  0  0  0  0  0  0  0
   -1.2337   -2.1564    0.4993 C   0  0  0  0  0  0  0  0  0  0  0  0
   -0.3327   -2.8864    0.8893 O   0  0  0  0  0  0  0  0  0  0  0  0
   -1.0277   -0.9164    0.0623 N   0  0  0  0  0  0  0  0  0  0  0  0
   -1.8237   -0.3604   -0.2157 H   0  0  0  0  0  0  0  0  0  0  0  0
    0.2713   -0.2414    0.0463 C   0  0  1  0  0  0  0  0  0  0  0  0
    1.0271   -0.9428   -0.3128 H   0  0  0  0  0  0  0  0  0  0  0  0
    0.1966    0.9381   -0.9372 C   0  0  0  0  0  0  0  0  0  0  0  0
   -0.6448    1.5768   -0.6591 H   0  0  0  0  0  0  0  0  0  0  0  0
    1.1168    1.5226   -0.8752 H   0  0  0  0  0  0  0  0  0  0  0  0
   -0.0530    0.3583   -2.6409 S   0  0  0  0  0  0  0  0  0  0  0  0
   -0.1931    1.5632   -3.2068 H   0  0  0  0  0  0  0  0  0  0  0  0
    0.6619    0.1914    1.4743 C   0  0  0  0  0  0  0  0  0  0  0  0
    0.0696   -0.2841    2.4436 O   0  0  0  0  0  0  0  0  0  0  0  0
    1.6540    1.0793    1.6075 N   0  0  0  0  0  0  0  0  0  0  0  0
    2.0444    1.4681    0.7613 H   0  0  0  0  0  0  0  0  0  0  0  0
    2.1450    1.5816    2.8894 C   0  0  0  0  0  0  0  0  0  0  0  0
    2.3503    0.7445    3.5604 H   0  0  0  0  0  0  0  0  0  0  0  0
    3.0595    2.1576    2.7435 H   0  0  0  0  0  0  0  0  0  0  0  0
    1.3866    2.2182    3.3484 H   0  0  0  0  0  0  0  0  0  0  0  0
  5  6  2  0  0  0  0
  5  7  1  0  0  0  0
  2  3  1  0  0  0  0
  2  4  1  0  0  0  0
  2  5  1  0  0  0  0
  1  2  1  0  0  0  0
 16 17  2  0  0  0  0
 16 18  1  0  0  0  0
 14 15  1  0  0  0  0
 11 12  1  0  0  0  0
 11 13  1  0  0  0  0
 11 14  1  0  0  0  0
  9 10  1  0  0  0  0
  9 11  1  0  0  0  0
  9 16  1  0  0  0  0
  7  8  1  0  0  0  0
  7  9  1  0  0  0  0
 20 21  1  0  0  0  0
 20 22  1  0  0  0  0
 20 23  1  0  0  0  0
 18 19  1  0  0  0  0
 18 20  1  0  0  0  0
M  END
$$$$
default_name
  -OEChem-01062215323D

 23 22  0     1  0  0  0  0  0999 V2000
   -2.6857   -3.6684    0.8743 H   0  0  0  0  0  0  0  0  0  0  0  0
   -2.6617   -2.6474    0.4953 C   0  0  0  0  0  0  0  0  0  0  0  0
   -3.2657   -2.0054    1.1353 H   0  0  0  0  0  0  0  0  0  0  0  0
   -3.0477   -2.6254   -0.5217 H   0  0  0  0  0  0  0  0  0  0  0  0
   -1.2337   -2.1564    0.4993 C   0  0  0  0  0  0  0  0  0  0  0  0
   -0.3327   -2.8864    0.8893 O   0  0  0  0  0  0  0  0  0  0  0  0
   -1.0277   -0.9164    0.0623 N   0  0  0  0  0  0  0  0  0  0  0  0
   -1.8237   -0.3604   -0.2157 H   0  0  0  0  0  0  0  0  0  0  0  0
    0.2713   -0.2414    0.0463 C   0  0  1  0  0  0  0  0  0  0  0  0
    1.0271   -0.9428   -0.3128 H   0  0  0  0  0  0  0  0  0  0  0  0
    0.1966    0.9381   -0.9372 C   0  0  0  0  0  0  0  0  0  0  0  0
   -0.6448    1.5768   -0.6591 H   0  0  0  0  0  0  0  0  0  0  0  0
    1.1168    1.5226   -0.8752 H   0  0  0  0  0  0  0  0  0  0  0  0
   -0.0530    0.3583   -2.6409 S   0  0  0  0  0  0  0  0  0  0  0  0
   -0.1931    1.5632   -3.2068 H   0  0  0  0  0  0  0  0  0  0  0  0
    0.6619    0.1914    1.4743 C   0  0  0  0  0  0  0  0  0  0  0  0
    0.2795   -0.4675    2.4418 O   0  0  0  0  0  0  0  0  0  0  0  0
    1.4225    1.2840    1.6088 N   0  0  0  0  0  0  0  0  0  0  0  0
    1.6400    1.8030    0.7704 H   0  0  0  0  0  0  0  0  0  0  0  0
    1.8820    1.8167    2.8901 C   0  0  0  0  0  0  0  0  0  0  0  0
    2.3334    1.0175    3.4823 H   0  0  0  0  0  0  0  0  0  0  0  0
    2.6190    2.6043    2.7286 H   0  0  0  0  0  0  0  0  0  0  0  0
    1.0338    2.2237    3.4432 H   0  0  0  0  0  0  0  0  0  0  0  0
  5  6  2  0  0  0  0
  5  7  1  0  0  0  0
  2  3  1  0  0  0  0
  2  4  1  0  0  0  0
  2  5  1  0  0  0  0
  1  2  1  0  0  0  0
 16 17  2  0  0  0  0
 16 18  1  0  0  0  0
 14 15  1  0  0  0  0
 11 12  1  0  0  0  0
 11 13  1  0  0  0  0
 11 14  1  0  0  0  0
  9 10  1  0  0  0  0
  9 11  1  0  0  0  0
  9 16  1  0  0  0  0
  7  8  1  0  0  0  0
  7  9  1  0  0  0  0
 20 21  1  0  0  0  0
 20 22  1  0  0  0  0
 20 23  1  0  0  0  0
 18 19  1  0  0  0  0
 18 20  1  0  0  0  0
M  END
$$$$
default_name
  -OEChem-01062215323D

 23 22  0     1  0  0  0  0  0999 V2000
   -2.6857   -3.6684    0.8743 H   0  0  0  0  0  0  0  0  0  0  0  0
   -2.6617   -2.6474    0.4953 C   0  0  0  0  0  0  0  0  0  0  0  0
   -3.2657   -2.0054    1.1353 H   0  0  0  0  0  0  0  0  0  0  0  0
   -3.0477   -2.6254   -0.5217 H   0  0  0  0  0  0  0  0  0  0  0  0
   -1.2337   -2.1564    0.4993 C   0  0  0  0  0  0  0  0  0  0  0  0
   -0.3327   -2.8864    0.8893 O   0  0  0  0  0  0  0  0  0  0  0  0
   -1.0277   -0.9164    0.0623 N   0  0  0  0  0  0  0  0  0  0  0  0
   -1.8237   -0.3604   -0.2157 H   0  0  0  0  0  0  0  0  0  0  0  0
    0.2713   -0.2414    0.0463 C   0  0  1  0  0  0  0  0  0  0  0  0
    1.0271   -0.9428   -0.3128 H   0  0  0  0  0  0  0  0  0  0  0  0
    0.1966    0.9381   -0.9372 C   0  0  0  0  0  0  0  0  0  0  0  0
   -0.6448    1.5768   -0.6591 H   0  0  0  0  0  0  0  0  0  0  0  0
    1.1168    1.5226   -0.8752 H   0  0  0  0  0  0  0  0  0  0  0  0
   -0.0530    0.3583   -2.6409 S   0  0  0  0  0  0  0  0  0  0  0  0
   -0.1931    1.5632   -3.2068 H   0  0  0  0  0  0  0  0  0  0  0  0
    0.6619    0.1914    1.4743 C   0  0  0  0  0  0  0  0  0  0  0  0
    0.5259   -0.5942    2.4128 O   0  0  0  0  0  0  0  0  0  0  0  0
    1.1499    1.4261    1.6402 N   0  0  0  0  0  0  0  0  0  0  0  0
    1.1698    2.0291    0.8305 H   0  0  0  0  0  0  0  0  0  0  0  0
    1.5717    1.9808    2.9252 C   0  0  0  0  0  0  0  0  0  0  0  0
    2.2460    1.2823    3.4259 H   0  0  0  0  0  0  0  0  0  0  0  0
    2.0854    2.9311    2.7755 H   0  0  0  0  0  0  0  0  0  0  0  0
    0.6986    2.1383    3.5608 H   0  0  0  0  0  0  0  0  0  0  0  0
  5  6  2  0  0  0  0
  5  7  1  0  0  0  0
  2  3  1  0  0  0  0
  2  4  1  0  0  0  0
  2  5  1  0  0  0  0
  1  2  1  0  0  0  0
 16 17  2  0  0  0  0
 16 18  1  0  0  0  0
 14 15  1  0  0  0  0
 11 12  1  0  0  0  0
 11 13  1  0  0  0  0
 11 14  1  0  0  0  0
  9 10  1  0  0  0  0
  9 11  1  0  0  0  0
  9 16  1  0  0  0  0
  7  8  1  0  0  0  0
  7  9  1  0  0  0  0
 20 21  1  0  0  0  0
 20 22  1  0  0  0  0
 20 23  1  0  0  0  0
 18 19  1  0  0  0  0
 18 20  1  0  0  0  0
M  END
$$$$
default_name
  -OEChem-01062215323D

 23 22  0     1  0  0  0  0  0999 V2000
   -2.6857   -3.6684    0.8743 H   0  0  0  0  0  0  0  0  0  0  0  0
   -2.6617   -2.6474    0.4953 C   0  0  0  0  0  0  0  0  0  0  0  0
   -3.2657   -2.0054    1.1353 H   0  0  0  0  0  0  0  0  0  0  0  0
   -3.0477   -2.6254   -0.5217 H   0  0  0  0  0  0  0  0  0  0  0  0
   -1.2337   -2.1564    0.4993 C   0  0  0  0  0  0  0  0  0  0  0  0
   -0.3327   -2.8864    0.8893 O   0  0  0  0  0  0  0  0  0  0  0  0
   -1.0277   -0.9164    0.0623 N   0  0  0  0  0  0  0  0  0  0  0  0
   -1.8237   -0.3604   -0.2157 H   0  0  0  0  0  0  0  0  0  0  0  0
    0.2713   -0.2414    0.0463 C   0  0  1  0  0  0  0  0  0  0  0  0
    1.0271   -0.9428   -0.3128 H   0  0  0  0  0  0  0  0  0  0  0  0
    0.1966    0.9381   -0.9372 C   0  0  0  0  0  0  0  0  0  0  0  0
   -0.6448    1.5768   -0.6591 H   0  0  0  0  0  0  0  0  0  0  0  0
    1.1168    1.5226   -0.8752 H   0  0  0  0  0  0  0  0  0  0  0  0
   -0.0530    0.3583   -2.6409 S   0  0  0  0  0  0  0  0  0  0  0  0
   -0.1931    1.5632   -3.2068 H   0  0  0  0  0  0  0  0  0  0  0  0
    0.6619    0.1914    1.4743 C   0  0  0  0  0  0  0  0  0  0  0  0
    0.7923   -0.6557    2.3585 O   0  0  0  0  0  0  0  0  0  0  0  0
    0.8549    1.4961    1.6997 N   0  0  0  0  0  0  0  0  0  0  0  0
    0.6658    2.1308    0.9375 H   0  0  0  0  0  0  0  0  0  0  0  0
    1.2352    2.0626    2.9925 C   0  0  0  0  0  0  0  0  0  0  0  0
    2.0941    1.5209    3.3952 H   0  0  0  0  0  0  0  0  0  0  0  0
    1.4950    3.1159    2.8809 H   0  0  0  0  0  0  0  0  0  0  0  0
    0.4038    1.9678    3.6931 H   0  0  0  0  0  0  0  0  0  0  0  0
  5  6  2  0  0  0  0
  5  7  1  0  0  0  0
  2  3  1  0  0  0  0
  2  4  1  0  0  0  0
  2  5  1  0  0  0  0
  1  2  1  0  0  0  0
 16 17  2  0  0  0  0
 16 18  1  0  0  0  0
 14 15  1  0  0  0  0
 11 12  1  0  0  0  0
 11 13  1  0  0  0  0
 11 14  1  0  0  0  0
  9 10  1  0  0  0  0
  9 11  1  0  0  0  0
  9 16  1  0  0  0  0
  7  8  1  0  0  0  0
  7  9  1  0  0  0  0
 20 21  1  0  0  0  0
 20 22  1  0  0  0  0
 20 23  1  0  0  0  0
 18 19  1  0  0  0  0
 18 20  1  0  0  0  0
M  END
$$$$
default_name
  -OEChem-01062215323D

 23 22  0     1  0  0  0  0  0999 V2000
   -2.6857   -3.6684    0.8743 H   0  0  0  0  0  0  0  0  0  0  0  0
   -2.6617   -2.6474    0.4953 C   0  0  0  0  0  0  0  0  0  0  0  0
   -3.2657   -2.0054    1.1353 H   0  0  0  0  0  0  0  0  0  0  0  0
   -3.0477   -2.6254   -0.5217 H   0  0  0  0  0  0  0  0  0  0  0  0
   -1.2337   -2.1564    0.4993 C   0  0  0  0  0  0  0  0  0  0  0  0
   -0.3327   -2.8864    0.8893 O   0  0  0  0  0  0  0  0  0  0  0  0
   -1.0277   -0.9164    0.0623 N   0  0  0  0  0  0  0  0  0  0  0  0
   -1.8237   -0.3604   -0.2157 H   0  0  0  0  0  0  0  0  0  0  0  0
    0.2713   -0.2414    0.0463 C   0  0  1  0  0  0  0  0  0  0  0  0
    1.0271   -0.9428   -0.3128 H   0  0  0  0  0  0  0  0  0  0  0  0
    0.1966    0.9381   -0.9372 C   0  0  0  0  0  0  0  0  0  0  0  0
   -0.6448    1.5768   -0.6591 H   0  0  0  0  0  0  0  0  0  0  0  0
    1.1168    1.5226   -0.8752 H   0  0  0  0  0  0  0  0  0  0  0  0
   -0.0530    0.3583   -2.6409 S   0  0  0  0  0  0  0  0  0  0  0  0
   -0.1931    1.5632   -3.2068 H   0  0  0  0  0  0  0  0  0  0  0  0
    0.6619    0.1914    1.4743 C   0  0  0  0  0  0  0  0  0  0  0  0
    1.0603   -0.6477    2.2828 O   0  0  0  0  0  0  0  0  0  0  0  0
    0.5574    1.4890    1.7832 N   0  0  0  0  0  0  0  0  0  0  0  0
    0.1623    2.1013    1.0841 H   0  0  0  0  0  0  0  0  0  0  0  0
    0.8955    2.0565    3.0872 C   0  0  0  0  0  0  0  0  0  0  0  0
    1.8879    1.7169    3.3921 H   0  0  0  0  0  0  0  0  0  0  0  0
    0.8881    3.1460    3.0378 H   0  0  0  0  0  0  0  0  0  0  0  0
    0.1696    1.7238    3.8311 H   0  0  0  0  0  0  0  0  0  0  0  0
  5  6  2  0  0  0  0
  5  7  1  0  0  0  0
  2  3  1  0  0  0  0
  2  4  1  0  0  0  0
  2  5  1  0  0  0  0
  1  2  1  0  0  0  0
 16 17  2  0  0  0  0
 16 18  1  0  0  0  0
 14 15  1  0  0  0  0
 11 12  1  0  0  0  0
 11 13  1  0  0  0  0
 11 14  1  0  0  0  0
  9 10  1  0  0  0  0
  9 11  1  0  0  0  0
  9 16  1  0  0  0  0
  7  8  1  0  0  0  0
  7  9  1  0  0  0  0
 20 21  1  0  0  0  0
 20 22  1  0  0  0  0
 20 23  1  0  0  0  0
 18 19  1  0  0  0  0
 18 20  1  0  0  0  0
M  END
$$$$
default_name
  -OEChem-01062215323D

 23 22  0     1  0  0  0  0  0999 V2000
   -2.6857   -3.6684    0.8743 H   0  0  0  0  0  0  0  0  0  0  0  0
   -2.6617   -2.6474    0.4953 C   0  0  0  0  0  0  0  0  0  0  0  0
   -3.2657   -2.0054    1.1353 H   0  0  0  0  0  0  0  0  0  0  0  0
   -3.0477   -2.6254   -0.5217 H   0  0  0  0  0  0  0  0  0  0  0  0
   -1.2337   -2.1564    0.4993 C   0  0  0  0  0  0  0  0  0  0  0  0
   -0.3327   -2.8864    0.8893 O   0  0  0  0  0  0  0  0  0  0  0  0
   -1.0277   -0.9164    0.0623 N   0  0  0  0  0  0  0  0  0  0  0  0
   -1.8237   -0.3604   -0.2157 H   0  0  0  0  0  0  0  0  0  0  0  0
    0.2713   -0.2414    0.0463 C   0  0  1  0  0  0  0  0  0  0  0  0
    1.0271   -0.9428   -0.3128 H   0  0  0  0  0  0  0  0  0  0  0  0
    0.1966    0.9381   -0.9372 C   0  0  0  0  0  0  0  0  0  0  0  0
   -0.6448    1.5768   -0.6591 H   0  0  0  0  0  0  0  0  0  0  0  0
    1.1168    1.5226   -0.8752 H   0  0  0  0  0  0  0  0  0  0  0  0
   -0.0530    0.3583   -2.6409 S   0  0  0  0  0  0  0  0  0  0  0  0
   -0.1931    1.5632   -3.2068 H   0  0  0  0  0  0  0  0  0  0  0  0
    0.6619    0.1914    1.4743 C   0  0  0  0  0  0  0  0  0  0  0  0
    1.3118   -0.5707    2.1907 O   0  0  0  0  0  0  0  0  0  0  0  0
    0.2778    1.4055    1.8850 N   0  0  0  0  0  0  0  0  0  0  0  0
   -0.3062    1.9425    1.2604 H   0  0  0  0  0  0  0  0  0  0  0  0
    0.5757    1.9631    3.2030 C   0  0  0  0  0  0  0  0  0  0  0  0
    1.6416    1.8570    3.4170 H   0  0  0  0  0  0  0  0  0  0  0  0
    0.3061    3.0194    3.2354 H   0  0  0  0  0  0  0  0  0  0  0  0
    0.0118    1.4229    3.9655 H   0  0  0  0  0  0  0  0  0  0  0  0
  5  6  2  0  0  0  0
  5  7  1  0  0  0  0
  2  3  1  0  0  0  0
  2  4  1  0  0  0  0
  2  5  1  0  0  0  0
  1  2  1  0  0  0  0
 16 17  2  0  0  0  0
 16 18  1  0  0  0  0
 14 15  1  0  0  0  0
 11 12  1  0  0  0  0
 11 13  1  0  0  0  0
 11 14  1  0  0  0  0
  9 10  1  0  0  0  0
  9 11  1  0  0  0  0
  9 16  1  0  0  0  0
  7  8  1  0  0  0  0
  7  9  1  0  0  0  0
 20 21  1  0  0  0  0
 20 22  1  0  0  0  0
 20 23  1  0  0  0  0
 18 19  1  0  0  0  0
 18 20  1  0  0  0  0
M  END
$$$$
default_name
  -OEChem-01062215323D

 23 22  0     1  0  0  0  0  0999 V2000
   -2.6857   -3.6684    0.8743 H   0  0  0  0  0  0  0  0  0  0  0  0
   -2.6617   -2.6474    0.4953 C   0  0  0  0  0  0  0  0  0  0  0  0
   -3.2657   -2.0054    1.1353 H   0  0  0  0  0  0  0  0  0  0  0  0
   -3.0477   -2.6254   -0.5217 H   0  0  0  0  0  0  0  0  0  0  0  0
   -1.2337   -2.1564    0.4993 C   0  0  0  0  0  0  0  0  0  0  0  0
   -0.3327   -2.8864    0.8893 O   0  0  0  0  0  0  0  0  0  0  0  0
   -1.0277   -0.9164    0.0623 N   0  0  0  0  0  0  0  0  0  0  0  0
   -1.8237   -0.3604   -0.2157 H   0  0  0  0  0  0  0  0  0  0  0  0
    0.2713   -0.2414    0.0463 C   0  0  1  0  0  0  0  0  0  0  0  0
    1.0271   -0.9428   -0.3128 H   0  0  0  0  0  0  0  0  0  0  0  0
    0.1966    0.9381   -0.9372 C   0  0  0  0  0  0  0  0  0  0  0  0
   -0.6448    1.5768   -0.6591 H   0  0  0  0  0  0  0  0  0  0  0  0
    1.1168    1.5226   -0.8752 H   0  0  0  0  0  0  0  0  0  0  0  0
   -0.0530    0.3583   -2.6409 S   0  0  0  0  0  0  0  0  0  0  0  0
   -0.1931    1.5632   -3.2068 H   0  0  0  0  0  0  0  0  0  0  0  0
    0.6619    0.1914    1.4743 C   0  0  0  0  0  0  0  0  0  0  0  0
    1.5296   -0.4301    2.0885 O   0  0  0  0  0  0  0  0  0  0  0  0
    0.0352    1.2511    1.9981 N   0  0  0  0  0  0  0  0  0  0  0  0
   -0.7079    1.6653    1.4543 H   0  0  0  0  0  0  0  0  0  0  0  0
    0.2975    1.7886    3.3320 C   0  0  0  0  0  0  0  0  0  0  0  0
    1.3719    1.9317    3.4682 H   0  0  0  0  0  0  0  0  0  0  0  0
   -0.2114    2.7447    3.4602 H   0  0  0  0  0  0  0  0  0  0  0  0
   -0.0588    1.0857    4.0870 H   0  0  0  0  0  0  0  0  0  0  0  0
  5  6  2  0  0  0  0
  5  7  1  0  0  0  0
  2  3  1  0  0  0  0
  2  4  1  0  0  0  0
  2  5  1  0  0  0  0
  1  2  1  0  0  0  0
 16 17  2  0  0  0  0
 16 18  1  0  0  0  0
 14 15  1  0  0  0  0
 11 12  1  0  0  0  0
 11 13  1  0  0  0  0
 11 14  1  0  0  0  0
  9 10  1  0  0  0  0
  9 11  1  0  0  0  0
  9 16  1  0  0  0  0
  7  8  1  0  0  0  0
  7  9  1  0  0  0  0
 20 21  1  0  0  0  0
 20 22  1  0  0  0  0
 20 23  1  0  0  0  0
 18 19  1  0  0  0  0
 18 20  1  0  0  0  0
M  END
$$$$
default_name
  -OEChem-01062215323D

 23 22  0     1  0  0  0  0  0999 V2000
   -2.6857   -3.6684    0.8743 H   0  0  0  0  0  0  0  0  0  0  0  0
   -2.6617   -2.6474    0.4953 C   0  0  0  0  0  0  0  0  0  0  0  0
   -3.2657   -2.0054    1.1353 H   0  0  0  0  0  0  0  0  0  0  0  0
   -3.0477   -2.6254   -0.5217 H   0  0  0  0  0  0  0  0  0  0  0  0
   -1.2337   -2.1564    0.4993 C   0  0  0  0  0  0  0  0  0  0  0  0
   -0.3327   -2.8864    0.8893 O   0  0  0  0  0  0  0  0  0  0  0  0
   -1.0277   -0.9164    0.0623 N   0  0  0  0  0  0  0  0  0  0  0  0
   -1.8237   -0.3604   -0.2157 H   0  0  0  0  0  0  0  0  0  0  0  0
    0.2713   -0.2414    0.0463 C   0  0  1  0  0  0  0  0  0  0  0  0
    1.0271   -0.9428   -0.3128 H   0  0  0  0  0  0  0  0  0  0  0  0
    0.1966    0.9381   -0.9372 C   0  0  0  0  0  0  0  0  0  0  0  0
   -0.6448    1.5768   -0.6591 H   0  0  0  0  0  0  0  0  0  0  0  0
    1.1168    1.5226   -0.8752 H   0  0  0  0  0  0  0  0  0  0  0  0
   -0.0530    0.3583   -2.6409 S   0  0  0  0  0  0  0  0  0  0  0  0
   -0.1931    1.5632   -3.2068 H   0  0  0  0  0  0  0  0  0  0  0  0
    0.6619    0.1914    1.4743 C   0  0  0  0  0  0  0  0  0  0  0  0
    1.6989   -0.2354    1.9832 O   0  0  0  0  0  0  0  0  0  0  0  0
   -0.1540    1.0365    2.1149 N   0  0  0  0  0  0  0  0  0  0  0  0
   -1.0155    1.2886    1.6526 H   0  0  0  0  0  0  0  0  0  0  0  0
    0.0800    1.5449    3.4653 C   0  0  0  0  0  0  0  0  0  0  0  0
    1.0971    1.9359    3.5420 H   0  0  0  0  0  0  0  0  0  0  0  0
   -0.6290    2.3406    3.6969 H   0  0  0  0  0  0  0  0  0  0  0  0
   -0.0373    0.7351    4.1874 H   0  0  0  0  0  0  0  0  0  0  0  0
  5  6  2  0  0  0  0
  5  7  1  0  0  0  0
  2  3  1  0  0  0  0
  2  4  1  0  0  0  0
  2  5  1  0  0  0  0
  1  2  1  0  0  0  0
 16 17  2  0  0  0  0
 16 18  1  0  0  0  0
 14 15  1  0  0  0  0
 11 12  1  0  0  0  0
 11 13  1  0  0  0  0
 11 14  1  0  0  0  0
  9 10  1  0  0  0  0
  9 11  1  0  0  0  0
  9 16  1  0  0  0  0
  7  8  1  0  0  0  0
  7  9  1  0  0  0  0
 20 21  1  0  0  0  0
 20 22  1  0  0  0  0
 20 23  1  0  0  0  0
 18 19  1  0  0  0  0
 18 20  1  0  0  0  0
M  END
$$$$
default_name
  -OEChem-01062215323D

 23 22  0     1  0  0  0  0  0999 V2000
   -2.6857   -3.6684    0.8743 H   0  0  0  0  0  0  0  0  0  0  0  0
   -2.6617   -2.6474    0.4953 C   0  0  0  0  0  0  0  0  0  0  0  0
   -3.2657   -2.0054    1.1353 H   0  0  0  0  0  0  0  0  0  0  0  0
   -3.0477   -2.6254   -0.5217 H   0  0  0  0  0  0  0  0  0  0  0  0
   -1.2337   -2.1564    0.4993 C   0  0  0  0  0  0  0  0  0  0  0  0
   -0.3327   -2.8864    0.8893 O   0  0  0  0  0  0  0  0  0  0  0  0
   -1.0277   -0.9164    0.0623 N   0  0  0  0  0  0  0  0  0  0  0  0
   -1.8237   -0.3604   -0.2157 H   0  0  0  0  0  0  0  0  0  0  0  0
    0.2713   -0.2414    0.0463 C   0  0  1  0  0  0  0  0  0  0  0  0
    1.0271   -0.9428   -0.3128 H   0  0  0  0  0  0  0  0  0  0  0  0
    0.1966    0.9381   -0.9372 C   0  0  0  0  0  0  0  0  0  0  0  0
   -0.6448    1.5768   -0.6591 H   0  0  0  0  0  0  0  0  0  0  0  0
    1.1168    1.5226   -0.8752 H   0  0  0  0  0  0  0  0  0  0  0  0
   -0.0530    0.3583   -2.6409 S   0  0  0  0  0  0  0  0  0  0  0  0
   -0.1931    1.5632   -3.2068 H   0  0  0  0  0  0  0  0  0  0  0  0
    0.6619    0.1914    1.4743 C   0  0  0  0  0  0  0  0  0  0  0  0
    1.8081    0.0001    1.8819 O   0  0  0  0  0  0  0  0  0  0  0  0
   -0.2768    0.7762    2.2274 N   0  0  0  0  0  0  0  0  0  0  0  0
   -1.2079    0.8381    1.8418 H   0  0  0  0  0  0  0  0  0  0  0  0
   -0.0620    1.2488    3.5939 C   0  0  0  0  0  0  0  0  0  0  0  0
    0.8362    1.8693    3.6336 H   0  0  0  0  0  0  0  0  0  0  0  0
   -0.9185    1.8347    3.9294 H   0  0  0  0  0  0  0  0  0  0  0  0
    0.0747    0.3950    4.2598 H   0  0  0  0  0  0  0  0  0  0  0  0
  5  6  2  0  0  0  0
  5  7  1  0  0  0  0
  2  3  1  0  0  0  0
  2  4  1  0  0  0  0
  2  5  1  0  0  0  0
  1  2  1  0  0  0  0
 16 17  2  0  0  0  0
 16 18  1  0  0  0  0
 14 15  1  0  0  0  0
 11 12  1  0  0  0  0
 11 13  1  0  0  0  0
 11 14  1  0  0  0  0
  9 10  1  0  0  0  0
  9 11  1  0  0  0  0
  9 16  1  0  0  0  0
  7  8  1  0  0  0  0
  7  9  1  0  0  0  0
 20 21  1  0  0  0  0
 20 22  1  0  0  0  0
 20 23  1  0  0  0  0
 18 19  1  0  0  0  0
 18 20  1  0  0  0  0
M  END
$$$$
default_name
  -OEChem-01062215323D

 23 22  0     1  0  0  0  0  0999 V2000
   -2.6857   -3.6684    0.8743 H   0  0  0  0  0  0  0  0  0  0  0  0
   -2.6617   -2.6474    0.4953 C   0  0  0  0  0  0  0  0  0  0  0  0
   -3.2657   -2.0054    1.1353 H   0  0  0  0  0  0  0  0  0  0  0  0
   -3.0477   -2.6254   -0.5217 H   0  0  0  0  0  0  0  0  0  0  0  0
   -1.2337   -2.1564    0.4993 C   0  0  0  0  0  0  0  0  0  0  0  0
   -0.3327   -2.8864    0.8893 O   0  0  0  0  0  0  0  0  0  0  0  0
   -1.0277   -0.9164    0.0623 N   0  0  0  0  0  0  0  0  0  0  0  0
   -1.8237   -0.3604   -0.2157 H   0  0  0  0  0  0  0  0  0  0  0  0
    0.2713   -0.2414    0.0463 C   0  0  1  0  0  0  0  0  0  0  0  0
    1.0271   -0.9428   -0.3128 H   0  0  0  0  0  0  0  0  0  0  0  0
    0.1966    0.9381   -0.9372 C   0  0  0  0  0  0  0  0  0  0  0  0
   -0.6448    1.5768   -0.6591 H   0  0  0  0  0  0  0  0  0  0  0  0
    1.1168    1.5226   -0.8752 H   0  0  0  0  0  0  0  0  0  0  0  0
   -0.0530    0.3583   -2.6409 S   0  0  0  0  0  0  0  0  0  0  0  0
   -0.1931    1.5632   -3.2068 H   0  0  0  0  0  0  0  0  0  0  0  0
    0.6619    0.1914    1.4743 C   0  0  0  0  0  0  0  0  0  0  0  0
    1.8497    0.2604    1.7916 O   0  0  0  0  0  0  0  0  0  0  0  0
   -0.3248    0.4879    2.3279 N   0  0  0  0  0  0  0  0  0  0  0  0
   -1.2720    0.3444    2.0090 H   0  0  0  0  0  0  0  0  0  0  0  0
   -0.1188    0.9202    3.7091 C   0  0  0  0  0  0  0  0  0  0  0  0
    0.6067    1.7364    3.7367 H   0  0  0  0  0  0  0  0  0  0  0  0
   -1.0600    1.2614    4.1418 H   0  0  0  0  0  0  0  0  0  0  0  0
    0.2697    0.0886    4.2993 H   0  0  0  0  0  0  0  0  0  0  0  0
  5  6  2  0  0  0  0
  5  7  1  0  0  0  0
  2  3  1  0  0  0  0
  2  4  1  0  0  0  0
  2  5  1  0  0  0  0
  1  2  1  0  0  0  0
 16 17  2  0  0  0  0
 16 18  1  0  0  0  0
 14 15  1  0  0  0  0
 11 12  1  0  0  0  0
 11 13  1  0  0  0  0
 11 14  1  0  0  0  0
  9 10  1  0  0  0  0
  9 11  1  0  0  0  0
  9 16  1  0  0  0  0
  7  8  1  0  0  0  0
  7  9  1  0  0  0  0
 20 21  1  0  0  0  0
 20 22  1  0  0  0  0
 20 23  1  0  0  0  0
 18 19  1  0  0  0  0
 18 20  1  0  0  0  0
M  END
$$$$
default_name
  -OEChem-01062215323D

 23 22  0     1  0  0  0  0  0999 V2000
   -2.6857   -3.6684    0.8743 H   0  0  0  0  0  0  0  0  0  0  0  0
   -2.6617   -2.6474    0.4953 C   0  0  0  0  0  0  0  0  0  0  0  0
   -3.2657   -2.0054    1.1353 H   0  0  0  0  0  0  0  0  0  0  0  0
   -3.0477   -2.6254   -0.5217 H   0  0  0  0  0  0  0  0  0  0  0  0
   -1.2337   -2.1564    0.4993 C   0  0  0  0  0  0  0  0  0  0  0  0
   -0.3327   -2.8864    0.8893 O   0  0  0  0  0  0  0  0  0  0  0  0
   -1.0277   -0.9164    0.0623 N   0  0  0  0  0  0  0  0  0  0  0  0
   -1.8237   -0.3604   -0.2157 H   0  0  0  0  0  0  0  0  0  0  0  0
    0.2713   -0.2414    0.0463 C   0  0  1  0  0  0  0  0  0  0  0  0
    1.0271   -0.9428   -0.3128 H   0  0  0  0  0  0  0  0  0  0  0  0
    0.1966    0.9381   -0.9372 C   0  0  0  0  0  0  0  0  0  0  0  0
   -0.6448    1.5768   -0.6591 H   0  0  0  0  0  0  0  0  0  0  0  0
    1.1168    1.5226   -0.8752 H   0  0  0  0  0  0  0  0  0  0  0  0
   -0.0530    0.3583   -2.6409 S   0  0  0  0  0  0  0  0  0  0  0  0
   -0.1931    1.5632   -3.2068 H   0  0  0  0  0  0  0  0  0  0  0  0
    0.6619    0.1914    1.4743 C   0  0  0  0  0  0  0  0  0  0  0  0
    1.8211    0.5278    1.7185 O   0  0  0  0  0  0  0  0  0  0  0  0
   -0.2949    0.1914    2.4096 N   0  0  0  0  0  0  0  0  0  0  0  0
   -1.2036   -0.1588    2.1427 H   0  0  0  0  0  0  0  0  0  0  0  0
   -0.0866    0.5817    3.8029 C   0  0  0  0  0  0  0  0  0  0  0  0
    0.4244    1.5463    3.8441 H   0  0  0  0  0  0  0  0  0  0  0  0
   -1.0438    0.6598    4.3198 H   0  0  0  0  0  0  0  0  0  0  0  0
    0.5343   -0.1633    4.3033 H   0  0  0  0  0  0  0  0  0  0  0  0
  5  6  2  0  0  0  0
  5  7  1  0  0  0  0
  2  3  1  0  0  0  0
  2  4  1  0  0  0  0
  2  5  1  0  0  0  0
  1  2  1  0  0  0  0
 16 17  2  0  0  0  0
 16 18  1  0  0  0  0
 14 15  1  0  0  0  0
 11 12  1  0  0  0  0
 11 13  1  0  0  0  0
 11 14  1  0  0  0  0
  9 10  1  0  0  0  0
  9 11  1  0  0  0  0
  9 16  1  0  0  0  0
  7  8  1  0  0  0  0
  7  9  1  0  0  0  0
 20 21  1  0  0  0  0
 20 22  1  0  0  0  0
 20 23  1  0  0  0  0
 18 19  1  0  0  0  0
 18 20  1  0  0  0  0
M  END
$$$$
default_name
  -OEChem-01062215323D

 23 22  0     1  0  0  0  0  0999 V2000
   -2.6857   -3.6684    0.8743 H   0  0  0  0  0  0  0  0  0  0  0  0
   -2.6617   -2.6474    0.4953 C   0  0  0  0  0  0  0  0  0  0  0  0
   -3.2657   -2.0054    1.1353 H   0  0  0  0  0  0  0  0  0  0  0  0
   -3.0477   -2.6254   -0.5217 H   0  0  0  0  0  0  0  0  0  0  0  0
   -1.2337   -2.1564    0.4993 C   0  0  0  0  0  0  0  0  0  0  0  0
   -0.3327   -2.8864    0.8893 O   0  0  0  0  0  0  0  0  0  0  0  0
   -1.0277   -0.9164    0.0623 N   0  0  0  0  0  0  0  0  0  0  0  0
   -1.8237   -0.3604   -0.2157 H   0  0  0  0  0  0  0  0  0  0  0  0
    0.2713   -0.2414    0.0463 C   0  0  1  0  0  0  0  0  0  0  0  0
    1.0271   -0.9428   -0.3128 H   0  0  0  0  0  0  0  0  0  0  0  0
    0.1966    0.9381   -0.9372 C   0  0  0  0  0  0  0  0  0  0  0  0
   -0.6448    1.5768   -0.6591 H   0  0  0  0  0  0  0  0  0  0  0  0
    1.1168    1.5226   -0.8752 H   0  0  0  0  0  0  0  0  0  0  0  0
   -0.0530    0.3583   -2.6409 S   0  0  0  0  0  0  0  0  0  0  0  0
   -0.1931    1.5632   -3.2068 H   0  0  0  0  0  0  0  0  0  0  0  0
    0.6619    0.1914    1.4743 C   0  0  0  0  0  0  0  0  0  0  0  0
    1.7240    0.7839    1.6674 O   0  0  0  0  0  0  0  0  0  0  0  0
   -0.1890   -0.0932    2.4669 N   0  0  0  0  0  0  0  0  0  0  0  0
   -1.0071   -0.6372    2.2340 H   0  0  0  0  0  0  0  0  0  0  0  0
    0.0324    0.2563    3.8690 C   0  0  0  0  0  0  0  0  0  0  0  0
    0.3016    1.3119    3.9488 H   0  0  0  0  0  0  0  0  0  0  0  0
   -0.8711    0.0710    4.4510 H   0  0  0  0  0  0  0  0  0  0  0  0
    0.8506   -0.3434    4.2714 H   0  0  0  0  0  0  0  0  0  0  0  0
  5  6  2  0  0  0  0
  5  7  1  0  0  0  0
  2  3  1  0  0  0  0
  2  4  1  0  0  0  0
  2  5  1  0  0  0  0
  1  2  1  0  0  0  0
 16 17  2  0  0  0  0
 16 18  1  0  0  0  0
 14 15  1  0  0  0  0
 11 12  1  0  0  0  0
 11 13  1  0  0  0  0
 11 14  1  0  0  0  0
  9 10  1  0  0  0  0
  9 11  1  0  0  0  0
  9 16  1  0  0  0  0
  7  8  1  0  0  0  0
  7  9  1  0  0  0  0
 20 21  1  0  0  0  0
 20 22  1  0  0  0  0
 20 23  1  0  0  0  0
 18 19  1  0  0  0  0
 18 20  1  0  0  0  0
M  END
$$$$
default_name
  -OEChem-01062215323D

 23 22  0     1  0  0  0  0  0999 V2000
   -2.6857   -3.6684    0.8743 H   0  0  0  0  0  0  0  0  0  0  0  0
   -2.6617   -2.6474    0.4953 C   0  0  0  0  0  0  0  0  0  0  0  0
   -3.2657   -2.0054    1.1353 H   0  0  0  0  0  0  0  0  0  0  0  0
   -3.0477   -2.6254   -0.5217 H   0  0  0  0  0  0  0  0  0  0  0  0
   -1.2337   -2.1564    0.4993 C   0  0  0  0  0  0  0  0  0  0  0  0
   -0.3327   -2.8864    0.8893 O   0  0  0  0  0  0  0  0  0  0  0  0
   -1.0277   -0.9164    0.0623 N   0  0  0  0  0  0  0  0  0  0  0  0
   -1.8237   -0.3604   -0.2157 H   0  0  0  0  0  0  0  0  0  0  0  0
    0.2713   -0.2414    0.0463 C   0  0  1  0  0  0  0  0  0  0  0  0
    1.0271   -0.9428   -0.3128 H   0  0  0  0  0  0  0  0  0  0  0  0
    0.1966    0.9381   -0.9372 C   0  0  0  0  0  0  0  0  0  0  0  0
   -0.6448    1.5768   -0.6591 H   0  0  0  0  0  0  0  0  0  0  0  0
    1.1168    1.5226   -0.8752 H   0  0  0  0  0  0  0  0  0  0  0  0
   -0.0530    0.3583   -2.6409 S   0  0  0  0  0  0  0  0  0  0  0  0
   -0.1931    1.5632   -3.2068 H   0  0  0  0  0  0  0  0  0  0  0  0
    0.6619    0.1914    1.4743 C   0  0  0  0  0  0  0  0  0  0  0  0
    1.5651    1.0115    1.6419 O   0  0  0  0  0  0  0  0  0  0  0  0
   -0.0143   -0.3465    2.4959 N   0  0  0  0  0  0  0  0  0  0  0  0
   -0.6961   -1.0583    2.2766 H   0  0  0  0  0  0  0  0  0  0  0  0
    0.2301   -0.0339    3.9028 C   0  0  0  0  0  0  0  0  0  0  0  0
    0.2468    1.0492    4.0434 H   0  0  0  0  0  0  0  0  0  0  0  0
   -0.5537   -0.4651    4.5266 H   0  0  0  0  0  0  0  0  0  0  0  0
    1.1969   -0.4395    4.2058 H   0  0  0  0  0  0  0  0  0  0  0  0
  5  6  2  0  0  0  0
  5  7  1  0  0  0  0
  2  3  1  0  0  0  0
  2  4  1  0  0  0  0
  2  5  1  0  0  0  0
  1  2  1  0  0  0  0
 16 17  2  0  0  0  0
 16 18  1  0  0  0  0
 14 15  1  0  0  0  0
 11 12  1  0  0  0  0
 11 13  1  0  0  0  0
 11 14  1  0  0  0  0
  9 10  1  0  0  0  0
  9 11  1  0  0  0  0
  9 16  1  0  0  0  0
  7  8  1  0  0  0  0
  7  9  1  0  0  0  0
 20 21  1  0  0  0  0
 20 22  1  0  0  0  0
 20 23  1  0  0  0  0
 18 19  1  0  0  0  0
 18 20  1  0  0  0  0
M  END
$$$$
default_name
  -OEChem-01062215323D

 23 22  0     1  0  0  0  0  0999 V2000
   -2.6857   -3.6684    0.8743 H   0  0  0  0  0  0  0  0  0  0  0  0
   -2.6617   -2.6474    0.4953 C   0  0  0  0  0  0  0  0  0  0  0  0
   -3.2657   -2.0054    1.1353 H   0  0  0  0  0  0  0  0  0  0  0  0
   -3.0477   -2.6254   -0.5217 H   0  0  0  0  0  0  0  0  0  0  0  0
   -1.2337   -2.1564    0.4993 C   0  0  0  0  0  0  0  0  0  0  0  0
   -0.3327   -2.8864    0.8893 O   0  0  0  0  0  0  0  0  0  0  0  0
   -1.0277   -0.9164    0.0623 N   0  0  0  0  0  0  0  0  0  0  0  0
   -1.8237   -0.3604   -0.2157 H   0  0  0  0  0  0  0  0  0  0  0  0
    0.2713   -0.2414    0.0463 C   0  0  1  0  0  0  0  0  0  0  0  0
    1.0271   -0.9428   -0.3128 H   0  0  0  0  0  0  0  0  0  0  0  0
    0.1966    0.9381   -0.9372 C   0  0  0  0  0  0  0  0  0  0  0  0
   -0.6448    1.5768   -0.6591 H   0  0  0  0  0  0  0  0  0  0  0  0
    1.1168    1.5226   -0.8752 H   0  0  0  0  0  0  0  0  0  0  0  0
   -0.0530    0.3583   -2.6409 S   0  0  0  0  0  0  0  0  0  0  0  0
   -0.1931    1.5632   -3.2068 H   0  0  0  0  0  0  0  0  0  0  0  0
    0.6619    0.1914    1.4743 C   0  0  0  0  0  0  0  0  0  0  0  0
    1.3553    1.1948    1.6437 O   0  0  0  0  0  0  0  0  0  0  0  0
    0.2172   -0.5512    2.4946 N   0  0  0  0  0  0  0  0  0  0  0  0
   -0.2917   -1.3932    2.2675 H   0  0  0  0  0  0  0  0  0  0  0  0
    0.4931   -0.2690    3.9021 C   0  0  0  0  0  0  0  0  0  0  0  0
    0.2636    0.7762    4.1215 H   0  0  0  0  0  0  0  0  0  0  0  0
   -0.1132   -0.9117    4.5415 H   0  0  0  0  0  0  0  0  0  0  0  0
    1.5497   -0.4450    4.1110 H   0  0  0  0  0  0  0  0  0  0  0  0
  5  6  2  0  0  0  0
  5  7  1  0  0  0  0
  2  3  1  0  0  0  0
  2  4  1  0  0  0  0
  2  5  1  0  0  0  0
  1  2  1  0  0  0  0
 16 17  2  0  0  0  0
 16 18  1  0  0  0  0
 14 15  1  0  0  0  0
 11 12  1  0  0  0  0
 11 13  1  0  0  0  0
 11 14  1  0  0  0  0
  9 10  1  0  0  0  0
  9 11  1  0  0  0  0
  9 16  1  0  0  0  0
  7  8  1  0  0  0  0
  7  9  1  0  0  0  0
 20 21  1  0  0  0  0
 20 22  1  0  0  0  0
 20 23  1  0  0  0  0
 18 19  1  0  0  0  0
 18 20  1  0  0  0  0
M  END
$$$$
default_name
  -OEChem-01062215323D

 23 22  0     1  0  0  0  0  0999 V2000
   -2.6857   -3.6684    0.8743 H   0  0  0  0  0  0  0  0  0  0  0  0
   -2.6617   -2.6474    0.4953 C   0  0  0  0  0  0  0  0  0  0  0  0
   -3.2657   -2.0054    1.1353 H   0  0  0  0  0  0  0  0  0  0  0  0
   -3.0477   -2.6254   -0.5217 H   0  0  0  0  0  0  0  0  0  0  0  0
   -1.2337   -2.1564    0.4993 C   0  0  0  0  0  0  0  0  0  0  0  0
   -0.3327   -2.8864    0.8893 O   0  0  0  0  0  0  0  0  0  0  0  0
   -1.0277   -0.9164    0.0623 N   0  0  0  0  0  0  0  0  0  0  0  0
   -1.8237   -0.3604   -0.2157 H   0  0  0  0  0  0  0  0  0  0  0  0
    0.2713   -0.2414    0.0463 C   0  0  1  0  0  0  0  0  0  0  0  0
    1.0271   -0.9428   -0.3128 H   0  0  0  0  0  0  0  0  0  0  0  0
    0.1966    0.9381   -0.9372 C   0  0  0  0  0  0  0  0  0  0  0  0
   -0.6448    1.5768   -0.6591 H   0  0  0  0  0  0  0  0  0  0  0  0
    1.1168    1.5226   -0.8752 H   0  0  0  0  0  0  0  0  0  0  0  0
   -0.0530    0.3583   -2.6409 S   0  0  0  0  0  0  0  0  0  0  0  0
   -0.1931    1.5632   -3.2068 H   0  0  0  0  0  0  0  0  0  0  0  0
    0.6619    0.1914    1.4743 C   0  0  0  0  0  0  0  0  0  0  0  0
    1.1088    1.3216    1.6727 O   0  0  0  0  0  0  0  0  0  0  0  0
    0.4898   -0.6934    2.4632 N   0  0  0  0  0  0  0  0  0  0  0  0
    0.1785   -1.6192    2.2074 H   0  0  0  0  0  0  0  0  0  0  0  0
    0.8034   -0.4330    3.8670 C   0  0  0  0  0  0  0  0  0  0  0  0
    0.3510    0.5114    4.1779 H   0  0  0  0  0  0  0  0  0  0  0  0
    0.4205   -1.2386    4.4946 H   0  0  0  0  0  0  0  0  0  0  0  0
    1.8849   -0.3596    3.9934 H   0  0  0  0  0  0  0  0  0  0  0  0
  5  6  2  0  0  0  0
  5  7  1  0  0  0  0
  2  3  1  0  0  0  0
  2  4  1  0  0  0  0
  2  5  1  0  0  0  0
  1  2  1  0  0  0  0
 16 17  2  0  0  0  0
 16 18  1  0  0  0  0
 14 15  1  0  0  0  0
 11 12  1  0  0  0  0
 11 13  1  0  0  0  0
 11 14  1  0  0  0  0
  9 10  1  0  0  0  0
  9 11  1  0  0  0  0
  9 16  1  0  0  0  0
  7  8  1  0  0  0  0
  7  9  1  0  0  0  0
 20 21  1  0  0  0  0
 20 22  1  0  0  0  0
 20 23  1  0  0  0  0
 18 19  1  0  0  0  0
 18 20  1  0  0  0  0
M  END
$$$$
default_name
  -OEChem-01062215323D

 23 22  0     1  0  0  0  0  0999 V2000
   -2.6857   -3.6684    0.8743 H   0  0  0  0  0  0  0  0  0  0  0  0
   -2.6617   -2.6474    0.4953 C   0  0  0  0  0  0  0  0  0  0  0  0
   -3.2657   -2.0054    1.1353 H   0  0  0  0  0  0  0  0  0  0  0  0
   -3.0477   -2.6254   -0.5217 H   0  0  0  0  0  0  0  0  0  0  0  0
   -1.2337   -2.1564    0.4993 C   0  0  0  0  0  0  0  0  0  0  0  0
   -0.3327   -2.8864    0.8893 O   0  0  0  0  0  0  0  0  0  0  0  0
   -1.0277   -0.9164    0.0623 N   0  0  0  0  0  0  0  0  0  0  0  0
   -1.8237   -0.3604   -0.2157 H   0  0  0  0  0  0  0  0  0  0  0  0
    0.2713   -0.2414    0.0463 C   0  0  1  0  0  0  0  0  0  0  0  0
    1.0271   -0.9428   -0.3128 H   0  0  0  0  0  0  0  0  0  0  0  0
    0.1966    0.9381   -0.9372 C   0  0  0  0  0  0  0  0  0  0  0  0
   -0.6448    1.5768   -0.6591 H   0  0  0  0  0  0  0  0  0  0  0  0
    1.1168    1.5226   -0.8752 H   0  0  0  0  0  0  0  0  0  0  0  0
   -0.0530    0.3583   -2.6409 S   0  0  0  0  0  0  0  0  0  0  0  0
   -0.1931    1.5632   -3.2068 H   0  0  0  0  0  0  0  0  0  0  0  0
    0.6619    0.1914    1.4743 C   0  0  0  0  0  0  0  0  0  0  0  0
    0.8425    1.3830    1.7269 O   0  0  0  0  0  0  0  0  0  0  0  0
    0.7848   -0.7633    2.4037 N   0  0  0  0  0  0  0  0  0  0  0  0
    0.6825   -1.7210    2.1004 H   0  0  0  0  0  0  0  0  0  0  0  0
    1.1399   -0.5148    3.7998 C   0  0  0  0  0  0  0  0  0  0  0  0
    0.5030    0.2728    4.2086 H   0  0  0  0  0  0  0  0  0  0  0  0
    1.0108   -1.4233    4.3892 H   0  0  0  0  0  0  0  0  0  0  0  0
    2.1797   -0.1891    3.8611 H   0  0  0  0  0  0  0  0  0  0  0  0
  5  6  2  0  0  0  0
  5  7  1  0  0  0  0
  2  3  1  0  0  0  0
  2  4  1  0  0  0  0
  2  5  1  0  0  0  0
  1  2  1  0  0  0  0
 16 17  2  0  0  0  0
 16 18  1  0  0  0  0
 14 15  1  0  0  0  0
 11 12  1  0  0  0  0
 11 13  1  0  0  0  0
 11 14  1  0  0  0  0
  9 10  1  0  0  0  0
  9 11  1  0  0  0  0
  9 16  1  0  0  0  0
  7  8  1  0  0  0  0
  7  9  1  0  0  0  0
 20 21  1  0  0  0  0
 20 22  1  0  0  0  0
 20 23  1  0  0  0  0
 18 19  1  0  0  0  0
 18 20  1  0  0  0  0
M  END
$$$$
default_name
  -OEChem-01062215323D

 23 22  0     1  0  0  0  0  0999 V2000
   -2.6857   -3.6684    0.8743 H   0  0  0  0  0  0  0  0  0  0  0  0
   -2.6617   -2.6474    0.4953 C   0  0  0  0  0  0  0  0  0  0  0  0
   -3.2657   -2.0054    1.1353 H   0  0  0  0  0  0  0  0  0  0  0  0
   -3.0477   -2.6254   -0.5217 H   0  0  0  0  0  0  0  0  0  0  0  0
   -1.2337   -2.1564    0.4993 C   0  0  0  0  0  0  0  0  0  0  0  0
   -0.3327   -2.8864    0.8893 O   0  0  0  0  0  0  0  0  0  0  0  0
   -1.0277   -0.9164    0.0623 N   0  0  0  0  0  0  0  0  0  0  0  0
   -1.8237   -0.3604   -0.2157 H   0  0  0  0  0  0  0  0  0  0  0  0
    0.2713   -0.2414    0.0463 C   0  0  1  0  0  0  0  0  0  0  0  0
    1.0271   -0.9428   -0.3128 H   0  0  0  0  0  0  0  0  0  0  0  0
    0.1966    0.9381   -0.9372 C   0  0  0  0  0  0  0  0  0  0  0  0
   -0.6448    1.5768   -0.6591 H   0  0  0  0  0  0  0  0  0  0  0  0
    1.1168    1.5226   -0.8752 H   0  0  0  0  0  0  0  0  0  0  0  0
   -0.0530    0.3583   -2.6409 S   0  0  0  0  0  0  0  0  0  0  0  0
   -0.1931    1.5632   -3.2068 H   0  0  0  0  0  0  0  0  0  0  0  0
    0.6619    0.1914    1.4743 C   0  0  0  0  0  0  0  0  0  0  0  0
    0.5744    1.3750    1.8026 O   0  0  0  0  0  0  0  0  0  0  0  0
    1.0823   -0.7563    2.3202 N   0  0  0  0  0  0  0  0  0  0  0  0
    1.1859   -1.6915    1.9537 H   0  0  0  0  0  0  0  0  0  0  0  0
    1.4796   -0.5088    3.7050 C   0  0  0  0  0  0  0  0  0  0  0  0
    0.7092    0.0768    4.2116 H   0  0  0  0  0  0  0  0  0  0  0  0
    1.6177   -1.4534    4.2323 H   0  0  0  0  0  0  0  0  0  0  0  0
    2.4139    0.0549    3.7231 H   0  0  0  0  0  0  0  0  0  0  0  0
  5  6  2  0  0  0  0
  5  7  1  0  0  0  0
  2  3  1  0  0  0  0
  2  4  1  0  0  0  0
  2  5  1  0  0  0  0
  1  2  1  0  0  0  0
 16 17  2  0  0  0  0
 16 18  1  0  0  0  0
 14 15  1  0  0  0  0
 11 12  1  0  0  0  0
 11 13  1  0  0  0  0
 11 14  1  0  0  0  0
  9 10  1  0  0  0  0
  9 11  1  0  0  0  0
  9 16  1  0  0  0  0
  7  8  1  0  0  0  0
  7  9  1  0  0  0  0
 20 21  1  0  0  0  0
 20 22  1  0  0  0  0
 20 23  1  0  0  0  0
 18 19  1  0  0  0  0
 18 20  1  0  0  0  0
M  END
$$$$
default_name
  -OEChem-01062215323D

 23 22  0     1  0  0  0  0  0999 V2000
   -2.6857   -3.6684    0.8743 H   0  0  0  0  0  0  0  0  0  0  0  0
   -2.6617   -2.6474    0.4953 C   0  0  0  0  0  0  0  0  0  0  0  0
   -3.2657   -2.0054    1.1353 H   0  0  0  0  0  0  0  0  0  0  0  0
   -3.0477   -2.6254   -0.5217 H   0  0  0  0  0  0  0  0  0  0  0  0
   -1.2337   -2.1564    0.4993 C   0  0  0  0  0  0  0  0  0  0  0  0
   -0.3327   -2.8864    0.8893 O   0  0  0  0  0  0  0  0  0  0  0  0
   -1.0277   -0.9164    0.0623 N   0  0  0  0  0  0  0  0  0  0  0  0
   -1.8237   -0.3604   -0.2157 H   0  0  0  0  0  0  0  0  0  0  0  0
    0.2713   -0.2414    0.0463 C   0  0  1  0  0  0  0  0  0  0  0  0
    1.0271   -0.9428   -0.3128 H   0  0  0  0  0  0  0  0  0  0  0  0
    0.1966    0.9381   -0.9372 C   0  0  0  0  0  0  0  0  0  0  0  0
   -0.6448    1.5768   -0.6591 H   0  0  0  0  0  0  0  0  0  0  0  0
    1.1168    1.5226   -0.8752 H   0  0  0  0  0  0  0  0  0  0  0  0
   -0.0530    0.3583   -2.6409 S   0  0  0  0  0  0  0  0  0  0  0  0
   -0.1931    1.5632   -3.2068 H   0  0  0  0  0  0  0  0  0  0  0  0
    0.6619    0.1914    1.4743 C   0  0  0  0  0  0  0  0  0  0  0  0
    0.3230    1.2981    1.8947 O   0  0  0  0  0  0  0  0  0  0  0  0
    1.3619   -0.6727    2.2184 N   0  0  0  0  0  0  0  0  0  0  0  0
    1.6545   -1.5327    1.7775 H   0  0  0  0  0  0  0  0  0  0  0  0
    1.7995   -0.4153    3.5892 C   0  0  0  0  0  0  0  0  0  0  0  0
    0.9555   -0.0633    4.1867 H   0  0  0  0  0  0  0  0  0  0  0  0
    2.1997   -1.3268    4.0348 H   0  0  0  0  0  0  0  0  0  0  0  0
    2.5717    0.3558    3.5887 H   0  0  0  0  0  0  0  0  0  0  0  0
  5  6  2  0  0  0  0
  5  7  1  0  0  0  0
  2  3  1  0  0  0  0
  2  4  1  0  0  0  0
  2  5  1  0  0  0  0
  1  2  1  0  0  0  0
 16 17  2  0  0  0  0
 16 18  1  0  0  0  0
 14 15  1  0  0  0  0
 11 12  1  0  0  0  0
 11 13  1  0  0  0  0
 11 14  1  0  0  0  0
  9 10  1  0  0  0  0
  9 11  1  0  0  0  0
  9 16  1  0  0  0  0
  7  8  1  0  0  0  0
  7  9  1  0  0  0  0
 20 21  1  0  0  0  0
 20 22  1  0  0  0  0
 20 23  1  0  0  0  0
 18 19  1  0  0  0  0
 18 20  1  0  0  0  0
M  END
$$$$
default_name
  -OEChem-01062215323D

 23 22  0     1  0  0  0  0  0999 V2000
   -2.6857   -3.6684    0.8743 H   0  0  0  0  0  0  0  0  0  0  0  0
   -2.6617   -2.6474    0.4953 C   0  0  0  0  0  0  0  0  0  0  0  0
   -3.2657   -2.0054    1.1353 H   0  0  0  0  0  0  0  0  0  0  0  0
   -3.0477   -2.6254   -0.5217 H   0  0  0  0  0  0  0  0  0  0  0  0
   -1.2337   -2.1564    0.4993 C   0  0  0  0  0  0  0  0  0  0  0  0
   -0.3327   -2.8864    0.8893 O   0  0  0  0  0  0  0  0  0  0  0  0
   -1.0277   -0.9164    0.0623 N   0  0  0  0  0  0  0  0  0  0  0  0
   -1.8237   -0.3604   -0.2157 H   0  0  0  0  0  0  0  0  0  0  0  0
    0.2713   -0.2414    0.0463 C   0  0  1  0  0  0  0  0  0  0  0  0
    1.0271   -0.9428   -0.3128 H   0  0  0  0  0  0  0  0  0  0  0  0
    0.1966    0.9381   -0.9372 C   0  0  0  0  0  0  0  0  0  0  0  0
   -0.6448    1.5768   -0.6591 H   0  0  0  0  0  0  0  0  0  0  0  0
    1.1168    1.5226   -0.8752 H   0  0  0  0  0  0  0  0  0  0  0  0
   -0.0530    0.3583   -2.6409 S   0  0  0  0  0  0  0  0  0  0  0  0
   -0.1931    1.5632   -3.2068 H   0  0  0  0  0  0  0  0  0  0  0  0
    0.6619    0.1914    1.4743 C   0  0  0  0  0  0  0  0  0  0  0  0
    0.1052    1.1574    1.9969 O   0  0  0  0  0  0  0  0  0  0  0  0
    1.6045   -0.5184    2.1053 N   0  0  0  0  0  0  0  0  0  0  0  0
    2.0562   -1.2555    1.5836 H   0  0  0  0  0  0  0  0  0  0  0  0
    2.0776   -0.2408    3.4602 C   0  0  0  0  0  0  0  0  0  0  0  0
    1.2252   -0.1380    4.1356 H   0  0  0  0  0  0  0  0  0  0  0  0
    2.7172   -1.0521    3.8100 H   0  0  0  0  0  0  0  0  0  0  0  0
    2.6423    0.6930    3.4672 H   0  0  0  0  0  0  0  0  0  0  0  0
  5  6  2  0  0  0  0
  5  7  1  0  0  0  0
  2  3  1  0  0  0  0
  2  4  1  0  0  0  0
  2  5  1  0  0  0  0
  1  2  1  0  0  0  0
 16 17  2  0  0  0  0
 16 18  1  0  0  0  0
 14 15  1  0  0  0  0
 11 12  1  0  0  0  0
 11 13  1  0  0  0  0
 11 14  1  0  0  0  0
  9 10  1  0  0  0  0
  9 11  1  0  0  0  0
  9 16  1  0  0  0  0
  7  8  1  0  0  0  0
  7  9  1  0  0  0  0
 20 21  1  0  0  0  0
 20 22  1  0  0  0  0
 20 23  1  0  0  0  0
 18 19  1  0  0  0  0
 18 20  1  0  0  0  0
M  END
$$$$
default_name
  -OEChem-01062215323D

 23 22  0     1  0  0  0  0  0999 V2000
   -2.6857   -3.6684    0.8743 H   0  0  0  0  0  0  0  0  0  0  0  0
   -2.6617   -2.6474    0.4953 C   0  0  0  0  0  0  0  0  0  0  0  0
   -3.2657   -2.0054    1.1353 H   0  0  0  0  0  0  0  0  0  0  0  0
   -3.0477   -2.6254   -0.5217 H   0  0  0  0  0  0  0  0  0  0  0  0
   -1.2337   -2.1564    0.4993 C   0  0  0  0  0  0  0  0  0  0  0  0
   -0.3327   -2.8864    0.8893 O   0  0  0  0  0  0  0  0  0  0  0  0
   -1.0277   -0.9164    0.0623 N   0  0  0  0  0  0  0  0  0  0  0  0
   -1.8237   -0.3604   -0.2157 H   0  0  0  0  0  0  0  0  0  0  0  0
    0.2713   -0.2414    0.0463 C   0  0  1  0  0  0  0  0  0  0  0  0
    1.0271   -0.9428   -0.3128 H   0  0  0  0  0  0  0  0  0  0  0  0
    0.1966    0.9381   -0.9372 C   0  0  0  0  0  0  0  0  0  0  0  0
   -0.6448    1.5768   -0.6591 H   0  0  0  0  0  0  0  0  0  0  0  0
    1.1168    1.5226   -0.8752 H   0  0  0  0  0  0  0  0  0  0  0  0
   -0.0530    0.3583   -2.6409 S   0  0  0  0  0  0  0  0  0  0  0  0
   -0.1931    1.5632   -3.2068 H   0  0  0  0  0  0  0  0  0  0  0  0
    0.6619    0.1914    1.4743 C   0  0  0  0  0  0  0  0  0  0  0  0
   -0.0641    0.9627    2.1022 O   0  0  0  0  0  0  0  0  0  0  0  0
    1.7936   -0.3037    1.9885 N   0  0  0  0  0  0  0  0  0  0  0  0
    2.3637   -0.8788    1.3853 H   0  0  0  0  0  0  0  0  0  0  0  0
    2.2951    0.0028    3.3269 C   0  0  0  0  0  0  0  0  0  0  0  0
    1.4999   -0.1422    4.0617 H   0  0  0  0  0  0  0  0  0  0  0  0
    3.1349   -0.6480    3.5732 H   0  0  0  0  0  0  0  0  0  0  0  0
    2.6208    1.0436    3.3668 H   0  0  0  0  0  0  0  0  0  0  0  0
  5  6  2  0  0  0  0
  5  7  1  0  0  0  0
  2  3  1  0  0  0  0
  2  4  1  0  0  0  0
  2  5  1  0  0  0  0
  1  2  1  0  0  0  0
 16 17  2  0  0  0  0
 16 18  1  0  0  0  0
 14 15  1  0  0  0  0
 11 12  1  0  0  0  0
 11 13  1  0  0  0  0
 11 14  1  0  0  0  0
  9 10  1  0  0  0  0
  9 11  1  0  0  0  0
  9 16  1  0  0  0  0
  7  8  1  0  0  0  0
  7  9  1  0  0  0  0
 20 21  1  0  0  0  0
 20 22  1  0  0  0  0
 20 23  1  0  0  0  0
 18 19  1  0  0  0  0
 18 20  1  0  0  0  0
M  END
$$$$
default_name
  -OEChem-01062215323D

 23 22  0     1  0  0  0  0  0999 V2000
   -2.6857   -3.6684    0.8743 H   0  0  0  0  0  0  0  0  0  0  0  0
   -2.6617   -2.6474    0.4953 C   0  0  0  0  0  0  0  0  0  0  0  0
   -3.2657   -2.0054    1.1353 H   0  0  0  0  0  0  0  0  0  0  0  0
   -3.0477   -2.6254   -0.5217 H   0  0  0  0  0  0  0  0  0  0  0  0
   -1.2337   -2.1564    0.4993 C   0  0  0  0  0  0  0  0  0  0  0  0
   -0.3327   -2.8864    0.8893 O   0  0  0  0  0  0  0  0  0  0  0  0
   -1.0277   -0.9164    0.0623 N   0  0  0  0  0  0  0  0  0  0  0  0
   -1.8237   -0.3604   -0.2157 H   0  0  0  0  0  0  0  0  0  0  0  0
    0.2713   -0.2414    0.0463 C   0  0  1  0  0  0  0  0  0  0  0  0
    1.0271   -0.9428   -0.3128 H   0  0  0  0  0  0  0  0  0  0  0  0
    0.1966    0.9381   -0.9372 C   0  0  0  0  0  0  0  0  0  0  0  0
   -0.6448    1.5768   -0.6591 H   0  0  0  0  0  0  0  0  0  0  0  0
    1.1168    1.5226   -0.8752 H   0  0  0  0  0  0  0  0  0  0  0  0
   -0.0530    0.3583   -2.6409 S   0  0  0  0  0  0  0  0  0  0  0  0
   -0.1931    1.5632   -3.2068 H   0  0  0  0  0  0  0  0  0  0  0  0
    0.6619    0.1914    1.4743 C   0  0  0  0  0  0  0  0  0  0  0  0
   -0.1733    0.7272    2.2035 O   0  0  0  0  0  0  0  0  0  0  0  0
    1.9164   -0.0434    1.8760 N   0  0  0  0  0  0  0  0  0  0  0  0
    2.5561   -0.4283    1.1961 H   0  0  0  0  0  0  0  0  0  0  0  0
    2.4371    0.2990    3.1983 C   0  0  0  0  0  0  0  0  0  0  0  0
    1.7609   -0.0756    3.9702 H   0  0  0  0  0  0  0  0  0  0  0  0
    3.4243   -0.1421    3.3407 H   0  0  0  0  0  0  0  0  0  0  0  0
    2.5088    1.3837    3.2944 H   0  0  0  0  0  0  0  0  0  0  0  0
  5  6  2  0  0  0  0
  5  7  1  0  0  0  0
  2  3  1  0  0  0  0
  2  4  1  0  0  0  0
  2  5  1  0  0  0  0
  1  2  1  0  0  0  0
 16 17  2  0  0  0  0
 16 18  1  0  0  0  0
 14 15  1  0  0  0  0
 11 12  1  0  0  0  0
 11 13  1  0  0  0  0
 11 14  1  0  0  0  0
  9 10  1  0  0  0  0
  9 11  1  0  0  0  0
  9 16  1  0  0  0  0
  7  8  1  0  0  0  0
  7  9  1  0  0  0  0
 20 21  1  0  0  0  0
 20 22  1  0  0  0  0
 20 23  1  0  0  0  0
 18 19  1  0  0  0  0
 18 20  1  0  0  0  0
M  END
$$$$
default_name
  -OEChem-01062215323D

 23 22  0     1  0  0  0  0  0999 V2000
   -2.6857   -3.6684    0.8743 H   0  0  0  0  0  0  0  0  0  0  0  0
   -2.6617   -2.6474    0.4953 C   0  0  0  0  0  0  0  0  0  0  0  0
   -3.2657   -2.0054    1.1353 H   0  0  0  0  0  0  0  0  0  0  0  0
   -3.0477   -2.6254   -0.5217 H   0  0  0  0  0  0  0  0  0  0  0  0
   -1.2337   -2.1564    0.4993 C   0  0  0  0  0  0  0  0  0  0  0  0
   -0.3327   -2.8864    0.8893 O   0  0  0  0  0  0  0  0  0  0  0  0
   -1.0277   -0.9164    0.0623 N   0  0  0  0  0  0  0  0  0  0  0  0
   -1.8237   -0.3604   -0.2157 H   0  0  0  0  0  0  0  0  0  0  0  0
    0.2713   -0.2414    0.0463 C   0  0  1  0  0  0  0  0  0  0  0  0
    1.0271   -0.9428   -0.3128 H   0  0  0  0  0  0  0  0  0  0  0  0
    0.1966    0.9381   -0.9372 C   0  0  0  0  0  0  0  0  0  0  0  0
   -0.6448    1.5768   -0.6591 H   0  0  0  0  0  0  0  0  0  0  0  0
    1.1168    1.5226   -0.8752 H   0  0  0  0  0  0  0  0  0  0  0  0
   -0.0530    0.3583   -2.6409 S   0  0  0  0  0  0  0  0  0  0  0  0
   -0.1931    1.5632   -3.2068 H   0  0  0  0  0  0  0  0  0  0  0  0
    0.6619    0.1914    1.4743 C   0  0  0  0  0  0  0  0  0  0  0  0
   -0.2150    0.4669    2.2938 O   0  0  0  0  0  0  0  0  0  0  0  0
    1.9645    0.2448    1.7755 N   0  0  0  0  0  0  0  0  0  0  0  0
    2.6203    0.0654    1.0289 H   0  0  0  0  0  0  0  0  0  0  0  0
    2.4939    0.6275    3.0832 C   0  0  0  0  0  0  0  0  0  0  0  0
    1.9904    0.0573    3.8671 H   0  0  0  0  0  0  0  0  0  0  0  0
    3.5658    0.4312    3.1283 H   0  0  0  0  0  0  0  0  0  0  0  0
    2.3138    1.6901    3.2548 H   0  0  0  0  0  0  0  0  0  0  0  0
  5  6  2  0  0  0  0
  5  7  1  0  0  0  0
  2  3  1  0  0  0  0
  2  4  1  0  0  0  0
  2  5  1  0  0  0  0
  1  2  1  0  0  0  0
 16 17  2  0  0  0  0
 16 18  1  0  0  0  0
 14 15  1  0  0  0  0
 11 12  1  0  0  0  0
 11 13  1  0  0  0  0
 11 14  1  0  0  0  0
  9 10  1  0  0  0  0
  9 11  1  0  0  0  0
  9 16  1  0  0  0  0
  7  8  1  0  0  0  0
  7  9  1  0  0  0  0
 20 21  1  0  0  0  0
 20 22  1  0  0  0  0
 20 23  1  0  0  0  0
 18 19  1  0  0  0  0
 18 20  1  0  0  0  0
M  END
$$$$
default_name
  -OEChem-01062215323D

 23 22  0     1  0  0  0  0  0999 V2000
   -2.6857   -3.6684    0.8743 H   0  0  0  0  0  0  0  0  0  0  0  0
   -2.6617   -2.6474    0.4953 C   0  0  0  0  0  0  0  0  0  0  0  0
   -3.2657   -2.0054    1.1353 H   0  0  0  0  0  0  0  0  0  0  0  0
   -3.0477   -2.6254   -0.5217 H   0  0  0  0  0  0  0  0  0  0  0  0
   -1.2337   -2.1564    0.4993 C   0  0  0  0  0  0  0  0  0  0  0  0
   -0.3327   -2.8864    0.8893 O   0  0  0  0  0  0  0  0  0  0  0  0
   -1.0277   -0.9164    0.0623 N   0  0  0  0  0  0  0  0  0  0  0  0
   -1.8237   -0.3604   -0.2157 H   0  0  0  0  0  0  0  0  0  0  0  0
    0.2713   -0.2414    0.0463 C   0  0  1  0  0  0  0  0  0  0  0  0
    1.0271   -0.9428   -0.3128 H   0  0  0  0  0  0  0  0  0  0  0  0
    0.1966    0.9381   -0.9372 C   0  0  0  0  0  0  0  0  0  0  0  0
   -0.6448    1.5768   -0.6591 H   0  0  0  0  0  0  0  0  0  0  0  0
    1.1168    1.5226   -0.8752 H   0  0  0  0  0  0  0  0  0  0  0  0
   -0.0530    0.3583   -2.6409 S   0  0  0  0  0  0  0  0  0  0  0  0
   -0.1931    1.5632   -3.2068 H   0  0  0  0  0  0  0  0  0  0  0  0
    0.6619    0.1914    1.4743 C   0  0  0  0  0  0  0  0  0  0  0  0
   -0.1863    0.1995    2.3670 O   0  0  0  0  0  0  0  0  0  0  0  0
    1.9346    0.5414    1.6938 N   0  0  0  0  0  0  0  0  0  0  0  0
    2.5518    0.5686    0.8951 H   0  0  0  0  0  0  0  0  0  0  0  0
    2.4617    0.9661    2.9894 C   0  0  0  0  0  0  0  0  0  0  0  0
    2.1727    0.2474    3.7596 H   0  0  0  0  0  0  0  0  0  0  0  0
    3.5496    1.0328    2.9504 H   0  0  0  0  0  0  0  0  0  0  0  0
    2.0492    1.9420    3.2509 H   0  0  0  0  0  0  0  0  0  0  0  0
  5  6  2  0  0  0  0
  5  7  1  0  0  0  0
  2  3  1  0  0  0  0
  2  4  1  0  0  0  0
  2  5  1  0  0  0  0
  1  2  1  0  0  0  0
 16 17  2  0  0  0  0
 16 18  1  0  0  0  0
 14 15  1  0  0  0  0
 11 12  1  0  0  0  0
 11 13  1  0  0  0  0
 11 14  1  0  0  0  0
  9 10  1  0  0  0  0
  9 11  1  0  0  0  0
  9 16  1  0  0  0  0
  7  8  1  0  0  0  0
  7  9  1  0  0  0  0
 20 21  1  0  0  0  0
 20 22  1  0  0  0  0
 20 23  1  0  0  0  0
 18 19  1  0  0  0  0
 18 20  1  0  0  0  0
M  END
$$$$
default_name
  -OEChem-01062215323D

 23 22  0     1  0  0  0  0  0999 V2000
   -2.6857   -3.6684    0.8743 H   0  0  0  0  0  0  0  0  0  0  0  0
   -2.6617   -2.6474    0.4953 C   0  0  0  0  0  0  0  0  0  0  0  0
   -3.2657   -2.0054    1.1353 H   0  0  0  0  0  0  0  0  0  0  0  0
   -3.0477   -2.6254   -0.5217 H   0  0  0  0  0  0  0  0  0  0  0  0
   -1.2337   -2.1564    0.4993 C   0  0  0  0  0  0  0  0  0  0  0  0
   -0.3327   -2.8864    0.8893 O   0  0  0  0  0  0  0  0  0  0  0  0
   -1.0277   -0.9164    0.0623 N   0  0  0  0  0  0  0  0  0  0  0  0
   -1.8237   -0.3604   -0.2157 H   0  0  0  0  0  0  0  0  0  0  0  0
    0.2713   -0.2414    0.0463 C   0  0  1  0  0  0  0  0  0  0  0  0
    0.9671   -0.8331   -0.5520 H   0  0  0  0  0  0  0  0  0  0  0  0
    0.0999    1.1316   -0.6240 C   0  0  0  0  0  0  0  0  0  0  0  0
   -0.6916    1.6799   -0.1082 H   0  0  0  0  0  0  0  0  0  0  0  0
    1.0305    1.6964   -0.5402 H   0  0  0  0  0  0  0  0  0  0  0  0
   -0.3604    0.9562   -2.3729 S   0  0  0  0  0  0  0  0  0  0  0  0
   -0.5466    2.2572   -2.6263 H   0  0  0  0  0  0  0  0  0  0  0  0
    0.8363   -0.1441    1.4782 C   0  0  0  0  0  0  0  0  0  0  0  0
    0.1987   -0.6107    2.4228 O   0  0  0  0  0  0  0  0  0  0  0  0
    2.0245    0.4492    1.6409 N   0  0  0  0  0  0  0  0  0  0  0  0
    2.4520    0.8615    0.8243 H   0  0  0  0  0  0  0  0  0  0  0  0
    2.6958    0.6122    2.9292 C   0  0  0  0  0  0  0  0  0  0  0  0
    2.7224   -0.3445    3.4558 H   0  0  0  0  0  0  0  0  0  0  0  0
    3.7156    0.9689    2.7806 H   0  0  0  0  0  0  0  0  0  0  0  0
    2.1471    1.3311    3.5400 H   0  0  0  0  0  0  0  0  0  0  0  0
  5  6  2  0  0  0  0
  5  7  1  0  0  0  0
  2  3  1  0  0  0  0
  2  4  1  0  0  0  0
  2  5  1  0  0  0  0
  1  2  1  0  0  0  0
 16 17  2  0  0  0  0
 16 18  1  0  0  0  0
 14 15  1  0  0  0  0
 11 12  1  0  0  0  0
 11 13  1  0  0  0  0
 11 14  1  0  0  0  0
  9 10  1  0  0  0  0
  9 11  1  0  0  0  0
  9 16  1  0  0  0  0
  7  8  1  0  0  0  0
  7  9  1  0  0  0  0
 20 21  1  0  0  0  0
 20 22  1  0  0  0  0
 20 23  1  0  0  0  0
 18 19  1  0  0  0  0
 18 20  1  0  0  0  0
M  END
$$$$
default_name
  -OEChem-01062215323D

 23 22  0     1  0  0  0  0  0999 V2000
   -2.6857   -3.6684    0.8743 H   0  0  0  0  0  0  0  0  0  0  0  0
   -2.6617   -2.6474    0.4953 C   0  0  0  0  0  0  0  0  0  0  0  0
   -3.2657   -2.0054    1.1353 H   0  0  0  0  0  0  0  0  0  0  0  0
   -3.0477   -2.6254   -0.5217 H   0  0  0  0  0  0  0  0  0  0  0  0
   -1.2337   -2.1564    0.4993 C   0  0  0  0  0  0  0  0  0  0  0  0
   -0.3327   -2.8864    0.8893 O   0  0  0  0  0  0  0  0  0  0  0  0
   -1.0277   -0.9164    0.0623 N   0  0  0  0  0  0  0  0  0  0  0  0
   -1.8237   -0.3604   -0.2157 H   0  0  0  0  0  0  0  0  0  0  0  0
    0.2713   -0.2414    0.0463 C   0  0  1  0  0  0  0  0  0  0  0  0
    0.9671   -0.8331   -0.5520 H   0  0  0  0  0  0  0  0  0  0  0  0
    0.0999    1.1316   -0.6240 C   0  0  0  0  0  0  0  0  0  0  0  0
   -0.6916    1.6799   -0.1082 H   0  0  0  0  0  0  0  0  0  0  0  0
    1.0305    1.6964   -0.5402 H   0  0  0  0  0  0  0  0  0  0  0  0
   -0.3604    0.9562   -2.3729 S   0  0  0  0  0  0  0  0  0  0  0  0
   -0.5466    2.2572   -2.6263 H   0  0  0  0  0  0  0  0  0  0  0  0
    0.8363   -0.1441    1.4782 C   0  0  0  0  0  0  0  0  0  0  0  0
    0.3557   -0.8362    2.3762 O   0  0  0  0  0  0  0  0  0  0  0  0
    1.8519    0.7004    1.6919 N   0  0  0  0  0  0  0  0  0  0  0  0
    2.1453    1.2776    0.9171 H   0  0  0  0  0  0  0  0  0  0  0  0
    2.5003    0.9001    2.9867 C   0  0  0  0  0  0  0  0  0  0  0  0
    2.7699   -0.0665    3.4182 H   0  0  0  0  0  0  0  0  0  0  0  0
    3.4005    1.5044    2.8685 H   0  0  0  0  0  0  0  0  0  0  0  0
    1.8127    1.4057    3.6669 H   0  0  0  0  0  0  0  0  0  0  0  0
  5  6  2  0  0  0  0
  5  7  1  0  0  0  0
  2  3  1  0  0  0  0
  2  4  1  0  0  0  0
  2  5  1  0  0  0  0
  1  2  1  0  0  0  0
 16 17  2  0  0  0  0
 16 18  1  0  0  0  0
 14 15  1  0  0  0  0
 11 12  1  0  0  0  0
 11 13  1  0  0  0  0
 11 14  1  0  0  0  0
  9 10  1  0  0  0  0
  9 11  1  0  0  0  0
  9 16  1  0  0  0  0
  7  8  1  0  0  0  0
  7  9  1  0  0  0  0
 20 21  1  0  0  0  0
 20 22  1  0  0  0  0
 20 23  1  0  0  0  0
 18 19  1  0  0  0  0
 18 20  1  0  0  0  0
M  END
$$$$
default_name
  -OEChem-01062215323D

 23 22  0     1  0  0  0  0  0999 V2000
   -2.6857   -3.6684    0.8743 H   0  0  0  0  0  0  0  0  0  0  0  0
   -2.6617   -2.6474    0.4953 C   0  0  0  0  0  0  0  0  0  0  0  0
   -3.2657   -2.0054    1.1353 H   0  0  0  0  0  0  0  0  0  0  0  0
   -3.0477   -2.6254   -0.5217 H   0  0  0  0  0  0  0  0  0  0  0  0
   -1.2337   -2.1564    0.4993 C   0  0  0  0  0  0  0  0  0  0  0  0
   -0.3327   -2.8864    0.8893 O   0  0  0  0  0  0  0  0  0  0  0  0
   -1.0277   -0.9164    0.0623 N   0  0  0  0  0  0  0  0  0  0  0  0
   -1.8237   -0.3604   -0.2157 H   0  0  0  0  0  0  0  0  0  0  0  0
    0.2713   -0.2414    0.0463 C   0  0  1  0  0  0  0  0  0  0  0  0
    0.9671   -0.8331   -0.5520 H   0  0  0  0  0  0  0  0  0  0  0  0
    0.0999    1.1316   -0.6240 C   0  0  0  0  0  0  0  0  0  0  0  0
   -0.6916    1.6799   -0.1082 H   0  0  0  0  0  0  0  0  0  0  0  0
    1.0305    1.6964   -0.5402 H   0  0  0  0  0  0  0  0  0  0  0  0
   -0.3604    0.9562   -2.3729 S   0  0  0  0  0  0  0  0  0  0  0  0
   -0.5466    2.2572   -2.6263 H   0  0  0  0  0  0  0  0  0  0  0  0
    0.8363   -0.1441    1.4782 C   0  0  0  0  0  0  0  0  0  0  0  0
    0.5607   -1.0119    2.3073 O   0  0  0  0  0  0  0  0  0  0  0  0
    1.6257    0.8967    1.7678 N   0  0  0  0  0  0  0  0  0  0  0  0
    1.7505    1.5970    1.0511 H   0  0  0  0  0  0  0  0  0  0  0  0
    2.2433    1.1259    3.0728 C   0  0  0  0  0  0  0  0  0  0  0  0
    2.7485    0.2170    3.4073 H   0  0  0  0  0  0  0  0  0  0  0  0
    2.9689    1.9376    3.0093 H   0  0  0  0  0  0  0  0  0  0  0  0
    1.4739    1.3854    3.8019 H   0  0  0  0  0  0  0  0  0  0  0  0
  5  6  2  0  0  0  0
  5  7  1  0  0  0  0
  2  3  1  0  0  0  0
  2  4  1  0  0  0  0
  2  5  1  0  0  0  0
  1  2  1  0  0  0  0
 16 17  2  0  0  0  0
 16 18  1  0  0  0  0
 14 15  1  0  0  0  0
 11 12  1  0  0  0  0
 11 13  1  0  0  0  0
 11 14  1  0  0  0  0
  9 10  1  0  0  0  0
  9 11  1  0  0  0  0
  9 16  1  0  0  0  0
  7  8  1  0  0  0  0
  7  9  1  0  0  0  0
 20 21  1  0  0  0  0
 20 22  1  0  0  0  0
 20 23  1  0  0  0  0
 18 19  1  0  0  0  0
 18 20  1  0  0  0  0
M  END
$$$$
default_name
  -OEChem-01062215323D

 23 22  0     1  0  0  0  0  0999 V2000
   -2.6857   -3.6684    0.8743 H   0  0  0  0  0  0  0  0  0  0  0  0
   -2.6617   -2.6474    0.4953 C   0  0  0  0  0  0  0  0  0  0  0  0
   -3.2657   -2.0054    1.1353 H   0  0  0  0  0  0  0  0  0  0  0  0
   -3.0477   -2.6254   -0.5217 H   0  0  0  0  0  0  0  0  0  0  0  0
   -1.2337   -2.1564    0.4993 C   0  0  0  0  0  0  0  0  0  0  0  0
   -0.3327   -2.8864    0.8893 O   0  0  0  0  0  0  0  0  0  0  0  0
   -1.0277   -0.9164    0.0623 N   0  0  0  0  0  0  0  0  0  0  0  0
   -1.8237   -0.3604   -0.2157 H   0  0  0  0  0  0  0  0  0  0  0  0
    0.2713   -0.2414    0.0463 C   0  0  1  0  0  0  0  0  0  0  0  0
    0.9671   -0.8331   -0.5520 H   0  0  0  0  0  0  0  0  0  0  0  0
    0.0999    1.1316   -0.6240 C   0  0  0  0  0  0  0  0  0  0  0  0
   -0.6916    1.6799   -0.1082 H   0  0  0  0  0  0  0  0  0  0  0  0
    1.0305    1.6964   -0.5402 H   0  0  0  0  0  0  0  0  0  0  0  0
   -0.3604    0.9562   -2.3729 S   0  0  0  0  0  0  0  0  0  0  0  0
   -0.5466    2.2572   -2.6263 H   0  0  0  0  0  0  0  0  0  0  0  0
    0.8363   -0.1441    1.4782 C   0  0  0  0  0  0  0  0  0  0  0  0
    0.7998   -1.1258    2.2207 O   0  0  0  0  0  0  0  0  0  0  0  0
    1.3612    1.0248    1.8635 N   0  0  0  0  0  0  0  0  0  0  0  0
    1.2946    1.7979    1.2173 H   0  0  0  0  0  0  0  0  0  0  0  0
    1.9421    1.2740    3.1815 C   0  0  0  0  0  0  0  0  0  0  0  0
    2.6595    0.4867    3.4241 H   0  0  0  0  0  0  0  0  0  0  0  0
    2.4502    2.2389    3.1935 H   0  0  0  0  0  0  0  0  0  0  0  0
    1.1536    1.2715    3.9360 H   0  0  0  0  0  0  0  0  0  0  0  0
  5  6  2  0  0  0  0
  5  7  1  0  0  0  0
  2  3  1  0  0  0  0
  2  4  1  0  0  0  0
  2  5  1  0  0  0  0
  1  2  1  0  0  0  0
 16 17  2  0  0  0  0
 16 18  1  0  0  0  0
 14 15  1  0  0  0  0
 11 12  1  0  0  0  0
 11 13  1  0  0  0  0
 11 14  1  0  0  0  0
  9 10  1  0  0  0  0
  9 11  1  0  0  0  0
  9 16  1  0  0  0  0
  7  8  1  0  0  0  0
  7  9  1  0  0  0  0
 20 21  1  0  0  0  0
 20 22  1  0  0  0  0
 20 23  1  0  0  0  0
 18 19  1  0  0  0  0
 18 20  1  0  0  0  0
M  END
$$$$
default_name
  -OEChem-01062215323D

 23 22  0     1  0  0  0  0  0999 V2000
   -2.6857   -3.6684    0.8743 H   0  0  0  0  0  0  0  0  0  0  0  0
   -2.6617   -2.6474    0.4953 C   0  0  0  0  0  0  0  0  0  0  0  0
   -3.2657   -2.0054    1.1353 H   0  0  0  0  0  0  0  0  0  0  0  0
   -3.0477   -2.6254   -0.5217 H   0  0  0  0  0  0  0  0  0  0  0  0
   -1.2337   -2.1564    0.4993 C   0  0  0  0  0  0  0  0  0  0  0  0
   -0.3327   -2.8864    0.8893 O   0  0  0  0  0  0  0  0  0  0  0  0
   -1.0277   -0.9164    0.0623 N   0  0  0  0  0  0  0  0  0  0  0  0
   -1.8237   -0.3604   -0.2157 H   0  0  0  0  0  0  0  0  0  0  0  0
    0.2713   -0.2414    0.0463 C   0  0  1  0  0  0  0  0  0  0  0  0
    0.9671   -0.8331   -0.5520 H   0  0  0  0  0  0  0  0  0  0  0  0
    0.0999    1.1316   -0.6240 C   0  0  0  0  0  0  0  0  0  0  0  0
   -0.6916    1.6799   -0.1082 H   0  0  0  0  0  0  0  0  0  0  0  0
    1.0305    1.6964   -0.5402 H   0  0  0  0  0  0  0  0  0  0  0  0
   -0.3604    0.9562   -2.3729 S   0  0  0  0  0  0  0  0  0  0  0  0
   -0.5466    2.2572   -2.6263 H   0  0  0  0  0  0  0  0  0  0  0  0
    0.8363   -0.1441    1.4782 C   0  0  0  0  0  0  0  0  0  0  0  0
    1.0567   -1.1702    2.1224 O   0  0  0  0  0  0  0  0  0  0  0  0
    1.0765    1.0760    1.9723 N   0  0  0  0  0  0  0  0  0  0  0  0
    0.8087    1.8667    1.4043 H   0  0  0  0  0  0  0  0  0  0  0  0
    1.6175    1.3344    3.3055 C   0  0  0  0  0  0  0  0  0  0  0  0
    2.5089    0.7242    3.4674 H   0  0  0  0  0  0  0  0  0  0  0  0
    1.8798    2.3880    3.4084 H   0  0  0  0  0  0  0  0  0  0  0  0
    0.8739    1.0719    4.0599 H   0  0  0  0  0  0  0  0  0  0  0  0
  5  6  2  0  0  0  0
  5  7  1  0  0  0  0
  2  3  1  0  0  0  0
  2  4  1  0  0  0  0
  2  5  1  0  0  0  0
  1  2  1  0  0  0  0
 16 17  2  0  0  0  0
 16 18  1  0  0  0  0
 14 15  1  0  0  0  0
 11 12  1  0  0  0  0
 11 13  1  0  0  0  0
 11 14  1  0  0  0  0
  9 10  1  0  0  0  0
  9 11  1  0  0  0  0
  9 16  1  0  0  0  0
  7  8  1  0  0  0  0
  7  9  1  0  0  0  0
 20 21  1  0  0  0  0
 20 22  1  0  0  0  0
 20 23  1  0  0  0  0
 18 19  1  0  0  0  0
 18 20  1  0  0  0  0
M  END
$$$$
default_name
  -OEChem-01062215323D

 23 22  0     1  0  0  0  0  0999 V2000
   -2.6857   -3.6684    0.8743 H   0  0  0  0  0  0  0  0  0  0  0  0
   -2.6617   -2.6474    0.4953 C   0  0  0  0  0  0  0  0  0  0  0  0
   -3.2657   -2.0054    1.1353 H   0  0  0  0  0  0  0  0  0  0  0  0
   -3.0477   -2.6254   -0.5217 H   0  0  0  0  0  0  0  0  0  0  0  0
   -1.2337   -2.1564    0.4993 C   0  0  0  0  0  0  0  0  0  0  0  0
   -0.3327   -2.8864    0.8893 O   0  0  0  0  0  0  0  0  0  0  0  0
   -1.0277   -0.9164    0.0623 N   0  0  0  0  0  0  0  0  0  0  0  0
   -1.8237   -0.3604   -0.2157 H   0  0  0  0  0  0  0  0  0  0  0  0
    0.2713   -0.2414    0.0463 C   0  0  1  0  0  0  0  0  0  0  0  0
    0.9671   -0.8331   -0.5520 H   0  0  0  0  0  0  0  0  0  0  0  0
    0.0999    1.1316   -0.6240 C   0  0  0  0  0  0  0  0  0  0  0  0
   -0.6916    1.6799   -0.1082 H   0  0  0  0  0  0  0  0  0  0  0  0
    1.0305    1.6964   -0.5402 H   0  0  0  0  0  0  0  0  0  0  0  0
   -0.3604    0.9562   -2.3729 S   0  0  0  0  0  0  0  0  0  0  0  0
   -0.5466    2.2572   -2.6263 H   0  0  0  0  0  0  0  0  0  0  0  0
    0.8363   -0.1441    1.4782 C   0  0  0  0  0  0  0  0  0  0  0  0
    1.3139   -1.1420    2.0190 O   0  0  0  0  0  0  0  0  0  0  0  0
    0.7910    1.0466    2.0869 N   0  0  0  0  0  0  0  0  0  0  0  0
    0.3259    1.7987    1.5994 H   0  0  0  0  0  0  0  0  0  0  0  0
    1.2914    1.3029    3.4363 C   0  0  0  0  0  0  0  0  0  0  0  0
    2.3072    0.9134    3.5341 H   0  0  0  0  0  0  0  0  0  0  0  0
    1.2965    2.3745    3.6394 H   0  0  0  0  0  0  0  0  0  0  0  0
    0.6536    0.8001    4.1653 H   0  0  0  0  0  0  0  0  0  0  0  0
  5  6  2  0  0  0  0
  5  7  1  0  0  0  0
  2  3  1  0  0  0  0
  2  4  1  0  0  0  0
  2  5  1  0  0  0  0
  1  2  1  0  0  0  0
 16 17  2  0  0  0  0
 16 18  1  0  0  0  0
 14 15  1  0  0  0  0
 11 12  1  0  0  0  0
 11 13  1  0  0  0  0
 11 14  1  0  0  0  0
  9 10  1  0  0  0  0
  9 11  1  0  0  0  0
  9 16  1  0  0  0  0
  7  8  1  0  0  0  0
  7  9  1  0  0  0  0
 20 21  1  0  0  0  0
 20 22  1  0  0  0  0
 20 23  1  0  0  0  0
 18 19  1  0  0  0  0
 18 20  1  0  0  0  0
M  END
$$$$
default_name
  -OEChem-01062215323D

 23 22  0     1  0  0  0  0  0999 V2000
   -2.6857   -3.6684    0.8743 H   0  0  0  0  0  0  0  0  0  0  0  0
   -2.6617   -2.6474    0.4953 C   0  0  0  0  0  0  0  0  0  0  0  0
   -3.2657   -2.0054    1.1353 H   0  0  0  0  0  0  0  0  0  0  0  0
   -3.0477   -2.6254   -0.5217 H   0  0  0  0  0  0  0  0  0  0  0  0
   -1.2337   -2.1564    0.4993 C   0  0  0  0  0  0  0  0  0  0  0  0
   -0.3327   -2.8864    0.8893 O   0  0  0  0  0  0  0  0  0  0  0  0
   -1.0277   -0.9164    0.0623 N   0  0  0  0  0  0  0  0  0  0  0  0
   -1.8237   -0.3604   -0.2157 H   0  0  0  0  0  0  0  0  0  0  0  0
    0.2713   -0.2414    0.0463 C   0  0  1  0  0  0  0  0  0  0  0  0
    0.9671   -0.8331   -0.5520 H   0  0  0  0  0  0  0  0  0  0  0  0
    0.0999    1.1316   -0.6240 C   0  0  0  0  0  0  0  0  0  0  0  0
   -0.6916    1.6799   -0.1082 H   0  0  0  0  0  0  0  0  0  0  0  0
    1.0305    1.6964   -0.5402 H   0  0  0  0  0  0  0  0  0  0  0  0
   -0.3604    0.9562   -2.3729 S   0  0  0  0  0  0  0  0  0  0  0  0
   -0.5466    2.2572   -2.6263 H   0  0  0  0  0  0  0  0  0  0  0  0
    0.8363   -0.1441    1.4782 C   0  0  0  0  0  0  0  0  0  0  0  0
    1.5539   -1.0432    1.9176 O   0  0  0  0  0  0  0  0  0  0  0  0
    0.5242    0.9388    2.1995 N   0  0  0  0  0  0  0  0  0  0  0  0
   -0.1209    1.5985    1.7893 H   0  0  0  0  0  0  0  0  0  0  0  0
    0.9861    1.1818    3.5650 C   0  0  0  0  0  0  0  0  0  0  0  0
    2.0680    1.0413    3.6198 H   0  0  0  0  0  0  0  0  0  0  0  0
    0.7401    2.1994    3.8708 H   0  0  0  0  0  0  0  0  0  0  0  0
    0.5079    0.4747    4.2449 H   0  0  0  0  0  0  0  0  0  0  0  0
  5  6  2  0  0  0  0
  5  7  1  0  0  0  0
  2  3  1  0  0  0  0
  2  4  1  0  0  0  0
  2  5  1  0  0  0  0
  1  2  1  0  0  0  0
 16 17  2  0  0  0  0
 16 18  1  0  0  0  0
 14 15  1  0  0  0  0
 11 12  1  0  0  0  0
 11 13  1  0  0  0  0
 11 14  1  0  0  0  0
  9 10  1  0  0  0  0
  9 11  1  0  0  0  0
  9 16  1  0  0  0  0
  7  8  1  0  0  0  0
  7  9  1  0  0  0  0
 20 21  1  0  0  0  0
 20 22  1  0  0  0  0
 20 23  1  0  0  0  0
 18 19  1  0  0  0  0
 18 20  1  0  0  0  0
M  END
$$$$
default_name
  -OEChem-01062215323D

 23 22  0     1  0  0  0  0  0999 V2000
   -2.6857   -3.6684    0.8743 H   0  0  0  0  0  0  0  0  0  0  0  0
   -2.6617   -2.6474    0.4953 C   0  0  0  0  0  0  0  0  0  0  0  0
   -3.2657   -2.0054    1.1353 H   0  0  0  0  0  0  0  0  0  0  0  0
   -3.0477   -2.6254   -0.5217 H   0  0  0  0  0  0  0  0  0  0  0  0
   -1.2337   -2.1564    0.4993 C   0  0  0  0  0  0  0  0  0  0  0  0
   -0.3327   -2.8864    0.8893 O   0  0  0  0  0  0  0  0  0  0  0  0
   -1.0277   -0.9164    0.0623 N   0  0  0  0  0  0  0  0  0  0  0  0
   -1.8237   -0.3604   -0.2157 H   0  0  0  0  0  0  0  0  0  0  0  0
    0.2713   -0.2414    0.0463 C   0  0  1  0  0  0  0  0  0  0  0  0
    0.9671   -0.8331   -0.5520 H   0  0  0  0  0  0  0  0  0  0  0  0
    0.0999    1.1316   -0.6240 C   0  0  0  0  0  0  0  0  0  0  0  0
   -0.6916    1.6799   -0.1082 H   0  0  0  0  0  0  0  0  0  0  0  0
    1.0305    1.6964   -0.5402 H   0  0  0  0  0  0  0  0  0  0  0  0
   -0.3604    0.9562   -2.3729 S   0  0  0  0  0  0  0  0  0  0  0  0
   -0.5466    2.2572   -2.6263 H   0  0  0  0  0  0  0  0  0  0  0  0
    0.8363   -0.1441    1.4782 C   0  0  0  0  0  0  0  0  0  0  0  0
    1.7604   -0.8804    1.8251 O   0  0  0  0  0  0  0  0  0  0  0  0
    0.2942    0.7599    2.3024 N   0  0  0  0  0  0  0  0  0  0  0  0
   -0.5013    1.2797    1.9611 H   0  0  0  0  0  0  0  0  0  0  0  0
    0.7224    0.9793    3.6828 C   0  0  0  0  0  0  0  0  0  0  0  0
    1.8075    1.0992    3.7186 H   0  0  0  0  0  0  0  0  0  0  0  0
    0.2485    1.8746    4.0869 H   0  0  0  0  0  0  0  0  0  0  0  0
    0.4467    0.1178    4.2934 H   0  0  0  0  0  0  0  0  0  0  0  0
  5  6  2  0  0  0  0
  5  7  1  0  0  0  0
  2  3  1  0  0  0  0
  2  4  1  0  0  0  0
  2  5  1  0  0  0  0
  1  2  1  0  0  0  0
 16 17  2  0  0  0  0
 16 18  1  0  0  0  0
 14 15  1  0  0  0  0
 11 12  1  0  0  0  0
 11 13  1  0  0  0  0
 11 14  1  0  0  0  0
  9 10  1  0  0  0  0
  9 11  1  0  0  0  0
  9 16  1  0  0  0  0
  7  8  1  0  0  0  0
  7  9  1  0  0  0  0
 20 21  1  0  0  0  0
 20 22  1  0  0  0  0
 20 23  1  0  0  0  0
 18 19  1  0  0  0  0
 18 20  1  0  0  0  0
M  END
$$$$
default_name
  -OEChem-01062215323D

 23 22  0     1  0  0  0  0  0999 V2000
   -2.6857   -3.6684    0.8743 H   0  0  0  0  0  0  0  0  0  0  0  0
   -2.6617   -2.6474    0.4953 C   0  0  0  0  0  0  0  0  0  0  0  0
   -3.2657   -2.0054    1.1353 H   0  0  0  0  0  0  0  0  0  0  0  0
   -3.0477   -2.6254   -0.5217 H   0  0  0  0  0  0  0  0  0  0  0  0
   -1.2337   -2.1564    0.4993 C   0  0  0  0  0  0  0  0  0  0  0  0
   -0.3327   -2.8864    0.8893 O   0  0  0  0  0  0  0  0  0  0  0  0
   -1.0277   -0.9164    0.0623 N   0  0  0  0  0  0  0  0  0  0  0  0
   -1.8237   -0.3604   -0.2157 H   0  0  0  0  0  0  0  0  0  0  0  0
    0.2713   -0.2414    0.0463 C   0  0  1  0  0  0  0  0  0  0  0  0
    0.9671   -0.8331   -0.5520 H   0  0  0  0  0  0  0  0  0  0  0  0
    0.0999    1.1316   -0.6240 C   0  0  0  0  0  0  0  0  0  0  0  0
   -0.6916    1.6799   -0.1082 H   0  0  0  0  0  0  0  0  0  0  0  0
    1.0305    1.6964   -0.5402 H   0  0  0  0  0  0  0  0  0  0  0  0
   -0.3604    0.9562   -2.3729 S   0  0  0  0  0  0  0  0  0  0  0  0
   -0.5466    2.2572   -2.6263 H   0  0  0  0  0  0  0  0  0  0  0  0
    0.8363   -0.1441    1.4782 C   0  0  0  0  0  0  0  0  0  0  0  0
    1.9191   -0.6648    1.7478 O   0  0  0  0  0  0  0  0  0  0  0  0
    0.1167    0.5221    2.3886 N   0  0  0  0  0  0  0  0  0  0  0  0
   -0.7894    0.8641    2.1030 H   0  0  0  0  0  0  0  0  0  0  0  0
    0.5183    0.7091    3.7817 C   0  0  0  0  0  0  0  0  0  0  0  0
    1.5437    1.0833    3.8238 H   0  0  0  0  0  0  0  0  0  0  0  0
   -0.1448    1.4223    4.2728 H   0  0  0  0  0  0  0  0  0  0  0  0
    0.4741   -0.2463    4.3073 H   0  0  0  0  0  0  0  0  0  0  0  0
  5  6  2  0  0  0  0
  5  7  1  0  0  0  0
  2  3  1  0  0  0  0
  2  4  1  0  0  0  0
  2  5  1  0  0  0  0
  1  2  1  0  0  0  0
 16 17  2  0  0  0  0
 16 18  1  0  0  0  0
 14 15  1  0  0  0  0
 11 12  1  0  0  0  0
 11 13  1  0  0  0  0
 11 14  1  0  0  0  0
  9 10  1  0  0  0  0
  9 11  1  0  0  0  0
  9 16  1  0  0  0  0
  7  8  1  0  0  0  0
  7  9  1  0  0  0  0
 20 21  1  0  0  0  0
 20 22  1  0  0  0  0
 20 23  1  0  0  0  0
 18 19  1  0  0  0  0
 18 20  1  0  0  0  0
M  END
$$$$
default_name
  -OEChem-01062215323D

 23 22  0     1  0  0  0  0  0999 V2000
   -2.6857   -3.6684    0.8743 H   0  0  0  0  0  0  0  0  0  0  0  0
   -2.6617   -2.6474    0.4953 C   0  0  0  0  0  0  0  0  0  0  0  0
   -3.2657   -2.0054    1.1353 H   0  0  0  0  0  0  0  0  0  0  0  0
   -3.0477   -2.6254   -0.5217 H   0  0  0  0  0  0  0  0  0  0  0  0
   -1.2337   -2.1564    0.4993 C   0  0  0  0  0  0  0  0  0  0  0  0
   -0.3327   -2.8864    0.8893 O   0  0  0  0  0  0  0  0  0  0  0  0
   -1.0277   -0.9164    0.0623 N   0  0  0  0  0  0  0  0  0  0  0  0
   -1.8237   -0.3604   -0.2157 H   0  0  0  0  0  0  0  0  0  0  0  0
    0.2713   -0.2414    0.0463 C   0  0  1  0  0  0  0  0  0  0  0  0
    0.9671   -0.8331   -0.5520 H   0  0  0  0  0  0  0  0  0  0  0  0
    0.0999    1.1316   -0.6240 C   0  0  0  0  0  0  0  0  0  0  0  0
   -0.6916    1.6799   -0.1082 H   0  0  0  0  0  0  0  0  0  0  0  0
    1.0305    1.6964   -0.5402 H   0  0  0  0  0  0  0  0  0  0  0  0
   -0.3604    0.9562   -2.3729 S   0  0  0  0  0  0  0  0  0  0  0  0
   -0.5466    2.2572   -2.6263 H   0  0  0  0  0  0  0  0  0  0  0  0
    0.8363   -0.1441    1.4782 C   0  0  0  0  0  0  0  0  0  0  0  0
    2.0194   -0.4111    1.6909 O   0  0  0  0  0  0  0  0  0  0  0  0
    0.0038    0.2415    2.4522 N   0  0  0  0  0  0  0  0  0  0  0  0
   -0.9654    0.3801    2.2053 H   0  0  0  0  0  0  0  0  0  0  0  0
    0.3876    0.3897    3.8549 C   0  0  0  0  0  0  0  0  0  0  0  0
    1.2944    0.9945    3.9282 H   0  0  0  0  0  0  0  0  0  0  0  0
   -0.4130    0.8733    4.4159 H   0  0  0  0  0  0  0  0  0  0  0  0
    0.5882   -0.5926    4.2858 H   0  0  0  0  0  0  0  0  0  0  0  0
  5  6  2  0  0  0  0
  5  7  1  0  0  0  0
  2  3  1  0  0  0  0
  2  4  1  0  0  0  0
  2  5  1  0  0  0  0
  1  2  1  0  0  0  0
 16 17  2  0  0  0  0
 16 18  1  0  0  0  0
 14 15  1  0  0  0  0
 11 12  1  0  0  0  0
 11 13  1  0  0  0  0
 11 14  1  0  0  0  0
  9 10  1  0  0  0  0
  9 11  1  0  0  0  0
  9 16  1  0  0  0  0
  7  8  1  0  0  0  0
  7  9  1  0  0  0  0
 20 21  1  0  0  0  0
 20 22  1  0  0  0  0
 20 23  1  0  0  0  0
 18 19  1  0  0  0  0
 18 20  1  0  0  0  0
M  END
$$$$
default_name
  -OEChem-01062215323D

 23 22  0     1  0  0  0  0  0999 V2000
   -2.6857   -3.6684    0.8743 H   0  0  0  0  0  0  0  0  0  0  0  0
   -2.6617   -2.6474    0.4953 C   0  0  0  0  0  0  0  0  0  0  0  0
   -3.2657   -2.0054    1.1353 H   0  0  0  0  0  0  0  0  0  0  0  0
   -3.0477   -2.6254   -0.5217 H   0  0  0  0  0  0  0  0  0  0  0  0
   -1.2337   -2.1564    0.4993 C   0  0  0  0  0  0  0  0  0  0  0  0
   -0.3327   -2.8864    0.8893 O   0  0  0  0  0  0  0  0  0  0  0  0
   -1.0277   -0.9164    0.0623 N   0  0  0  0  0  0  0  0  0  0  0  0
   -1.8237   -0.3604   -0.2157 H   0  0  0  0  0  0  0  0  0  0  0  0
    0.2713   -0.2414    0.0463 C   0  0  1  0  0  0  0  0  0  0  0  0
    0.9671   -0.8331   -0.5520 H   0  0  0  0  0  0  0  0  0  0  0  0
    0.0999    1.1316   -0.6240 C   0  0  0  0  0  0  0  0  0  0  0  0
   -0.6916    1.6799   -0.1082 H   0  0  0  0  0  0  0  0  0  0  0  0
    1.0305    1.6964   -0.5402 H   0  0  0  0  0  0  0  0  0  0  0  0
   -0.3604    0.9562   -2.3729 S   0  0  0  0  0  0  0  0  0  0  0  0
   -0.5466    2.2572   -2.6263 H   0  0  0  0  0  0  0  0  0  0  0  0
    0.8363   -0.1441    1.4782 C   0  0  0  0  0  0  0  0  0  0  0  0
    2.0544   -0.1366    1.6585 O   0  0  0  0  0  0  0  0  0  0  0  0
   -0.0367   -0.0626    2.4889 N   0  0  0  0  0  0  0  0  0  0  0  0
   -1.0175   -0.1395    2.2612 H   0  0  0  0  0  0  0  0  0  0  0  0
    0.3394    0.0429    3.8975 C   0  0  0  0  0  0  0  0  0  0  0  0
    1.0766    0.8389    4.0247 H   0  0  0  0  0  0  0  0  0  0  0  0
   -0.5377    0.2650    4.5065 H   0  0  0  0  0  0  0  0  0  0  0  0
    0.7814   -0.8978    4.2304 H   0  0  0  0  0  0  0  0  0  0  0  0
  5  6  2  0  0  0  0
  5  7  1  0  0  0  0
  2  3  1  0  0  0  0
  2  4  1  0  0  0  0
  2  5  1  0  0  0  0
  1  2  1  0  0  0  0
 16 17  2  0  0  0  0
 16 18  1  0  0  0  0
 14 15  1  0  0  0  0
 11 12  1  0  0  0  0
 11 13  1  0  0  0  0
 11 14  1  0  0  0  0
  9 10  1  0  0  0  0
  9 11  1  0  0  0  0
  9 16  1  0  0  0  0
  7  8  1  0  0  0  0
  7  9  1  0  0  0  0
 20 21  1  0  0  0  0
 20 22  1  0  0  0  0
 20 23  1  0  0  0  0
 18 19  1  0  0  0  0
 18 20  1  0  0  0  0
M  END
$$$$
default_name
  -OEChem-01062215323D

 23 22  0     1  0  0  0  0  0999 V2000
   -2.6857   -3.6684    0.8743 H   0  0  0  0  0  0  0  0  0  0  0  0
   -2.6617   -2.6474    0.4953 C   0  0  0  0  0  0  0  0  0  0  0  0
   -3.2657   -2.0054    1.1353 H   0  0  0  0  0  0  0  0  0  0  0  0
   -3.0477   -2.6254   -0.5217 H   0  0  0  0  0  0  0  0  0  0  0  0
   -1.2337   -2.1564    0.4993 C   0  0  0  0  0  0  0  0  0  0  0  0
   -0.3327   -2.8864    0.8893 O   0  0  0  0  0  0  0  0  0  0  0  0
   -1.0277   -0.9164    0.0623 N   0  0  0  0  0  0  0  0  0  0  0  0
   -1.8237   -0.3604   -0.2157 H   0  0  0  0  0  0  0  0  0  0  0  0
    0.2713   -0.2414    0.0463 C   0  0  1  0  0  0  0  0  0  0  0  0
    0.9671   -0.8331   -0.5520 H   0  0  0  0  0  0  0  0  0  0  0  0
    0.0999    1.1316   -0.6240 C   0  0  0  0  0  0  0  0  0  0  0  0
   -0.6916    1.6799   -0.1082 H   0  0  0  0  0  0  0  0  0  0  0  0
    1.0305    1.6964   -0.5402 H   0  0  0  0  0  0  0  0  0  0  0  0
   -0.3604    0.9562   -2.3729 S   0  0  0  0  0  0  0  0  0  0  0  0
   -0.5466    2.2572   -2.6263 H   0  0  0  0  0  0  0  0  0  0  0  0
    0.8363   -0.1441    1.4782 C   0  0  0  0  0  0  0  0  0  0  0  0
    2.0217    0.1401    1.6526 O   0  0  0  0  0  0  0  0  0  0  0  0
   -0.0023   -0.3696    2.4962 N   0  0  0  0  0  0  0  0  0  0  0  0
   -0.9420   -0.6592    2.2668 H   0  0  0  0  0  0  0  0  0  0  0  0
    0.3768   -0.3077    3.9066 C   0  0  0  0  0  0  0  0  0  0  0  0
    0.9052    0.6272    4.1067 H   0  0  0  0  0  0  0  0  0  0  0  0
   -0.5106   -0.3611    4.5383 H   0  0  0  0  0  0  0  0  0  0  0  0
    1.0403   -1.1408    4.1447 H   0  0  0  0  0  0  0  0  0  0  0  0
  5  6  2  0  0  0  0
  5  7  1  0  0  0  0
  2  3  1  0  0  0  0
  2  4  1  0  0  0  0
  2  5  1  0  0  0  0
  1  2  1  0  0  0  0
 16 17  2  0  0  0  0
 16 18  1  0  0  0  0
 14 15  1  0  0  0  0
 11 12  1  0  0  0  0
 11 13  1  0  0  0  0
 11 14  1  0  0  0  0
  9 10  1  0  0  0  0
  9 11  1  0  0  0  0
  9 16  1  0  0  0  0
  7  8  1  0  0  0  0
  7  9  1  0  0  0  0
 20 21  1  0  0  0  0
 20 22  1  0  0  0  0
 20 23  1  0  0  0  0
 18 19  1  0  0  0  0
 18 20  1  0  0  0  0
M  END
$$$$
default_name
  -OEChem-01062215323D

 23 22  0     1  0  0  0  0  0999 V2000
   -2.6857   -3.6684    0.8743 H   0  0  0  0  0  0  0  0  0  0  0  0
   -2.6617   -2.6474    0.4953 C   0  0  0  0  0  0  0  0  0  0  0  0
   -3.2657   -2.0054    1.1353 H   0  0  0  0  0  0  0  0  0  0  0  0
   -3.0477   -2.6254   -0.5217 H   0  0  0  0  0  0  0  0  0  0  0  0
   -1.2337   -2.1564    0.4993 C   0  0  0  0  0  0  0  0  0  0  0  0
   -0.3327   -2.8864    0.8893 O   0  0  0  0  0  0  0  0  0  0  0  0
   -1.0277   -0.9164    0.0623 N   0  0  0  0  0  0  0  0  0  0  0  0
   -1.8237   -0.3604   -0.2157 H   0  0  0  0  0  0  0  0  0  0  0  0
    0.2713   -0.2414    0.0463 C   0  0  1  0  0  0  0  0  0  0  0  0
    0.9671   -0.8331   -0.5520 H   0  0  0  0  0  0  0  0  0  0  0  0
    0.0999    1.1316   -0.6240 C   0  0  0  0  0  0  0  0  0  0  0  0
   -0.6916    1.6799   -0.1082 H   0  0  0  0  0  0  0  0  0  0  0  0
    1.0305    1.6964   -0.5402 H   0  0  0  0  0  0  0  0  0  0  0  0
   -0.3604    0.9562   -2.3729 S   0  0  0  0  0  0  0  0  0  0  0  0
   -0.5466    2.2572   -2.6263 H   0  0  0  0  0  0  0  0  0  0  0  0
    0.8363   -0.1441    1.4782 C   0  0  0  0  0  0  0  0  0  0  0  0
    1.9236    0.4000    1.6736 O   0  0  0  0  0  0  0  0  0  0  0  0
    0.1049   -0.6586    2.4736 N   0  0  0  0  0  0  0  0  0  0  0  0
   -0.7442   -1.1436    2.2216 H   0  0  0  0  0  0  0  0  0  0  0  0
    0.4974   -0.6383    3.8815 C   0  0  0  0  0  0  0  0  0  0  0  0
    0.7918    0.3737    4.1686 H   0  0  0  0  0  0  0  0  0  0  0  0
   -0.3334   -0.9624    4.5093 H   0  0  0  0  0  0  0  0  0  0  0  0
    1.3475   -1.3052    4.0347 H   0  0  0  0  0  0  0  0  0  0  0  0
  5  6  2  0  0  0  0
  5  7  1  0  0  0  0
  2  3  1  0  0  0  0
  2  4  1  0  0  0  0
  2  5  1  0  0  0  0
  1  2  1  0  0  0  0
 16 17  2  0  0  0  0
 16 18  1  0  0  0  0
 14 15  1  0  0  0  0
 11 12  1  0  0  0  0
 11 13  1  0  0  0  0
 11 14  1  0  0  0  0
  9 10  1  0  0  0  0
  9 11  1  0  0  0  0
  9 16  1  0  0  0  0
  7  8  1  0  0  0  0
  7  9  1  0  0  0  0
 20 21  1  0  0  0  0
 20 22  1  0  0  0  0
 20 23  1  0  0  0  0
 18 19  1  0  0  0  0
 18 20  1  0  0  0  0
M  END
$$$$
default_name
  -OEChem-01062215323D

 23 22  0     1  0  0  0  0  0999 V2000
   -2.6857   -3.6684    0.8743 H   0  0  0  0  0  0  0  0  0  0  0  0
   -2.6617   -2.6474    0.4953 C   0  0  0  0  0  0  0  0  0  0  0  0
   -3.2657   -2.0054    1.1353 H   0  0  0  0  0  0  0  0  0  0  0  0
   -3.0477   -2.6254   -0.5217 H   0  0  0  0  0  0  0  0  0  0  0  0
   -1.2337   -2.1564    0.4993 C   0  0  0  0  0  0  0  0  0  0  0  0
   -0.3327   -2.8864    0.8893 O   0  0  0  0  0  0  0  0  0  0  0  0
   -1.0277   -0.9164    0.0623 N   0  0  0  0  0  0  0  0  0  0  0  0
   -1.8237   -0.3604   -0.2157 H   0  0  0  0  0  0  0  0  0  0  0  0
    0.2713   -0.2414    0.0463 C   0  0  1  0  0  0  0  0  0  0  0  0
    0.9671   -0.8331   -0.5520 H   0  0  0  0  0  0  0  0  0  0  0  0
    0.0999    1.1316   -0.6240 C   0  0  0  0  0  0  0  0  0  0  0  0
   -0.6916    1.6799   -0.1082 H   0  0  0  0  0  0  0  0  0  0  0  0
    1.0305    1.6964   -0.5402 H   0  0  0  0  0  0  0  0  0  0  0  0
   -0.3604    0.9562   -2.3729 S   0  0  0  0  0  0  0  0  0  0  0  0
   -0.5466    2.2572   -2.6263 H   0  0  0  0  0  0  0  0  0  0  0  0
    0.8363   -0.1441    1.4782 C   0  0  0  0  0  0  0  0  0  0  0  0
    1.7666    0.6255    1.7202 O   0  0  0  0  0  0  0  0  0  0  0  0
    0.2775   -0.9098    2.4225 N   0  0  0  0  0  0  0  0  0  0  0  0
   -0.4374   -1.5597    2.1289 H   0  0  0  0  0  0  0  0  0  0  0  0
    0.6928   -0.9262    3.8240 C   0  0  0  0  0  0  0  0  0  0  0  0
    0.7443    0.0957    4.2063 H   0  0  0  0  0  0  0  0  0  0  0  0
   -0.0183   -1.4979    4.4214 H   0  0  0  0  0  0  0  0  0  0  0  0
    1.6819   -1.3798    3.9079 H   0  0  0  0  0  0  0  0  0  0  0  0
  5  6  2  0  0  0  0
  5  7  1  0  0  0  0
  2  3  1  0  0  0  0
  2  4  1  0  0  0  0
  2  5  1  0  0  0  0
  1  2  1  0  0  0  0
 16 17  2  0  0  0  0
 16 18  1  0  0  0  0
 14 15  1  0  0  0  0
 11 12  1  0  0  0  0
 11 13  1  0  0  0  0
 11 14  1  0  0  0  0
  9 10  1  0  0  0  0
  9 11  1  0  0  0  0
  9 16  1  0  0  0  0
  7  8  1  0  0  0  0
  7  9  1  0  0  0  0
 20 21  1  0  0  0  0
 20 22  1  0  0  0  0
 20 23  1  0  0  0  0
 18 19  1  0  0  0  0
 18 20  1  0  0  0  0
M  END
$$$$
default_name
  -OEChem-01062215323D

 23 22  0     1  0  0  0  0  0999 V2000
   -2.6857   -3.6684    0.8743 H   0  0  0  0  0  0  0  0  0  0  0  0
   -2.6617   -2.6474    0.4953 C   0  0  0  0  0  0  0  0  0  0  0  0
   -3.2657   -2.0054    1.1353 H   0  0  0  0  0  0  0  0  0  0  0  0
   -3.0477   -2.6254   -0.5217 H   0  0  0  0  0  0  0  0  0  0  0  0
   -1.2337   -2.1564    0.4993 C   0  0  0  0  0  0  0  0  0  0  0  0
   -0.3327   -2.8864    0.8893 O   0  0  0  0  0  0  0  0  0  0  0  0
   -1.0277   -0.9164    0.0623 N   0  0  0  0  0  0  0  0  0  0  0  0
   -1.8237   -0.3604   -0.2157 H   0  0  0  0  0  0  0  0  0  0  0  0
    0.2713   -0.2414    0.0463 C   0  0  1  0  0  0  0  0  0  0  0  0
    0.9671   -0.8331   -0.5520 H   0  0  0  0  0  0  0  0  0  0  0  0
    0.0999    1.1316   -0.6240 C   0  0  0  0  0  0  0  0  0  0  0  0
   -0.6916    1.6799   -0.1082 H   0  0  0  0  0  0  0  0  0  0  0  0
    1.0305    1.6964   -0.5402 H   0  0  0  0  0  0  0  0  0  0  0  0
   -0.3604    0.9562   -2.3729 S   0  0  0  0  0  0  0  0  0  0  0  0
   -0.5466    2.2572   -2.6263 H   0  0  0  0  0  0  0  0  0  0  0  0
    0.8363   -0.1441    1.4782 C   0  0  0  0  0  0  0  0  0  0  0  0
    1.5616    0.8012    1.7891 O   0  0  0  0  0  0  0  0  0  0  0  0
    0.5037   -1.1062    2.3466 N   0  0  0  0  0  0  0  0  0  0  0  0
   -0.0426   -1.8790    1.9949 H   0  0  0  0  0  0  0  0  0  0  0  0
    0.9499   -1.1520    3.7379 C   0  0  0  0  0  0  0  0  0  0  0  0
    0.7657   -0.1877    4.2171 H   0  0  0  0  0  0  0  0  0  0  0  0
    0.4133   -1.9311    4.2806 H   0  0  0  0  0  0  0  0  0  0  0  0
    2.0207   -1.3595    3.7728 H   0  0  0  0  0  0  0  0  0  0  0  0
  5  6  2  0  0  0  0
  5  7  1  0  0  0  0
  2  3  1  0  0  0  0
  2  4  1  0  0  0  0
  2  5  1  0  0  0  0
  1  2  1  0  0  0  0
 16 17  2  0  0  0  0
 16 18  1  0  0  0  0
 14 15  1  0  0  0  0
 11 12  1  0  0  0  0
 11 13  1  0  0  0  0
 11 14  1  0  0  0  0
  9 10  1  0  0  0  0
  9 11  1  0  0  0  0
  9 16  1  0  0  0  0
  7  8  1  0  0  0  0
  7  9  1  0  0  0  0
 20 21  1  0  0  0  0
 20 22  1  0  0  0  0
 20 23  1  0  0  0  0
 18 19  1  0  0  0  0
 18 20  1  0  0  0  0
M  END
$$$$
default_name
  -OEChem-01062215323D

 23 22  0     1  0  0  0  0  0999 V2000
   -2.6857   -3.6684    0.8743 H   0  0  0  0  0  0  0  0  0  0  0  0
   -2.6617   -2.6474    0.4953 C   0  0  0  0  0  0  0  0  0  0  0  0
   -3.2657   -2.0054    1.1353 H   0  0  0  0  0  0  0  0  0  0  0  0
   -3.0477   -2.6254   -0.5217 H   0  0  0  0  0  0  0  0  0  0  0  0
   -1.2337   -2.1564    0.4993 C   0  0  0  0  0  0  0  0  0  0  0  0
   -0.3327   -2.8864    0.8893 O   0  0  0  0  0  0  0  0  0  0  0  0
   -1.0277   -0.9164    0.0623 N   0  0  0  0  0  0  0  0  0  0  0  0
   -1.8237   -0.3604   -0.2157 H   0  0  0  0  0  0  0  0  0  0  0  0
    0.2713   -0.2414    0.0463 C   0  0  1  0  0  0  0  0  0  0  0  0
    0.9671   -0.8331   -0.5520 H   0  0  0  0  0  0  0  0  0  0  0  0
    0.0999    1.1316   -0.6240 C   0  0  0  0  0  0  0  0  0  0  0  0
   -0.6916    1.6799   -0.1082 H   0  0  0  0  0  0  0  0  0  0  0  0
    1.0305    1.6964   -0.5402 H   0  0  0  0  0  0  0  0  0  0  0  0
   -0.3604    0.9562   -2.3729 S   0  0  0  0  0  0  0  0  0  0  0  0
   -0.5466    2.2572   -2.6263 H   0  0  0  0  0  0  0  0  0  0  0  0
    0.8363   -0.1441    1.4782 C   0  0  0  0  0  0  0  0  0  0  0  0
    1.3225    0.9152    1.8757 O   0  0  0  0  0  0  0  0  0  0  0  0
    0.7682   -1.2343    2.2510 N   0  0  0  0  0  0  0  0  0  0  0  0
    0.4132   -2.0800    1.8287 H   0  0  0  0  0  0  0  0  0  0  0  0
    1.2510   -1.3001    3.6292 C   0  0  0  0  0  0  0  0  0  0  0  0
    0.8547   -0.4574    4.2003 H   0  0  0  0  0  0  0  0  0  0  0  0
    0.9320   -2.2325    4.0964 H   0  0  0  0  0  0  0  0  0  0  0  0
    2.3409   -1.2457    3.6387 H   0  0  0  0  0  0  0  0  0  0  0  0
  5  6  2  0  0  0  0
  5  7  1  0  0  0  0
  2  3  1  0  0  0  0
  2  4  1  0  0  0  0
  2  5  1  0  0  0  0
  1  2  1  0  0  0  0
 16 17  2  0  0  0  0
 16 18  1  0  0  0  0
 14 15  1  0  0  0  0
 11 12  1  0  0  0  0
 11 13  1  0  0  0  0
 11 14  1  0  0  0  0
  9 10  1  0  0  0  0
  9 11  1  0  0  0  0
  9 16  1  0  0  0  0
  7  8  1  0  0  0  0
  7  9  1  0  0  0  0
 20 21  1  0  0  0  0
 20 22  1  0  0  0  0
 20 23  1  0  0  0  0
 18 19  1  0  0  0  0
 18 20  1  0  0  0  0
M  END
$$$$
default_name
  -OEChem-01062215323D

 23 22  0     1  0  0  0  0  0999 V2000
   -2.6857   -3.6684    0.8743 H   0  0  0  0  0  0  0  0  0  0  0  0
   -2.6617   -2.6474    0.4953 C   0  0  0  0  0  0  0  0  0  0  0  0
   -3.2657   -2.0054    1.1353 H   0  0  0  0  0  0  0  0  0  0  0  0
   -3.0477   -2.6254   -0.5217 H   0  0  0  0  0  0  0  0  0  0  0  0
   -1.2337   -2.1564    0.4993 C   0  0  0  0  0  0  0  0  0  0  0  0
   -0.3327   -2.8864    0.8893 O   0  0  0  0  0  0  0  0  0  0  0  0
   -1.0277   -0.9164    0.0623 N   0  0  0  0  0  0  0  0  0  0  0  0
   -1.8237   -0.3604   -0.2157 H   0  0  0  0  0  0  0  0  0  0  0  0
    0.2713   -0.2414    0.0463 C   0  0  1  0  0  0  0  0  0  0  0  0
    0.9671   -0.8331   -0.5520 H   0  0  0  0  0  0  0  0  0  0  0  0
    0.0999    1.1316   -0.6240 C   0  0  0  0  0  0  0  0  0  0  0  0
   -0.6916    1.6799   -0.1082 H   0  0  0  0  0  0  0  0  0  0  0  0
    1.0305    1.6964   -0.5402 H   0  0  0  0  0  0  0  0  0  0  0  0
   -0.3604    0.9562   -2.3729 S   0  0  0  0  0  0  0  0  0  0  0  0
   -0.5466    2.2572   -2.6263 H   0  0  0  0  0  0  0  0  0  0  0  0
    0.8363   -0.1441    1.4782 C   0  0  0  0  0  0  0  0  0  0  0  0
    1.0656    0.9595    1.9741 O   0  0  0  0  0  0  0  0  0  0  0  0
    1.0529   -1.2854    2.1422 N   0  0  0  0  0  0  0  0  0  0  0  0
    0.8991   -2.1488    1.6417 H   0  0  0  0  0  0  0  0  0  0  0  0
    1.5757   -1.3605    3.5052 C   0  0  0  0  0  0  0  0  0  0  0  0
    1.0052   -0.6950    4.1571 H   0  0  0  0  0  0  0  0  0  0  0  0
    1.5024   -2.3815    3.8815 H   0  0  0  0  0  0  0  0  0  0  0  0
    2.6207   -1.0460    3.5148 H   0  0  0  0  0  0  0  0  0  0  0  0
  5  6  2  0  0  0  0
  5  7  1  0  0  0  0
  2  3  1  0  0  0  0
  2  4  1  0  0  0  0
  2  5  1  0  0  0  0
  1  2  1  0  0  0  0
 16 17  2  0  0  0  0
 16 18  1  0  0  0  0
 14 15  1  0  0  0  0
 11 12  1  0  0  0  0
 11 13  1  0  0  0  0
 11 14  1  0  0  0  0
  9 10  1  0  0  0  0
  9 11  1  0  0  0  0
  9 16  1  0  0  0  0
  7  8  1  0  0  0  0
  7  9  1  0  0  0  0
 20 21  1  0  0  0  0
 20 22  1  0  0  0  0
 20 23  1  0  0  0  0
 18 19  1  0  0  0  0
 18 20  1  0  0  0  0
M  END
$$$$
default_name
  -OEChem-01062215323D

 23 22  0     1  0  0  0  0  0999 V2000
   -2.6857   -3.6684    0.8743 H   0  0  0  0  0  0  0  0  0  0  0  0
   -2.6617   -2.6474    0.4953 C   0  0  0  0  0  0  0  0  0  0  0  0
   -3.2657   -2.0054    1.1353 H   0  0  0  0  0  0  0  0  0  0  0  0
   -3.0477   -2.6254   -0.5217 H   0  0  0  0  0  0  0  0  0  0  0  0
   -1.2337   -2.1564    0.4993 C   0  0  0  0  0  0  0  0  0  0  0  0
   -0.3327   -2.8864    0.8893 O   0  0  0  0  0  0  0  0  0  0  0  0
   -1.0277   -0.9164    0.0623 N   0  0  0  0  0  0  0  0  0  0  0  0
   -1.8237   -0.3604   -0.2157 H   0  0  0  0  0  0  0  0  0  0  0  0
    0.2713   -0.2414    0.0463 C   0  0  1  0  0  0  0  0  0  0  0  0
    0.9671   -0.8331   -0.5520 H   0  0  0  0  0  0  0  0  0  0  0  0
    0.0999    1.1316   -0.6240 C   0  0  0  0  0  0  0  0  0  0  0  0
   -0.6916    1.6799   -0.1082 H   0  0  0  0  0  0  0  0  0  0  0  0
    1.0305    1.6964   -0.5402 H   0  0  0  0  0  0  0  0  0  0  0  0
   -0.3604    0.9562   -2.3729 S   0  0  0  0  0  0  0  0  0  0  0  0
   -0.5466    2.2572   -2.6263 H   0  0  0  0  0  0  0  0  0  0  0  0
    0.8363   -0.1441    1.4782 C   0  0  0  0  0  0  0  0  0  0  0  0
    0.8084    0.9313    2.0775 O   0  0  0  0  0  0  0  0  0  0  0  0
    1.3384   -1.2560    2.0275 N   0  0  0  0  0  0  0  0  0  0  0  0
    1.3820   -2.0808    1.4466 H   0  0  0  0  0  0  0  0  0  0  0  0
    1.9018   -1.3290    3.3744 C   0  0  0  0  0  0  0  0  0  0  0  0
    1.2070   -0.8841    4.0904 H   0  0  0  0  0  0  0  0  0  0  0  0
    2.0857   -2.3680    3.6505 H   0  0  0  0  0  0  0  0  0  0  0  0
    2.8409   -0.7743    3.4094 H   0  0  0  0  0  0  0  0  0  0  0  0
  5  6  2  0  0  0  0
  5  7  1  0  0  0  0
  2  3  1  0  0  0  0
  2  4  1  0  0  0  0
  2  5  1  0  0  0  0
  1  2  1  0  0  0  0
 16 17  2  0  0  0  0
 16 18  1  0  0  0  0
 14 15  1  0  0  0  0
 11 12  1  0  0  0  0
 11 13  1  0  0  0  0
 11 14  1  0  0  0  0
  9 10  1  0  0  0  0
  9 11  1  0  0  0  0
  9 16  1  0  0  0  0
  7  8  1  0  0  0  0
  7  9  1  0  0  0  0
 20 21  1  0  0  0  0
 20 22  1  0  0  0  0
 20 23  1  0  0  0  0
 18 19  1  0  0  0  0
 18 20  1  0  0  0  0
M  END
$$$$
default_name
  -OEChem-01062215323D

 23 22  0     1  0  0  0  0  0999 V2000
   -2.6857   -3.6684    0.8743 H   0  0  0  0  0  0  0  0  0  0  0  0
   -2.6617   -2.6474    0.4953 C   0  0  0  0  0  0  0  0  0  0  0  0
   -3.2657   -2.0054    1.1353 H   0  0  0  0  0  0  0  0  0  0  0  0
   -3.0477   -2.6254   -0.5217 H   0  0  0  0  0  0  0  0  0  0  0  0
   -1.2337   -2.1564    0.4993 C   0  0  0  0  0  0  0  0  0  0  0  0
   -0.3327   -2.8864    0.8893 O   0  0  0  0  0  0  0  0  0  0  0  0
   -1.0277   -0.9164    0.0623 N   0  0  0  0  0  0  0  0  0  0  0  0
   -1.8237   -0.3604   -0.2157 H   0  0  0  0  0  0  0  0  0  0  0  0
    0.2713   -0.2414    0.0463 C   0  0  1  0  0  0  0  0  0  0  0  0
    0.9671   -0.8331   -0.5520 H   0  0  0  0  0  0  0  0  0  0  0  0
    0.0999    1.1316   -0.6240 C   0  0  0  0  0  0  0  0  0  0  0  0
   -0.6916    1.6799   -0.1082 H   0  0  0  0  0  0  0  0  0  0  0  0
    1.0305    1.6964   -0.5402 H   0  0  0  0  0  0  0  0  0  0  0  0
   -0.3604    0.9562   -2.3729 S   0  0  0  0  0  0  0  0  0  0  0  0
   -0.5466    2.2572   -2.6263 H   0  0  0  0  0  0  0  0  0  0  0  0
    0.8363   -0.1441    1.4782 C   0  0  0  0  0  0  0  0  0  0  0  0
    0.5684    0.8325    2.1789 O   0  0  0  0  0  0  0  0  0  0  0  0
    1.6052   -1.1482    1.9149 N   0  0  0  0  0  0  0  0  0  0  0  0
    1.8288   -1.8805    1.2567 H   0  0  0  0  0  0  0  0  0  0  0  0
    2.2071   -1.2079    3.2457 C   0  0  0  0  0  0  0  0  0  0  0  0
    1.4462   -1.0120    4.0047 H   0  0  0  0  0  0  0  0  0  0  0  0
    2.6421   -2.1929    3.4191 H   0  0  0  0  0  0  0  0  0  0  0  0
    2.9866   -0.4488    3.3298 H   0  0  0  0  0  0  0  0  0  0  0  0
  5  6  2  0  0  0  0
  5  7  1  0  0  0  0
  2  3  1  0  0  0  0
  2  4  1  0  0  0  0
  2  5  1  0  0  0  0
  1  2  1  0  0  0  0
 16 17  2  0  0  0  0
 16 18  1  0  0  0  0
 14 15  1  0  0  0  0
 11 12  1  0  0  0  0
 11 13  1  0  0  0  0
 11 14  1  0  0  0  0
  9 10  1  0  0  0  0
  9 11  1  0  0  0  0
  9 16  1  0  0  0  0
  7  8  1  0  0  0  0
  7  9  1  0  0  0  0
 20 21  1  0  0  0  0
 20 22  1  0  0  0  0
 20 23  1  0  0  0  0
 18 19  1  0  0  0  0
 18 20  1  0  0  0  0
M  END
$$$$
default_name
  -OEChem-01062215323D

 23 22  0     1  0  0  0  0  0999 V2000
   -2.6857   -3.6684    0.8743 H   0  0  0  0  0  0  0  0  0  0  0  0
   -2.6617   -2.6474    0.4953 C   0  0  0  0  0  0  0  0  0  0  0  0
   -3.2657   -2.0054    1.1353 H   0  0  0  0  0  0  0  0  0  0  0  0
   -3.0477   -2.6254   -0.5217 H   0  0  0  0  0  0  0  0  0  0  0  0
   -1.2337   -2.1564    0.4993 C   0  0  0  0  0  0  0  0  0  0  0  0
   -0.3327   -2.8864    0.8893 O   0  0  0  0  0  0  0  0  0  0  0  0
   -1.0277   -0.9164    0.0623 N   0  0  0  0  0  0  0  0  0  0  0  0
   -1.8237   -0.3604   -0.2157 H   0  0  0  0  0  0  0  0  0  0  0  0
    0.2713   -0.2414    0.0463 C   0  0  1  0  0  0  0  0  0  0  0  0
    0.9671   -0.8331   -0.5520 H   0  0  0  0  0  0  0  0  0  0  0  0
    0.0999    1.1316   -0.6240 C   0  0  0  0  0  0  0  0  0  0  0  0
   -0.6916    1.6799   -0.1082 H   0  0  0  0  0  0  0  0  0  0  0  0
    1.0305    1.6964   -0.5402 H   0  0  0  0  0  0  0  0  0  0  0  0
   -0.3604    0.9562   -2.3729 S   0  0  0  0  0  0  0  0  0  0  0  0
   -0.5466    2.2572   -2.6263 H   0  0  0  0  0  0  0  0  0  0  0  0
    0.8363   -0.1441    1.4782 C   0  0  0  0  0  0  0  0  0  0  0  0
    0.3619    0.6698    2.2714 O   0  0  0  0  0  0  0  0  0  0  0  0
    1.8352   -0.9693    1.8120 N   0  0  0  0  0  0  0  0  0  0  0  0
    2.2092   -1.5618    1.0849 H   0  0  0  0  0  0  0  0  0  0  0  0
    2.4708   -1.0054    3.1279 C   0  0  0  0  0  0  0  0  0  0  0  0
    1.7067   -1.0700    3.9059 H   0  0  0  0  0  0  0  0  0  0  0  0
    3.1337   -1.8681    3.2030 H   0  0  0  0  0  0  0  0  0  0  0  0
    3.0479   -0.0919    3.2814 H   0  0  0  0  0  0  0  0  0  0  0  0
  5  6  2  0  0  0  0
  5  7  1  0  0  0  0
  2  3  1  0  0  0  0
  2  4  1  0  0  0  0
  2  5  1  0  0  0  0
  1  2  1  0  0  0  0
 16 17  2  0  0  0  0
 16 18  1  0  0  0  0
 14 15  1  0  0  0  0
 11 12  1  0  0  0  0
 11 13  1  0  0  0  0
 11 14  1  0  0  0  0
  9 10  1  0  0  0  0
  9 11  1  0  0  0  0
  9 16  1  0  0  0  0
  7  8  1  0  0  0  0
  7  9  1  0  0  0  0
 20 21  1  0  0  0  0
 20 22  1  0  0  0  0
 20 23  1  0  0  0  0
 18 19  1  0  0  0  0
 18 20  1  0  0  0  0
M  END
$$$$
default_name
  -OEChem-01062215323D

 23 22  0     1  0  0  0  0  0999 V2000
   -2.6857   -3.6684    0.8743 H   0  0  0  0  0  0  0  0  0  0  0  0
   -2.6617   -2.6474    0.4953 C   0  0  0  0  0  0  0  0  0  0  0  0
   -3.2657   -2.0054    1.1353 H   0  0  0  0  0  0  0  0  0  0  0  0
   -3.0477   -2.6254   -0.5217 H   0  0  0  0  0  0  0  0  0  0  0  0
   -1.2337   -2.1564    0.4993 C   0  0  0  0  0  0  0  0  0  0  0  0
   -0.3327   -2.8864    0.8893 O   0  0  0  0  0  0  0  0  0  0  0  0
   -1.0277   -0.9164    0.0623 N   0  0  0  0  0  0  0  0  0  0  0  0
   -1.8237   -0.3604   -0.2157 H   0  0  0  0  0  0  0  0  0  0  0  0
    0.2713   -0.2414    0.0463 C   0  0  1  0  0  0  0  0  0  0  0  0
    0.9671   -0.8331   -0.5520 H   0  0  0  0  0  0  0  0  0  0  0  0
    0.0999    1.1316   -0.6240 C   0  0  0  0  0  0  0  0  0  0  0  0
   -0.6916    1.6799   -0.1082 H   0  0  0  0  0  0  0  0  0  0  0  0
    1.0305    1.6964   -0.5402 H   0  0  0  0  0  0  0  0  0  0  0  0
   -0.3604    0.9562   -2.3729 S   0  0  0  0  0  0  0  0  0  0  0  0
   -0.5466    2.2572   -2.6263 H   0  0  0  0  0  0  0  0  0  0  0  0
    0.8363   -0.1441    1.4782 C   0  0  0  0  0  0  0  0  0  0  0  0
    0.2032    0.4542    2.3487 O   0  0  0  0  0  0  0  0  0  0  0  0
    2.0127   -0.7315    1.7258 N   0  0  0  0  0  0  0  0  0  0  0  0
    2.4972   -1.1462    0.9430 H   0  0  0  0  0  0  0  0  0  0  0  0
    2.6749   -0.7352    3.0290 C   0  0  0  0  0  0  0  0  0  0  0  0
    1.9705   -1.0540    3.8007 H   0  0  0  0  0  0  0  0  0  0  0  0
    3.5270   -1.4158    3.0171 H   0  0  0  0  0  0  0  0  0  0  0  0
    3.0205    0.2721    3.2674 H   0  0  0  0  0  0  0  0  0  0  0  0
  5  6  2  0  0  0  0
  5  7  1  0  0  0  0
  2  3  1  0  0  0  0
  2  4  1  0  0  0  0
  2  5  1  0  0  0  0
  1  2  1  0  0  0  0
 16 17  2  0  0  0  0
 16 18  1  0  0  0  0
 14 15  1  0  0  0  0
 11 12  1  0  0  0  0
 11 13  1  0  0  0  0
 11 14  1  0  0  0  0
  9 10  1  0  0  0  0
  9 11  1  0  0  0  0
  9 16  1  0  0  0  0
  7  8  1  0  0  0  0
  7  9  1  0  0  0  0
 20 21  1  0  0  0  0
 20 22  1  0  0  0  0
 20 23  1  0  0  0  0
 18 19  1  0  0  0  0
 18 20  1  0  0  0  0
M  END
$$$$
default_name
  -OEChem-01062215323D

 23 22  0     1  0  0  0  0  0999 V2000
   -2.6857   -3.6684    0.8743 H   0  0  0  0  0  0  0  0  0  0  0  0
   -2.6617   -2.6474    0.4953 C   0  0  0  0  0  0  0  0  0  0  0  0
   -3.2657   -2.0054    1.1353 H   0  0  0  0  0  0  0  0  0  0  0  0
   -3.0477   -2.6254   -0.5217 H   0  0  0  0  0  0  0  0  0  0  0  0
   -1.2337   -2.1564    0.4993 C   0  0  0  0  0  0  0  0  0  0  0  0
   -0.3327   -2.8864    0.8893 O   0  0  0  0  0  0  0  0  0  0  0  0
   -1.0277   -0.9164    0.0623 N   0  0  0  0  0  0  0  0  0  0  0  0
   -1.8237   -0.3604   -0.2157 H   0  0  0  0  0  0  0  0  0  0  0  0
    0.2713   -0.2414    0.0463 C   0  0  1  0  0  0  0  0  0  0  0  0
    0.9671   -0.8331   -0.5520 H   0  0  0  0  0  0  0  0  0  0  0  0
    0.0999    1.1316   -0.6240 C   0  0  0  0  0  0  0  0  0  0  0  0
   -0.6916    1.6799   -0.1082 H   0  0  0  0  0  0  0  0  0  0  0  0
    1.0305    1.6964   -0.5402 H   0  0  0  0  0  0  0  0  0  0  0  0
   -0.3604    0.9562   -2.3729 S   0  0  0  0  0  0  0  0  0  0  0  0
   -0.5466    2.2572   -2.6263 H   0  0  0  0  0  0  0  0  0  0  0  0
    0.8363   -0.1441    1.4782 C   0  0  0  0  0  0  0  0  0  0  0  0
    0.1029    0.2005    2.4055 O   0  0  0  0  0  0  0  0  0  0  0  0
    2.1256   -0.4509    1.6622 N   0  0  0  0  0  0  0  0  0  0  0  0
    2.6733   -0.6621    0.8406 H   0  0  0  0  0  0  0  0  0  0  0  0
    2.8055   -0.4158    2.9558 C   0  0  0  0  0  0  0  0  0  0  0  0
    2.2198   -0.9653    3.6963 H   0  0  0  0  0  0  0  0  0  0  0  0
    3.7952   -0.8668    2.8740 H   0  0  0  0  0  0  0  0  0  0  0  0
    2.9063    0.6185    3.2889 H   0  0  0  0  0  0  0  0  0  0  0  0
  5  6  2  0  0  0  0
  5  7  1  0  0  0  0
  2  3  1  0  0  0  0
  2  4  1  0  0  0  0
  2  5  1  0  0  0  0
  1  2  1  0  0  0  0
 16 17  2  0  0  0  0
 16 18  1  0  0  0  0
 14 15  1  0  0  0  0
 11 12  1  0  0  0  0
 11 13  1  0  0  0  0
 11 14  1  0  0  0  0
  9 10  1  0  0  0  0
  9 11  1  0  0  0  0
  9 16  1  0  0  0  0
  7  8  1  0  0  0  0
  7  9  1  0  0  0  0
 20 21  1  0  0  0  0
 20 22  1  0  0  0  0
 20 23  1  0  0  0  0
 18 19  1  0  0  0  0
 18 20  1  0  0  0  0
M  END
$$$$
default_name
  -OEChem-01062215323D

 23 22  0     1  0  0  0  0  0999 V2000
   -2.6857   -3.6684    0.8743 H   0  0  0  0  0  0  0  0  0  0  0  0
   -2.6617   -2.6474    0.4953 C   0  0  0  0  0  0  0  0  0  0  0  0
   -3.2657   -2.0054    1.1353 H   0  0  0  0  0  0  0  0  0  0  0  0
   -3.0477   -2.6254   -0.5217 H   0  0  0  0  0  0  0  0  0  0  0  0
   -1.2337   -2.1564    0.4993 C   0  0  0  0  0  0  0  0  0  0  0  0
   -0.3327   -2.8864    0.8893 O   0  0  0  0  0  0  0  0  0  0  0  0
   -1.0277   -0.9164    0.0623 N   0  0  0  0  0  0  0  0  0  0  0  0
   -1.8237   -0.3604   -0.2157 H   0  0  0  0  0  0  0  0  0  0  0  0
    0.2713   -0.2414    0.0463 C   0  0  1  0  0  0  0  0  0  0  0  0
    0.9671   -0.8331   -0.5520 H   0  0  0  0  0  0  0  0  0  0  0  0
    0.0999    1.1316   -0.6240 C   0  0  0  0  0  0  0  0  0  0  0  0
   -0.6916    1.6799   -0.1082 H   0  0  0  0  0  0  0  0  0  0  0  0
    1.0305    1.6964   -0.5402 H   0  0  0  0  0  0  0  0  0  0  0  0
   -0.3604    0.9562   -2.3729 S   0  0  0  0  0  0  0  0  0  0  0  0
   -0.5466    2.2572   -2.6263 H   0  0  0  0  0  0  0  0  0  0  0  0
    0.8363   -0.1441    1.4782 C   0  0  0  0  0  0  0  0  0  0  0  0
    0.0679   -0.0740    2.4380 O   0  0  0  0  0  0  0  0  0  0  0  0
    2.1662   -0.1468    1.6255 N   0  0  0  0  0  0  0  0  0  0  0  0
    2.7254   -0.1425    0.7848 H   0  0  0  0  0  0  0  0  0  0  0  0
    2.8538   -0.0690    2.9132 C   0  0  0  0  0  0  0  0  0  0  0  0
    2.4376   -0.8097    3.5998 H   0  0  0  0  0  0  0  0  0  0  0  0
    3.9199   -0.2585    2.7834 H   0  0  0  0  0  0  0  0  0  0  0  0
    2.7132    0.9236    3.3444 H   0  0  0  0  0  0  0  0  0  0  0  0
  5  6  2  0  0  0  0
  5  7  1  0  0  0  0
  2  3  1  0  0  0  0
  2  4  1  0  0  0  0
  2  5  1  0  0  0  0
  1  2  1  0  0  0  0
 16 17  2  0  0  0  0
 16 18  1  0  0  0  0
 14 15  1  0  0  0  0
 11 12  1  0  0  0  0
 11 13  1  0  0  0  0
 11 14  1  0  0  0  0
  9 10  1  0  0  0  0
  9 11  1  0  0  0  0
  9 16  1  0  0  0  0
  7  8  1  0  0  0  0
  7  9  1  0  0  0  0
 20 21  1  0  0  0  0
 20 22  1  0  0  0  0
 20 23  1  0  0  0  0
 18 19  1  0  0  0  0
 18 20  1  0  0  0  0
M  END
$$$$
default_name
  -OEChem-01062215323D

 23 22  0     1  0  0  0  0  0999 V2000
   -2.6857   -3.6684    0.8743 H   0  0  0  0  0  0  0  0  0  0  0  0
   -2.6617   -2.6474    0.4953 C   0  0  0  0  0  0  0  0  0  0  0  0
   -3.2657   -2.0054    1.1353 H   0  0  0  0  0  0  0  0  0  0  0  0
   -3.0477   -2.6254   -0.5217 H   0  0  0  0  0  0  0  0  0  0  0  0
   -1.2337   -2.1564    0.4993 C   0  0  0  0  0  0  0  0  0  0  0  0
   -0.3327   -2.8864    0.8893 O   0  0  0  0  0  0  0  0  0  0  0  0
   -1.0277   -0.9164    0.0623 N   0  0  0  0  0  0  0  0  0  0  0  0
   -1.8237   -0.3604   -0.2157 H   0  0  0  0  0  0  0  0  0  0  0  0
    0.2713   -0.2414    0.0463 C   0  0  1  0  0  0  0  0  0  0  0  0
    0.9671   -0.8331   -0.5520 H   0  0  0  0  0  0  0  0  0  0  0  0
    0.0999    1.1316   -0.6240 C   0  0  0  0  0  0  0  0  0  0  0  0
   -0.6916    1.6799   -0.1082 H   0  0  0  0  0  0  0  0  0  0  0  0
    1.0305    1.6964   -0.5402 H   0  0  0  0  0  0  0  0  0  0  0  0
   -0.3604    0.9562   -2.3729 S   0  0  0  0  0  0  0  0  0  0  0  0
   -0.5466    2.2572   -2.6263 H   0  0  0  0  0  0  0  0  0  0  0  0
    0.8363   -0.1441    1.4782 C   0  0  0  0  0  0  0  0  0  0  0  0
    0.1006   -0.3507    2.4439 O   0  0  0  0  0  0  0  0  0  0  0  0
    2.1317    0.1602    1.6183 N   0  0  0  0  0  0  0  0  0  0  0  0
    2.6499    0.3772    0.7792 H   0  0  0  0  0  0  0  0  0  0  0  0
    2.8163    0.2816    2.9041 C   0  0  0  0  0  0  0  0  0  0  0  0
    2.6090   -0.5979    3.5178 H   0  0  0  0  0  0  0  0  0  0  0  0
    3.8928    0.3676    2.7515 H   0  0  0  0  0  0  0  0  0  0  0  0
    2.4542    1.1667    3.4300 H   0  0  0  0  0  0  0  0  0  0  0  0
  5  6  2  0  0  0  0
  5  7  1  0  0  0  0
  2  3  1  0  0  0  0
  2  4  1  0  0  0  0
  2  5  1  0  0  0  0
  1  2  1  0  0  0  0
 16 17  2  0  0  0  0
 16 18  1  0  0  0  0
 14 15  1  0  0  0  0
 11 12  1  0  0  0  0
 11 13  1  0  0  0  0
 11 14  1  0  0  0  0
  9 10  1  0  0  0  0
  9 11  1  0  0  0  0
  9 16  1  0  0  0  0
  7  8  1  0  0  0  0
  7  9  1  0  0  0  0
 20 21  1  0  0  0  0
 20 22  1  0  0  0  0
 20 23  1  0  0  0  0
 18 19  1  0  0  0  0
 18 20  1  0  0  0  0
M  END
$$$$
default_name
  -OEChem-01062215323D

 23 22  0     1  0  0  0  0  0999 V2000
   -2.6857   -3.6684    0.8743 H   0  0  0  0  0  0  0  0  0  0  0  0
   -2.6617   -2.6474    0.4953 C   0  0  0  0  0  0  0  0  0  0  0  0
   -3.2657   -2.0054    1.1353 H   0  0  0  0  0  0  0  0  0  0  0  0
   -3.0477   -2.6254   -0.5217 H   0  0  0  0  0  0  0  0  0  0  0  0
   -1.2337   -2.1564    0.4993 C   0  0  0  0  0  0  0  0  0  0  0  0
   -0.3327   -2.8864    0.8893 O   0  0  0  0  0  0  0  0  0  0  0  0
   -1.0277   -0.9164    0.0623 N   0  0  0  0  0  0  0  0  0  0  0  0
   -1.8237   -0.3604   -0.2157 H   0  0  0  0  0  0  0  0  0  0  0  0
    0.2713   -0.2414    0.0463 C   0  0  1  0  0  0  0  0  0  0  0  0
    0.8810   -0.6720   -0.7506 H   0  0  0  0  0  0  0  0  0  0  0  0
    0.0444    1.2470   -0.2656 C   0  0  0  0  0  0  0  0  0  0  0  0
   -0.6708    1.6532    0.4532 H   0  0  0  0  0  0  0  0  0  0  0  0
    0.9877    1.7877   -0.1664 H   0  0  0  0  0  0  0  0  0  0  0  0
   -0.6236    1.4731   -1.9401 S   0  0  0  0  0  0  0  0  0  0  0  0
   -0.8168    2.7953   -1.8640 H   0  0  0  0  0  0  0  0  0  0  0  0
    1.0042   -0.4695    1.3842 C   0  0  0  0  0  0  0  0  0  0  0  0
    0.4759   -1.1477    2.2658 O   0  0  0  0  0  0  0  0  0  0  0  0
    2.2131    0.0837    1.5353 N   0  0  0  0  0  0  0  0  0  0  0  0
    2.5473    0.6774    0.7900 H   0  0  0  0  0  0  0  0  0  0  0  0
    3.0356   -0.0463    2.7367 C   0  0  0  0  0  0  0  0  0  0  0  0
    3.1086   -1.0980    3.0227 H   0  0  0  0  0  0  0  0  0  0  0  0
    4.0364    0.3463    2.5530 H   0  0  0  0  0  0  0  0  0  0  0  0
    2.5756    0.5068    3.5574 H   0  0  0  0  0  0  0  0  0  0  0  0
  5  6  2  0  0  0  0
  5  7  1  0  0  0  0
  2  3  1  0  0  0  0
  2  4  1  0  0  0  0
  2  5  1  0  0  0  0
  1  2  1  0  0  0  0
 16 17  2  0  0  0  0
 16 18  1  0  0  0  0
 14 15  1  0  0  0  0
 11 12  1  0  0  0  0
 11 13  1  0  0  0  0
 11 14  1  0  0  0  0
  9 10  1  0  0  0  0
  9 11  1  0  0  0  0
  9 16  1  0  0  0  0
  7  8  1  0  0  0  0
  7  9  1  0  0  0  0
 20 21  1  0  0  0  0
 20 22  1  0  0  0  0
 20 23  1  0  0  0  0
 18 19  1  0  0  0  0
 18 20  1  0  0  0  0
M  END
$$$$
default_name
  -OEChem-01062215323D

 23 22  0     1  0  0  0  0  0999 V2000
   -2.6857   -3.6684    0.8743 H   0  0  0  0  0  0  0  0  0  0  0  0
   -2.6617   -2.6474    0.4953 C   0  0  0  0  0  0  0  0  0  0  0  0
   -3.2657   -2.0054    1.1353 H   0  0  0  0  0  0  0  0  0  0  0  0
   -3.0477   -2.6254   -0.5217 H   0  0  0  0  0  0  0  0  0  0  0  0
   -1.2337   -2.1564    0.4993 C   0  0  0  0  0  0  0  0  0  0  0  0
   -0.3327   -2.8864    0.8893 O   0  0  0  0  0  0  0  0  0  0  0  0
   -1.0277   -0.9164    0.0623 N   0  0  0  0  0  0  0  0  0  0  0  0
   -1.8237   -0.3604   -0.2157 H   0  0  0  0  0  0  0  0  0  0  0  0
    0.2713   -0.2414    0.0463 C   0  0  1  0  0  0  0  0  0  0  0  0
    0.8810   -0.6720   -0.7506 H   0  0  0  0  0  0  0  0  0  0  0  0
    0.0444    1.2470   -0.2656 C   0  0  0  0  0  0  0  0  0  0  0  0
   -0.6708    1.6532    0.4532 H   0  0  0  0  0  0  0  0  0  0  0  0
    0.9877    1.7877   -0.1664 H   0  0  0  0  0  0  0  0  0  0  0  0
   -0.6236    1.4731   -1.9401 S   0  0  0  0  0  0  0  0  0  0  0  0
   -0.8168    2.7953   -1.8640 H   0  0  0  0  0  0  0  0  0  0  0  0
    1.0042   -0.4695    1.3842 C   0  0  0  0  0  0  0  0  0  0  0  0
    0.6224   -1.3547    2.1503 O   0  0  0  0  0  0  0  0  0  0  0  0
    2.0521    0.3145    1.6628 N   0  0  0  0  0  0  0  0  0  0  0  0
    2.2608    1.0575    1.0118 H   0  0  0  0  0  0  0  0  0  0  0  0
    2.8532    0.2185    2.8818 C   0  0  0  0  0  0  0  0  0  0  0  0
    3.1560   -0.8184    3.0444 H   0  0  0  0  0  0  0  0  0  0  0  0
    3.7430    0.8437    2.7985 H   0  0  0  0  0  0  0  0  0  0  0  0
    2.2600    0.5465    3.7370 H   0  0  0  0  0  0  0  0  0  0  0  0
  5  6  2  0  0  0  0
  5  7  1  0  0  0  0
  2  3  1  0  0  0  0
  2  4  1  0  0  0  0
  2  5  1  0  0  0  0
  1  2  1  0  0  0  0
 16 17  2  0  0  0  0
 16 18  1  0  0  0  0
 14 15  1  0  0  0  0
 11 12  1  0  0  0  0
 11 13  1  0  0  0  0
 11 14  1  0  0  0  0
  9 10  1  0  0  0  0
  9 11  1  0  0  0  0
  9 16  1  0  0  0  0
  7  8  1  0  0  0  0
  7  9  1  0  0  0  0
 20 21  1  0  0  0  0
 20 22  1  0  0  0  0
 20 23  1  0  0  0  0
 18 19  1  0  0  0  0
 18 20  1  0  0  0  0
M  END
$$$$
default_name
  -OEChem-01062215323D

 23 22  0     1  0  0  0  0  0999 V2000
   -2.6857   -3.6684    0.8743 H   0  0  0  0  0  0  0  0  0  0  0  0
   -2.6617   -2.6474    0.4953 C   0  0  0  0  0  0  0  0  0  0  0  0
   -3.2657   -2.0054    1.1353 H   0  0  0  0  0  0  0  0  0  0  0  0
   -3.0477   -2.6254   -0.5217 H   0  0  0  0  0  0  0  0  0  0  0  0
   -1.2337   -2.1564    0.4993 C   0  0  0  0  0  0  0  0  0  0  0  0
   -0.3327   -2.8864    0.8893 O   0  0  0  0  0  0  0  0  0  0  0  0
   -1.0277   -0.9164    0.0623 N   0  0  0  0  0  0  0  0  0  0  0  0
   -1.8237   -0.3604   -0.2157 H   0  0  0  0  0  0  0  0  0  0  0  0
    0.2713   -0.2414    0.0463 C   0  0  1  0  0  0  0  0  0  0  0  0
    0.8810   -0.6720   -0.7506 H   0  0  0  0  0  0  0  0  0  0  0  0
    0.0444    1.2470   -0.2656 C   0  0  0  0  0  0  0  0  0  0  0  0
   -0.6708    1.6532    0.4532 H   0  0  0  0  0  0  0  0  0  0  0  0
    0.9877    1.7877   -0.1664 H   0  0  0  0  0  0  0  0  0  0  0  0
   -0.6236    1.4731   -1.9401 S   0  0  0  0  0  0  0  0  0  0  0  0
   -0.8168    2.7953   -1.8640 H   0  0  0  0  0  0  0  0  0  0  0  0
    1.0042   -0.4695    1.3842 C   0  0  0  0  0  0  0  0  0  0  0  0
    0.8147   -1.5076    2.0188 O   0  0  0  0  0  0  0  0  0  0  0  0
    1.8398    0.4856    1.8083 N   0  0  0  0  0  0  0  0  0  0  0  0
    1.8902    1.3332    1.2617 H   0  0  0  0  0  0  0  0  0  0  0  0
    2.6121    0.4155    3.0475 C   0  0  0  0  0  0  0  0  0  0  0  0
    3.1382   -0.5402    3.1016 H   0  0  0  0  0  0  0  0  0  0  0  0
    3.3385    1.2281    3.0856 H   0  0  0  0  0  0  0  0  0  0  0  0
    1.9393    0.4920    3.9034 H   0  0  0  0  0  0  0  0  0  0  0  0
  5  6  2  0  0  0  0
  5  7  1  0  0  0  0
  2  3  1  0  0  0  0
  2  4  1  0  0  0  0
  2  5  1  0  0  0  0
  1  2  1  0  0  0  0
 16 17  2  0  0  0  0
 16 18  1  0  0  0  0
 14 15  1  0  0  0  0
 11 12  1  0  0  0  0
 11 13  1  0  0  0  0
 11 14  1  0  0  0  0
  9 10  1  0  0  0  0
  9 11  1  0  0  0  0
  9 16  1  0  0  0  0
  7  8  1  0  0  0  0
  7  9  1  0  0  0  0
 20 21  1  0  0  0  0
 20 22  1  0  0  0  0
 20 23  1  0  0  0  0
 18 19  1  0  0  0  0
 18 20  1  0  0  0  0
M  END
$$$$
default_name
  -OEChem-01062215323D

 23 22  0     1  0  0  0  0  0999 V2000
   -2.6857   -3.6684    0.8743 H   0  0  0  0  0  0  0  0  0  0  0  0
   -2.6617   -2.6474    0.4953 C   0  0  0  0  0  0  0  0  0  0  0  0
   -3.2657   -2.0054    1.1353 H   0  0  0  0  0  0  0  0  0  0  0  0
   -3.0477   -2.6254   -0.5217 H   0  0  0  0  0  0  0  0  0  0  0  0
   -1.2337   -2.1564    0.4993 C   0  0  0  0  0  0  0  0  0  0  0  0
   -0.3327   -2.8864    0.8893 O   0  0  0  0  0  0  0  0  0  0  0  0
   -1.0277   -0.9164    0.0623 N   0  0  0  0  0  0  0  0  0  0  0  0
   -1.8237   -0.3604   -0.2157 H   0  0  0  0  0  0  0  0  0  0  0  0
    0.2713   -0.2414    0.0463 C   0  0  1  0  0  0  0  0  0  0  0  0
    0.8810   -0.6720   -0.7506 H   0  0  0  0  0  0  0  0  0  0  0  0
    0.0444    1.2470   -0.2656 C   0  0  0  0  0  0  0  0  0  0  0  0
   -0.6708    1.6532    0.4532 H   0  0  0  0  0  0  0  0  0  0  0  0
    0.9877    1.7877   -0.1664 H   0  0  0  0  0  0  0  0  0  0  0  0
   -0.6236    1.4731   -1.9401 S   0  0  0  0  0  0  0  0  0  0  0  0
   -0.8168    2.7953   -1.8640 H   0  0  0  0  0  0  0  0  0  0  0  0
    1.0042   -0.4695    1.3842 C   0  0  0  0  0  0  0  0  0  0  0  0
    1.0399   -1.5959    1.8805 O   0  0  0  0  0  0  0  0  0  0  0  0
    1.5908    0.5853    1.9617 N   0  0  0  0  0  0  0  0  0  0  0  0
    1.4608    1.4854    1.5229 H   0  0  0  0  0  0  0  0  0  0  0  0
    2.3285    0.5313    3.2225 C   0  0  0  0  0  0  0  0  0  0  0  0
    3.0563   -0.2826    3.1904 H   0  0  0  0  0  0  0  0  0  0  0  0
    2.8505    1.4733    3.3947 H   0  0  0  0  0  0  0  0  0  0  0  0
    1.6355    0.3468    4.0451 H   0  0  0  0  0  0  0  0  0  0  0  0
  5  6  2  0  0  0  0
  5  7  1  0  0  0  0
  2  3  1  0  0  0  0
  2  4  1  0  0  0  0
  2  5  1  0  0  0  0
  1  2  1  0  0  0  0
 16 17  2  0  0  0  0
 16 18  1  0  0  0  0
 14 15  1  0  0  0  0
 11 12  1  0  0  0  0
 11 13  1  0  0  0  0
 11 14  1  0  0  0  0
  9 10  1  0  0  0  0
  9 11  1  0  0  0  0
  9 16  1  0  0  0  0
  7  8  1  0  0  0  0
  7  9  1  0  0  0  0
 20 21  1  0  0  0  0
 20 22  1  0  0  0  0
 20 23  1  0  0  0  0
 18 19  1  0  0  0  0
 18 20  1  0  0  0  0
M  END
$$$$
default_name
  -OEChem-01062215323D

 23 22  0     1  0  0  0  0  0999 V2000
   -2.6857   -3.6684    0.8743 H   0  0  0  0  0  0  0  0  0  0  0  0
   -2.6617   -2.6474    0.4953 C   0  0  0  0  0  0  0  0  0  0  0  0
   -3.2657   -2.0054    1.1353 H   0  0  0  0  0  0  0  0  0  0  0  0
   -3.0477   -2.6254   -0.5217 H   0  0  0  0  0  0  0  0  0  0  0  0
   -1.2337   -2.1564    0.4993 C   0  0  0  0  0  0  0  0  0  0  0  0
   -0.3327   -2.8864    0.8893 O   0  0  0  0  0  0  0  0  0  0  0  0
   -1.0277   -0.9164    0.0623 N   0  0  0  0  0  0  0  0  0  0  0  0
   -1.8237   -0.3604   -0.2157 H   0  0  0  0  0  0  0  0  0  0  0  0
    0.2713   -0.2414    0.0463 C   0  0  1  0  0  0  0  0  0  0  0  0
    0.8810   -0.6720   -0.7506 H   0  0  0  0  0  0  0  0  0  0  0  0
    0.0444    1.2470   -0.2656 C   0  0  0  0  0  0  0  0  0  0  0  0
   -0.6708    1.6532    0.4532 H   0  0  0  0  0  0  0  0  0  0  0  0
    0.9877    1.7877   -0.1664 H   0  0  0  0  0  0  0  0  0  0  0  0
   -0.6236    1.4731   -1.9401 S   0  0  0  0  0  0  0  0  0  0  0  0
   -0.8168    2.7953   -1.8640 H   0  0  0  0  0  0  0  0  0  0  0  0
    1.0042   -0.4695    1.3842 C   0  0  0  0  0  0  0  0  0  0  0  0
    1.2825   -1.6137    1.7445 O   0  0  0  0  0  0  0  0  0  0  0  0
    1.3220    0.6069    2.1126 N   0  0  0  0  0  0  0  0  0  0  0  0
    1.0018    1.5040    1.7775 H   0  0  0  0  0  0  0  0  0  0  0  0
    2.0220    0.5580    3.3950 C   0  0  0  0  0  0  0  0  0  0  0  0
    2.9160   -0.0631    3.3046 H   0  0  0  0  0  0  0  0  0  0  0  0
    2.3123    1.5626    3.7048 H   0  0  0  0  0  0  0  0  0  0  0  0
    1.3692    0.1209    4.1525 H   0  0  0  0  0  0  0  0  0  0  0  0
  5  6  2  0  0  0  0
  5  7  1  0  0  0  0
  2  3  1  0  0  0  0
  2  4  1  0  0  0  0
  2  5  1  0  0  0  0
  1  2  1  0  0  0  0
 16 17  2  0  0  0  0
 16 18  1  0  0  0  0
 14 15  1  0  0  0  0
 11 12  1  0  0  0  0
 11 13  1  0  0  0  0
 11 14  1  0  0  0  0
  9 10  1  0  0  0  0
  9 11  1  0  0  0  0
  9 16  1  0  0  0  0
  7  8  1  0  0  0  0
  7  9  1  0  0  0  0
 20 21  1  0  0  0  0
 20 22  1  0  0  0  0
 20 23  1  0  0  0  0
 18 19  1  0  0  0  0
 18 20  1  0  0  0  0
M  END
$$$$
default_name
  -OEChem-01062215323D

 23 22  0     1  0  0  0  0  0999 V2000
   -2.6857   -3.6684    0.8743 H   0  0  0  0  0  0  0  0  0  0  0  0
   -2.6617   -2.6474    0.4953 C   0  0  0  0  0  0  0  0  0  0  0  0
   -3.2657   -2.0054    1.1353 H   0  0  0  0  0  0  0  0  0  0  0  0
   -3.0477   -2.6254   -0.5217 H   0  0  0  0  0  0  0  0  0  0  0  0
   -1.2337   -2.1564    0.4993 C   0  0  0  0  0  0  0  0  0  0  0  0
   -0.3327   -2.8864    0.8893 O   0  0  0  0  0  0  0  0  0  0  0  0
   -1.0277   -0.9164    0.0623 N   0  0  0  0  0  0  0  0  0  0  0  0
   -1.8237   -0.3604   -0.2157 H   0  0  0  0  0  0  0  0  0  0  0  0
    0.2713   -0.2414    0.0463 C   0  0  1  0  0  0  0  0  0  0  0  0
    0.8810   -0.6720   -0.7506 H   0  0  0  0  0  0  0  0  0  0  0  0
    0.0444    1.2470   -0.2656 C   0  0  0  0  0  0  0  0  0  0  0  0
   -0.6708    1.6532    0.4532 H   0  0  0  0  0  0  0  0  0  0  0  0
    0.9877    1.7877   -0.1664 H   0  0  0  0  0  0  0  0  0  0  0  0
   -0.6236    1.4731   -1.9401 S   0  0  0  0  0  0  0  0  0  0  0  0
   -0.8168    2.7953   -1.8640 H   0  0  0  0  0  0  0  0  0  0  0  0
    1.0042   -0.4695    1.3842 C   0  0  0  0  0  0  0  0  0  0  0  0
    1.5260   -1.5596    1.6203 O   0  0  0  0  0  0  0  0  0  0  0  0
    1.0517    0.5489    2.2508 N   0  0  0  0  0  0  0  0  0  0  0  0
    0.5446    1.3876    2.0081 H   0  0  0  0  0  0  0  0  0  0  0  0
    1.7133    0.4937    3.5531 C   0  0  0  0  0  0  0  0  0  0  0  0
    2.7269    0.1034    3.4366 H   0  0  0  0  0  0  0  0  0  0  0  0
    1.7605    1.4899    3.9946 H   0  0  0  0  0  0  0  0  0  0  0  0
    1.1585   -0.1702    4.2182 H   0  0  0  0  0  0  0  0  0  0  0  0
  5  6  2  0  0  0  0
  5  7  1  0  0  0  0
  2  3  1  0  0  0  0
  2  4  1  0  0  0  0
  2  5  1  0  0  0  0
  1  2  1  0  0  0  0
 16 17  2  0  0  0  0
 16 18  1  0  0  0  0
 14 15  1  0  0  0  0
 11 12  1  0  0  0  0
 11 13  1  0  0  0  0
 11 14  1  0  0  0  0
  9 10  1  0  0  0  0
  9 11  1  0  0  0  0
  9 16  1  0  0  0  0
  7  8  1  0  0  0  0
  7  9  1  0  0  0  0
 20 21  1  0  0  0  0
 20 22  1  0  0  0  0
 20 23  1  0  0  0  0
 18 19  1  0  0  0  0
 18 20  1  0  0  0  0
M  END
$$$$
default_name
  -OEChem-01062215323D

 23 22  0     1  0  0  0  0  0999 V2000
   -2.6857   -3.6684    0.8743 H   0  0  0  0  0  0  0  0  0  0  0  0
   -2.6617   -2.6474    0.4953 C   0  0  0  0  0  0  0  0  0  0  0  0
   -3.2657   -2.0054    1.1353 H   0  0  0  0  0  0  0  0  0  0  0  0
   -3.0477   -2.6254   -0.5217 H   0  0  0  0  0  0  0  0  0  0  0  0
   -1.2337   -2.1564    0.4993 C   0  0  0  0  0  0  0  0  0  0  0  0
   -0.3327   -2.8864    0.8893 O   0  0  0  0  0  0  0  0  0  0  0  0
   -1.0277   -0.9164    0.0623 N   0  0  0  0  0  0  0  0  0  0  0  0
   -1.8237   -0.3604   -0.2157 H   0  0  0  0  0  0  0  0  0  0  0  0
    0.2713   -0.2414    0.0463 C   0  0  1  0  0  0  0  0  0  0  0  0
    0.8810   -0.6720   -0.7506 H   0  0  0  0  0  0  0  0  0  0  0  0
    0.0444    1.2470   -0.2656 C   0  0  0  0  0  0  0  0  0  0  0  0
   -0.6708    1.6532    0.4532 H   0  0  0  0  0  0  0  0  0  0  0  0
    0.9877    1.7877   -0.1664 H   0  0  0  0  0  0  0  0  0  0  0  0
   -0.6236    1.4731   -1.9401 S   0  0  0  0  0  0  0  0  0  0  0  0
   -0.8168    2.7953   -1.8640 H   0  0  0  0  0  0  0  0  0  0  0  0
    1.0042   -0.4695    1.3842 C   0  0  0  0  0  0  0  0  0  0  0  0
    1.7539   -1.4374    1.5164 O   0  0  0  0  0  0  0  0  0  0  0  0
    0.7984    0.4151    2.3667 N   0  0  0  0  0  0  0  0  0  0  0  0
    0.1202    1.1442    2.1991 H   0  0  0  0  0  0  0  0  0  0  0  0
    1.4235    0.3429    3.6862 C   0  0  0  0  0  0  0  0  0  0  0  0
    2.5017    0.2056    3.5774 H   0  0  0  0  0  0  0  0  0  0  0  0
    1.2327    1.2601    4.2446 H   0  0  0  0  0  0  0  0  0  0  0  0
    1.0179   -0.5068    4.2379 H   0  0  0  0  0  0  0  0  0  0  0  0
  5  6  2  0  0  0  0
  5  7  1  0  0  0  0
  2  3  1  0  0  0  0
  2  4  1  0  0  0  0
  2  5  1  0  0  0  0
  1  2  1  0  0  0  0
 16 17  2  0  0  0  0
 16 18  1  0  0  0  0
 14 15  1  0  0  0  0
 11 12  1  0  0  0  0
 11 13  1  0  0  0  0
 11 14  1  0  0  0  0
  9 10  1  0  0  0  0
  9 11  1  0  0  0  0
  9 16  1  0  0  0  0
  7  8  1  0  0  0  0
  7  9  1  0  0  0  0
 20 21  1  0  0  0  0
 20 22  1  0  0  0  0
 20 23  1  0  0  0  0
 18 19  1  0  0  0  0
 18 20  1  0  0  0  0
M  END
$$$$
default_name
  -OEChem-01062215323D

 23 22  0     1  0  0  0  0  0999 V2000
   -2.6857   -3.6684    0.8743 H   0  0  0  0  0  0  0  0  0  0  0  0
   -2.6617   -2.6474    0.4953 C   0  0  0  0  0  0  0  0  0  0  0  0
   -3.2657   -2.0054    1.1353 H   0  0  0  0  0  0  0  0  0  0  0  0
   -3.0477   -2.6254   -0.5217 H   0  0  0  0  0  0  0  0  0  0  0  0
   -1.2337   -2.1564    0.4993 C   0  0  0  0  0  0  0  0  0  0  0  0
   -0.3327   -2.8864    0.8893 O   0  0  0  0  0  0  0  0  0  0  0  0
   -1.0277   -0.9164    0.0623 N   0  0  0  0  0  0  0  0  0  0  0  0
   -1.8237   -0.3604   -0.2157 H   0  0  0  0  0  0  0  0  0  0  0  0
    0.2713   -0.2414    0.0463 C   0  0  1  0  0  0  0  0  0  0  0  0
    0.8810   -0.6720   -0.7506 H   0  0  0  0  0  0  0  0  0  0  0  0
    0.0444    1.2470   -0.2656 C   0  0  0  0  0  0  0  0  0  0  0  0
   -0.6708    1.6532    0.4532 H   0  0  0  0  0  0  0  0  0  0  0  0
    0.9877    1.7877   -0.1664 H   0  0  0  0  0  0  0  0  0  0  0  0
   -0.6236    1.4731   -1.9401 S   0  0  0  0  0  0  0  0  0  0  0  0
   -0.8168    2.7953   -1.8640 H   0  0  0  0  0  0  0  0  0  0  0  0
    1.0042   -0.4695    1.3842 C   0  0  0  0  0  0  0  0  0  0  0  0
    1.9505   -1.2555    1.4397 O   0  0  0  0  0  0  0  0  0  0  0  0
    0.5793    0.2148    2.4526 N   0  0  0  0  0  0  0  0  0  0  0  0
   -0.2423    0.7903    2.3374 H   0  0  0  0  0  0  0  0  0  0  0  0
    1.1723    0.1158    3.7850 C   0  0  0  0  0  0  0  0  0  0  0  0
    2.2559    0.2364    3.7173 H   0  0  0  0  0  0  0  0  0  0  0  0
    0.7650    0.8890    4.4375 H   0  0  0  0  0  0  0  0  0  0  0  0
    0.9569   -0.8660    4.2101 H   0  0  0  0  0  0  0  0  0  0  0  0
  5  6  2  0  0  0  0
  5  7  1  0  0  0  0
  2  3  1  0  0  0  0
  2  4  1  0  0  0  0
  2  5  1  0  0  0  0
  1  2  1  0  0  0  0
 16 17  2  0  0  0  0
 16 18  1  0  0  0  0
 14 15  1  0  0  0  0
 11 12  1  0  0  0  0
 11 13  1  0  0  0  0
 11 14  1  0  0  0  0
  9 10  1  0  0  0  0
  9 11  1  0  0  0  0
  9 16  1  0  0  0  0
  7  8  1  0  0  0  0
  7  9  1  0  0  0  0
 20 21  1  0  0  0  0
 20 22  1  0  0  0  0
 20 23  1  0  0  0  0
 18 19  1  0  0  0  0
 18 20  1  0  0  0  0
M  END
$$$$
default_name
  -OEChem-01062215323D

 23 22  0     1  0  0  0  0  0999 V2000
   -2.6857   -3.6684    0.8743 H   0  0  0  0  0  0  0  0  0  0  0  0
   -2.6617   -2.6474    0.4953 C   0  0  0  0  0  0  0  0  0  0  0  0
   -3.2657   -2.0054    1.1353 H   0  0  0  0  0  0  0  0  0  0  0  0
   -3.0477   -2.6254   -0.5217 H   0  0  0  0  0  0  0  0  0  0  0  0
   -1.2337   -2.1564    0.4993 C   0  0  0  0  0  0  0  0  0  0  0  0
   -0.3327   -2.8864    0.8893 O   0  0  0  0  0  0  0  0  0  0  0  0
   -1.0277   -0.9164    0.0623 N   0  0  0  0  0  0  0  0  0  0  0  0
   -1.8237   -0.3604   -0.2157 H   0  0  0  0  0  0  0  0  0  0  0  0
    0.2713   -0.2414    0.0463 C   0  0  1  0  0  0  0  0  0  0  0  0
    0.8810   -0.6720   -0.7506 H   0  0  0  0  0  0  0  0  0  0  0  0
    0.0444    1.2470   -0.2656 C   0  0  0  0  0  0  0  0  0  0  0  0
   -0.6708    1.6532    0.4532 H   0  0  0  0  0  0  0  0  0  0  0  0
    0.9877    1.7877   -0.1664 H   0  0  0  0  0  0  0  0  0  0  0  0
   -0.6236    1.4731   -1.9401 S   0  0  0  0  0  0  0  0  0  0  0  0
   -0.8168    2.7953   -1.8640 H   0  0  0  0  0  0  0  0  0  0  0  0
    1.0042   -0.4695    1.3842 C   0  0  0  0  0  0  0  0  0  0  0  0
    2.1026   -1.0262    1.3955 O   0  0  0  0  0  0  0  0  0  0  0  0
    0.4094   -0.0385    2.5025 N   0  0  0  0  0  0  0  0  0  0  0  0
   -0.5184    0.3500    2.4135 H   0  0  0  0  0  0  0  0  0  0  0  0
    0.9769   -0.1721    3.8430 C   0  0  0  0  0  0  0  0  0  0  0  0
    2.0062    0.1937    3.8468 H   0  0  0  0  0  0  0  0  0  0  0  0
    0.3891    0.4017    4.5604 H   0  0  0  0  0  0  0  0  0  0  0  0
    0.9796   -1.2231    4.1368 H   0  0  0  0  0  0  0  0  0  0  0  0
  5  6  2  0  0  0  0
  5  7  1  0  0  0  0
  2  3  1  0  0  0  0
  2  4  1  0  0  0  0
  2  5  1  0  0  0  0
  1  2  1  0  0  0  0
 16 17  2  0  0  0  0
 16 18  1  0  0  0  0
 14 15  1  0  0  0  0
 11 12  1  0  0  0  0
 11 13  1  0  0  0  0
 11 14  1  0  0  0  0
  9 10  1  0  0  0  0
  9 11  1  0  0  0  0
  9 16  1  0  0  0  0
  7  8  1  0  0  0  0
  7  9  1  0  0  0  0
 20 21  1  0  0  0  0
 20 22  1  0  0  0  0
 20 23  1  0  0  0  0
 18 19  1  0  0  0  0
 18 20  1  0  0  0  0
M  END
$$$$
default_name
  -OEChem-01062215323D

 23 22  0     1  0  0  0  0  0999 V2000
   -2.6857   -3.6684    0.8743 H   0  0  0  0  0  0  0  0  0  0  0  0
   -2.6617   -2.6474    0.4953 C   0  0  0  0  0  0  0  0  0  0  0  0
   -3.2657   -2.0054    1.1353 H   0  0  0  0  0  0  0  0  0  0  0  0
   -3.0477   -2.6254   -0.5217 H   0  0  0  0  0  0  0  0  0  0  0  0
   -1.2337   -2.1564    0.4993 C   0  0  0  0  0  0  0  0  0  0  0  0
   -0.3327   -2.8864    0.8893 O   0  0  0  0  0  0  0  0  0  0  0  0
   -1.0277   -0.9164    0.0623 N   0  0  0  0  0  0  0  0  0  0  0  0
   -1.8237   -0.3604   -0.2157 H   0  0  0  0  0  0  0  0  0  0  0  0
    0.2713   -0.2414    0.0463 C   0  0  1  0  0  0  0  0  0  0  0  0
    0.8810   -0.6720   -0.7506 H   0  0  0  0  0  0  0  0  0  0  0  0
    0.0444    1.2470   -0.2656 C   0  0  0  0  0  0  0  0  0  0  0  0
   -0.6708    1.6532    0.4532 H   0  0  0  0  0  0  0  0  0  0  0  0
    0.9877    1.7877   -0.1664 H   0  0  0  0  0  0  0  0  0  0  0  0
   -0.6236    1.4731   -1.9401 S   0  0  0  0  0  0  0  0  0  0  0  0
   -0.8168    2.7953   -1.8640 H   0  0  0  0  0  0  0  0  0  0  0  0
    1.0042   -0.4695    1.3842 C   0  0  0  0  0  0  0  0  0  0  0  0
    2.1996   -0.7651    1.3868 O   0  0  0  0  0  0  0  0  0  0  0  0
    0.3002   -0.3273    2.5131 N   0  0  0  0  0  0  0  0  0  0  0  0
   -0.6891   -0.1466    2.4224 H   0  0  0  0  0  0  0  0  0  0  0  0
    0.8506   -0.5012    3.8561 C   0  0  0  0  0  0  0  0  0  0  0  0
    1.7696    0.0806    3.9571 H   0  0  0  0  0  0  0  0  0  0  0  0
    0.1307   -0.1684    4.6047 H   0  0  0  0  0  0  0  0  0  0  0  0
    1.0846   -1.5540    4.0229 H   0  0  0  0  0  0  0  0  0  0  0  0
  5  6  2  0  0  0  0
  5  7  1  0  0  0  0
  2  3  1  0  0  0  0
  2  4  1  0  0  0  0
  2  5  1  0  0  0  0
  1  2  1  0  0  0  0
 16 17  2  0  0  0  0
 16 18  1  0  0  0  0
 14 15  1  0  0  0  0
 11 12  1  0  0  0  0
 11 13  1  0  0  0  0
 11 14  1  0  0  0  0
  9 10  1  0  0  0  0
  9 11  1  0  0  0  0
  9 16  1  0  0  0  0
  7  8  1  0  0  0  0
  7  9  1  0  0  0  0
 20 21  1  0  0  0  0
 20 22  1  0  0  0  0
 20 23  1  0  0  0  0
 18 19  1  0  0  0  0
 18 20  1  0  0  0  0
M  END
$$$$
default_name
  -OEChem-01062215323D

 23 22  0     1  0  0  0  0  0999 V2000
   -2.6857   -3.6684    0.8743 H   0  0  0  0  0  0  0  0  0  0  0  0
   -2.6617   -2.6474    0.4953 C   0  0  0  0  0  0  0  0  0  0  0  0
   -3.2657   -2.0054    1.1353 H   0  0  0  0  0  0  0  0  0  0  0  0
   -3.0477   -2.6254   -0.5217 H   0  0  0  0  0  0  0  0  0  0  0  0
   -1.2337   -2.1564    0.4993 C   0  0  0  0  0  0  0  0  0  0  0  0
   -0.3327   -2.8864    0.8893 O   0  0  0  0  0  0  0  0  0  0  0  0
   -1.0277   -0.9164    0.0623 N   0  0  0  0  0  0  0  0  0  0  0  0
   -1.8237   -0.3604   -0.2157 H   0  0  0  0  0  0  0  0  0  0  0  0
    0.2713   -0.2414    0.0463 C   0  0  1  0  0  0  0  0  0  0  0  0
    0.8810   -0.6720   -0.7506 H   0  0  0  0  0  0  0  0  0  0  0  0
    0.0444    1.2470   -0.2656 C   0  0  0  0  0  0  0  0  0  0  0  0
   -0.6708    1.6532    0.4532 H   0  0  0  0  0  0  0  0  0  0  0  0
    0.9877    1.7877   -0.1664 H   0  0  0  0  0  0  0  0  0  0  0  0
   -0.6236    1.4731   -1.9401 S   0  0  0  0  0  0  0  0  0  0  0  0
   -0.8168    2.7953   -1.8640 H   0  0  0  0  0  0  0  0  0  0  0  0
    1.0042   -0.4695    1.3842 C   0  0  0  0  0  0  0  0  0  0  0  0
    2.2351   -0.4901    1.4142 O   0  0  0  0  0  0  0  0  0  0  0  0
    0.2592   -0.6322    2.4836 N   0  0  0  0  0  0  0  0  0  0  0  0
   -0.7429   -0.6656    2.3634 H   0  0  0  0  0  0  0  0  0  0  0  0
    0.8020   -0.8490    3.8234 C   0  0  0  0  0  0  0  0  0  0  0  0
    1.5623   -0.0954    4.0407 H   0  0  0  0  0  0  0  0  0  0  0  0
    0.0074   -0.7826    4.5676 H   0  0  0  0  0  0  0  0  0  0  0  0
    1.2646   -1.8361    3.8762 H   0  0  0  0  0  0  0  0  0  0  0  0
  5  6  2  0  0  0  0
  5  7  1  0  0  0  0
  2  3  1  0  0  0  0
  2  4  1  0  0  0  0
  2  5  1  0  0  0  0
  1  2  1  0  0  0  0
 16 17  2  0  0  0  0
 16 18  1  0  0  0  0
 14 15  1  0  0  0  0
 11 12  1  0  0  0  0
 11 13  1  0  0  0  0
 11 14  1  0  0  0  0
  9 10  1  0  0  0  0
  9 11  1  0  0  0  0
  9 16  1  0  0  0  0
  7  8  1  0  0  0  0
  7  9  1  0  0  0  0
 20 21  1  0  0  0  0
 20 22  1  0  0  0  0
 20 23  1  0  0  0  0
 18 19  1  0  0  0  0
 18 20  1  0  0  0  0
M  END
$$$$
default_name
  -OEChem-01062215323D

 23 22  0     1  0  0  0  0  0999 V2000
   -2.6857   -3.6684    0.8743 H   0  0  0  0  0  0  0  0  0  0  0  0
   -2.6617   -2.6474    0.4953 C   0  0  0  0  0  0  0  0  0  0  0  0
   -3.2657   -2.0054    1.1353 H   0  0  0  0  0  0  0  0  0  0  0  0
   -3.0477   -2.6254   -0.5217 H   0  0  0  0  0  0  0  0  0  0  0  0
   -1.2337   -2.1564    0.4993 C   0  0  0  0  0  0  0  0  0  0  0  0
   -0.3327   -2.8864    0.8893 O   0  0  0  0  0  0  0  0  0  0  0  0
   -1.0277   -0.9164    0.0623 N   0  0  0  0  0  0  0  0  0  0  0  0
   -1.8237   -0.3604   -0.2157 H   0  0  0  0  0  0  0  0  0  0  0  0
    0.2713   -0.2414    0.0463 C   0  0  1  0  0  0  0  0  0  0  0  0
    0.8810   -0.6720   -0.7506 H   0  0  0  0  0  0  0  0  0  0  0  0
    0.0444    1.2470   -0.2656 C   0  0  0  0  0  0  0  0  0  0  0  0
   -0.6708    1.6532    0.4532 H   0  0  0  0  0  0  0  0  0  0  0  0
    0.9877    1.7877   -0.1664 H   0  0  0  0  0  0  0  0  0  0  0  0
   -0.6236    1.4731   -1.9401 S   0  0  0  0  0  0  0  0  0  0  0  0
   -0.8168    2.7953   -1.8640 H   0  0  0  0  0  0  0  0  0  0  0  0
    1.0042   -0.4695    1.3842 C   0  0  0  0  0  0  0  0  0  0  0  0
    2.2066   -0.2199    1.4759 O   0  0  0  0  0  0  0  0  0  0  0  0
    0.2891   -0.9323    2.4160 N   0  0  0  0  0  0  0  0  0  0  0  0
   -0.6760   -1.1718    2.2404 H   0  0  0  0  0  0  0  0  0  0  0  0
    0.8343   -1.1920    3.7473 C   0  0  0  0  0  0  0  0  0  0  0  0
    1.3983   -0.3222    4.0918 H   0  0  0  0  0  0  0  0  0  0  0  0
    0.0276   -1.3990    4.4514 H   0  0  0  0  0  0  0  0  0  0  0  0
    1.5074   -2.0500    3.7067 H   0  0  0  0  0  0  0  0  0  0  0  0
  5  6  2  0  0  0  0
  5  7  1  0  0  0  0
  2  3  1  0  0  0  0
  2  4  1  0  0  0  0
  2  5  1  0  0  0  0
  1  2  1  0  0  0  0
 16 17  2  0  0  0  0
 16 18  1  0  0  0  0
 14 15  1  0  0  0  0
 11 12  1  0  0  0  0
 11 13  1  0  0  0  0
 11 14  1  0  0  0  0
  9 10  1  0  0  0  0
  9 11  1  0  0  0  0
  9 16  1  0  0  0  0
  7  8  1  0  0  0  0
  7  9  1  0  0  0  0
 20 21  1  0  0  0  0
 20 22  1  0  0  0  0
 20 23  1  0  0  0  0
 18 19  1  0  0  0  0
 18 20  1  0  0  0  0
M  END
$$$$
default_name
  -OEChem-01062215323D

 23 22  0     1  0  0  0  0  0999 V2000
   -2.6857   -3.6684    0.8743 H   0  0  0  0  0  0  0  0  0  0  0  0
   -2.6617   -2.6474    0.4953 C   0  0  0  0  0  0  0  0  0  0  0  0
   -3.2657   -2.0054    1.1353 H   0  0  0  0  0  0  0  0  0  0  0  0
   -3.0477   -2.6254   -0.5217 H   0  0  0  0  0  0  0  0  0  0  0  0
   -1.2337   -2.1564    0.4993 C   0  0  0  0  0  0  0  0  0  0  0  0
   -0.3327   -2.8864    0.8893 O   0  0  0  0  0  0  0  0  0  0  0  0
   -1.0277   -0.9164    0.0623 N   0  0  0  0  0  0  0  0  0  0  0  0
   -1.8237   -0.3604   -0.2157 H   0  0  0  0  0  0  0  0  0  0  0  0
    0.2713   -0.2414    0.0463 C   0  0  1  0  0  0  0  0  0  0  0  0
    0.8810   -0.6720   -0.7506 H   0  0  0  0  0  0  0  0  0  0  0  0
    0.0444    1.2470   -0.2656 C   0  0  0  0  0  0  0  0  0  0  0  0
   -0.6708    1.6532    0.4532 H   0  0  0  0  0  0  0  0  0  0  0  0
    0.9877    1.7877   -0.1664 H   0  0  0  0  0  0  0  0  0  0  0  0
   -0.6236    1.4731   -1.9401 S   0  0  0  0  0  0  0  0  0  0  0  0
   -0.8168    2.7953   -1.8640 H   0  0  0  0  0  0  0  0  0  0  0  0
    1.0042   -0.4695    1.3842 C   0  0  0  0  0  0  0  0  0  0  0  0
    2.1160    0.0272    1.5677 O   0  0  0  0  0  0  0  0  0  0  0  0
    0.3880   -1.2071    2.3150 N   0  0  0  0  0  0  0  0  0  0  0  0
   -0.4931   -1.6306    2.0620 H   0  0  0  0  0  0  0  0  0  0  0  0
    0.9455   -1.5065    3.6327 C   0  0  0  0  0  0  0  0  0  0  0  0
    1.2889   -0.5844    4.1071 H   0  0  0  0  0  0  0  0  0  0  0  0
    0.1900   -1.9755    4.2642 H   0  0  0  0  0  0  0  0  0  0  0  0
    1.7965   -2.1814    3.5259 H   0  0  0  0  0  0  0  0  0  0  0  0
  5  6  2  0  0  0  0
  5  7  1  0  0  0  0
  2  3  1  0  0  0  0
  2  4  1  0  0  0  0
  2  5  1  0  0  0  0
  1  2  1  0  0  0  0
 16 17  2  0  0  0  0
 16 18  1  0  0  0  0
 14 15  1  0  0  0  0
 11 12  1  0  0  0  0
 11 13  1  0  0  0  0
 11 14  1  0  0  0  0
  9 10  1  0  0  0  0
  9 11  1  0  0  0  0
  9 16  1  0  0  0  0
  7  8  1  0  0  0  0
  7  9  1  0  0  0  0
 20 21  1  0  0  0  0
 20 22  1  0  0  0  0
 20 23  1  0  0  0  0
 18 19  1  0  0  0  0
 18 20  1  0  0  0  0
M  END
$$$$
default_name
  -OEChem-01062215323D

 23 22  0     1  0  0  0  0  0999 V2000
   -2.6857   -3.6684    0.8743 H   0  0  0  0  0  0  0  0  0  0  0  0
   -2.6617   -2.6474    0.4953 C   0  0  0  0  0  0  0  0  0  0  0  0
   -3.2657   -2.0054    1.1353 H   0  0  0  0  0  0  0  0  0  0  0  0
   -3.0477   -2.6254   -0.5217 H   0  0  0  0  0  0  0  0  0  0  0  0
   -1.2337   -2.1564    0.4993 C   0  0  0  0  0  0  0  0  0  0  0  0
   -0.3327   -2.8864    0.8893 O   0  0  0  0  0  0  0  0  0  0  0  0
   -1.0277   -0.9164    0.0623 N   0  0  0  0  0  0  0  0  0  0  0  0
   -1.8237   -0.3604   -0.2157 H   0  0  0  0  0  0  0  0  0  0  0  0
    0.2713   -0.2414    0.0463 C   0  0  1  0  0  0  0  0  0  0  0  0
    0.8810   -0.6720   -0.7506 H   0  0  0  0  0  0  0  0  0  0  0  0
    0.0444    1.2470   -0.2656 C   0  0  0  0  0  0  0  0  0  0  0  0
   -0.6708    1.6532    0.4532 H   0  0  0  0  0  0  0  0  0  0  0  0
    0.9877    1.7877   -0.1664 H   0  0  0  0  0  0  0  0  0  0  0  0
   -0.6236    1.4731   -1.9401 S   0  0  0  0  0  0  0  0  0  0  0  0
   -0.8168    2.7953   -1.8640 H   0  0  0  0  0  0  0  0  0  0  0  0
    1.0042   -0.4695    1.3842 C   0  0  0  0  0  0  0  0  0  0  0  0
    1.9695    0.2342    1.6832 O   0  0  0  0  0  0  0  0  0  0  0  0
    0.5490   -1.4379    2.1875 N   0  0  0  0  0  0  0  0  0  0  0  0
   -0.2065   -2.0108    1.8403 H   0  0  0  0  0  0  0  0  0  0  0  0
    1.1278   -1.7714    3.4877 C   0  0  0  0  0  0  0  0  0  0  0  0
    1.2415   -0.8641    4.0853 H   0  0  0  0  0  0  0  0  0  0  0  0
    0.4834   -2.4729    4.0187 H   0  0  0  0  0  0  0  0  0  0  0  0
    2.1121   -2.2211    3.3463 H   0  0  0  0  0  0  0  0  0  0  0  0
  5  6  2  0  0  0  0
  5  7  1  0  0  0  0
  2  3  1  0  0  0  0
  2  4  1  0  0  0  0
  2  5  1  0  0  0  0
  1  2  1  0  0  0  0
 16 17  2  0  0  0  0
 16 18  1  0  0  0  0
 14 15  1  0  0  0  0
 11 12  1  0  0  0  0
 11 13  1  0  0  0  0
 11 14  1  0  0  0  0
  9 10  1  0  0  0  0
  9 11  1  0  0  0  0
  9 16  1  0  0  0  0
  7  8  1  0  0  0  0
  7  9  1  0  0  0  0
 20 21  1  0  0  0  0
 20 22  1  0  0  0  0
 20 23  1  0  0  0  0
 18 19  1  0  0  0  0
 18 20  1  0  0  0  0
M  END
$$$$
default_name
  -OEChem-01062215323D

 23 22  0     1  0  0  0  0  0999 V2000
   -2.6857   -3.6684    0.8743 H   0  0  0  0  0  0  0  0  0  0  0  0
   -2.6617   -2.6474    0.4953 C   0  0  0  0  0  0  0  0  0  0  0  0
   -3.2657   -2.0054    1.1353 H   0  0  0  0  0  0  0  0  0  0  0  0
   -3.0477   -2.6254   -0.5217 H   0  0  0  0  0  0  0  0  0  0  0  0
   -1.2337   -2.1564    0.4993 C   0  0  0  0  0  0  0  0  0  0  0  0
   -0.3327   -2.8864    0.8893 O   0  0  0  0  0  0  0  0  0  0  0  0
   -1.0277   -0.9164    0.0623 N   0  0  0  0  0  0  0  0  0  0  0  0
   -1.8237   -0.3604   -0.2157 H   0  0  0  0  0  0  0  0  0  0  0  0
    0.2713   -0.2414    0.0463 C   0  0  1  0  0  0  0  0  0  0  0  0
    0.8810   -0.6720   -0.7506 H   0  0  0  0  0  0  0  0  0  0  0  0
    0.0444    1.2470   -0.2656 C   0  0  0  0  0  0  0  0  0  0  0  0
   -0.6708    1.6532    0.4532 H   0  0  0  0  0  0  0  0  0  0  0  0
    0.9877    1.7877   -0.1664 H   0  0  0  0  0  0  0  0  0  0  0  0
   -0.6236    1.4731   -1.9401 S   0  0  0  0  0  0  0  0  0  0  0  0
   -0.8168    2.7953   -1.8640 H   0  0  0  0  0  0  0  0  0  0  0  0
    1.0042   -0.4695    1.3842 C   0  0  0  0  0  0  0  0  0  0  0  0
    1.7772    0.3871    1.8146 O   0  0  0  0  0  0  0  0  0  0  0  0
    0.7613   -1.6090    2.0420 N   0  0  0  0  0  0  0  0  0  0  0  0
    0.1641   -2.2864    1.5903 H   0  0  0  0  0  0  0  0  0  0  0  0
    1.3690   -1.9684    3.3220 C   0  0  0  0  0  0  0  0  0  0  0  0
    1.2594   -1.1422    4.0282 H   0  0  0  0  0  0  0  0  0  0  0  0
    0.8878   -2.8573    3.7316 H   0  0  0  0  0  0  0  0  0  0  0  0
    2.4328   -2.1665    3.1799 H   0  0  0  0  0  0  0  0  0  0  0  0
  5  6  2  0  0  0  0
  5  7  1  0  0  0  0
  2  3  1  0  0  0  0
  2  4  1  0  0  0  0
  2  5  1  0  0  0  0
  1  2  1  0  0  0  0
 16 17  2  0  0  0  0
 16 18  1  0  0  0  0
 14 15  1  0  0  0  0
 11 12  1  0  0  0  0
 11 13  1  0  0  0  0
 11 14  1  0  0  0  0
  9 10  1  0  0  0  0
  9 11  1  0  0  0  0
  9 16  1  0  0  0  0
  7  8  1  0  0  0  0
  7  9  1  0  0  0  0
 20 21  1  0  0  0  0
 20 22  1  0  0  0  0
 20 23  1  0  0  0  0
 18 19  1  0  0  0  0
 18 20  1  0  0  0  0
M  END
$$$$
default_name
  -OEChem-01062215323D

 23 22  0     1  0  0  0  0  0999 V2000
   -2.6857   -3.6684    0.8743 H   0  0  0  0  0  0  0  0  0  0  0  0
   -2.6617   -2.6474    0.4953 C   0  0  0  0  0  0  0  0  0  0  0  0
   -3.2657   -2.0054    1.1353 H   0  0  0  0  0  0  0  0  0  0  0  0
   -3.0477   -2.6254   -0.5217 H   0  0  0  0  0  0  0  0  0  0  0  0
   -1.2337   -2.1564    0.4993 C   0  0  0  0  0  0  0  0  0  0  0  0
   -0.3327   -2.8864    0.8893 O   0  0  0  0  0  0  0  0  0  0  0  0
   -1.0277   -0.9164    0.0623 N   0  0  0  0  0  0  0  0  0  0  0  0
   -1.8237   -0.3604   -0.2157 H   0  0  0  0  0  0  0  0  0  0  0  0
    0.2713   -0.2414    0.0463 C   0  0  1  0  0  0  0  0  0  0  0  0
    0.8810   -0.6720   -0.7506 H   0  0  0  0  0  0  0  0  0  0  0  0
    0.0444    1.2470   -0.2656 C   0  0  0  0  0  0  0  0  0  0  0  0
   -0.6708    1.6532    0.4532 H   0  0  0  0  0  0  0  0  0  0  0  0
    0.9877    1.7877   -0.1664 H   0  0  0  0  0  0  0  0  0  0  0  0
   -0.6236    1.4731   -1.9401 S   0  0  0  0  0  0  0  0  0  0  0  0
   -0.8168    2.7953   -1.8640 H   0  0  0  0  0  0  0  0  0  0  0  0
    1.0042   -0.4695    1.3842 C   0  0  0  0  0  0  0  0  0  0  0  0
    1.5520    0.4754    1.9530 O   0  0  0  0  0  0  0  0  0  0  0  0
    1.0103   -1.7088    1.8886 N   0  0  0  0  0  0  0  0  0  0  0  0
    0.5935   -2.4387    1.3291 H   0  0  0  0  0  0  0  0  0  0  0  0
    1.6525   -2.0842    3.1470 C   0  0  0  0  0  0  0  0  0  0  0  0
    1.3412   -1.3998    3.9394 H   0  0  0  0  0  0  0  0  0  0  0  0
    1.3758   -3.1025    3.4225 H   0  0  0  0  0  0  0  0  0  0  0  0
    2.7366   -2.0213    3.0382 H   0  0  0  0  0  0  0  0  0  0  0  0
  5  6  2  0  0  0  0
  5  7  1  0  0  0  0
  2  3  1  0  0  0  0
  2  4  1  0  0  0  0
  2  5  1  0  0  0  0
  1  2  1  0  0  0  0
 16 17  2  0  0  0  0
 16 18  1  0  0  0  0
 14 15  1  0  0  0  0
 11 12  1  0  0  0  0
 11 13  1  0  0  0  0
 11 14  1  0  0  0  0
  9 10  1  0  0  0  0
  9 11  1  0  0  0  0
  9 16  1  0  0  0  0
  7  8  1  0  0  0  0
  7  9  1  0  0  0  0
 20 21  1  0  0  0  0
 20 22  1  0  0  0  0
 20 23  1  0  0  0  0
 18 19  1  0  0  0  0
 18 20  1  0  0  0  0
M  END
$$$$
default_name
  -OEChem-01062215323D

 23 22  0     1  0  0  0  0  0999 V2000
   -2.6857   -3.6684    0.8743 H   0  0  0  0  0  0  0  0  0  0  0  0
   -2.6617   -2.6474    0.4953 C   0  0  0  0  0  0  0  0  0  0  0  0
   -3.2657   -2.0054    1.1353 H   0  0  0  0  0  0  0  0  0  0  0  0
   -3.0477   -2.6254   -0.5217 H   0  0  0  0  0  0  0  0  0  0  0  0
   -1.2337   -2.1564    0.4993 C   0  0  0  0  0  0  0  0  0  0  0  0
   -0.3327   -2.8864    0.8893 O   0  0  0  0  0  0  0  0  0  0  0  0
   -1.0277   -0.9164    0.0623 N   0  0  0  0  0  0  0  0  0  0  0  0
   -1.8237   -0.3604   -0.2157 H   0  0  0  0  0  0  0  0  0  0  0  0
    0.2713   -0.2414    0.0463 C   0  0  1  0  0  0  0  0  0  0  0  0
    0.8810   -0.6720   -0.7506 H   0  0  0  0  0  0  0  0  0  0  0  0
    0.0444    1.2470   -0.2656 C   0  0  0  0  0  0  0  0  0  0  0  0
   -0.6708    1.6532    0.4532 H   0  0  0  0  0  0  0  0  0  0  0  0
    0.9877    1.7877   -0.1664 H   0  0  0  0  0  0  0  0  0  0  0  0
   -0.6236    1.4731   -1.9401 S   0  0  0  0  0  0  0  0  0  0  0  0
   -0.8168    2.7953   -1.8640 H   0  0  0  0  0  0  0  0  0  0  0  0
    1.0042   -0.4695    1.3842 C   0  0  0  0  0  0  0  0  0  0  0  0
    1.3094    0.4931    2.0889 O   0  0  0  0  0  0  0  0  0  0  0  0
    1.2791   -1.7304    1.7377 N   0  0  0  0  0  0  0  0  0  0  0  0
    1.0525   -2.4573    1.0745 H   0  0  0  0  0  0  0  0  0  0  0  0
    1.9591   -2.1109    2.9745 C   0  0  0  0  0  0  0  0  0  0  0  0
    1.4815   -1.6194    3.8251 H   0  0  0  0  0  0  0  0  0  0  0  0
    1.9140   -3.1918    3.1124 H   0  0  0  0  0  0  0  0  0  0  0  0
    3.0029   -1.7955    2.9308 H   0  0  0  0  0  0  0  0  0  0  0  0
  5  6  2  0  0  0  0
  5  7  1  0  0  0  0
  2  3  1  0  0  0  0
  2  4  1  0  0  0  0
  2  5  1  0  0  0  0
  1  2  1  0  0  0  0
 16 17  2  0  0  0  0
 16 18  1  0  0  0  0
 14 15  1  0  0  0  0
 11 12  1  0  0  0  0
 11 13  1  0  0  0  0
 11 14  1  0  0  0  0
  9 10  1  0  0  0  0
  9 11  1  0  0  0  0
  9 16  1  0  0  0  0
  7  8  1  0  0  0  0
  7  9  1  0  0  0  0
 20 21  1  0  0  0  0
 20 22  1  0  0  0  0
 20 23  1  0  0  0  0
 18 19  1  0  0  0  0
 18 20  1  0  0  0  0
M  END
$$$$
default_name
  -OEChem-01062215323D

 23 22  0     1  0  0  0  0  0999 V2000
   -2.6857   -3.6684    0.8743 H   0  0  0  0  0  0  0  0  0  0  0  0
   -2.6617   -2.6474    0.4953 C   0  0  0  0  0  0  0  0  0  0  0  0
   -3.2657   -2.0054    1.1353 H   0  0  0  0  0  0  0  0  0  0  0  0
   -3.0477   -2.6254   -0.5217 H   0  0  0  0  0  0  0  0  0  0  0  0
   -1.2337   -2.1564    0.4993 C   0  0  0  0  0  0  0  0  0  0  0  0
   -0.3327   -2.8864    0.8893 O   0  0  0  0  0  0  0  0  0  0  0  0
   -1.0277   -0.9164    0.0623 N   0  0  0  0  0  0  0  0  0  0  0  0
   -1.8237   -0.3604   -0.2157 H   0  0  0  0  0  0  0  0  0  0  0  0
    0.2713   -0.2414    0.0463 C   0  0  1  0  0  0  0  0  0  0  0  0
    0.8810   -0.6720   -0.7506 H   0  0  0  0  0  0  0  0  0  0  0  0
    0.0444    1.2470   -0.2656 C   0  0  0  0  0  0  0  0  0  0  0  0
   -0.6708    1.6532    0.4532 H   0  0  0  0  0  0  0  0  0  0  0  0
    0.9877    1.7877   -0.1664 H   0  0  0  0  0  0  0  0  0  0  0  0
   -0.6236    1.4731   -1.9401 S   0  0  0  0  0  0  0  0  0  0  0  0
   -0.8168    2.7953   -1.8640 H   0  0  0  0  0  0  0  0  0  0  0  0
    1.0042   -0.4695    1.3842 C   0  0  0  0  0  0  0  0  0  0  0  0
    1.0658    0.4390    2.2131 O   0  0  0  0  0  0  0  0  0  0  0  0
    1.5494   -1.6723    1.5995 N   0  0  0  0  0  0  0  0  0  0  0  0
    1.5097   -2.3409    0.8439 H   0  0  0  0  0  0  0  0  0  0  0  0
    2.2678   -2.0466    2.8163 C   0  0  0  0  0  0  0  0  0  0  0  0
    1.6707   -1.7859    3.6931 H   0  0  0  0  0  0  0  0  0  0  0  0
    2.4658   -3.1191    2.8226 H   0  0  0  0  0  0  0  0  0  0  0  0
    3.2136   -1.5043    2.8651 H   0  0  0  0  0  0  0  0  0  0  0  0
  5  6  2  0  0  0  0
  5  7  1  0  0  0  0
  2  3  1  0  0  0  0
  2  4  1  0  0  0  0
  2  5  1  0  0  0  0
  1  2  1  0  0  0  0
 16 17  2  0  0  0  0
 16 18  1  0  0  0  0
 14 15  1  0  0  0  0
 11 12  1  0  0  0  0
 11 13  1  0  0  0  0
 11 14  1  0  0  0  0
  9 10  1  0  0  0  0
  9 11  1  0  0  0  0
  9 16  1  0  0  0  0
  7  8  1  0  0  0  0
  7  9  1  0  0  0  0
 20 21  1  0  0  0  0
 20 22  1  0  0  0  0
 20 23  1  0  0  0  0
 18 19  1  0  0  0  0
 18 20  1  0  0  0  0
M  END
$$$$
default_name
  -OEChem-01062215323D

 23 22  0     1  0  0  0  0  0999 V2000
   -2.6857   -3.6684    0.8743 H   0  0  0  0  0  0  0  0  0  0  0  0
   -2.6617   -2.6474    0.4953 C   0  0  0  0  0  0  0  0  0  0  0  0
   -3.2657   -2.0054    1.1353 H   0  0  0  0  0  0  0  0  0  0  0  0
   -3.0477   -2.6254   -0.5217 H   0  0  0  0  0  0  0  0  0  0  0  0
   -1.2337   -2.1564    0.4993 C   0  0  0  0  0  0  0  0  0  0  0  0
   -0.3327   -2.8864    0.8893 O   0  0  0  0  0  0  0  0  0  0  0  0
   -1.0277   -0.9164    0.0623 N   0  0  0  0  0  0  0  0  0  0  0  0
   -1.8237   -0.3604   -0.2157 H   0  0  0  0  0  0  0  0  0  0  0  0
    0.2713   -0.2414    0.0463 C   0  0  1  0  0  0  0  0  0  0  0  0
    0.8810   -0.6720   -0.7506 H   0  0  0  0  0  0  0  0  0  0  0  0
    0.0444    1.2470   -0.2656 C   0  0  0  0  0  0  0  0  0  0  0  0
   -0.6708    1.6532    0.4532 H   0  0  0  0  0  0  0  0  0  0  0  0
    0.9877    1.7877   -0.1664 H   0  0  0  0  0  0  0  0  0  0  0  0
   -0.6236    1.4731   -1.9401 S   0  0  0  0  0  0  0  0  0  0  0  0
   -0.8168    2.7953   -1.8640 H   0  0  0  0  0  0  0  0  0  0  0  0
    1.0042   -0.4695    1.3842 C   0  0  0  0  0  0  0  0  0  0  0  0
    0.8380    0.3169    2.3171 O   0  0  0  0  0  0  0  0  0  0  0  0
    1.8027   -1.5385    1.4836 N   0  0  0  0  0  0  0  0  0  0  0  0
    1.9341   -2.0974    0.6529 H   0  0  0  0  0  0  0  0  0  0  0  0
    2.5576   -1.8958    2.6833 C   0  0  0  0  0  0  0  0  0  0  0  0
    1.8959   -1.8880    3.5524 H   0  0  0  0  0  0  0  0  0  0  0  0
    2.9936   -2.8893    2.5726 H   0  0  0  0  0  0  0  0  0  0  0  0
    3.3542   -1.1677    2.8454 H   0  0  0  0  0  0  0  0  0  0  0  0
  5  6  2  0  0  0  0
  5  7  1  0  0  0  0
  2  3  1  0  0  0  0
  2  4  1  0  0  0  0
  2  5  1  0  0  0  0
  1  2  1  0  0  0  0
 16 17  2  0  0  0  0
 16 18  1  0  0  0  0
 14 15  1  0  0  0  0
 11 12  1  0  0  0  0
 11 13  1  0  0  0  0
 11 14  1  0  0  0  0
  9 10  1  0  0  0  0
  9 11  1  0  0  0  0
  9 16  1  0  0  0  0
  7  8  1  0  0  0  0
  7  9  1  0  0  0  0
 20 21  1  0  0  0  0
 20 22  1  0  0  0  0
 20 23  1  0  0  0  0
 18 19  1  0  0  0  0
 18 20  1  0  0  0  0
M  END
$$$$
default_name
  -OEChem-01062215323D

 23 22  0     1  0  0  0  0  0999 V2000
   -2.6857   -3.6684    0.8743 H   0  0  0  0  0  0  0  0  0  0  0  0
   -2.6617   -2.6474    0.4953 C   0  0  0  0  0  0  0  0  0  0  0  0
   -3.2657   -2.0054    1.1353 H   0  0  0  0  0  0  0  0  0  0  0  0
   -3.0477   -2.6254   -0.5217 H   0  0  0  0  0  0  0  0  0  0  0  0
   -1.2337   -2.1564    0.4993 C   0  0  0  0  0  0  0  0  0  0  0  0
   -0.3327   -2.8864    0.8893 O   0  0  0  0  0  0  0  0  0  0  0  0
   -1.0277   -0.9164    0.0623 N   0  0  0  0  0  0  0  0  0  0  0  0
   -1.8237   -0.3604   -0.2157 H   0  0  0  0  0  0  0  0  0  0  0  0
    0.2713   -0.2414    0.0463 C   0  0  1  0  0  0  0  0  0  0  0  0
    0.8810   -0.6720   -0.7506 H   0  0  0  0  0  0  0  0  0  0  0  0
    0.0444    1.2470   -0.2656 C   0  0  0  0  0  0  0  0  0  0  0  0
   -0.6708    1.6532    0.4532 H   0  0  0  0  0  0  0  0  0  0  0  0
    0.9877    1.7877   -0.1664 H   0  0  0  0  0  0  0  0  0  0  0  0
   -0.6236    1.4731   -1.9401 S   0  0  0  0  0  0  0  0  0  0  0  0
   -0.8168    2.7953   -1.8640 H   0  0  0  0  0  0  0  0  0  0  0  0
    1.0042   -0.4695    1.3842 C   0  0  0  0  0  0  0  0  0  0  0  0
    0.6414    0.1350    2.3938 O   0  0  0  0  0  0  0  0  0  0  0  0
    2.0218   -1.3382    1.3977 N   0  0  0  0  0  0  0  0  0  0  0  0
    2.2966   -1.7435    0.5146 H   0  0  0  0  0  0  0  0  0  0  0  0
    2.8087   -1.6687    2.5844 C   0  0  0  0  0  0  0  0  0  0  0  0
    2.1417   -1.9188    3.4125 H   0  0  0  0  0  0  0  0  0  0  0  0
    3.4614   -2.5182    2.3797 H   0  0  0  0  0  0  0  0  0  0  0  0
    3.4152   -0.8086    2.8732 H   0  0  0  0  0  0  0  0  0  0  0  0
  5  6  2  0  0  0  0
  5  7  1  0  0  0  0
  2  3  1  0  0  0  0
  2  4  1  0  0  0  0
  2  5  1  0  0  0  0
  1  2  1  0  0  0  0
 16 17  2  0  0  0  0
 16 18  1  0  0  0  0
 14 15  1  0  0  0  0
 11 12  1  0  0  0  0
 11 13  1  0  0  0  0
 11 14  1  0  0  0  0
  9 10  1  0  0  0  0
  9 11  1  0  0  0  0
  9 16  1  0  0  0  0
  7  8  1  0  0  0  0
  7  9  1  0  0  0  0
 20 21  1  0  0  0  0
 20 22  1  0  0  0  0
 20 23  1  0  0  0  0
 18 19  1  0  0  0  0
 18 20  1  0  0  0  0
M  END
$$$$
default_name
  -OEChem-01062215323D

 23 22  0     1  0  0  0  0  0999 V2000
   -2.6857   -3.6684    0.8743 H   0  0  0  0  0  0  0  0  0  0  0  0
   -2.6617   -2.6474    0.4953 C   0  0  0  0  0  0  0  0  0  0  0  0
   -3.2657   -2.0054    1.1353 H   0  0  0  0  0  0  0  0  0  0  0  0
   -3.0477   -2.6254   -0.5217 H   0  0  0  0  0  0  0  0  0  0  0  0
   -1.2337   -2.1564    0.4993 C   0  0  0  0  0  0  0  0  0  0  0  0
   -0.3327   -2.8864    0.8893 O   0  0  0  0  0  0  0  0  0  0  0  0
   -1.0277   -0.9164    0.0623 N   0  0  0  0  0  0  0  0  0  0  0  0
   -1.8237   -0.3604   -0.2157 H   0  0  0  0  0  0  0  0  0  0  0  0
    0.2713   -0.2414    0.0463 C   0  0  1  0  0  0  0  0  0  0  0  0
    0.8810   -0.6720   -0.7506 H   0  0  0  0  0  0  0  0  0  0  0  0
    0.0444    1.2470   -0.2656 C   0  0  0  0  0  0  0  0  0  0  0  0
   -0.6708    1.6532    0.4532 H   0  0  0  0  0  0  0  0  0  0  0  0
    0.9877    1.7877   -0.1664 H   0  0  0  0  0  0  0  0  0  0  0  0
   -0.6236    1.4731   -1.9401 S   0  0  0  0  0  0  0  0  0  0  0  0
   -0.8168    2.7953   -1.8640 H   0  0  0  0  0  0  0  0  0  0  0  0
    1.0042   -0.4695    1.3842 C   0  0  0  0  0  0  0  0  0  0  0  0
    0.4893   -0.0944    2.4380 O   0  0  0  0  0  0  0  0  0  0  0  0
    2.1917   -1.0850    1.3478 N   0  0  0  0  0  0  0  0  0  0  0  0
    2.5726   -1.3033    0.4385 H   0  0  0  0  0  0  0  0  0  0  0  0
    3.0041   -1.3808    2.5265 C   0  0  0  0  0  0  0  0  0  0  0  0
    2.3914   -1.8762    3.2830 H   0  0  0  0  0  0  0  0  0  0  0  0
    3.8372   -2.0309    2.2568 H   0  0  0  0  0  0  0  0  0  0  0  0
    3.3925   -0.4514    2.9466 H   0  0  0  0  0  0  0  0  0  0  0  0
  5  6  2  0  0  0  0
  5  7  1  0  0  0  0
  2  3  1  0  0  0  0
  2  4  1  0  0  0  0
  2  5  1  0  0  0  0
  1  2  1  0  0  0  0
 16 17  2  0  0  0  0
 16 18  1  0  0  0  0
 14 15  1  0  0  0  0
 11 12  1  0  0  0  0
 11 13  1  0  0  0  0
 11 14  1  0  0  0  0
  9 10  1  0  0  0  0
  9 11  1  0  0  0  0
  9 16  1  0  0  0  0
  7  8  1  0  0  0  0
  7  9  1  0  0  0  0
 20 21  1  0  0  0  0
 20 22  1  0  0  0  0
 20 23  1  0  0  0  0
 18 19  1  0  0  0  0
 18 20  1  0  0  0  0
M  END
$$$$
default_name
  -OEChem-01062215323D

 23 22  0     1  0  0  0  0  0999 V2000
   -2.6857   -3.6684    0.8743 H   0  0  0  0  0  0  0  0  0  0  0  0
   -2.6617   -2.6474    0.4953 C   0  0  0  0  0  0  0  0  0  0  0  0
   -3.2657   -2.0054    1.1353 H   0  0  0  0  0  0  0  0  0  0  0  0
   -3.0477   -2.6254   -0.5217 H   0  0  0  0  0  0  0  0  0  0  0  0
   -1.2337   -2.1564    0.4993 C   0  0  0  0  0  0  0  0  0  0  0  0
   -0.3327   -2.8864    0.8893 O   0  0  0  0  0  0  0  0  0  0  0  0
   -1.0277   -0.9164    0.0623 N   0  0  0  0  0  0  0  0  0  0  0  0
   -1.8237   -0.3604   -0.2157 H   0  0  0  0  0  0  0  0  0  0  0  0
    0.2713   -0.2414    0.0463 C   0  0  1  0  0  0  0  0  0  0  0  0
    0.8810   -0.6720   -0.7506 H   0  0  0  0  0  0  0  0  0  0  0  0
    0.0444    1.2470   -0.2656 C   0  0  0  0  0  0  0  0  0  0  0  0
   -0.6708    1.6532    0.4532 H   0  0  0  0  0  0  0  0  0  0  0  0
    0.9877    1.7877   -0.1664 H   0  0  0  0  0  0  0  0  0  0  0  0
   -0.6236    1.4731   -1.9401 S   0  0  0  0  0  0  0  0  0  0  0  0
   -0.8168    2.7953   -1.8640 H   0  0  0  0  0  0  0  0  0  0  0  0
    1.0042   -0.4695    1.3842 C   0  0  0  0  0  0  0  0  0  0  0  0
    0.3923   -0.3554    2.4467 O   0  0  0  0  0  0  0  0  0  0  0  0
    2.3009   -0.7961    1.3372 N   0  0  0  0  0  0  0  0  0  0  0  0
    2.7433   -0.8067    0.4296 H   0  0  0  0  0  0  0  0  0  0  0  0
    3.1305   -1.0517    2.5134 C   0  0  0  0  0  0  0  0  0  0  0  0
    2.6279   -1.7630    3.1727 H   0  0  0  0  0  0  0  0  0  0  0  0
    4.0956   -1.4608    2.2125 H   0  0  0  0  0  0  0  0  0  0  0  0
    3.2875   -0.1205    3.0605 H   0  0  0  0  0  0  0  0  0  0  0  0
  5  6  2  0  0  0  0
  5  7  1  0  0  0  0
  2  3  1  0  0  0  0
  2  4  1  0  0  0  0
  2  5  1  0  0  0  0
  1  2  1  0  0  0  0
 16 17  2  0  0  0  0
 16 18  1  0  0  0  0
 14 15  1  0  0  0  0
 11 12  1  0  0  0  0
 11 13  1  0  0  0  0
 11 14  1  0  0  0  0
  9 10  1  0  0  0  0
  9 11  1  0  0  0  0
  9 16  1  0  0  0  0
  7  8  1  0  0  0  0
  7  9  1  0  0  0  0
 20 21  1  0  0  0  0
 20 22  1  0  0  0  0
 20 23  1  0  0  0  0
 18 19  1  0  0  0  0
 18 20  1  0  0  0  0
M  END
$$$$
default_name
  -OEChem-01062215323D

 23 22  0     1  0  0  0  0  0999 V2000
   -2.6857   -3.6684    0.8743 H   0  0  0  0  0  0  0  0  0  0  0  0
   -2.6617   -2.6474    0.4953 C   0  0  0  0  0  0  0  0  0  0  0  0
   -3.2657   -2.0054    1.1353 H   0  0  0  0  0  0  0  0  0  0  0  0
   -3.0477   -2.6254   -0.5217 H   0  0  0  0  0  0  0  0  0  0  0  0
   -1.2337   -2.1564    0.4993 C   0  0  0  0  0  0  0  0  0  0  0  0
   -0.3327   -2.8864    0.8893 O   0  0  0  0  0  0  0  0  0  0  0  0
   -1.0277   -0.9164    0.0623 N   0  0  0  0  0  0  0  0  0  0  0  0
   -1.8237   -0.3604   -0.2157 H   0  0  0  0  0  0  0  0  0  0  0  0
    0.2713   -0.2414    0.0463 C   0  0  1  0  0  0  0  0  0  0  0  0
    0.8810   -0.6720   -0.7506 H   0  0  0  0  0  0  0  0  0  0  0  0
    0.0444    1.2470   -0.2656 C   0  0  0  0  0  0  0  0  0  0  0  0
   -0.6708    1.6532    0.4532 H   0  0  0  0  0  0  0  0  0  0  0  0
    0.9877    1.7877   -0.1664 H   0  0  0  0  0  0  0  0  0  0  0  0
   -0.6236    1.4731   -1.9401 S   0  0  0  0  0  0  0  0  0  0  0  0
   -0.8168    2.7953   -1.8640 H   0  0  0  0  0  0  0  0  0  0  0  0
    1.0042   -0.4695    1.3842 C   0  0  0  0  0  0  0  0  0  0  0  0
    0.3568   -0.6304    2.4192 O   0  0  0  0  0  0  0  0  0  0  0  0
    2.3419   -0.4912    1.3667 N   0  0  0  0  0  0  0  0  0  0  0  0
    2.7971   -0.2876    0.4887 H   0  0  0  0  0  0  0  0  0  0  0  0
    3.1791   -0.7038    2.5460 C   0  0  0  0  0  0  0  0  0  0  0  0
    2.8353   -1.5870    3.0891 H   0  0  0  0  0  0  0  0  0  0  0  0
    4.2189   -0.8466    2.2496 H   0  0  0  0  0  0  0  0  0  0  0  0
    3.1075    0.1615    3.2072 H   0  0  0  0  0  0  0  0  0  0  0  0
  5  6  2  0  0  0  0
  5  7  1  0  0  0  0
  2  3  1  0  0  0  0
  2  4  1  0  0  0  0
  2  5  1  0  0  0  0
  1  2  1  0  0  0  0
 16 17  2  0  0  0  0
 16 18  1  0  0  0  0
 14 15  1  0  0  0  0
 11 12  1  0  0  0  0
 11 13  1  0  0  0  0
 11 14  1  0  0  0  0
  9 10  1  0  0  0  0
  9 11  1  0  0  0  0
  9 16  1  0  0  0  0
  7  8  1  0  0  0  0
  7  9  1  0  0  0  0
 20 21  1  0  0  0  0
 20 22  1  0  0  0  0
 20 23  1  0  0  0  0
 18 19  1  0  0  0  0
 18 20  1  0  0  0  0
M  END
$$$$
default_name
  -OEChem-01062215323D

 23 22  0     1  0  0  0  0  0999 V2000
   -2.6857   -3.6684    0.8743 H   0  0  0  0  0  0  0  0  0  0  0  0
   -2.6617   -2.6474    0.4953 C   0  0  0  0  0  0  0  0  0  0  0  0
   -3.2657   -2.0054    1.1353 H   0  0  0  0  0  0  0  0  0  0  0  0
   -3.0477   -2.6254   -0.5217 H   0  0  0  0  0  0  0  0  0  0  0  0
   -1.2337   -2.1564    0.4993 C   0  0  0  0  0  0  0  0  0  0  0  0
   -0.3327   -2.8864    0.8893 O   0  0  0  0  0  0  0  0  0  0  0  0
   -1.0277   -0.9164    0.0623 N   0  0  0  0  0  0  0  0  0  0  0  0
   -1.8237   -0.3604   -0.2157 H   0  0  0  0  0  0  0  0  0  0  0  0
    0.2713   -0.2414    0.0463 C   0  0  1  0  0  0  0  0  0  0  0  0
    0.8810   -0.6720   -0.7506 H   0  0  0  0  0  0  0  0  0  0  0  0
    0.0444    1.2470   -0.2656 C   0  0  0  0  0  0  0  0  0  0  0  0
   -0.6708    1.6532    0.4532 H   0  0  0  0  0  0  0  0  0  0  0  0
    0.9877    1.7877   -0.1664 H   0  0  0  0  0  0  0  0  0  0  0  0
   -0.6236    1.4731   -1.9401 S   0  0  0  0  0  0  0  0  0  0  0  0
   -0.8168    2.7953   -1.8640 H   0  0  0  0  0  0  0  0  0  0  0  0
    1.0042   -0.4695    1.3842 C   0  0  0  0  0  0  0  0  0  0  0  0
    0.3853   -0.9007    2.3575 O   0  0  0  0  0  0  0  0  0  0  0  0
    2.3120   -0.1912    1.4343 N   0  0  0  0  0  0  0  0  0  0  0  0
    2.7302    0.2186    0.6116 H   0  0  0  0  0  0  0  0  0  0  0  0
    3.1467   -0.3609    2.6222 C   0  0  0  0  0  0  0  0  0  0  0  0
    2.9992   -1.3602    3.0380 H   0  0  0  0  0  0  0  0  0  0  0  0
    4.1987   -0.2302    2.3658 H   0  0  0  0  0  0  0  0  0  0  0  0
    2.8647    0.3755    3.3766 H   0  0  0  0  0  0  0  0  0  0  0  0
  5  6  2  0  0  0  0
  5  7  1  0  0  0  0
  2  3  1  0  0  0  0
  2  4  1  0  0  0  0
  2  5  1  0  0  0  0
  1  2  1  0  0  0  0
 16 17  2  0  0  0  0
 16 18  1  0  0  0  0
 14 15  1  0  0  0  0
 11 12  1  0  0  0  0
 11 13  1  0  0  0  0
 11 14  1  0  0  0  0
  9 10  1  0  0  0  0
  9 11  1  0  0  0  0
  9 16  1  0  0  0  0
  7  8  1  0  0  0  0
  7  9  1  0  0  0  0
 20 21  1  0  0  0  0
 20 22  1  0  0  0  0
 20 23  1  0  0  0  0
 18 19  1  0  0  0  0
 18 20  1  0  0  0  0
M  END
$$$$
default_name
  -OEChem-01062215323D

 23 22  0     1  0  0  0  0  0999 V2000
   -2.6857   -3.6684    0.8743 H   0  0  0  0  0  0  0  0  0  0  0  0
   -2.6617   -2.6474    0.4953 C   0  0  0  0  0  0  0  0  0  0  0  0
   -3.2657   -2.0054    1.1353 H   0  0  0  0  0  0  0  0  0  0  0  0
   -3.0477   -2.6254   -0.5217 H   0  0  0  0  0  0  0  0  0  0  0  0
   -1.2337   -2.1564    0.4993 C   0  0  0  0  0  0  0  0  0  0  0  0
   -0.3327   -2.8864    0.8893 O   0  0  0  0  0  0  0  0  0  0  0  0
   -1.0277   -0.9164    0.0623 N   0  0  0  0  0  0  0  0  0  0  0  0
   -1.8237   -0.3604   -0.2157 H   0  0  0  0  0  0  0  0  0  0  0  0
    0.2713   -0.2414    0.0463 C   0  0  1  0  0  0  0  0  0  0  0  0
    0.7745   -0.4705   -0.8952 H   0  0  0  0  0  0  0  0  0  0  0  0
    0.0339    1.2762    0.1138 C   0  0  0  0  0  0  0  0  0  0  0  0
   -0.5838    1.4983    0.9869 H   0  0  0  0  0  0  0  0  0  0  0  0
    0.9913    1.7901    0.2208 H   0  0  0  0  0  0  0  0  0  0  0  0
   -0.8248    1.8736   -1.3718 S   0  0  0  0  0  0  0  0  0  0  0  0
   -0.9854    3.1408   -0.9718 H   0  0  0  0  0  0  0  0  0  0  0  0
    1.1543   -0.7627    1.1986 C   0  0  0  0  0  0  0  0  0  0  0  0
    0.7233   -1.6312    1.9577 O   0  0  0  0  0  0  0  0  0  0  0  0
    2.3817   -0.2457    1.3268 N   0  0  0  0  0  0  0  0  0  0  0  0
    2.6347    0.5071    0.7031 H   0  0  0  0  0  0  0  0  0  0  0  0
    3.3390   -0.6392    2.3591 C   0  0  0  0  0  0  0  0  0  0  0  0
    3.4279   -1.7276    2.3852 H   0  0  0  0  0  0  0  0  0  0  0  0
    4.3172   -0.2037    2.1519 H   0  0  0  0  0  0  0  0  0  0  0  0
    2.9893   -0.2946    3.3337 H   0  0  0  0  0  0  0  0  0  0  0  0
  5  6  2  0  0  0  0
  5  7  1  0  0  0  0
  2  3  1  0  0  0  0
  2  4  1  0  0  0  0
  2  5  1  0  0  0  0
  1  2  1  0  0  0  0
 16 17  2  0  0  0  0
 16 18  1  0  0  0  0
 14 15  1  0  0  0  0
 11 12  1  0  0  0  0
 11 13  1  0  0  0  0
 11 14  1  0  0  0  0
  9 10  1  0  0  0  0
  9 11  1  0  0  0  0
  9 16  1  0  0  0  0
  7  8  1  0  0  0  0
  7  9  1  0  0  0  0
 20 21  1  0  0  0  0
 20 22  1  0  0  0  0
 20 23  1  0  0  0  0
 18 19  1  0  0  0  0
 18 20  1  0  0  0  0
M  END
$$$$
default_name
  -OEChem-01062215323D

 23 22  0     1  0  0  0  0  0999 V2000
   -2.6857   -3.6684    0.8743 H   0  0  0  0  0  0  0  0  0  0  0  0
   -2.6617   -2.6474    0.4953 C   0  0  0  0  0  0  0  0  0  0  0  0
   -3.2657   -2.0054    1.1353 H   0  0  0  0  0  0  0  0  0  0  0  0
   -3.0477   -2.6254   -0.5217 H   0  0  0  0  0  0  0  0  0  0  0  0
   -1.2337   -2.1564    0.4993 C   0  0  0  0  0  0  0  0  0  0  0  0
   -0.3327   -2.8864    0.8893 O   0  0  0  0  0  0  0  0  0  0  0  0
   -1.0277   -0.9164    0.0623 N   0  0  0  0  0  0  0  0  0  0  0  0
   -1.8237   -0.3604   -0.2157 H   0  0  0  0  0  0  0  0  0  0  0  0
    0.2713   -0.2414    0.0463 C   0  0  1  0  0  0  0  0  0  0  0  0
    0.7745   -0.4705   -0.8952 H   0  0  0  0  0  0  0  0  0  0  0  0
    0.0339    1.2762    0.1138 C   0  0  0  0  0  0  0  0  0  0  0  0
   -0.5838    1.4983    0.9869 H   0  0  0  0  0  0  0  0  0  0  0  0
    0.9913    1.7901    0.2208 H   0  0  0  0  0  0  0  0  0  0  0  0
   -0.8248    1.8736   -1.3718 S   0  0  0  0  0  0  0  0  0  0  0  0
   -0.9854    3.1408   -0.9718 H   0  0  0  0  0  0  0  0  0  0  0  0
    1.1543   -0.7627    1.1986 C   0  0  0  0  0  0  0  0  0  0  0  0
    0.8515   -1.8045    1.7811 O   0  0  0  0  0  0  0  0  0  0  0  0
    2.2409   -0.0522    1.5223 N   0  0  0  0  0  0  0  0  0  0  0  0
    2.3830    0.8229    1.0389 H   0  0  0  0  0  0  0  0  0  0  0  0
    3.1796   -0.4168    2.5818 C   0  0  0  0  0  0  0  0  0  0  0  0
    3.4822   -1.4599    2.4647 H   0  0  0  0  0  0  0  0  0  0  0  0
    4.0635    0.2207    2.5383 H   0  0  0  0  0  0  0  0  0  0  0  0
    2.6980   -0.3007    3.5542 H   0  0  0  0  0  0  0  0  0  0  0  0
  5  6  2  0  0  0  0
  5  7  1  0  0  0  0
  2  3  1  0  0  0  0
  2  4  1  0  0  0  0
  2  5  1  0  0  0  0
  1  2  1  0  0  0  0
 16 17  2  0  0  0  0
 16 18  1  0  0  0  0
 14 15  1  0  0  0  0
 11 12  1  0  0  0  0
 11 13  1  0  0  0  0
 11 14  1  0  0  0  0
  9 10  1  0  0  0  0
  9 11  1  0  0  0  0
  9 16  1  0  0  0  0
  7  8  1  0  0  0  0
  7  9  1  0  0  0  0
 20 21  1  0  0  0  0
 20 22  1  0  0  0  0
 20 23  1  0  0  0  0
 18 19  1  0  0  0  0
 18 20  1  0  0  0  0
M  END
$$$$
default_name
  -OEChem-01062215323D

 23 22  0     1  0  0  0  0  0999 V2000
   -2.6857   -3.6684    0.8743 H   0  0  0  0  0  0  0  0  0  0  0  0
   -2.6617   -2.6474    0.4953 C   0  0  0  0  0  0  0  0  0  0  0  0
   -3.2657   -2.0054    1.1353 H   0  0  0  0  0  0  0  0  0  0  0  0
   -3.0477   -2.6254   -0.5217 H   0  0  0  0  0  0  0  0  0  0  0  0
   -1.2337   -2.1564    0.4993 C   0  0  0  0  0  0  0  0  0  0  0  0
   -0.3327   -2.8864    0.8893 O   0  0  0  0  0  0  0  0  0  0  0  0
   -1.0277   -0.9164    0.0623 N   0  0  0  0  0  0  0  0  0  0  0  0
   -1.8237   -0.3604   -0.2157 H   0  0  0  0  0  0  0  0  0  0  0  0
    0.2713   -0.2414    0.0463 C   0  0  1  0  0  0  0  0  0  0  0  0
    0.7745   -0.4705   -0.8952 H   0  0  0  0  0  0  0  0  0  0  0  0
    0.0339    1.2762    0.1138 C   0  0  0  0  0  0  0  0  0  0  0  0
   -0.5838    1.4983    0.9869 H   0  0  0  0  0  0  0  0  0  0  0  0
    0.9913    1.7901    0.2208 H   0  0  0  0  0  0  0  0  0  0  0  0
   -0.8248    1.8736   -1.3718 S   0  0  0  0  0  0  0  0  0  0  0  0
   -0.9854    3.1408   -0.9718 H   0  0  0  0  0  0  0  0  0  0  0  0
    1.1543   -0.7627    1.1986 C   0  0  0  0  0  0  0  0  0  0  0  0
    1.0243   -1.9209    1.5961 O   0  0  0  0  0  0  0  0  0  0  0  0
    2.0503    0.0786    1.7274 N   0  0  0  0  0  0  0  0  0  0  0  0
    2.0495    1.0296    1.3880 H   0  0  0  0  0  0  0  0  0  0  0  0
    2.9633   -0.2658    2.8159 C   0  0  0  0  0  0  0  0  0  0  0  0
    3.4760   -1.2025    2.5859 H   0  0  0  0  0  0  0  0  0  0  0  0
    3.7026    0.5243    2.9523 H   0  0  0  0  0  0  0  0  0  0  0  0
    2.3986   -0.3956    3.7407 H   0  0  0  0  0  0  0  0  0  0  0  0
  5  6  2  0  0  0  0
  5  7  1  0  0  0  0
  2  3  1  0  0  0  0
  2  4  1  0  0  0  0
  2  5  1  0  0  0  0
  1  2  1  0  0  0  0
 16 17  2  0  0  0  0
 16 18  1  0  0  0  0
 14 15  1  0  0  0  0
 11 12  1  0  0  0  0
 11 13  1  0  0  0  0
 11 14  1  0  0  0  0
  9 10  1  0  0  0  0
  9 11  1  0  0  0  0
  9 16  1  0  0  0  0
  7  8  1  0  0  0  0
  7  9  1  0  0  0  0
 20 21  1  0  0  0  0
 20 22  1  0  0  0  0
 20 23  1  0  0  0  0
 18 19  1  0  0  0  0
 18 20  1  0  0  0  0
M  END
$$$$
default_name
  -OEChem-01062215323D

 23 22  0     1  0  0  0  0  0999 V2000
   -2.6857   -3.6684    0.8743 H   0  0  0  0  0  0  0  0  0  0  0  0
   -2.6617   -2.6474    0.4953 C   0  0  0  0  0  0  0  0  0  0  0  0
   -3.2657   -2.0054    1.1353 H   0  0  0  0  0  0  0  0  0  0  0  0
   -3.0477   -2.6254   -0.5217 H   0  0  0  0  0  0  0  0  0  0  0  0
   -1.2337   -2.1564    0.4993 C   0  0  0  0  0  0  0  0  0  0  0  0
   -0.3327   -2.8864    0.8893 O   0  0  0  0  0  0  0  0  0  0  0  0
   -1.0277   -0.9164    0.0623 N   0  0  0  0  0  0  0  0  0  0  0  0
   -1.8237   -0.3604   -0.2157 H   0  0  0  0  0  0  0  0  0  0  0  0
    0.2713   -0.2414    0.0463 C   0  0  1  0  0  0  0  0  0  0  0  0
    0.7745   -0.4705   -0.8952 H   0  0  0  0  0  0  0  0  0  0  0  0
    0.0339    1.2762    0.1138 C   0  0  0  0  0  0  0  0  0  0  0  0
   -0.5838    1.4983    0.9869 H   0  0  0  0  0  0  0  0  0  0  0  0
    0.9913    1.7901    0.2208 H   0  0  0  0  0  0  0  0  0  0  0  0
   -0.8248    1.8736   -1.3718 S   0  0  0  0  0  0  0  0  0  0  0  0
   -0.9854    3.1408   -0.9718 H   0  0  0  0  0  0  0  0  0  0  0  0
    1.1543   -0.7627    1.1986 C   0  0  0  0  0  0  0  0  0  0  0  0
    1.2299   -1.9726    1.4152 O   0  0  0  0  0  0  0  0  0  0  0  0
    1.8230    0.1376    1.9283 N   0  0  0  0  0  0  0  0  0  0  0  0
    1.6568    1.1130    1.7266 H   0  0  0  0  0  0  0  0  0  0  0  0
    2.7046   -0.1965    3.0455 C   0  0  0  0  0  0  0  0  0  0  0  0
    3.4096   -0.9732    2.7405 H   0  0  0  0  0  0  0  0  0  0  0  0
    3.2590    0.6864    3.3655 H   0  0  0  0  0  0  0  0  0  0  0  0
    2.1113   -0.5728    3.8806 H   0  0  0  0  0  0  0  0  0  0  0  0
  5  6  2  0  0  0  0
  5  7  1  0  0  0  0
  2  3  1  0  0  0  0
  2  4  1  0  0  0  0
  2  5  1  0  0  0  0
  1  2  1  0  0  0  0
 16 17  2  0  0  0  0
 16 18  1  0  0  0  0
 14 15  1  0  0  0  0
 11 12  1  0  0  0  0
 11 13  1  0  0  0  0
 11 14  1  0  0  0  0
  9 10  1  0  0  0  0
  9 11  1  0  0  0  0
  9 16  1  0  0  0  0
  7  8  1  0  0  0  0
  7  9  1  0  0  0  0
 20 21  1  0  0  0  0
 20 22  1  0  0  0  0
 20 23  1  0  0  0  0
 18 19  1  0  0  0  0
 18 20  1  0  0  0  0
M  END
$$$$
default_name
  -OEChem-01062215323D

 23 22  0     1  0  0  0  0  0999 V2000
   -2.6857   -3.6684    0.8743 H   0  0  0  0  0  0  0  0  0  0  0  0
   -2.6617   -2.6474    0.4953 C   0  0  0  0  0  0  0  0  0  0  0  0
   -3.2657   -2.0054    1.1353 H   0  0  0  0  0  0  0  0  0  0  0  0
   -3.0477   -2.6254   -0.5217 H   0  0  0  0  0  0  0  0  0  0  0  0
   -1.2337   -2.1564    0.4993 C   0  0  0  0  0  0  0  0  0  0  0  0
   -0.3327   -2.8864    0.8893 O   0  0  0  0  0  0  0  0  0  0  0  0
   -1.0277   -0.9164    0.0623 N   0  0  0  0  0  0  0  0  0  0  0  0
   -1.8237   -0.3604   -0.2157 H   0  0  0  0  0  0  0  0  0  0  0  0
    0.2713   -0.2414    0.0463 C   0  0  1  0  0  0  0  0  0  0  0  0
    0.7745   -0.4705   -0.8952 H   0  0  0  0  0  0  0  0  0  0  0  0
    0.0339    1.2762    0.1138 C   0  0  0  0  0  0  0  0  0  0  0  0
   -0.5838    1.4983    0.9869 H   0  0  0  0  0  0  0  0  0  0  0  0
    0.9913    1.7901    0.2208 H   0  0  0  0  0  0  0  0  0  0  0  0
   -0.8248    1.8736   -1.3718 S   0  0  0  0  0  0  0  0  0  0  0  0
   -0.9854    3.1408   -0.9718 H   0  0  0  0  0  0  0  0  0  0  0  0
    1.1543   -0.7627    1.1986 C   0  0  0  0  0  0  0  0  0  0  0  0
    1.4543   -1.9559    1.2508 O   0  0  0  0  0  0  0  0  0  0  0  0
    1.5745    0.1209    2.1112 N   0  0  0  0  0  0  0  0  0  0  0  0
    1.2318    1.0674    2.0317 H   0  0  0  0  0  0  0  0  0  0  0  0
    2.4212   -0.2136    3.2549 C   0  0  0  0  0  0  0  0  0  0  0  0
    3.2876   -0.7873    2.9181 H   0  0  0  0  0  0  0  0  0  0  0  0
    2.7631    0.6961    3.7499 H   0  0  0  0  0  0  0  0  0  0  0  0
    1.8559   -0.8203    3.9644 H   0  0  0  0  0  0  0  0  0  0  0  0
  5  6  2  0  0  0  0
  5  7  1  0  0  0  0
  2  3  1  0  0  0  0
  2  4  1  0  0  0  0
  2  5  1  0  0  0  0
  1  2  1  0  0  0  0
 16 17  2  0  0  0  0
 16 18  1  0  0  0  0
 14 15  1  0  0  0  0
 11 12  1  0  0  0  0
 11 13  1  0  0  0  0
 11 14  1  0  0  0  0
  9 10  1  0  0  0  0
  9 11  1  0  0  0  0
  9 16  1  0  0  0  0
  7  8  1  0  0  0  0
  7  9  1  0  0  0  0
 20 21  1  0  0  0  0
 20 22  1  0  0  0  0
 20 23  1  0  0  0  0
 18 19  1  0  0  0  0
 18 20  1  0  0  0  0
M  END
$$$$
default_name
  -OEChem-01062215323D

 23 22  0     1  0  0  0  0  0999 V2000
   -2.6857   -3.6684    0.8743 H   0  0  0  0  0  0  0  0  0  0  0  0
   -2.6617   -2.6474    0.4953 C   0  0  0  0  0  0  0  0  0  0  0  0
   -3.2657   -2.0054    1.1353 H   0  0  0  0  0  0  0  0  0  0  0  0
   -3.0477   -2.6254   -0.5217 H   0  0  0  0  0  0  0  0  0  0  0  0
   -1.2337   -2.1564    0.4993 C   0  0  0  0  0  0  0  0  0  0  0  0
   -0.3327   -2.8864    0.8893 O   0  0  0  0  0  0  0  0  0  0  0  0
   -1.0277   -0.9164    0.0623 N   0  0  0  0  0  0  0  0  0  0  0  0
   -1.8237   -0.3604   -0.2157 H   0  0  0  0  0  0  0  0  0  0  0  0
    0.2713   -0.2414    0.0463 C   0  0  1  0  0  0  0  0  0  0  0  0
    0.7745   -0.4705   -0.8952 H   0  0  0  0  0  0  0  0  0  0  0  0
    0.0339    1.2762    0.1138 C   0  0  0  0  0  0  0  0  0  0  0  0
   -0.5838    1.4983    0.9869 H   0  0  0  0  0  0  0  0  0  0  0  0
    0.9913    1.7901    0.2208 H   0  0  0  0  0  0  0  0  0  0  0  0
   -0.8248    1.8736   -1.3718 S   0  0  0  0  0  0  0  0  0  0  0  0
   -0.9854    3.1408   -0.9718 H   0  0  0  0  0  0  0  0  0  0  0  0
    1.1543   -0.7627    1.1986 C   0  0  0  0  0  0  0  0  0  0  0  0
    1.6822   -1.8720    1.1141 O   0  0  0  0  0  0  0  0  0  0  0  0
    1.3216    0.0297    2.2636 N   0  0  0  0  0  0  0  0  0  0  0  0
    0.8034    0.8961    2.2824 H   0  0  0  0  0  0  0  0  0  0  0  0
    2.1325   -0.3159    3.4298 C   0  0  0  0  0  0  0  0  0  0  0  0
    3.1183   -0.6577    3.1064 H   0  0  0  0  0  0  0  0  0  0  0  0
    2.2486    0.5526    4.0792 H   0  0  0  0  0  0  0  0  0  0  0  0
    1.6497   -1.1211    3.9863 H   0  0  0  0  0  0  0  0  0  0  0  0
  5  6  2  0  0  0  0
  5  7  1  0  0  0  0
  2  3  1  0  0  0  0
  2  4  1  0  0  0  0
  2  5  1  0  0  0  0
  1  2  1  0  0  0  0
 16 17  2  0  0  0  0
 16 18  1  0  0  0  0
 14 15  1  0  0  0  0
 11 12  1  0  0  0  0
 11 13  1  0  0  0  0
 11 14  1  0  0  0  0
  9 10  1  0  0  0  0
  9 11  1  0  0  0  0
  9 16  1  0  0  0  0
  7  8  1  0  0  0  0
  7  9  1  0  0  0  0
 20 21  1  0  0  0  0
 20 22  1  0  0  0  0
 20 23  1  0  0  0  0
 18 19  1  0  0  0  0
 18 20  1  0  0  0  0
M  END
$$$$
default_name
  -OEChem-01062215323D

 23 22  0     1  0  0  0  0  0999 V2000
   -2.6857   -3.6684    0.8743 H   0  0  0  0  0  0  0  0  0  0  0  0
   -2.6617   -2.6474    0.4953 C   0  0  0  0  0  0  0  0  0  0  0  0
   -3.2657   -2.0054    1.1353 H   0  0  0  0  0  0  0  0  0  0  0  0
   -3.0477   -2.6254   -0.5217 H   0  0  0  0  0  0  0  0  0  0  0  0
   -1.2337   -2.1564    0.4993 C   0  0  0  0  0  0  0  0  0  0  0  0
   -0.3327   -2.8864    0.8893 O   0  0  0  0  0  0  0  0  0  0  0  0
   -1.0277   -0.9164    0.0623 N   0  0  0  0  0  0  0  0  0  0  0  0
   -1.8237   -0.3604   -0.2157 H   0  0  0  0  0  0  0  0  0  0  0  0
    0.2713   -0.2414    0.0463 C   0  0  1  0  0  0  0  0  0  0  0  0
    0.7745   -0.4705   -0.8952 H   0  0  0  0  0  0  0  0  0  0  0  0
    0.0339    1.2762    0.1138 C   0  0  0  0  0  0  0  0  0  0  0  0
   -0.5838    1.4983    0.9869 H   0  0  0  0  0  0  0  0  0  0  0  0
    0.9913    1.7901    0.2208 H   0  0  0  0  0  0  0  0  0  0  0  0
   -0.8248    1.8736   -1.3718 S   0  0  0  0  0  0  0  0  0  0  0  0
   -0.9854    3.1408   -0.9718 H   0  0  0  0  0  0  0  0  0  0  0  0
    1.1543   -0.7627    1.1986 C   0  0  0  0  0  0  0  0  0  0  0  0
    1.8980   -1.7267    1.0144 O   0  0  0  0  0  0  0  0  0  0  0  0
    1.0817   -0.1299    2.3753 N   0  0  0  0  0  0  0  0  0  0  0  0
    0.4007    0.6106    2.4618 H   0  0  0  0  0  0  0  0  0  0  0  0
    1.8581   -0.4965    3.5584 C   0  0  0  0  0  0  0  0  0  0  0  0
    2.9132   -0.5932    3.2928 H   0  0  0  0  0  0  0  0  0  0  0  0
    1.7505    0.2657    4.3311 H   0  0  0  0  0  0  0  0  0  0  0  0
    1.5068   -1.4547    3.9449 H   0  0  0  0  0  0  0  0  0  0  0  0
  5  6  2  0  0  0  0
  5  7  1  0  0  0  0
  2  3  1  0  0  0  0
  2  4  1  0  0  0  0
  2  5  1  0  0  0  0
  1  2  1  0  0  0  0
 16 17  2  0  0  0  0
 16 18  1  0  0  0  0
 14 15  1  0  0  0  0
 11 12  1  0  0  0  0
 11 13  1  0  0  0  0
 11 14  1  0  0  0  0
  9 10  1  0  0  0  0
  9 11  1  0  0  0  0
  9 16  1  0  0  0  0
  7  8  1  0  0  0  0
  7  9  1  0  0  0  0
 20 21  1  0  0  0  0
 20 22  1  0  0  0  0
 20 23  1  0  0  0  0
 18 19  1  0  0  0  0
 18 20  1  0  0  0  0
M  END
$$$$
default_name
  -OEChem-01062215323D

 23 22  0     1  0  0  0  0  0999 V2000
   -2.6857   -3.6684    0.8743 H   0  0  0  0  0  0  0  0  0  0  0  0
   -2.6617   -2.6474    0.4953 C   0  0  0  0  0  0  0  0  0  0  0  0
   -3.2657   -2.0054    1.1353 H   0  0  0  0  0  0  0  0  0  0  0  0
   -3.0477   -2.6254   -0.5217 H   0  0  0  0  0  0  0  0  0  0  0  0
   -1.2337   -2.1564    0.4993 C   0  0  0  0  0  0  0  0  0  0  0  0
   -0.3327   -2.8864    0.8893 O   0  0  0  0  0  0  0  0  0  0  0  0
   -1.0277   -0.9164    0.0623 N   0  0  0  0  0  0  0  0  0  0  0  0
   -1.8237   -0.3604   -0.2157 H   0  0  0  0  0  0  0  0  0  0  0  0
    0.2713   -0.2414    0.0463 C   0  0  1  0  0  0  0  0  0  0  0  0
    0.7745   -0.4705   -0.8952 H   0  0  0  0  0  0  0  0  0  0  0  0
    0.0339    1.2762    0.1138 C   0  0  0  0  0  0  0  0  0  0  0  0
   -0.5838    1.4983    0.9869 H   0  0  0  0  0  0  0  0  0  0  0  0
    0.9913    1.7901    0.2208 H   0  0  0  0  0  0  0  0  0  0  0  0
   -0.8248    1.8736   -1.3718 S   0  0  0  0  0  0  0  0  0  0  0  0
   -0.9854    3.1408   -0.9718 H   0  0  0  0  0  0  0  0  0  0  0  0
    1.1543   -0.7627    1.1986 C   0  0  0  0  0  0  0  0  0  0  0  0
    2.0872   -1.5299    0.9585 O   0  0  0  0  0  0  0  0  0  0  0  0
    0.8711   -0.3471    2.4385 N   0  0  0  0  0  0  0  0  0  0  0  0
    0.0513    0.2303    2.5575 H   0  0  0  0  0  0  0  0  0  0  0  0
    1.6167   -0.7430    3.6318 C   0  0  0  0  0  0  0  0  0  0  0  0
    2.6864   -0.5981    3.4644 H   0  0  0  0  0  0  0  0  0  0  0  0
    1.3029   -0.1451    4.4882 H   0  0  0  0  0  0  0  0  0  0  0  0
    1.4369   -1.7985    3.8429 H   0  0  0  0  0  0  0  0  0  0  0  0
  5  6  2  0  0  0  0
  5  7  1  0  0  0  0
  2  3  1  0  0  0  0
  2  4  1  0  0  0  0
  2  5  1  0  0  0  0
  1  2  1  0  0  0  0
 16 17  2  0  0  0  0
 16 18  1  0  0  0  0
 14 15  1  0  0  0  0
 11 12  1  0  0  0  0
 11 13  1  0  0  0  0
 11 14  1  0  0  0  0
  9 10  1  0  0  0  0
  9 11  1  0  0  0  0
  9 16  1  0  0  0  0
  7  8  1  0  0  0  0
  7  9  1  0  0  0  0
 20 21  1  0  0  0  0
 20 22  1  0  0  0  0
 20 23  1  0  0  0  0
 18 19  1  0  0  0  0
 18 20  1  0  0  0  0
M  END
$$$$
default_name
  -OEChem-01062215323D

 23 22  0     1  0  0  0  0  0999 V2000
   -2.6857   -3.6684    0.8743 H   0  0  0  0  0  0  0  0  0  0  0  0
   -2.6617   -2.6474    0.4953 C   0  0  0  0  0  0  0  0  0  0  0  0
   -3.2657   -2.0054    1.1353 H   0  0  0  0  0  0  0  0  0  0  0  0
   -3.0477   -2.6254   -0.5217 H   0  0  0  0  0  0  0  0  0  0  0  0
   -1.2337   -2.1564    0.4993 C   0  0  0  0  0  0  0  0  0  0  0  0
   -0.3327   -2.8864    0.8893 O   0  0  0  0  0  0  0  0  0  0  0  0
   -1.0277   -0.9164    0.0623 N   0  0  0  0  0  0  0  0  0  0  0  0
   -1.8237   -0.3604   -0.2157 H   0  0  0  0  0  0  0  0  0  0  0  0
    0.2713   -0.2414    0.0463 C   0  0  1  0  0  0  0  0  0  0  0  0
    0.7745   -0.4705   -0.8952 H   0  0  0  0  0  0  0  0  0  0  0  0
    0.0339    1.2762    0.1138 C   0  0  0  0  0  0  0  0  0  0  0  0
   -0.5838    1.4983    0.9869 H   0  0  0  0  0  0  0  0  0  0  0  0
    0.9913    1.7901    0.2208 H   0  0  0  0  0  0  0  0  0  0  0  0
   -0.8248    1.8736   -1.3718 S   0  0  0  0  0  0  0  0  0  0  0  0
   -0.9854    3.1408   -0.9718 H   0  0  0  0  0  0  0  0  0  0  0  0
    1.1543   -0.7627    1.1986 C   0  0  0  0  0  0  0  0  0  0  0  0
    2.2367   -1.2949    0.9503 O   0  0  0  0  0  0  0  0  0  0  0  0
    0.7041   -0.6069    2.4489 N   0  0  0  0  0  0  0  0  0  0  0  0
   -0.2210   -0.2187    2.5631 H   0  0  0  0  0  0  0  0  0  0  0  0
    1.4248   -1.0387    3.6451 C   0  0  0  0  0  0  0  0  0  0  0  0
    2.4532   -0.6721    3.6096 H   0  0  0  0  0  0  0  0  0  0  0  0
    0.9362   -0.6517    4.5401 H   0  0  0  0  0  0  0  0  0  0  0  0
    1.4448   -2.1290    3.6874 H   0  0  0  0  0  0  0  0  0  0  0  0
  5  6  2  0  0  0  0
  5  7  1  0  0  0  0
  2  3  1  0  0  0  0
  2  4  1  0  0  0  0
  2  5  1  0  0  0  0
  1  2  1  0  0  0  0
 16 17  2  0  0  0  0
 16 18  1  0  0  0  0
 14 15  1  0  0  0  0
 11 12  1  0  0  0  0
 11 13  1  0  0  0  0
 11 14  1  0  0  0  0
  9 10  1  0  0  0  0
  9 11  1  0  0  0  0
  9 16  1  0  0  0  0
  7  8  1  0  0  0  0
  7  9  1  0  0  0  0
 20 21  1  0  0  0  0
 20 22  1  0  0  0  0
 20 23  1  0  0  0  0
 18 19  1  0  0  0  0
 18 20  1  0  0  0  0
M  END
$$$$
default_name
  -OEChem-01062215323D

 23 22  0     1  0  0  0  0  0999 V2000
   -2.6857   -3.6684    0.8743 H   0  0  0  0  0  0  0  0  0  0  0  0
   -2.6617   -2.6474    0.4953 C   0  0  0  0  0  0  0  0  0  0  0  0
   -3.2657   -2.0054    1.1353 H   0  0  0  0  0  0  0  0  0  0  0  0
   -3.0477   -2.6254   -0.5217 H   0  0  0  0  0  0  0  0  0  0  0  0
   -1.2337   -2.1564    0.4993 C   0  0  0  0  0  0  0  0  0  0  0  0
   -0.3327   -2.8864    0.8893 O   0  0  0  0  0  0  0  0  0  0  0  0
   -1.0277   -0.9164    0.0623 N   0  0  0  0  0  0  0  0  0  0  0  0
   -1.8237   -0.3604   -0.2157 H   0  0  0  0  0  0  0  0  0  0  0  0
    0.2713   -0.2414    0.0463 C   0  0  1  0  0  0  0  0  0  0  0  0
    0.7745   -0.4705   -0.8952 H   0  0  0  0  0  0  0  0  0  0  0  0
    0.0339    1.2762    0.1138 C   0  0  0  0  0  0  0  0  0  0  0  0
   -0.5838    1.4983    0.9869 H   0  0  0  0  0  0  0  0  0  0  0  0
    0.9913    1.7901    0.2208 H   0  0  0  0  0  0  0  0  0  0  0  0
   -0.8248    1.8736   -1.3718 S   0  0  0  0  0  0  0  0  0  0  0  0
   -0.9854    3.1408   -0.9718 H   0  0  0  0  0  0  0  0  0  0  0  0
    1.1543   -0.7627    1.1986 C   0  0  0  0  0  0  0  0  0  0  0  0
    2.3364   -1.0377    0.9902 O   0  0  0  0  0  0  0  0  0  0  0  0
    0.5921   -0.8916    2.4059 N   0  0  0  0  0  0  0  0  0  0  0  0
   -0.3978   -0.7058    2.4781 H   0  0  0  0  0  0  0  0  0  0  0  0
    1.2954   -1.3634    3.5974 C   0  0  0  0  0  0  0  0  0  0  0  0
    2.2296   -0.8102    3.7185 H   0  0  0  0  0  0  0  0  0  0  0  0
    0.6754   -1.2196    4.4830 H   0  0  0  0  0  0  0  0  0  0  0  0
    1.5299   -2.4237    3.4889 H   0  0  0  0  0  0  0  0  0  0  0  0
  5  6  2  0  0  0  0
  5  7  1  0  0  0  0
  2  3  1  0  0  0  0
  2  4  1  0  0  0  0
  2  5  1  0  0  0  0
  1  2  1  0  0  0  0
 16 17  2  0  0  0  0
 16 18  1  0  0  0  0
 14 15  1  0  0  0  0
 11 12  1  0  0  0  0
 11 13  1  0  0  0  0
 11 14  1  0  0  0  0
  9 10  1  0  0  0  0
  9 11  1  0  0  0  0
  9 16  1  0  0  0  0
  7  8  1  0  0  0  0
  7  9  1  0  0  0  0
 20 21  1  0  0  0  0
 20 22  1  0  0  0  0
 20 23  1  0  0  0  0
 18 19  1  0  0  0  0
 18 20  1  0  0  0  0
M  END
$$$$
default_name
  -OEChem-01062215323D

 23 22  0     1  0  0  0  0  0999 V2000
   -2.6857   -3.6684    0.8743 H   0  0  0  0  0  0  0  0  0  0  0  0
   -2.6617   -2.6474    0.4953 C   0  0  0  0  0  0  0  0  0  0  0  0
   -3.2657   -2.0054    1.1353 H   0  0  0  0  0  0  0  0  0  0  0  0
   -3.0477   -2.6254   -0.5217 H   0  0  0  0  0  0  0  0  0  0  0  0
   -1.2337   -2.1564    0.4993 C   0  0  0  0  0  0  0  0  0  0  0  0
   -0.3327   -2.8864    0.8893 O   0  0  0  0  0  0  0  0  0  0  0  0
   -1.0277   -0.9164    0.0623 N   0  0  0  0  0  0  0  0  0  0  0  0
   -1.8237   -0.3604   -0.2157 H   0  0  0  0  0  0  0  0  0  0  0  0
    0.2713   -0.2414    0.0463 C   0  0  1  0  0  0  0  0  0  0  0  0
    0.7745   -0.4705   -0.8952 H   0  0  0  0  0  0  0  0  0  0  0  0
    0.0339    1.2762    0.1138 C   0  0  0  0  0  0  0  0  0  0  0  0
   -0.5838    1.4983    0.9869 H   0  0  0  0  0  0  0  0  0  0  0  0
    0.9913    1.7901    0.2208 H   0  0  0  0  0  0  0  0  0  0  0  0
   -0.8248    1.8736   -1.3718 S   0  0  0  0  0  0  0  0  0  0  0  0
   -0.9854    3.1408   -0.9718 H   0  0  0  0  0  0  0  0  0  0  0  0
    1.1543   -0.7627    1.1986 C   0  0  0  0  0  0  0  0  0  0  0  0
    2.3795   -0.7760    1.0756 O   0  0  0  0  0  0  0  0  0  0  0  0
    0.5427   -1.1820    2.3123 N   0  0  0  0  0  0  0  0  0  0  0  0
   -0.4669   -1.1980    2.3084 H   0  0  0  0  0  0  0  0  0  0  0  0
    1.2374   -1.6949    3.4918 C   0  0  0  0  0  0  0  0  0  0  0  0
    2.0307   -1.0030    3.7836 H   0  0  0  0  0  0  0  0  0  0  0  0
    0.5383   -1.8101    4.3209 H   0  0  0  0  0  0  0  0  0  0  0  0
    1.6864   -2.6624    3.2609 H   0  0  0  0  0  0  0  0  0  0  0  0
  5  6  2  0  0  0  0
  5  7  1  0  0  0  0
  2  3  1  0  0  0  0
  2  4  1  0  0  0  0
  2  5  1  0  0  0  0
  1  2  1  0  0  0  0
 16 17  2  0  0  0  0
 16 18  1  0  0  0  0
 14 15  1  0  0  0  0
 11 12  1  0  0  0  0
 11 13  1  0  0  0  0
 11 14  1  0  0  0  0
  9 10  1  0  0  0  0
  9 11  1  0  0  0  0
  9 16  1  0  0  0  0
  7  8  1  0  0  0  0
  7  9  1  0  0  0  0
 20 21  1  0  0  0  0
 20 22  1  0  0  0  0
 20 23  1  0  0  0  0
 18 19  1  0  0  0  0
 18 20  1  0  0  0  0
M  END
$$$$
default_name
  -OEChem-01062215323D

 23 22  0     1  0  0  0  0  0999 V2000
   -2.6857   -3.6684    0.8743 H   0  0  0  0  0  0  0  0  0  0  0  0
   -2.6617   -2.6474    0.4953 C   0  0  0  0  0  0  0  0  0  0  0  0
   -3.2657   -2.0054    1.1353 H   0  0  0  0  0  0  0  0  0  0  0  0
   -3.0477   -2.6254   -0.5217 H   0  0  0  0  0  0  0  0  0  0  0  0
   -1.2337   -2.1564    0.4993 C   0  0  0  0  0  0  0  0  0  0  0  0
   -0.3327   -2.8864    0.8893 O   0  0  0  0  0  0  0  0  0  0  0  0
   -1.0277   -0.9164    0.0623 N   0  0  0  0  0  0  0  0  0  0  0  0
   -1.8237   -0.3604   -0.2157 H   0  0  0  0  0  0  0  0  0  0  0  0
    0.2713   -0.2414    0.0463 C   0  0  1  0  0  0  0  0  0  0  0  0
    0.7745   -0.4705   -0.8952 H   0  0  0  0  0  0  0  0  0  0  0  0
    0.0339    1.2762    0.1138 C   0  0  0  0  0  0  0  0  0  0  0  0
   -0.5838    1.4983    0.9869 H   0  0  0  0  0  0  0  0  0  0  0  0
    0.9913    1.7901    0.2208 H   0  0  0  0  0  0  0  0  0  0  0  0
   -0.8248    1.8736   -1.3718 S   0  0  0  0  0  0  0  0  0  0  0  0
   -0.9854    3.1408   -0.9718 H   0  0  0  0  0  0  0  0  0  0  0  0
    1.1543   -0.7627    1.1986 C   0  0  0  0  0  0  0  0  0  0  0  0
    2.3630   -0.5275    1.2006 O   0  0  0  0  0  0  0  0  0  0  0  0
    0.5594   -1.4582    2.1746 N   0  0  0  0  0  0  0  0  0  0  0  0
   -0.4236   -1.6616    2.0655 H   0  0  0  0  0  0  0  0  0  0  0  0
    1.2547   -2.0108    3.3357 C   0  0  0  0  0  0  0  0  0  0  0  0
    1.8702   -1.2373    3.8006 H   0  0  0  0  0  0  0  0  0  0  0  0
    0.5342   -2.3830    4.0649 H   0  0  0  0  0  0  0  0  0  0  0  0
    1.9037   -2.8290    3.0190 H   0  0  0  0  0  0  0  0  0  0  0  0
  5  6  2  0  0  0  0
  5  7  1  0  0  0  0
  2  3  1  0  0  0  0
  2  4  1  0  0  0  0
  2  5  1  0  0  0  0
  1  2  1  0  0  0  0
 16 17  2  0  0  0  0
 16 18  1  0  0  0  0
 14 15  1  0  0  0  0
 11 12  1  0  0  0  0
 11 13  1  0  0  0  0
 11 14  1  0  0  0  0
  9 10  1  0  0  0  0
  9 11  1  0  0  0  0
  9 16  1  0  0  0  0
  7  8  1  0  0  0  0
  7  9  1  0  0  0  0
 20 21  1  0  0  0  0
 20 22  1  0  0  0  0
 20 23  1  0  0  0  0
 18 19  1  0  0  0  0
 18 20  1  0  0  0  0
M  END
$$$$
default_name
  -OEChem-01062215323D

 23 22  0     1  0  0  0  0  0999 V2000
   -2.6857   -3.6684    0.8743 H   0  0  0  0  0  0  0  0  0  0  0  0
   -2.6617   -2.6474    0.4953 C   0  0  0  0  0  0  0  0  0  0  0  0
   -3.2657   -2.0054    1.1353 H   0  0  0  0  0  0  0  0  0  0  0  0
   -3.0477   -2.6254   -0.5217 H   0  0  0  0  0  0  0  0  0  0  0  0
   -1.2337   -2.1564    0.4993 C   0  0  0  0  0  0  0  0  0  0  0  0
   -0.3327   -2.8864    0.8893 O   0  0  0  0  0  0  0  0  0  0  0  0
   -1.0277   -0.9164    0.0623 N   0  0  0  0  0  0  0  0  0  0  0  0
   -1.8237   -0.3604   -0.2157 H   0  0  0  0  0  0  0  0  0  0  0  0
    0.2713   -0.2414    0.0463 C   0  0  1  0  0  0  0  0  0  0  0  0
    0.7745   -0.4705   -0.8952 H   0  0  0  0  0  0  0  0  0  0  0  0
    0.0339    1.2762    0.1138 C   0  0  0  0  0  0  0  0  0  0  0  0
   -0.5838    1.4983    0.9869 H   0  0  0  0  0  0  0  0  0  0  0  0
    0.9913    1.7901    0.2208 H   0  0  0  0  0  0  0  0  0  0  0  0
   -0.8248    1.8736   -1.3718 S   0  0  0  0  0  0  0  0  0  0  0  0
   -0.9854    3.1408   -0.9718 H   0  0  0  0  0  0  0  0  0  0  0  0
    1.1543   -0.7627    1.1986 C   0  0  0  0  0  0  0  0  0  0  0  0
    2.2882   -0.3092    1.3567 O   0  0  0  0  0  0  0  0  0  0  0  0
    0.6409   -1.7013    2.0022 N   0  0  0  0  0  0  0  0  0  0  0  0
   -0.2709   -2.0651    1.7660 H   0  0  0  0  0  0  0  0  0  0  0  0
    1.3462   -2.2893    3.1396 C   0  0  0  0  0  0  0  0  0  0  0  0
    1.7590   -1.4972    3.7682 H   0  0  0  0  0  0  0  0  0  0  0  0
    0.6634   -2.8992    3.7323 H   0  0  0  0  0  0  0  0  0  0  0  0
    2.1670   -2.9121    2.7797 H   0  0  0  0  0  0  0  0  0  0  0  0
  5  6  2  0  0  0  0
  5  7  1  0  0  0  0
  2  3  1  0  0  0  0
  2  4  1  0  0  0  0
  2  5  1  0  0  0  0
  1  2  1  0  0  0  0
 16 17  2  0  0  0  0
 16 18  1  0  0  0  0
 14 15  1  0  0  0  0
 11 12  1  0  0  0  0
 11 13  1  0  0  0  0
 11 14  1  0  0  0  0
  9 10  1  0  0  0  0
  9 11  1  0  0  0  0
  9 16  1  0  0  0  0
  7  8  1  0  0  0  0
  7  9  1  0  0  0  0
 20 21  1  0  0  0  0
 20 22  1  0  0  0  0
 20 23  1  0  0  0  0
 18 19  1  0  0  0  0
 18 20  1  0  0  0  0
M  END
$$$$
default_name
  -OEChem-01062215323D

 23 22  0     1  0  0  0  0  0999 V2000
   -2.6857   -3.6684    0.8743 H   0  0  0  0  0  0  0  0  0  0  0  0
   -2.6617   -2.6474    0.4953 C   0  0  0  0  0  0  0  0  0  0  0  0
   -3.2657   -2.0054    1.1353 H   0  0  0  0  0  0  0  0  0  0  0  0
   -3.0477   -2.6254   -0.5217 H   0  0  0  0  0  0  0  0  0  0  0  0
   -1.2337   -2.1564    0.4993 C   0  0  0  0  0  0  0  0  0  0  0  0
   -0.3327   -2.8864    0.8893 O   0  0  0  0  0  0  0  0  0  0  0  0
   -1.0277   -0.9164    0.0623 N   0  0  0  0  0  0  0  0  0  0  0  0
   -1.8237   -0.3604   -0.2157 H   0  0  0  0  0  0  0  0  0  0  0  0
    0.2713   -0.2414    0.0463 C   0  0  1  0  0  0  0  0  0  0  0  0
    0.7745   -0.4705   -0.8952 H   0  0  0  0  0  0  0  0  0  0  0  0
    0.0339    1.2762    0.1138 C   0  0  0  0  0  0  0  0  0  0  0  0
   -0.5838    1.4983    0.9869 H   0  0  0  0  0  0  0  0  0  0  0  0
    0.9913    1.7901    0.2208 H   0  0  0  0  0  0  0  0  0  0  0  0
   -0.8248    1.8736   -1.3718 S   0  0  0  0  0  0  0  0  0  0  0  0
   -0.9854    3.1408   -0.9718 H   0  0  0  0  0  0  0  0  0  0  0  0
    1.1543   -0.7627    1.1986 C   0  0  0  0  0  0  0  0  0  0  0  0
    2.1600   -0.1359    1.5334 O   0  0  0  0  0  0  0  0  0  0  0  0
    0.7818   -1.8948    1.8067 N   0  0  0  0  0  0  0  0  0  0  0  0
   -0.0192   -2.3809    1.4303 H   0  0  0  0  0  0  0  0  0  0  0  0
    1.5055   -2.5117    2.9169 C   0  0  0  0  0  0  0  0  0  0  0  0
    1.7047   -1.7649    3.6887 H   0  0  0  0  0  0  0  0  0  0  0  0
    0.9171   -3.3236    3.3459 H   0  0  0  0  0  0  0  0  0  0  0  0
    2.4583   -2.9059    2.5593 H   0  0  0  0  0  0  0  0  0  0  0  0
  5  6  2  0  0  0  0
  5  7  1  0  0  0  0
  2  3  1  0  0  0  0
  2  4  1  0  0  0  0
  2  5  1  0  0  0  0
  1  2  1  0  0  0  0
 16 17  2  0  0  0  0
 16 18  1  0  0  0  0
 14 15  1  0  0  0  0
 11 12  1  0  0  0  0
 11 13  1  0  0  0  0
 11 14  1  0  0  0  0
  9 10  1  0  0  0  0
  9 11  1  0  0  0  0
  9 16  1  0  0  0  0
  7  8  1  0  0  0  0
  7  9  1  0  0  0  0
 20 21  1  0  0  0  0
 20 22  1  0  0  0  0
 20 23  1  0  0  0  0
 18 19  1  0  0  0  0
 18 20  1  0  0  0  0
M  END
$$$$
default_name
  -OEChem-01062215323D

 23 22  0     1  0  0  0  0  0999 V2000
   -2.6857   -3.6684    0.8743 H   0  0  0  0  0  0  0  0  0  0  0  0
   -2.6617   -2.6474    0.4953 C   0  0  0  0  0  0  0  0  0  0  0  0
   -3.2657   -2.0054    1.1353 H   0  0  0  0  0  0  0  0  0  0  0  0
   -3.0477   -2.6254   -0.5217 H   0  0  0  0  0  0  0  0  0  0  0  0
   -1.2337   -2.1564    0.4993 C   0  0  0  0  0  0  0  0  0  0  0  0
   -0.3327   -2.8864    0.8893 O   0  0  0  0  0  0  0  0  0  0  0  0
   -1.0277   -0.9164    0.0623 N   0  0  0  0  0  0  0  0  0  0  0  0
   -1.8237   -0.3604   -0.2157 H   0  0  0  0  0  0  0  0  0  0  0  0
    0.2713   -0.2414    0.0463 C   0  0  1  0  0  0  0  0  0  0  0  0
    0.7745   -0.4705   -0.8952 H   0  0  0  0  0  0  0  0  0  0  0  0
    0.0339    1.2762    0.1138 C   0  0  0  0  0  0  0  0  0  0  0  0
   -0.5838    1.4983    0.9869 H   0  0  0  0  0  0  0  0  0  0  0  0
    0.9913    1.7901    0.2208 H   0  0  0  0  0  0  0  0  0  0  0  0
   -0.8248    1.8736   -1.3718 S   0  0  0  0  0  0  0  0  0  0  0  0
   -0.9854    3.1408   -0.9718 H   0  0  0  0  0  0  0  0  0  0  0  0
    1.1543   -0.7627    1.1986 C   0  0  0  0  0  0  0  0  0  0  0  0
    1.9872   -0.0195    1.7184 O   0  0  0  0  0  0  0  0  0  0  0  0
    0.9723   -2.0256    1.6016 N   0  0  0  0  0  0  0  0  0  0  0  0
    0.3143   -2.5876    1.0812 H   0  0  0  0  0  0  0  0  0  0  0  0
    1.7219   -2.6627    2.6828 C   0  0  0  0  0  0  0  0  0  0  0  0
    1.7110   -2.0222    3.5676 H   0  0  0  0  0  0  0  0  0  0  0  0
    1.2781   -3.6272    2.9320 H   0  0  0  0  0  0  0  0  0  0  0  0
    2.7577   -2.8110    2.3728 H   0  0  0  0  0  0  0  0  0  0  0  0
  5  6  2  0  0  0  0
  5  7  1  0  0  0  0
  2  3  1  0  0  0  0
  2  4  1  0  0  0  0
  2  5  1  0  0  0  0
  1  2  1  0  0  0  0
 16 17  2  0  0  0  0
 16 18  1  0  0  0  0
 14 15  1  0  0  0  0
 11 12  1  0  0  0  0
 11 13  1  0  0  0  0
 11 14  1  0  0  0  0
  9 10  1  0  0  0  0
  9 11  1  0  0  0  0
  9 16  1  0  0  0  0
  7  8  1  0  0  0  0
  7  9  1  0  0  0  0
 20 21  1  0  0  0  0
 20 22  1  0  0  0  0
 20 23  1  0  0  0  0
 18 19  1  0  0  0  0
 18 20  1  0  0  0  0
M  END
$$$$
default_name
  -OEChem-01062215323D

 23 22  0     1  0  0  0  0  0999 V2000
   -2.6857   -3.6684    0.8743 H   0  0  0  0  0  0  0  0  0  0  0  0
   -2.6617   -2.6474    0.4953 C   0  0  0  0  0  0  0  0  0  0  0  0
   -3.2657   -2.0054    1.1353 H   0  0  0  0  0  0  0  0  0  0  0  0
   -3.0477   -2.6254   -0.5217 H   0  0  0  0  0  0  0  0  0  0  0  0
   -1.2337   -2.1564    0.4993 C   0  0  0  0  0  0  0  0  0  0  0  0
   -0.3327   -2.8864    0.8893 O   0  0  0  0  0  0  0  0  0  0  0  0
   -1.0277   -0.9164    0.0623 N   0  0  0  0  0  0  0  0  0  0  0  0
   -1.8237   -0.3604   -0.2157 H   0  0  0  0  0  0  0  0  0  0  0  0
    0.2713   -0.2414    0.0463 C   0  0  1  0  0  0  0  0  0  0  0  0
    0.7745   -0.4705   -0.8952 H   0  0  0  0  0  0  0  0  0  0  0  0
    0.0339    1.2762    0.1138 C   0  0  0  0  0  0  0  0  0  0  0  0
   -0.5838    1.4983    0.9869 H   0  0  0  0  0  0  0  0  0  0  0  0
    0.9913    1.7901    0.2208 H   0  0  0  0  0  0  0  0  0  0  0  0
   -0.8248    1.8736   -1.3718 S   0  0  0  0  0  0  0  0  0  0  0  0
   -0.9854    3.1408   -0.9718 H   0  0  0  0  0  0  0  0  0  0  0  0
    1.1543   -0.7627    1.1986 C   0  0  0  0  0  0  0  0  0  0  0  0
    1.7816    0.0322    1.8993 O   0  0  0  0  0  0  0  0  0  0  0  0
    1.1996   -2.0846    1.4007 N   0  0  0  0  0  0  0  0  0  0  0  0
    0.7070   -2.6710    0.7426 H   0  0  0  0  0  0  0  0  0  0  0  0
    1.9806   -2.7320    2.4532 C   0  0  0  0  0  0  0  0  0  0  0  0
    1.7773   -2.2516    3.4129 H   0  0  0  0  0  0  0  0  0  0  0  0
    1.7216   -3.7894    2.5187 H   0  0  0  0  0  0  0  0  0  0  0  0
    3.0449   -2.6338    2.2328 H   0  0  0  0  0  0  0  0  0  0  0  0
  5  6  2  0  0  0  0
  5  7  1  0  0  0  0
  2  3  1  0  0  0  0
  2  4  1  0  0  0  0
  2  5  1  0  0  0  0
  1  2  1  0  0  0  0
 16 17  2  0  0  0  0
 16 18  1  0  0  0  0
 14 15  1  0  0  0  0
 11 12  1  0  0  0  0
 11 13  1  0  0  0  0
 11 14  1  0  0  0  0
  9 10  1  0  0  0  0
  9 11  1  0  0  0  0
  9 16  1  0  0  0  0
  7  8  1  0  0  0  0
  7  9  1  0  0  0  0
 20 21  1  0  0  0  0
 20 22  1  0  0  0  0
 20 23  1  0  0  0  0
 18 19  1  0  0  0  0
 18 20  1  0  0  0  0
M  END
$$$$
default_name
  -OEChem-01062215323D

 23 22  0     1  0  0  0  0  0999 V2000
   -2.6857   -3.6684    0.8743 H   0  0  0  0  0  0  0  0  0  0  0  0
   -2.6617   -2.6474    0.4953 C   0  0  0  0  0  0  0  0  0  0  0  0
   -3.2657   -2.0054    1.1353 H   0  0  0  0  0  0  0  0  0  0  0  0
   -3.0477   -2.6254   -0.5217 H   0  0  0  0  0  0  0  0  0  0  0  0
   -1.2337   -2.1564    0.4993 C   0  0  0  0  0  0  0  0  0  0  0  0
   -0.3327   -2.8864    0.8893 O   0  0  0  0  0  0  0  0  0  0  0  0
   -1.0277   -0.9164    0.0623 N   0  0  0  0  0  0  0  0  0  0  0  0
   -1.8237   -0.3604   -0.2157 H   0  0  0  0  0  0  0  0  0  0  0  0
    0.2713   -0.2414    0.0463 C   0  0  1  0  0  0  0  0  0  0  0  0
    0.7745   -0.4705   -0.8952 H   0  0  0  0  0  0  0  0  0  0  0  0
    0.0339    1.2762    0.1138 C   0  0  0  0  0  0  0  0  0  0  0  0
   -0.5838    1.4983    0.9869 H   0  0  0  0  0  0  0  0  0  0  0  0
    0.9913    1.7901    0.2208 H   0  0  0  0  0  0  0  0  0  0  0  0
   -0.8248    1.8736   -1.3718 S   0  0  0  0  0  0  0  0  0  0  0  0
   -0.9854    3.1408   -0.9718 H   0  0  0  0  0  0  0  0  0  0  0  0
    1.1543   -0.7627    1.1986 C   0  0  0  0  0  0  0  0  0  0  0  0
    1.5572    0.0155    2.0637 O   0  0  0  0  0  0  0  0  0  0  0  0
    1.4481   -2.0679    1.2178 N   0  0  0  0  0  0  0  0  0  0  0  0
    1.1320   -2.6254    0.4375 H   0  0  0  0  0  0  0  0  0  0  0  0
    2.2640   -2.7149    2.2438 C   0  0  0  0  0  0  0  0  0  0  0  0
    1.8993   -2.4374    3.2354 H   0  0  0  0  0  0  0  0  0  0  0  0
    2.2175   -3.7990    2.1344 H   0  0  0  0  0  0  0  0  0  0  0  0
    3.3003   -2.3864    2.1491 H   0  0  0  0  0  0  0  0  0  0  0  0
  5  6  2  0  0  0  0
  5  7  1  0  0  0  0
  2  3  1  0  0  0  0
  2  4  1  0  0  0  0
  2  5  1  0  0  0  0
  1  2  1  0  0  0  0
 16 17  2  0  0  0  0
 16 18  1  0  0  0  0
 14 15  1  0  0  0  0
 11 12  1  0  0  0  0
 11 13  1  0  0  0  0
 11 14  1  0  0  0  0
  9 10  1  0  0  0  0
  9 11  1  0  0  0  0
  9 16  1  0  0  0  0
  7  8  1  0  0  0  0
  7  9  1  0  0  0  0
 20 21  1  0  0  0  0
 20 22  1  0  0  0  0
 20 23  1  0  0  0  0
 18 19  1  0  0  0  0
 18 20  1  0  0  0  0
M  END
$$$$
default_name
  -OEChem-01062215323D

 23 22  0     1  0  0  0  0  0999 V2000
   -2.6857   -3.6684    0.8743 H   0  0  0  0  0  0  0  0  0  0  0  0
   -2.6617   -2.6474    0.4953 C   0  0  0  0  0  0  0  0  0  0  0  0
   -3.2657   -2.0054    1.1353 H   0  0  0  0  0  0  0  0  0  0  0  0
   -3.0477   -2.6254   -0.5217 H   0  0  0  0  0  0  0  0  0  0  0  0
   -1.2337   -2.1564    0.4993 C   0  0  0  0  0  0  0  0  0  0  0  0
   -0.3327   -2.8864    0.8893 O   0  0  0  0  0  0  0  0  0  0  0  0
   -1.0277   -0.9164    0.0623 N   0  0  0  0  0  0  0  0  0  0  0  0
   -1.8237   -0.3604   -0.2157 H   0  0  0  0  0  0  0  0  0  0  0  0
    0.2713   -0.2414    0.0463 C   0  0  1  0  0  0  0  0  0  0  0  0
    0.7745   -0.4705   -0.8952 H   0  0  0  0  0  0  0  0  0  0  0  0
    0.0339    1.2762    0.1138 C   0  0  0  0  0  0  0  0  0  0  0  0
   -0.5838    1.4983    0.9869 H   0  0  0  0  0  0  0  0  0  0  0  0
    0.9913    1.7901    0.2208 H   0  0  0  0  0  0  0  0  0  0  0  0
   -0.8248    1.8736   -1.3718 S   0  0  0  0  0  0  0  0  0  0  0  0
   -0.9854    3.1408   -0.9718 H   0  0  0  0  0  0  0  0  0  0  0  0
    1.1543   -0.7627    1.1986 C   0  0  0  0  0  0  0  0  0  0  0  0
    1.3294   -0.0684    2.2004 O   0  0  0  0  0  0  0  0  0  0  0  0
    1.7010   -1.9767    1.0653 N   0  0  0  0  0  0  0  0  0  0  0  0
    1.5604   -2.4541    0.1867 H   0  0  0  0  0  0  0  0  0  0  0  0
    2.5527   -2.6126    2.0688 C   0  0  0  0  0  0  0  0  0  0  0  0
    2.0686   -2.5670    3.0470 H   0  0  0  0  0  0  0  0  0  0  0  0
    2.7321   -3.6555    1.8050 H   0  0  0  0  0  0  0  0  0  0  0  0
    3.5065   -2.0856    2.1272 H   0  0  0  0  0  0  0  0  0  0  0  0
  5  6  2  0  0  0  0
  5  7  1  0  0  0  0
  2  3  1  0  0  0  0
  2  4  1  0  0  0  0
  2  5  1  0  0  0  0
  1  2  1  0  0  0  0
 16 17  2  0  0  0  0
 16 18  1  0  0  0  0
 14 15  1  0  0  0  0
 11 12  1  0  0  0  0
 11 13  1  0  0  0  0
 11 14  1  0  0  0  0
  9 10  1  0  0  0  0
  9 11  1  0  0  0  0
  9 16  1  0  0  0  0
  7  8  1  0  0  0  0
  7  9  1  0  0  0  0
 20 21  1  0  0  0  0
 20 22  1  0  0  0  0
 20 23  1  0  0  0  0
 18 19  1  0  0  0  0
 18 20  1  0  0  0  0
M  END
$$$$
default_name
  -OEChem-01062215323D

 23 22  0     1  0  0  0  0  0999 V2000
   -2.6857   -3.6684    0.8743 H   0  0  0  0  0  0  0  0  0  0  0  0
   -2.6617   -2.6474    0.4953 C   0  0  0  0  0  0  0  0  0  0  0  0
   -3.2657   -2.0054    1.1353 H   0  0  0  0  0  0  0  0  0  0  0  0
   -3.0477   -2.6254   -0.5217 H   0  0  0  0  0  0  0  0  0  0  0  0
   -1.2337   -2.1564    0.4993 C   0  0  0  0  0  0  0  0  0  0  0  0
   -0.3327   -2.8864    0.8893 O   0  0  0  0  0  0  0  0  0  0  0  0
   -1.0277   -0.9164    0.0623 N   0  0  0  0  0  0  0  0  0  0  0  0
   -1.8237   -0.3604   -0.2157 H   0  0  0  0  0  0  0  0  0  0  0  0
    0.2713   -0.2414    0.0463 C   0  0  1  0  0  0  0  0  0  0  0  0
    0.7745   -0.4705   -0.8952 H   0  0  0  0  0  0  0  0  0  0  0  0
    0.0339    1.2762    0.1138 C   0  0  0  0  0  0  0  0  0  0  0  0
   -0.5838    1.4983    0.9869 H   0  0  0  0  0  0  0  0  0  0  0  0
    0.9913    1.7901    0.2208 H   0  0  0  0  0  0  0  0  0  0  0  0
   -0.8248    1.8736   -1.3718 S   0  0  0  0  0  0  0  0  0  0  0  0
   -0.9854    3.1408   -0.9718 H   0  0  0  0  0  0  0  0  0  0  0  0
    1.1543   -0.7627    1.1986 C   0  0  0  0  0  0  0  0  0  0  0  0
    1.1135   -0.2137    2.3001 O   0  0  0  0  0  0  0  0  0  0  0  0
    1.9409   -1.8170    0.9537 N   0  0  0  0  0  0  0  0  0  0  0  0
    1.9631   -2.1686    0.0074 H   0  0  0  0  0  0  0  0  0  0  0  0
    2.8271   -2.4320    1.9402 C   0  0  0  0  0  0  0  0  0  0  0  0
    2.2737   -2.6316    2.8607 H   0  0  0  0  0  0  0  0  0  0  0  0
    3.2301   -3.3686    1.5532 H   0  0  0  0  0  0  0  0  0  0  0  0
    3.6495   -1.7519    2.1686 H   0  0  0  0  0  0  0  0  0  0  0  0
  5  6  2  0  0  0  0
  5  7  1  0  0  0  0
  2  3  1  0  0  0  0
  2  4  1  0  0  0  0
  2  5  1  0  0  0  0
  1  2  1  0  0  0  0
 16 17  2  0  0  0  0
 16 18  1  0  0  0  0
 14 15  1  0  0  0  0
 11 12  1  0  0  0  0
 11 13  1  0  0  0  0
 11 14  1  0  0  0  0
  9 10  1  0  0  0  0
  9 11  1  0  0  0  0
  9 16  1  0  0  0  0
  7  8  1  0  0  0  0
  7  9  1  0  0  0  0
 20 21  1  0  0  0  0
 20 22  1  0  0  0  0
 20 23  1  0  0  0  0
 18 19  1  0  0  0  0
 18 20  1  0  0  0  0
M  END
$$$$
default_name
  -OEChem-01062215323D

 23 22  0     1  0  0  0  0  0999 V2000
   -2.6857   -3.6684    0.8743 H   0  0  0  0  0  0  0  0  0  0  0  0
   -2.6617   -2.6474    0.4953 C   0  0  0  0  0  0  0  0  0  0  0  0
   -3.2657   -2.0054    1.1353 H   0  0  0  0  0  0  0  0  0  0  0  0
   -3.0477   -2.6254   -0.5217 H   0  0  0  0  0  0  0  0  0  0  0  0
   -1.2337   -2.1564    0.4993 C   0  0  0  0  0  0  0  0  0  0  0  0
   -0.3327   -2.8864    0.8893 O   0  0  0  0  0  0  0  0  0  0  0  0
   -1.0277   -0.9164    0.0623 N   0  0  0  0  0  0  0  0  0  0  0  0
   -1.8237   -0.3604   -0.2157 H   0  0  0  0  0  0  0  0  0  0  0  0
    0.2713   -0.2414    0.0463 C   0  0  1  0  0  0  0  0  0  0  0  0
    0.7745   -0.4705   -0.8952 H   0  0  0  0  0  0  0  0  0  0  0  0
    0.0339    1.2762    0.1138 C   0  0  0  0  0  0  0  0  0  0  0  0
   -0.5838    1.4983    0.9869 H   0  0  0  0  0  0  0  0  0  0  0  0
    0.9913    1.7901    0.2208 H   0  0  0  0  0  0  0  0  0  0  0  0
   -0.8248    1.8736   -1.3718 S   0  0  0  0  0  0  0  0  0  0  0  0
   -0.9854    3.1408   -0.9718 H   0  0  0  0  0  0  0  0  0  0  0  0
    1.1543   -0.7627    1.1986 C   0  0  0  0  0  0  0  0  0  0  0  0
    0.9243   -0.4105    2.3559 O   0  0  0  0  0  0  0  0  0  0  0  0
    2.1515   -1.5999    0.8905 N   0  0  0  0  0  0  0  0  0  0  0  0
    2.3125   -1.7883   -0.0884 H   0  0  0  0  0  0  0  0  0  0  0  0
    3.0685   -2.1855    1.8668 C   0  0  0  0  0  0  0  0  0  0  0  0
    2.5006   -2.6267    2.6891 H   0  0  0  0  0  0  0  0  0  0  0  0
    3.6777   -2.9579    1.3960 H   0  0  0  0  0  0  0  0  0  0  0  0
    3.7194   -1.4081    2.2705 H   0  0  0  0  0  0  0  0  0  0  0  0
  5  6  2  0  0  0  0
  5  7  1  0  0  0  0
  2  3  1  0  0  0  0
  2  4  1  0  0  0  0
  2  5  1  0  0  0  0
  1  2  1  0  0  0  0
 16 17  2  0  0  0  0
 16 18  1  0  0  0  0
 14 15  1  0  0  0  0
 11 12  1  0  0  0  0
 11 13  1  0  0  0  0
 11 14  1  0  0  0  0
  9 10  1  0  0  0  0
  9 11  1  0  0  0  0
  9 16  1  0  0  0  0
  7  8  1  0  0  0  0
  7  9  1  0  0  0  0
 20 21  1  0  0  0  0
 20 22  1  0  0  0  0
 20 23  1  0  0  0  0
 18 19  1  0  0  0  0
 18 20  1  0  0  0  0
M  END
$$$$
default_name
  -OEChem-01062215323D

 23 22  0     1  0  0  0  0  0999 V2000
   -2.6857   -3.6684    0.8743 H   0  0  0  0  0  0  0  0  0  0  0  0
   -2.6617   -2.6474    0.4953 C   0  0  0  0  0  0  0  0  0  0  0  0
   -3.2657   -2.0054    1.1353 H   0  0  0  0  0  0  0  0  0  0  0  0
   -3.0477   -2.6254   -0.5217 H   0  0  0  0  0  0  0  0  0  0  0  0
   -1.2337   -2.1564    0.4993 C   0  0  0  0  0  0  0  0  0  0  0  0
   -0.3327   -2.8864    0.8893 O   0  0  0  0  0  0  0  0  0  0  0  0
   -1.0277   -0.9164    0.0623 N   0  0  0  0  0  0  0  0  0  0  0  0
   -1.8237   -0.3604   -0.2157 H   0  0  0  0  0  0  0  0  0  0  0  0
    0.2713   -0.2414    0.0463 C   0  0  1  0  0  0  0  0  0  0  0  0
    0.7745   -0.4705   -0.8952 H   0  0  0  0  0  0  0  0  0  0  0  0
    0.0339    1.2762    0.1138 C   0  0  0  0  0  0  0  0  0  0  0  0
   -0.5838    1.4983    0.9869 H   0  0  0  0  0  0  0  0  0  0  0  0
    0.9913    1.7901    0.2208 H   0  0  0  0  0  0  0  0  0  0  0  0
   -0.8248    1.8736   -1.3718 S   0  0  0  0  0  0  0  0  0  0  0  0
   -0.9854    3.1408   -0.9718 H   0  0  0  0  0  0  0  0  0  0  0  0
    1.1543   -0.7627    1.1986 C   0  0  0  0  0  0  0  0  0  0  0  0
    0.7748   -0.6456    2.3642 O   0  0  0  0  0  0  0  0  0  0  0  0
    2.3185   -1.3401    0.8801 N   0  0  0  0  0  0  0  0  0  0  0  0
    2.5848   -1.3394   -0.0939 H   0  0  0  0  0  0  0  0  0  0  0  0
    3.2604   -1.8898    1.8535 C   0  0  0  0  0  0  0  0  0  0  0  0
    2.7337   -2.5526    2.5439 H   0  0  0  0  0  0  0  0  0  0  0  0
    4.0444   -2.4513    1.3442 H   0  0  0  0  0  0  0  0  0  0  0  0
    3.7115   -1.0776    2.4261 H   0  0  0  0  0  0  0  0  0  0  0  0
  5  6  2  0  0  0  0
  5  7  1  0  0  0  0
  2  3  1  0  0  0  0
  2  4  1  0  0  0  0
  2  5  1  0  0  0  0
  1  2  1  0  0  0  0
 16 17  2  0  0  0  0
 16 18  1  0  0  0  0
 14 15  1  0  0  0  0
 11 12  1  0  0  0  0
 11 13  1  0  0  0  0
 11 14  1  0  0  0  0
  9 10  1  0  0  0  0
  9 11  1  0  0  0  0
  9 16  1  0  0  0  0
  7  8  1  0  0  0  0
  7  9  1  0  0  0  0
 20 21  1  0  0  0  0
 20 22  1  0  0  0  0
 20 23  1  0  0  0  0
 18 19  1  0  0  0  0
 18 20  1  0  0  0  0
M  END
$$$$
default_name
  -OEChem-01062215323D

 23 22  0     1  0  0  0  0  0999 V2000
   -2.6857   -3.6684    0.8743 H   0  0  0  0  0  0  0  0  0  0  0  0
   -2.6617   -2.6474    0.4953 C   0  0  0  0  0  0  0  0  0  0  0  0
   -3.2657   -2.0054    1.1353 H   0  0  0  0  0  0  0  0  0  0  0  0
   -3.0477   -2.6254   -0.5217 H   0  0  0  0  0  0  0  0  0  0  0  0
   -1.2337   -2.1564    0.4993 C   0  0  0  0  0  0  0  0  0  0  0  0
   -0.3327   -2.8864    0.8893 O   0  0  0  0  0  0  0  0  0  0  0  0
   -1.0277   -0.9164    0.0623 N   0  0  0  0  0  0  0  0  0  0  0  0
   -1.8237   -0.3604   -0.2157 H   0  0  0  0  0  0  0  0  0  0  0  0
    0.2713   -0.2414    0.0463 C   0  0  1  0  0  0  0  0  0  0  0  0
    0.7745   -0.4705   -0.8952 H   0  0  0  0  0  0  0  0  0  0  0  0
    0.0339    1.2762    0.1138 C   0  0  0  0  0  0  0  0  0  0  0  0
   -0.5838    1.4983    0.9869 H   0  0  0  0  0  0  0  0  0  0  0  0
    0.9913    1.7901    0.2208 H   0  0  0  0  0  0  0  0  0  0  0  0
   -0.8248    1.8736   -1.3718 S   0  0  0  0  0  0  0  0  0  0  0  0
   -0.9854    3.1408   -0.9718 H   0  0  0  0  0  0  0  0  0  0  0  0
    1.1543   -0.7627    1.1986 C   0  0  0  0  0  0  0  0  0  0  0  0
    0.6751   -0.9027    2.3243 O   0  0  0  0  0  0  0  0  0  0  0  0
    2.4305   -1.0553    0.9231 N   0  0  0  0  0  0  0  0  0  0  0  0
    2.7616   -0.8522   -0.0090 H   0  0  0  0  0  0  0  0  0  0  0  0
    3.3897   -1.5651    1.9013 C   0  0  0  0  0  0  0  0  0  0  0  0
    2.9574   -2.4145    2.4350 H   0  0  0  0  0  0  0  0  0  0  0  0
    4.3052   -1.8834    1.4012 H   0  0  0  0  0  0  0  0  0  0  0  0
    3.6264   -0.7830    2.6246 H   0  0  0  0  0  0  0  0  0  0  0  0
  5  6  2  0  0  0  0
  5  7  1  0  0  0  0
  2  3  1  0  0  0  0
  2  4  1  0  0  0  0
  2  5  1  0  0  0  0
  1  2  1  0  0  0  0
 16 17  2  0  0  0  0
 16 18  1  0  0  0  0
 14 15  1  0  0  0  0
 11 12  1  0  0  0  0
 11 13  1  0  0  0  0
 11 14  1  0  0  0  0
  9 10  1  0  0  0  0
  9 11  1  0  0  0  0
  9 16  1  0  0  0  0
  7  8  1  0  0  0  0
  7  9  1  0  0  0  0
 20 21  1  0  0  0  0
 20 22  1  0  0  0  0
 20 23  1  0  0  0  0
 18 19  1  0  0  0  0
 18 20  1  0  0  0  0
M  END
$$$$
default_name
  -OEChem-01062215323D

 23 22  0     1  0  0  0  0  0999 V2000
   -2.6857   -3.6684    0.8743 H   0  0  0  0  0  0  0  0  0  0  0  0
   -2.6617   -2.6474    0.4953 C   0  0  0  0  0  0  0  0  0  0  0  0
   -3.2657   -2.0054    1.1353 H   0  0  0  0  0  0  0  0  0  0  0  0
   -3.0477   -2.6254   -0.5217 H   0  0  0  0  0  0  0  0  0  0  0  0
   -1.2337   -2.1564    0.4993 C   0  0  0  0  0  0  0  0  0  0  0  0
   -0.3327   -2.8864    0.8893 O   0  0  0  0  0  0  0  0  0  0  0  0
   -1.0277   -0.9164    0.0623 N   0  0  0  0  0  0  0  0  0  0  0  0
   -1.8237   -0.3604   -0.2157 H   0  0  0  0  0  0  0  0  0  0  0  0
    0.2713   -0.2414    0.0463 C   0  0  1  0  0  0  0  0  0  0  0  0
    0.7745   -0.4705   -0.8952 H   0  0  0  0  0  0  0  0  0  0  0  0
    0.0339    1.2762    0.1138 C   0  0  0  0  0  0  0  0  0  0  0  0
   -0.5838    1.4983    0.9869 H   0  0  0  0  0  0  0  0  0  0  0  0
    0.9913    1.7901    0.2208 H   0  0  0  0  0  0  0  0  0  0  0  0
   -0.8248    1.8736   -1.3718 S   0  0  0  0  0  0  0  0  0  0  0  0
   -0.9854    3.1408   -0.9718 H   0  0  0  0  0  0  0  0  0  0  0  0
    1.1543   -0.7627    1.1986 C   0  0  0  0  0  0  0  0  0  0  0  0
    0.6320   -1.1644    2.2389 O   0  0  0  0  0  0  0  0  0  0  0  0
    2.4799   -0.7650    1.0166 N   0  0  0  0  0  0  0  0  0  0  0  0
    2.8307   -0.3600    0.1607 H   0  0  0  0  0  0  0  0  0  0  0  0
    3.4477   -1.2336    2.0068 C   0  0  0  0  0  0  0  0  0  0  0  0
    3.1562   -2.2217    2.3698 H   0  0  0  0  0  0  0  0  0  0  0  0
    4.4424   -1.2929    1.5633 H   0  0  0  0  0  0  0  0  0  0  0  0
    3.4699   -0.5442    2.8525 H   0  0  0  0  0  0  0  0  0  0  0  0
  5  6  2  0  0  0  0
  5  7  1  0  0  0  0
  2  3  1  0  0  0  0
  2  4  1  0  0  0  0
  2  5  1  0  0  0  0
  1  2  1  0  0  0  0
 16 17  2  0  0  0  0
 16 18  1  0  0  0  0
 14 15  1  0  0  0  0
 11 12  1  0  0  0  0
 11 13  1  0  0  0  0
 11 14  1  0  0  0  0
  9 10  1  0  0  0  0
  9 11  1  0  0  0  0
  9 16  1  0  0  0  0
  7  8  1  0  0  0  0
  7  9  1  0  0  0  0
 20 21  1  0  0  0  0
 20 22  1  0  0  0  0
 20 23  1  0  0  0  0
 18 19  1  0  0  0  0
 18 20  1  0  0  0  0
M  END
$$$$
default_name
  -OEChem-01062215323D

 23 22  0     1  0  0  0  0  0999 V2000
   -2.6857   -3.6684    0.8743 H   0  0  0  0  0  0  0  0  0  0  0  0
   -2.6617   -2.6474    0.4953 C   0  0  0  0  0  0  0  0  0  0  0  0
   -3.2657   -2.0054    1.1353 H   0  0  0  0  0  0  0  0  0  0  0  0
   -3.0477   -2.6254   -0.5217 H   0  0  0  0  0  0  0  0  0  0  0  0
   -1.2337   -2.1564    0.4993 C   0  0  0  0  0  0  0  0  0  0  0  0
   -0.3327   -2.8864    0.8893 O   0  0  0  0  0  0  0  0  0  0  0  0
   -1.0277   -0.9164    0.0623 N   0  0  0  0  0  0  0  0  0  0  0  0
   -1.8237   -0.3604   -0.2157 H   0  0  0  0  0  0  0  0  0  0  0  0
    0.2713   -0.2414    0.0463 C   0  0  1  0  0  0  0  0  0  0  0  0
    0.7745   -0.4705   -0.8952 H   0  0  0  0  0  0  0  0  0  0  0  0
    0.0339    1.2762    0.1138 C   0  0  0  0  0  0  0  0  0  0  0  0
   -0.5838    1.4983    0.9869 H   0  0  0  0  0  0  0  0  0  0  0  0
    0.9913    1.7901    0.2208 H   0  0  0  0  0  0  0  0  0  0  0  0
   -0.8248    1.8736   -1.3718 S   0  0  0  0  0  0  0  0  0  0  0  0
   -0.9854    3.1408   -0.9718 H   0  0  0  0  0  0  0  0  0  0  0  0
    1.1543   -0.7627    1.1986 C   0  0  0  0  0  0  0  0  0  0  0  0
    0.6485   -1.4129    2.1139 O   0  0  0  0  0  0  0  0  0  0  0  0
    2.4632   -0.4888    1.1543 N   0  0  0  0  0  0  0  0  0  0  0  0
    2.7874    0.1036    0.4036 H   0  0  0  0  0  0  0  0  0  0  0  0
    3.4304   -0.9178    2.1630 C   0  0  0  0  0  0  0  0  0  0  0  0
    3.3167   -1.9874    2.3529 H   0  0  0  0  0  0  0  0  0  0  0  0
    4.4465   -0.7200    1.8194 H   0  0  0  0  0  0  0  0  0  0  0  0
    3.2526   -0.3776    3.0944 H   0  0  0  0  0  0  0  0  0  0  0  0
  5  6  2  0  0  0  0
  5  7  1  0  0  0  0
  2  3  1  0  0  0  0
  2  4  1  0  0  0  0
  2  5  1  0  0  0  0
  1  2  1  0  0  0  0
 16 17  2  0  0  0  0
 16 18  1  0  0  0  0
 14 15  1  0  0  0  0
 11 12  1  0  0  0  0
 11 13  1  0  0  0  0
 11 14  1  0  0  0  0
  9 10  1  0  0  0  0
  9 11  1  0  0  0  0
  9 16  1  0  0  0  0
  7  8  1  0  0  0  0
  7  9  1  0  0  0  0
 20 21  1  0  0  0  0
 20 22  1  0  0  0  0
 20 23  1  0  0  0  0
 18 19  1  0  0  0  0
 18 20  1  0  0  0  0
M  END
$$$$
default_name
  -OEChem-01062215323D

 23 22  0     1  0  0  0  0  0999 V2000
   -2.6857   -3.6684    0.8743 H   0  0  0  0  0  0  0  0  0  0  0  0
   -2.6617   -2.6474    0.4953 C   0  0  0  0  0  0  0  0  0  0  0  0
   -3.2657   -2.0054    1.1353 H   0  0  0  0  0  0  0  0  0  0  0  0
   -3.0477   -2.6254   -0.5217 H   0  0  0  0  0  0  0  0  0  0  0  0
   -1.2337   -2.1564    0.4993 C   0  0  0  0  0  0  0  0  0  0  0  0
   -0.3327   -2.8864    0.8893 O   0  0  0  0  0  0  0  0  0  0  0  0
   -1.0277   -0.9164    0.0623 N   0  0  0  0  0  0  0  0  0  0  0  0
   -1.8237   -0.3604   -0.2157 H   0  0  0  0  0  0  0  0  0  0  0  0
    0.2713   -0.2414    0.0463 C   0  0  1  0  0  0  0  0  0  0  0  0
    0.6550   -0.2424   -0.9759 H   0  0  0  0  0  0  0  0  0  0  0  0
    0.0690    1.2173    0.4881 C   0  0  0  0  0  0  0  0  0  0  0  0
   -0.4365    1.2260    1.4564 H   0  0  0  0  0  0  0  0  0  0  0  0
    1.0409    1.7034    0.5949 H   0  0  0  0  0  0  0  0  0  0  0  0
   -0.9501    2.1306   -0.7070 S   0  0  0  0  0  0  0  0  0  0  0  0
   -1.0407    3.2700   -0.0106 H   0  0  0  0  0  0  0  0  0  0  0  0
    1.2763   -1.0037    0.9340 C   0  0  0  0  0  0  0  0  0  0  0  0
    0.9242   -2.0282    1.5196 O   0  0  0  0  0  0  0  0  0  0  0  0
    2.5187   -0.5164    1.0297 N   0  0  0  0  0  0  0  0  0  0  0  0
    2.7083    0.3623    0.5697 H   0  0  0  0  0  0  0  0  0  0  0  0
    3.5853   -1.1259    1.8219 C   0  0  0  0  0  0  0  0  0  0  0  0
    3.6584   -2.1902    1.5868 H   0  0  0  0  0  0  0  0  0  0  0  0
    4.5391   -0.6437    1.6047 H   0  0  0  0  0  0  0  0  0  0  0  0
    3.3599   -1.0185    2.8843 H   0  0  0  0  0  0  0  0  0  0  0  0
  5  6  2  0  0  0  0
  5  7  1  0  0  0  0
  2  3  1  0  0  0  0
  2  4  1  0  0  0  0
  2  5  1  0  0  0  0
  1  2  1  0  0  0  0
 16 17  2  0  0  0  0
 16 18  1  0  0  0  0
 14 15  1  0  0  0  0
 11 12  1  0  0  0  0
 11 13  1  0  0  0  0
 11 14  1  0  0  0  0
  9 10  1  0  0  0  0
  9 11  1  0  0  0  0
  9 16  1  0  0  0  0
  7  8  1  0  0  0  0
  7  9  1  0  0  0  0
 20 21  1  0  0  0  0
 20 22  1  0  0  0  0
 20 23  1  0  0  0  0
 18 19  1  0  0  0  0
 18 20  1  0  0  0  0
M  END
$$$$
default_name
  -OEChem-01062215323D

 23 22  0     1  0  0  0  0  0999 V2000
   -2.6857   -3.6684    0.8743 H   0  0  0  0  0  0  0  0  0  0  0  0
   -2.6617   -2.6474    0.4953 C   0  0  0  0  0  0  0  0  0  0  0  0
   -3.2657   -2.0054    1.1353 H   0  0  0  0  0  0  0  0  0  0  0  0
   -3.0477   -2.6254   -0.5217 H   0  0  0  0  0  0  0  0  0  0  0  0
   -1.2337   -2.1564    0.4993 C   0  0  0  0  0  0  0  0  0  0  0  0
   -0.3327   -2.8864    0.8893 O   0  0  0  0  0  0  0  0  0  0  0  0
   -1.0277   -0.9164    0.0623 N   0  0  0  0  0  0  0  0  0  0  0  0
   -1.8237   -0.3604   -0.2157 H   0  0  0  0  0  0  0  0  0  0  0  0
    0.2713   -0.2414    0.0463 C   0  0  1  0  0  0  0  0  0  0  0  0
    0.6550   -0.2424   -0.9759 H   0  0  0  0  0  0  0  0  0  0  0  0
    0.0690    1.2173    0.4881 C   0  0  0  0  0  0  0  0  0  0  0  0
   -0.4365    1.2260    1.4564 H   0  0  0  0  0  0  0  0  0  0  0  0
    1.0409    1.7034    0.5949 H   0  0  0  0  0  0  0  0  0  0  0  0
   -0.9501    2.1306   -0.7070 S   0  0  0  0  0  0  0  0  0  0  0  0
   -1.0407    3.2700   -0.0106 H   0  0  0  0  0  0  0  0  0  0  0  0
    1.2763   -1.0037    0.9340 C   0  0  0  0  0  0  0  0  0  0  0  0
    1.0276   -2.1548    1.2939 O   0  0  0  0  0  0  0  0  0  0  0  0
    2.4054   -0.3746    1.2797 N   0  0  0  0  0  0  0  0  0  0  0  0
    2.5037    0.5897    0.9966 H   0  0  0  0  0  0  0  0  0  0  0  0
    3.4574   -0.9625    2.1071 C   0  0  0  0  0  0  0  0  0  0  0  0
    3.7263   -1.9473    1.7185 H   0  0  0  0  0  0  0  0  0  0  0  0
    4.3403   -0.3223    2.1057 H   0  0  0  0  0  0  0  0  0  0  0  0
    3.0969   -1.0784    3.1307 H   0  0  0  0  0  0  0  0  0  0  0  0
  5  6  2  0  0  0  0
  5  7  1  0  0  0  0
  2  3  1  0  0  0  0
  2  4  1  0  0  0  0
  2  5  1  0  0  0  0
  1  2  1  0  0  0  0
 16 17  2  0  0  0  0
 16 18  1  0  0  0  0
 14 15  1  0  0  0  0
 11 12  1  0  0  0  0
 11 13  1  0  0  0  0
 11 14  1  0  0  0  0
  9 10  1  0  0  0  0
  9 11  1  0  0  0  0
  9 16  1  0  0  0  0
  7  8  1  0  0  0  0
  7  9  1  0  0  0  0
 20 21  1  0  0  0  0
 20 22  1  0  0  0  0
 20 23  1  0  0  0  0
 18 19  1  0  0  0  0
 18 20  1  0  0  0  0
M  END
$$$$
default_name
  -OEChem-01062215323D

 23 22  0     1  0  0  0  0  0999 V2000
   -2.6857   -3.6684    0.8743 H   0  0  0  0  0  0  0  0  0  0  0  0
   -2.6617   -2.6474    0.4953 C   0  0  0  0  0  0  0  0  0  0  0  0
   -3.2657   -2.0054    1.1353 H   0  0  0  0  0  0  0  0  0  0  0  0
   -3.0477   -2.6254   -0.5217 H   0  0  0  0  0  0  0  0  0  0  0  0
   -1.2337   -2.1564    0.4993 C   0  0  0  0  0  0  0  0  0  0  0  0
   -0.3327   -2.8864    0.8893 O   0  0  0  0  0  0  0  0  0  0  0  0
   -1.0277   -0.9164    0.0623 N   0  0  0  0  0  0  0  0  0  0  0  0
   -1.8237   -0.3604   -0.2157 H   0  0  0  0  0  0  0  0  0  0  0  0
    0.2713   -0.2414    0.0463 C   0  0  1  0  0  0  0  0  0  0  0  0
    0.6550   -0.2424   -0.9759 H   0  0  0  0  0  0  0  0  0  0  0  0
    0.0690    1.2173    0.4881 C   0  0  0  0  0  0  0  0  0  0  0  0
   -0.4365    1.2260    1.4564 H   0  0  0  0  0  0  0  0  0  0  0  0
    1.0409    1.7034    0.5949 H   0  0  0  0  0  0  0  0  0  0  0  0
   -0.9501    2.1306   -0.7070 S   0  0  0  0  0  0  0  0  0  0  0  0
   -1.0407    3.2700   -0.0106 H   0  0  0  0  0  0  0  0  0  0  0  0
    1.2763   -1.0037    0.9340 C   0  0  0  0  0  0  0  0  0  0  0  0
    1.1751   -2.2237    1.0677 O   0  0  0  0  0  0  0  0  0  0  0  0
    2.2428   -0.2966    1.5307 N   0  0  0  0  0  0  0  0  0  0  0  0
    2.2176    0.7069    1.4211 H   0  0  0  0  0  0  0  0  0  0  0  0
    3.2729   -0.8718    2.3938 C   0  0  0  0  0  0  0  0  0  0  0  0
    3.7389   -1.7248    1.8953 H   0  0  0  0  0  0  0  0  0  0  0  0
    4.0364   -0.1260    2.6184 H   0  0  0  0  0  0  0  0  0  0  0  0
    2.8202   -1.2169    3.3249 H   0  0  0  0  0  0  0  0  0  0  0  0
  5  6  2  0  0  0  0
  5  7  1  0  0  0  0
  2  3  1  0  0  0  0
  2  4  1  0  0  0  0
  2  5  1  0  0  0  0
  1  2  1  0  0  0  0
 16 17  2  0  0  0  0
 16 18  1  0  0  0  0
 14 15  1  0  0  0  0
 11 12  1  0  0  0  0
 11 13  1  0  0  0  0
 11 14  1  0  0  0  0
  9 10  1  0  0  0  0
  9 11  1  0  0  0  0
  9 16  1  0  0  0  0
  7  8  1  0  0  0  0
  7  9  1  0  0  0  0
 20 21  1  0  0  0  0
 20 22  1  0  0  0  0
 20 23  1  0  0  0  0
 18 19  1  0  0  0  0
 18 20  1  0  0  0  0
M  END
$$$$
default_name
  -OEChem-01062215323D

 23 22  0     1  0  0  0  0  0999 V2000
   -2.6857   -3.6684    0.8743 H   0  0  0  0  0  0  0  0  0  0  0  0
   -2.6617   -2.6474    0.4953 C   0  0  0  0  0  0  0  0  0  0  0  0
   -3.2657   -2.0054    1.1353 H   0  0  0  0  0  0  0  0  0  0  0  0
   -3.0477   -2.6254   -0.5217 H   0  0  0  0  0  0  0  0  0  0  0  0
   -1.2337   -2.1564    0.4993 C   0  0  0  0  0  0  0  0  0  0  0  0
   -0.3327   -2.8864    0.8893 O   0  0  0  0  0  0  0  0  0  0  0  0
   -1.0277   -0.9164    0.0623 N   0  0  0  0  0  0  0  0  0  0  0  0
   -1.8237   -0.3604   -0.2157 H   0  0  0  0  0  0  0  0  0  0  0  0
    0.2713   -0.2414    0.0463 C   0  0  1  0  0  0  0  0  0  0  0  0
    0.6550   -0.2424   -0.9759 H   0  0  0  0  0  0  0  0  0  0  0  0
    0.0690    1.2173    0.4881 C   0  0  0  0  0  0  0  0  0  0  0  0
   -0.4365    1.2260    1.4564 H   0  0  0  0  0  0  0  0  0  0  0  0
    1.0409    1.7034    0.5949 H   0  0  0  0  0  0  0  0  0  0  0  0
   -0.9501    2.1306   -0.7070 S   0  0  0  0  0  0  0  0  0  0  0  0
   -1.0407    3.2700   -0.0106 H   0  0  0  0  0  0  0  0  0  0  0  0
    1.2763   -1.0037    0.9340 C   0  0  0  0  0  0  0  0  0  0  0  0
    1.3568   -2.2301    0.8566 O   0  0  0  0  0  0  0  0  0  0  0  0
    2.0421   -0.2878    1.7655 N   0  0  0  0  0  0  0  0  0  0  0  0
    1.8694    0.7059    1.8143 H   0  0  0  0  0  0  0  0  0  0  0  0
    3.0446   -0.8599    2.6624 C   0  0  0  0  0  0  0  0  0  0  0  0
    3.6952   -1.5378    2.1053 H   0  0  0  0  0  0  0  0  0  0  0  0
    3.6479   -0.0681    3.1078 H   0  0  0  0  0  0  0  0  0  0  0  0
    2.5487   -1.4247    3.4537 H   0  0  0  0  0  0  0  0  0  0  0  0
  5  6  2  0  0  0  0
  5  7  1  0  0  0  0
  2  3  1  0  0  0  0
  2  4  1  0  0  0  0
  2  5  1  0  0  0  0
  1  2  1  0  0  0  0
 16 17  2  0  0  0  0
 16 18  1  0  0  0  0
 14 15  1  0  0  0  0
 11 12  1  0  0  0  0
 11 13  1  0  0  0  0
 11 14  1  0  0  0  0
  9 10  1  0  0  0  0
  9 11  1  0  0  0  0
  9 16  1  0  0  0  0
  7  8  1  0  0  0  0
  7  9  1  0  0  0  0
 20 21  1  0  0  0  0
 20 22  1  0  0  0  0
 20 23  1  0  0  0  0
 18 19  1  0  0  0  0
 18 20  1  0  0  0  0
M  END
$$$$
default_name
  -OEChem-01062215323D

 23 22  0     1  0  0  0  0  0999 V2000
   -2.6857   -3.6684    0.8743 H   0  0  0  0  0  0  0  0  0  0  0  0
   -2.6617   -2.6474    0.4953 C   0  0  0  0  0  0  0  0  0  0  0  0
   -3.2657   -2.0054    1.1353 H   0  0  0  0  0  0  0  0  0  0  0  0
   -3.0477   -2.6254   -0.5217 H   0  0  0  0  0  0  0  0  0  0  0  0
   -1.2337   -2.1564    0.4993 C   0  0  0  0  0  0  0  0  0  0  0  0
   -0.3327   -2.8864    0.8893 O   0  0  0  0  0  0  0  0  0  0  0  0
   -1.0277   -0.9164    0.0623 N   0  0  0  0  0  0  0  0  0  0  0  0
   -1.8237   -0.3604   -0.2157 H   0  0  0  0  0  0  0  0  0  0  0  0
    0.2713   -0.2414    0.0463 C   0  0  1  0  0  0  0  0  0  0  0  0
    0.6550   -0.2424   -0.9759 H   0  0  0  0  0  0  0  0  0  0  0  0
    0.0690    1.2173    0.4881 C   0  0  0  0  0  0  0  0  0  0  0  0
   -0.4365    1.2260    1.4564 H   0  0  0  0  0  0  0  0  0  0  0  0
    1.0409    1.7034    0.5949 H   0  0  0  0  0  0  0  0  0  0  0  0
   -0.9501    2.1306   -0.7070 S   0  0  0  0  0  0  0  0  0  0  0  0
   -1.0407    3.2700   -0.0106 H   0  0  0  0  0  0  0  0  0  0  0  0
    1.2763   -1.0037    0.9340 C   0  0  0  0  0  0  0  0  0  0  0  0
    1.5603   -2.1736    0.6748 O   0  0  0  0  0  0  0  0  0  0  0  0
    1.8168   -0.3489    1.9681 N   0  0  0  0  0  0  0  0  0  0  0  0
    1.4830    0.5867    2.1495 H   0  0  0  0  0  0  0  0  0  0  0  0
    2.7879   -0.9278    2.8947 C   0  0  0  0  0  0  0  0  0  0  0  0
    3.5983   -1.3992    2.3340 H   0  0  0  0  0  0  0  0  0  0  0  0
    3.2015   -0.1525    3.5407 H   0  0  0  0  0  0  0  0  0  0  0  0
    2.3010   -1.6876    3.5084 H   0  0  0  0  0  0  0  0  0  0  0  0
  5  6  2  0  0  0  0
  5  7  1  0  0  0  0
  2  3  1  0  0  0  0
  2  4  1  0  0  0  0
  2  5  1  0  0  0  0
  1  2  1  0  0  0  0
 16 17  2  0  0  0  0
 16 18  1  0  0  0  0
 14 15  1  0  0  0  0
 11 12  1  0  0  0  0
 11 13  1  0  0  0  0
 11 14  1  0  0  0  0
  9 10  1  0  0  0  0
  9 11  1  0  0  0  0
  9 16  1  0  0  0  0
  7  8  1  0  0  0  0
  7  9  1  0  0  0  0
 20 21  1  0  0  0  0
 20 22  1  0  0  0  0
 20 23  1  0  0  0  0
 18 19  1  0  0  0  0
 18 20  1  0  0  0  0
M  END
$$$$
default_name
  -OEChem-01062215323D

 23 22  0     1  0  0  0  0  0999 V2000
   -2.6857   -3.6684    0.8743 H   0  0  0  0  0  0  0  0  0  0  0  0
   -2.6617   -2.6474    0.4953 C   0  0  0  0  0  0  0  0  0  0  0  0
   -3.2657   -2.0054    1.1353 H   0  0  0  0  0  0  0  0  0  0  0  0
   -3.0477   -2.6254   -0.5217 H   0  0  0  0  0  0  0  0  0  0  0  0
   -1.2337   -2.1564    0.4993 C   0  0  0  0  0  0  0  0  0  0  0  0
   -0.3327   -2.8864    0.8893 O   0  0  0  0  0  0  0  0  0  0  0  0
   -1.0277   -0.9164    0.0623 N   0  0  0  0  0  0  0  0  0  0  0  0
   -1.8237   -0.3604   -0.2157 H   0  0  0  0  0  0  0  0  0  0  0  0
    0.2713   -0.2414    0.0463 C   0  0  1  0  0  0  0  0  0  0  0  0
    0.6550   -0.2424   -0.9759 H   0  0  0  0  0  0  0  0  0  0  0  0
    0.0690    1.2173    0.4881 C   0  0  0  0  0  0  0  0  0  0  0  0
   -0.4365    1.2260    1.4564 H   0  0  0  0  0  0  0  0  0  0  0  0
    1.0409    1.7034    0.5949 H   0  0  0  0  0  0  0  0  0  0  0  0
   -0.9501    2.1306   -0.7070 S   0  0  0  0  0  0  0  0  0  0  0  0
   -1.0407    3.2700   -0.0106 H   0  0  0  0  0  0  0  0  0  0  0  0
    1.2763   -1.0037    0.9340 C   0  0  0  0  0  0  0  0  0  0  0  0
    1.7717   -2.0580    0.5347 O   0  0  0  0  0  0  0  0  0  0  0  0
    1.5825   -0.4755    2.1246 N   0  0  0  0  0  0  0  0  0  0  0  0
    1.0847    0.3575    2.4036 H   0  0  0  0  0  0  0  0  0  0  0  0
    2.5204   -1.0708    3.0747 C   0  0  0  0  0  0  0  0  0  0  0  0
    3.4549   -1.3182    2.5660 H   0  0  0  0  0  0  0  0  0  0  0  0
    2.7275   -0.3736    3.8874 H   0  0  0  0  0  0  0  0  0  0  0  0
    2.0939   -1.9877    3.4852 H   0  0  0  0  0  0  0  0  0  0  0  0
  5  6  2  0  0  0  0
  5  7  1  0  0  0  0
  2  3  1  0  0  0  0
  2  4  1  0  0  0  0
  2  5  1  0  0  0  0
  1  2  1  0  0  0  0
 16 17  2  0  0  0  0
 16 18  1  0  0  0  0
 14 15  1  0  0  0  0
 11 12  1  0  0  0  0
 11 13  1  0  0  0  0
 11 14  1  0  0  0  0
  9 10  1  0  0  0  0
  9 11  1  0  0  0  0
  9 16  1  0  0  0  0
  7  8  1  0  0  0  0
  7  9  1  0  0  0  0
 20 21  1  0  0  0  0
 20 22  1  0  0  0  0
 20 23  1  0  0  0  0
 18 19  1  0  0  0  0
 18 20  1  0  0  0  0
M  END
$$$$
default_name
  -OEChem-01062215323D

 23 22  0     1  0  0  0  0  0999 V2000
   -2.6857   -3.6684    0.8743 H   0  0  0  0  0  0  0  0  0  0  0  0
   -2.6617   -2.6474    0.4953 C   0  0  0  0  0  0  0  0  0  0  0  0
   -3.2657   -2.0054    1.1353 H   0  0  0  0  0  0  0  0  0  0  0  0
   -3.0477   -2.6254   -0.5217 H   0  0  0  0  0  0  0  0  0  0  0  0
   -1.2337   -2.1564    0.4993 C   0  0  0  0  0  0  0  0  0  0  0  0
   -0.3327   -2.8864    0.8893 O   0  0  0  0  0  0  0  0  0  0  0  0
   -1.0277   -0.9164    0.0623 N   0  0  0  0  0  0  0  0  0  0  0  0
   -1.8237   -0.3604   -0.2157 H   0  0  0  0  0  0  0  0  0  0  0  0
    0.2713   -0.2414    0.0463 C   0  0  1  0  0  0  0  0  0  0  0  0
    0.6550   -0.2424   -0.9759 H   0  0  0  0  0  0  0  0  0  0  0  0
    0.0690    1.2173    0.4881 C   0  0  0  0  0  0  0  0  0  0  0  0
   -0.4365    1.2260    1.4564 H   0  0  0  0  0  0  0  0  0  0  0  0
    1.0409    1.7034    0.5949 H   0  0  0  0  0  0  0  0  0  0  0  0
   -0.9501    2.1306   -0.7070 S   0  0  0  0  0  0  0  0  0  0  0  0
   -1.0407    3.2700   -0.0106 H   0  0  0  0  0  0  0  0  0  0  0  0
    1.2763   -1.0037    0.9340 C   0  0  0  0  0  0  0  0  0  0  0  0
    1.9765   -1.8913    0.4459 O   0  0  0  0  0  0  0  0  0  0  0  0
    1.3549   -0.6592    2.2245 N   0  0  0  0  0  0  0  0  0  0  0  0
    0.7015    0.0340    2.5595 H   0  0  0  0  0  0  0  0  0  0  0  0
    2.2603   -1.2792    3.1903 C   0  0  0  0  0  0  0  0  0  0  0  0
    3.2745   -1.3005    2.7853 H   0  0  0  0  0  0  0  0  0  0  0  0
    2.2582   -0.7162    4.1244 H   0  0  0  0  0  0  0  0  0  0  0  0
    1.9415   -2.3044    3.3858 H   0  0  0  0  0  0  0  0  0  0  0  0
  5  6  2  0  0  0  0
  5  7  1  0  0  0  0
  2  3  1  0  0  0  0
  2  4  1  0  0  0  0
  2  5  1  0  0  0  0
  1  2  1  0  0  0  0
 16 17  2  0  0  0  0
 16 18  1  0  0  0  0
 14 15  1  0  0  0  0
 11 12  1  0  0  0  0
 11 13  1  0  0  0  0
 11 14  1  0  0  0  0
  9 10  1  0  0  0  0
  9 11  1  0  0  0  0
  9 16  1  0  0  0  0
  7  8  1  0  0  0  0
  7  9  1  0  0  0  0
 20 21  1  0  0  0  0
 20 22  1  0  0  0  0
 20 23  1  0  0  0  0
 18 19  1  0  0  0  0
 18 20  1  0  0  0  0
M  END
$$$$
default_name
  -OEChem-01062215323D

 23 22  0     1  0  0  0  0  0999 V2000
   -2.6857   -3.6684    0.8743 H   0  0  0  0  0  0  0  0  0  0  0  0
   -2.6617   -2.6474    0.4953 C   0  0  0  0  0  0  0  0  0  0  0  0
   -3.2657   -2.0054    1.1353 H   0  0  0  0  0  0  0  0  0  0  0  0
   -3.0477   -2.6254   -0.5217 H   0  0  0  0  0  0  0  0  0  0  0  0
   -1.2337   -2.1564    0.4993 C   0  0  0  0  0  0  0  0  0  0  0  0
   -0.3327   -2.8864    0.8893 O   0  0  0  0  0  0  0  0  0  0  0  0
   -1.0277   -0.9164    0.0623 N   0  0  0  0  0  0  0  0  0  0  0  0
   -1.8237   -0.3604   -0.2157 H   0  0  0  0  0  0  0  0  0  0  0  0
    0.2713   -0.2414    0.0463 C   0  0  1  0  0  0  0  0  0  0  0  0
    0.6550   -0.2424   -0.9759 H   0  0  0  0  0  0  0  0  0  0  0  0
    0.0690    1.2173    0.4881 C   0  0  0  0  0  0  0  0  0  0  0  0
   -0.4365    1.2260    1.4564 H   0  0  0  0  0  0  0  0  0  0  0  0
    1.0409    1.7034    0.5949 H   0  0  0  0  0  0  0  0  0  0  0  0
   -0.9501    2.1306   -0.7070 S   0  0  0  0  0  0  0  0  0  0  0  0
   -1.0407    3.2700   -0.0106 H   0  0  0  0  0  0  0  0  0  0  0  0
    1.2763   -1.0037    0.9340 C   0  0  0  0  0  0  0  0  0  0  0  0
    2.1610   -1.6848    0.4145 O   0  0  0  0  0  0  0  0  0  0  0  0
    1.1497   -0.8873    2.2610 N   0  0  0  0  0  0  0  0  0  0  0  0
    0.3597   -0.3619    2.6066 H   0  0  0  0  0  0  0  0  0  0  0  0
    2.0252   -1.5386    3.2336 C   0  0  0  0  0  0  0  0  0  0  0  0
    3.0697   -1.3472    2.9771 H   0  0  0  0  0  0  0  0  0  0  0  0
    1.8256   -1.1571    4.2356 H   0  0  0  0  0  0  0  0  0  0  0  0
    1.8542   -2.6163    3.2168 H   0  0  0  0  0  0  0  0  0  0  0  0
  5  6  2  0  0  0  0
  5  7  1  0  0  0  0
  2  3  1  0  0  0  0
  2  4  1  0  0  0  0
  2  5  1  0  0  0  0
  1  2  1  0  0  0  0
 16 17  2  0  0  0  0
 16 18  1  0  0  0  0
 14 15  1  0  0  0  0
 11 12  1  0  0  0  0
 11 13  1  0  0  0  0
 11 14  1  0  0  0  0
  9 10  1  0  0  0  0
  9 11  1  0  0  0  0
  9 16  1  0  0  0  0
  7  8  1  0  0  0  0
  7  9  1  0  0  0  0
 20 21  1  0  0  0  0
 20 22  1  0  0  0  0
 20 23  1  0  0  0  0
 18 19  1  0  0  0  0
 18 20  1  0  0  0  0
M  END
$$$$
default_name
  -OEChem-01062215323D

 23 22  0     1  0  0  0  0  0999 V2000
   -2.6857   -3.6684    0.8743 H   0  0  0  0  0  0  0  0  0  0  0  0
   -2.6617   -2.6474    0.4953 C   0  0  0  0  0  0  0  0  0  0  0  0
   -3.2657   -2.0054    1.1353 H   0  0  0  0  0  0  0  0  0  0  0  0
   -3.0477   -2.6254   -0.5217 H   0  0  0  0  0  0  0  0  0  0  0  0
   -1.2337   -2.1564    0.4993 C   0  0  0  0  0  0  0  0  0  0  0  0
   -0.3327   -2.8864    0.8893 O   0  0  0  0  0  0  0  0  0  0  0  0
   -1.0277   -0.9164    0.0623 N   0  0  0  0  0  0  0  0  0  0  0  0
   -1.8237   -0.3604   -0.2157 H   0  0  0  0  0  0  0  0  0  0  0  0
    0.2713   -0.2414    0.0463 C   0  0  1  0  0  0  0  0  0  0  0  0
    0.6550   -0.2424   -0.9759 H   0  0  0  0  0  0  0  0  0  0  0  0
    0.0690    1.2173    0.4881 C   0  0  0  0  0  0  0  0  0  0  0  0
   -0.4365    1.2260    1.4564 H   0  0  0  0  0  0  0  0  0  0  0  0
    1.0409    1.7034    0.5949 H   0  0  0  0  0  0  0  0  0  0  0  0
   -0.9501    2.1306   -0.7070 S   0  0  0  0  0  0  0  0  0  0  0  0
   -1.0407    3.2700   -0.0106 H   0  0  0  0  0  0  0  0  0  0  0  0
    1.2763   -1.0037    0.9340 C   0  0  0  0  0  0  0  0  0  0  0  0
    2.3123   -1.4525    0.4426 O   0  0  0  0  0  0  0  0  0  0  0  0
    0.9807   -1.1444    2.2314 N   0  0  0  0  0  0  0  0  0  0  0  0
    0.0824   -0.8032    2.5415 H   0  0  0  0  0  0  0  0  0  0  0  0
    1.8313   -1.8316    3.2015 C   0  0  0  0  0  0  0  0  0  0  0  0
    2.8542   -1.4552    3.1283 H   0  0  0  0  0  0  0  0  0  0  0  0
    1.4593   -1.6660    4.2133 H   0  0  0  0  0  0  0  0  0  0  0  0
    1.8379   -2.9021    2.9897 H   0  0  0  0  0  0  0  0  0  0  0  0
  5  6  2  0  0  0  0
  5  7  1  0  0  0  0
  2  3  1  0  0  0  0
  2  4  1  0  0  0  0
  2  5  1  0  0  0  0
  1  2  1  0  0  0  0
 16 17  2  0  0  0  0
 16 18  1  0  0  0  0
 14 15  1  0  0  0  0
 11 12  1  0  0  0  0
 11 13  1  0  0  0  0
 11 14  1  0  0  0  0
  9 10  1  0  0  0  0
  9 11  1  0  0  0  0
  9 16  1  0  0  0  0
  7  8  1  0  0  0  0
  7  9  1  0  0  0  0
 20 21  1  0  0  0  0
 20 22  1  0  0  0  0
 20 23  1  0  0  0  0
 18 19  1  0  0  0  0
 18 20  1  0  0  0  0
M  END
$$$$
default_name
  -OEChem-01062215323D

 23 22  0     1  0  0  0  0  0999 V2000
   -2.6857   -3.6684    0.8743 H   0  0  0  0  0  0  0  0  0  0  0  0
   -2.6617   -2.6474    0.4953 C   0  0  0  0  0  0  0  0  0  0  0  0
   -3.2657   -2.0054    1.1353 H   0  0  0  0  0  0  0  0  0  0  0  0
   -3.0477   -2.6254   -0.5217 H   0  0  0  0  0  0  0  0  0  0  0  0
   -1.2337   -2.1564    0.4993 C   0  0  0  0  0  0  0  0  0  0  0  0
   -0.3327   -2.8864    0.8893 O   0  0  0  0  0  0  0  0  0  0  0  0
   -1.0277   -0.9164    0.0623 N   0  0  0  0  0  0  0  0  0  0  0  0
   -1.8237   -0.3604   -0.2157 H   0  0  0  0  0  0  0  0  0  0  0  0
    0.2713   -0.2414    0.0463 C   0  0  1  0  0  0  0  0  0  0  0  0
    0.6550   -0.2424   -0.9759 H   0  0  0  0  0  0  0  0  0  0  0  0
    0.0690    1.2173    0.4881 C   0  0  0  0  0  0  0  0  0  0  0  0
   -0.4365    1.2260    1.4564 H   0  0  0  0  0  0  0  0  0  0  0  0
    1.0409    1.7034    0.5949 H   0  0  0  0  0  0  0  0  0  0  0  0
   -0.9501    2.1306   -0.7070 S   0  0  0  0  0  0  0  0  0  0  0  0
   -1.0407    3.2700   -0.0106 H   0  0  0  0  0  0  0  0  0  0  0  0
    1.2763   -1.0037    0.9340 C   0  0  0  0  0  0  0  0  0  0  0  0
    2.4204   -1.2104    0.5282 O   0  0  0  0  0  0  0  0  0  0  0  0
    0.8597   -1.4129    2.1379 N   0  0  0  0  0  0  0  0  0  0  0  0
   -0.1113   -1.2597    2.3688 H   0  0  0  0  0  0  0  0  0  0  0  0
    1.6918   -2.1380    3.0964 C   0  0  0  0  0  0  0  0  0  0  0  0
    2.6428   -1.6171    3.2285 H   0  0  0  0  0  0  0  0  0  0  0  0
    1.1840   -2.2085    4.0590 H   0  0  0  0  0  0  0  0  0  0  0  0
    1.8938   -3.1423    2.7202 H   0  0  0  0  0  0  0  0  0  0  0  0
  5  6  2  0  0  0  0
  5  7  1  0  0  0  0
  2  3  1  0  0  0  0
  2  4  1  0  0  0  0
  2  5  1  0  0  0  0
  1  2  1  0  0  0  0
 16 17  2  0  0  0  0
 16 18  1  0  0  0  0
 14 15  1  0  0  0  0
 11 12  1  0  0  0  0
 11 13  1  0  0  0  0
 11 14  1  0  0  0  0
  9 10  1  0  0  0  0
  9 11  1  0  0  0  0
  9 16  1  0  0  0  0
  7  8  1  0  0  0  0
  7  9  1  0  0  0  0
 20 21  1  0  0  0  0
 20 22  1  0  0  0  0
 20 23  1  0  0  0  0
 18 19  1  0  0  0  0
 18 20  1  0  0  0  0
M  END
$$$$
default_name
  -OEChem-01062215323D

 23 22  0     1  0  0  0  0  0999 V2000
   -2.6857   -3.6684    0.8743 H   0  0  0  0  0  0  0  0  0  0  0  0
   -2.6617   -2.6474    0.4953 C   0  0  0  0  0  0  0  0  0  0  0  0
   -3.2657   -2.0054    1.1353 H   0  0  0  0  0  0  0  0  0  0  0  0
   -3.0477   -2.6254   -0.5217 H   0  0  0  0  0  0  0  0  0  0  0  0
   -1.2337   -2.1564    0.4993 C   0  0  0  0  0  0  0  0  0  0  0  0
   -0.3327   -2.8864    0.8893 O   0  0  0  0  0  0  0  0  0  0  0  0
   -1.0277   -0.9164    0.0623 N   0  0  0  0  0  0  0  0  0  0  0  0
   -1.8237   -0.3604   -0.2157 H   0  0  0  0  0  0  0  0  0  0  0  0
    0.2713   -0.2414    0.0463 C   0  0  1  0  0  0  0  0  0  0  0  0
    0.6550   -0.2424   -0.9759 H   0  0  0  0  0  0  0  0  0  0  0  0
    0.0690    1.2173    0.4881 C   0  0  0  0  0  0  0  0  0  0  0  0
   -0.4365    1.2260    1.4564 H   0  0  0  0  0  0  0  0  0  0  0  0
    1.0409    1.7034    0.5949 H   0  0  0  0  0  0  0  0  0  0  0  0
   -0.9501    2.1306   -0.7070 S   0  0  0  0  0  0  0  0  0  0  0  0
   -1.0407    3.2700   -0.0106 H   0  0  0  0  0  0  0  0  0  0  0  0
    1.2763   -1.0037    0.9340 C   0  0  0  0  0  0  0  0  0  0  0  0
    2.4777   -0.9748    0.6656 O   0  0  0  0  0  0  0  0  0  0  0  0
    0.7947   -1.6745    1.9868 N   0  0  0  0  0  0  0  0  0  0  0  0
   -0.2084   -1.7004    2.1002 H   0  0  0  0  0  0  0  0  0  0  0  0
    1.6161   -2.4370    2.9253 C   0  0  0  0  0  0  0  0  0  0  0  0
    2.4500   -1.8219    3.2710 H   0  0  0  0  0  0  0  0  0  0  0  0
    1.0187   -2.7474    3.7834 H   0  0  0  0  0  0  0  0  0  0  0  0
    2.0181   -3.3205    2.4265 H   0  0  0  0  0  0  0  0  0  0  0  0
  5  6  2  0  0  0  0
  5  7  1  0  0  0  0
  2  3  1  0  0  0  0
  2  4  1  0  0  0  0
  2  5  1  0  0  0  0
  1  2  1  0  0  0  0
 16 17  2  0  0  0  0
 16 18  1  0  0  0  0
 14 15  1  0  0  0  0
 11 12  1  0  0  0  0
 11 13  1  0  0  0  0
 11 14  1  0  0  0  0
  9 10  1  0  0  0  0
  9 11  1  0  0  0  0
  9 16  1  0  0  0  0
  7  8  1  0  0  0  0
  7  9  1  0  0  0  0
 20 21  1  0  0  0  0
 20 22  1  0  0  0  0
 20 23  1  0  0  0  0
 18 19  1  0  0  0  0
 18 20  1  0  0  0  0
M  END
$$$$
default_name
  -OEChem-01062215323D

 23 22  0     1  0  0  0  0  0999 V2000
   -2.6857   -3.6684    0.8743 H   0  0  0  0  0  0  0  0  0  0  0  0
   -2.6617   -2.6474    0.4953 C   0  0  0  0  0  0  0  0  0  0  0  0
   -3.2657   -2.0054    1.1353 H   0  0  0  0  0  0  0  0  0  0  0  0
   -3.0477   -2.6254   -0.5217 H   0  0  0  0  0  0  0  0  0  0  0  0
   -1.2337   -2.1564    0.4993 C   0  0  0  0  0  0  0  0  0  0  0  0
   -0.3327   -2.8864    0.8893 O   0  0  0  0  0  0  0  0  0  0  0  0
   -1.0277   -0.9164    0.0623 N   0  0  0  0  0  0  0  0  0  0  0  0
   -1.8237   -0.3604   -0.2157 H   0  0  0  0  0  0  0  0  0  0  0  0
    0.2713   -0.2414    0.0463 C   0  0  1  0  0  0  0  0  0  0  0  0
    0.6550   -0.2424   -0.9759 H   0  0  0  0  0  0  0  0  0  0  0  0
    0.0690    1.2173    0.4881 C   0  0  0  0  0  0  0  0  0  0  0  0
   -0.4365    1.2260    1.4564 H   0  0  0  0  0  0  0  0  0  0  0  0
    1.0409    1.7034    0.5949 H   0  0  0  0  0  0  0  0  0  0  0  0
   -0.9501    2.1306   -0.7070 S   0  0  0  0  0  0  0  0  0  0  0  0
   -1.0407    3.2700   -0.0106 H   0  0  0  0  0  0  0  0  0  0  0  0
    1.2763   -1.0037    0.9340 C   0  0  0  0  0  0  0  0  0  0  0  0
    2.4804   -0.7619    0.8453 O   0  0  0  0  0  0  0  0  0  0  0  0
    0.7902   -1.9115    1.7885 N   0  0  0  0  0  0  0  0  0  0  0  0
   -0.2021   -2.0953    1.7540 H   0  0  0  0  0  0  0  0  0  0  0  0
    1.6094   -2.7083    2.6999 C   0  0  0  0  0  0  0  0  0  0  0  0
    2.2887   -2.0556    3.2528 H   0  0  0  0  0  0  0  0  0  0  0  0
    0.9746   -3.2462    3.4051 H   0  0  0  0  0  0  0  0  0  0  0  0
    2.2023   -3.4246    2.1286 H   0  0  0  0  0  0  0  0  0  0  0  0
  5  6  2  0  0  0  0
  5  7  1  0  0  0  0
  2  3  1  0  0  0  0
  2  4  1  0  0  0  0
  2  5  1  0  0  0  0
  1  2  1  0  0  0  0
 16 17  2  0  0  0  0
 16 18  1  0  0  0  0
 14 15  1  0  0  0  0
 11 12  1  0  0  0  0
 11 13  1  0  0  0  0
 11 14  1  0  0  0  0
  9 10  1  0  0  0  0
  9 11  1  0  0  0  0
  9 16  1  0  0  0  0
  7  8  1  0  0  0  0
  7  9  1  0  0  0  0
 20 21  1  0  0  0  0
 20 22  1  0  0  0  0
 20 23  1  0  0  0  0
 18 19  1  0  0  0  0
 18 20  1  0  0  0  0
M  END
$$$$
default_name
  -OEChem-01062215323D

 23 22  0     1  0  0  0  0  0999 V2000
   -2.6857   -3.6684    0.8743 H   0  0  0  0  0  0  0  0  0  0  0  0
   -2.6617   -2.6474    0.4953 C   0  0  0  0  0  0  0  0  0  0  0  0
   -3.2657   -2.0054    1.1353 H   0  0  0  0  0  0  0  0  0  0  0  0
   -3.0477   -2.6254   -0.5217 H   0  0  0  0  0  0  0  0  0  0  0  0
   -1.2337   -2.1564    0.4993 C   0  0  0  0  0  0  0  0  0  0  0  0
   -0.3327   -2.8864    0.8893 O   0  0  0  0  0  0  0  0  0  0  0  0
   -1.0277   -0.9164    0.0623 N   0  0  0  0  0  0  0  0  0  0  0  0
   -1.8237   -0.3604   -0.2157 H   0  0  0  0  0  0  0  0  0  0  0  0
    0.2713   -0.2414    0.0463 C   0  0  1  0  0  0  0  0  0  0  0  0
    0.6550   -0.2424   -0.9759 H   0  0  0  0  0  0  0  0  0  0  0  0
    0.0690    1.2173    0.4881 C   0  0  0  0  0  0  0  0  0  0  0  0
   -0.4365    1.2260    1.4564 H   0  0  0  0  0  0  0  0  0  0  0  0
    1.0409    1.7034    0.5949 H   0  0  0  0  0  0  0  0  0  0  0  0
   -0.9501    2.1306   -0.7070 S   0  0  0  0  0  0  0  0  0  0  0  0
   -1.0407    3.2700   -0.0106 H   0  0  0  0  0  0  0  0  0  0  0  0
    1.2763   -1.0037    0.9340 C   0  0  0  0  0  0  0  0  0  0  0  0
    2.4284   -0.5861    1.0552 O   0  0  0  0  0  0  0  0  0  0  0  0
    0.8465   -2.1075    1.5563 N   0  0  0  0  0  0  0  0  0  0  0  0
   -0.0929   -2.4174    1.3538 H   0  0  0  0  0  0  0  0  0  0  0  0
    1.6721   -2.9334    2.4356 C   0  0  0  0  0  0  0  0  0  0  0  0
    2.1701   -2.3023    3.1752 H   0  0  0  0  0  0  0  0  0  0  0  0
    1.0546   -3.6707    2.9499 H   0  0  0  0  0  0  0  0  0  0  0  0
    2.4337   -3.4475    1.8469 H   0  0  0  0  0  0  0  0  0  0  0  0
  5  6  2  0  0  0  0
  5  7  1  0  0  0  0
  2  3  1  0  0  0  0
  2  4  1  0  0  0  0
  2  5  1  0  0  0  0
  1  2  1  0  0  0  0
 16 17  2  0  0  0  0
 16 18  1  0  0  0  0
 14 15  1  0  0  0  0
 11 12  1  0  0  0  0
 11 13  1  0  0  0  0
 11 14  1  0  0  0  0
  9 10  1  0  0  0  0
  9 11  1  0  0  0  0
  9 16  1  0  0  0  0
  7  8  1  0  0  0  0
  7  9  1  0  0  0  0
 20 21  1  0  0  0  0
 20 22  1  0  0  0  0
 20 23  1  0  0  0  0
 18 19  1  0  0  0  0
 18 20  1  0  0  0  0
M  END
$$$$
default_name
  -OEChem-01062215323D

 23 22  0     1  0  0  0  0  0999 V2000
   -2.6857   -3.6684    0.8743 H   0  0  0  0  0  0  0  0  0  0  0  0
   -2.6617   -2.6474    0.4953 C   0  0  0  0  0  0  0  0  0  0  0  0
   -3.2657   -2.0054    1.1353 H   0  0  0  0  0  0  0  0  0  0  0  0
   -3.0477   -2.6254   -0.5217 H   0  0  0  0  0  0  0  0  0  0  0  0
   -1.2337   -2.1564    0.4993 C   0  0  0  0  0  0  0  0  0  0  0  0
   -0.3327   -2.8864    0.8893 O   0  0  0  0  0  0  0  0  0  0  0  0
   -1.0277   -0.9164    0.0623 N   0  0  0  0  0  0  0  0  0  0  0  0
   -1.8237   -0.3604   -0.2157 H   0  0  0  0  0  0  0  0  0  0  0  0
    0.2713   -0.2414    0.0463 C   0  0  1  0  0  0  0  0  0  0  0  0
    0.6550   -0.2424   -0.9759 H   0  0  0  0  0  0  0  0  0  0  0  0
    0.0690    1.2173    0.4881 C   0  0  0  0  0  0  0  0  0  0  0  0
   -0.4365    1.2260    1.4564 H   0  0  0  0  0  0  0  0  0  0  0  0
    1.0409    1.7034    0.5949 H   0  0  0  0  0  0  0  0  0  0  0  0
   -0.9501    2.1306   -0.7070 S   0  0  0  0  0  0  0  0  0  0  0  0
   -1.0407    3.2700   -0.0106 H   0  0  0  0  0  0  0  0  0  0  0  0
    1.2763   -1.0037    0.9340 C   0  0  0  0  0  0  0  0  0  0  0  0
    2.3250   -0.4595    1.2809 O   0  0  0  0  0  0  0  0  0  0  0  0
    0.9598   -2.2494    1.3062 N   0  0  0  0  0  0  0  0  0  0  0  0
    0.1117   -2.6448    0.9269 H   0  0  0  0  0  0  0  0  0  0  0  0
    1.8001   -3.0968    2.1504 C   0  0  0  0  0  0  0  0  0  0  0  0
    2.1022   -2.5452    3.0435 H   0  0  0  0  0  0  0  0  0  0  0  0
    1.2534   -3.9921    2.4489 H   0  0  0  0  0  0  0  0  0  0  0  0
    2.6968   -3.3877    1.6005 H   0  0  0  0  0  0  0  0  0  0  0  0
  5  6  2  0  0  0  0
  5  7  1  0  0  0  0
  2  3  1  0  0  0  0
  2  4  1  0  0  0  0
  2  5  1  0  0  0  0
  1  2  1  0  0  0  0
 16 17  2  0  0  0  0
 16 18  1  0  0  0  0
 14 15  1  0  0  0  0
 11 12  1  0  0  0  0
 11 13  1  0  0  0  0
 11 14  1  0  0  0  0
  9 10  1  0  0  0  0
  9 11  1  0  0  0  0
  9 16  1  0  0  0  0
  7  8  1  0  0  0  0
  7  9  1  0  0  0  0
 20 21  1  0  0  0  0
 20 22  1  0  0  0  0
 20 23  1  0  0  0  0
 18 19  1  0  0  0  0
 18 20  1  0  0  0  0
M  END
$$$$
default_name
  -OEChem-01062215323D

 23 22  0     1  0  0  0  0  0999 V2000
   -2.6857   -3.6684    0.8743 H   0  0  0  0  0  0  0  0  0  0  0  0
   -2.6617   -2.6474    0.4953 C   0  0  0  0  0  0  0  0  0  0  0  0
   -3.2657   -2.0054    1.1353 H   0  0  0  0  0  0  0  0  0  0  0  0
   -3.0477   -2.6254   -0.5217 H   0  0  0  0  0  0  0  0  0  0  0  0
   -1.2337   -2.1564    0.4993 C   0  0  0  0  0  0  0  0  0  0  0  0
   -0.3327   -2.8864    0.8893 O   0  0  0  0  0  0  0  0  0  0  0  0
   -1.0277   -0.9164    0.0623 N   0  0  0  0  0  0  0  0  0  0  0  0
   -1.8237   -0.3604   -0.2157 H   0  0  0  0  0  0  0  0  0  0  0  0
    0.2713   -0.2414    0.0463 C   0  0  1  0  0  0  0  0  0  0  0  0
    0.6550   -0.2424   -0.9759 H   0  0  0  0  0  0  0  0  0  0  0  0
    0.0690    1.2173    0.4881 C   0  0  0  0  0  0  0  0  0  0  0  0
   -0.4365    1.2260    1.4564 H   0  0  0  0  0  0  0  0  0  0  0  0
    1.0409    1.7034    0.5949 H   0  0  0  0  0  0  0  0  0  0  0  0
   -0.9501    2.1306   -0.7070 S   0  0  0  0  0  0  0  0  0  0  0  0
   -1.0407    3.2700   -0.0106 H   0  0  0  0  0  0  0  0  0  0  0  0
    1.2763   -1.0037    0.9340 C   0  0  0  0  0  0  0  0  0  0  0  0
    2.1775   -0.3907    1.5070 O   0  0  0  0  0  0  0  0  0  0  0  0
    1.1224   -2.3273    1.0553 N   0  0  0  0  0  0  0  0  0  0  0  0
    0.3978   -2.7620    0.5024 H   0  0  0  0  0  0  0  0  0  0  0  0
    1.9845   -3.1875    1.8637 C   0  0  0  0  0  0  0  0  0  0  0  0
    2.0897   -2.7677    2.8667 H   0  0  0  0  0  0  0  0  0  0  0  0
    1.5574   -4.1884    1.9362 H   0  0  0  0  0  0  0  0  0  0  0  0
    2.9735   -3.2491    1.4063 H   0  0  0  0  0  0  0  0  0  0  0  0
  5  6  2  0  0  0  0
  5  7  1  0  0  0  0
  2  3  1  0  0  0  0
  2  4  1  0  0  0  0
  2  5  1  0  0  0  0
  1  2  1  0  0  0  0
 16 17  2  0  0  0  0
 16 18  1  0  0  0  0
 14 15  1  0  0  0  0
 11 12  1  0  0  0  0
 11 13  1  0  0  0  0
 11 14  1  0  0  0  0
  9 10  1  0  0  0  0
  9 11  1  0  0  0  0
  9 16  1  0  0  0  0
  7  8  1  0  0  0  0
  7  9  1  0  0  0  0
 20 21  1  0  0  0  0
 20 22  1  0  0  0  0
 20 23  1  0  0  0  0
 18 19  1  0  0  0  0
 18 20  1  0  0  0  0
M  END
$$$$
default_name
  -OEChem-01062215323D

 23 22  0     1  0  0  0  0  0999 V2000
   -2.6857   -3.6684    0.8743 H   0  0  0  0  0  0  0  0  0  0  0  0
   -2.6617   -2.6474    0.4953 C   0  0  0  0  0  0  0  0  0  0  0  0
   -3.2657   -2.0054    1.1353 H   0  0  0  0  0  0  0  0  0  0  0  0
   -3.0477   -2.6254   -0.5217 H   0  0  0  0  0  0  0  0  0  0  0  0
   -1.2337   -2.1564    0.4993 C   0  0  0  0  0  0  0  0  0  0  0  0
   -0.3327   -2.8864    0.8893 O   0  0  0  0  0  0  0  0  0  0  0  0
   -1.0277   -0.9164    0.0623 N   0  0  0  0  0  0  0  0  0  0  0  0
   -1.8237   -0.3604   -0.2157 H   0  0  0  0  0  0  0  0  0  0  0  0
    0.2713   -0.2414    0.0463 C   0  0  1  0  0  0  0  0  0  0  0  0
    0.6550   -0.2424   -0.9759 H   0  0  0  0  0  0  0  0  0  0  0  0
    0.0690    1.2173    0.4881 C   0  0  0  0  0  0  0  0  0  0  0  0
   -0.4365    1.2260    1.4564 H   0  0  0  0  0  0  0  0  0  0  0  0
    1.0409    1.7034    0.5949 H   0  0  0  0  0  0  0  0  0  0  0  0
   -0.9501    2.1306   -0.7070 S   0  0  0  0  0  0  0  0  0  0  0  0
   -1.0407    3.2700   -0.0106 H   0  0  0  0  0  0  0  0  0  0  0  0
    1.2763   -1.0037    0.9340 C   0  0  0  0  0  0  0  0  0  0  0  0
    1.9958   -0.3843    1.7182 O   0  0  0  0  0  0  0  0  0  0  0  0
    1.3231   -2.3361    0.8205 N   0  0  0  0  0  0  0  0  0  0  0  0
    0.7459   -2.7610    0.1092 H   0  0  0  0  0  0  0  0  0  0  0  0
    2.2129   -3.1993    1.5951 C   0  0  0  0  0  0  0  0  0  0  0  0
    2.1333   -2.9546    2.6567 H   0  0  0  0  0  0  0  0  0  0  0  0
    1.9458   -4.2463    1.4468 H   0  0  0  0  0  0  0  0  0  0  0  0
    3.2449   -3.0413    1.2775 H   0  0  0  0  0  0  0  0  0  0  0  0
  5  6  2  0  0  0  0
  5  7  1  0  0  0  0
  2  3  1  0  0  0  0
  2  4  1  0  0  0  0
  2  5  1  0  0  0  0
  1  2  1  0  0  0  0
 16 17  2  0  0  0  0
 16 18  1  0  0  0  0
 14 15  1  0  0  0  0
 11 12  1  0  0  0  0
 11 13  1  0  0  0  0
 11 14  1  0  0  0  0
  9 10  1  0  0  0  0
  9 11  1  0  0  0  0
  9 16  1  0  0  0  0
  7  8  1  0  0  0  0
  7  9  1  0  0  0  0
 20 21  1  0  0  0  0
 20 22  1  0  0  0  0
 20 23  1  0  0  0  0
 18 19  1  0  0  0  0
 18 20  1  0  0  0  0
M  END
$$$$
default_name
  -OEChem-01062215323D

 23 22  0     1  0  0  0  0  0999 V2000
   -2.6857   -3.6684    0.8743 H   0  0  0  0  0  0  0  0  0  0  0  0
   -2.6617   -2.6474    0.4953 C   0  0  0  0  0  0  0  0  0  0  0  0
   -3.2657   -2.0054    1.1353 H   0  0  0  0  0  0  0  0  0  0  0  0
   -3.0477   -2.6254   -0.5217 H   0  0  0  0  0  0  0  0  0  0  0  0
   -1.2337   -2.1564    0.4993 C   0  0  0  0  0  0  0  0  0  0  0  0
   -0.3327   -2.8864    0.8893 O   0  0  0  0  0  0  0  0  0  0  0  0
   -1.0277   -0.9164    0.0623 N   0  0  0  0  0  0  0  0  0  0  0  0
   -1.8237   -0.3604   -0.2157 H   0  0  0  0  0  0  0  0  0  0  0  0
    0.2713   -0.2414    0.0463 C   0  0  1  0  0  0  0  0  0  0  0  0
    0.6550   -0.2424   -0.9759 H   0  0  0  0  0  0  0  0  0  0  0  0
    0.0690    1.2173    0.4881 C   0  0  0  0  0  0  0  0  0  0  0  0
   -0.4365    1.2260    1.4564 H   0  0  0  0  0  0  0  0  0  0  0  0
    1.0409    1.7034    0.5949 H   0  0  0  0  0  0  0  0  0  0  0  0
   -0.9501    2.1306   -0.7070 S   0  0  0  0  0  0  0  0  0  0  0  0
   -1.0407    3.2700   -0.0106 H   0  0  0  0  0  0  0  0  0  0  0  0
    1.2763   -1.0037    0.9340 C   0  0  0  0  0  0  0  0  0  0  0  0
    1.7923   -0.4408    1.9000 O   0  0  0  0  0  0  0  0  0  0  0  0
    1.5484   -2.2751    0.6179 N   0  0  0  0  0  0  0  0  0  0  0  0
    1.1323   -2.6418   -0.2259 H   0  0  0  0  0  0  0  0  0  0  0  0
    2.4695   -3.1314    1.3628 C   0  0  0  0  0  0  0  0  0  0  0  0
    2.2302   -3.0933    2.4280 H   0  0  0  0  0  0  0  0  0  0  0  0
    2.3923   -4.1618    1.0139 H   0  0  0  0  0  0  0  0  0  0  0  0
    3.4927   -2.7784    1.2228 H   0  0  0  0  0  0  0  0  0  0  0  0
  5  6  2  0  0  0  0
  5  7  1  0  0  0  0
  2  3  1  0  0  0  0
  2  4  1  0  0  0  0
  2  5  1  0  0  0  0
  1  2  1  0  0  0  0
 16 17  2  0  0  0  0
 16 18  1  0  0  0  0
 14 15  1  0  0  0  0
 11 12  1  0  0  0  0
 11 13  1  0  0  0  0
 11 14  1  0  0  0  0
  9 10  1  0  0  0  0
  9 11  1  0  0  0  0
  9 16  1  0  0  0  0
  7  8  1  0  0  0  0
  7  9  1  0  0  0  0
 20 21  1  0  0  0  0
 20 22  1  0  0  0  0
 20 23  1  0  0  0  0
 18 19  1  0  0  0  0
 18 20  1  0  0  0  0
M  END
$$$$
default_name
  -OEChem-01062215323D

 23 22  0     1  0  0  0  0  0999 V2000
   -2.6857   -3.6684    0.8743 H   0  0  0  0  0  0  0  0  0  0  0  0
   -2.6617   -2.6474    0.4953 C   0  0  0  0  0  0  0  0  0  0  0  0
   -3.2657   -2.0054    1.1353 H   0  0  0  0  0  0  0  0  0  0  0  0
   -3.0477   -2.6254   -0.5217 H   0  0  0  0  0  0  0  0  0  0  0  0
   -1.2337   -2.1564    0.4993 C   0  0  0  0  0  0  0  0  0  0  0  0
   -0.3327   -2.8864    0.8893 O   0  0  0  0  0  0  0  0  0  0  0  0
   -1.0277   -0.9164    0.0623 N   0  0  0  0  0  0  0  0  0  0  0  0
   -1.8237   -0.3604   -0.2157 H   0  0  0  0  0  0  0  0  0  0  0  0
    0.2713   -0.2414    0.0463 C   0  0  1  0  0  0  0  0  0  0  0  0
    0.6550   -0.2424   -0.9759 H   0  0  0  0  0  0  0  0  0  0  0  0
    0.0690    1.2173    0.4881 C   0  0  0  0  0  0  0  0  0  0  0  0
   -0.4365    1.2260    1.4564 H   0  0  0  0  0  0  0  0  0  0  0  0
    1.0409    1.7034    0.5949 H   0  0  0  0  0  0  0  0  0  0  0  0
   -0.9501    2.1306   -0.7070 S   0  0  0  0  0  0  0  0  0  0  0  0
   -1.0407    3.2700   -0.0106 H   0  0  0  0  0  0  0  0  0  0  0  0
    1.2763   -1.0037    0.9340 C   0  0  0  0  0  0  0  0  0  0  0  0
    1.5809   -0.5563    2.0401 O   0  0  0  0  0  0  0  0  0  0  0  0
    1.7828   -2.1484    0.4613 N   0  0  0  0  0  0  0  0  0  0  0  0
    1.5307   -2.4127   -0.4801 H   0  0  0  0  0  0  0  0  0  0  0  0
    2.7371   -2.9885    1.1828 C   0  0  0  0  0  0  0  0  0  0  0  0
    2.3737   -3.1743    2.1960 H   0  0  0  0  0  0  0  0  0  0  0  0
    2.8663   -3.9408    0.6672 H   0  0  0  0  0  0  0  0  0  0  0  0
    3.6998   -2.4784    1.2459 H   0  0  0  0  0  0  0  0  0  0  0  0
  5  6  2  0  0  0  0
  5  7  1  0  0  0  0
  2  3  1  0  0  0  0
  2  4  1  0  0  0  0
  2  5  1  0  0  0  0
  1  2  1  0  0  0  0
 16 17  2  0  0  0  0
 16 18  1  0  0  0  0
 14 15  1  0  0  0  0
 11 12  1  0  0  0  0
 11 13  1  0  0  0  0
 11 14  1  0  0  0  0
  9 10  1  0  0  0  0
  9 11  1  0  0  0  0
  9 16  1  0  0  0  0
  7  8  1  0  0  0  0
  7  9  1  0  0  0  0
 20 21  1  0  0  0  0
 20 22  1  0  0  0  0
 20 23  1  0  0  0  0
 18 19  1  0  0  0  0
 18 20  1  0  0  0  0
M  END
$$$$
default_name
  -OEChem-01062215323D

 23 22  0     1  0  0  0  0  0999 V2000
   -2.6857   -3.6684    0.8743 H   0  0  0  0  0  0  0  0  0  0  0  0
   -2.6617   -2.6474    0.4953 C   0  0  0  0  0  0  0  0  0  0  0  0
   -3.2657   -2.0054    1.1353 H   0  0  0  0  0  0  0  0  0  0  0  0
   -3.0477   -2.6254   -0.5217 H   0  0  0  0  0  0  0  0  0  0  0  0
   -1.2337   -2.1564    0.4993 C   0  0  0  0  0  0  0  0  0  0  0  0
   -0.3327   -2.8864    0.8893 O   0  0  0  0  0  0  0  0  0  0  0  0
   -1.0277   -0.9164    0.0623 N   0  0  0  0  0  0  0  0  0  0  0  0
   -1.8237   -0.3604   -0.2157 H   0  0  0  0  0  0  0  0  0  0  0  0
    0.2713   -0.2414    0.0463 C   0  0  1  0  0  0  0  0  0  0  0  0
    0.6550   -0.2424   -0.9759 H   0  0  0  0  0  0  0  0  0  0  0  0
    0.0690    1.2173    0.4881 C   0  0  0  0  0  0  0  0  0  0  0  0
   -0.4365    1.2260    1.4564 H   0  0  0  0  0  0  0  0  0  0  0  0
    1.0409    1.7034    0.5949 H   0  0  0  0  0  0  0  0  0  0  0  0
   -0.9501    2.1306   -0.7070 S   0  0  0  0  0  0  0  0  0  0  0  0
   -1.0407    3.2700   -0.0106 H   0  0  0  0  0  0  0  0  0  0  0  0
    1.2763   -1.0037    0.9340 C   0  0  0  0  0  0  0  0  0  0  0  0
    1.3761   -0.7230    2.1289 O   0  0  0  0  0  0  0  0  0  0  0  0
    2.0104   -1.9647    0.3614 N   0  0  0  0  0  0  0  0  0  0  0  0
    1.9139   -2.0891   -0.6360 H   0  0  0  0  0  0  0  0  0  0  0  0
    2.9972   -2.7801    1.0672 C   0  0  0  0  0  0  0  0  0  0  0  0
    2.5540   -3.1920    1.9767 H   0  0  0  0  0  0  0  0  0  0  0  0
    3.3355   -3.5982    0.4302 H   0  0  0  0  0  0  0  0  0  0  0  0
    3.8522   -2.1616    1.3454 H   0  0  0  0  0  0  0  0  0  0  0  0
  5  6  2  0  0  0  0
  5  7  1  0  0  0  0
  2  3  1  0  0  0  0
  2  4  1  0  0  0  0
  2  5  1  0  0  0  0
  1  2  1  0  0  0  0
 16 17  2  0  0  0  0
 16 18  1  0  0  0  0
 14 15  1  0  0  0  0
 11 12  1  0  0  0  0
 11 13  1  0  0  0  0
 11 14  1  0  0  0  0
  9 10  1  0  0  0  0
  9 11  1  0  0  0  0
  9 16  1  0  0  0  0
  7  8  1  0  0  0  0
  7  9  1  0  0  0  0
 20 21  1  0  0  0  0
 20 22  1  0  0  0  0
 20 23  1  0  0  0  0
 18 19  1  0  0  0  0
 18 20  1  0  0  0  0
M  END
$$$$
default_name
  -OEChem-01062215323D

 23 22  0     1  0  0  0  0  0999 V2000
   -2.6857   -3.6684    0.8743 H   0  0  0  0  0  0  0  0  0  0  0  0
   -2.6617   -2.6474    0.4953 C   0  0  0  0  0  0  0  0  0  0  0  0
   -3.2657   -2.0054    1.1353 H   0  0  0  0  0  0  0  0  0  0  0  0
   -3.0477   -2.6254   -0.5217 H   0  0  0  0  0  0  0  0  0  0  0  0
   -1.2337   -2.1564    0.4993 C   0  0  0  0  0  0  0  0  0  0  0  0
   -0.3327   -2.8864    0.8893 O   0  0  0  0  0  0  0  0  0  0  0  0
   -1.0277   -0.9164    0.0623 N   0  0  0  0  0  0  0  0  0  0  0  0
   -1.8237   -0.3604   -0.2157 H   0  0  0  0  0  0  0  0  0  0  0  0
    0.2713   -0.2414    0.0463 C   0  0  1  0  0  0  0  0  0  0  0  0
    0.6550   -0.2424   -0.9759 H   0  0  0  0  0  0  0  0  0  0  0  0
    0.0690    1.2173    0.4881 C   0  0  0  0  0  0  0  0  0  0  0  0
   -0.4365    1.2260    1.4564 H   0  0  0  0  0  0  0  0  0  0  0  0
    1.0409    1.7034    0.5949 H   0  0  0  0  0  0  0  0  0  0  0  0
   -0.9501    2.1306   -0.7070 S   0  0  0  0  0  0  0  0  0  0  0  0
   -1.0407    3.2700   -0.0106 H   0  0  0  0  0  0  0  0  0  0  0  0
    1.2763   -1.0037    0.9340 C   0  0  0  0  0  0  0  0  0  0  0  0
    1.1916   -0.9296    2.1603 O   0  0  0  0  0  0  0  0  0  0  0  0
    2.2156   -1.7366    0.3250 N   0  0  0  0  0  0  0  0  0  0  0  0
    2.2557   -1.6932   -0.6830 H   0  0  0  0  0  0  0  0  0  0  0  0
    3.2322   -2.5207    1.0240 C   0  0  0  0  0  0  0  0  0  0  0  0
    2.7589   -3.1453    1.7849 H   0  0  0  0  0  0  0  0  0  0  0  0
    3.7681   -3.1573    0.3190 H   0  0  0  0  0  0  0  0  0  0  0  0
    3.9395   -1.8497    1.5144 H   0  0  0  0  0  0  0  0  0  0  0  0
  5  6  2  0  0  0  0
  5  7  1  0  0  0  0
  2  3  1  0  0  0  0
  2  4  1  0  0  0  0
  2  5  1  0  0  0  0
  1  2  1  0  0  0  0
 16 17  2  0  0  0  0
 16 18  1  0  0  0  0
 14 15  1  0  0  0  0
 11 12  1  0  0  0  0
 11 13  1  0  0  0  0
 11 14  1  0  0  0  0
  9 10  1  0  0  0  0
  9 11  1  0  0  0  0
  9 16  1  0  0  0  0
  7  8  1  0  0  0  0
  7  9  1  0  0  0  0
 20 21  1  0  0  0  0
 20 22  1  0  0  0  0
 20 23  1  0  0  0  0
 18 19  1  0  0  0  0
 18 20  1  0  0  0  0
M  END
$$$$
default_name
  -OEChem-01062215323D

 23 22  0     1  0  0  0  0  0999 V2000
   -2.6857   -3.6684    0.8743 H   0  0  0  0  0  0  0  0  0  0  0  0
   -2.6617   -2.6474    0.4953 C   0  0  0  0  0  0  0  0  0  0  0  0
   -3.2657   -2.0054    1.1353 H   0  0  0  0  0  0  0  0  0  0  0  0
   -3.0477   -2.6254   -0.5217 H   0  0  0  0  0  0  0  0  0  0  0  0
   -1.2337   -2.1564    0.4993 C   0  0  0  0  0  0  0  0  0  0  0  0
   -0.3327   -2.8864    0.8893 O   0  0  0  0  0  0  0  0  0  0  0  0
   -1.0277   -0.9164    0.0623 N   0  0  0  0  0  0  0  0  0  0  0  0
   -1.8237   -0.3604   -0.2157 H   0  0  0  0  0  0  0  0  0  0  0  0
    0.2713   -0.2414    0.0463 C   0  0  1  0  0  0  0  0  0  0  0  0
    0.6550   -0.2424   -0.9759 H   0  0  0  0  0  0  0  0  0  0  0  0
    0.0690    1.2173    0.4881 C   0  0  0  0  0  0  0  0  0  0  0  0
   -0.4365    1.2260    1.4564 H   0  0  0  0  0  0  0  0  0  0  0  0
    1.0409    1.7034    0.5949 H   0  0  0  0  0  0  0  0  0  0  0  0
   -0.9501    2.1306   -0.7070 S   0  0  0  0  0  0  0  0  0  0  0  0
   -1.0407    3.2700   -0.0106 H   0  0  0  0  0  0  0  0  0  0  0  0
    1.2763   -1.0037    0.9340 C   0  0  0  0  0  0  0  0  0  0  0  0
    1.0402   -1.1618    2.1322 O   0  0  0  0  0  0  0  0  0  0  0  0
    2.3845   -1.4795    0.3546 N   0  0  0  0  0  0  0  0  0  0  0  0
    2.5330   -1.2520   -0.6179 H   0  0  0  0  0  0  0  0  0  0  0  0
    3.4261   -2.2277    1.0560 C   0  0  0  0  0  0  0  0  0  0  0  0
    2.9744   -3.0373    1.6337 H   0  0  0  0  0  0  0  0  0  0  0  0
    4.1345   -2.6484    0.3413 H   0  0  0  0  0  0  0  0  0  0  0  0
    3.9557   -1.5639    1.7415 H   0  0  0  0  0  0  0  0  0  0  0  0
  5  6  2  0  0  0  0
  5  7  1  0  0  0  0
  2  3  1  0  0  0  0
  2  4  1  0  0  0  0
  2  5  1  0  0  0  0
  1  2  1  0  0  0  0
 16 17  2  0  0  0  0
 16 18  1  0  0  0  0
 14 15  1  0  0  0  0
 11 12  1  0  0  0  0
 11 13  1  0  0  0  0
 11 14  1  0  0  0  0
  9 10  1  0  0  0  0
  9 11  1  0  0  0  0
  9 16  1  0  0  0  0
  7  8  1  0  0  0  0
  7  9  1  0  0  0  0
 20 21  1  0  0  0  0
 20 22  1  0  0  0  0
 20 23  1  0  0  0  0
 18 19  1  0  0  0  0
 18 20  1  0  0  0  0
M  END
$$$$
default_name
  -OEChem-01062215323D

 23 22  0     1  0  0  0  0  0999 V2000
   -2.6857   -3.6684    0.8743 H   0  0  0  0  0  0  0  0  0  0  0  0
   -2.6617   -2.6474    0.4953 C   0  0  0  0  0  0  0  0  0  0  0  0
   -3.2657   -2.0054    1.1353 H   0  0  0  0  0  0  0  0  0  0  0  0
   -3.0477   -2.6254   -0.5217 H   0  0  0  0  0  0  0  0  0  0  0  0
   -1.2337   -2.1564    0.4993 C   0  0  0  0  0  0  0  0  0  0  0  0
   -0.3327   -2.8864    0.8893 O   0  0  0  0  0  0  0  0  0  0  0  0
   -1.0277   -0.9164    0.0623 N   0  0  0  0  0  0  0  0  0  0  0  0
   -1.8237   -0.3604   -0.2157 H   0  0  0  0  0  0  0  0  0  0  0  0
    0.2713   -0.2414    0.0463 C   0  0  1  0  0  0  0  0  0  0  0  0
    0.6550   -0.2424   -0.9759 H   0  0  0  0  0  0  0  0  0  0  0  0
    0.0690    1.2173    0.4881 C   0  0  0  0  0  0  0  0  0  0  0  0
   -0.4365    1.2260    1.4564 H   0  0  0  0  0  0  0  0  0  0  0  0
    1.0409    1.7034    0.5949 H   0  0  0  0  0  0  0  0  0  0  0  0
   -0.9501    2.1306   -0.7070 S   0  0  0  0  0  0  0  0  0  0  0  0
   -1.0407    3.2700   -0.0106 H   0  0  0  0  0  0  0  0  0  0  0  0
    1.2763   -1.0037    0.9340 C   0  0  0  0  0  0  0  0  0  0  0  0
    0.9322   -1.4040    2.0466 O   0  0  0  0  0  0  0  0  0  0  0  0
    2.5056   -1.2110    0.4481 N   0  0  0  0  0  0  0  0  0  0  0  0
    2.7267   -0.7954   -0.4452 H   0  0  0  0  0  0  0  0  0  0  0  0
    3.5657   -1.9213    1.1611 C   0  0  0  0  0  0  0  0  0  0  0  0
    3.1857   -2.8753    1.5335 H   0  0  0  0  0  0  0  0  0  0  0  0
    4.4097   -2.1059    0.4956 H   0  0  0  0  0  0  0  0  0  0  0  0
    3.8998   -1.3237    2.0110 H   0  0  0  0  0  0  0  0  0  0  0  0
  5  6  2  0  0  0  0
  5  7  1  0  0  0  0
  2  3  1  0  0  0  0
  2  4  1  0  0  0  0
  2  5  1  0  0  0  0
  1  2  1  0  0  0  0
 16 17  2  0  0  0  0
 16 18  1  0  0  0  0
 14 15  1  0  0  0  0
 11 12  1  0  0  0  0
 11 13  1  0  0  0  0
 11 14  1  0  0  0  0
  9 10  1  0  0  0  0
  9 11  1  0  0  0  0
  9 16  1  0  0  0  0
  7  8  1  0  0  0  0
  7  9  1  0  0  0  0
 20 21  1  0  0  0  0
 20 22  1  0  0  0  0
 20 23  1  0  0  0  0
 18 19  1  0  0  0  0
 18 20  1  0  0  0  0
M  END
$$$$
default_name
  -OEChem-01062215323D

 23 22  0     1  0  0  0  0  0999 V2000
   -2.6857   -3.6684    0.8743 H   0  0  0  0  0  0  0  0  0  0  0  0
   -2.6617   -2.6474    0.4953 C   0  0  0  0  0  0  0  0  0  0  0  0
   -3.2657   -2.0054    1.1353 H   0  0  0  0  0  0  0  0  0  0  0  0
   -3.0477   -2.6254   -0.5217 H   0  0  0  0  0  0  0  0  0  0  0  0
   -1.2337   -2.1564    0.4993 C   0  0  0  0  0  0  0  0  0  0  0  0
   -0.3327   -2.8864    0.8893 O   0  0  0  0  0  0  0  0  0  0  0  0
   -1.0277   -0.9164    0.0623 N   0  0  0  0  0  0  0  0  0  0  0  0
   -1.8237   -0.3604   -0.2157 H   0  0  0  0  0  0  0  0  0  0  0  0
    0.2713   -0.2414    0.0463 C   0  0  1  0  0  0  0  0  0  0  0  0
    0.6550   -0.2424   -0.9759 H   0  0  0  0  0  0  0  0  0  0  0  0
    0.0690    1.2173    0.4881 C   0  0  0  0  0  0  0  0  0  0  0  0
   -0.4365    1.2260    1.4564 H   0  0  0  0  0  0  0  0  0  0  0  0
    1.0409    1.7034    0.5949 H   0  0  0  0  0  0  0  0  0  0  0  0
   -0.9501    2.1306   -0.7070 S   0  0  0  0  0  0  0  0  0  0  0  0
   -1.0407    3.2700   -0.0106 H   0  0  0  0  0  0  0  0  0  0  0  0
    1.2763   -1.0037    0.9340 C   0  0  0  0  0  0  0  0  0  0  0  0
    0.8749   -1.6395    1.9092 O   0  0  0  0  0  0  0  0  0  0  0  0
    2.5706   -0.9494    0.5992 N   0  0  0  0  0  0  0  0  0  0  0  0
    2.8237   -0.3547   -0.1766 H   0  0  0  0  0  0  0  0  0  0  0  0
    3.6414   -1.6222    1.3322 C   0  0  0  0  0  0  0  0  0  0  0  0
    3.3786   -2.6706    1.4910 H   0  0  0  0  0  0  0  0  0  0  0  0
    4.5750   -1.5670    0.7712 H   0  0  0  0  0  0  0  0  0  0  0  0
    3.7756   -1.1455    2.3047 H   0  0  0  0  0  0  0  0  0  0  0  0
  5  6  2  0  0  0  0
  5  7  1  0  0  0  0
  2  3  1  0  0  0  0
  2  4  1  0  0  0  0
  2  5  1  0  0  0  0
  1  2  1  0  0  0  0
 16 17  2  0  0  0  0
 16 18  1  0  0  0  0
 14 15  1  0  0  0  0
 11 12  1  0  0  0  0
 11 13  1  0  0  0  0
 11 14  1  0  0  0  0
  9 10  1  0  0  0  0
  9 11  1  0  0  0  0
  9 16  1  0  0  0  0
  7  8  1  0  0  0  0
  7  9  1  0  0  0  0
 20 21  1  0  0  0  0
 20 22  1  0  0  0  0
 20 23  1  0  0  0  0
 18 19  1  0  0  0  0
 18 20  1  0  0  0  0
M  END
$$$$
default_name
  -OEChem-01062215323D

 23 22  0     1  0  0  0  0  0999 V2000
   -2.6857   -3.6684    0.8743 H   0  0  0  0  0  0  0  0  0  0  0  0
   -2.6617   -2.6474    0.4953 C   0  0  0  0  0  0  0  0  0  0  0  0
   -3.2657   -2.0054    1.1353 H   0  0  0  0  0  0  0  0  0  0  0  0
   -3.0477   -2.6254   -0.5217 H   0  0  0  0  0  0  0  0  0  0  0  0
   -1.2337   -2.1564    0.4993 C   0  0  0  0  0  0  0  0  0  0  0  0
   -0.3327   -2.8864    0.8893 O   0  0  0  0  0  0  0  0  0  0  0  0
   -1.0277   -0.9164    0.0623 N   0  0  0  0  0  0  0  0  0  0  0  0
   -1.8237   -0.3604   -0.2157 H   0  0  0  0  0  0  0  0  0  0  0  0
    0.2713   -0.2414    0.0463 C   0  0  1  0  0  0  0  0  0  0  0  0
    0.6550   -0.2424   -0.9759 H   0  0  0  0  0  0  0  0  0  0  0  0
    0.0690    1.2173    0.4881 C   0  0  0  0  0  0  0  0  0  0  0  0
   -0.4365    1.2260    1.4564 H   0  0  0  0  0  0  0  0  0  0  0  0
    1.0409    1.7034    0.5949 H   0  0  0  0  0  0  0  0  0  0  0  0
   -0.9501    2.1306   -0.7070 S   0  0  0  0  0  0  0  0  0  0  0  0
   -1.0407    3.2700   -0.0106 H   0  0  0  0  0  0  0  0  0  0  0  0
    1.2763   -1.0037    0.9340 C   0  0  0  0  0  0  0  0  0  0  0  0
    0.8721   -1.8525    1.7295 O   0  0  0  0  0  0  0  0  0  0  0  0
    2.5751   -0.7125    0.7975 N   0  0  0  0  0  0  0  0  0  0  0  0
    2.8175    0.0402    0.1696 H   0  0  0  0  0  0  0  0  0  0  0  0
    3.6481   -1.3510    1.5576 C   0  0  0  0  0  0  0  0  0  0  0  0
    3.5398   -2.4369    1.5092 H   0  0  0  0  0  0  0  0  0  0  0  0
    4.6192   -1.0682    1.1495 H   0  0  0  0  0  0  0  0  0  0  0  0
    3.5914   -1.0414    2.6026 H   0  0  0  0  0  0  0  0  0  0  0  0
  5  6  2  0  0  0  0
  5  7  1  0  0  0  0
  2  3  1  0  0  0  0
  2  4  1  0  0  0  0
  2  5  1  0  0  0  0
  1  2  1  0  0  0  0
 16 17  2  0  0  0  0
 16 18  1  0  0  0  0
 14 15  1  0  0  0  0
 11 12  1  0  0  0  0
 11 13  1  0  0  0  0
 11 14  1  0  0  0  0
  9 10  1  0  0  0  0
  9 11  1  0  0  0  0
  9 16  1  0  0  0  0
  7  8  1  0  0  0  0
  7  9  1  0  0  0  0
 20 21  1  0  0  0  0
 20 22  1  0  0  0  0
 20 23  1  0  0  0  0
 18 19  1  0  0  0  0
 18 20  1  0  0  0  0
M  END
$$$$
default_name
  -OEChem-01062215323D

 23 22  0     1  0  0  0  0  0999 V2000
   -2.6857   -3.6684    0.8743 H   0  0  0  0  0  0  0  0  0  0  0  0
   -2.6617   -2.6474    0.4953 C   0  0  0  0  0  0  0  0  0  0  0  0
   -3.2657   -2.0054    1.1353 H   0  0  0  0  0  0  0  0  0  0  0  0
   -3.0477   -2.6254   -0.5217 H   0  0  0  0  0  0  0  0  0  0  0  0
   -1.2337   -2.1564    0.4993 C   0  0  0  0  0  0  0  0  0  0  0  0
   -0.3327   -2.8864    0.8893 O   0  0  0  0  0  0  0  0  0  0  0  0
   -1.0277   -0.9164    0.0623 N   0  0  0  0  0  0  0  0  0  0  0  0
   -1.8237   -0.3604   -0.2157 H   0  0  0  0  0  0  0  0  0  0  0  0
    0.2713   -0.2414    0.0463 C   0  0  1  0  0  0  0  0  0  0  0  0
    0.5305   -0.0032   -0.9872 H   0  0  0  0  0  0  0  0  0  0  0  0
    0.1476    1.0744    0.8321 C   0  0  0  0  0  0  0  0  0  0  0  0
   -0.2389    0.8547    1.8298 H   0  0  0  0  0  0  0  0  0  0  0  0
    1.1332    1.5337    0.9304 H   0  0  0  0  0  0  0  0  0  0  0  0
   -0.9911    2.2265    0.0092 S   0  0  0  0  0  0  0  0  0  0  0  0
   -0.9791    3.1743    0.9542 H   0  0  0  0  0  0  0  0  0  0  0  0
    1.3618   -1.1761    0.6086 C   0  0  0  0  0  0  0  0  0  0  0  0
    1.0649   -2.3116    0.9812 O   0  0  0  0  0  0  0  0  0  0  0  0
    2.6148   -0.7101    0.6641 N   0  0  0  0  0  0  0  0  0  0  0  0
    2.7631    0.2529    0.3988 H   0  0  0  0  0  0  0  0  0  0  0  0
    3.7578   -1.4734    1.1619 C   0  0  0  0  0  0  0  0  0  0  0  0
    3.7845   -2.4543    0.6818 H   0  0  0  0  0  0  0  0  0  0  0  0
    4.6869   -0.9436    0.9486 H   0  0  0  0  0  0  0  0  0  0  0  0
    3.6622   -1.6155    2.2397 H   0  0  0  0  0  0  0  0  0  0  0  0
  5  6  2  0  0  0  0
  5  7  1  0  0  0  0
  2  3  1  0  0  0  0
  2  4  1  0  0  0  0
  2  5  1  0  0  0  0
  1  2  1  0  0  0  0
 16 17  2  0  0  0  0
 16 18  1  0  0  0  0
 14 15  1  0  0  0  0
 11 12  1  0  0  0  0
 11 13  1  0  0  0  0
 11 14  1  0  0  0  0
  9 10  1  0  0  0  0
  9 11  1  0  0  0  0
  9 16  1  0  0  0  0
  7  8  1  0  0  0  0
  7  9  1  0  0  0  0
 20 21  1  0  0  0  0
 20 22  1  0  0  0  0
 20 23  1  0  0  0  0
 18 19  1  0  0  0  0
 18 20  1  0  0  0  0
M  END
$$$$
default_name
  -OEChem-01062215323D

 23 22  0     1  0  0  0  0  0999 V2000
   -2.6857   -3.6684    0.8743 H   0  0  0  0  0  0  0  0  0  0  0  0
   -2.6617   -2.6474    0.4953 C   0  0  0  0  0  0  0  0  0  0  0  0
   -3.2657   -2.0054    1.1353 H   0  0  0  0  0  0  0  0  0  0  0  0
   -3.0477   -2.6254   -0.5217 H   0  0  0  0  0  0  0  0  0  0  0  0
   -1.2337   -2.1564    0.4993 C   0  0  0  0  0  0  0  0  0  0  0  0
   -0.3327   -2.8864    0.8893 O   0  0  0  0  0  0  0  0  0  0  0  0
   -1.0277   -0.9164    0.0623 N   0  0  0  0  0  0  0  0  0  0  0  0
   -1.8237   -0.3604   -0.2157 H   0  0  0  0  0  0  0  0  0  0  0  0
    0.2713   -0.2414    0.0463 C   0  0  1  0  0  0  0  0  0  0  0  0
    0.5305   -0.0032   -0.9872 H   0  0  0  0  0  0  0  0  0  0  0  0
    0.1476    1.0744    0.8321 C   0  0  0  0  0  0  0  0  0  0  0  0
   -0.2389    0.8547    1.8298 H   0  0  0  0  0  0  0  0  0  0  0  0
    1.1332    1.5337    0.9304 H   0  0  0  0  0  0  0  0  0  0  0  0
   -0.9911    2.2265    0.0092 S   0  0  0  0  0  0  0  0  0  0  0  0
   -0.9791    3.1743    0.9542 H   0  0  0  0  0  0  0  0  0  0  0  0
    1.3618   -1.1761    0.6086 C   0  0  0  0  0  0  0  0  0  0  0  0
    1.1385   -2.3818    0.7218 O   0  0  0  0  0  0  0  0  0  0  0  0
    2.5345   -0.6307    0.9518 N   0  0  0  0  0  0  0  0  0  0  0  0
    2.6145    0.3738    0.8878 H   0  0  0  0  0  0  0  0  0  0  0  0
    3.6674   -1.3814    1.4902 C   0  0  0  0  0  0  0  0  0  0  0  0
    3.8717   -2.2474    0.8566 H   0  0  0  0  0  0  0  0  0  0  0  0
    4.5546   -0.7482    1.5301 H   0  0  0  0  0  0  0  0  0  0  0  0
    3.4294   -1.7334    2.4954 H   0  0  0  0  0  0  0  0  0  0  0  0
  5  6  2  0  0  0  0
  5  7  1  0  0  0  0
  2  3  1  0  0  0  0
  2  4  1  0  0  0  0
  2  5  1  0  0  0  0
  1  2  1  0  0  0  0
 16 17  2  0  0  0  0
 16 18  1  0  0  0  0
 14 15  1  0  0  0  0
 11 12  1  0  0  0  0
 11 13  1  0  0  0  0
 11 14  1  0  0  0  0
  9 10  1  0  0  0  0
  9 11  1  0  0  0  0
  9 16  1  0  0  0  0
  7  8  1  0  0  0  0
  7  9  1  0  0  0  0
 20 21  1  0  0  0  0
 20 22  1  0  0  0  0
 20 23  1  0  0  0  0
 18 19  1  0  0  0  0
 18 20  1  0  0  0  0
M  END
$$$$
default_name
  -OEChem-01062215323D

 23 22  0     1  0  0  0  0  0999 V2000
   -2.6857   -3.6684    0.8743 H   0  0  0  0  0  0  0  0  0  0  0  0
   -2.6617   -2.6474    0.4953 C   0  0  0  0  0  0  0  0  0  0  0  0
   -3.2657   -2.0054    1.1353 H   0  0  0  0  0  0  0  0  0  0  0  0
   -3.0477   -2.6254   -0.5217 H   0  0  0  0  0  0  0  0  0  0  0  0
   -1.2337   -2.1564    0.4993 C   0  0  0  0  0  0  0  0  0  0  0  0
   -0.3327   -2.8864    0.8893 O   0  0  0  0  0  0  0  0  0  0  0  0
   -1.0277   -0.9164    0.0623 N   0  0  0  0  0  0  0  0  0  0  0  0
   -1.8237   -0.3604   -0.2157 H   0  0  0  0  0  0  0  0  0  0  0  0
    0.2713   -0.2414    0.0463 C   0  0  1  0  0  0  0  0  0  0  0  0
    0.5305   -0.0032   -0.9872 H   0  0  0  0  0  0  0  0  0  0  0  0
    0.1476    1.0744    0.8321 C   0  0  0  0  0  0  0  0  0  0  0  0
   -0.2389    0.8547    1.8298 H   0  0  0  0  0  0  0  0  0  0  0  0
    1.1332    1.5337    0.9304 H   0  0  0  0  0  0  0  0  0  0  0  0
   -0.9911    2.2265    0.0092 S   0  0  0  0  0  0  0  0  0  0  0  0
   -0.9791    3.1743    0.9542 H   0  0  0  0  0  0  0  0  0  0  0  0
    1.3618   -1.1761    0.6086 C   0  0  0  0  0  0  0  0  0  0  0  0
    1.2569   -2.3952    0.4699 O   0  0  0  0  0  0  0  0  0  0  0  0
    2.4043   -0.6144    1.2316 N   0  0  0  0  0  0  0  0  0  0  0  0
    2.3830    0.3871    1.3590 H   0  0  0  0  0  0  0  0  0  0  0  0
    3.5200   -1.3610    1.8100 C   0  0  0  0  0  0  0  0  0  0  0  0
    3.9089   -2.0714    1.0770 H   0  0  0  0  0  0  0  0  0  0  0  0
    4.3171   -0.6784    2.1067 H   0  0  0  0  0  0  0  0  0  0  0  0
    3.1755   -1.9159    2.6843 H   0  0  0  0  0  0  0  0  0  0  0  0
  5  6  2  0  0  0  0
  5  7  1  0  0  0  0
  2  3  1  0  0  0  0
  2  4  1  0  0  0  0
  2  5  1  0  0  0  0
  1  2  1  0  0  0  0
 16 17  2  0  0  0  0
 16 18  1  0  0  0  0
 14 15  1  0  0  0  0
 11 12  1  0  0  0  0
 11 13  1  0  0  0  0
 11 14  1  0  0  0  0
  9 10  1  0  0  0  0
  9 11  1  0  0  0  0
  9 16  1  0  0  0  0
  7  8  1  0  0  0  0
  7  9  1  0  0  0  0
 20 21  1  0  0  0  0
 20 22  1  0  0  0  0
 20 23  1  0  0  0  0
 18 19  1  0  0  0  0
 18 20  1  0  0  0  0
M  END
$$$$
default_name
  -OEChem-01062215323D

 23 22  0     1  0  0  0  0  0999 V2000
   -2.6857   -3.6684    0.8743 H   0  0  0  0  0  0  0  0  0  0  0  0
   -2.6617   -2.6474    0.4953 C   0  0  0  0  0  0  0  0  0  0  0  0
   -3.2657   -2.0054    1.1353 H   0  0  0  0  0  0  0  0  0  0  0  0
   -3.0477   -2.6254   -0.5217 H   0  0  0  0  0  0  0  0  0  0  0  0
   -1.2337   -2.1564    0.4993 C   0  0  0  0  0  0  0  0  0  0  0  0
   -0.3327   -2.8864    0.8893 O   0  0  0  0  0  0  0  0  0  0  0  0
   -1.0277   -0.9164    0.0623 N   0  0  0  0  0  0  0  0  0  0  0  0
   -1.8237   -0.3604   -0.2157 H   0  0  0  0  0  0  0  0  0  0  0  0
    0.2713   -0.2414    0.0463 C   0  0  1  0  0  0  0  0  0  0  0  0
    0.5305   -0.0032   -0.9872 H   0  0  0  0  0  0  0  0  0  0  0  0
    0.1476    1.0744    0.8321 C   0  0  0  0  0  0  0  0  0  0  0  0
   -0.2389    0.8547    1.8298 H   0  0  0  0  0  0  0  0  0  0  0  0
    1.1332    1.5337    0.9304 H   0  0  0  0  0  0  0  0  0  0  0  0
   -0.9911    2.2265    0.0092 S   0  0  0  0  0  0  0  0  0  0  0  0
   -0.9791    3.1743    0.9542 H   0  0  0  0  0  0  0  0  0  0  0  0
    1.3618   -1.1761    0.6086 C   0  0  0  0  0  0  0  0  0  0  0  0
    1.4120   -2.3509    0.2427 O   0  0  0  0  0  0  0  0  0  0  0  0
    2.2331   -0.6620    1.4844 N   0  0  0  0  0  0  0  0  0  0  0  0
    2.0842    0.2919    1.7803 H   0  0  0  0  0  0  0  0  0  0  0  0
    3.3254   -1.4138    2.0995 C   0  0  0  0  0  0  0  0  0  0  0  0
    3.8937   -1.9382    1.3279 H   0  0  0  0  0  0  0  0  0  0  0  0
    3.9907   -0.7388    2.6392 H   0  0  0  0  0  0  0  0  0  0  0  0
    2.9179   -2.1508    2.7936 H   0  0  0  0  0  0  0  0  0  0  0  0
  5  6  2  0  0  0  0
  5  7  1  0  0  0  0
  2  3  1  0  0  0  0
  2  4  1  0  0  0  0
  2  5  1  0  0  0  0
  1  2  1  0  0  0  0
 16 17  2  0  0  0  0
 16 18  1  0  0  0  0
 14 15  1  0  0  0  0
 11 12  1  0  0  0  0
 11 13  1  0  0  0  0
 11 14  1  0  0  0  0
  9 10  1  0  0  0  0
  9 11  1  0  0  0  0
  9 16  1  0  0  0  0
  7  8  1  0  0  0  0
  7  9  1  0  0  0  0
 20 21  1  0  0  0  0
 20 22  1  0  0  0  0
 20 23  1  0  0  0  0
 18 19  1  0  0  0  0
 18 20  1  0  0  0  0
M  END
$$$$
default_name
  -OEChem-01062215323D

 23 22  0     1  0  0  0  0  0999 V2000
   -2.6857   -3.6684    0.8743 H   0  0  0  0  0  0  0  0  0  0  0  0
   -2.6617   -2.6474    0.4953 C   0  0  0  0  0  0  0  0  0  0  0  0
   -3.2657   -2.0054    1.1353 H   0  0  0  0  0  0  0  0  0  0  0  0
   -3.0477   -2.6254   -0.5217 H   0  0  0  0  0  0  0  0  0  0  0  0
   -1.2337   -2.1564    0.4993 C   0  0  0  0  0  0  0  0  0  0  0  0
   -0.3327   -2.8864    0.8893 O   0  0  0  0  0  0  0  0  0  0  0  0
   -1.0277   -0.9164    0.0623 N   0  0  0  0  0  0  0  0  0  0  0  0
   -1.8237   -0.3604   -0.2157 H   0  0  0  0  0  0  0  0  0  0  0  0
    0.2713   -0.2414    0.0463 C   0  0  1  0  0  0  0  0  0  0  0  0
    0.5305   -0.0032   -0.9872 H   0  0  0  0  0  0  0  0  0  0  0  0
    0.1476    1.0744    0.8321 C   0  0  0  0  0  0  0  0  0  0  0  0
   -0.2389    0.8547    1.8298 H   0  0  0  0  0  0  0  0  0  0  0  0
    1.1332    1.5337    0.9304 H   0  0  0  0  0  0  0  0  0  0  0  0
   -0.9911    2.2265    0.0092 S   0  0  0  0  0  0  0  0  0  0  0  0
   -0.9791    3.1743    0.9542 H   0  0  0  0  0  0  0  0  0  0  0  0
    1.3618   -1.1761    0.6086 C   0  0  0  0  0  0  0  0  0  0  0  0
    1.5933   -2.2518    0.0557 O   0  0  0  0  0  0  0  0  0  0  0  0
    2.0325   -0.7705    1.6930 N   0  0  0  0  0  0  0  0  0  0  0  0
    1.7384    0.0946    2.1228 H   0  0  0  0  0  0  0  0  0  0  0  0
    3.0971   -1.5361    2.3390 C   0  0  0  0  0  0  0  0  0  0  0  0
    3.8271   -1.8569    1.5923 H   0  0  0  0  0  0  0  0  0  0  0  0
    3.5976   -0.9254    3.0914 H   0  0  0  0  0  0  0  0  0  0  0  0
    2.6740   -2.4219    2.8157 H   0  0  0  0  0  0  0  0  0  0  0  0
  5  6  2  0  0  0  0
  5  7  1  0  0  0  0
  2  3  1  0  0  0  0
  2  4  1  0  0  0  0
  2  5  1  0  0  0  0
  1  2  1  0  0  0  0
 16 17  2  0  0  0  0
 16 18  1  0  0  0  0
 14 15  1  0  0  0  0
 11 12  1  0  0  0  0
 11 13  1  0  0  0  0
 11 14  1  0  0  0  0
  9 10  1  0  0  0  0
  9 11  1  0  0  0  0
  9 16  1  0  0  0  0
  7  8  1  0  0  0  0
  7  9  1  0  0  0  0
 20 21  1  0  0  0  0
 20 22  1  0  0  0  0
 20 23  1  0  0  0  0
 18 19  1  0  0  0  0
 18 20  1  0  0  0  0
M  END
$$$$
default_name
  -OEChem-01062215323D

 23 22  0     1  0  0  0  0  0999 V2000
   -2.6857   -3.6684    0.8743 H   0  0  0  0  0  0  0  0  0  0  0  0
   -2.6617   -2.6474    0.4953 C   0  0  0  0  0  0  0  0  0  0  0  0
   -3.2657   -2.0054    1.1353 H   0  0  0  0  0  0  0  0  0  0  0  0
   -3.0477   -2.6254   -0.5217 H   0  0  0  0  0  0  0  0  0  0  0  0
   -1.2337   -2.1564    0.4993 C   0  0  0  0  0  0  0  0  0  0  0  0
   -0.3327   -2.8864    0.8893 O   0  0  0  0  0  0  0  0  0  0  0  0
   -1.0277   -0.9164    0.0623 N   0  0  0  0  0  0  0  0  0  0  0  0
   -1.8237   -0.3604   -0.2157 H   0  0  0  0  0  0  0  0  0  0  0  0
    0.2713   -0.2414    0.0463 C   0  0  1  0  0  0  0  0  0  0  0  0
    0.5305   -0.0032   -0.9872 H   0  0  0  0  0  0  0  0  0  0  0  0
    0.1476    1.0744    0.8321 C   0  0  0  0  0  0  0  0  0  0  0  0
   -0.2389    0.8547    1.8298 H   0  0  0  0  0  0  0  0  0  0  0  0
    1.1332    1.5337    0.9304 H   0  0  0  0  0  0  0  0  0  0  0  0
   -0.9911    2.2265    0.0092 S   0  0  0  0  0  0  0  0  0  0  0  0
   -0.9791    3.1743    0.9542 H   0  0  0  0  0  0  0  0  0  0  0  0
    1.3618   -1.1761    0.6086 C   0  0  0  0  0  0  0  0  0  0  0  0
    1.7884   -2.1048   -0.0783 O   0  0  0  0  0  0  0  0  0  0  0  0
    1.8164   -0.9323    1.8432 N   0  0  0  0  0  0  0  0  0  0  0  0
    1.3694   -0.1912    2.3634 H   0  0  0  0  0  0  0  0  0  0  0  0
    2.8506   -1.7196    2.5121 C   0  0  0  0  0  0  0  0  0  0  0  0
    3.7136   -1.8330    1.8521 H   0  0  0  0  0  0  0  0  0  0  0  0
    3.1646   -1.2255    3.4323 H   0  0  0  0  0  0  0  0  0  0  0  0
    2.4606   -2.7109    2.7493 H   0  0  0  0  0  0  0  0  0  0  0  0
  5  6  2  0  0  0  0
  5  7  1  0  0  0  0
  2  3  1  0  0  0  0
  2  4  1  0  0  0  0
  2  5  1  0  0  0  0
  1  2  1  0  0  0  0
 16 17  2  0  0  0  0
 16 18  1  0  0  0  0
 14 15  1  0  0  0  0
 11 12  1  0  0  0  0
 11 13  1  0  0  0  0
 11 14  1  0  0  0  0
  9 10  1  0  0  0  0
  9 11  1  0  0  0  0
  9 16  1  0  0  0  0
  7  8  1  0  0  0  0
  7  9  1  0  0  0  0
 20 21  1  0  0  0  0
 20 22  1  0  0  0  0
 20 23  1  0  0  0  0
 18 19  1  0  0  0  0
 18 20  1  0  0  0  0
M  END
$$$$
default_name
  -OEChem-01062215323D

 23 22  0     1  0  0  0  0  0999 V2000
   -2.6857   -3.6684    0.8743 H   0  0  0  0  0  0  0  0  0  0  0  0
   -2.6617   -2.6474    0.4953 C   0  0  0  0  0  0  0  0  0  0  0  0
   -3.2657   -2.0054    1.1353 H   0  0  0  0  0  0  0  0  0  0  0  0
   -3.0477   -2.6254   -0.5217 H   0  0  0  0  0  0  0  0  0  0  0  0
   -1.2337   -2.1564    0.4993 C   0  0  0  0  0  0  0  0  0  0  0  0
   -0.3327   -2.8864    0.8893 O   0  0  0  0  0  0  0  0  0  0  0  0
   -1.0277   -0.9164    0.0623 N   0  0  0  0  0  0  0  0  0  0  0  0
   -1.8237   -0.3604   -0.2157 H   0  0  0  0  0  0  0  0  0  0  0  0
    0.2713   -0.2414    0.0463 C   0  0  1  0  0  0  0  0  0  0  0  0
    0.5305   -0.0032   -0.9872 H   0  0  0  0  0  0  0  0  0  0  0  0
    0.1476    1.0744    0.8321 C   0  0  0  0  0  0  0  0  0  0  0  0
   -0.2389    0.8547    1.8298 H   0  0  0  0  0  0  0  0  0  0  0  0
    1.1332    1.5337    0.9304 H   0  0  0  0  0  0  0  0  0  0  0  0
   -0.9911    2.2265    0.0092 S   0  0  0  0  0  0  0  0  0  0  0  0
   -0.9791    3.1743    0.9542 H   0  0  0  0  0  0  0  0  0  0  0  0
    1.3618   -1.1761    0.6086 C   0  0  0  0  0  0  0  0  0  0  0  0
    1.9841   -1.9199   -0.1503 O   0  0  0  0  0  0  0  0  0  0  0  0
    1.5992   -1.1365    1.9248 N   0  0  0  0  0  0  0  0  0  0  0  0
    1.0021   -0.5462    2.4856 H   0  0  0  0  0  0  0  0  0  0  0  0
    2.6026   -1.9518    2.6071 C   0  0  0  0  0  0  0  0  0  0  0  0
    3.5610   -1.8682    2.0896 H   0  0  0  0  0  0  0  0  0  0  0  0
    2.7212   -1.6187    3.6388 H   0  0  0  0  0  0  0  0  0  0  0  0
    2.2922   -2.9980    2.5987 H   0  0  0  0  0  0  0  0  0  0  0  0
  5  6  2  0  0  0  0
  5  7  1  0  0  0  0
  2  3  1  0  0  0  0
  2  4  1  0  0  0  0
  2  5  1  0  0  0  0
  1  2  1  0  0  0  0
 16 17  2  0  0  0  0
 16 18  1  0  0  0  0
 14 15  1  0  0  0  0
 11 12  1  0  0  0  0
 11 13  1  0  0  0  0
 11 14  1  0  0  0  0
  9 10  1  0  0  0  0
  9 11  1  0  0  0  0
  9 16  1  0  0  0  0
  7  8  1  0  0  0  0
  7  9  1  0  0  0  0
 20 21  1  0  0  0  0
 20 22  1  0  0  0  0
 20 23  1  0  0  0  0
 18 19  1  0  0  0  0
 18 20  1  0  0  0  0
M  END
$$$$
default_name
  -OEChem-01062215323D

 23 22  0     1  0  0  0  0  0999 V2000
   -2.6857   -3.6684    0.8743 H   0  0  0  0  0  0  0  0  0  0  0  0
   -2.6617   -2.6474    0.4953 C   0  0  0  0  0  0  0  0  0  0  0  0
   -3.2657   -2.0054    1.1353 H   0  0  0  0  0  0  0  0  0  0  0  0
   -3.0477   -2.6254   -0.5217 H   0  0  0  0  0  0  0  0  0  0  0  0
   -1.2337   -2.1564    0.4993 C   0  0  0  0  0  0  0  0  0  0  0  0
   -0.3327   -2.8864    0.8893 O   0  0  0  0  0  0  0  0  0  0  0  0
   -1.0277   -0.9164    0.0623 N   0  0  0  0  0  0  0  0  0  0  0  0
   -1.8237   -0.3604   -0.2157 H   0  0  0  0  0  0  0  0  0  0  0  0
    0.2713   -0.2414    0.0463 C   0  0  1  0  0  0  0  0  0  0  0  0
    0.5305   -0.0032   -0.9872 H   0  0  0  0  0  0  0  0  0  0  0  0
    0.1476    1.0744    0.8321 C   0  0  0  0  0  0  0  0  0  0  0  0
   -0.2389    0.8547    1.8298 H   0  0  0  0  0  0  0  0  0  0  0  0
    1.1332    1.5337    0.9304 H   0  0  0  0  0  0  0  0  0  0  0  0
   -0.9911    2.2265    0.0092 S   0  0  0  0  0  0  0  0  0  0  0  0
   -0.9791    3.1743    0.9542 H   0  0  0  0  0  0  0  0  0  0  0  0
    1.3618   -1.1761    0.6086 C   0  0  0  0  0  0  0  0  0  0  0  0
    2.1669   -1.7097   -0.1554 O   0  0  0  0  0  0  0  0  0  0  0  0
    1.3960   -1.3692    1.9322 N   0  0  0  0  0  0  0  0  0  0  0  0
    0.6617   -0.9461    2.4811 H   0  0  0  0  0  0  0  0  0  0  0  0
    2.3701   -2.2168    2.6174 C   0  0  0  0  0  0  0  0  0  0  0  0
    3.3796   -1.9600    2.2886 H   0  0  0  0  0  0  0  0  0  0  0  0
    2.2976   -2.0780    3.6967 H   0  0  0  0  0  0  0  0  0  0  0  0
    2.1802   -3.2637    2.3743 H   0  0  0  0  0  0  0  0  0  0  0  0
  5  6  2  0  0  0  0
  5  7  1  0  0  0  0
  2  3  1  0  0  0  0
  2  4  1  0  0  0  0
  2  5  1  0  0  0  0
  1  2  1  0  0  0  0
 16 17  2  0  0  0  0
 16 18  1  0  0  0  0
 14 15  1  0  0  0  0
 11 12  1  0  0  0  0
 11 13  1  0  0  0  0
 11 14  1  0  0  0  0
  9 10  1  0  0  0  0
  9 11  1  0  0  0  0
  9 16  1  0  0  0  0
  7  8  1  0  0  0  0
  7  9  1  0  0  0  0
 20 21  1  0  0  0  0
 20 22  1  0  0  0  0
 20 23  1  0  0  0  0
 18 19  1  0  0  0  0
 18 20  1  0  0  0  0
M  END
$$$$
default_name
  -OEChem-01062215323D

 23 22  0     1  0  0  0  0  0999 V2000
   -2.6857   -3.6684    0.8743 H   0  0  0  0  0  0  0  0  0  0  0  0
   -2.6617   -2.6474    0.4953 C   0  0  0  0  0  0  0  0  0  0  0  0
   -3.2657   -2.0054    1.1353 H   0  0  0  0  0  0  0  0  0  0  0  0
   -3.0477   -2.6254   -0.5217 H   0  0  0  0  0  0  0  0  0  0  0  0
   -1.2337   -2.1564    0.4993 C   0  0  0  0  0  0  0  0  0  0  0  0
   -0.3327   -2.8864    0.8893 O   0  0  0  0  0  0  0  0  0  0  0  0
   -1.0277   -0.9164    0.0623 N   0  0  0  0  0  0  0  0  0  0  0  0
   -1.8237   -0.3604   -0.2157 H   0  0  0  0  0  0  0  0  0  0  0  0
    0.2713   -0.2414    0.0463 C   0  0  1  0  0  0  0  0  0  0  0  0
    0.5305   -0.0032   -0.9872 H   0  0  0  0  0  0  0  0  0  0  0  0
    0.1476    1.0744    0.8321 C   0  0  0  0  0  0  0  0  0  0  0  0
   -0.2389    0.8547    1.8298 H   0  0  0  0  0  0  0  0  0  0  0  0
    1.1332    1.5337    0.9304 H   0  0  0  0  0  0  0  0  0  0  0  0
   -0.9911    2.2265    0.0092 S   0  0  0  0  0  0  0  0  0  0  0  0
   -0.9791    3.1743    0.9542 H   0  0  0  0  0  0  0  0  0  0  0  0
    1.3618   -1.1761    0.6086 C   0  0  0  0  0  0  0  0  0  0  0  0
    2.3244   -1.4884   -0.0931 O   0  0  0  0  0  0  0  0  0  0  0  0
    1.2205   -1.6145    1.8649 N   0  0  0  0  0  0  0  0  0  0  0  0
    0.3713   -1.3636    2.3502 H   0  0  0  0  0  0  0  0  0  0  0  0
    2.1688   -2.4967    2.5425 C   0  0  0  0  0  0  0  0  0  0  0  0
    3.1819   -2.1023    2.4357 H   0  0  0  0  0  0  0  0  0  0  0  0
    1.9226   -2.5723    3.6022 H   0  0  0  0  0  0  0  0  0  0  0  0
    2.1322   -3.4898    2.0914 H   0  0  0  0  0  0  0  0  0  0  0  0
  5  6  2  0  0  0  0
  5  7  1  0  0  0  0
  2  3  1  0  0  0  0
  2  4  1  0  0  0  0
  2  5  1  0  0  0  0
  1  2  1  0  0  0  0
 16 17  2  0  0  0  0
 16 18  1  0  0  0  0
 14 15  1  0  0  0  0
 11 12  1  0  0  0  0
 11 13  1  0  0  0  0
 11 14  1  0  0  0  0
  9 10  1  0  0  0  0
  9 11  1  0  0  0  0
  9 16  1  0  0  0  0
  7  8  1  0  0  0  0
  7  9  1  0  0  0  0
 20 21  1  0  0  0  0
 20 22  1  0  0  0  0
 20 23  1  0  0  0  0
 18 19  1  0  0  0  0
 18 20  1  0  0  0  0
M  END
$$$$
default_name
  -OEChem-01062215323D

 23 22  0     1  0  0  0  0  0999 V2000
   -2.6857   -3.6684    0.8743 H   0  0  0  0  0  0  0  0  0  0  0  0
   -2.6617   -2.6474    0.4953 C   0  0  0  0  0  0  0  0  0  0  0  0
   -3.2657   -2.0054    1.1353 H   0  0  0  0  0  0  0  0  0  0  0  0
   -3.0477   -2.6254   -0.5217 H   0  0  0  0  0  0  0  0  0  0  0  0
   -1.2337   -2.1564    0.4993 C   0  0  0  0  0  0  0  0  0  0  0  0
   -0.3327   -2.8864    0.8893 O   0  0  0  0  0  0  0  0  0  0  0  0
   -1.0277   -0.9164    0.0623 N   0  0  0  0  0  0  0  0  0  0  0  0
   -1.8237   -0.3604   -0.2157 H   0  0  0  0  0  0  0  0  0  0  0  0
    0.2713   -0.2414    0.0463 C   0  0  1  0  0  0  0  0  0  0  0  0
    0.5305   -0.0032   -0.9872 H   0  0  0  0  0  0  0  0  0  0  0  0
    0.1476    1.0744    0.8321 C   0  0  0  0  0  0  0  0  0  0  0  0
   -0.2389    0.8547    1.8298 H   0  0  0  0  0  0  0  0  0  0  0  0
    1.1332    1.5337    0.9304 H   0  0  0  0  0  0  0  0  0  0  0  0
   -0.9911    2.2265    0.0092 S   0  0  0  0  0  0  0  0  0  0  0  0
   -0.9791    3.1743    0.9542 H   0  0  0  0  0  0  0  0  0  0  0  0
    1.3618   -1.1761    0.6086 C   0  0  0  0  0  0  0  0  0  0  0  0
    2.4459   -1.2712    0.0323 O   0  0  0  0  0  0  0  0  0  0  0  0
    1.0847   -1.8556    1.7274 N   0  0  0  0  0  0  0  0  0  0  0  0
    0.1508   -1.7704    2.1018 H   0  0  0  0  0  0  0  0  0  0  0  0
    2.0126   -2.7723    2.3873 C   0  0  0  0  0  0  0  0  0  0  0  0
    2.9813   -2.2852    2.5206 H   0  0  0  0  0  0  0  0  0  0  0  0
    1.6220   -3.0678    3.3617 H   0  0  0  0  0  0  0  0  0  0  0  0
    2.1516   -3.6610    1.7693 H   0  0  0  0  0  0  0  0  0  0  0  0
  5  6  2  0  0  0  0
  5  7  1  0  0  0  0
  2  3  1  0  0  0  0
  2  4  1  0  0  0  0
  2  5  1  0  0  0  0
  1  2  1  0  0  0  0
 16 17  2  0  0  0  0
 16 18  1  0  0  0  0
 14 15  1  0  0  0  0
 11 12  1  0  0  0  0
 11 13  1  0  0  0  0
 11 14  1  0  0  0  0
  9 10  1  0  0  0  0
  9 11  1  0  0  0  0
  9 16  1  0  0  0  0
  7  8  1  0  0  0  0
  7  9  1  0  0  0  0
 20 21  1  0  0  0  0
 20 22  1  0  0  0  0
 20 23  1  0  0  0  0
 18 19  1  0  0  0  0
 18 20  1  0  0  0  0
M  END
$$$$
default_name
  -OEChem-01062215323D

 23 22  0     1  0  0  0  0  0999 V2000
   -2.6857   -3.6684    0.8743 H   0  0  0  0  0  0  0  0  0  0  0  0
   -2.6617   -2.6474    0.4953 C   0  0  0  0  0  0  0  0  0  0  0  0
   -3.2657   -2.0054    1.1353 H   0  0  0  0  0  0  0  0  0  0  0  0
   -3.0477   -2.6254   -0.5217 H   0  0  0  0  0  0  0  0  0  0  0  0
   -1.2337   -2.1564    0.4993 C   0  0  0  0  0  0  0  0  0  0  0  0
   -0.3327   -2.8864    0.8893 O   0  0  0  0  0  0  0  0  0  0  0  0
   -1.0277   -0.9164    0.0623 N   0  0  0  0  0  0  0  0  0  0  0  0
   -1.8237   -0.3604   -0.2157 H   0  0  0  0  0  0  0  0  0  0  0  0
    0.2713   -0.2414    0.0463 C   0  0  1  0  0  0  0  0  0  0  0  0
    0.5305   -0.0032   -0.9872 H   0  0  0  0  0  0  0  0  0  0  0  0
    0.1476    1.0744    0.8321 C   0  0  0  0  0  0  0  0  0  0  0  0
   -0.2389    0.8547    1.8298 H   0  0  0  0  0  0  0  0  0  0  0  0
    1.1332    1.5337    0.9304 H   0  0  0  0  0  0  0  0  0  0  0  0
   -0.9911    2.2265    0.0092 S   0  0  0  0  0  0  0  0  0  0  0  0
   -0.9791    3.1743    0.9542 H   0  0  0  0  0  0  0  0  0  0  0  0
    1.3618   -1.1761    0.6086 C   0  0  0  0  0  0  0  0  0  0  0  0
    2.5231   -1.0729    0.2122 O   0  0  0  0  0  0  0  0  0  0  0  0
    0.9978   -2.0762    1.5292 N   0  0  0  0  0  0  0  0  0  0  0  0
    0.0151   -2.1386    1.7528 H   0  0  0  0  0  0  0  0  0  0  0  0
    1.9121   -3.0248    2.1624 C   0  0  0  0  0  0  0  0  0  0  0  0
    2.7914   -2.4964    2.5377 H   0  0  0  0  0  0  0  0  0  0  0  0
    1.4160   -3.5307    2.9915 H   0  0  0  0  0  0  0  0  0  0  0  0
    2.2371   -3.7655    1.4298 H   0  0  0  0  0  0  0  0  0  0  0  0
  5  6  2  0  0  0  0
  5  7  1  0  0  0  0
  2  3  1  0  0  0  0
  2  4  1  0  0  0  0
  2  5  1  0  0  0  0
  1  2  1  0  0  0  0
 16 17  2  0  0  0  0
 16 18  1  0  0  0  0
 14 15  1  0  0  0  0
 11 12  1  0  0  0  0
 11 13  1  0  0  0  0
 11 14  1  0  0  0  0
  9 10  1  0  0  0  0
  9 11  1  0  0  0  0
  9 16  1  0  0  0  0
  7  8  1  0  0  0  0
  7  9  1  0  0  0  0
 20 21  1  0  0  0  0
 20 22  1  0  0  0  0
 20 23  1  0  0  0  0
 18 19  1  0  0  0  0
 18 20  1  0  0  0  0
M  END
$$$$
default_name
  -OEChem-01062215323D

 23 22  0     1  0  0  0  0  0999 V2000
   -2.6857   -3.6684    0.8743 H   0  0  0  0  0  0  0  0  0  0  0  0
   -2.6617   -2.6474    0.4953 C   0  0  0  0  0  0  0  0  0  0  0  0
   -3.2657   -2.0054    1.1353 H   0  0  0  0  0  0  0  0  0  0  0  0
   -3.0477   -2.6254   -0.5217 H   0  0  0  0  0  0  0  0  0  0  0  0
   -1.2337   -2.1564    0.4993 C   0  0  0  0  0  0  0  0  0  0  0  0
   -0.3327   -2.8864    0.8893 O   0  0  0  0  0  0  0  0  0  0  0  0
   -1.0277   -0.9164    0.0623 N   0  0  0  0  0  0  0  0  0  0  0  0
   -1.8237   -0.3604   -0.2157 H   0  0  0  0  0  0  0  0  0  0  0  0
    0.2713   -0.2414    0.0463 C   0  0  1  0  0  0  0  0  0  0  0  0
    0.5305   -0.0032   -0.9872 H   0  0  0  0  0  0  0  0  0  0  0  0
    0.1476    1.0744    0.8321 C   0  0  0  0  0  0  0  0  0  0  0  0
   -0.2389    0.8547    1.8298 H   0  0  0  0  0  0  0  0  0  0  0  0
    1.1332    1.5337    0.9304 H   0  0  0  0  0  0  0  0  0  0  0  0
   -0.9911    2.2265    0.0092 S   0  0  0  0  0  0  0  0  0  0  0  0
   -0.9791    3.1743    0.9542 H   0  0  0  0  0  0  0  0  0  0  0  0
    1.3618   -1.1761    0.6086 C   0  0  0  0  0  0  0  0  0  0  0  0
    2.5508   -0.9070    0.4343 O   0  0  0  0  0  0  0  0  0  0  0  0
    0.9657   -2.2613    1.2838 N   0  0  0  0  0  0  0  0  0  0  0  0
   -0.0265   -2.4433    1.3271 H   0  0  0  0  0  0  0  0  0  0  0  0
    1.8741   -3.2371    1.8833 C   0  0  0  0  0  0  0  0  0  0  0  0
    2.6253   -2.7215    2.4858 H   0  0  0  0  0  0  0  0  0  0  0  0
    1.3188   -3.9296    2.5170 H   0  0  0  0  0  0  0  0  0  0  0  0
    2.3827   -3.7963    1.0961 H   0  0  0  0  0  0  0  0  0  0  0  0
  5  6  2  0  0  0  0
  5  7  1  0  0  0  0
  2  3  1  0  0  0  0
  2  4  1  0  0  0  0
  2  5  1  0  0  0  0
  1  2  1  0  0  0  0
 16 17  2  0  0  0  0
 16 18  1  0  0  0  0
 14 15  1  0  0  0  0
 11 12  1  0  0  0  0
 11 13  1  0  0  0  0
 11 14  1  0  0  0  0
  9 10  1  0  0  0  0
  9 11  1  0  0  0  0
  9 16  1  0  0  0  0
  7  8  1  0  0  0  0
  7  9  1  0  0  0  0
 20 21  1  0  0  0  0
 20 22  1  0  0  0  0
 20 23  1  0  0  0  0
 18 19  1  0  0  0  0
 18 20  1  0  0  0  0
M  END
$$$$
default_name
  -OEChem-01062215323D

 23 22  0     1  0  0  0  0  0999 V2000
   -2.6857   -3.6684    0.8743 H   0  0  0  0  0  0  0  0  0  0  0  0
   -2.6617   -2.6474    0.4953 C   0  0  0  0  0  0  0  0  0  0  0  0
   -3.2657   -2.0054    1.1353 H   0  0  0  0  0  0  0  0  0  0  0  0
   -3.0477   -2.6254   -0.5217 H   0  0  0  0  0  0  0  0  0  0  0  0
   -1.2337   -2.1564    0.4993 C   0  0  0  0  0  0  0  0  0  0  0  0
   -0.3327   -2.8864    0.8893 O   0  0  0  0  0  0  0  0  0  0  0  0
   -1.0277   -0.9164    0.0623 N   0  0  0  0  0  0  0  0  0  0  0  0
   -1.8237   -0.3604   -0.2157 H   0  0  0  0  0  0  0  0  0  0  0  0
    0.2713   -0.2414    0.0463 C   0  0  1  0  0  0  0  0  0  0  0  0
    0.5305   -0.0032   -0.9872 H   0  0  0  0  0  0  0  0  0  0  0  0
    0.1476    1.0744    0.8321 C   0  0  0  0  0  0  0  0  0  0  0  0
   -0.2389    0.8547    1.8298 H   0  0  0  0  0  0  0  0  0  0  0  0
    1.1332    1.5337    0.9304 H   0  0  0  0  0  0  0  0  0  0  0  0
   -0.9911    2.2265    0.0092 S   0  0  0  0  0  0  0  0  0  0  0  0
   -0.9791    3.1743    0.9542 H   0  0  0  0  0  0  0  0  0  0  0  0
    1.3618   -1.1761    0.6086 C   0  0  0  0  0  0  0  0  0  0  0  0
    2.5270   -0.7848    0.6836 O   0  0  0  0  0  0  0  0  0  0  0  0
    0.9908   -2.3981    1.0078 N   0  0  0  0  0  0  0  0  0  0  0  0
    0.0288   -2.6636    0.8535 H   0  0  0  0  0  0  0  0  0  0  0  0
    1.9012   -3.3947    1.5689 C   0  0  0  0  0  0  0  0  0  0  0  0
    2.4942   -2.9450    2.3685 H   0  0  0  0  0  0  0  0  0  0  0  0
    1.3370   -4.2373    1.9703 H   0  0  0  0  0  0  0  0  0  0  0  0
    2.5786   -3.7513    0.7911 H   0  0  0  0  0  0  0  0  0  0  0  0
  5  6  2  0  0  0  0
  5  7  1  0  0  0  0
  2  3  1  0  0  0  0
  2  4  1  0  0  0  0
  2  5  1  0  0  0  0
  1  2  1  0  0  0  0
 16 17  2  0  0  0  0
 16 18  1  0  0  0  0
 14 15  1  0  0  0  0
 11 12  1  0  0  0  0
 11 13  1  0  0  0  0
 11 14  1  0  0  0  0
  9 10  1  0  0  0  0
  9 11  1  0  0  0  0
  9 16  1  0  0  0  0
  7  8  1  0  0  0  0
  7  9  1  0  0  0  0
 20 21  1  0  0  0  0
 20 22  1  0  0  0  0
 20 23  1  0  0  0  0
 18 19  1  0  0  0  0
 18 20  1  0  0  0  0
M  END
$$$$
default_name
  -OEChem-01062215323D

 23 22  0     1  0  0  0  0  0999 V2000
   -2.6857   -3.6684    0.8743 H   0  0  0  0  0  0  0  0  0  0  0  0
   -2.6617   -2.6474    0.4953 C   0  0  0  0  0  0  0  0  0  0  0  0
   -3.2657   -2.0054    1.1353 H   0  0  0  0  0  0  0  0  0  0  0  0
   -3.0477   -2.6254   -0.5217 H   0  0  0  0  0  0  0  0  0  0  0  0
   -1.2337   -2.1564    0.4993 C   0  0  0  0  0  0  0  0  0  0  0  0
   -0.3327   -2.8864    0.8893 O   0  0  0  0  0  0  0  0  0  0  0  0
   -1.0277   -0.9164    0.0623 N   0  0  0  0  0  0  0  0  0  0  0  0
   -1.8237   -0.3604   -0.2157 H   0  0  0  0  0  0  0  0  0  0  0  0
    0.2713   -0.2414    0.0463 C   0  0  1  0  0  0  0  0  0  0  0  0
    0.5305   -0.0032   -0.9872 H   0  0  0  0  0  0  0  0  0  0  0  0
    0.1476    1.0744    0.8321 C   0  0  0  0  0  0  0  0  0  0  0  0
   -0.2389    0.8547    1.8298 H   0  0  0  0  0  0  0  0  0  0  0  0
    1.1332    1.5337    0.9304 H   0  0  0  0  0  0  0  0  0  0  0  0
   -0.9911    2.2265    0.0092 S   0  0  0  0  0  0  0  0  0  0  0  0
   -0.9791    3.1743    0.9542 H   0  0  0  0  0  0  0  0  0  0  0  0
    1.3618   -1.1761    0.6086 C   0  0  0  0  0  0  0  0  0  0  0  0
    2.4534   -0.7146    0.9431 O   0  0  0  0  0  0  0  0  0  0  0  0
    1.0711   -2.4774    0.7202 N   0  0  0  0  0  0  0  0  0  0  0  0
    0.1773   -2.7845    0.3645 H   0  0  0  0  0  0  0  0  0  0  0  0
    1.9915   -3.4868    1.2405 C   0  0  0  0  0  0  0  0  0  0  0  0
    2.4070   -3.1519    2.1937 H   0  0  0  0  0  0  0  0  0  0  0  0
    1.4693   -4.4327    1.3889 H   0  0  0  0  0  0  0  0  0  0  0  0
    2.8114   -3.6335    0.5354 H   0  0  0  0  0  0  0  0  0  0  0  0
  5  6  2  0  0  0  0
  5  7  1  0  0  0  0
  2  3  1  0  0  0  0
  2  4  1  0  0  0  0
  2  5  1  0  0  0  0
  1  2  1  0  0  0  0
 16 17  2  0  0  0  0
 16 18  1  0  0  0  0
 14 15  1  0  0  0  0
 11 12  1  0  0  0  0
 11 13  1  0  0  0  0
 11 14  1  0  0  0  0
  9 10  1  0  0  0  0
  9 11  1  0  0  0  0
  9 16  1  0  0  0  0
  7  8  1  0  0  0  0
  7  9  1  0  0  0  0
 20 21  1  0  0  0  0
 20 22  1  0  0  0  0
 20 23  1  0  0  0  0
 18 19  1  0  0  0  0
 18 20  1  0  0  0  0
M  END
$$$$
default_name
  -OEChem-01062215323D

 23 22  0     1  0  0  0  0  0999 V2000
   -2.6857   -3.6684    0.8743 H   0  0  0  0  0  0  0  0  0  0  0  0
   -2.6617   -2.6474    0.4953 C   0  0  0  0  0  0  0  0  0  0  0  0
   -3.2657   -2.0054    1.1353 H   0  0  0  0  0  0  0  0  0  0  0  0
   -3.0477   -2.6254   -0.5217 H   0  0  0  0  0  0  0  0  0  0  0  0
   -1.2337   -2.1564    0.4993 C   0  0  0  0  0  0  0  0  0  0  0  0
   -0.3327   -2.8864    0.8893 O   0  0  0  0  0  0  0  0  0  0  0  0
   -1.0277   -0.9164    0.0623 N   0  0  0  0  0  0  0  0  0  0  0  0
   -1.8237   -0.3604   -0.2157 H   0  0  0  0  0  0  0  0  0  0  0  0
    0.2713   -0.2414    0.0463 C   0  0  1  0  0  0  0  0  0  0  0  0
    0.5305   -0.0032   -0.9872 H   0  0  0  0  0  0  0  0  0  0  0  0
    0.1476    1.0744    0.8321 C   0  0  0  0  0  0  0  0  0  0  0  0
   -0.2389    0.8547    1.8298 H   0  0  0  0  0  0  0  0  0  0  0  0
    1.1332    1.5337    0.9304 H   0  0  0  0  0  0  0  0  0  0  0  0
   -0.9911    2.2265    0.0092 S   0  0  0  0  0  0  0  0  0  0  0  0
   -0.9791    3.1743    0.9542 H   0  0  0  0  0  0  0  0  0  0  0  0
    1.3618   -1.1761    0.6086 C   0  0  0  0  0  0  0  0  0  0  0  0
    2.3350   -0.7012    1.1949 O   0  0  0  0  0  0  0  0  0  0  0  0
    1.2013   -2.4938    0.4404 N   0  0  0  0  0  0  0  0  0  0  0  0
    0.4089   -2.7978   -0.1067 H   0  0  0  0  0  0  0  0  0  0  0  0
    2.1390   -3.5071    0.9207 C   0  0  0  0  0  0  0  0  0  0  0  0
    2.3698   -3.3279    1.9733 H   0  0  0  0  0  0  0  0  0  0  0  0
    1.7068   -4.5026    0.8122 H   0  0  0  0  0  0  0  0  0  0  0  0
    3.0653   -3.4510    0.3464 H   0  0  0  0  0  0  0  0  0  0  0  0
  5  6  2  0  0  0  0
  5  7  1  0  0  0  0
  2  3  1  0  0  0  0
  2  4  1  0  0  0  0
  2  5  1  0  0  0  0
  1  2  1  0  0  0  0
 16 17  2  0  0  0  0
 16 18  1  0  0  0  0
 14 15  1  0  0  0  0
 11 12  1  0  0  0  0
 11 13  1  0  0  0  0
 11 14  1  0  0  0  0
  9 10  1  0  0  0  0
  9 11  1  0  0  0  0
  9 16  1  0  0  0  0
  7  8  1  0  0  0  0
  7  9  1  0  0  0  0
 20 21  1  0  0  0  0
 20 22  1  0  0  0  0
 20 23  1  0  0  0  0
 18 19  1  0  0  0  0
 18 20  1  0  0  0  0
M  END
$$$$
default_name
  -OEChem-01062215323D

 23 22  0     1  0  0  0  0  0999 V2000
   -2.6857   -3.6684    0.8743 H   0  0  0  0  0  0  0  0  0  0  0  0
   -2.6617   -2.6474    0.4953 C   0  0  0  0  0  0  0  0  0  0  0  0
   -3.2657   -2.0054    1.1353 H   0  0  0  0  0  0  0  0  0  0  0  0
   -3.0477   -2.6254   -0.5217 H   0  0  0  0  0  0  0  0  0  0  0  0
   -1.2337   -2.1564    0.4993 C   0  0  0  0  0  0  0  0  0  0  0  0
   -0.3327   -2.8864    0.8893 O   0  0  0  0  0  0  0  0  0  0  0  0
   -1.0277   -0.9164    0.0623 N   0  0  0  0  0  0  0  0  0  0  0  0
   -1.8237   -0.3604   -0.2157 H   0  0  0  0  0  0  0  0  0  0  0  0
    0.2713   -0.2414    0.0463 C   0  0  1  0  0  0  0  0  0  0  0  0
    0.5305   -0.0032   -0.9872 H   0  0  0  0  0  0  0  0  0  0  0  0
    0.1476    1.0744    0.8321 C   0  0  0  0  0  0  0  0  0  0  0  0
   -0.2389    0.8547    1.8298 H   0  0  0  0  0  0  0  0  0  0  0  0
    1.1332    1.5337    0.9304 H   0  0  0  0  0  0  0  0  0  0  0  0
   -0.9911    2.2265    0.0092 S   0  0  0  0  0  0  0  0  0  0  0  0
   -0.9791    3.1743    0.9542 H   0  0  0  0  0  0  0  0  0  0  0  0
    1.3618   -1.1761    0.6086 C   0  0  0  0  0  0  0  0  0  0  0  0
    2.1799   -0.7455    1.4221 O   0  0  0  0  0  0  0  0  0  0  0  0
    1.3725   -2.4461    0.1876 N   0  0  0  0  0  0  0  0  0  0  0  0
    0.7077   -2.7026   -0.5279 H   0  0  0  0  0  0  0  0  0  0  0  0
    2.3335   -3.4543    0.6312 C   0  0  0  0  0  0  0  0  0  0  0  0
    2.3850   -3.4611    1.7223 H   0  0  0  0  0  0  0  0  0  0  0  0
    2.0332   -4.4421    0.2797 H   0  0  0  0  0  0  0  0  0  0  0  0
    3.3229   -3.2161    0.2372 H   0  0  0  0  0  0  0  0  0  0  0  0
  5  6  2  0  0  0  0
  5  7  1  0  0  0  0
  2  3  1  0  0  0  0
  2  4  1  0  0  0  0
  2  5  1  0  0  0  0
  1  2  1  0  0  0  0
 16 17  2  0  0  0  0
 16 18  1  0  0  0  0
 14 15  1  0  0  0  0
 11 12  1  0  0  0  0
 11 13  1  0  0  0  0
 11 14  1  0  0  0  0
  9 10  1  0  0  0  0
  9 11  1  0  0  0  0
  9 16  1  0  0  0  0
  7  8  1  0  0  0  0
  7  9  1  0  0  0  0
 20 21  1  0  0  0  0
 20 22  1  0  0  0  0
 20 23  1  0  0  0  0
 18 19  1  0  0  0  0
 18 20  1  0  0  0  0
M  END
$$$$
default_name
  -OEChem-01062215323D

 23 22  0     1  0  0  0  0  0999 V2000
   -2.6857   -3.6684    0.8743 H   0  0  0  0  0  0  0  0  0  0  0  0
   -2.6617   -2.6474    0.4953 C   0  0  0  0  0  0  0  0  0  0  0  0
   -3.2657   -2.0054    1.1353 H   0  0  0  0  0  0  0  0  0  0  0  0
   -3.0477   -2.6254   -0.5217 H   0  0  0  0  0  0  0  0  0  0  0  0
   -1.2337   -2.1564    0.4993 C   0  0  0  0  0  0  0  0  0  0  0  0
   -0.3327   -2.8864    0.8893 O   0  0  0  0  0  0  0  0  0  0  0  0
   -1.0277   -0.9164    0.0623 N   0  0  0  0  0  0  0  0  0  0  0  0
   -1.8237   -0.3604   -0.2157 H   0  0  0  0  0  0  0  0  0  0  0  0
    0.2713   -0.2414    0.0463 C   0  0  1  0  0  0  0  0  0  0  0  0
    0.5305   -0.0032   -0.9872 H   0  0  0  0  0  0  0  0  0  0  0  0
    0.1476    1.0744    0.8321 C   0  0  0  0  0  0  0  0  0  0  0  0
   -0.2389    0.8547    1.8298 H   0  0  0  0  0  0  0  0  0  0  0  0
    1.1332    1.5337    0.9304 H   0  0  0  0  0  0  0  0  0  0  0  0
   -0.9911    2.2265    0.0092 S   0  0  0  0  0  0  0  0  0  0  0  0
   -0.9791    3.1743    0.9542 H   0  0  0  0  0  0  0  0  0  0  0  0
    1.3618   -1.1761    0.6086 C   0  0  0  0  0  0  0  0  0  0  0  0
    1.9985   -0.8445    1.6091 O   0  0  0  0  0  0  0  0  0  0  0  0
    1.5731   -2.3377   -0.0211 N   0  0  0  0  0  0  0  0  0  0  0  0
    1.0535   -2.5053   -0.8705 H   0  0  0  0  0  0  0  0  0  0  0  0
    2.5618   -3.3320    0.3918 C   0  0  0  0  0  0  0  0  0  0  0  0
    2.4516   -3.5424    1.4580 H   0  0  0  0  0  0  0  0  0  0  0  0
    2.4263   -4.2555   -0.1725 H   0  0  0  0  0  0  0  0  0  0  0  0
    3.5668   -2.9449    0.2150 H   0  0  0  0  0  0  0  0  0  0  0  0
  5  6  2  0  0  0  0
  5  7  1  0  0  0  0
  2  3  1  0  0  0  0
  2  4  1  0  0  0  0
  2  5  1  0  0  0  0
  1  2  1  0  0  0  0
 16 17  2  0  0  0  0
 16 18  1  0  0  0  0
 14 15  1  0  0  0  0
 11 12  1  0  0  0  0
 11 13  1  0  0  0  0
 11 14  1  0  0  0  0
  9 10  1  0  0  0  0
  9 11  1  0  0  0  0
  9 16  1  0  0  0  0
  7  8  1  0  0  0  0
  7  9  1  0  0  0  0
 20 21  1  0  0  0  0
 20 22  1  0  0  0  0
 20 23  1  0  0  0  0
 18 19  1  0  0  0  0
 18 20  1  0  0  0  0
M  END
$$$$
default_name
  -OEChem-01062215323D

 23 22  0     1  0  0  0  0  0999 V2000
   -2.6857   -3.6684    0.8743 H   0  0  0  0  0  0  0  0  0  0  0  0
   -2.6617   -2.6474    0.4953 C   0  0  0  0  0  0  0  0  0  0  0  0
   -3.2657   -2.0054    1.1353 H   0  0  0  0  0  0  0  0  0  0  0  0
   -3.0477   -2.6254   -0.5217 H   0  0  0  0  0  0  0  0  0  0  0  0
   -1.2337   -2.1564    0.4993 C   0  0  0  0  0  0  0  0  0  0  0  0
   -0.3327   -2.8864    0.8893 O   0  0  0  0  0  0  0  0  0  0  0  0
   -1.0277   -0.9164    0.0623 N   0  0  0  0  0  0  0  0  0  0  0  0
   -1.8237   -0.3604   -0.2157 H   0  0  0  0  0  0  0  0  0  0  0  0
    0.2713   -0.2414    0.0463 C   0  0  1  0  0  0  0  0  0  0  0  0
    0.5305   -0.0032   -0.9872 H   0  0  0  0  0  0  0  0  0  0  0  0
    0.1476    1.0744    0.8321 C   0  0  0  0  0  0  0  0  0  0  0  0
   -0.2389    0.8547    1.8298 H   0  0  0  0  0  0  0  0  0  0  0  0
    1.1332    1.5337    0.9304 H   0  0  0  0  0  0  0  0  0  0  0  0
   -0.9911    2.2265    0.0092 S   0  0  0  0  0  0  0  0  0  0  0  0
   -0.9791    3.1743    0.9542 H   0  0  0  0  0  0  0  0  0  0  0  0
    1.3618   -1.1761    0.6086 C   0  0  0  0  0  0  0  0  0  0  0  0
    1.8034   -0.9915    1.7432 O   0  0  0  0  0  0  0  0  0  0  0  0
    1.7892   -2.1758   -0.1713 N   0  0  0  0  0  0  0  0  0  0  0  0
    1.4225   -2.2194   -1.1111 H   0  0  0  0  0  0  0  0  0  0  0  0
    2.8084   -3.1485    0.2186 C   0  0  0  0  0  0  0  0  0  0  0  0
    2.5651   -3.5663    1.1982 H   0  0  0  0  0  0  0  0  0  0  0  0
    2.8593   -3.9554   -0.5134 H   0  0  0  0  0  0  0  0  0  0  0  0
    3.7802   -2.6560    0.2815 H   0  0  0  0  0  0  0  0  0  0  0  0
  5  6  2  0  0  0  0
  5  7  1  0  0  0  0
  2  3  1  0  0  0  0
  2  4  1  0  0  0  0
  2  5  1  0  0  0  0
  1  2  1  0  0  0  0
 16 17  2  0  0  0  0
 16 18  1  0  0  0  0
 14 15  1  0  0  0  0
 11 12  1  0  0  0  0
 11 13  1  0  0  0  0
 11 14  1  0  0  0  0
  9 10  1  0  0  0  0
  9 11  1  0  0  0  0
  9 16  1  0  0  0  0
  7  8  1  0  0  0  0
  7  9  1  0  0  0  0
 20 21  1  0  0  0  0
 20 22  1  0  0  0  0
 20 23  1  0  0  0  0
 18 19  1  0  0  0  0
 18 20  1  0  0  0  0
M  END
$$$$
default_name
  -OEChem-01062215323D

 23 22  0     1  0  0  0  0  0999 V2000
   -2.6857   -3.6684    0.8743 H   0  0  0  0  0  0  0  0  0  0  0  0
   -2.6617   -2.6474    0.4953 C   0  0  0  0  0  0  0  0  0  0  0  0
   -3.2657   -2.0054    1.1353 H   0  0  0  0  0  0  0  0  0  0  0  0
   -3.0477   -2.6254   -0.5217 H   0  0  0  0  0  0  0  0  0  0  0  0
   -1.2337   -2.1564    0.4993 C   0  0  0  0  0  0  0  0  0  0  0  0
   -0.3327   -2.8864    0.8893 O   0  0  0  0  0  0  0  0  0  0  0  0
   -1.0277   -0.9164    0.0623 N   0  0  0  0  0  0  0  0  0  0  0  0
   -1.8237   -0.3604   -0.2157 H   0  0  0  0  0  0  0  0  0  0  0  0
    0.2713   -0.2414    0.0463 C   0  0  1  0  0  0  0  0  0  0  0  0
    0.5305   -0.0032   -0.9872 H   0  0  0  0  0  0  0  0  0  0  0  0
    0.1476    1.0744    0.8321 C   0  0  0  0  0  0  0  0  0  0  0  0
   -0.2389    0.8547    1.8298 H   0  0  0  0  0  0  0  0  0  0  0  0
    1.1332    1.5337    0.9304 H   0  0  0  0  0  0  0  0  0  0  0  0
   -0.9911    2.2265    0.0092 S   0  0  0  0  0  0  0  0  0  0  0  0
   -0.9791    3.1743    0.9542 H   0  0  0  0  0  0  0  0  0  0  0  0
    1.3618   -1.1761    0.6086 C   0  0  0  0  0  0  0  0  0  0  0  0
    1.6078   -1.1765    1.8152 O   0  0  0  0  0  0  0  0  0  0  0  0
    2.0064   -1.9716   -0.2529 N   0  0  0  0  0  0  0  0  0  0  0  0
    1.7898   -1.8645   -1.2333 H   0  0  0  0  0  0  0  0  0  0  0  0
    3.0564   -2.9163    0.1237 C   0  0  0  0  0  0  0  0  0  0  0  0
    2.7177   -3.5311    0.9607 H   0  0  0  0  0  0  0  0  0  0  0  0
    3.3027   -3.5623   -0.7199 H   0  0  0  0  0  0  0  0  0  0  0  0
    3.9486   -2.3689    0.4320 H   0  0  0  0  0  0  0  0  0  0  0  0
  5  6  2  0  0  0  0
  5  7  1  0  0  0  0
  2  3  1  0  0  0  0
  2  4  1  0  0  0  0
  2  5  1  0  0  0  0
  1  2  1  0  0  0  0
 16 17  2  0  0  0  0
 16 18  1  0  0  0  0
 14 15  1  0  0  0  0
 11 12  1  0  0  0  0
 11 13  1  0  0  0  0
 11 14  1  0  0  0  0
  9 10  1  0  0  0  0
  9 11  1  0  0  0  0
  9 16  1  0  0  0  0
  7  8  1  0  0  0  0
  7  9  1  0  0  0  0
 20 21  1  0  0  0  0
 20 22  1  0  0  0  0
 20 23  1  0  0  0  0
 18 19  1  0  0  0  0
 18 20  1  0  0  0  0
M  END
$$$$
default_name
  -OEChem-01062215323D

 23 22  0     1  0  0  0  0  0999 V2000
   -2.6857   -3.6684    0.8743 H   0  0  0  0  0  0  0  0  0  0  0  0
   -2.6617   -2.6474    0.4953 C   0  0  0  0  0  0  0  0  0  0  0  0
   -3.2657   -2.0054    1.1353 H   0  0  0  0  0  0  0  0  0  0  0  0
   -3.0477   -2.6254   -0.5217 H   0  0  0  0  0  0  0  0  0  0  0  0
   -1.2337   -2.1564    0.4993 C   0  0  0  0  0  0  0  0  0  0  0  0
   -0.3327   -2.8864    0.8893 O   0  0  0  0  0  0  0  0  0  0  0  0
   -1.0277   -0.9164    0.0623 N   0  0  0  0  0  0  0  0  0  0  0  0
   -1.8237   -0.3604   -0.2157 H   0  0  0  0  0  0  0  0  0  0  0  0
    0.2713   -0.2414    0.0463 C   0  0  1  0  0  0  0  0  0  0  0  0
    0.5305   -0.0032   -0.9872 H   0  0  0  0  0  0  0  0  0  0  0  0
    0.1476    1.0744    0.8321 C   0  0  0  0  0  0  0  0  0  0  0  0
   -0.2389    0.8547    1.8298 H   0  0  0  0  0  0  0  0  0  0  0  0
    1.1332    1.5337    0.9304 H   0  0  0  0  0  0  0  0  0  0  0  0
   -0.9911    2.2265    0.0092 S   0  0  0  0  0  0  0  0  0  0  0  0
   -0.9791    3.1743    0.9542 H   0  0  0  0  0  0  0  0  0  0  0  0
    1.3618   -1.1761    0.6086 C   0  0  0  0  0  0  0  0  0  0  0  0
    1.4250   -1.3867    1.8202 O   0  0  0  0  0  0  0  0  0  0  0  0
    2.2096   -1.7389   -0.2602 N   0  0  0  0  0  0  0  0  0  0  0  0
    2.1302   -1.4646   -1.2288 H   0  0  0  0  0  0  0  0  0  0  0  0
    3.2889   -2.6513    0.1133 C   0  0  0  0  0  0  0  0  0  0  0  0
    2.8991   -3.4393    0.7616 H   0  0  0  0  0  0  0  0  0  0  0  0
    3.7263   -3.1029   -0.7778 H   0  0  0  0  0  0  0  0  0  0  0  0
    4.0607   -2.1032    0.6564 H   0  0  0  0  0  0  0  0  0  0  0  0
  5  6  2  0  0  0  0
  5  7  1  0  0  0  0
  2  3  1  0  0  0  0
  2  4  1  0  0  0  0
  2  5  1  0  0  0  0
  1  2  1  0  0  0  0
 16 17  2  0  0  0  0
 16 18  1  0  0  0  0
 14 15  1  0  0  0  0
 11 12  1  0  0  0  0
 11 13  1  0  0  0  0
 11 14  1  0  0  0  0
  9 10  1  0  0  0  0
  9 11  1  0  0  0  0
  9 16  1  0  0  0  0
  7  8  1  0  0  0  0
  7  9  1  0  0  0  0
 20 21  1  0  0  0  0
 20 22  1  0  0  0  0
 20 23  1  0  0  0  0
 18 19  1  0  0  0  0
 18 20  1  0  0  0  0
M  END
$$$$
default_name
  -OEChem-01062215323D

 23 22  0     1  0  0  0  0  0999 V2000
   -2.6857   -3.6684    0.8743 H   0  0  0  0  0  0  0  0  0  0  0  0
   -2.6617   -2.6474    0.4953 C   0  0  0  0  0  0  0  0  0  0  0  0
   -3.2657   -2.0054    1.1353 H   0  0  0  0  0  0  0  0  0  0  0  0
   -3.0477   -2.6254   -0.5217 H   0  0  0  0  0  0  0  0  0  0  0  0
   -1.2337   -2.1564    0.4993 C   0  0  0  0  0  0  0  0  0  0  0  0
   -0.3327   -2.8864    0.8893 O   0  0  0  0  0  0  0  0  0  0  0  0
   -1.0277   -0.9164    0.0623 N   0  0  0  0  0  0  0  0  0  0  0  0
   -1.8237   -0.3604   -0.2157 H   0  0  0  0  0  0  0  0  0  0  0  0
    0.2713   -0.2414    0.0463 C   0  0  1  0  0  0  0  0  0  0  0  0
    0.5305   -0.0032   -0.9872 H   0  0  0  0  0  0  0  0  0  0  0  0
    0.1476    1.0744    0.8321 C   0  0  0  0  0  0  0  0  0  0  0  0
   -0.2389    0.8547    1.8298 H   0  0  0  0  0  0  0  0  0  0  0  0
    1.1332    1.5337    0.9304 H   0  0  0  0  0  0  0  0  0  0  0  0
   -0.9911    2.2265    0.0092 S   0  0  0  0  0  0  0  0  0  0  0  0
   -0.9791    3.1743    0.9542 H   0  0  0  0  0  0  0  0  0  0  0  0
    1.3618   -1.1761    0.6086 C   0  0  0  0  0  0  0  0  0  0  0  0
    1.2675   -1.6080    1.7580 O   0  0  0  0  0  0  0  0  0  0  0  0
    2.3851   -1.4937   -0.1929 N   0  0  0  0  0  0  0  0  0  0  0  0
    2.4206   -1.0471   -1.0978 H   0  0  0  0  0  0  0  0  0  0  0  0
    3.4901   -2.3714    0.1883 C   0  0  0  0  0  0  0  0  0  0  0  0
    3.0968   -3.2970    0.6146 H   0  0  0  0  0  0  0  0  0  0  0  0
    4.1012   -2.6087   -0.6833 H   0  0  0  0  0  0  0  0  0  0  0  0
    4.1086   -1.8771    0.9393 H   0  0  0  0  0  0  0  0  0  0  0  0
  5  6  2  0  0  0  0
  5  7  1  0  0  0  0
  2  3  1  0  0  0  0
  2  4  1  0  0  0  0
  2  5  1  0  0  0  0
  1  2  1  0  0  0  0
 16 17  2  0  0  0  0
 16 18  1  0  0  0  0
 14 15  1  0  0  0  0
 11 12  1  0  0  0  0
 11 13  1  0  0  0  0
 11 14  1  0  0  0  0
  9 10  1  0  0  0  0
  9 11  1  0  0  0  0
  9 16  1  0  0  0  0
  7  8  1  0  0  0  0
  7  9  1  0  0  0  0
 20 21  1  0  0  0  0
 20 22  1  0  0  0  0
 20 23  1  0  0  0  0
 18 19  1  0  0  0  0
 18 20  1  0  0  0  0
M  END
$$$$
default_name
  -OEChem-01062215323D

 23 22  0     1  0  0  0  0  0999 V2000
   -2.6857   -3.6684    0.8743 H   0  0  0  0  0  0  0  0  0  0  0  0
   -2.6617   -2.6474    0.4953 C   0  0  0  0  0  0  0  0  0  0  0  0
   -3.2657   -2.0054    1.1353 H   0  0  0  0  0  0  0  0  0  0  0  0
   -3.0477   -2.6254   -0.5217 H   0  0  0  0  0  0  0  0  0  0  0  0
   -1.2337   -2.1564    0.4993 C   0  0  0  0  0  0  0  0  0  0  0  0
   -0.3327   -2.8864    0.8893 O   0  0  0  0  0  0  0  0  0  0  0  0
   -1.0277   -0.9164    0.0623 N   0  0  0  0  0  0  0  0  0  0  0  0
   -1.8237   -0.3604   -0.2157 H   0  0  0  0  0  0  0  0  0  0  0  0
    0.2713   -0.2414    0.0463 C   0  0  1  0  0  0  0  0  0  0  0  0
    0.5305   -0.0032   -0.9872 H   0  0  0  0  0  0  0  0  0  0  0  0
    0.1476    1.0744    0.8321 C   0  0  0  0  0  0  0  0  0  0  0  0
   -0.2389    0.8547    1.8298 H   0  0  0  0  0  0  0  0  0  0  0  0
    1.1332    1.5337    0.9304 H   0  0  0  0  0  0  0  0  0  0  0  0
   -0.9911    2.2265    0.0092 S   0  0  0  0  0  0  0  0  0  0  0  0
   -0.9791    3.1743    0.9542 H   0  0  0  0  0  0  0  0  0  0  0  0
    1.3618   -1.1761    0.6086 C   0  0  0  0  0  0  0  0  0  0  0  0
    1.1460   -1.8252    1.6326 O   0  0  0  0  0  0  0  0  0  0  0  0
    2.5209   -1.2525   -0.0555 N   0  0  0  0  0  0  0  0  0  0  0  0
    2.6411   -0.6403   -0.8494 H   0  0  0  0  0  0  0  0  0  0  0  0
    3.6463   -2.0958    0.3435 C   0  0  0  0  0  0  0  0  0  0  0  0
    3.2974   -3.1141    0.5297 H   0  0  0  0  0  0  0  0  0  0  0  0
    4.4019   -2.1132   -0.4428 H   0  0  0  0  0  0  0  0  0  0  0  0
    4.0892   -1.7059    1.2615 H   0  0  0  0  0  0  0  0  0  0  0  0
  5  6  2  0  0  0  0
  5  7  1  0  0  0  0
  2  3  1  0  0  0  0
  2  4  1  0  0  0  0
  2  5  1  0  0  0  0
  1  2  1  0  0  0  0
 16 17  2  0  0  0  0
 16 18  1  0  0  0  0
 14 15  1  0  0  0  0
 11 12  1  0  0  0  0
 11 13  1  0  0  0  0
 11 14  1  0  0  0  0
  9 10  1  0  0  0  0
  9 11  1  0  0  0  0
  9 16  1  0  0  0  0
  7  8  1  0  0  0  0
  7  9  1  0  0  0  0
 20 21  1  0  0  0  0
 20 22  1  0  0  0  0
 20 23  1  0  0  0  0
 18 19  1  0  0  0  0
 18 20  1  0  0  0  0
M  END
$$$$
default_name
  -OEChem-01062215323D

 23 22  0     1  0  0  0  0  0999 V2000
   -2.6857   -3.6684    0.8743 H   0  0  0  0  0  0  0  0  0  0  0  0
   -2.6617   -2.6474    0.4953 C   0  0  0  0  0  0  0  0  0  0  0  0
   -3.2657   -2.0054    1.1353 H   0  0  0  0  0  0  0  0  0  0  0  0
   -3.0477   -2.6254   -0.5217 H   0  0  0  0  0  0  0  0  0  0  0  0
   -1.2337   -2.1564    0.4993 C   0  0  0  0  0  0  0  0  0  0  0  0
   -0.3327   -2.8864    0.8893 O   0  0  0  0  0  0  0  0  0  0  0  0
   -1.0277   -0.9164    0.0623 N   0  0  0  0  0  0  0  0  0  0  0  0
   -1.8237   -0.3604   -0.2157 H   0  0  0  0  0  0  0  0  0  0  0  0
    0.2713   -0.2414    0.0463 C   0  0  1  0  0  0  0  0  0  0  0  0
    0.5305   -0.0032   -0.9872 H   0  0  0  0  0  0  0  0  0  0  0  0
    0.1476    1.0744    0.8321 C   0  0  0  0  0  0  0  0  0  0  0  0
   -0.2389    0.8547    1.8298 H   0  0  0  0  0  0  0  0  0  0  0  0
    1.1332    1.5337    0.9304 H   0  0  0  0  0  0  0  0  0  0  0  0
   -0.9911    2.2265    0.0092 S   0  0  0  0  0  0  0  0  0  0  0  0
   -0.9791    3.1743    0.9542 H   0  0  0  0  0  0  0  0  0  0  0  0
    1.3618   -1.1761    0.6086 C   0  0  0  0  0  0  0  0  0  0  0  0
    1.0687   -2.0235    1.4527 O   0  0  0  0  0  0  0  0  0  0  0  0
    2.6078   -1.0319    0.1427 N   0  0  0  0  0  0  0  0  0  0  0  0
    2.7768   -0.2720   -0.5004 H   0  0  0  0  0  0  0  0  0  0  0  0
    3.7468   -1.8433    0.5683 C   0  0  0  0  0  0  0  0  0  0  0  0
    3.4873   -2.9029    0.5125 H   0  0  0  0  0  0  0  0  0  0  0  0
    4.6079   -1.6502   -0.0726 H   0  0  0  0  0  0  0  0  0  0  0  0
    4.0038   -1.6013    1.6010 H   0  0  0  0  0  0  0  0  0  0  0  0
  5  6  2  0  0  0  0
  5  7  1  0  0  0  0
  2  3  1  0  0  0  0
  2  4  1  0  0  0  0
  2  5  1  0  0  0  0
  1  2  1  0  0  0  0
 16 17  2  0  0  0  0
 16 18  1  0  0  0  0
 14 15  1  0  0  0  0
 11 12  1  0  0  0  0
 11 13  1  0  0  0  0
 11 14  1  0  0  0  0
  9 10  1  0  0  0  0
  9 11  1  0  0  0  0
  9 16  1  0  0  0  0
  7  8  1  0  0  0  0
  7  9  1  0  0  0  0
 20 21  1  0  0  0  0
 20 22  1  0  0  0  0
 20 23  1  0  0  0  0
 18 19  1  0  0  0  0
 18 20  1  0  0  0  0
M  END
$$$$
default_name
  -OEChem-01062215323D

 23 22  0     1  0  0  0  0  0999 V2000
   -2.6857   -3.6684    0.8743 H   0  0  0  0  0  0  0  0  0  0  0  0
   -2.6617   -2.6474    0.4953 C   0  0  0  0  0  0  0  0  0  0  0  0
   -3.2657   -2.0054    1.1353 H   0  0  0  0  0  0  0  0  0  0  0  0
   -3.0477   -2.6254   -0.5217 H   0  0  0  0  0  0  0  0  0  0  0  0
   -1.2337   -2.1564    0.4993 C   0  0  0  0  0  0  0  0  0  0  0  0
   -0.3327   -2.8864    0.8893 O   0  0  0  0  0  0  0  0  0  0  0  0
   -1.0277   -0.9164    0.0623 N   0  0  0  0  0  0  0  0  0  0  0  0
   -1.8237   -0.3604   -0.2157 H   0  0  0  0  0  0  0  0  0  0  0  0
    0.2713   -0.2414    0.0463 C   0  0  1  0  0  0  0  0  0  0  0  0
    0.5305   -0.0032   -0.9872 H   0  0  0  0  0  0  0  0  0  0  0  0
    0.1476    1.0744    0.8321 C   0  0  0  0  0  0  0  0  0  0  0  0
   -0.2389    0.8547    1.8298 H   0  0  0  0  0  0  0  0  0  0  0  0
    1.1332    1.5337    0.9304 H   0  0  0  0  0  0  0  0  0  0  0  0
   -0.9911    2.2265    0.0092 S   0  0  0  0  0  0  0  0  0  0  0  0
   -0.9791    3.1743    0.9542 H   0  0  0  0  0  0  0  0  0  0  0  0
    1.3618   -1.1761    0.6086 C   0  0  0  0  0  0  0  0  0  0  0  0
    1.0411   -2.1894    1.2305 O   0  0  0  0  0  0  0  0  0  0  0  0
    2.6399   -0.8469    0.3882 N   0  0  0  0  0  0  0  0  0  0  0  0
    2.8184    0.0326   -0.0747 H   0  0  0  0  0  0  0  0  0  0  0  0
    3.7849   -1.6310    0.8474 C   0  0  0  0  0  0  0  0  0  0  0  0
    3.6534   -2.6778    0.5644 H   0  0  0  0  0  0  0  0  0  0  0  0
    4.7051   -1.2513    0.4019 H   0  0  0  0  0  0  0  0  0  0  0  0
    3.8581   -1.5705    1.9346 H   0  0  0  0  0  0  0  0  0  0  0  0
  5  6  2  0  0  0  0
  5  7  1  0  0  0  0
  2  3  1  0  0  0  0
  2  4  1  0  0  0  0
  2  5  1  0  0  0  0
  1  2  1  0  0  0  0
 16 17  2  0  0  0  0
 16 18  1  0  0  0  0
 14 15  1  0  0  0  0
 11 12  1  0  0  0  0
 11 13  1  0  0  0  0
 11 14  1  0  0  0  0
  9 10  1  0  0  0  0
  9 11  1  0  0  0  0
  9 16  1  0  0  0  0
  7  8  1  0  0  0  0
  7  9  1  0  0  0  0
 20 21  1  0  0  0  0
 20 22  1  0  0  0  0
 20 23  1  0  0  0  0
 18 19  1  0  0  0  0
 18 20  1  0  0  0  0
M  END
$$$$
default_name
  -OEChem-01062215323D

 23 22  0     1  0  0  0  0  0999 V2000
   -2.6857   -3.6684    0.8743 H   0  0  0  0  0  0  0  0  0  0  0  0
   -2.6617   -2.6474    0.4953 C   0  0  0  0  0  0  0  0  0  0  0  0
   -3.2657   -2.0054    1.1353 H   0  0  0  0  0  0  0  0  0  0  0  0
   -3.0477   -2.6254   -0.5217 H   0  0  0  0  0  0  0  0  0  0  0  0
   -1.2337   -2.1564    0.4993 C   0  0  0  0  0  0  0  0  0  0  0  0
   -0.3327   -2.8864    0.8893 O   0  0  0  0  0  0  0  0  0  0  0  0
   -1.0277   -0.9164    0.0623 N   0  0  0  0  0  0  0  0  0  0  0  0
   -1.8237   -0.3604   -0.2157 H   0  0  0  0  0  0  0  0  0  0  0  0
    0.2713   -0.2414    0.0463 C   0  0  1  0  0  0  0  0  0  0  0  0
    0.4096    0.2308   -0.9283 H   0  0  0  0  0  0  0  0  0  0  0  0
    0.2640    0.8571    1.1220 C   0  0  0  0  0  0  0  0  0  0  0  0
   -0.0046    0.4097    2.0816 H   0  0  0  0  0  0  0  0  0  0  0  0
    1.2619    1.2925    1.2045 H   0  0  0  0  0  0  0  0  0  0  0  0
   -0.9450    2.1548    0.7278 S   0  0  0  0  0  0  0  0  0  0  0  0
   -0.8047    2.8601    1.8567 H   0  0  0  0  0  0  0  0  0  0  0  0
    1.4052   -1.2681    0.2445 C   0  0  0  0  0  0  0  0  0  0  0  0
    1.1356   -2.4621    0.3794 O   0  0  0  0  0  0  0  0  0  0  0  0
    2.6635   -0.8134    0.2551 N   0  0  0  0  0  0  0  0  0  0  0  0
    2.7952    0.1863    0.2021 H   0  0  0  0  0  0  0  0  0  0  0  0
    3.8446   -1.6580    0.4240 C   0  0  0  0  0  0  0  0  0  0  0  0
    3.7976   -2.5019   -0.2681 H   0  0  0  0  0  0  0  0  0  0  0  0
    4.7505   -1.0831    0.2283 H   0  0  0  0  0  0  0  0  0  0  0  0
    3.8756   -2.0451    1.4439 H   0  0  0  0  0  0  0  0  0  0  0  0
  5  6  2  0  0  0  0
  5  7  1  0  0  0  0
  2  3  1  0  0  0  0
  2  4  1  0  0  0  0
  2  5  1  0  0  0  0
  1  2  1  0  0  0  0
 16 17  2  0  0  0  0
 16 18  1  0  0  0  0
 14 15  1  0  0  0  0
 11 12  1  0  0  0  0
 11 13  1  0  0  0  0
 11 14  1  0  0  0  0
  9 10  1  0  0  0  0
  9 11  1  0  0  0  0
  9 16  1  0  0  0  0
  7  8  1  0  0  0  0
  7  9  1  0  0  0  0
 20 21  1  0  0  0  0
 20 22  1  0  0  0  0
 20 23  1  0  0  0  0
 18 19  1  0  0  0  0
 18 20  1  0  0  0  0
M  END
$$$$
default_name
  -OEChem-01062215323D

 23 22  0     1  0  0  0  0  0999 V2000
   -2.6857   -3.6684    0.8743 H   0  0  0  0  0  0  0  0  0  0  0  0
   -2.6617   -2.6474    0.4953 C   0  0  0  0  0  0  0  0  0  0  0  0
   -3.2657   -2.0054    1.1353 H   0  0  0  0  0  0  0  0  0  0  0  0
   -3.0477   -2.6254   -0.5217 H   0  0  0  0  0  0  0  0  0  0  0  0
   -1.2337   -2.1564    0.4993 C   0  0  0  0  0  0  0  0  0  0  0  0
   -0.3327   -2.8864    0.8893 O   0  0  0  0  0  0  0  0  0  0  0  0
   -1.0277   -0.9164    0.0623 N   0  0  0  0  0  0  0  0  0  0  0  0
   -1.8237   -0.3604   -0.2157 H   0  0  0  0  0  0  0  0  0  0  0  0
    0.2713   -0.2414    0.0463 C   0  0  1  0  0  0  0  0  0  0  0  0
    0.4096    0.2308   -0.9283 H   0  0  0  0  0  0  0  0  0  0  0  0
    0.2640    0.8571    1.1220 C   0  0  0  0  0  0  0  0  0  0  0  0
   -0.0046    0.4097    2.0816 H   0  0  0  0  0  0  0  0  0  0  0  0
    1.2619    1.2925    1.2045 H   0  0  0  0  0  0  0  0  0  0  0  0
   -0.9450    2.1548    0.7278 S   0  0  0  0  0  0  0  0  0  0  0  0
   -0.8047    2.8601    1.8567 H   0  0  0  0  0  0  0  0  0  0  0  0
    1.4052   -1.2681    0.2445 C   0  0  0  0  0  0  0  0  0  0  0  0
    1.1767   -2.4700    0.1039 O   0  0  0  0  0  0  0  0  0  0  0  0
    2.6193   -0.8032    0.5608 N   0  0  0  0  0  0  0  0  0  0  0  0
    2.7080    0.1899    0.7200 H   0  0  0  0  0  0  0  0  0  0  0  0
    3.7955   -1.6449    0.7730 C   0  0  0  0  0  0  0  0  0  0  0  0
    3.9083   -2.3398   -0.0621 H   0  0  0  0  0  0  0  0  0  0  0  0
    4.6916   -1.0280    0.8507 H   0  0  0  0  0  0  0  0  0  0  0  0
    3.6729   -2.2211    1.6917 H   0  0  0  0  0  0  0  0  0  0  0  0
  5  6  2  0  0  0  0
  5  7  1  0  0  0  0
  2  3  1  0  0  0  0
  2  4  1  0  0  0  0
  2  5  1  0  0  0  0
  1  2  1  0  0  0  0
 16 17  2  0  0  0  0
 16 18  1  0  0  0  0
 14 15  1  0  0  0  0
 11 12  1  0  0  0  0
 11 13  1  0  0  0  0
 11 14  1  0  0  0  0
  9 10  1  0  0  0  0
  9 11  1  0  0  0  0
  9 16  1  0  0  0  0
  7  8  1  0  0  0  0
  7  9  1  0  0  0  0
 20 21  1  0  0  0  0
 20 22  1  0  0  0  0
 20 23  1  0  0  0  0
 18 19  1  0  0  0  0
 18 20  1  0  0  0  0
M  END
$$$$
default_name
  -OEChem-01062215323D

 23 22  0     1  0  0  0  0  0999 V2000
   -2.6857   -3.6684    0.8743 H   0  0  0  0  0  0  0  0  0  0  0  0
   -2.6617   -2.6474    0.4953 C   0  0  0  0  0  0  0  0  0  0  0  0
   -3.2657   -2.0054    1.1353 H   0  0  0  0  0  0  0  0  0  0  0  0
   -3.0477   -2.6254   -0.5217 H   0  0  0  0  0  0  0  0  0  0  0  0
   -1.2337   -2.1564    0.4993 C   0  0  0  0  0  0  0  0  0  0  0  0
   -0.3327   -2.8864    0.8893 O   0  0  0  0  0  0  0  0  0  0  0  0
   -1.0277   -0.9164    0.0623 N   0  0  0  0  0  0  0  0  0  0  0  0
   -1.8237   -0.3604   -0.2157 H   0  0  0  0  0  0  0  0  0  0  0  0
    0.2713   -0.2414    0.0463 C   0  0  1  0  0  0  0  0  0  0  0  0
    0.4096    0.2308   -0.9283 H   0  0  0  0  0  0  0  0  0  0  0  0
    0.2640    0.8571    1.1220 C   0  0  0  0  0  0  0  0  0  0  0  0
   -0.0046    0.4097    2.0816 H   0  0  0  0  0  0  0  0  0  0  0  0
    1.2619    1.2925    1.2045 H   0  0  0  0  0  0  0  0  0  0  0  0
   -0.9450    2.1548    0.7278 S   0  0  0  0  0  0  0  0  0  0  0  0
   -0.8047    2.8601    1.8567 H   0  0  0  0  0  0  0  0  0  0  0  0
    1.4052   -1.2681    0.2445 C   0  0  0  0  0  0  0  0  0  0  0  0
    1.2640   -2.4238   -0.1567 O   0  0  0  0  0  0  0  0  0  0  0  0
    2.5236   -0.8530    0.8504 N   0  0  0  0  0  0  0  0  0  0  0  0
    2.5344    0.0920    1.2058 H   0  0  0  0  0  0  0  0  0  0  0  0
    3.6875   -1.7002    1.1043 C   0  0  0  0  0  0  0  0  0  0  0  0
    3.9745   -2.2188    0.1867 H   0  0  0  0  0  0  0  0  0  0  0  0
    4.5256   -1.0952    1.4521 H   0  0  0  0  0  0  0  0  0  0  0  0
    3.4403   -2.4450    1.8627 H   0  0  0  0  0  0  0  0  0  0  0  0
  5  6  2  0  0  0  0
  5  7  1  0  0  0  0
  2  3  1  0  0  0  0
  2  4  1  0  0  0  0
  2  5  1  0  0  0  0
  1  2  1  0  0  0  0
 16 17  2  0  0  0  0
 16 18  1  0  0  0  0
 14 15  1  0  0  0  0
 11 12  1  0  0  0  0
 11 13  1  0  0  0  0
 11 14  1  0  0  0  0
  9 10  1  0  0  0  0
  9 11  1  0  0  0  0
  9 16  1  0  0  0  0
  7  8  1  0  0  0  0
  7  9  1  0  0  0  0
 20 21  1  0  0  0  0
 20 22  1  0  0  0  0
 20 23  1  0  0  0  0
 18 19  1  0  0  0  0
 18 20  1  0  0  0  0
M  END
$$$$
default_name
  -OEChem-01062215323D

 23 22  0     1  0  0  0  0  0999 V2000
   -2.6857   -3.6684    0.8743 H   0  0  0  0  0  0  0  0  0  0  0  0
   -2.6617   -2.6474    0.4953 C   0  0  0  0  0  0  0  0  0  0  0  0
   -3.2657   -2.0054    1.1353 H   0  0  0  0  0  0  0  0  0  0  0  0
   -3.0477   -2.6254   -0.5217 H   0  0  0  0  0  0  0  0  0  0  0  0
   -1.2337   -2.1564    0.4993 C   0  0  0  0  0  0  0  0  0  0  0  0
   -0.3327   -2.8864    0.8893 O   0  0  0  0  0  0  0  0  0  0  0  0
   -1.0277   -0.9164    0.0623 N   0  0  0  0  0  0  0  0  0  0  0  0
   -1.8237   -0.3604   -0.2157 H   0  0  0  0  0  0  0  0  0  0  0  0
    0.2713   -0.2414    0.0463 C   0  0  1  0  0  0  0  0  0  0  0  0
    0.4096    0.2308   -0.9283 H   0  0  0  0  0  0  0  0  0  0  0  0
    0.2640    0.8571    1.1220 C   0  0  0  0  0  0  0  0  0  0  0  0
   -0.0046    0.4097    2.0816 H   0  0  0  0  0  0  0  0  0  0  0  0
    1.2619    1.2925    1.2045 H   0  0  0  0  0  0  0  0  0  0  0  0
   -0.9450    2.1548    0.7278 S   0  0  0  0  0  0  0  0  0  0  0  0
   -0.8047    2.8601    1.8567 H   0  0  0  0  0  0  0  0  0  0  0  0
    1.4052   -1.2681    0.2445 C   0  0  0  0  0  0  0  0  0  0  0  0
    1.3917   -2.3267   -0.3845 O   0  0  0  0  0  0  0  0  0  0  0  0
    2.3829   -0.9594    1.1041 N   0  0  0  0  0  0  0  0  0  0  0  0
    2.2863   -0.1008    1.6266 H   0  0  0  0  0  0  0  0  0  0  0  0
    3.5280   -1.8203    1.3951 C   0  0  0  0  0  0  0  0  0  0  0  0
    3.9915   -2.1470    0.4614 H   0  0  0  0  0  0  0  0  0  0  0  0
    4.2640   -1.2801    1.9917 H   0  0  0  0  0  0  0  0  0  0  0  0
    3.1936   -2.7015    1.9451 H   0  0  0  0  0  0  0  0  0  0  0  0
  5  6  2  0  0  0  0
  5  7  1  0  0  0  0
  2  3  1  0  0  0  0
  2  4  1  0  0  0  0
  2  5  1  0  0  0  0
  1  2  1  0  0  0  0
 16 17  2  0  0  0  0
 16 18  1  0  0  0  0
 14 15  1  0  0  0  0
 11 12  1  0  0  0  0
 11 13  1  0  0  0  0
 11 14  1  0  0  0  0
  9 10  1  0  0  0  0
  9 11  1  0  0  0  0
  9 16  1  0  0  0  0
  7  8  1  0  0  0  0
  7  9  1  0  0  0  0
 20 21  1  0  0  0  0
 20 22  1  0  0  0  0
 20 23  1  0  0  0  0
 18 19  1  0  0  0  0
 18 20  1  0  0  0  0
M  END
$$$$
default_name
  -OEChem-01062215323D

 23 22  0     1  0  0  0  0  0999 V2000
   -2.6857   -3.6684    0.8743 H   0  0  0  0  0  0  0  0  0  0  0  0
   -2.6617   -2.6474    0.4953 C   0  0  0  0  0  0  0  0  0  0  0  0
   -3.2657   -2.0054    1.1353 H   0  0  0  0  0  0  0  0  0  0  0  0
   -3.0477   -2.6254   -0.5217 H   0  0  0  0  0  0  0  0  0  0  0  0
   -1.2337   -2.1564    0.4993 C   0  0  0  0  0  0  0  0  0  0  0  0
   -0.3327   -2.8864    0.8893 O   0  0  0  0  0  0  0  0  0  0  0  0
   -1.0277   -0.9164    0.0623 N   0  0  0  0  0  0  0  0  0  0  0  0
   -1.8237   -0.3604   -0.2157 H   0  0  0  0  0  0  0  0  0  0  0  0
    0.2713   -0.2414    0.0463 C   0  0  1  0  0  0  0  0  0  0  0  0
    0.4096    0.2308   -0.9283 H   0  0  0  0  0  0  0  0  0  0  0  0
    0.2640    0.8571    1.1220 C   0  0  0  0  0  0  0  0  0  0  0  0
   -0.0046    0.4097    2.0816 H   0  0  0  0  0  0  0  0  0  0  0  0
    1.2619    1.2925    1.2045 H   0  0  0  0  0  0  0  0  0  0  0  0
   -0.9450    2.1548    0.7278 S   0  0  0  0  0  0  0  0  0  0  0  0
   -0.8047    2.8601    1.8567 H   0  0  0  0  0  0  0  0  0  0  0  0
    1.4052   -1.2681    0.2445 C   0  0  0  0  0  0  0  0  0  0  0  0
    1.5511   -2.1854   -0.5641 O   0  0  0  0  0  0  0  0  0  0  0  0
    2.2069   -1.1151    1.3047 N   0  0  0  0  0  0  0  0  0  0  0  0
    1.9805   -0.3753    1.9537 H   0  0  0  0  0  0  0  0  0  0  0  0
    3.3278   -1.9969    1.6256 C   0  0  0  0  0  0  0  0  0  0  0  0
    3.9582   -2.1293    0.7434 H   0  0  0  0  0  0  0  0  0  0  0  0
    3.9244   -1.5700    2.4326 H   0  0  0  0  0  0  0  0  0  0  0  0
    2.9496   -2.9732    1.9335 H   0  0  0  0  0  0  0  0  0  0  0  0
  5  6  2  0  0  0  0
  5  7  1  0  0  0  0
  2  3  1  0  0  0  0
  2  4  1  0  0  0  0
  2  5  1  0  0  0  0
  1  2  1  0  0  0  0
 16 17  2  0  0  0  0
 16 18  1  0  0  0  0
 14 15  1  0  0  0  0
 11 12  1  0  0  0  0
 11 13  1  0  0  0  0
 11 14  1  0  0  0  0
  9 10  1  0  0  0  0
  9 11  1  0  0  0  0
  9 16  1  0  0  0  0
  7  8  1  0  0  0  0
  7  9  1  0  0  0  0
 20 21  1  0  0  0  0
 20 22  1  0  0  0  0
 20 23  1  0  0  0  0
 18 19  1  0  0  0  0
 18 20  1  0  0  0  0
M  END
$$$$
default_name
  -OEChem-01062215323D

 23 22  0     1  0  0  0  0  0999 V2000
   -2.6857   -3.6684    0.8743 H   0  0  0  0  0  0  0  0  0  0  0  0
   -2.6617   -2.6474    0.4953 C   0  0  0  0  0  0  0  0  0  0  0  0
   -3.2657   -2.0054    1.1353 H   0  0  0  0  0  0  0  0  0  0  0  0
   -3.0477   -2.6254   -0.5217 H   0  0  0  0  0  0  0  0  0  0  0  0
   -1.2337   -2.1564    0.4993 C   0  0  0  0  0  0  0  0  0  0  0  0
   -0.3327   -2.8864    0.8893 O   0  0  0  0  0  0  0  0  0  0  0  0
   -1.0277   -0.9164    0.0623 N   0  0  0  0  0  0  0  0  0  0  0  0
   -1.8237   -0.3604   -0.2157 H   0  0  0  0  0  0  0  0  0  0  0  0
    0.2713   -0.2414    0.0463 C   0  0  1  0  0  0  0  0  0  0  0  0
    0.4096    0.2308   -0.9283 H   0  0  0  0  0  0  0  0  0  0  0  0
    0.2640    0.8571    1.1220 C   0  0  0  0  0  0  0  0  0  0  0  0
   -0.0046    0.4097    2.0816 H   0  0  0  0  0  0  0  0  0  0  0  0
    1.2619    1.2925    1.2045 H   0  0  0  0  0  0  0  0  0  0  0  0
   -0.9450    2.1548    0.7278 S   0  0  0  0  0  0  0  0  0  0  0  0
   -0.8047    2.8601    1.8567 H   0  0  0  0  0  0  0  0  0  0  0  0
    1.4052   -1.2681    0.2445 C   0  0  0  0  0  0  0  0  0  0  0  0
    1.7314   -2.0093   -0.6832 O   0  0  0  0  0  0  0  0  0  0  0  0
    2.0074   -1.3096    1.4386 N   0  0  0  0  0  0  0  0  0  0  0  0
    1.6380   -0.7129    2.1646 H   0  0  0  0  0  0  0  0  0  0  0  0
    3.1005   -2.2180    1.7802 C   0  0  0  0  0  0  0  0  0  0  0  0
    3.8768   -2.1671    1.0134 H   0  0  0  0  0  0  0  0  0  0  0  0
    3.5300   -1.9452    2.7449 H   0  0  0  0  0  0  0  0  0  0  0  0
    2.7250   -3.2415    1.8285 H   0  0  0  0  0  0  0  0  0  0  0  0
  5  6  2  0  0  0  0
  5  7  1  0  0  0  0
  2  3  1  0  0  0  0
  2  4  1  0  0  0  0
  2  5  1  0  0  0  0
  1  2  1  0  0  0  0
 16 17  2  0  0  0  0
 16 18  1  0  0  0  0
 14 15  1  0  0  0  0
 11 12  1  0  0  0  0
 11 13  1  0  0  0  0
 11 14  1  0  0  0  0
  9 10  1  0  0  0  0
  9 11  1  0  0  0  0
  9 16  1  0  0  0  0
  7  8  1  0  0  0  0
  7  9  1  0  0  0  0
 20 21  1  0  0  0  0
 20 22  1  0  0  0  0
 20 23  1  0  0  0  0
 18 19  1  0  0  0  0
 18 20  1  0  0  0  0
M  END
$$$$
default_name
  -OEChem-01062215323D

 23 22  0     1  0  0  0  0  0999 V2000
   -2.6857   -3.6684    0.8743 H   0  0  0  0  0  0  0  0  0  0  0  0
   -2.6617   -2.6474    0.4953 C   0  0  0  0  0  0  0  0  0  0  0  0
   -3.2657   -2.0054    1.1353 H   0  0  0  0  0  0  0  0  0  0  0  0
   -3.0477   -2.6254   -0.5217 H   0  0  0  0  0  0  0  0  0  0  0  0
   -1.2337   -2.1564    0.4993 C   0  0  0  0  0  0  0  0  0  0  0  0
   -0.3327   -2.8864    0.8893 O   0  0  0  0  0  0  0  0  0  0  0  0
   -1.0277   -0.9164    0.0623 N   0  0  0  0  0  0  0  0  0  0  0  0
   -1.8237   -0.3604   -0.2157 H   0  0  0  0  0  0  0  0  0  0  0  0
    0.2713   -0.2414    0.0463 C   0  0  1  0  0  0  0  0  0  0  0  0
    0.4096    0.2308   -0.9283 H   0  0  0  0  0  0  0  0  0  0  0  0
    0.2640    0.8571    1.1220 C   0  0  0  0  0  0  0  0  0  0  0  0
   -0.0046    0.4097    2.0816 H   0  0  0  0  0  0  0  0  0  0  0  0
    1.2619    1.2925    1.2045 H   0  0  0  0  0  0  0  0  0  0  0  0
   -0.9450    2.1548    0.7278 S   0  0  0  0  0  0  0  0  0  0  0  0
   -0.8047    2.8601    1.8567 H   0  0  0  0  0  0  0  0  0  0  0  0
    1.4052   -1.2681    0.2445 C   0  0  0  0  0  0  0  0  0  0  0  0
    1.9201   -1.8107   -0.7338 O   0  0  0  0  0  0  0  0  0  0  0  0
    1.7982   -1.5295    1.4965 N   0  0  0  0  0  0  0  0  0  0  0  0
    1.2820   -1.0905    2.2451 H   0  0  0  0  0  0  0  0  0  0  0  0
    2.8617   -2.4685    1.8484 C   0  0  0  0  0  0  0  0  0  0  0  0
    3.7530   -2.2576    1.2530 H   0  0  0  0  0  0  0  0  0  0  0  0
    3.1078   -2.3801    2.9072 H   0  0  0  0  0  0  0  0  0  0  0  0
    2.5350   -3.4882    1.6374 H   0  0  0  0  0  0  0  0  0  0  0  0
  5  6  2  0  0  0  0
  5  7  1  0  0  0  0
  2  3  1  0  0  0  0
  2  4  1  0  0  0  0
  2  5  1  0  0  0  0
  1  2  1  0  0  0  0
 16 17  2  0  0  0  0
 16 18  1  0  0  0  0
 14 15  1  0  0  0  0
 11 12  1  0  0  0  0
 11 13  1  0  0  0  0
 11 14  1  0  0  0  0
  9 10  1  0  0  0  0
  9 11  1  0  0  0  0
  9 16  1  0  0  0  0
  7  8  1  0  0  0  0
  7  9  1  0  0  0  0
 20 21  1  0  0  0  0
 20 22  1  0  0  0  0
 20 23  1  0  0  0  0
 18 19  1  0  0  0  0
 18 20  1  0  0  0  0
M  END
$$$$
default_name
  -OEChem-01062215323D

 23 22  0     1  0  0  0  0  0999 V2000
   -2.6857   -3.6684    0.8743 H   0  0  0  0  0  0  0  0  0  0  0  0
   -2.6617   -2.6474    0.4953 C   0  0  0  0  0  0  0  0  0  0  0  0
   -3.2657   -2.0054    1.1353 H   0  0  0  0  0  0  0  0  0  0  0  0
   -3.0477   -2.6254   -0.5217 H   0  0  0  0  0  0  0  0  0  0  0  0
   -1.2337   -2.1564    0.4993 C   0  0  0  0  0  0  0  0  0  0  0  0
   -0.3327   -2.8864    0.8893 O   0  0  0  0  0  0  0  0  0  0  0  0
   -1.0277   -0.9164    0.0623 N   0  0  0  0  0  0  0  0  0  0  0  0
   -1.8237   -0.3604   -0.2157 H   0  0  0  0  0  0  0  0  0  0  0  0
    0.2713   -0.2414    0.0463 C   0  0  1  0  0  0  0  0  0  0  0  0
    0.4096    0.2308   -0.9283 H   0  0  0  0  0  0  0  0  0  0  0  0
    0.2640    0.8571    1.1220 C   0  0  0  0  0  0  0  0  0  0  0  0
   -0.0046    0.4097    2.0816 H   0  0  0  0  0  0  0  0  0  0  0  0
    1.2619    1.2925    1.2045 H   0  0  0  0  0  0  0  0  0  0  0  0
   -0.9450    2.1548    0.7278 S   0  0  0  0  0  0  0  0  0  0  0  0
   -0.8047    2.8601    1.8567 H   0  0  0  0  0  0  0  0  0  0  0  0
    1.4052   -1.2681    0.2445 C   0  0  0  0  0  0  0  0  0  0  0  0
    2.1045   -1.6029   -0.7123 O   0  0  0  0  0  0  0  0  0  0  0  0
    1.5934   -1.7599    1.4745 N   0  0  0  0  0  0  0  0  0  0  0  0
    0.9368   -1.4824    2.1898 H   0  0  0  0  0  0  0  0  0  0  0  0
    2.6277   -2.7314    1.8254 C   0  0  0  0  0  0  0  0  0  0  0  0
    3.5951   -2.3947    1.4459 H   0  0  0  0  0  0  0  0  0  0  0  0
    2.6865   -2.8452    2.9085 H   0  0  0  0  0  0  0  0  0  0  0  0
    2.3927   -3.6964    1.3731 H   0  0  0  0  0  0  0  0  0  0  0  0
  5  6  2  0  0  0  0
  5  7  1  0  0  0  0
  2  3  1  0  0  0  0
  2  4  1  0  0  0  0
  2  5  1  0  0  0  0
  1  2  1  0  0  0  0
 16 17  2  0  0  0  0
 16 18  1  0  0  0  0
 14 15  1  0  0  0  0
 11 12  1  0  0  0  0
 11 13  1  0  0  0  0
 11 14  1  0  0  0  0
  9 10  1  0  0  0  0
  9 11  1  0  0  0  0
  9 16  1  0  0  0  0
  7  8  1  0  0  0  0
  7  9  1  0  0  0  0
 20 21  1  0  0  0  0
 20 22  1  0  0  0  0
 20 23  1  0  0  0  0
 18 19  1  0  0  0  0
 18 20  1  0  0  0  0
M  END
$$$$
default_name
  -OEChem-01062215323D

 23 22  0     1  0  0  0  0  0999 V2000
   -2.6857   -3.6684    0.8743 H   0  0  0  0  0  0  0  0  0  0  0  0
   -2.6617   -2.6474    0.4953 C   0  0  0  0  0  0  0  0  0  0  0  0
   -3.2657   -2.0054    1.1353 H   0  0  0  0  0  0  0  0  0  0  0  0
   -3.0477   -2.6254   -0.5217 H   0  0  0  0  0  0  0  0  0  0  0  0
   -1.2337   -2.1564    0.4993 C   0  0  0  0  0  0  0  0  0  0  0  0
   -0.3327   -2.8864    0.8893 O   0  0  0  0  0  0  0  0  0  0  0  0
   -1.0277   -0.9164    0.0623 N   0  0  0  0  0  0  0  0  0  0  0  0
   -1.8237   -0.3604   -0.2157 H   0  0  0  0  0  0  0  0  0  0  0  0
    0.2713   -0.2414    0.0463 C   0  0  1  0  0  0  0  0  0  0  0  0
    0.4096    0.2308   -0.9283 H   0  0  0  0  0  0  0  0  0  0  0  0
    0.2640    0.8571    1.1220 C   0  0  0  0  0  0  0  0  0  0  0  0
   -0.0046    0.4097    2.0816 H   0  0  0  0  0  0  0  0  0  0  0  0
    1.2619    1.2925    1.2045 H   0  0  0  0  0  0  0  0  0  0  0  0
   -0.9450    2.1548    0.7278 S   0  0  0  0  0  0  0  0  0  0  0  0
   -0.8047    2.8601    1.8567 H   0  0  0  0  0  0  0  0  0  0  0  0
    1.4052   -1.2681    0.2445 C   0  0  0  0  0  0  0  0  0  0  0  0
    2.2720   -1.4001   -0.6202 O   0  0  0  0  0  0  0  0  0  0  0  0
    1.4070   -1.9850    1.3742 N   0  0  0  0  0  0  0  0  0  0  0  0
    0.6259   -1.8619    2.0022 H   0  0  0  0  0  0  0  0  0  0  0  0
    2.4143   -2.9888    1.7128 C   0  0  0  0  0  0  0  0  0  0  0  0
    3.4139   -2.5691    1.5789 H   0  0  0  0  0  0  0  0  0  0  0  0
    2.2948   -3.3086    2.7486 H   0  0  0  0  0  0  0  0  0  0  0  0
    2.3076   -3.8520    1.0536 H   0  0  0  0  0  0  0  0  0  0  0  0
  5  6  2  0  0  0  0
  5  7  1  0  0  0  0
  2  3  1  0  0  0  0
  2  4  1  0  0  0  0
  2  5  1  0  0  0  0
  1  2  1  0  0  0  0
 16 17  2  0  0  0  0
 16 18  1  0  0  0  0
 14 15  1  0  0  0  0
 11 12  1  0  0  0  0
 11 13  1  0  0  0  0
 11 14  1  0  0  0  0
  9 10  1  0  0  0  0
  9 11  1  0  0  0  0
  9 16  1  0  0  0  0
  7  8  1  0  0  0  0
  7  9  1  0  0  0  0
 20 21  1  0  0  0  0
 20 22  1  0  0  0  0
 20 23  1  0  0  0  0
 18 19  1  0  0  0  0
 18 20  1  0  0  0  0
M  END
$$$$
default_name
  -OEChem-01062215323D

 23 22  0     1  0  0  0  0  0999 V2000
   -2.6857   -3.6684    0.8743 H   0  0  0  0  0  0  0  0  0  0  0  0
   -2.6617   -2.6474    0.4953 C   0  0  0  0  0  0  0  0  0  0  0  0
   -3.2657   -2.0054    1.1353 H   0  0  0  0  0  0  0  0  0  0  0  0
   -3.0477   -2.6254   -0.5217 H   0  0  0  0  0  0  0  0  0  0  0  0
   -1.2337   -2.1564    0.4993 C   0  0  0  0  0  0  0  0  0  0  0  0
   -0.3327   -2.8864    0.8893 O   0  0  0  0  0  0  0  0  0  0  0  0
   -1.0277   -0.9164    0.0623 N   0  0  0  0  0  0  0  0  0  0  0  0
   -1.8237   -0.3604   -0.2157 H   0  0  0  0  0  0  0  0  0  0  0  0
    0.2713   -0.2414    0.0463 C   0  0  1  0  0  0  0  0  0  0  0  0
    0.4096    0.2308   -0.9283 H   0  0  0  0  0  0  0  0  0  0  0  0
    0.2640    0.8571    1.1220 C   0  0  0  0  0  0  0  0  0  0  0  0
   -0.0046    0.4097    2.0816 H   0  0  0  0  0  0  0  0  0  0  0  0
    1.2619    1.2925    1.2045 H   0  0  0  0  0  0  0  0  0  0  0  0
   -0.9450    2.1548    0.7278 S   0  0  0  0  0  0  0  0  0  0  0  0
   -0.8047    2.8601    1.8567 H   0  0  0  0  0  0  0  0  0  0  0  0
    1.4052   -1.2681    0.2445 C   0  0  0  0  0  0  0  0  0  0  0  0
    2.4112   -1.2162   -0.4638 O   0  0  0  0  0  0  0  0  0  0  0  0
    1.2518   -2.1896    1.2024 N   0  0  0  0  0  0  0  0  0  0  0  0
    0.3706   -2.2031    1.6953 H   0  0  0  0  0  0  0  0  0  0  0  0
    2.2362   -3.2230    1.5184 C   0  0  0  0  0  0  0  0  0  0  0  0
    3.2218   -2.7689    1.6430 H   0  0  0  0  0  0  0  0  0  0  0  0
    1.9593   -3.7389    2.4385 H   0  0  0  0  0  0  0  0  0  0  0  0
    2.2857   -3.9443    0.7008 H   0  0  0  0  0  0  0  0  0  0  0  0
  5  6  2  0  0  0  0
  5  7  1  0  0  0  0
  2  3  1  0  0  0  0
  2  4  1  0  0  0  0
  2  5  1  0  0  0  0
  1  2  1  0  0  0  0
 16 17  2  0  0  0  0
 16 18  1  0  0  0  0
 14 15  1  0  0  0  0
 11 12  1  0  0  0  0
 11 13  1  0  0  0  0
 11 14  1  0  0  0  0
  9 10  1  0  0  0  0
  9 11  1  0  0  0  0
  9 16  1  0  0  0  0
  7  8  1  0  0  0  0
  7  9  1  0  0  0  0
 20 21  1  0  0  0  0
 20 22  1  0  0  0  0
 20 23  1  0  0  0  0
 18 19  1  0  0  0  0
 18 20  1  0  0  0  0
M  END
$$$$
default_name
  -OEChem-01062215323D

 23 22  0     1  0  0  0  0  0999 V2000
   -2.6857   -3.6684    0.8743 H   0  0  0  0  0  0  0  0  0  0  0  0
   -2.6617   -2.6474    0.4953 C   0  0  0  0  0  0  0  0  0  0  0  0
   -3.2657   -2.0054    1.1353 H   0  0  0  0  0  0  0  0  0  0  0  0
   -3.0477   -2.6254   -0.5217 H   0  0  0  0  0  0  0  0  0  0  0  0
   -1.2337   -2.1564    0.4993 C   0  0  0  0  0  0  0  0  0  0  0  0
   -0.3327   -2.8864    0.8893 O   0  0  0  0  0  0  0  0  0  0  0  0
   -1.0277   -0.9164    0.0623 N   0  0  0  0  0  0  0  0  0  0  0  0
   -1.8237   -0.3604   -0.2157 H   0  0  0  0  0  0  0  0  0  0  0  0
    0.2713   -0.2414    0.0463 C   0  0  1  0  0  0  0  0  0  0  0  0
    0.4096    0.2308   -0.9283 H   0  0  0  0  0  0  0  0  0  0  0  0
    0.2640    0.8571    1.1220 C   0  0  0  0  0  0  0  0  0  0  0  0
   -0.0046    0.4097    2.0816 H   0  0  0  0  0  0  0  0  0  0  0  0
    1.2619    1.2925    1.2045 H   0  0  0  0  0  0  0  0  0  0  0  0
   -0.9450    2.1548    0.7278 S   0  0  0  0  0  0  0  0  0  0  0  0
   -0.8047    2.8601    1.8567 H   0  0  0  0  0  0  0  0  0  0  0  0
    1.4052   -1.2681    0.2445 C   0  0  0  0  0  0  0  0  0  0  0  0
    2.5126   -1.0637   -0.2537 O   0  0  0  0  0  0  0  0  0  0  0  0
    1.1382   -2.3598    0.9707 N   0  0  0  0  0  0  0  0  0  0  0  0
    0.1882   -2.4828    1.2900 H   0  0  0  0  0  0  0  0  0  0  0  0
    2.1054   -3.4183    1.2553 C   0  0  0  0  0  0  0  0  0  0  0  0
    3.0318   -2.9805    1.6338 H   0  0  0  0  0  0  0  0  0  0  0  0
    1.7030   -4.1067    1.9994 H   0  0  0  0  0  0  0  0  0  0  0  0
    2.3284   -3.9671    0.3387 H   0  0  0  0  0  0  0  0  0  0  0  0
  5  6  2  0  0  0  0
  5  7  1  0  0  0  0
  2  3  1  0  0  0  0
  2  4  1  0  0  0  0
  2  5  1  0  0  0  0
  1  2  1  0  0  0  0
 16 17  2  0  0  0  0
 16 18  1  0  0  0  0
 14 15  1  0  0  0  0
 11 12  1  0  0  0  0
 11 13  1  0  0  0  0
 11 14  1  0  0  0  0
  9 10  1  0  0  0  0
  9 11  1  0  0  0  0
  9 16  1  0  0  0  0
  7  8  1  0  0  0  0
  7  9  1  0  0  0  0
 20 21  1  0  0  0  0
 20 22  1  0  0  0  0
 20 23  1  0  0  0  0
 18 19  1  0  0  0  0
 18 20  1  0  0  0  0
M  END
$$$$
default_name
  -OEChem-01062215323D

 23 22  0     1  0  0  0  0  0999 V2000
   -2.6857   -3.6684    0.8743 H   0  0  0  0  0  0  0  0  0  0  0  0
   -2.6617   -2.6474    0.4953 C   0  0  0  0  0  0  0  0  0  0  0  0
   -3.2657   -2.0054    1.1353 H   0  0  0  0  0  0  0  0  0  0  0  0
   -3.0477   -2.6254   -0.5217 H   0  0  0  0  0  0  0  0  0  0  0  0
   -1.2337   -2.1564    0.4993 C   0  0  0  0  0  0  0  0  0  0  0  0
   -0.3327   -2.8864    0.8893 O   0  0  0  0  0  0  0  0  0  0  0  0
   -1.0277   -0.9164    0.0623 N   0  0  0  0  0  0  0  0  0  0  0  0
   -1.8237   -0.3604   -0.2157 H   0  0  0  0  0  0  0  0  0  0  0  0
    0.2713   -0.2414    0.0463 C   0  0  1  0  0  0  0  0  0  0  0  0
    0.4096    0.2308   -0.9283 H   0  0  0  0  0  0  0  0  0  0  0  0
    0.2640    0.8571    1.1220 C   0  0  0  0  0  0  0  0  0  0  0  0
   -0.0046    0.4097    2.0816 H   0  0  0  0  0  0  0  0  0  0  0  0
    1.2619    1.2925    1.2045 H   0  0  0  0  0  0  0  0  0  0  0  0
   -0.9450    2.1548    0.7278 S   0  0  0  0  0  0  0  0  0  0  0  0
   -0.8047    2.8601    1.8567 H   0  0  0  0  0  0  0  0  0  0  0  0
    1.4052   -1.2681    0.2445 C   0  0  0  0  0  0  0  0  0  0  0  0
    2.5693   -0.9530   -0.0044 O   0  0  0  0  0  0  0  0  0  0  0  0
    1.0741   -2.4838    0.6950 N   0  0  0  0  0  0  0  0  0  0  0  0
    0.0911   -2.6819    0.8138 H   0  0  0  0  0  0  0  0  0  0  0  0
    2.0308   -3.5611    0.9415 C   0  0  0  0  0  0  0  0  0  0  0  0
    2.8569   -3.1894    1.5519 H   0  0  0  0  0  0  0  0  0  0  0  0
    1.5434   -4.3869    1.4611 H   0  0  0  0  0  0  0  0  0  0  0  0
    2.4327   -3.9188   -0.0081 H   0  0  0  0  0  0  0  0  0  0  0  0
  5  6  2  0  0  0  0
  5  7  1  0  0  0  0
  2  3  1  0  0  0  0
  2  4  1  0  0  0  0
  2  5  1  0  0  0  0
  1  2  1  0  0  0  0
 16 17  2  0  0  0  0
 16 18  1  0  0  0  0
 14 15  1  0  0  0  0
 11 12  1  0  0  0  0
 11 13  1  0  0  0  0
 11 14  1  0  0  0  0
  9 10  1  0  0  0  0
  9 11  1  0  0  0  0
  9 16  1  0  0  0  0
  7  8  1  0  0  0  0
  7  9  1  0  0  0  0
 20 21  1  0  0  0  0
 20 22  1  0  0  0  0
 20 23  1  0  0  0  0
 18 19  1  0  0  0  0
 18 20  1  0  0  0  0
M  END
$$$$
default_name
  -OEChem-01062215323D

 23 22  0     1  0  0  0  0  0999 V2000
   -2.6857   -3.6684    0.8743 H   0  0  0  0  0  0  0  0  0  0  0  0
   -2.6617   -2.6474    0.4953 C   0  0  0  0  0  0  0  0  0  0  0  0
   -3.2657   -2.0054    1.1353 H   0  0  0  0  0  0  0  0  0  0  0  0
   -3.0477   -2.6254   -0.5217 H   0  0  0  0  0  0  0  0  0  0  0  0
   -1.2337   -2.1564    0.4993 C   0  0  0  0  0  0  0  0  0  0  0  0
   -0.3327   -2.8864    0.8893 O   0  0  0  0  0  0  0  0  0  0  0  0
   -1.0277   -0.9164    0.0623 N   0  0  0  0  0  0  0  0  0  0  0  0
   -1.8237   -0.3604   -0.2157 H   0  0  0  0  0  0  0  0  0  0  0  0
    0.2713   -0.2414    0.0463 C   0  0  1  0  0  0  0  0  0  0  0  0
    0.4096    0.2308   -0.9283 H   0  0  0  0  0  0  0  0  0  0  0  0
    0.2640    0.8571    1.1220 C   0  0  0  0  0  0  0  0  0  0  0  0
   -0.0046    0.4097    2.0816 H   0  0  0  0  0  0  0  0  0  0  0  0
    1.2619    1.2925    1.2045 H   0  0  0  0  0  0  0  0  0  0  0  0
   -0.9450    2.1548    0.7278 S   0  0  0  0  0  0  0  0  0  0  0  0
   -0.8047    2.8601    1.8567 H   0  0  0  0  0  0  0  0  0  0  0  0
    1.4052   -1.2681    0.2445 C   0  0  0  0  0  0  0  0  0  0  0  0
    2.5774   -0.8916    0.2673 O   0  0  0  0  0  0  0  0  0  0  0  0
    1.0638   -2.5532    0.3941 N   0  0  0  0  0  0  0  0  0  0  0  0
    0.0860   -2.7868    0.2992 H   0  0  0  0  0  0  0  0  0  0  0  0
    2.0177   -3.6419    0.5983 C   0  0  0  0  0  0  0  0  0  0  0  0
    2.7091   -3.3815    1.4030 H   0  0  0  0  0  0  0  0  0  0  0  0
    1.4912   -4.5604    0.8603 H   0  0  0  0  0  0  0  0  0  0  0  0
    2.5916   -3.8027   -0.3158 H   0  0  0  0  0  0  0  0  0  0  0  0
  5  6  2  0  0  0  0
  5  7  1  0  0  0  0
  2  3  1  0  0  0  0
  2  4  1  0  0  0  0
  2  5  1  0  0  0  0
  1  2  1  0  0  0  0
 16 17  2  0  0  0  0
 16 18  1  0  0  0  0
 14 15  1  0  0  0  0
 11 12  1  0  0  0  0
 11 13  1  0  0  0  0
 11 14  1  0  0  0  0
  9 10  1  0  0  0  0
  9 11  1  0  0  0  0
  9 16  1  0  0  0  0
  7  8  1  0  0  0  0
  7  9  1  0  0  0  0
 20 21  1  0  0  0  0
 20 22  1  0  0  0  0
 20 23  1  0  0  0  0
 18 19  1  0  0  0  0
 18 20  1  0  0  0  0
M  END
$$$$
default_name
  -OEChem-01062215323D

 23 22  0     1  0  0  0  0  0999 V2000
   -2.6857   -3.6684    0.8743 H   0  0  0  0  0  0  0  0  0  0  0  0
   -2.6617   -2.6474    0.4953 C   0  0  0  0  0  0  0  0  0  0  0  0
   -3.2657   -2.0054    1.1353 H   0  0  0  0  0  0  0  0  0  0  0  0
   -3.0477   -2.6254   -0.5217 H   0  0  0  0  0  0  0  0  0  0  0  0
   -1.2337   -2.1564    0.4993 C   0  0  0  0  0  0  0  0  0  0  0  0
   -0.3327   -2.8864    0.8893 O   0  0  0  0  0  0  0  0  0  0  0  0
   -1.0277   -0.9164    0.0623 N   0  0  0  0  0  0  0  0  0  0  0  0
   -1.8237   -0.3604   -0.2157 H   0  0  0  0  0  0  0  0  0  0  0  0
    0.2713   -0.2414    0.0463 C   0  0  1  0  0  0  0  0  0  0  0  0
    0.4096    0.2308   -0.9283 H   0  0  0  0  0  0  0  0  0  0  0  0
    0.2640    0.8571    1.1220 C   0  0  0  0  0  0  0  0  0  0  0  0
   -0.0046    0.4097    2.0816 H   0  0  0  0  0  0  0  0  0  0  0  0
    1.2619    1.2925    1.2045 H   0  0  0  0  0  0  0  0  0  0  0  0
   -0.9450    2.1548    0.7278 S   0  0  0  0  0  0  0  0  0  0  0  0
   -0.8047    2.8601    1.8567 H   0  0  0  0  0  0  0  0  0  0  0  0
    1.4052   -1.2681    0.2445 C   0  0  0  0  0  0  0  0  0  0  0  0
    2.5364   -0.8837    0.5428 O   0  0  0  0  0  0  0  0  0  0  0  0
    1.1080   -2.5634    0.0884 N   0  0  0  0  0  0  0  0  0  0  0  0
    0.1732   -2.7904   -0.2186 H   0  0  0  0  0  0  0  0  0  0  0  0
    2.0668   -3.6550    0.2493 C   0  0  0  0  0  0  0  0  0  0  0  0
    2.5983   -3.5436    1.1971 H   0  0  0  0  0  0  0  0  0  0  0  0
    1.5501   -4.6155    0.2380 H   0  0  0  0  0  0  0  0  0  0  0  0
    2.7943   -3.6267   -0.5637 H   0  0  0  0  0  0  0  0  0  0  0  0
  5  6  2  0  0  0  0
  5  7  1  0  0  0  0
  2  3  1  0  0  0  0
  2  4  1  0  0  0  0
  2  5  1  0  0  0  0
  1  2  1  0  0  0  0
 16 17  2  0  0  0  0
 16 18  1  0  0  0  0
 14 15  1  0  0  0  0
 11 12  1  0  0  0  0
 11 13  1  0  0  0  0
 11 14  1  0  0  0  0
  9 10  1  0  0  0  0
  9 11  1  0  0  0  0
  9 16  1  0  0  0  0
  7  8  1  0  0  0  0
  7  9  1  0  0  0  0
 20 21  1  0  0  0  0
 20 22  1  0  0  0  0
 20 23  1  0  0  0  0
 18 19  1  0  0  0  0
 18 20  1  0  0  0  0
M  END
$$$$
default_name
  -OEChem-01062215323D

 23 22  0     1  0  0  0  0  0999 V2000
   -2.6857   -3.6684    0.8743 H   0  0  0  0  0  0  0  0  0  0  0  0
   -2.6617   -2.6474    0.4953 C   0  0  0  0  0  0  0  0  0  0  0  0
   -3.2657   -2.0054    1.1353 H   0  0  0  0  0  0  0  0  0  0  0  0
   -3.0477   -2.6254   -0.5217 H   0  0  0  0  0  0  0  0  0  0  0  0
   -1.2337   -2.1564    0.4993 C   0  0  0  0  0  0  0  0  0  0  0  0
   -0.3327   -2.8864    0.8893 O   0  0  0  0  0  0  0  0  0  0  0  0
   -1.0277   -0.9164    0.0623 N   0  0  0  0  0  0  0  0  0  0  0  0
   -1.8237   -0.3604   -0.2157 H   0  0  0  0  0  0  0  0  0  0  0  0
    0.2713   -0.2414    0.0463 C   0  0  1  0  0  0  0  0  0  0  0  0
    0.4096    0.2308   -0.9283 H   0  0  0  0  0  0  0  0  0  0  0  0
    0.2640    0.8571    1.1220 C   0  0  0  0  0  0  0  0  0  0  0  0
   -0.0046    0.4097    2.0816 H   0  0  0  0  0  0  0  0  0  0  0  0
    1.2619    1.2925    1.2045 H   0  0  0  0  0  0  0  0  0  0  0  0
   -0.9450    2.1548    0.7278 S   0  0  0  0  0  0  0  0  0  0  0  0
   -0.8047    2.8601    1.8567 H   0  0  0  0  0  0  0  0  0  0  0  0
    1.4052   -1.2681    0.2445 C   0  0  0  0  0  0  0  0  0  0  0  0
    2.4490   -0.9299    0.8034 O   0  0  0  0  0  0  0  0  0  0  0  0
    1.2037   -2.5136   -0.2012 N   0  0  0  0  0  0  0  0  0  0  0  0
    0.3468   -2.6925   -0.7045 H   0  0  0  0  0  0  0  0  0  0  0  0
    2.1748   -3.5997   -0.0819 C   0  0  0  0  0  0  0  0  0  0  0  0
    2.5321   -3.6646    0.9482 H   0  0  0  0  0  0  0  0  0  0  0  0
    1.7161   -4.5483   -0.3635 H   0  0  0  0  0  0  0  0  0  0  0  0
    3.0269   -3.4028   -0.7346 H   0  0  0  0  0  0  0  0  0  0  0  0
  5  6  2  0  0  0  0
  5  7  1  0  0  0  0
  2  3  1  0  0  0  0
  2  4  1  0  0  0  0
  2  5  1  0  0  0  0
  1  2  1  0  0  0  0
 16 17  2  0  0  0  0
 16 18  1  0  0  0  0
 14 15  1  0  0  0  0
 11 12  1  0  0  0  0
 11 13  1  0  0  0  0
 11 14  1  0  0  0  0
  9 10  1  0  0  0  0
  9 11  1  0  0  0  0
  9 16  1  0  0  0  0
  7  8  1  0  0  0  0
  7  9  1  0  0  0  0
 20 21  1  0  0  0  0
 20 22  1  0  0  0  0
 20 23  1  0  0  0  0
 18 19  1  0  0  0  0
 18 20  1  0  0  0  0
M  END
$$$$
default_name
  -OEChem-01062215323D

 23 22  0     1  0  0  0  0  0999 V2000
   -2.6857   -3.6684    0.8743 H   0  0  0  0  0  0  0  0  0  0  0  0
   -2.6617   -2.6474    0.4953 C   0  0  0  0  0  0  0  0  0  0  0  0
   -3.2657   -2.0054    1.1353 H   0  0  0  0  0  0  0  0  0  0  0  0
   -3.0477   -2.6254   -0.5217 H   0  0  0  0  0  0  0  0  0  0  0  0
   -1.2337   -2.1564    0.4993 C   0  0  0  0  0  0  0  0  0  0  0  0
   -0.3327   -2.8864    0.8893 O   0  0  0  0  0  0  0  0  0  0  0  0
   -1.0277   -0.9164    0.0623 N   0  0  0  0  0  0  0  0  0  0  0  0
   -1.8237   -0.3604   -0.2157 H   0  0  0  0  0  0  0  0  0  0  0  0
    0.2713   -0.2414    0.0463 C   0  0  1  0  0  0  0  0  0  0  0  0
    0.4096    0.2308   -0.9283 H   0  0  0  0  0  0  0  0  0  0  0  0
    0.2640    0.8571    1.1220 C   0  0  0  0  0  0  0  0  0  0  0  0
   -0.0046    0.4097    2.0816 H   0  0  0  0  0  0  0  0  0  0  0  0
    1.2619    1.2925    1.2045 H   0  0  0  0  0  0  0  0  0  0  0  0
   -0.9450    2.1548    0.7278 S   0  0  0  0  0  0  0  0  0  0  0  0
   -0.8047    2.8601    1.8567 H   0  0  0  0  0  0  0  0  0  0  0  0
    1.4052   -1.2681    0.2445 C   0  0  0  0  0  0  0  0  0  0  0  0
    2.3213   -1.0270    1.0312 O   0  0  0  0  0  0  0  0  0  0  0  0
    1.3444   -2.4072   -0.4549 N   0  0  0  0  0  0  0  0  0  0  0  0
    0.5950   -2.4997   -1.1253 H   0  0  0  0  0  0  0  0  0  0  0  0
    2.3343   -3.4797   -0.3728 C   0  0  0  0  0  0  0  0  0  0  0  0
    2.5151   -3.7364    0.6735 H   0  0  0  0  0  0  0  0  0  0  0  0
    1.9778   -4.3635   -0.9031 H   0  0  0  0  0  0  0  0  0  0  0  0
    3.2737   -3.1462   -0.8171 H   0  0  0  0  0  0  0  0  0  0  0  0
  5  6  2  0  0  0  0
  5  7  1  0  0  0  0
  2  3  1  0  0  0  0
  2  4  1  0  0  0  0
  2  5  1  0  0  0  0
  1  2  1  0  0  0  0
 16 17  2  0  0  0  0
 16 18  1  0  0  0  0
 14 15  1  0  0  0  0
 11 12  1  0  0  0  0
 11 13  1  0  0  0  0
 11 14  1  0  0  0  0
  9 10  1  0  0  0  0
  9 11  1  0  0  0  0
  9 16  1  0  0  0  0
  7  8  1  0  0  0  0
  7  9  1  0  0  0  0
 20 21  1  0  0  0  0
 20 22  1  0  0  0  0
 20 23  1  0  0  0  0
 18 19  1  0  0  0  0
 18 20  1  0  0  0  0
M  END
$$$$
default_name
  -OEChem-01062215323D

 23 22  0     1  0  0  0  0  0999 V2000
   -2.6857   -3.6684    0.8743 H   0  0  0  0  0  0  0  0  0  0  0  0
   -2.6617   -2.6474    0.4953 C   0  0  0  0  0  0  0  0  0  0  0  0
   -3.2657   -2.0054    1.1353 H   0  0  0  0  0  0  0  0  0  0  0  0
   -3.0477   -2.6254   -0.5217 H   0  0  0  0  0  0  0  0  0  0  0  0
   -1.2337   -2.1564    0.4993 C   0  0  0  0  0  0  0  0  0  0  0  0
   -0.3327   -2.8864    0.8893 O   0  0  0  0  0  0  0  0  0  0  0  0
   -1.0277   -0.9164    0.0623 N   0  0  0  0  0  0  0  0  0  0  0  0
   -1.8237   -0.3604   -0.2157 H   0  0  0  0  0  0  0  0  0  0  0  0
    0.2713   -0.2414    0.0463 C   0  0  1  0  0  0  0  0  0  0  0  0
    0.4096    0.2308   -0.9283 H   0  0  0  0  0  0  0  0  0  0  0  0
    0.2640    0.8571    1.1220 C   0  0  0  0  0  0  0  0  0  0  0  0
   -0.0046    0.4097    2.0816 H   0  0  0  0  0  0  0  0  0  0  0  0
    1.2619    1.2925    1.2045 H   0  0  0  0  0  0  0  0  0  0  0  0
   -0.9450    2.1548    0.7278 S   0  0  0  0  0  0  0  0  0  0  0  0
   -0.8047    2.8601    1.8567 H   0  0  0  0  0  0  0  0  0  0  0  0
    1.4052   -1.2681    0.2445 C   0  0  0  0  0  0  0  0  0  0  0  0
    2.1619   -1.1683    1.2108 O   0  0  0  0  0  0  0  0  0  0  0  0
    1.5205   -2.2515   -0.6556 N   0  0  0  0  0  0  0  0  0  0  0  0
    0.9007   -2.2252   -1.4523 H   0  0  0  0  0  0  0  0  0  0  0  0
    2.5345   -3.3031   -0.6033 C   0  0  0  0  0  0  0  0  0  0  0  0
    2.5485   -3.7541    0.3915 H   0  0  0  0  0  0  0  0  0  0  0  0
    2.3173   -4.0736   -1.3440 H   0  0  0  0  0  0  0  0  0  0  0  0
    3.5176   -2.8746   -0.8055 H   0  0  0  0  0  0  0  0  0  0  0  0
  5  6  2  0  0  0  0
  5  7  1  0  0  0  0
  2  3  1  0  0  0  0
  2  4  1  0  0  0  0
  2  5  1  0  0  0  0
  1  2  1  0  0  0  0
 16 17  2  0  0  0  0
 16 18  1  0  0  0  0
 14 15  1  0  0  0  0
 11 12  1  0  0  0  0
 11 13  1  0  0  0  0
 11 14  1  0  0  0  0
  9 10  1  0  0  0  0
  9 11  1  0  0  0  0
  9 16  1  0  0  0  0
  7  8  1  0  0  0  0
  7  9  1  0  0  0  0
 20 21  1  0  0  0  0
 20 22  1  0  0  0  0
 20 23  1  0  0  0  0
 18 19  1  0  0  0  0
 18 20  1  0  0  0  0
M  END
$$$$
default_name
  -OEChem-01062215323D

 23 22  0     1  0  0  0  0  0999 V2000
   -2.6857   -3.6684    0.8743 H   0  0  0  0  0  0  0  0  0  0  0  0
   -2.6617   -2.6474    0.4953 C   0  0  0  0  0  0  0  0  0  0  0  0
   -3.2657   -2.0054    1.1353 H   0  0  0  0  0  0  0  0  0  0  0  0
   -3.0477   -2.6254   -0.5217 H   0  0  0  0  0  0  0  0  0  0  0  0
   -1.2337   -2.1564    0.4993 C   0  0  0  0  0  0  0  0  0  0  0  0
   -0.3327   -2.8864    0.8893 O   0  0  0  0  0  0  0  0  0  0  0  0
   -1.0277   -0.9164    0.0623 N   0  0  0  0  0  0  0  0  0  0  0  0
   -1.8237   -0.3604   -0.2157 H   0  0  0  0  0  0  0  0  0  0  0  0
    0.2713   -0.2414    0.0463 C   0  0  1  0  0  0  0  0  0  0  0  0
    0.4096    0.2308   -0.9283 H   0  0  0  0  0  0  0  0  0  0  0  0
    0.2640    0.8571    1.1220 C   0  0  0  0  0  0  0  0  0  0  0  0
   -0.0046    0.4097    2.0816 H   0  0  0  0  0  0  0  0  0  0  0  0
    1.2619    1.2925    1.2045 H   0  0  0  0  0  0  0  0  0  0  0  0
   -0.9450    2.1548    0.7278 S   0  0  0  0  0  0  0  0  0  0  0  0
   -0.8047    2.8601    1.8567 H   0  0  0  0  0  0  0  0  0  0  0  0
    1.4052   -1.2681    0.2445 C   0  0  0  0  0  0  0  0  0  0  0  0
    1.9817   -1.3444    1.3299 O   0  0  0  0  0  0  0  0  0  0  0  0
    1.7199   -2.0571   -0.7894 N   0  0  0  0  0  0  0  0  0  0  0  0
    1.2433   -1.8876   -1.6633 H   0  0  0  0  0  0  0  0  0  0  0  0
    2.7617   -3.0820   -0.7579 C   0  0  0  0  0  0  0  0  0  0  0  0
    2.6298   -3.7163    0.1215 H   0  0  0  0  0  0  0  0  0  0  0  0
    2.7117   -3.6983   -1.6563 H   0  0  0  0  0  0  0  0  0  0  0  0
    3.7423   -2.6062   -0.7005 H   0  0  0  0  0  0  0  0  0  0  0  0
  5  6  2  0  0  0  0
  5  7  1  0  0  0  0
  2  3  1  0  0  0  0
  2  4  1  0  0  0  0
  2  5  1  0  0  0  0
  1  2  1  0  0  0  0
 16 17  2  0  0  0  0
 16 18  1  0  0  0  0
 14 15  1  0  0  0  0
 11 12  1  0  0  0  0
 11 13  1  0  0  0  0
 11 14  1  0  0  0  0
  9 10  1  0  0  0  0
  9 11  1  0  0  0  0
  9 16  1  0  0  0  0
  7  8  1  0  0  0  0
  7  9  1  0  0  0  0
 20 21  1  0  0  0  0
 20 22  1  0  0  0  0
 20 23  1  0  0  0  0
 18 19  1  0  0  0  0
 18 20  1  0  0  0  0
M  END
$$$$
default_name
  -OEChem-01062215323D

 23 22  0     1  0  0  0  0  0999 V2000
   -2.6857   -3.6684    0.8743 H   0  0  0  0  0  0  0  0  0  0  0  0
   -2.6617   -2.6474    0.4953 C   0  0  0  0  0  0  0  0  0  0  0  0
   -3.2657   -2.0054    1.1353 H   0  0  0  0  0  0  0  0  0  0  0  0
   -3.0477   -2.6254   -0.5217 H   0  0  0  0  0  0  0  0  0  0  0  0
   -1.2337   -2.1564    0.4993 C   0  0  0  0  0  0  0  0  0  0  0  0
   -0.3327   -2.8864    0.8893 O   0  0  0  0  0  0  0  0  0  0  0  0
   -1.0277   -0.9164    0.0623 N   0  0  0  0  0  0  0  0  0  0  0  0
   -1.8237   -0.3604   -0.2157 H   0  0  0  0  0  0  0  0  0  0  0  0
    0.2713   -0.2414    0.0463 C   0  0  1  0  0  0  0  0  0  0  0  0
    0.4096    0.2308   -0.9283 H   0  0  0  0  0  0  0  0  0  0  0  0
    0.2640    0.8571    1.1220 C   0  0  0  0  0  0  0  0  0  0  0  0
   -0.0046    0.4097    2.0816 H   0  0  0  0  0  0  0  0  0  0  0  0
    1.2619    1.2925    1.2045 H   0  0  0  0  0  0  0  0  0  0  0  0
   -0.9450    2.1548    0.7278 S   0  0  0  0  0  0  0  0  0  0  0  0
   -0.8047    2.8601    1.8567 H   0  0  0  0  0  0  0  0  0  0  0  0
    1.4052   -1.2681    0.2445 C   0  0  0  0  0  0  0  0  0  0  0  0
    1.7929   -1.5430    1.3805 O   0  0  0  0  0  0  0  0  0  0  0  0
    1.9292   -1.8372   -0.8473 N   0  0  0  0  0  0  0  0  0  0  0  0
    1.5993   -1.5100   -1.7438 H   0  0  0  0  0  0  0  0  0  0  0  0
    3.0005   -2.8314   -0.8261 C   0  0  0  0  0  0  0  0  0  0  0  0
    2.7536   -3.6258   -0.1181 H   0  0  0  0  0  0  0  0  0  0  0  0
    3.1339   -3.2634   -1.8186 H   0  0  0  0  0  0  0  0  0  0  0  0
    3.9322   -2.3596   -0.5093 H   0  0  0  0  0  0  0  0  0  0  0  0
  5  6  2  0  0  0  0
  5  7  1  0  0  0  0
  2  3  1  0  0  0  0
  2  4  1  0  0  0  0
  2  5  1  0  0  0  0
  1  2  1  0  0  0  0
 16 17  2  0  0  0  0
 16 18  1  0  0  0  0
 14 15  1  0  0  0  0
 11 12  1  0  0  0  0
 11 13  1  0  0  0  0
 11 14  1  0  0  0  0
  9 10  1  0  0  0  0
  9 11  1  0  0  0  0
  9 16  1  0  0  0  0
  7  8  1  0  0  0  0
  7  9  1  0  0  0  0
 20 21  1  0  0  0  0
 20 22  1  0  0  0  0
 20 23  1  0  0  0  0
 18 19  1  0  0  0  0
 18 20  1  0  0  0  0
M  END
$$$$
default_name
  -OEChem-01062215323D

 23 22  0     1  0  0  0  0  0999 V2000
   -2.6857   -3.6684    0.8743 H   0  0  0  0  0  0  0  0  0  0  0  0
   -2.6617   -2.6474    0.4953 C   0  0  0  0  0  0  0  0  0  0  0  0
   -3.2657   -2.0054    1.1353 H   0  0  0  0  0  0  0  0  0  0  0  0
   -3.0477   -2.6254   -0.5217 H   0  0  0  0  0  0  0  0  0  0  0  0
   -1.2337   -2.1564    0.4993 C   0  0  0  0  0  0  0  0  0  0  0  0
   -0.3327   -2.8864    0.8893 O   0  0  0  0  0  0  0  0  0  0  0  0
   -1.0277   -0.9164    0.0623 N   0  0  0  0  0  0  0  0  0  0  0  0
   -1.8237   -0.3604   -0.2157 H   0  0  0  0  0  0  0  0  0  0  0  0
    0.2713   -0.2414    0.0463 C   0  0  1  0  0  0  0  0  0  0  0  0
    0.4096    0.2308   -0.9283 H   0  0  0  0  0  0  0  0  0  0  0  0
    0.2640    0.8571    1.1220 C   0  0  0  0  0  0  0  0  0  0  0  0
   -0.0046    0.4097    2.0816 H   0  0  0  0  0  0  0  0  0  0  0  0
    1.2619    1.2925    1.2045 H   0  0  0  0  0  0  0  0  0  0  0  0
   -0.9450    2.1548    0.7278 S   0  0  0  0  0  0  0  0  0  0  0  0
   -0.8047    2.8601    1.8567 H   0  0  0  0  0  0  0  0  0  0  0  0
    1.4052   -1.2681    0.2445 C   0  0  0  0  0  0  0  0  0  0  0  0
    1.6085   -1.7508    1.3589 O   0  0  0  0  0  0  0  0  0  0  0  0
    2.1340   -1.6068   -0.8254 N   0  0  0  0  0  0  0  0  0  0  0  0
    1.9445   -1.1181   -1.6884 H   0  0  0  0  0  0  0  0  0  0  0  0
    3.2346   -2.5685   -0.8031 C   0  0  0  0  0  0  0  0  0  0  0  0
    2.9115   -3.4887   -0.3110 H   0  0  0  0  0  0  0  0  0  0  0  0
    3.5552   -2.7984   -1.8198 H   0  0  0  0  0  0  0  0  0  0  0  0
    4.0746   -2.1513   -0.2450 H   0  0  0  0  0  0  0  0  0  0  0  0
  5  6  2  0  0  0  0
  5  7  1  0  0  0  0
  2  3  1  0  0  0  0
  2  4  1  0  0  0  0
  2  5  1  0  0  0  0
  1  2  1  0  0  0  0
 16 17  2  0  0  0  0
 16 18  1  0  0  0  0
 14 15  1  0  0  0  0
 11 12  1  0  0  0  0
 11 13  1  0  0  0  0
 11 14  1  0  0  0  0
  9 10  1  0  0  0  0
  9 11  1  0  0  0  0
  9 16  1  0  0  0  0
  7  8  1  0  0  0  0
  7  9  1  0  0  0  0
 20 21  1  0  0  0  0
 20 22  1  0  0  0  0
 20 23  1  0  0  0  0
 18 19  1  0  0  0  0
 18 20  1  0  0  0  0
M  END
$$$$
default_name
  -OEChem-01062215323D

 23 22  0     1  0  0  0  0  0999 V2000
   -2.6857   -3.6684    0.8743 H   0  0  0  0  0  0  0  0  0  0  0  0
   -2.6617   -2.6474    0.4953 C   0  0  0  0  0  0  0  0  0  0  0  0
   -3.2657   -2.0054    1.1353 H   0  0  0  0  0  0  0  0  0  0  0  0
   -3.0477   -2.6254   -0.5217 H   0  0  0  0  0  0  0  0  0  0  0  0
   -1.2337   -2.1564    0.4993 C   0  0  0  0  0  0  0  0  0  0  0  0
   -0.3327   -2.8864    0.8893 O   0  0  0  0  0  0  0  0  0  0  0  0
   -1.0277   -0.9164    0.0623 N   0  0  0  0  0  0  0  0  0  0  0  0
   -1.8237   -0.3604   -0.2157 H   0  0  0  0  0  0  0  0  0  0  0  0
    0.2713   -0.2414    0.0463 C   0  0  1  0  0  0  0  0  0  0  0  0
    0.4096    0.2308   -0.9283 H   0  0  0  0  0  0  0  0  0  0  0  0
    0.2640    0.8571    1.1220 C   0  0  0  0  0  0  0  0  0  0  0  0
   -0.0046    0.4097    2.0816 H   0  0  0  0  0  0  0  0  0  0  0  0
    1.2619    1.2925    1.2045 H   0  0  0  0  0  0  0  0  0  0  0  0
   -0.9450    2.1548    0.7278 S   0  0  0  0  0  0  0  0  0  0  0  0
   -0.8047    2.8601    1.8567 H   0  0  0  0  0  0  0  0  0  0  0  0
    1.4052   -1.2681    0.2445 C   0  0  0  0  0  0  0  0  0  0  0  0
    1.4410   -1.9536    1.2668 O   0  0  0  0  0  0  0  0  0  0  0  0
    2.3203   -1.3816   -0.7251 N   0  0  0  0  0  0  0  0  0  0  0  0
    2.2553   -0.7386   -1.5009 H   0  0  0  0  0  0  0  0  0  0  0  0
    3.4480   -2.3111   -0.6905 C   0  0  0  0  0  0  0  0  0  0  0  0
    3.0927   -3.3143   -0.4440 H   0  0  0  0  0  0  0  0  0  0  0  0
    3.9470   -2.3349   -1.6600 H   0  0  0  0  0  0  0  0  0  0  0  0
    4.1596   -1.9958    0.0744 H   0  0  0  0  0  0  0  0  0  0  0  0
  5  6  2  0  0  0  0
  5  7  1  0  0  0  0
  2  3  1  0  0  0  0
  2  4  1  0  0  0  0
  2  5  1  0  0  0  0
  1  2  1  0  0  0  0
 16 17  2  0  0  0  0
 16 18  1  0  0  0  0
 14 15  1  0  0  0  0
 11 12  1  0  0  0  0
 11 13  1  0  0  0  0
 11 14  1  0  0  0  0
  9 10  1  0  0  0  0
  9 11  1  0  0  0  0
  9 16  1  0  0  0  0
  7  8  1  0  0  0  0
  7  9  1  0  0  0  0
 20 21  1  0  0  0  0
 20 22  1  0  0  0  0
 20 23  1  0  0  0  0
 18 19  1  0  0  0  0
 18 20  1  0  0  0  0
M  END
$$$$
default_name
  -OEChem-01062215323D

 23 22  0     1  0  0  0  0  0999 V2000
   -2.6857   -3.6684    0.8743 H   0  0  0  0  0  0  0  0  0  0  0  0
   -2.6617   -2.6474    0.4953 C   0  0  0  0  0  0  0  0  0  0  0  0
   -3.2657   -2.0054    1.1353 H   0  0  0  0  0  0  0  0  0  0  0  0
   -3.0477   -2.6254   -0.5217 H   0  0  0  0  0  0  0  0  0  0  0  0
   -1.2337   -2.1564    0.4993 C   0  0  0  0  0  0  0  0  0  0  0  0
   -0.3327   -2.8864    0.8893 O   0  0  0  0  0  0  0  0  0  0  0  0
   -1.0277   -0.9164    0.0623 N   0  0  0  0  0  0  0  0  0  0  0  0
   -1.8237   -0.3604   -0.2157 H   0  0  0  0  0  0  0  0  0  0  0  0
    0.2713   -0.2414    0.0463 C   0  0  1  0  0  0  0  0  0  0  0  0
    0.4096    0.2308   -0.9283 H   0  0  0  0  0  0  0  0  0  0  0  0
    0.2640    0.8571    1.1220 C   0  0  0  0  0  0  0  0  0  0  0  0
   -0.0046    0.4097    2.0816 H   0  0  0  0  0  0  0  0  0  0  0  0
    1.2619    1.2925    1.2045 H   0  0  0  0  0  0  0  0  0  0  0  0
   -0.9450    2.1548    0.7278 S   0  0  0  0  0  0  0  0  0  0  0  0
   -0.8047    2.8601    1.8567 H   0  0  0  0  0  0  0  0  0  0  0  0
    1.4052   -1.2681    0.2445 C   0  0  0  0  0  0  0  0  0  0  0  0
    1.3018   -2.1375    1.1105 O   0  0  0  0  0  0  0  0  0  0  0  0
    2.4756   -1.1770   -0.5532 N   0  0  0  0  0  0  0  0  0  0  0  0
    2.5107   -0.3974   -1.1940 H   0  0  0  0  0  0  0  0  0  0  0  0
    3.6261   -2.0769   -0.4961 C   0  0  0  0  0  0  0  0  0  0  0  0
    3.2848   -3.1145   -0.5081 H   0  0  0  0  0  0  0  0  0  0  0  0
    4.2824   -1.9046   -1.3499 H   0  0  0  0  0  0  0  0  0  0  0  0
    4.1816   -1.9035    0.4272 H   0  0  0  0  0  0  0  0  0  0  0  0
  5  6  2  0  0  0  0
  5  7  1  0  0  0  0
  2  3  1  0  0  0  0
  2  4  1  0  0  0  0
  2  5  1  0  0  0  0
  1  2  1  0  0  0  0
 16 17  2  0  0  0  0
 16 18  1  0  0  0  0
 14 15  1  0  0  0  0
 11 12  1  0  0  0  0
 11 13  1  0  0  0  0
 11 14  1  0  0  0  0
  9 10  1  0  0  0  0
  9 11  1  0  0  0  0
  9 16  1  0  0  0  0
  7  8  1  0  0  0  0
  7  9  1  0  0  0  0
 20 21  1  0  0  0  0
 20 22  1  0  0  0  0
 20 23  1  0  0  0  0
 18 19  1  0  0  0  0
 18 20  1  0  0  0  0
M  END
$$$$
default_name
  -OEChem-01062215323D

 23 22  0     1  0  0  0  0  0999 V2000
   -2.6857   -3.6684    0.8743 H   0  0  0  0  0  0  0  0  0  0  0  0
   -2.6617   -2.6474    0.4953 C   0  0  0  0  0  0  0  0  0  0  0  0
   -3.2657   -2.0054    1.1353 H   0  0  0  0  0  0  0  0  0  0  0  0
   -3.0477   -2.6254   -0.5217 H   0  0  0  0  0  0  0  0  0  0  0  0
   -1.2337   -2.1564    0.4993 C   0  0  0  0  0  0  0  0  0  0  0  0
   -0.3327   -2.8864    0.8893 O   0  0  0  0  0  0  0  0  0  0  0  0
   -1.0277   -0.9164    0.0623 N   0  0  0  0  0  0  0  0  0  0  0  0
   -1.8237   -0.3604   -0.2157 H   0  0  0  0  0  0  0  0  0  0  0  0
    0.2713   -0.2414    0.0463 C   0  0  1  0  0  0  0  0  0  0  0  0
    0.4096    0.2308   -0.9283 H   0  0  0  0  0  0  0  0  0  0  0  0
    0.2640    0.8571    1.1220 C   0  0  0  0  0  0  0  0  0  0  0  0
   -0.0046    0.4097    2.0816 H   0  0  0  0  0  0  0  0  0  0  0  0
    1.2619    1.2925    1.2045 H   0  0  0  0  0  0  0  0  0  0  0  0
   -0.9450    2.1548    0.7278 S   0  0  0  0  0  0  0  0  0  0  0  0
   -0.8047    2.8601    1.8567 H   0  0  0  0  0  0  0  0  0  0  0  0
    1.4052   -1.2681    0.2445 C   0  0  0  0  0  0  0  0  0  0  0  0
    1.2004   -2.2900    0.9004 O   0  0  0  0  0  0  0  0  0  0  0  0
    2.5891   -1.0069   -0.3215 N   0  0  0  0  0  0  0  0  0  0  0  0
    2.6931   -0.1177   -0.7886 H   0  0  0  0  0  0  0  0  0  0  0  0
    3.7569   -1.8817   -0.2330 C   0  0  0  0  0  0  0  0  0  0  0  0
    3.4748   -2.9029   -0.4989 H   0  0  0  0  0  0  0  0  0  0  0  0
    4.5387   -1.5369   -0.9108 H   0  0  0  0  0  0  0  0  0  0  0  0
    4.1389   -1.8807    0.7893 H   0  0  0  0  0  0  0  0  0  0  0  0
  5  6  2  0  0  0  0
  5  7  1  0  0  0  0
  2  3  1  0  0  0  0
  2  4  1  0  0  0  0
  2  5  1  0  0  0  0
  1  2  1  0  0  0  0
 16 17  2  0  0  0  0
 16 18  1  0  0  0  0
 14 15  1  0  0  0  0
 11 12  1  0  0  0  0
 11 13  1  0  0  0  0
 11 14  1  0  0  0  0
  9 10  1  0  0  0  0
  9 11  1  0  0  0  0
  9 16  1  0  0  0  0
  7  8  1  0  0  0  0
  7  9  1  0  0  0  0
 20 21  1  0  0  0  0
 20 22  1  0  0  0  0
 20 23  1  0  0  0  0
 18 19  1  0  0  0  0
 18 20  1  0  0  0  0
M  END
$$$$
default_name
  -OEChem-01062215323D

 23 22  0     1  0  0  0  0  0999 V2000
   -2.6857   -3.6684    0.8743 H   0  0  0  0  0  0  0  0  0  0  0  0
   -2.6617   -2.6474    0.4953 C   0  0  0  0  0  0  0  0  0  0  0  0
   -3.2657   -2.0054    1.1353 H   0  0  0  0  0  0  0  0  0  0  0  0
   -3.0477   -2.6254   -0.5217 H   0  0  0  0  0  0  0  0  0  0  0  0
   -1.2337   -2.1564    0.4993 C   0  0  0  0  0  0  0  0  0  0  0  0
   -0.3327   -2.8864    0.8893 O   0  0  0  0  0  0  0  0  0  0  0  0
   -1.0277   -0.9164    0.0623 N   0  0  0  0  0  0  0  0  0  0  0  0
   -1.8237   -0.3604   -0.2157 H   0  0  0  0  0  0  0  0  0  0  0  0
    0.2713   -0.2414    0.0463 C   0  0  1  0  0  0  0  0  0  0  0  0
    0.4096    0.2308   -0.9283 H   0  0  0  0  0  0  0  0  0  0  0  0
    0.2640    0.8571    1.1220 C   0  0  0  0  0  0  0  0  0  0  0  0
   -0.0046    0.4097    2.0816 H   0  0  0  0  0  0  0  0  0  0  0  0
    1.2619    1.2925    1.2045 H   0  0  0  0  0  0  0  0  0  0  0  0
   -0.9450    2.1548    0.7278 S   0  0  0  0  0  0  0  0  0  0  0  0
   -0.8047    2.8601    1.8567 H   0  0  0  0  0  0  0  0  0  0  0  0
    1.4052   -1.2681    0.2445 C   0  0  0  0  0  0  0  0  0  0  0  0
    1.1438   -2.4007    0.6511 O   0  0  0  0  0  0  0  0  0  0  0  0
    2.6532   -0.8829   -0.0458 N   0  0  0  0  0  0  0  0  0  0  0  0
    2.7901    0.0814   -0.3125 H   0  0  0  0  0  0  0  0  0  0  0  0
    3.8314   -1.7388    0.0808 C   0  0  0  0  0  0  0  0  0  0  0  0
    3.6497   -2.6940   -0.4170 H   0  0  0  0  0  0  0  0  0  0  0  0
    4.6983   -1.2567   -0.3725 H   0  0  0  0  0  0  0  0  0  0  0  0
    4.0346   -1.9290    1.1361 H   0  0  0  0  0  0  0  0  0  0  0  0
  5  6  2  0  0  0  0
  5  7  1  0  0  0  0
  2  3  1  0  0  0  0
  2  4  1  0  0  0  0
  2  5  1  0  0  0  0
  1  2  1  0  0  0  0
 16 17  2  0  0  0  0
 16 18  1  0  0  0  0
 14 15  1  0  0  0  0
 11 12  1  0  0  0  0
 11 13  1  0  0  0  0
 11 14  1  0  0  0  0
  9 10  1  0  0  0  0
  9 11  1  0  0  0  0
  9 16  1  0  0  0  0
  7  8  1  0  0  0  0
  7  9  1  0  0  0  0
 20 21  1  0  0  0  0
 20 22  1  0  0  0  0
 20 23  1  0  0  0  0
 18 19  1  0  0  0  0
 18 20  1  0  0  0  0
M  END
$$$$
default_name
  -OEChem-01062215323D

 23 22  0     1  0  0  0  0  0999 V2000
   -2.6857   -3.6684    0.8743 H   0  0  0  0  0  0  0  0  0  0  0  0
   -2.6617   -2.6474    0.4953 C   0  0  0  0  0  0  0  0  0  0  0  0
   -3.2657   -2.0054    1.1353 H   0  0  0  0  0  0  0  0  0  0  0  0
   -3.0477   -2.6254   -0.5217 H   0  0  0  0  0  0  0  0  0  0  0  0
   -1.2337   -2.1564    0.4993 C   0  0  0  0  0  0  0  0  0  0  0  0
   -0.3327   -2.8864    0.8893 O   0  0  0  0  0  0  0  0  0  0  0  0
   -1.0277   -0.9164    0.0623 N   0  0  0  0  0  0  0  0  0  0  0  0
   -1.8237   -0.3604   -0.2157 H   0  0  0  0  0  0  0  0  0  0  0  0
    0.2713   -0.2414    0.0463 C   0  0  1  0  0  0  0  0  0  0  0  0
    0.3006    0.4437   -0.8033 H   0  0  0  0  0  0  0  0  0  0  0  0
    0.4105    0.5803    1.3384 C   0  0  0  0  0  0  0  0  0  0  0  0
    0.2505   -0.0786    2.1947 H   0  0  0  0  0  0  0  0  0  0  0  0
    1.4183    0.9962    1.3985 H   0  0  0  0  0  0  0  0  0  0  0  0
   -0.8149    1.9204    1.4001 S   0  0  0  0  0  0  0  0  0  0  0  0
   -0.5294    2.3489    2.6355 H   0  0  0  0  0  0  0  0  0  0  0  0
    1.4033   -1.2735   -0.1336 C   0  0  0  0  0  0  0  0  0  0  0  0
    1.1318   -2.4695   -0.2450 O   0  0  0  0  0  0  0  0  0  0  0  0
    2.6614   -0.8195   -0.1695 N   0  0  0  0  0  0  0  0  0  0  0  0
    2.8027    0.1671   -0.0071 H   0  0  0  0  0  0  0  0  0  0  0  0
    3.8399   -1.6671   -0.3416 C   0  0  0  0  0  0  0  0  0  0  0  0
    3.6967   -2.3298   -1.1980 H   0  0  0  0  0  0  0  0  0  0  0  0
    4.7256   -1.0526   -0.5070 H   0  0  0  0  0  0  0  0  0  0  0  0
    3.9856   -2.2778    0.5511 H   0  0  0  0  0  0  0  0  0  0  0  0
  5  6  2  0  0  0  0
  5  7  1  0  0  0  0
  2  3  1  0  0  0  0
  2  4  1  0  0  0  0
  2  5  1  0  0  0  0
  1  2  1  0  0  0  0
 16 17  2  0  0  0  0
 16 18  1  0  0  0  0
 14 15  1  0  0  0  0
 11 12  1  0  0  0  0
 11 13  1  0  0  0  0
 11 14  1  0  0  0  0
  9 10  1  0  0  0  0
  9 11  1  0  0  0  0
  9 16  1  0  0  0  0
  7  8  1  0  0  0  0
  7  9  1  0  0  0  0
 20 21  1  0  0  0  0
 20 22  1  0  0  0  0
 20 23  1  0  0  0  0
 18 19  1  0  0  0  0
 18 20  1  0  0  0  0
M  END
$$$$
default_name
  -OEChem-01062215323D

 23 22  0     1  0  0  0  0  0999 V2000
   -2.6857   -3.6684    0.8743 H   0  0  0  0  0  0  0  0  0  0  0  0
   -2.6617   -2.6474    0.4953 C   0  0  0  0  0  0  0  0  0  0  0  0
   -3.2657   -2.0054    1.1353 H   0  0  0  0  0  0  0  0  0  0  0  0
   -3.0477   -2.6254   -0.5217 H   0  0  0  0  0  0  0  0  0  0  0  0
   -1.2337   -2.1564    0.4993 C   0  0  0  0  0  0  0  0  0  0  0  0
   -0.3327   -2.8864    0.8893 O   0  0  0  0  0  0  0  0  0  0  0  0
   -1.0277   -0.9164    0.0623 N   0  0  0  0  0  0  0  0  0  0  0  0
   -1.8237   -0.3604   -0.2157 H   0  0  0  0  0  0  0  0  0  0  0  0
    0.2713   -0.2414    0.0463 C   0  0  1  0  0  0  0  0  0  0  0  0
    0.3006    0.4437   -0.8033 H   0  0  0  0  0  0  0  0  0  0  0  0
    0.4105    0.5803    1.3384 C   0  0  0  0  0  0  0  0  0  0  0  0
    0.2505   -0.0786    2.1947 H   0  0  0  0  0  0  0  0  0  0  0  0
    1.4183    0.9962    1.3985 H   0  0  0  0  0  0  0  0  0  0  0  0
   -0.8149    1.9204    1.4001 S   0  0  0  0  0  0  0  0  0  0  0  0
   -0.5294    2.3489    2.6355 H   0  0  0  0  0  0  0  0  0  0  0  0
    1.4033   -1.2735   -0.1336 C   0  0  0  0  0  0  0  0  0  0  0  0
    1.1396   -2.4134   -0.5178 O   0  0  0  0  0  0  0  0  0  0  0  0
    2.6541   -0.8803    0.1334 N   0  0  0  0  0  0  0  0  0  0  0  0
    2.7778    0.0506    0.5044 H   0  0  0  0  0  0  0  0  0  0  0  0
    3.8329   -1.7351    0.0045 C   0  0  0  0  0  0  0  0  0  0  0  0
    3.8339   -2.2182   -0.9752 H   0  0  0  0  0  0  0  0  0  0  0  0
    4.7421   -1.1427    0.1138 H   0  0  0  0  0  0  0  0  0  0  0  0
    3.8109   -2.5083    0.7743 H   0  0  0  0  0  0  0  0  0  0  0  0
  5  6  2  0  0  0  0
  5  7  1  0  0  0  0
  2  3  1  0  0  0  0
  2  4  1  0  0  0  0
  2  5  1  0  0  0  0
  1  2  1  0  0  0  0
 16 17  2  0  0  0  0
 16 18  1  0  0  0  0
 14 15  1  0  0  0  0
 11 12  1  0  0  0  0
 11 13  1  0  0  0  0
 11 14  1  0  0  0  0
  9 10  1  0  0  0  0
  9 11  1  0  0  0  0
  9 16  1  0  0  0  0
  7  8  1  0  0  0  0
  7  9  1  0  0  0  0
 20 21  1  0  0  0  0
 20 22  1  0  0  0  0
 20 23  1  0  0  0  0
 18 19  1  0  0  0  0
 18 20  1  0  0  0  0
M  END
$$$$
default_name
  -OEChem-01062215323D

 23 22  0     1  0  0  0  0  0999 V2000
   -2.6857   -3.6684    0.8743 H   0  0  0  0  0  0  0  0  0  0  0  0
   -2.6617   -2.6474    0.4953 C   0  0  0  0  0  0  0  0  0  0  0  0
   -3.2657   -2.0054    1.1353 H   0  0  0  0  0  0  0  0  0  0  0  0
   -3.0477   -2.6254   -0.5217 H   0  0  0  0  0  0  0  0  0  0  0  0
   -1.2337   -2.1564    0.4993 C   0  0  0  0  0  0  0  0  0  0  0  0
   -0.3327   -2.8864    0.8893 O   0  0  0  0  0  0  0  0  0  0  0  0
   -1.0277   -0.9164    0.0623 N   0  0  0  0  0  0  0  0  0  0  0  0
   -1.8237   -0.3604   -0.2157 H   0  0  0  0  0  0  0  0  0  0  0  0
    0.2713   -0.2414    0.0463 C   0  0  1  0  0  0  0  0  0  0  0  0
    0.3006    0.4437   -0.8033 H   0  0  0  0  0  0  0  0  0  0  0  0
    0.4105    0.5803    1.3384 C   0  0  0  0  0  0  0  0  0  0  0  0
    0.2505   -0.0786    2.1947 H   0  0  0  0  0  0  0  0  0  0  0  0
    1.4183    0.9962    1.3985 H   0  0  0  0  0  0  0  0  0  0  0  0
   -0.8149    1.9204    1.4001 S   0  0  0  0  0  0  0  0  0  0  0  0
   -0.5294    2.3489    2.6355 H   0  0  0  0  0  0  0  0  0  0  0  0
    1.4033   -1.2735   -0.1336 C   0  0  0  0  0  0  0  0  0  0  0  0
    1.1961   -2.3076   -0.7694 O   0  0  0  0  0  0  0  0  0  0  0  0
    2.5927   -0.9964    0.4131 N   0  0  0  0  0  0  0  0  0  0  0  0
    2.6616   -0.1583    0.9720 H   0  0  0  0  0  0  0  0  0  0  0  0
    3.7642   -1.8662    0.3247 C   0  0  0  0  0  0  0  0  0  0  0  0
    3.9312   -2.1568   -0.7150 H   0  0  0  0  0  0  0  0  0  0  0  0
    4.6478   -1.3481    0.6992 H   0  0  0  0  0  0  0  0  0  0  0  0
    3.5966   -2.7681    0.9159 H   0  0  0  0  0  0  0  0  0  0  0  0
  5  6  2  0  0  0  0
  5  7  1  0  0  0  0
  2  3  1  0  0  0  0
  2  4  1  0  0  0  0
  2  5  1  0  0  0  0
  1  2  1  0  0  0  0
 16 17  2  0  0  0  0
 16 18  1  0  0  0  0
 14 15  1  0  0  0  0
 11 12  1  0  0  0  0
 11 13  1  0  0  0  0
 11 14  1  0  0  0  0
  9 10  1  0  0  0  0
  9 11  1  0  0  0  0
  9 16  1  0  0  0  0
  7  8  1  0  0  0  0
  7  9  1  0  0  0  0
 20 21  1  0  0  0  0
 20 22  1  0  0  0  0
 20 23  1  0  0  0  0
 18 19  1  0  0  0  0
 18 20  1  0  0  0  0
M  END
$$$$
default_name
  -OEChem-01062215323D

 23 22  0     1  0  0  0  0  0999 V2000
   -2.6857   -3.6684    0.8743 H   0  0  0  0  0  0  0  0  0  0  0  0
   -2.6617   -2.6474    0.4953 C   0  0  0  0  0  0  0  0  0  0  0  0
   -3.2657   -2.0054    1.1353 H   0  0  0  0  0  0  0  0  0  0  0  0
   -3.0477   -2.6254   -0.5217 H   0  0  0  0  0  0  0  0  0  0  0  0
   -1.2337   -2.1564    0.4993 C   0  0  0  0  0  0  0  0  0  0  0  0
   -0.3327   -2.8864    0.8893 O   0  0  0  0  0  0  0  0  0  0  0  0
   -1.0277   -0.9164    0.0623 N   0  0  0  0  0  0  0  0  0  0  0  0
   -1.8237   -0.3604   -0.2157 H   0  0  0  0  0  0  0  0  0  0  0  0
    0.2713   -0.2414    0.0463 C   0  0  1  0  0  0  0  0  0  0  0  0
    0.3006    0.4437   -0.8033 H   0  0  0  0  0  0  0  0  0  0  0  0
    0.4105    0.5803    1.3384 C   0  0  0  0  0  0  0  0  0  0  0  0
    0.2505   -0.0786    2.1947 H   0  0  0  0  0  0  0  0  0  0  0  0
    1.4183    0.9962    1.3985 H   0  0  0  0  0  0  0  0  0  0  0  0
   -0.8149    1.9204    1.4001 S   0  0  0  0  0  0  0  0  0  0  0  0
   -0.5294    2.3489    2.6355 H   0  0  0  0  0  0  0  0  0  0  0  0
    1.4033   -1.2735   -0.1336 C   0  0  0  0  0  0  0  0  0  0  0  0
    1.2974   -2.1593   -0.9824 O   0  0  0  0  0  0  0  0  0  0  0  0
    2.4815   -1.1598    0.6506 N   0  0  0  0  0  0  0  0  0  0  0  0
    2.4621   -0.4454    1.3639 H   0  0  0  0  0  0  0  0  0  0  0  0
    3.6384   -2.0517    0.5971 C   0  0  0  0  0  0  0  0  0  0  0  0
    3.9820   -2.1499   -0.4352 H   0  0  0  0  0  0  0  0  0  0  0  0
    4.4491   -1.6549    1.2093 H   0  0  0  0  0  0  0  0  0  0  0  0
    3.3572   -3.0394    0.9662 H   0  0  0  0  0  0  0  0  0  0  0  0
  5  6  2  0  0  0  0
  5  7  1  0  0  0  0
  2  3  1  0  0  0  0
  2  4  1  0  0  0  0
  2  5  1  0  0  0  0
  1  2  1  0  0  0  0
 16 17  2  0  0  0  0
 16 18  1  0  0  0  0
 14 15  1  0  0  0  0
 11 12  1  0  0  0  0
 11 13  1  0  0  0  0
 11 14  1  0  0  0  0
  9 10  1  0  0  0  0
  9 11  1  0  0  0  0
  9 16  1  0  0  0  0
  7  8  1  0  0  0  0
  7  9  1  0  0  0  0
 20 21  1  0  0  0  0
 20 22  1  0  0  0  0
 20 23  1  0  0  0  0
 18 19  1  0  0  0  0
 18 20  1  0  0  0  0
M  END
$$$$
default_name
  -OEChem-01062215323D

 23 22  0     1  0  0  0  0  0999 V2000
   -2.6857   -3.6684    0.8743 H   0  0  0  0  0  0  0  0  0  0  0  0
   -2.6617   -2.6474    0.4953 C   0  0  0  0  0  0  0  0  0  0  0  0
   -3.2657   -2.0054    1.1353 H   0  0  0  0  0  0  0  0  0  0  0  0
   -3.0477   -2.6254   -0.5217 H   0  0  0  0  0  0  0  0  0  0  0  0
   -1.2337   -2.1564    0.4993 C   0  0  0  0  0  0  0  0  0  0  0  0
   -0.3327   -2.8864    0.8893 O   0  0  0  0  0  0  0  0  0  0  0  0
   -1.0277   -0.9164    0.0623 N   0  0  0  0  0  0  0  0  0  0  0  0
   -1.8237   -0.3604   -0.2157 H   0  0  0  0  0  0  0  0  0  0  0  0
    0.2713   -0.2414    0.0463 C   0  0  1  0  0  0  0  0  0  0  0  0
    0.3006    0.4437   -0.8033 H   0  0  0  0  0  0  0  0  0  0  0  0
    0.4105    0.5803    1.3384 C   0  0  0  0  0  0  0  0  0  0  0  0
    0.2505   -0.0786    2.1947 H   0  0  0  0  0  0  0  0  0  0  0  0
    1.4183    0.9962    1.3985 H   0  0  0  0  0  0  0  0  0  0  0  0
   -0.8149    1.9204    1.4001 S   0  0  0  0  0  0  0  0  0  0  0  0
   -0.5294    2.3489    2.6355 H   0  0  0  0  0  0  0  0  0  0  0  0
    1.4033   -1.2735   -0.1336 C   0  0  0  0  0  0  0  0  0  0  0  0
    1.4366   -1.9787   -1.1426 O   0  0  0  0  0  0  0  0  0  0  0  0
    2.3279   -1.3594    0.8298 N   0  0  0  0  0  0  0  0  0  0  0  0
    2.1929   -0.7911    1.6534 H   0  0  0  0  0  0  0  0  0  0  0  0
    3.4641   -2.2788    0.8032 C   0  0  0  0  0  0  0  0  0  0  0  0
    3.9828   -2.1979   -0.1547 H   0  0  0  0  0  0  0  0  0  0  0  0
    4.1596   -2.0422    1.6093 H   0  0  0  0  0  0  0  0  0  0  0  0
    3.1090   -3.3039    0.9218 H   0  0  0  0  0  0  0  0  0  0  0  0
  5  6  2  0  0  0  0
  5  7  1  0  0  0  0
  2  3  1  0  0  0  0
  2  4  1  0  0  0  0
  2  5  1  0  0  0  0
  1  2  1  0  0  0  0
 16 17  2  0  0  0  0
 16 18  1  0  0  0  0
 14 15  1  0  0  0  0
 11 12  1  0  0  0  0
 11 13  1  0  0  0  0
 11 14  1  0  0  0  0
  9 10  1  0  0  0  0
  9 11  1  0  0  0  0
  9 16  1  0  0  0  0
  7  8  1  0  0  0  0
  7  9  1  0  0  0  0
 20 21  1  0  0  0  0
 20 22  1  0  0  0  0
 20 23  1  0  0  0  0
 18 19  1  0  0  0  0
 18 20  1  0  0  0  0
M  END
$$$$
default_name
  -OEChem-01062215323D

 23 22  0     1  0  0  0  0  0999 V2000
   -2.6857   -3.6684    0.8743 H   0  0  0  0  0  0  0  0  0  0  0  0
   -2.6617   -2.6474    0.4953 C   0  0  0  0  0  0  0  0  0  0  0  0
   -3.2657   -2.0054    1.1353 H   0  0  0  0  0  0  0  0  0  0  0  0
   -3.0477   -2.6254   -0.5217 H   0  0  0  0  0  0  0  0  0  0  0  0
   -1.2337   -2.1564    0.4993 C   0  0  0  0  0  0  0  0  0  0  0  0
   -0.3327   -2.8864    0.8893 O   0  0  0  0  0  0  0  0  0  0  0  0
   -1.0277   -0.9164    0.0623 N   0  0  0  0  0  0  0  0  0  0  0  0
   -1.8237   -0.3604   -0.2157 H   0  0  0  0  0  0  0  0  0  0  0  0
    0.2713   -0.2414    0.0463 C   0  0  1  0  0  0  0  0  0  0  0  0
    0.3006    0.4437   -0.8033 H   0  0  0  0  0  0  0  0  0  0  0  0
    0.4105    0.5803    1.3384 C   0  0  0  0  0  0  0  0  0  0  0  0
    0.2505   -0.0786    2.1947 H   0  0  0  0  0  0  0  0  0  0  0  0
    1.4183    0.9962    1.3985 H   0  0  0  0  0  0  0  0  0  0  0  0
   -0.8149    1.9204    1.4001 S   0  0  0  0  0  0  0  0  0  0  0  0
   -0.5294    2.3489    2.6355 H   0  0  0  0  0  0  0  0  0  0  0  0
    1.4033   -1.2735   -0.1336 C   0  0  0  0  0  0  0  0  0  0  0  0
    1.6043   -1.7780   -1.2388 O   0  0  0  0  0  0  0  0  0  0  0  0
    2.1426   -1.5816    0.9383 N   0  0  0  0  0  0  0  0  0  0  0  0
    1.8723   -1.1719    1.8207 H   0  0  0  0  0  0  0  0  0  0  0  0
    3.2532   -2.5320    0.9291 C   0  0  0  0  0  0  0  0  0  0  0  0
    3.9335   -2.2976    0.1071 H   0  0  0  0  0  0  0  0  0  0  0  0
    3.7990   -2.4834    1.8720 H   0  0  0  0  0  0  0  0  0  0  0  0
    2.8690   -3.5433    0.7857 H   0  0  0  0  0  0  0  0  0  0  0  0
  5  6  2  0  0  0  0
  5  7  1  0  0  0  0
  2  3  1  0  0  0  0
  2  4  1  0  0  0  0
  2  5  1  0  0  0  0
  1  2  1  0  0  0  0
 16 17  2  0  0  0  0
 16 18  1  0  0  0  0
 14 15  1  0  0  0  0
 11 12  1  0  0  0  0
 11 13  1  0  0  0  0
 11 14  1  0  0  0  0
  9 10  1  0  0  0  0
  9 11  1  0  0  0  0
  9 16  1  0  0  0  0
  7  8  1  0  0  0  0
  7  9  1  0  0  0  0
 20 21  1  0  0  0  0
 20 22  1  0  0  0  0
 20 23  1  0  0  0  0
 18 19  1  0  0  0  0
 18 20  1  0  0  0  0
M  END
$$$$
default_name
  -OEChem-01062215323D

 23 22  0     1  0  0  0  0  0999 V2000
   -2.6857   -3.6684    0.8743 H   0  0  0  0  0  0  0  0  0  0  0  0
   -2.6617   -2.6474    0.4953 C   0  0  0  0  0  0  0  0  0  0  0  0
   -3.2657   -2.0054    1.1353 H   0  0  0  0  0  0  0  0  0  0  0  0
   -3.0477   -2.6254   -0.5217 H   0  0  0  0  0  0  0  0  0  0  0  0
   -1.2337   -2.1564    0.4993 C   0  0  0  0  0  0  0  0  0  0  0  0
   -0.3327   -2.8864    0.8893 O   0  0  0  0  0  0  0  0  0  0  0  0
   -1.0277   -0.9164    0.0623 N   0  0  0  0  0  0  0  0  0  0  0  0
   -1.8237   -0.3604   -0.2157 H   0  0  0  0  0  0  0  0  0  0  0  0
    0.2713   -0.2414    0.0463 C   0  0  1  0  0  0  0  0  0  0  0  0
    0.3006    0.4437   -0.8033 H   0  0  0  0  0  0  0  0  0  0  0  0
    0.4105    0.5803    1.3384 C   0  0  0  0  0  0  0  0  0  0  0  0
    0.2505   -0.0786    2.1947 H   0  0  0  0  0  0  0  0  0  0  0  0
    1.4183    0.9962    1.3985 H   0  0  0  0  0  0  0  0  0  0  0  0
   -0.8149    1.9204    1.4001 S   0  0  0  0  0  0  0  0  0  0  0  0
   -0.5294    2.3489    2.6355 H   0  0  0  0  0  0  0  0  0  0  0  0
    1.4033   -1.2735   -0.1336 C   0  0  0  0  0  0  0  0  0  0  0  0
    1.7890   -1.5710   -1.2646 O   0  0  0  0  0  0  0  0  0  0  0  0
    1.9381   -1.8112    0.9688 N   0  0  0  0  0  0  0  0  0  0  0  0
    1.5221   -1.5619    1.8545 H   0  0  0  0  0  0  0  0  0  0  0  0
    3.0201   -2.7941    0.9659 C   0  0  0  0  0  0  0  0  0  0  0  0
    3.8375   -2.4421    0.3326 H   0  0  0  0  0  0  0  0  0  0  0  0
    3.3919   -2.9487    1.9795 H   0  0  0  0  0  0  0  0  0  0  0  0
    2.6535   -3.7416    0.5672 H   0  0  0  0  0  0  0  0  0  0  0  0
  5  6  2  0  0  0  0
  5  7  1  0  0  0  0
  2  3  1  0  0  0  0
  2  4  1  0  0  0  0
  2  5  1  0  0  0  0
  1  2  1  0  0  0  0
 16 17  2  0  0  0  0
 16 18  1  0  0  0  0
 14 15  1  0  0  0  0
 11 12  1  0  0  0  0
 11 13  1  0  0  0  0
 11 14  1  0  0  0  0
  9 10  1  0  0  0  0
  9 11  1  0  0  0  0
  9 16  1  0  0  0  0
  7  8  1  0  0  0  0
  7  9  1  0  0  0  0
 20 21  1  0  0  0  0
 20 22  1  0  0  0  0
 20 23  1  0  0  0  0
 18 19  1  0  0  0  0
 18 20  1  0  0  0  0
M  END
$$$$
default_name
  -OEChem-01062215323D

 23 22  0     1  0  0  0  0  0999 V2000
   -2.6857   -3.6684    0.8743 H   0  0  0  0  0  0  0  0  0  0  0  0
   -2.6617   -2.6474    0.4953 C   0  0  0  0  0  0  0  0  0  0  0  0
   -3.2657   -2.0054    1.1353 H   0  0  0  0  0  0  0  0  0  0  0  0
   -3.0477   -2.6254   -0.5217 H   0  0  0  0  0  0  0  0  0  0  0  0
   -1.2337   -2.1564    0.4993 C   0  0  0  0  0  0  0  0  0  0  0  0
   -0.3327   -2.8864    0.8893 O   0  0  0  0  0  0  0  0  0  0  0  0
   -1.0277   -0.9164    0.0623 N   0  0  0  0  0  0  0  0  0  0  0  0
   -1.8237   -0.3604   -0.2157 H   0  0  0  0  0  0  0  0  0  0  0  0
    0.2713   -0.2414    0.0463 C   0  0  1  0  0  0  0  0  0  0  0  0
    0.3006    0.4437   -0.8033 H   0  0  0  0  0  0  0  0  0  0  0  0
    0.4105    0.5803    1.3384 C   0  0  0  0  0  0  0  0  0  0  0  0
    0.2505   -0.0786    2.1947 H   0  0  0  0  0  0  0  0  0  0  0  0
    1.4183    0.9962    1.3985 H   0  0  0  0  0  0  0  0  0  0  0  0
   -0.8149    1.9204    1.4001 S   0  0  0  0  0  0  0  0  0  0  0  0
   -0.5294    2.3489    2.6355 H   0  0  0  0  0  0  0  0  0  0  0  0
    1.4033   -1.2735   -0.1336 C   0  0  0  0  0  0  0  0  0  0  0  0
    1.9781   -1.3716   -1.2182 O   0  0  0  0  0  0  0  0  0  0  0  0
    1.7283   -2.0327    0.9192 N   0  0  0  0  0  0  0  0  0  0  0  0
    1.1662   -1.9343    1.7523 H   0  0  0  0  0  0  0  0  0  0  0  0
    2.7806   -3.0473    0.9114 C   0  0  0  0  0  0  0  0  0  0  0  0
    3.7015   -2.6217    0.5064 H   0  0  0  0  0  0  0  0  0  0  0  0
    2.9659   -3.4063    1.9244 H   0  0  0  0  0  0  0  0  0  0  0  0
    2.4773   -3.8851    0.2812 H   0  0  0  0  0  0  0  0  0  0  0  0
  5  6  2  0  0  0  0
  5  7  1  0  0  0  0
  2  3  1  0  0  0  0
  2  4  1  0  0  0  0
  2  5  1  0  0  0  0
  1  2  1  0  0  0  0
 16 17  2  0  0  0  0
 16 18  1  0  0  0  0
 14 15  1  0  0  0  0
 11 12  1  0  0  0  0
 11 13  1  0  0  0  0
 11 14  1  0  0  0  0
  9 10  1  0  0  0  0
  9 11  1  0  0  0  0
  9 16  1  0  0  0  0
  7  8  1  0  0  0  0
  7  9  1  0  0  0  0
 20 21  1  0  0  0  0
 20 22  1  0  0  0  0
 20 23  1  0  0  0  0
 18 19  1  0  0  0  0
 18 20  1  0  0  0  0
M  END
$$$$
default_name
  -OEChem-01062215323D

 23 22  0     1  0  0  0  0  0999 V2000
   -2.6857   -3.6684    0.8743 H   0  0  0  0  0  0  0  0  0  0  0  0
   -2.6617   -2.6474    0.4953 C   0  0  0  0  0  0  0  0  0  0  0  0
   -3.2657   -2.0054    1.1353 H   0  0  0  0  0  0  0  0  0  0  0  0
   -3.0477   -2.6254   -0.5217 H   0  0  0  0  0  0  0  0  0  0  0  0
   -1.2337   -2.1564    0.4993 C   0  0  0  0  0  0  0  0  0  0  0  0
   -0.3327   -2.8864    0.8893 O   0  0  0  0  0  0  0  0  0  0  0  0
   -1.0277   -0.9164    0.0623 N   0  0  0  0  0  0  0  0  0  0  0  0
   -1.8237   -0.3604   -0.2157 H   0  0  0  0  0  0  0  0  0  0  0  0
    0.2713   -0.2414    0.0463 C   0  0  1  0  0  0  0  0  0  0  0  0
    0.3006    0.4437   -0.8033 H   0  0  0  0  0  0  0  0  0  0  0  0
    0.4105    0.5803    1.3384 C   0  0  0  0  0  0  0  0  0  0  0  0
    0.2505   -0.0786    2.1947 H   0  0  0  0  0  0  0  0  0  0  0  0
    1.4183    0.9962    1.3985 H   0  0  0  0  0  0  0  0  0  0  0  0
   -0.8149    1.9204    1.4001 S   0  0  0  0  0  0  0  0  0  0  0  0
   -0.5294    2.3489    2.6355 H   0  0  0  0  0  0  0  0  0  0  0  0
    1.4033   -1.2735   -0.1336 C   0  0  0  0  0  0  0  0  0  0  0  0
    2.1588   -1.1936   -1.1028 O   0  0  0  0  0  0  0  0  0  0  0  0
    1.5276   -2.2308    0.7930 N   0  0  0  0  0  0  0  0  0  0  0  0
    0.8289   -2.2640    1.5213 H   0  0  0  0  0  0  0  0  0  0  0  0
    2.5510   -3.2743    0.7692 C   0  0  0  0  0  0  0  0  0  0  0  0
    3.5345   -2.8240    0.6165 H   0  0  0  0  0  0  0  0  0  0  0  0
    2.5502   -3.8249    1.7106 H   0  0  0  0  0  0  0  0  0  0  0  0
    2.3522   -3.9640   -0.0529 H   0  0  0  0  0  0  0  0  0  0  0  0
  5  6  2  0  0  0  0
  5  7  1  0  0  0  0
  2  3  1  0  0  0  0
  2  4  1  0  0  0  0
  2  5  1  0  0  0  0
  1  2  1  0  0  0  0
 16 17  2  0  0  0  0
 16 18  1  0  0  0  0
 14 15  1  0  0  0  0
 11 12  1  0  0  0  0
 11 13  1  0  0  0  0
 11 14  1  0  0  0  0
  9 10  1  0  0  0  0
  9 11  1  0  0  0  0
  9 16  1  0  0  0  0
  7  8  1  0  0  0  0
  7  9  1  0  0  0  0
 20 21  1  0  0  0  0
 20 22  1  0  0  0  0
 20 23  1  0  0  0  0
 18 19  1  0  0  0  0
 18 20  1  0  0  0  0
M  END
$$$$
default_name
  -OEChem-01062215323D

 23 22  0     1  0  0  0  0  0999 V2000
   -2.6857   -3.6684    0.8743 H   0  0  0  0  0  0  0  0  0  0  0  0
   -2.6617   -2.6474    0.4953 C   0  0  0  0  0  0  0  0  0  0  0  0
   -3.2657   -2.0054    1.1353 H   0  0  0  0  0  0  0  0  0  0  0  0
   -3.0477   -2.6254   -0.5217 H   0  0  0  0  0  0  0  0  0  0  0  0
   -1.2337   -2.1564    0.4993 C   0  0  0  0  0  0  0  0  0  0  0  0
   -0.3327   -2.8864    0.8893 O   0  0  0  0  0  0  0  0  0  0  0  0
   -1.0277   -0.9164    0.0623 N   0  0  0  0  0  0  0  0  0  0  0  0
   -1.8237   -0.3604   -0.2157 H   0  0  0  0  0  0  0  0  0  0  0  0
    0.2713   -0.2414    0.0463 C   0  0  1  0  0  0  0  0  0  0  0  0
    0.3006    0.4437   -0.8033 H   0  0  0  0  0  0  0  0  0  0  0  0
    0.4105    0.5803    1.3384 C   0  0  0  0  0  0  0  0  0  0  0  0
    0.2505   -0.0786    2.1947 H   0  0  0  0  0  0  0  0  0  0  0  0
    1.4183    0.9962    1.3985 H   0  0  0  0  0  0  0  0  0  0  0  0
   -0.8149    1.9204    1.4001 S   0  0  0  0  0  0  0  0  0  0  0  0
   -0.5294    2.3489    2.6355 H   0  0  0  0  0  0  0  0  0  0  0  0
    1.4033   -1.2735   -0.1336 C   0  0  0  0  0  0  0  0  0  0  0  0
    2.3187   -1.0491   -0.9261 O   0  0  0  0  0  0  0  0  0  0  0  0
    1.3496   -2.3922    0.5986 N   0  0  0  0  0  0  0  0  0  0  0  0
    0.5332   -2.5283    1.1771 H   0  0  0  0  0  0  0  0  0  0  0  0
    2.3471   -3.4595    0.5489 C   0  0  0  0  0  0  0  0  0  0  0  0
    3.3480   -3.0353    0.6556 H   0  0  0  0  0  0  0  0  0  0  0  0
    2.1731   -4.1761    1.3525 H   0  0  0  0  0  0  0  0  0  0  0  0
    2.2869   -3.9730   -0.4122 H   0  0  0  0  0  0  0  0  0  0  0  0
  5  6  2  0  0  0  0
  5  7  1  0  0  0  0
  2  3  1  0  0  0  0
  2  4  1  0  0  0  0
  2  5  1  0  0  0  0
  1  2  1  0  0  0  0
 16 17  2  0  0  0  0
 16 18  1  0  0  0  0
 14 15  1  0  0  0  0
 11 12  1  0  0  0  0
 11 13  1  0  0  0  0
 11 14  1  0  0  0  0
  9 10  1  0  0  0  0
  9 11  1  0  0  0  0
  9 16  1  0  0  0  0
  7  8  1  0  0  0  0
  7  9  1  0  0  0  0
 20 21  1  0  0  0  0
 20 22  1  0  0  0  0
 20 23  1  0  0  0  0
 18 19  1  0  0  0  0
 18 20  1  0  0  0  0
M  END
$$$$
default_name
  -OEChem-01062215323D

 23 22  0     1  0  0  0  0  0999 V2000
   -2.6857   -3.6684    0.8743 H   0  0  0  0  0  0  0  0  0  0  0  0
   -2.6617   -2.6474    0.4953 C   0  0  0  0  0  0  0  0  0  0  0  0
   -3.2657   -2.0054    1.1353 H   0  0  0  0  0  0  0  0  0  0  0  0
   -3.0477   -2.6254   -0.5217 H   0  0  0  0  0  0  0  0  0  0  0  0
   -1.2337   -2.1564    0.4993 C   0  0  0  0  0  0  0  0  0  0  0  0
   -0.3327   -2.8864    0.8893 O   0  0  0  0  0  0  0  0  0  0  0  0
   -1.0277   -0.9164    0.0623 N   0  0  0  0  0  0  0  0  0  0  0  0
   -1.8237   -0.3604   -0.2157 H   0  0  0  0  0  0  0  0  0  0  0  0
    0.2713   -0.2414    0.0463 C   0  0  1  0  0  0  0  0  0  0  0  0
    0.3006    0.4437   -0.8033 H   0  0  0  0  0  0  0  0  0  0  0  0
    0.4105    0.5803    1.3384 C   0  0  0  0  0  0  0  0  0  0  0  0
    0.2505   -0.0786    2.1947 H   0  0  0  0  0  0  0  0  0  0  0  0
    1.4183    0.9962    1.3985 H   0  0  0  0  0  0  0  0  0  0  0  0
   -0.8149    1.9204    1.4001 S   0  0  0  0  0  0  0  0  0  0  0  0
   -0.5294    2.3489    2.6355 H   0  0  0  0  0  0  0  0  0  0  0  0
    1.4033   -1.2735   -0.1336 C   0  0  0  0  0  0  0  0  0  0  0  0
    2.4469   -0.9478   -0.7004 O   0  0  0  0  0  0  0  0  0  0  0  0
    1.2064   -2.5057    0.3494 N   0  0  0  0  0  0  0  0  0  0  0  0
    0.2992   -2.7094    0.7432 H   0  0  0  0  0  0  0  0  0  0  0  0
    2.1827   -3.5905    0.2656 C   0  0  0  0  0  0  0  0  0  0  0  0
    3.1548   -3.2412    0.6209 H   0  0  0  0  0  0  0  0  0  0  0  0
    1.8603   -4.4359    0.8745 H   0  0  0  0  0  0  0  0  0  0  0  0
    2.2858   -3.9115   -0.7723 H   0  0  0  0  0  0  0  0  0  0  0  0
  5  6  2  0  0  0  0
  5  7  1  0  0  0  0
  2  3  1  0  0  0  0
  2  4  1  0  0  0  0
  2  5  1  0  0  0  0
  1  2  1  0  0  0  0
 16 17  2  0  0  0  0
 16 18  1  0  0  0  0
 14 15  1  0  0  0  0
 11 12  1  0  0  0  0
 11 13  1  0  0  0  0
 11 14  1  0  0  0  0
  9 10  1  0  0  0  0
  9 11  1  0  0  0  0
  9 16  1  0  0  0  0
  7  8  1  0  0  0  0
  7  9  1  0  0  0  0
 20 21  1  0  0  0  0
 20 22  1  0  0  0  0
 20 23  1  0  0  0  0
 18 19  1  0  0  0  0
 18 20  1  0  0  0  0
M  END
$$$$
default_name
  -OEChem-01062215323D

 23 22  0     1  0  0  0  0  0999 V2000
   -2.6857   -3.6684    0.8743 H   0  0  0  0  0  0  0  0  0  0  0  0
   -2.6617   -2.6474    0.4953 C   0  0  0  0  0  0  0  0  0  0  0  0
   -3.2657   -2.0054    1.1353 H   0  0  0  0  0  0  0  0  0  0  0  0
   -3.0477   -2.6254   -0.5217 H   0  0  0  0  0  0  0  0  0  0  0  0
   -1.2337   -2.1564    0.4993 C   0  0  0  0  0  0  0  0  0  0  0  0
   -0.3327   -2.8864    0.8893 O   0  0  0  0  0  0  0  0  0  0  0  0
   -1.0277   -0.9164    0.0623 N   0  0  0  0  0  0  0  0  0  0  0  0
   -1.8237   -0.3604   -0.2157 H   0  0  0  0  0  0  0  0  0  0  0  0
    0.2713   -0.2414    0.0463 C   0  0  1  0  0  0  0  0  0  0  0  0
    0.3006    0.4437   -0.8033 H   0  0  0  0  0  0  0  0  0  0  0  0
    0.4105    0.5803    1.3384 C   0  0  0  0  0  0  0  0  0  0  0  0
    0.2505   -0.0786    2.1947 H   0  0  0  0  0  0  0  0  0  0  0  0
    1.4183    0.9962    1.3985 H   0  0  0  0  0  0  0  0  0  0  0  0
   -0.8149    1.9204    1.4001 S   0  0  0  0  0  0  0  0  0  0  0  0
   -0.5294    2.3489    2.6355 H   0  0  0  0  0  0  0  0  0  0  0  0
    1.4033   -1.2735   -0.1336 C   0  0  0  0  0  0  0  0  0  0  0  0
    2.5347   -0.8967   -0.4409 O   0  0  0  0  0  0  0  0  0  0  0  0
    1.1079   -2.5638    0.0623 N   0  0  0  0  0  0  0  0  0  0  0  0
    0.1428   -2.7948    0.2492 H   0  0  0  0  0  0  0  0  0  0  0  0
    2.0690   -3.6582   -0.0614 C   0  0  0  0  0  0  0  0  0  0  0  0
    2.9679   -3.4276    0.5147 H   0  0  0  0  0  0  0  0  0  0  0  0
    1.6330   -4.5866    0.3094 H   0  0  0  0  0  0  0  0  0  0  0  0
    2.3489   -3.7836   -1.1087 H   0  0  0  0  0  0  0  0  0  0  0  0
  5  6  2  0  0  0  0
  5  7  1  0  0  0  0
  2  3  1  0  0  0  0
  2  4  1  0  0  0  0
  2  5  1  0  0  0  0
  1  2  1  0  0  0  0
 16 17  2  0  0  0  0
 16 18  1  0  0  0  0
 14 15  1  0  0  0  0
 11 12  1  0  0  0  0
 11 13  1  0  0  0  0
 11 14  1  0  0  0  0
  9 10  1  0  0  0  0
  9 11  1  0  0  0  0
  9 16  1  0  0  0  0
  7  8  1  0  0  0  0
  7  9  1  0  0  0  0
 20 21  1  0  0  0  0
 20 22  1  0  0  0  0
 20 23  1  0  0  0  0
 18 19  1  0  0  0  0
 18 20  1  0  0  0  0
M  END
$$$$
default_name
  -OEChem-01062215323D

 23 22  0     1  0  0  0  0  0999 V2000
   -2.6857   -3.6684    0.8743 H   0  0  0  0  0  0  0  0  0  0  0  0
   -2.6617   -2.6474    0.4953 C   0  0  0  0  0  0  0  0  0  0  0  0
   -3.2657   -2.0054    1.1353 H   0  0  0  0  0  0  0  0  0  0  0  0
   -3.0477   -2.6254   -0.5217 H   0  0  0  0  0  0  0  0  0  0  0  0
   -1.2337   -2.1564    0.4993 C   0  0  0  0  0  0  0  0  0  0  0  0
   -0.3327   -2.8864    0.8893 O   0  0  0  0  0  0  0  0  0  0  0  0
   -1.0277   -0.9164    0.0623 N   0  0  0  0  0  0  0  0  0  0  0  0
   -1.8237   -0.3604   -0.2157 H   0  0  0  0  0  0  0  0  0  0  0  0
    0.2713   -0.2414    0.0463 C   0  0  1  0  0  0  0  0  0  0  0  0
    0.3006    0.4437   -0.8033 H   0  0  0  0  0  0  0  0  0  0  0  0
    0.4105    0.5803    1.3384 C   0  0  0  0  0  0  0  0  0  0  0  0
    0.2505   -0.0786    2.1947 H   0  0  0  0  0  0  0  0  0  0  0  0
    1.4183    0.9962    1.3985 H   0  0  0  0  0  0  0  0  0  0  0  0
   -0.8149    1.9204    1.4001 S   0  0  0  0  0  0  0  0  0  0  0  0
   -0.5294    2.3489    2.6355 H   0  0  0  0  0  0  0  0  0  0  0  0
    1.4033   -1.2735   -0.1336 C   0  0  0  0  0  0  0  0  0  0  0  0
    2.5761   -0.8993   -0.1654 O   0  0  0  0  0  0  0  0  0  0  0  0
    1.0607   -2.5623   -0.2431 N   0  0  0  0  0  0  0  0  0  0  0  0
    0.0748   -2.7787   -0.2713 H   0  0  0  0  0  0  0  0  0  0  0  0
    2.0137   -3.6581   -0.4098 C   0  0  0  0  0  0  0  0  0  0  0  0
    2.8002   -3.5819    0.3445 H   0  0  0  0  0  0  0  0  0  0  0  0
    1.5068   -4.6180   -0.3045 H   0  0  0  0  0  0  0  0  0  0  0  0
    2.4720   -3.5981   -1.3984 H   0  0  0  0  0  0  0  0  0  0  0  0
  5  6  2  0  0  0  0
  5  7  1  0  0  0  0
  2  3  1  0  0  0  0
  2  4  1  0  0  0  0
  2  5  1  0  0  0  0
  1  2  1  0  0  0  0
 16 17  2  0  0  0  0
 16 18  1  0  0  0  0
 14 15  1  0  0  0  0
 11 12  1  0  0  0  0
 11 13  1  0  0  0  0
 11 14  1  0  0  0  0
  9 10  1  0  0  0  0
  9 11  1  0  0  0  0
  9 16  1  0  0  0  0
  7  8  1  0  0  0  0
  7  9  1  0  0  0  0
 20 21  1  0  0  0  0
 20 22  1  0  0  0  0
 20 23  1  0  0  0  0
 18 19  1  0  0  0  0
 18 20  1  0  0  0  0
M  END
$$$$
default_name
  -OEChem-01062215323D

 23 22  0     1  0  0  0  0  0999 V2000
   -2.6857   -3.6684    0.8743 H   0  0  0  0  0  0  0  0  0  0  0  0
   -2.6617   -2.6474    0.4953 C   0  0  0  0  0  0  0  0  0  0  0  0
   -3.2657   -2.0054    1.1353 H   0  0  0  0  0  0  0  0  0  0  0  0
   -3.0477   -2.6254   -0.5217 H   0  0  0  0  0  0  0  0  0  0  0  0
   -1.2337   -2.1564    0.4993 C   0  0  0  0  0  0  0  0  0  0  0  0
   -0.3327   -2.8864    0.8893 O   0  0  0  0  0  0  0  0  0  0  0  0
   -1.0277   -0.9164    0.0623 N   0  0  0  0  0  0  0  0  0  0  0  0
   -1.8237   -0.3604   -0.2157 H   0  0  0  0  0  0  0  0  0  0  0  0
    0.2713   -0.2414    0.0463 C   0  0  1  0  0  0  0  0  0  0  0  0
    0.3006    0.4437   -0.8033 H   0  0  0  0  0  0  0  0  0  0  0  0
    0.4105    0.5803    1.3384 C   0  0  0  0  0  0  0  0  0  0  0  0
    0.2505   -0.0786    2.1947 H   0  0  0  0  0  0  0  0  0  0  0  0
    1.4183    0.9962    1.3985 H   0  0  0  0  0  0  0  0  0  0  0  0
   -0.8149    1.9204    1.4001 S   0  0  0  0  0  0  0  0  0  0  0  0
   -0.5294    2.3489    2.6355 H   0  0  0  0  0  0  0  0  0  0  0  0
    1.4033   -1.2735   -0.1336 C   0  0  0  0  0  0  0  0  0  0  0  0
    2.5683   -0.9554    0.1075 O   0  0  0  0  0  0  0  0  0  0  0  0
    1.0680   -2.5015   -0.5460 N   0  0  0  0  0  0  0  0  0  0  0  0
    0.0997   -2.6622   -0.7828 H   0  0  0  0  0  0  0  0  0  0  0  0
    2.0207   -3.5902   -0.7558 C   0  0  0  0  0  0  0  0  0  0  0  0
    2.6630   -3.6936    0.1216 H   0  0  0  0  0  0  0  0  0  0  0  0
    1.4903   -4.5280   -0.9253 H   0  0  0  0  0  0  0  0  0  0  0  0
    2.6467   -3.3676   -1.6216 H   0  0  0  0  0  0  0  0  0  0  0  0
  5  6  2  0  0  0  0
  5  7  1  0  0  0  0
  2  3  1  0  0  0  0
  2  4  1  0  0  0  0
  2  5  1  0  0  0  0
  1  2  1  0  0  0  0
 16 17  2  0  0  0  0
 16 18  1  0  0  0  0
 14 15  1  0  0  0  0
 11 12  1  0  0  0  0
 11 13  1  0  0  0  0
 11 14  1  0  0  0  0
  9 10  1  0  0  0  0
  9 11  1  0  0  0  0
  9 16  1  0  0  0  0
  7  8  1  0  0  0  0
  7  9  1  0  0  0  0
 20 21  1  0  0  0  0
 20 22  1  0  0  0  0
 20 23  1  0  0  0  0
 18 19  1  0  0  0  0
 18 20  1  0  0  0  0
M  END
$$$$
default_name
  -OEChem-01062215323D

 23 22  0     1  0  0  0  0  0999 V2000
   -2.6857   -3.6684    0.8743 H   0  0  0  0  0  0  0  0  0  0  0  0
   -2.6617   -2.6474    0.4953 C   0  0  0  0  0  0  0  0  0  0  0  0
   -3.2657   -2.0054    1.1353 H   0  0  0  0  0  0  0  0  0  0  0  0
   -3.0477   -2.6254   -0.5217 H   0  0  0  0  0  0  0  0  0  0  0  0
   -1.2337   -2.1564    0.4993 C   0  0  0  0  0  0  0  0  0  0  0  0
   -0.3327   -2.8864    0.8893 O   0  0  0  0  0  0  0  0  0  0  0  0
   -1.0277   -0.9164    0.0623 N   0  0  0  0  0  0  0  0  0  0  0  0
   -1.8237   -0.3604   -0.2157 H   0  0  0  0  0  0  0  0  0  0  0  0
    0.2713   -0.2414    0.0463 C   0  0  1  0  0  0  0  0  0  0  0  0
    0.3006    0.4437   -0.8033 H   0  0  0  0  0  0  0  0  0  0  0  0
    0.4105    0.5803    1.3384 C   0  0  0  0  0  0  0  0  0  0  0  0
    0.2505   -0.0786    2.1947 H   0  0  0  0  0  0  0  0  0  0  0  0
    1.4183    0.9962    1.3985 H   0  0  0  0  0  0  0  0  0  0  0  0
   -0.8149    1.9204    1.4001 S   0  0  0  0  0  0  0  0  0  0  0  0
   -0.5294    2.3489    2.6355 H   0  0  0  0  0  0  0  0  0  0  0  0
    1.4033   -1.2735   -0.1336 C   0  0  0  0  0  0  0  0  0  0  0  0
    2.5118   -1.0612    0.3590 O   0  0  0  0  0  0  0  0  0  0  0  0
    1.1294   -2.3854   -0.8257 N   0  0  0  0  0  0  0  0  0  0  0  0
    0.2158   -2.4534   -1.2504 H   0  0  0  0  0  0  0  0  0  0  0  0
    2.0894   -3.4590   -1.0760 C   0  0  0  0  0  0  0  0  0  0  0  0
    2.5657   -3.7549   -0.1386 H   0  0  0  0  0  0  0  0  0  0  0  0
    1.5846   -4.3225   -1.5107 H   0  0  0  0  0  0  0  0  0  0  0  0
    2.8610   -3.1079   -1.7632 H   0  0  0  0  0  0  0  0  0  0  0  0
  5  6  2  0  0  0  0
  5  7  1  0  0  0  0
  2  3  1  0  0  0  0
  2  4  1  0  0  0  0
  2  5  1  0  0  0  0
  1  2  1  0  0  0  0
 16 17  2  0  0  0  0
 16 18  1  0  0  0  0
 14 15  1  0  0  0  0
 11 12  1  0  0  0  0
 11 13  1  0  0  0  0
 11 14  1  0  0  0  0
  9 10  1  0  0  0  0
  9 11  1  0  0  0  0
  9 16  1  0  0  0  0
  7  8  1  0  0  0  0
  7  9  1  0  0  0  0
 20 21  1  0  0  0  0
 20 22  1  0  0  0  0
 20 23  1  0  0  0  0
 18 19  1  0  0  0  0
 18 20  1  0  0  0  0
M  END
$$$$
default_name
  -OEChem-01062215323D

 23 22  0     1  0  0  0  0  0999 V2000
   -2.6857   -3.6684    0.8743 H   0  0  0  0  0  0  0  0  0  0  0  0
   -2.6617   -2.6474    0.4953 C   0  0  0  0  0  0  0  0  0  0  0  0
   -3.2657   -2.0054    1.1353 H   0  0  0  0  0  0  0  0  0  0  0  0
   -3.0477   -2.6254   -0.5217 H   0  0  0  0  0  0  0  0  0  0  0  0
   -1.2337   -2.1564    0.4993 C   0  0  0  0  0  0  0  0  0  0  0  0
   -0.3327   -2.8864    0.8893 O   0  0  0  0  0  0  0  0  0  0  0  0
   -1.0277   -0.9164    0.0623 N   0  0  0  0  0  0  0  0  0  0  0  0
   -1.8237   -0.3604   -0.2157 H   0  0  0  0  0  0  0  0  0  0  0  0
    0.2713   -0.2414    0.0463 C   0  0  1  0  0  0  0  0  0  0  0  0
    0.3006    0.4437   -0.8033 H   0  0  0  0  0  0  0  0  0  0  0  0
    0.4105    0.5803    1.3384 C   0  0  0  0  0  0  0  0  0  0  0  0
    0.2505   -0.0786    2.1947 H   0  0  0  0  0  0  0  0  0  0  0  0
    1.4183    0.9962    1.3985 H   0  0  0  0  0  0  0  0  0  0  0  0
   -0.8149    1.9204    1.4001 S   0  0  0  0  0  0  0  0  0  0  0  0
   -0.5294    2.3489    2.6355 H   0  0  0  0  0  0  0  0  0  0  0  0
    1.4033   -1.2735   -0.1336 C   0  0  0  0  0  0  0  0  0  0  0  0
    2.4105   -1.2095    0.5721 O   0  0  0  0  0  0  0  0  0  0  0  0
    1.2406   -2.2220   -1.0633 N   0  0  0  0  0  0  0  0  0  0  0  0
    0.4153   -2.1663   -1.6424 H   0  0  0  0  0  0  0  0  0  0  0  0
    2.2152   -3.2735   -1.3484 C   0  0  0  0  0  0  0  0  0  0  0  0
    2.5149   -3.7618   -0.4184 H   0  0  0  0  0  0  0  0  0  0  0  0
    1.7833   -4.0157   -2.0208 H   0  0  0  0  0  0  0  0  0  0  0  0
    3.1004   -2.8365   -1.8135 H   0  0  0  0  0  0  0  0  0  0  0  0
  5  6  2  0  0  0  0
  5  7  1  0  0  0  0
  2  3  1  0  0  0  0
  2  4  1  0  0  0  0
  2  5  1  0  0  0  0
  1  2  1  0  0  0  0
 16 17  2  0  0  0  0
 16 18  1  0  0  0  0
 14 15  1  0  0  0  0
 11 12  1  0  0  0  0
 11 13  1  0  0  0  0
 11 14  1  0  0  0  0
  9 10  1  0  0  0  0
  9 11  1  0  0  0  0
  9 16  1  0  0  0  0
  7  8  1  0  0  0  0
  7  9  1  0  0  0  0
 20 21  1  0  0  0  0
 20 22  1  0  0  0  0
 20 23  1  0  0  0  0
 18 19  1  0  0  0  0
 18 20  1  0  0  0  0
M  END
$$$$
default_name
  -OEChem-01062215323D

 23 22  0     1  0  0  0  0  0999 V2000
   -2.6857   -3.6684    0.8743 H   0  0  0  0  0  0  0  0  0  0  0  0
   -2.6617   -2.6474    0.4953 C   0  0  0  0  0  0  0  0  0  0  0  0
   -3.2657   -2.0054    1.1353 H   0  0  0  0  0  0  0  0  0  0  0  0
   -3.0477   -2.6254   -0.5217 H   0  0  0  0  0  0  0  0  0  0  0  0
   -1.2337   -2.1564    0.4993 C   0  0  0  0  0  0  0  0  0  0  0  0
   -0.3327   -2.8864    0.8893 O   0  0  0  0  0  0  0  0  0  0  0  0
   -1.0277   -0.9164    0.0623 N   0  0  0  0  0  0  0  0  0  0  0  0
   -1.8237   -0.3604   -0.2157 H   0  0  0  0  0  0  0  0  0  0  0  0
    0.2713   -0.2414    0.0463 C   0  0  1  0  0  0  0  0  0  0  0  0
    0.3006    0.4437   -0.8033 H   0  0  0  0  0  0  0  0  0  0  0  0
    0.4105    0.5803    1.3384 C   0  0  0  0  0  0  0  0  0  0  0  0
    0.2505   -0.0786    2.1947 H   0  0  0  0  0  0  0  0  0  0  0  0
    1.4183    0.9962    1.3985 H   0  0  0  0  0  0  0  0  0  0  0  0
   -0.8149    1.9204    1.4001 S   0  0  0  0  0  0  0  0  0  0  0  0
   -0.5294    2.3489    2.6355 H   0  0  0  0  0  0  0  0  0  0  0  0
    1.4033   -1.2735   -0.1336 C   0  0  0  0  0  0  0  0  0  0  0  0
    2.2712   -1.3901    0.7322 O   0  0  0  0  0  0  0  0  0  0  0  0
    1.3942   -2.0224   -1.2424 N   0  0  0  0  0  0  0  0  0  0  0  0
    0.6846   -1.8205   -1.9318 H   0  0  0  0  0  0  0  0  0  0  0  0
    2.3895   -3.0465   -1.5546 C   0  0  0  0  0  0  0  0  0  0  0  0
    2.5141   -3.7138   -0.6988 H   0  0  0  0  0  0  0  0  0  0  0  0
    2.0728   -3.6285   -2.4209 H   0  0  0  0  0  0  0  0  0  0  0  0
    3.3486   -2.5721   -1.7691 H   0  0  0  0  0  0  0  0  0  0  0  0
  5  6  2  0  0  0  0
  5  7  1  0  0  0  0
  2  3  1  0  0  0  0
  2  4  1  0  0  0  0
  2  5  1  0  0  0  0
  1  2  1  0  0  0  0
 16 17  2  0  0  0  0
 16 18  1  0  0  0  0
 14 15  1  0  0  0  0
 11 12  1  0  0  0  0
 11 13  1  0  0  0  0
 11 14  1  0  0  0  0
  9 10  1  0  0  0  0
  9 11  1  0  0  0  0
  9 16  1  0  0  0  0
  7  8  1  0  0  0  0
  7  9  1  0  0  0  0
 20 21  1  0  0  0  0
 20 22  1  0  0  0  0
 20 23  1  0  0  0  0
 18 19  1  0  0  0  0
 18 20  1  0  0  0  0
M  END
$$$$
default_name
  -OEChem-01062215323D

 23 22  0     1  0  0  0  0  0999 V2000
   -2.6857   -3.6684    0.8743 H   0  0  0  0  0  0  0  0  0  0  0  0
   -2.6617   -2.6474    0.4953 C   0  0  0  0  0  0  0  0  0  0  0  0
   -3.2657   -2.0054    1.1353 H   0  0  0  0  0  0  0  0  0  0  0  0
   -3.0477   -2.6254   -0.5217 H   0  0  0  0  0  0  0  0  0  0  0  0
   -1.2337   -2.1564    0.4993 C   0  0  0  0  0  0  0  0  0  0  0  0
   -0.3327   -2.8864    0.8893 O   0  0  0  0  0  0  0  0  0  0  0  0
   -1.0277   -0.9164    0.0623 N   0  0  0  0  0  0  0  0  0  0  0  0
   -1.8237   -0.3604   -0.2157 H   0  0  0  0  0  0  0  0  0  0  0  0
    0.2713   -0.2414    0.0463 C   0  0  1  0  0  0  0  0  0  0  0  0
    0.3006    0.4437   -0.8033 H   0  0  0  0  0  0  0  0  0  0  0  0
    0.4105    0.5803    1.3384 C   0  0  0  0  0  0  0  0  0  0  0  0
    0.2505   -0.0786    2.1947 H   0  0  0  0  0  0  0  0  0  0  0  0
    1.4183    0.9962    1.3985 H   0  0  0  0  0  0  0  0  0  0  0  0
   -0.8149    1.9204    1.4001 S   0  0  0  0  0  0  0  0  0  0  0  0
   -0.5294    2.3489    2.6355 H   0  0  0  0  0  0  0  0  0  0  0  0
    1.4033   -1.2735   -0.1336 C   0  0  0  0  0  0  0  0  0  0  0  0
    2.1035   -1.5908    0.8284 O   0  0  0  0  0  0  0  0  0  0  0  0
    1.5795   -1.8002   -1.3509 N   0  0  0  0  0  0  0  0  0  0  0  0
    1.0052   -1.4397   -2.0991 H   0  0  0  0  0  0  0  0  0  0  0  0
    2.6004   -2.7932   -1.6804 C   0  0  0  0  0  0  0  0  0  0  0  0
    2.5634   -3.6142   -0.9607 H   0  0  0  0  0  0  0  0  0  0  0  0
    2.4334   -3.1872   -2.6836 H   0  0  0  0  0  0  0  0  0  0  0  0
    3.5886   -2.3326   -1.6331 H   0  0  0  0  0  0  0  0  0  0  0  0
  5  6  2  0  0  0  0
  5  7  1  0  0  0  0
  2  3  1  0  0  0  0
  2  4  1  0  0  0  0
  2  5  1  0  0  0  0
  1  2  1  0  0  0  0
 16 17  2  0  0  0  0
 16 18  1  0  0  0  0
 14 15  1  0  0  0  0
 11 12  1  0  0  0  0
 11 13  1  0  0  0  0
 11 14  1  0  0  0  0
  9 10  1  0  0  0  0
  9 11  1  0  0  0  0
  9 16  1  0  0  0  0
  7  8  1  0  0  0  0
  7  9  1  0  0  0  0
 20 21  1  0  0  0  0
 20 22  1  0  0  0  0
 20 23  1  0  0  0  0
 18 19  1  0  0  0  0
 18 20  1  0  0  0  0
M  END
$$$$
default_name
  -OEChem-01062215323D

 23 22  0     1  0  0  0  0  0999 V2000
   -2.6857   -3.6684    0.8743 H   0  0  0  0  0  0  0  0  0  0  0  0
   -2.6617   -2.6474    0.4953 C   0  0  0  0  0  0  0  0  0  0  0  0
   -3.2657   -2.0054    1.1353 H   0  0  0  0  0  0  0  0  0  0  0  0
   -3.0477   -2.6254   -0.5217 H   0  0  0  0  0  0  0  0  0  0  0  0
   -1.2337   -2.1564    0.4993 C   0  0  0  0  0  0  0  0  0  0  0  0
   -0.3327   -2.8864    0.8893 O   0  0  0  0  0  0  0  0  0  0  0  0
   -1.0277   -0.9164    0.0623 N   0  0  0  0  0  0  0  0  0  0  0  0
   -1.8237   -0.3604   -0.2157 H   0  0  0  0  0  0  0  0  0  0  0  0
    0.2713   -0.2414    0.0463 C   0  0  1  0  0  0  0  0  0  0  0  0
    0.3006    0.4437   -0.8033 H   0  0  0  0  0  0  0  0  0  0  0  0
    0.4105    0.5803    1.3384 C   0  0  0  0  0  0  0  0  0  0  0  0
    0.2505   -0.0786    2.1947 H   0  0  0  0  0  0  0  0  0  0  0  0
    1.4183    0.9962    1.3985 H   0  0  0  0  0  0  0  0  0  0  0  0
   -0.8149    1.9204    1.4001 S   0  0  0  0  0  0  0  0  0  0  0  0
   -0.5294    2.3489    2.6355 H   0  0  0  0  0  0  0  0  0  0  0  0
    1.4033   -1.2735   -0.1336 C   0  0  0  0  0  0  0  0  0  0  0  0
    1.9189   -1.7978    0.8542 O   0  0  0  0  0  0  0  0  0  0  0  0
    1.7840   -1.5706   -1.3814 N   0  0  0  0  0  0  0  0  0  0  0  0
    1.3554   -1.0498   -2.1329 H   0  0  0  0  0  0  0  0  0  0  0  0
    2.8335   -2.5311   -1.7173 C   0  0  0  0  0  0  0  0  0  0  0  0
    2.6593   -3.4696   -1.1862 H   0  0  0  0  0  0  0  0  0  0  0  0
    2.8406   -2.7219   -2.7911 H   0  0  0  0  0  0  0  0  0  0  0  0
    3.8040   -2.1344   -1.4145 H   0  0  0  0  0  0  0  0  0  0  0  0
  5  6  2  0  0  0  0
  5  7  1  0  0  0  0
  2  3  1  0  0  0  0
  2  4  1  0  0  0  0
  2  5  1  0  0  0  0
  1  2  1  0  0  0  0
 16 17  2  0  0  0  0
 16 18  1  0  0  0  0
 14 15  1  0  0  0  0
 11 12  1  0  0  0  0
 11 13  1  0  0  0  0
 11 14  1  0  0  0  0
  9 10  1  0  0  0  0
  9 11  1  0  0  0  0
  9 16  1  0  0  0  0
  7  8  1  0  0  0  0
  7  9  1  0  0  0  0
 20 21  1  0  0  0  0
 20 22  1  0  0  0  0
 20 23  1  0  0  0  0
 18 19  1  0  0  0  0
 18 20  1  0  0  0  0
M  END
$$$$
default_name
  -OEChem-01062215323D

 23 22  0     1  0  0  0  0  0999 V2000
   -2.6857   -3.6684    0.8743 H   0  0  0  0  0  0  0  0  0  0  0  0
   -2.6617   -2.6474    0.4953 C   0  0  0  0  0  0  0  0  0  0  0  0
   -3.2657   -2.0054    1.1353 H   0  0  0  0  0  0  0  0  0  0  0  0
   -3.0477   -2.6254   -0.5217 H   0  0  0  0  0  0  0  0  0  0  0  0
   -1.2337   -2.1564    0.4993 C   0  0  0  0  0  0  0  0  0  0  0  0
   -0.3327   -2.8864    0.8893 O   0  0  0  0  0  0  0  0  0  0  0  0
   -1.0277   -0.9164    0.0623 N   0  0  0  0  0  0  0  0  0  0  0  0
   -1.8237   -0.3604   -0.2157 H   0  0  0  0  0  0  0  0  0  0  0  0
    0.2713   -0.2414    0.0463 C   0  0  1  0  0  0  0  0  0  0  0  0
    0.3006    0.4437   -0.8033 H   0  0  0  0  0  0  0  0  0  0  0  0
    0.4105    0.5803    1.3384 C   0  0  0  0  0  0  0  0  0  0  0  0
    0.2505   -0.0786    2.1947 H   0  0  0  0  0  0  0  0  0  0  0  0
    1.4183    0.9962    1.3985 H   0  0  0  0  0  0  0  0  0  0  0  0
   -0.8149    1.9204    1.4001 S   0  0  0  0  0  0  0  0  0  0  0  0
   -0.5294    2.3489    2.6355 H   0  0  0  0  0  0  0  0  0  0  0  0
    1.4033   -1.2735   -0.1336 C   0  0  0  0  0  0  0  0  0  0  0  0
    1.7297   -1.9972    0.8078 O   0  0  0  0  0  0  0  0  0  0  0  0
    1.9938   -1.3491   -1.3319 N   0  0  0  0  0  0  0  0  0  0  0  0
    1.7112   -0.6773   -2.0307 H   0  0  0  0  0  0  0  0  0  0  0  0
    3.0730   -2.2779   -1.6627 C   0  0  0  0  0  0  0  0  0  0  0  0
    2.7954   -3.2901   -1.3599 H   0  0  0  0  0  0  0  0  0  0  0  0
    3.2665   -2.2644   -2.7360 H   0  0  0  0  0  0  0  0  0  0  0  0
    3.9803   -1.9909   -1.1285 H   0  0  0  0  0  0  0  0  0  0  0  0
  5  6  2  0  0  0  0
  5  7  1  0  0  0  0
  2  3  1  0  0  0  0
  2  4  1  0  0  0  0
  2  5  1  0  0  0  0
  1  2  1  0  0  0  0
 16 17  2  0  0  0  0
 16 18  1  0  0  0  0
 14 15  1  0  0  0  0
 11 12  1  0  0  0  0
 11 13  1  0  0  0  0
 11 14  1  0  0  0  0
  9 10  1  0  0  0  0
  9 11  1  0  0  0  0
  9 16  1  0  0  0  0
  7  8  1  0  0  0  0
  7  9  1  0  0  0  0
 20 21  1  0  0  0  0
 20 22  1  0  0  0  0
 20 23  1  0  0  0  0
 18 19  1  0  0  0  0
 18 20  1  0  0  0  0
M  END
$$$$
default_name
  -OEChem-01062215323D

 23 22  0     1  0  0  0  0  0999 V2000
   -2.6857   -3.6684    0.8743 H   0  0  0  0  0  0  0  0  0  0  0  0
   -2.6617   -2.6474    0.4953 C   0  0  0  0  0  0  0  0  0  0  0  0
   -3.2657   -2.0054    1.1353 H   0  0  0  0  0  0  0  0  0  0  0  0
   -3.0477   -2.6254   -0.5217 H   0  0  0  0  0  0  0  0  0  0  0  0
   -1.2337   -2.1564    0.4993 C   0  0  0  0  0  0  0  0  0  0  0  0
   -0.3327   -2.8864    0.8893 O   0  0  0  0  0  0  0  0  0  0  0  0
   -1.0277   -0.9164    0.0623 N   0  0  0  0  0  0  0  0  0  0  0  0
   -1.8237   -0.3604   -0.2157 H   0  0  0  0  0  0  0  0  0  0  0  0
    0.2713   -0.2414    0.0463 C   0  0  1  0  0  0  0  0  0  0  0  0
    0.3006    0.4437   -0.8033 H   0  0  0  0  0  0  0  0  0  0  0  0
    0.4105    0.5803    1.3384 C   0  0  0  0  0  0  0  0  0  0  0  0
    0.2505   -0.0786    2.1947 H   0  0  0  0  0  0  0  0  0  0  0  0
    1.4183    0.9962    1.3985 H   0  0  0  0  0  0  0  0  0  0  0  0
   -0.8149    1.9204    1.4001 S   0  0  0  0  0  0  0  0  0  0  0  0
   -0.5294    2.3489    2.6355 H   0  0  0  0  0  0  0  0  0  0  0  0
    1.4033   -1.2735   -0.1336 C   0  0  0  0  0  0  0  0  0  0  0  0
    1.5491   -2.1752    0.6924 O   0  0  0  0  0  0  0  0  0  0  0  0
    2.1946   -1.1510   -1.2056 N   0  0  0  0  0  0  0  0  0  0  0  0
    2.0485   -0.3477   -1.7997 H   0  0  0  0  0  0  0  0  0  0  0  0
    3.3026   -2.0510   -1.5205 C   0  0  0  0  0  0  0  0  0  0  0  0
    2.9624   -3.0878   -1.4701 H   0  0  0  0  0  0  0  0  0  0  0  0
    3.6822   -1.8457   -2.5221 H   0  0  0  0  0  0  0  0  0  0  0  0
    4.1054   -1.9120   -0.7944 H   0  0  0  0  0  0  0  0  0  0  0  0
  5  6  2  0  0  0  0
  5  7  1  0  0  0  0
  2  3  1  0  0  0  0
  2  4  1  0  0  0  0
  2  5  1  0  0  0  0
  1  2  1  0  0  0  0
 16 17  2  0  0  0  0
 16 18  1  0  0  0  0
 14 15  1  0  0  0  0
 11 12  1  0  0  0  0
 11 13  1  0  0  0  0
 11 14  1  0  0  0  0
  9 10  1  0  0  0  0
  9 11  1  0  0  0  0
  9 16  1  0  0  0  0
  7  8  1  0  0  0  0
  7  9  1  0  0  0  0
 20 21  1  0  0  0  0
 20 22  1  0  0  0  0
 20 23  1  0  0  0  0
 18 19  1  0  0  0  0
 18 20  1  0  0  0  0
M  END
$$$$
default_name
  -OEChem-01062215323D

 23 22  0     1  0  0  0  0  0999 V2000
   -2.6857   -3.6684    0.8743 H   0  0  0  0  0  0  0  0  0  0  0  0
   -2.6617   -2.6474    0.4953 C   0  0  0  0  0  0  0  0  0  0  0  0
   -3.2657   -2.0054    1.1353 H   0  0  0  0  0  0  0  0  0  0  0  0
   -3.0477   -2.6254   -0.5217 H   0  0  0  0  0  0  0  0  0  0  0  0
   -1.2337   -2.1564    0.4993 C   0  0  0  0  0  0  0  0  0  0  0  0
   -0.3327   -2.8864    0.8893 O   0  0  0  0  0  0  0  0  0  0  0  0
   -1.0277   -0.9164    0.0623 N   0  0  0  0  0  0  0  0  0  0  0  0
   -1.8237   -0.3604   -0.2157 H   0  0  0  0  0  0  0  0  0  0  0  0
    0.2713   -0.2414    0.0463 C   0  0  1  0  0  0  0  0  0  0  0  0
    0.3006    0.4437   -0.8033 H   0  0  0  0  0  0  0  0  0  0  0  0
    0.4105    0.5803    1.3384 C   0  0  0  0  0  0  0  0  0  0  0  0
    0.2505   -0.0786    2.1947 H   0  0  0  0  0  0  0  0  0  0  0  0
    1.4183    0.9962    1.3985 H   0  0  0  0  0  0  0  0  0  0  0  0
   -0.8149    1.9204    1.4001 S   0  0  0  0  0  0  0  0  0  0  0  0
   -0.5294    2.3489    2.6355 H   0  0  0  0  0  0  0  0  0  0  0  0
    1.4033   -1.2735   -0.1336 C   0  0  0  0  0  0  0  0  0  0  0  0
    1.3892   -2.3197    0.5158 O   0  0  0  0  0  0  0  0  0  0  0  0
    2.3726   -0.9896   -1.0112 N   0  0  0  0  0  0  0  0  0  0  0  0
    2.3442   -0.0833   -1.4555 H   0  0  0  0  0  0  0  0  0  0  0  0
    3.5065   -1.8657   -1.3002 C   0  0  0  0  0  0  0  0  0  0  0  0
    3.1488   -2.8765   -1.5091 H   0  0  0  0  0  0  0  0  0  0  0  0
    4.0593   -1.4946   -2.1640 H   0  0  0  0  0  0  0  0  0  0  0  0
    4.1707   -1.9030   -0.4351 H   0  0  0  0  0  0  0  0  0  0  0  0
  5  6  2  0  0  0  0
  5  7  1  0  0  0  0
  2  3  1  0  0  0  0
  2  4  1  0  0  0  0
  2  5  1  0  0  0  0
  1  2  1  0  0  0  0
 16 17  2  0  0  0  0
 16 18  1  0  0  0  0
 14 15  1  0  0  0  0
 11 12  1  0  0  0  0
 11 13  1  0  0  0  0
 11 14  1  0  0  0  0
  9 10  1  0  0  0  0
  9 11  1  0  0  0  0
  9 16  1  0  0  0  0
  7  8  1  0  0  0  0
  7  9  1  0  0  0  0
 20 21  1  0  0  0  0
 20 22  1  0  0  0  0
 20 23  1  0  0  0  0
 18 19  1  0  0  0  0
 18 20  1  0  0  0  0
M  END
$$$$
default_name
  -OEChem-01062215323D

 23 22  0     1  0  0  0  0  0999 V2000
   -2.6857   -3.6684    0.8743 H   0  0  0  0  0  0  0  0  0  0  0  0
   -2.6617   -2.6474    0.4953 C   0  0  0  0  0  0  0  0  0  0  0  0
   -3.2657   -2.0054    1.1353 H   0  0  0  0  0  0  0  0  0  0  0  0
   -3.0477   -2.6254   -0.5217 H   0  0  0  0  0  0  0  0  0  0  0  0
   -1.2337   -2.1564    0.4993 C   0  0  0  0  0  0  0  0  0  0  0  0
   -0.3327   -2.8864    0.8893 O   0  0  0  0  0  0  0  0  0  0  0  0
   -1.0277   -0.9164    0.0623 N   0  0  0  0  0  0  0  0  0  0  0  0
   -1.8237   -0.3604   -0.2157 H   0  0  0  0  0  0  0  0  0  0  0  0
    0.2713   -0.2414    0.0463 C   0  0  1  0  0  0  0  0  0  0  0  0
    0.3006    0.4437   -0.8033 H   0  0  0  0  0  0  0  0  0  0  0  0
    0.4105    0.5803    1.3384 C   0  0  0  0  0  0  0  0  0  0  0  0
    0.2505   -0.0786    2.1947 H   0  0  0  0  0  0  0  0  0  0  0  0
    1.4183    0.9962    1.3985 H   0  0  0  0  0  0  0  0  0  0  0  0
   -0.8149    1.9204    1.4001 S   0  0  0  0  0  0  0  0  0  0  0  0
   -0.5294    2.3489    2.6355 H   0  0  0  0  0  0  0  0  0  0  0  0
    1.4033   -1.2735   -0.1336 C   0  0  0  0  0  0  0  0  0  0  0  0
    1.2610   -2.4210    0.2900 O   0  0  0  0  0  0  0  0  0  0  0  0
    2.5157   -0.8761   -0.7620 N   0  0  0  0  0  0  0  0  0  0  0  0
    2.5782    0.0977   -1.0216 H   0  0  0  0  0  0  0  0  0  0  0  0
    3.6709   -1.7347   -1.0169 C   0  0  0  0  0  0  0  0  0  0  0  0
    3.3421   -2.6706   -1.4744 H   0  0  0  0  0  0  0  0  0  0  0  0
    4.3721   -1.2347   -1.6861 H   0  0  0  0  0  0  0  0  0  0  0  0
    4.1718   -1.9645   -0.0750 H   0  0  0  0  0  0  0  0  0  0  0  0
  5  6  2  0  0  0  0
  5  7  1  0  0  0  0
  2  3  1  0  0  0  0
  2  4  1  0  0  0  0
  2  5  1  0  0  0  0
  1  2  1  0  0  0  0
 16 17  2  0  0  0  0
 16 18  1  0  0  0  0
 14 15  1  0  0  0  0
 11 12  1  0  0  0  0
 11 13  1  0  0  0  0
 11 14  1  0  0  0  0
  9 10  1  0  0  0  0
  9 11  1  0  0  0  0
  9 16  1  0  0  0  0
  7  8  1  0  0  0  0
  7  9  1  0  0  0  0
 20 21  1  0  0  0  0
 20 22  1  0  0  0  0
 20 23  1  0  0  0  0
 18 19  1  0  0  0  0
 18 20  1  0  0  0  0
M  END
$$$$
default_name
  -OEChem-01062215323D

 23 22  0     1  0  0  0  0  0999 V2000
   -2.6857   -3.6684    0.8743 H   0  0  0  0  0  0  0  0  0  0  0  0
   -2.6617   -2.6474    0.4953 C   0  0  0  0  0  0  0  0  0  0  0  0
   -3.2657   -2.0054    1.1353 H   0  0  0  0  0  0  0  0  0  0  0  0
   -3.0477   -2.6254   -0.5217 H   0  0  0  0  0  0  0  0  0  0  0  0
   -1.2337   -2.1564    0.4993 C   0  0  0  0  0  0  0  0  0  0  0  0
   -0.3327   -2.8864    0.8893 O   0  0  0  0  0  0  0  0  0  0  0  0
   -1.0277   -0.9164    0.0623 N   0  0  0  0  0  0  0  0  0  0  0  0
   -1.8237   -0.3604   -0.2157 H   0  0  0  0  0  0  0  0  0  0  0  0
    0.2713   -0.2414    0.0463 C   0  0  1  0  0  0  0  0  0  0  0  0
    0.3006    0.4437   -0.8033 H   0  0  0  0  0  0  0  0  0  0  0  0
    0.4105    0.5803    1.3384 C   0  0  0  0  0  0  0  0  0  0  0  0
    0.2505   -0.0786    2.1947 H   0  0  0  0  0  0  0  0  0  0  0  0
    1.4183    0.9962    1.3985 H   0  0  0  0  0  0  0  0  0  0  0  0
   -0.8149    1.9204    1.4001 S   0  0  0  0  0  0  0  0  0  0  0  0
   -0.5294    2.3489    2.6355 H   0  0  0  0  0  0  0  0  0  0  0  0
    1.4033   -1.2735   -0.1336 C   0  0  0  0  0  0  0  0  0  0  0  0
    1.1732   -2.4721    0.0306 O   0  0  0  0  0  0  0  0  0  0  0  0
    2.6142   -0.8180   -0.4749 N   0  0  0  0  0  0  0  0  0  0  0  0
    2.7346    0.1831   -0.5276 H   0  0  0  0  0  0  0  0  0  0  0  0
    3.7846   -1.6670   -0.6900 C   0  0  0  0  0  0  0  0  0  0  0  0
    3.5290   -2.4841   -1.3683 H   0  0  0  0  0  0  0  0  0  0  0  0
    4.5994   -1.0840   -1.1209 H   0  0  0  0  0  0  0  0  0  0  0  0
    4.1087   -2.0923    0.2614 H   0  0  0  0  0  0  0  0  0  0  0  0
  5  6  2  0  0  0  0
  5  7  1  0  0  0  0
  2  3  1  0  0  0  0
  2  4  1  0  0  0  0
  2  5  1  0  0  0  0
  1  2  1  0  0  0  0
 16 17  2  0  0  0  0
 16 18  1  0  0  0  0
 14 15  1  0  0  0  0
 11 12  1  0  0  0  0
 11 13  1  0  0  0  0
 11 14  1  0  0  0  0
  9 10  1  0  0  0  0
  9 11  1  0  0  0  0
  9 16  1  0  0  0  0
  7  8  1  0  0  0  0
  7  9  1  0  0  0  0
 20 21  1  0  0  0  0
 20 22  1  0  0  0  0
 20 23  1  0  0  0  0
 18 19  1  0  0  0  0
 18 20  1  0  0  0  0
M  END
$$$$
default_name
  -OEChem-01062215323D

 23 22  0     1  0  0  0  0  0999 V2000
   -2.6857   -3.6684    0.8743 H   0  0  0  0  0  0  0  0  0  0  0  0
   -2.6617   -2.6474    0.4953 C   0  0  0  0  0  0  0  0  0  0  0  0
   -3.2657   -2.0054    1.1353 H   0  0  0  0  0  0  0  0  0  0  0  0
   -3.0477   -2.6254   -0.5217 H   0  0  0  0  0  0  0  0  0  0  0  0
   -1.2337   -2.1564    0.4993 C   0  0  0  0  0  0  0  0  0  0  0  0
   -0.3327   -2.8864    0.8893 O   0  0  0  0  0  0  0  0  0  0  0  0
   -1.0277   -0.9164    0.0623 N   0  0  0  0  0  0  0  0  0  0  0  0
   -1.8237   -0.3604   -0.2157 H   0  0  0  0  0  0  0  0  0  0  0  0
    0.2713   -0.2414    0.0463 C   0  0  1  0  0  0  0  0  0  0  0  0
    0.2108    0.6209   -0.6206 H   0  0  0  0  0  0  0  0  0  0  0  0
    0.5770    0.2629    1.4663 C   0  0  0  0  0  0  0  0  0  0  0  0
    0.5091   -0.5769    2.1614 H   0  0  0  0  0  0  0  0  0  0  0  0
    1.5917    0.6649    1.4992 H   0  0  0  0  0  0  0  0  0  0  0  0
   -0.6097    1.5392    1.9800 S   0  0  0  0  0  0  0  0  0  0  0  0
   -0.1721    1.6754    3.2376 H   0  0  0  0  0  0  0  0  0  0  0  0
    1.3564   -1.1919   -0.4997 C   0  0  0  0  0  0  0  0  0  0  0  0
    1.0535   -2.3332   -0.8493 O   0  0  0  0  0  0  0  0  0  0  0  0
    2.6087   -0.7278   -0.5808 N   0  0  0  0  0  0  0  0  0  0  0  0
    2.7848    0.1965   -0.2144 H   0  0  0  0  0  0  0  0  0  0  0  0
    3.7440   -1.5001   -1.0825 C   0  0  0  0  0  0  0  0  0  0  0  0
    3.4888   -1.9498   -2.0448 H   0  0  0  0  0  0  0  0  0  0  0  0
    4.6138   -0.8542   -1.2073 H   0  0  0  0  0  0  0  0  0  0  0  0
    3.9846   -2.2979   -0.3779 H   0  0  0  0  0  0  0  0  0  0  0  0
  5  6  2  0  0  0  0
  5  7  1  0  0  0  0
  2  3  1  0  0  0  0
  2  4  1  0  0  0  0
  2  5  1  0  0  0  0
  1  2  1  0  0  0  0
 16 17  2  0  0  0  0
 16 18  1  0  0  0  0
 14 15  1  0  0  0  0
 11 12  1  0  0  0  0
 11 13  1  0  0  0  0
 11 14  1  0  0  0  0
  9 10  1  0  0  0  0
  9 11  1  0  0  0  0
  9 16  1  0  0  0  0
  7  8  1  0  0  0  0
  7  9  1  0  0  0  0
 20 21  1  0  0  0  0
 20 22  1  0  0  0  0
 20 23  1  0  0  0  0
 18 19  1  0  0  0  0
 18 20  1  0  0  0  0
M  END
$$$$
default_name
  -OEChem-01062215323D

 23 22  0     1  0  0  0  0  0999 V2000
   -2.6857   -3.6684    0.8743 H   0  0  0  0  0  0  0  0  0  0  0  0
   -2.6617   -2.6474    0.4953 C   0  0  0  0  0  0  0  0  0  0  0  0
   -3.2657   -2.0054    1.1353 H   0  0  0  0  0  0  0  0  0  0  0  0
   -3.0477   -2.6254   -0.5217 H   0  0  0  0  0  0  0  0  0  0  0  0
   -1.2337   -2.1564    0.4993 C   0  0  0  0  0  0  0  0  0  0  0  0
   -0.3327   -2.8864    0.8893 O   0  0  0  0  0  0  0  0  0  0  0  0
   -1.0277   -0.9164    0.0623 N   0  0  0  0  0  0  0  0  0  0  0  0
   -1.8237   -0.3604   -0.2157 H   0  0  0  0  0  0  0  0  0  0  0  0
    0.2713   -0.2414    0.0463 C   0  0  1  0  0  0  0  0  0  0  0  0
    0.2108    0.6209   -0.6206 H   0  0  0  0  0  0  0  0  0  0  0  0
    0.5770    0.2629    1.4663 C   0  0  0  0  0  0  0  0  0  0  0  0
    0.5091   -0.5769    2.1614 H   0  0  0  0  0  0  0  0  0  0  0  0
    1.5917    0.6649    1.4992 H   0  0  0  0  0  0  0  0  0  0  0  0
   -0.6097    1.5392    1.9800 S   0  0  0  0  0  0  0  0  0  0  0  0
   -0.1721    1.6754    3.2376 H   0  0  0  0  0  0  0  0  0  0  0  0
    1.3564   -1.1919   -0.4997 C   0  0  0  0  0  0  0  0  0  0  0  0
    1.0297   -2.2158   -1.1009 O   0  0  0  0  0  0  0  0  0  0  0  0
    2.6365   -0.8567   -0.3013 N   0  0  0  0  0  0  0  0  0  0  0  0
    2.8190   -0.0347    0.2559 H   0  0  0  0  0  0  0  0  0  0  0  0
    3.7771   -1.6458   -0.7630 C   0  0  0  0  0  0  0  0  0  0  0  0
    3.6534   -1.8908   -1.8203 H   0  0  0  0  0  0  0  0  0  0  0  0
    4.7026   -1.0843   -0.6303 H   0  0  0  0  0  0  0  0  0  0  0  0
    3.8339   -2.5755   -0.1943 H   0  0  0  0  0  0  0  0  0  0  0  0
  5  6  2  0  0  0  0
  5  7  1  0  0  0  0
  2  3  1  0  0  0  0
  2  4  1  0  0  0  0
  2  5  1  0  0  0  0
  1  2  1  0  0  0  0
 16 17  2  0  0  0  0
 16 18  1  0  0  0  0
 14 15  1  0  0  0  0
 11 12  1  0  0  0  0
 11 13  1  0  0  0  0
 11 14  1  0  0  0  0
  9 10  1  0  0  0  0
  9 11  1  0  0  0  0
  9 16  1  0  0  0  0
  7  8  1  0  0  0  0
  7  9  1  0  0  0  0
 20 21  1  0  0  0  0
 20 22  1  0  0  0  0
 20 23  1  0  0  0  0
 18 19  1  0  0  0  0
 18 20  1  0  0  0  0
M  END
$$$$
default_name
  -OEChem-01062215323D

 23 22  0     1  0  0  0  0  0999 V2000
   -2.6857   -3.6684    0.8743 H   0  0  0  0  0  0  0  0  0  0  0  0
   -2.6617   -2.6474    0.4953 C   0  0  0  0  0  0  0  0  0  0  0  0
   -3.2657   -2.0054    1.1353 H   0  0  0  0  0  0  0  0  0  0  0  0
   -3.0477   -2.6254   -0.5217 H   0  0  0  0  0  0  0  0  0  0  0  0
   -1.2337   -2.1564    0.4993 C   0  0  0  0  0  0  0  0  0  0  0  0
   -0.3327   -2.8864    0.8893 O   0  0  0  0  0  0  0  0  0  0  0  0
   -1.0277   -0.9164    0.0623 N   0  0  0  0  0  0  0  0  0  0  0  0
   -1.8237   -0.3604   -0.2157 H   0  0  0  0  0  0  0  0  0  0  0  0
    0.2713   -0.2414    0.0463 C   0  0  1  0  0  0  0  0  0  0  0  0
    0.2108    0.6209   -0.6206 H   0  0  0  0  0  0  0  0  0  0  0  0
    0.5770    0.2629    1.4663 C   0  0  0  0  0  0  0  0  0  0  0  0
    0.5091   -0.5769    2.1614 H   0  0  0  0  0  0  0  0  0  0  0  0
    1.5917    0.6649    1.4992 H   0  0  0  0  0  0  0  0  0  0  0  0
   -0.6097    1.5392    1.9800 S   0  0  0  0  0  0  0  0  0  0  0  0
   -0.1721    1.6754    3.2376 H   0  0  0  0  0  0  0  0  0  0  0  0
    1.3564   -1.1919   -0.4997 C   0  0  0  0  0  0  0  0  0  0  0  0
    1.0577   -2.0544   -1.3264 O   0  0  0  0  0  0  0  0  0  0  0  0
    2.6069   -1.0347   -0.0504 N   0  0  0  0  0  0  0  0  0  0  0  0
    2.7558   -0.3467    0.6736 H   0  0  0  0  0  0  0  0  0  0  0  0
    3.7448   -1.8478   -0.4756 C   0  0  0  0  0  0  0  0  0  0  0  0
    3.7820   -1.8898   -1.5666 H   0  0  0  0  0  0  0  0  0  0  0  0
    4.6752   -1.4199   -0.1007 H   0  0  0  0  0  0  0  0  0  0  0  0
    3.6336   -2.8632   -0.0914 H   0  0  0  0  0  0  0  0  0  0  0  0
  5  6  2  0  0  0  0
  5  7  1  0  0  0  0
  2  3  1  0  0  0  0
  2  4  1  0  0  0  0
  2  5  1  0  0  0  0
  1  2  1  0  0  0  0
 16 17  2  0  0  0  0
 16 18  1  0  0  0  0
 14 15  1  0  0  0  0
 11 12  1  0  0  0  0
 11 13  1  0  0  0  0
 11 14  1  0  0  0  0
  9 10  1  0  0  0  0
  9 11  1  0  0  0  0
  9 16  1  0  0  0  0
  7  8  1  0  0  0  0
  7  9  1  0  0  0  0
 20 21  1  0  0  0  0
 20 22  1  0  0  0  0
 20 23  1  0  0  0  0
 18 19  1  0  0  0  0
 18 20  1  0  0  0  0
M  END
$$$$
default_name
  -OEChem-01062215323D

 23 22  0     1  0  0  0  0  0999 V2000
   -2.6857   -3.6684    0.8743 H   0  0  0  0  0  0  0  0  0  0  0  0
   -2.6617   -2.6474    0.4953 C   0  0  0  0  0  0  0  0  0  0  0  0
   -3.2657   -2.0054    1.1353 H   0  0  0  0  0  0  0  0  0  0  0  0
   -3.0477   -2.6254   -0.5217 H   0  0  0  0  0  0  0  0  0  0  0  0
   -1.2337   -2.1564    0.4993 C   0  0  0  0  0  0  0  0  0  0  0  0
   -0.3327   -2.8864    0.8893 O   0  0  0  0  0  0  0  0  0  0  0  0
   -1.0277   -0.9164    0.0623 N   0  0  0  0  0  0  0  0  0  0  0  0
   -1.8237   -0.3604   -0.2157 H   0  0  0  0  0  0  0  0  0  0  0  0
    0.2713   -0.2414    0.0463 C   0  0  1  0  0  0  0  0  0  0  0  0
    0.2108    0.6209   -0.6206 H   0  0  0  0  0  0  0  0  0  0  0  0
    0.5770    0.2629    1.4663 C   0  0  0  0  0  0  0  0  0  0  0  0
    0.5091   -0.5769    2.1614 H   0  0  0  0  0  0  0  0  0  0  0  0
    1.5917    0.6649    1.4992 H   0  0  0  0  0  0  0  0  0  0  0  0
   -0.6097    1.5392    1.9800 S   0  0  0  0  0  0  0  0  0  0  0  0
   -0.1721    1.6754    3.2376 H   0  0  0  0  0  0  0  0  0  0  0  0
    1.3564   -1.1919   -0.4997 C   0  0  0  0  0  0  0  0  0  0  0  0
    1.1354   -1.8600   -1.5103 O   0  0  0  0  0  0  0  0  0  0  0  0
    2.5220   -1.2495    0.1548 N   0  0  0  0  0  0  0  0  0  0  0  0
    2.5996   -0.7184    1.0101 H   0  0  0  0  0  0  0  0  0  0  0  0
    3.6492   -2.0923   -0.2400 C   0  0  0  0  0  0  0  0  0  0  0  0
    3.8658   -1.9468   -1.3007 H   0  0  0  0  0  0  0  0  0  0  0  0
    4.5335   -1.8379    0.3454 H   0  0  0  0  0  0  0  0  0  0  0  0
    3.3973   -3.1415   -0.0764 H   0  0  0  0  0  0  0  0  0  0  0  0
  5  6  2  0  0  0  0
  5  7  1  0  0  0  0
  2  3  1  0  0  0  0
  2  4  1  0  0  0  0
  2  5  1  0  0  0  0
  1  2  1  0  0  0  0
 16 17  2  0  0  0  0
 16 18  1  0  0  0  0
 14 15  1  0  0  0  0
 11 12  1  0  0  0  0
 11 13  1  0  0  0  0
 11 14  1  0  0  0  0
  9 10  1  0  0  0  0
  9 11  1  0  0  0  0
  9 16  1  0  0  0  0
  7  8  1  0  0  0  0
  7  9  1  0  0  0  0
 20 21  1  0  0  0  0
 20 22  1  0  0  0  0
 20 23  1  0  0  0  0
 18 19  1  0  0  0  0
 18 20  1  0  0  0  0
M  END
$$$$
default_name
  -OEChem-01062215323D

 23 22  0     1  0  0  0  0  0999 V2000
   -2.6857   -3.6684    0.8743 H   0  0  0  0  0  0  0  0  0  0  0  0
   -2.6617   -2.6474    0.4953 C   0  0  0  0  0  0  0  0  0  0  0  0
   -3.2657   -2.0054    1.1353 H   0  0  0  0  0  0  0  0  0  0  0  0
   -3.0477   -2.6254   -0.5217 H   0  0  0  0  0  0  0  0  0  0  0  0
   -1.2337   -2.1564    0.4993 C   0  0  0  0  0  0  0  0  0  0  0  0
   -0.3327   -2.8864    0.8893 O   0  0  0  0  0  0  0  0  0  0  0  0
   -1.0277   -0.9164    0.0623 N   0  0  0  0  0  0  0  0  0  0  0  0
   -1.8237   -0.3604   -0.2157 H   0  0  0  0  0  0  0  0  0  0  0  0
    0.2713   -0.2414    0.0463 C   0  0  1  0  0  0  0  0  0  0  0  0
    0.2108    0.6209   -0.6206 H   0  0  0  0  0  0  0  0  0  0  0  0
    0.5770    0.2629    1.4663 C   0  0  0  0  0  0  0  0  0  0  0  0
    0.5091   -0.5769    2.1614 H   0  0  0  0  0  0  0  0  0  0  0  0
    1.5917    0.6649    1.4992 H   0  0  0  0  0  0  0  0  0  0  0  0
   -0.6097    1.5392    1.9800 S   0  0  0  0  0  0  0  0  0  0  0  0
   -0.1721    1.6754    3.2376 H   0  0  0  0  0  0  0  0  0  0  0  0
    1.3564   -1.1919   -0.4997 C   0  0  0  0  0  0  0  0  0  0  0  0
    1.2576   -1.6459   -1.6402 O   0  0  0  0  0  0  0  0  0  0  0  0
    2.3875   -1.4866    0.3004 N   0  0  0  0  0  0  0  0  0  0  0  0
    2.3610   -1.1244    1.2426 H   0  0  0  0  0  0  0  0  0  0  0  0
    3.4969   -2.3626   -0.0721 C   0  0  0  0  0  0  0  0  0  0  0  0
    3.8991   -2.0580   -1.0410 H   0  0  0  0  0  0  0  0  0  0  0  0
    4.2872   -2.3099    0.6776 H   0  0  0  0  0  0  0  0  0  0  0  0
    3.1413   -3.3914   -0.1503 H   0  0  0  0  0  0  0  0  0  0  0  0
  5  6  2  0  0  0  0
  5  7  1  0  0  0  0
  2  3  1  0  0  0  0
  2  4  1  0  0  0  0
  2  5  1  0  0  0  0
  1  2  1  0  0  0  0
 16 17  2  0  0  0  0
 16 18  1  0  0  0  0
 14 15  1  0  0  0  0
 11 12  1  0  0  0  0
 11 13  1  0  0  0  0
 11 14  1  0  0  0  0
  9 10  1  0  0  0  0
  9 11  1  0  0  0  0
  9 16  1  0  0  0  0
  7  8  1  0  0  0  0
  7  9  1  0  0  0  0
 20 21  1  0  0  0  0
 20 22  1  0  0  0  0
 20 23  1  0  0  0  0
 18 19  1  0  0  0  0
 18 20  1  0  0  0  0
M  END
$$$$
default_name
  -OEChem-01062215323D

 23 22  0     1  0  0  0  0  0999 V2000
   -2.6857   -3.6684    0.8743 H   0  0  0  0  0  0  0  0  0  0  0  0
   -2.6617   -2.6474    0.4953 C   0  0  0  0  0  0  0  0  0  0  0  0
   -3.2657   -2.0054    1.1353 H   0  0  0  0  0  0  0  0  0  0  0  0
   -3.0477   -2.6254   -0.5217 H   0  0  0  0  0  0  0  0  0  0  0  0
   -1.2337   -2.1564    0.4993 C   0  0  0  0  0  0  0  0  0  0  0  0
   -0.3327   -2.8864    0.8893 O   0  0  0  0  0  0  0  0  0  0  0  0
   -1.0277   -0.9164    0.0623 N   0  0  0  0  0  0  0  0  0  0  0  0
   -1.8237   -0.3604   -0.2157 H   0  0  0  0  0  0  0  0  0  0  0  0
    0.2713   -0.2414    0.0463 C   0  0  1  0  0  0  0  0  0  0  0  0
    0.2108    0.6209   -0.6206 H   0  0  0  0  0  0  0  0  0  0  0  0
    0.5770    0.2629    1.4663 C   0  0  0  0  0  0  0  0  0  0  0  0
    0.5091   -0.5769    2.1614 H   0  0  0  0  0  0  0  0  0  0  0  0
    1.5917    0.6649    1.4992 H   0  0  0  0  0  0  0  0  0  0  0  0
   -0.6097    1.5392    1.9800 S   0  0  0  0  0  0  0  0  0  0  0  0
   -0.1721    1.6754    3.2376 H   0  0  0  0  0  0  0  0  0  0  0  0
    1.3564   -1.1919   -0.4997 C   0  0  0  0  0  0  0  0  0  0  0  0
    1.4160   -1.4266   -1.7071 O   0  0  0  0  0  0  0  0  0  0  0  0
    2.2127   -1.7299    0.3764 N   0  0  0  0  0  0  0  0  0  0  0  0
    2.0562   -1.5370    1.3552 H   0  0  0  0  0  0  0  0  0  0  0  0
    3.2983   -2.6403    0.0165 C   0  0  0  0  0  0  0  0  0  0  0  0
    3.8797   -2.2157   -0.8050 H   0  0  0  0  0  0  0  0  0  0  0  0
    3.9531   -2.8037    0.8732 H   0  0  0  0  0  0  0  0  0  0  0  0
    2.8828   -3.5958   -0.3080 H   0  0  0  0  0  0  0  0  0  0  0  0
  5  6  2  0  0  0  0
  5  7  1  0  0  0  0
  2  3  1  0  0  0  0
  2  4  1  0  0  0  0
  2  5  1  0  0  0  0
  1  2  1  0  0  0  0
 16 17  2  0  0  0  0
 16 18  1  0  0  0  0
 14 15  1  0  0  0  0
 11 12  1  0  0  0  0
 11 13  1  0  0  0  0
 11 14  1  0  0  0  0
  9 10  1  0  0  0  0
  9 11  1  0  0  0  0
  9 16  1  0  0  0  0
  7  8  1  0  0  0  0
  7  9  1  0  0  0  0
 20 21  1  0  0  0  0
 20 22  1  0  0  0  0
 20 23  1  0  0  0  0
 18 19  1  0  0  0  0
 18 20  1  0  0  0  0
M  END
$$$$
default_name
  -OEChem-01062215323D

 23 22  0     1  0  0  0  0  0999 V2000
   -2.6857   -3.6684    0.8743 H   0  0  0  0  0  0  0  0  0  0  0  0
   -2.6617   -2.6474    0.4953 C   0  0  0  0  0  0  0  0  0  0  0  0
   -3.2657   -2.0054    1.1353 H   0  0  0  0  0  0  0  0  0  0  0  0
   -3.0477   -2.6254   -0.5217 H   0  0  0  0  0  0  0  0  0  0  0  0
   -1.2337   -2.1564    0.4993 C   0  0  0  0  0  0  0  0  0  0  0  0
   -0.3327   -2.8864    0.8893 O   0  0  0  0  0  0  0  0  0  0  0  0
   -1.0277   -0.9164    0.0623 N   0  0  0  0  0  0  0  0  0  0  0  0
   -1.8237   -0.3604   -0.2157 H   0  0  0  0  0  0  0  0  0  0  0  0
    0.2713   -0.2414    0.0463 C   0  0  1  0  0  0  0  0  0  0  0  0
    0.2108    0.6209   -0.6206 H   0  0  0  0  0  0  0  0  0  0  0  0
    0.5770    0.2629    1.4663 C   0  0  0  0  0  0  0  0  0  0  0  0
    0.5091   -0.5769    2.1614 H   0  0  0  0  0  0  0  0  0  0  0  0
    1.5917    0.6649    1.4992 H   0  0  0  0  0  0  0  0  0  0  0  0
   -0.6097    1.5392    1.9800 S   0  0  0  0  0  0  0  0  0  0  0  0
   -0.1721    1.6754    3.2376 H   0  0  0  0  0  0  0  0  0  0  0  0
    1.3564   -1.1919   -0.4997 C   0  0  0  0  0  0  0  0  0  0  0  0
    1.5997   -1.2172   -1.7066 O   0  0  0  0  0  0  0  0  0  0  0  0
    2.0094   -1.9626    0.3777 N   0  0  0  0  0  0  0  0  0  0  0  0
    1.7061   -1.9281    1.3402 H   0  0  0  0  0  0  0  0  0  0  0  0
    3.0668   -2.9064    0.0199 C   0  0  0  0  0  0  0  0  0  0  0  0
    3.8089   -2.4093   -0.6089 H   0  0  0  0  0  0  0  0  0  0  0  0
    3.5539   -3.2857    0.9190 H   0  0  0  0  0  0  0  0  0  0  0  0
    2.6396   -3.7409   -0.5388 H   0  0  0  0  0  0  0  0  0  0  0  0
  5  6  2  0  0  0  0
  5  7  1  0  0  0  0
  2  3  1  0  0  0  0
  2  4  1  0  0  0  0
  2  5  1  0  0  0  0
  1  2  1  0  0  0  0
 16 17  2  0  0  0  0
 16 18  1  0  0  0  0
 14 15  1  0  0  0  0
 11 12  1  0  0  0  0
 11 13  1  0  0  0  0
 11 14  1  0  0  0  0
  9 10  1  0  0  0  0
  9 11  1  0  0  0  0
  9 16  1  0  0  0  0
  7  8  1  0  0  0  0
  7  9  1  0  0  0  0
 20 21  1  0  0  0  0
 20 22  1  0  0  0  0
 20 23  1  0  0  0  0
 18 19  1  0  0  0  0
 18 20  1  0  0  0  0
M  END
$$$$
default_name
  -OEChem-01062215323D

 23 22  0     1  0  0  0  0  0999 V2000
   -2.6857   -3.6684    0.8743 H   0  0  0  0  0  0  0  0  0  0  0  0
   -2.6617   -2.6474    0.4953 C   0  0  0  0  0  0  0  0  0  0  0  0
   -3.2657   -2.0054    1.1353 H   0  0  0  0  0  0  0  0  0  0  0  0
   -3.0477   -2.6254   -0.5217 H   0  0  0  0  0  0  0  0  0  0  0  0
   -1.2337   -2.1564    0.4993 C   0  0  0  0  0  0  0  0  0  0  0  0
   -0.3327   -2.8864    0.8893 O   0  0  0  0  0  0  0  0  0  0  0  0
   -1.0277   -0.9164    0.0623 N   0  0  0  0  0  0  0  0  0  0  0  0
   -1.8237   -0.3604   -0.2157 H   0  0  0  0  0  0  0  0  0  0  0  0
    0.2713   -0.2414    0.0463 C   0  0  1  0  0  0  0  0  0  0  0  0
    0.2108    0.6209   -0.6206 H   0  0  0  0  0  0  0  0  0  0  0  0
    0.5770    0.2629    1.4663 C   0  0  0  0  0  0  0  0  0  0  0  0
    0.5091   -0.5769    2.1614 H   0  0  0  0  0  0  0  0  0  0  0  0
    1.5917    0.6649    1.4992 H   0  0  0  0  0  0  0  0  0  0  0  0
   -0.6097    1.5392    1.9800 S   0  0  0  0  0  0  0  0  0  0  0  0
   -0.1721    1.6754    3.2376 H   0  0  0  0  0  0  0  0  0  0  0  0
    1.3564   -1.1919   -0.4997 C   0  0  0  0  0  0  0  0  0  0  0  0
    1.7963   -1.0317   -1.6387 O   0  0  0  0  0  0  0  0  0  0  0  0
    1.7916   -2.1691    0.3041 N   0  0  0  0  0  0  0  0  0  0  0  0
    1.3344   -2.2711    1.1986 H   0  0  0  0  0  0  0  0  0  0  0  0
    2.8183   -3.1430   -0.0622 C   0  0  0  0  0  0  0  0  0  0  0  0
    3.6914   -2.6254   -0.4660 H   0  0  0  0  0  0  0  0  0  0  0  0
    3.1168   -3.7230    0.8118 H   0  0  0  0  0  0  0  0  0  0  0  0
    2.4281   -3.8168   -0.8269 H   0  0  0  0  0  0  0  0  0  0  0  0
  5  6  2  0  0  0  0
  5  7  1  0  0  0  0
  2  3  1  0  0  0  0
  2  4  1  0  0  0  0
  2  5  1  0  0  0  0
  1  2  1  0  0  0  0
 16 17  2  0  0  0  0
 16 18  1  0  0  0  0
 14 15  1  0  0  0  0
 11 12  1  0  0  0  0
 11 13  1  0  0  0  0
 11 14  1  0  0  0  0
  9 10  1  0  0  0  0
  9 11  1  0  0  0  0
  9 16  1  0  0  0  0
  7  8  1  0  0  0  0
  7  9  1  0  0  0  0
 20 21  1  0  0  0  0
 20 22  1  0  0  0  0
 20 23  1  0  0  0  0
 18 19  1  0  0  0  0
 18 20  1  0  0  0  0
M  END
$$$$
default_name
  -OEChem-01062215323D

 23 22  0     1  0  0  0  0  0999 V2000
   -2.6857   -3.6684    0.8743 H   0  0  0  0  0  0  0  0  0  0  0  0
   -2.6617   -2.6474    0.4953 C   0  0  0  0  0  0  0  0  0  0  0  0
   -3.2657   -2.0054    1.1353 H   0  0  0  0  0  0  0  0  0  0  0  0
   -3.0477   -2.6254   -0.5217 H   0  0  0  0  0  0  0  0  0  0  0  0
   -1.2337   -2.1564    0.4993 C   0  0  0  0  0  0  0  0  0  0  0  0
   -0.3327   -2.8864    0.8893 O   0  0  0  0  0  0  0  0  0  0  0  0
   -1.0277   -0.9164    0.0623 N   0  0  0  0  0  0  0  0  0  0  0  0
   -1.8237   -0.3604   -0.2157 H   0  0  0  0  0  0  0  0  0  0  0  0
    0.2713   -0.2414    0.0463 C   0  0  1  0  0  0  0  0  0  0  0  0
    0.2108    0.6209   -0.6206 H   0  0  0  0  0  0  0  0  0  0  0  0
    0.5770    0.2629    1.4663 C   0  0  0  0  0  0  0  0  0  0  0  0
    0.5091   -0.5769    2.1614 H   0  0  0  0  0  0  0  0  0  0  0  0
    1.5917    0.6649    1.4992 H   0  0  0  0  0  0  0  0  0  0  0  0
   -0.6097    1.5392    1.9800 S   0  0  0  0  0  0  0  0  0  0  0  0
   -0.1721    1.6754    3.2376 H   0  0  0  0  0  0  0  0  0  0  0  0
    1.3564   -1.1919   -0.4997 C   0  0  0  0  0  0  0  0  0  0  0  0
    1.9924   -0.8830   -1.5080 O   0  0  0  0  0  0  0  0  0  0  0  0
    1.5739   -2.3351    0.1607 N   0  0  0  0  0  0  0  0  0  0  0  0
    0.9665   -2.5425    0.9402 H   0  0  0  0  0  0  0  0  0  0  0  0
    2.5697   -3.3337   -0.2242 C   0  0  0  0  0  0  0  0  0  0  0  0
    3.5354   -2.8495   -0.3860 H   0  0  0  0  0  0  0  0  0  0  0  0
    2.6717   -4.0859    0.5588 H   0  0  0  0  0  0  0  0  0  0  0  0
    2.2629   -3.8182   -1.1528 H   0  0  0  0  0  0  0  0  0  0  0  0
  5  6  2  0  0  0  0
  5  7  1  0  0  0  0
  2  3  1  0  0  0  0
  2  4  1  0  0  0  0
  2  5  1  0  0  0  0
  1  2  1  0  0  0  0
 16 17  2  0  0  0  0
 16 18  1  0  0  0  0
 14 15  1  0  0  0  0
 11 12  1  0  0  0  0
 11 13  1  0  0  0  0
 11 14  1  0  0  0  0
  9 10  1  0  0  0  0
  9 11  1  0  0  0  0
  9 16  1  0  0  0  0
  7  8  1  0  0  0  0
  7  9  1  0  0  0  0
 20 21  1  0  0  0  0
 20 22  1  0  0  0  0
 20 23  1  0  0  0  0
 18 19  1  0  0  0  0
 18 20  1  0  0  0  0
M  END
$$$$
default_name
  -OEChem-01062215323D

 23 22  0     1  0  0  0  0  0999 V2000
   -2.6857   -3.6684    0.8743 H   0  0  0  0  0  0  0  0  0  0  0  0
   -2.6617   -2.6474    0.4953 C   0  0  0  0  0  0  0  0  0  0  0  0
   -3.2657   -2.0054    1.1353 H   0  0  0  0  0  0  0  0  0  0  0  0
   -3.0477   -2.6254   -0.5217 H   0  0  0  0  0  0  0  0  0  0  0  0
   -1.2337   -2.1564    0.4993 C   0  0  0  0  0  0  0  0  0  0  0  0
   -0.3327   -2.8864    0.8893 O   0  0  0  0  0  0  0  0  0  0  0  0
   -1.0277   -0.9164    0.0623 N   0  0  0  0  0  0  0  0  0  0  0  0
   -1.8237   -0.3604   -0.2157 H   0  0  0  0  0  0  0  0  0  0  0  0
    0.2713   -0.2414    0.0463 C   0  0  1  0  0  0  0  0  0  0  0  0
    0.2108    0.6209   -0.6206 H   0  0  0  0  0  0  0  0  0  0  0  0
    0.5770    0.2629    1.4663 C   0  0  0  0  0  0  0  0  0  0  0  0
    0.5091   -0.5769    2.1614 H   0  0  0  0  0  0  0  0  0  0  0  0
    1.5917    0.6649    1.4992 H   0  0  0  0  0  0  0  0  0  0  0  0
   -0.6097    1.5392    1.9800 S   0  0  0  0  0  0  0  0  0  0  0  0
   -0.1721    1.6754    3.2376 H   0  0  0  0  0  0  0  0  0  0  0  0
    1.3564   -1.1919   -0.4997 C   0  0  0  0  0  0  0  0  0  0  0  0
    2.1746   -0.7811   -1.3233 O   0  0  0  0  0  0  0  0  0  0  0  0
    1.3714   -2.4494   -0.0428 N   0  0  0  0  0  0  0  0  0  0  0  0
    0.6275   -2.7240    0.5824 H   0  0  0  0  0  0  0  0  0  0  0  0
    2.3379   -3.4656   -0.4551 C   0  0  0  0  0  0  0  0  0  0  0  0
    3.3514   -3.0662   -0.3745 H   0  0  0  0  0  0  0  0  0  0  0  0
    2.2488   -4.3496    0.1775 H   0  0  0  0  0  0  0  0  0  0  0  0
    2.1552   -3.7451   -1.4941 H   0  0  0  0  0  0  0  0  0  0  0  0
  5  6  2  0  0  0  0
  5  7  1  0  0  0  0
  2  3  1  0  0  0  0
  2  4  1  0  0  0  0
  2  5  1  0  0  0  0
  1  2  1  0  0  0  0
 16 17  2  0  0  0  0
 16 18  1  0  0  0  0
 14 15  1  0  0  0  0
 11 12  1  0  0  0  0
 11 13  1  0  0  0  0
 11 14  1  0  0  0  0
  9 10  1  0  0  0  0
  9 11  1  0  0  0  0
  9 16  1  0  0  0  0
  7  8  1  0  0  0  0
  7  9  1  0  0  0  0
 20 21  1  0  0  0  0
 20 22  1  0  0  0  0
 20 23  1  0  0  0  0
 18 19  1  0  0  0  0
 18 20  1  0  0  0  0
M  END
$$$$
default_name
  -OEChem-01062215323D

 23 22  0     1  0  0  0  0  0999 V2000
   -2.6857   -3.6684    0.8743 H   0  0  0  0  0  0  0  0  0  0  0  0
   -2.6617   -2.6474    0.4953 C   0  0  0  0  0  0  0  0  0  0  0  0
   -3.2657   -2.0054    1.1353 H   0  0  0  0  0  0  0  0  0  0  0  0
   -3.0477   -2.6254   -0.5217 H   0  0  0  0  0  0  0  0  0  0  0  0
   -1.2337   -2.1564    0.4993 C   0  0  0  0  0  0  0  0  0  0  0  0
   -0.3327   -2.8864    0.8893 O   0  0  0  0  0  0  0  0  0  0  0  0
   -1.0277   -0.9164    0.0623 N   0  0  0  0  0  0  0  0  0  0  0  0
   -1.8237   -0.3604   -0.2157 H   0  0  0  0  0  0  0  0  0  0  0  0
    0.2713   -0.2414    0.0463 C   0  0  1  0  0  0  0  0  0  0  0  0
    0.2108    0.6209   -0.6206 H   0  0  0  0  0  0  0  0  0  0  0  0
    0.5770    0.2629    1.4663 C   0  0  0  0  0  0  0  0  0  0  0  0
    0.5091   -0.5769    2.1614 H   0  0  0  0  0  0  0  0  0  0  0  0
    1.5917    0.6649    1.4992 H   0  0  0  0  0  0  0  0  0  0  0  0
   -0.6097    1.5392    1.9800 S   0  0  0  0  0  0  0  0  0  0  0  0
   -0.1721    1.6754    3.2376 H   0  0  0  0  0  0  0  0  0  0  0  0
    1.3564   -1.1919   -0.4997 C   0  0  0  0  0  0  0  0  0  0  0  0
    2.3304   -0.7330   -1.0974 O   0  0  0  0  0  0  0  0  0  0  0  0
    1.1977   -2.5042   -0.2924 N   0  0  0  0  0  0  0  0  0  0  0  0
    0.3405   -2.8030    0.1498 H   0  0  0  0  0  0  0  0  0  0  0  0
    2.1388   -3.5298   -0.7391 C   0  0  0  0  0  0  0  0  0  0  0  0
    3.1520   -3.2607   -0.4321 H   0  0  0  0  0  0  0  0  0  0  0  0
    1.8770   -4.4961   -0.3063 H   0  0  0  0  0  0  0  0  0  0  0  0
    2.1122   -3.6025   -1.8277 H   0  0  0  0  0  0  0  0  0  0  0  0
  5  6  2  0  0  0  0
  5  7  1  0  0  0  0
  2  3  1  0  0  0  0
  2  4  1  0  0  0  0
  2  5  1  0  0  0  0
  1  2  1  0  0  0  0
 16 17  2  0  0  0  0
 16 18  1  0  0  0  0
 14 15  1  0  0  0  0
 11 12  1  0  0  0  0
 11 13  1  0  0  0  0
 11 14  1  0  0  0  0
  9 10  1  0  0  0  0
  9 11  1  0  0  0  0
  9 16  1  0  0  0  0
  7  8  1  0  0  0  0
  7  9  1  0  0  0  0
 20 21  1  0  0  0  0
 20 22  1  0  0  0  0
 20 23  1  0  0  0  0
 18 19  1  0  0  0  0
 18 20  1  0  0  0  0
M  END
$$$$
default_name
  -OEChem-01062215323D

 23 22  0     1  0  0  0  0  0999 V2000
   -2.6857   -3.6684    0.8743 H   0  0  0  0  0  0  0  0  0  0  0  0
   -2.6617   -2.6474    0.4953 C   0  0  0  0  0  0  0  0  0  0  0  0
   -3.2657   -2.0054    1.1353 H   0  0  0  0  0  0  0  0  0  0  0  0
   -3.0477   -2.6254   -0.5217 H   0  0  0  0  0  0  0  0  0  0  0  0
   -1.2337   -2.1564    0.4993 C   0  0  0  0  0  0  0  0  0  0  0  0
   -0.3327   -2.8864    0.8893 O   0  0  0  0  0  0  0  0  0  0  0  0
   -1.0277   -0.9164    0.0623 N   0  0  0  0  0  0  0  0  0  0  0  0
   -1.8237   -0.3604   -0.2157 H   0  0  0  0  0  0  0  0  0  0  0  0
    0.2713   -0.2414    0.0463 C   0  0  1  0  0  0  0  0  0  0  0  0
    0.2108    0.6209   -0.6206 H   0  0  0  0  0  0  0  0  0  0  0  0
    0.5770    0.2629    1.4663 C   0  0  0  0  0  0  0  0  0  0  0  0
    0.5091   -0.5769    2.1614 H   0  0  0  0  0  0  0  0  0  0  0  0
    1.5917    0.6649    1.4992 H   0  0  0  0  0  0  0  0  0  0  0  0
   -0.6097    1.5392    1.9800 S   0  0  0  0  0  0  0  0  0  0  0  0
   -0.1721    1.6754    3.2376 H   0  0  0  0  0  0  0  0  0  0  0  0
    1.3564   -1.1919   -0.4997 C   0  0  0  0  0  0  0  0  0  0  0  0
    2.4493   -0.7420   -0.8455 O   0  0  0  0  0  0  0  0  0  0  0  0
    1.0648   -2.4958   -0.5713 N   0  0  0  0  0  0  0  0  0  0  0  0
    0.1251   -2.7743   -0.3283 H   0  0  0  0  0  0  0  0  0  0  0  0
    1.9858   -3.5218   -1.0569 C   0  0  0  0  0  0  0  0  0  0  0  0
    2.9507   -3.4198   -0.5551 H   0  0  0  0  0  0  0  0  0  0  0  0
    1.5816   -4.5154   -0.8597 H   0  0  0  0  0  0  0  0  0  0  0  0
    2.1370   -3.4000   -2.1308 H   0  0  0  0  0  0  0  0  0  0  0  0
  5  6  2  0  0  0  0
  5  7  1  0  0  0  0
  2  3  1  0  0  0  0
  2  4  1  0  0  0  0
  2  5  1  0  0  0  0
  1  2  1  0  0  0  0
 16 17  2  0  0  0  0
 16 18  1  0  0  0  0
 14 15  1  0  0  0  0
 11 12  1  0  0  0  0
 11 13  1  0  0  0  0
 11 14  1  0  0  0  0
  9 10  1  0  0  0  0
  9 11  1  0  0  0  0
  9 16  1  0  0  0  0
  7  8  1  0  0  0  0
  7  9  1  0  0  0  0
 20 21  1  0  0  0  0
 20 22  1  0  0  0  0
 20 23  1  0  0  0  0
 18 19  1  0  0  0  0
 18 20  1  0  0  0  0
M  END
$$$$
default_name
  -OEChem-01062215323D

 23 22  0     1  0  0  0  0  0999 V2000
   -2.6857   -3.6684    0.8743 H   0  0  0  0  0  0  0  0  0  0  0  0
   -2.6617   -2.6474    0.4953 C   0  0  0  0  0  0  0  0  0  0  0  0
   -3.2657   -2.0054    1.1353 H   0  0  0  0  0  0  0  0  0  0  0  0
   -3.0477   -2.6254   -0.5217 H   0  0  0  0  0  0  0  0  0  0  0  0
   -1.2337   -2.1564    0.4993 C   0  0  0  0  0  0  0  0  0  0  0  0
   -0.3327   -2.8864    0.8893 O   0  0  0  0  0  0  0  0  0  0  0  0
   -1.0277   -0.9164    0.0623 N   0  0  0  0  0  0  0  0  0  0  0  0
   -1.8237   -0.3604   -0.2157 H   0  0  0  0  0  0  0  0  0  0  0  0
    0.2713   -0.2414    0.0463 C   0  0  1  0  0  0  0  0  0  0  0  0
    0.2108    0.6209   -0.6206 H   0  0  0  0  0  0  0  0  0  0  0  0
    0.5770    0.2629    1.4663 C   0  0  0  0  0  0  0  0  0  0  0  0
    0.5091   -0.5769    2.1614 H   0  0  0  0  0  0  0  0  0  0  0  0
    1.5917    0.6649    1.4992 H   0  0  0  0  0  0  0  0  0  0  0  0
   -0.6097    1.5392    1.9800 S   0  0  0  0  0  0  0  0  0  0  0  0
   -0.1721    1.6754    3.2376 H   0  0  0  0  0  0  0  0  0  0  0  0
    1.3564   -1.1919   -0.4997 C   0  0  0  0  0  0  0  0  0  0  0  0
    2.5232   -0.8074   -0.5849 O   0  0  0  0  0  0  0  0  0  0  0  0
    0.9816   -2.4248   -0.8603 N   0  0  0  0  0  0  0  0  0  0  0  0
   -0.0041   -2.6398   -0.8192 H   0  0  0  0  0  0  0  0  0  0  0  0
    1.8895   -3.4423   -1.3868 C   0  0  0  0  0  0  0  0  0  0  0  0
    2.7613   -3.5327   -0.7349 H   0  0  0  0  0  0  0  0  0  0  0  0
    1.3827   -4.4063   -1.4448 H   0  0  0  0  0  0  0  0  0  0  0  0
    2.2279   -3.1516   -2.3828 H   0  0  0  0  0  0  0  0  0  0  0  0
  5  6  2  0  0  0  0
  5  7  1  0  0  0  0
  2  3  1  0  0  0  0
  2  4  1  0  0  0  0
  2  5  1  0  0  0  0
  1  2  1  0  0  0  0
 16 17  2  0  0  0  0
 16 18  1  0  0  0  0
 14 15  1  0  0  0  0
 11 12  1  0  0  0  0
 11 13  1  0  0  0  0
 11 14  1  0  0  0  0
  9 10  1  0  0  0  0
  9 11  1  0  0  0  0
  9 16  1  0  0  0  0
  7  8  1  0  0  0  0
  7  9  1  0  0  0  0
 20 21  1  0  0  0  0
 20 22  1  0  0  0  0
 20 23  1  0  0  0  0
 18 19  1  0  0  0  0
 18 20  1  0  0  0  0
M  END
$$$$
default_name
  -OEChem-01062215323D

 23 22  0     1  0  0  0  0  0999 V2000
   -2.6857   -3.6684    0.8743 H   0  0  0  0  0  0  0  0  0  0  0  0
   -2.6617   -2.6474    0.4953 C   0  0  0  0  0  0  0  0  0  0  0  0
   -3.2657   -2.0054    1.1353 H   0  0  0  0  0  0  0  0  0  0  0  0
   -3.0477   -2.6254   -0.5217 H   0  0  0  0  0  0  0  0  0  0  0  0
   -1.2337   -2.1564    0.4993 C   0  0  0  0  0  0  0  0  0  0  0  0
   -0.3327   -2.8864    0.8893 O   0  0  0  0  0  0  0  0  0  0  0  0
   -1.0277   -0.9164    0.0623 N   0  0  0  0  0  0  0  0  0  0  0  0
   -1.8237   -0.3604   -0.2157 H   0  0  0  0  0  0  0  0  0  0  0  0
    0.2713   -0.2414    0.0463 C   0  0  1  0  0  0  0  0  0  0  0  0
    0.2108    0.6209   -0.6206 H   0  0  0  0  0  0  0  0  0  0  0  0
    0.5770    0.2629    1.4663 C   0  0  0  0  0  0  0  0  0  0  0  0
    0.5091   -0.5769    2.1614 H   0  0  0  0  0  0  0  0  0  0  0  0
    1.5917    0.6649    1.4992 H   0  0  0  0  0  0  0  0  0  0  0  0
   -0.6097    1.5392    1.9800 S   0  0  0  0  0  0  0  0  0  0  0  0
   -0.1721    1.6754    3.2376 H   0  0  0  0  0  0  0  0  0  0  0  0
    1.3564   -1.1919   -0.4997 C   0  0  0  0  0  0  0  0  0  0  0  0
    2.5469   -0.9248   -0.3333 O   0  0  0  0  0  0  0  0  0  0  0  0
    0.9539   -2.2959   -1.1398 N   0  0  0  0  0  0  0  0  0  0  0  0
   -0.0383   -2.4087   -1.2895 H   0  0  0  0  0  0  0  0  0  0  0  0
    1.8564   -3.2965   -1.7063 C   0  0  0  0  0  0  0  0  0  0  0  0
    2.5967   -3.5917   -0.9593 H   0  0  0  0  0  0  0  0  0  0  0  0
    1.2940   -4.1761   -2.0218 H   0  0  0  0  0  0  0  0  0  0  0  0
    2.3786   -2.8740   -2.5664 H   0  0  0  0  0  0  0  0  0  0  0  0
  5  6  2  0  0  0  0
  5  7  1  0  0  0  0
  2  3  1  0  0  0  0
  2  4  1  0  0  0  0
  2  5  1  0  0  0  0
  1  2  1  0  0  0  0
 16 17  2  0  0  0  0
 16 18  1  0  0  0  0
 14 15  1  0  0  0  0
 11 12  1  0  0  0  0
 11 13  1  0  0  0  0
 11 14  1  0  0  0  0
  9 10  1  0  0  0  0
  9 11  1  0  0  0  0
  9 16  1  0  0  0  0
  7  8  1  0  0  0  0
  7  9  1  0  0  0  0
 20 21  1  0  0  0  0
 20 22  1  0  0  0  0
 20 23  1  0  0  0  0
 18 19  1  0  0  0  0
 18 20  1  0  0  0  0
M  END
$$$$
default_name
  -OEChem-01062215323D

 23 22  0     1  0  0  0  0  0999 V2000
   -2.6857   -3.6684    0.8743 H   0  0  0  0  0  0  0  0  0  0  0  0
   -2.6617   -2.6474    0.4953 C   0  0  0  0  0  0  0  0  0  0  0  0
   -3.2657   -2.0054    1.1353 H   0  0  0  0  0  0  0  0  0  0  0  0
   -3.0477   -2.6254   -0.5217 H   0  0  0  0  0  0  0  0  0  0  0  0
   -1.2337   -2.1564    0.4993 C   0  0  0  0  0  0  0  0  0  0  0  0
   -0.3327   -2.8864    0.8893 O   0  0  0  0  0  0  0  0  0  0  0  0
   -1.0277   -0.9164    0.0623 N   0  0  0  0  0  0  0  0  0  0  0  0
   -1.8237   -0.3604   -0.2157 H   0  0  0  0  0  0  0  0  0  0  0  0
    0.2713   -0.2414    0.0463 C   0  0  1  0  0  0  0  0  0  0  0  0
    0.2108    0.6209   -0.6206 H   0  0  0  0  0  0  0  0  0  0  0  0
    0.5770    0.2629    1.4663 C   0  0  0  0  0  0  0  0  0  0  0  0
    0.5091   -0.5769    2.1614 H   0  0  0  0  0  0  0  0  0  0  0  0
    1.5917    0.6649    1.4992 H   0  0  0  0  0  0  0  0  0  0  0  0
   -0.6097    1.5392    1.9800 S   0  0  0  0  0  0  0  0  0  0  0  0
   -0.1721    1.6754    3.2376 H   0  0  0  0  0  0  0  0  0  0  0  0
    1.3564   -1.1919   -0.4997 C   0  0  0  0  0  0  0  0  0  0  0  0
    2.5190   -1.0862   -0.1079 O   0  0  0  0  0  0  0  0  0  0  0  0
    0.9835   -2.1179   -1.3907 N   0  0  0  0  0  0  0  0  0  0  0  0
    0.0248   -2.0966   -1.7072 H   0  0  0  0  0  0  0  0  0  0  0  0
    1.8887   -3.0945   -1.9937 C   0  0  0  0  0  0  0  0  0  0  0  0
    2.4681   -3.5927   -1.2131 H   0  0  0  0  0  0  0  0  0  0  0  0
    1.3214   -3.8406   -2.5514 H   0  0  0  0  0  0  0  0  0  0  0  0
    2.5789   -2.5863   -2.6692 H   0  0  0  0  0  0  0  0  0  0  0  0
  5  6  2  0  0  0  0
  5  7  1  0  0  0  0
  2  3  1  0  0  0  0
  2  4  1  0  0  0  0
  2  5  1  0  0  0  0
  1  2  1  0  0  0  0
 16 17  2  0  0  0  0
 16 18  1  0  0  0  0
 14 15  1  0  0  0  0
 11 12  1  0  0  0  0
 11 13  1  0  0  0  0
 11 14  1  0  0  0  0
  9 10  1  0  0  0  0
  9 11  1  0  0  0  0
  9 16  1  0  0  0  0
  7  8  1  0  0  0  0
  7  9  1  0  0  0  0
 20 21  1  0  0  0  0
 20 22  1  0  0  0  0
 20 23  1  0  0  0  0
 18 19  1  0  0  0  0
 18 20  1  0  0  0  0
M  END
$$$$
default_name
  -OEChem-01062215323D

 23 22  0     1  0  0  0  0  0999 V2000
   -2.6857   -3.6684    0.8743 H   0  0  0  0  0  0  0  0  0  0  0  0
   -2.6617   -2.6474    0.4953 C   0  0  0  0  0  0  0  0  0  0  0  0
   -3.2657   -2.0054    1.1353 H   0  0  0  0  0  0  0  0  0  0  0  0
   -3.0477   -2.6254   -0.5217 H   0  0  0  0  0  0  0  0  0  0  0  0
   -1.2337   -2.1564    0.4993 C   0  0  0  0  0  0  0  0  0  0  0  0
   -0.3327   -2.8864    0.8893 O   0  0  0  0  0  0  0  0  0  0  0  0
   -1.0277   -0.9164    0.0623 N   0  0  0  0  0  0  0  0  0  0  0  0
   -1.8237   -0.3604   -0.2157 H   0  0  0  0  0  0  0  0  0  0  0  0
    0.2713   -0.2414    0.0463 C   0  0  1  0  0  0  0  0  0  0  0  0
    0.2108    0.6209   -0.6206 H   0  0  0  0  0  0  0  0  0  0  0  0
    0.5770    0.2629    1.4663 C   0  0  0  0  0  0  0  0  0  0  0  0
    0.5091   -0.5769    2.1614 H   0  0  0  0  0  0  0  0  0  0  0  0
    1.5917    0.6649    1.4992 H   0  0  0  0  0  0  0  0  0  0  0  0
   -0.6097    1.5392    1.9800 S   0  0  0  0  0  0  0  0  0  0  0  0
   -0.1721    1.6754    3.2376 H   0  0  0  0  0  0  0  0  0  0  0  0
    1.3564   -1.1919   -0.4997 C   0  0  0  0  0  0  0  0  0  0  0  0
    2.4413   -1.2806    0.0761 O   0  0  0  0  0  0  0  0  0  0  0  0
    1.0684   -1.9031   -1.5959 N   0  0  0  0  0  0  0  0  0  0  0  0
    0.1811   -1.7249   -2.0438 H   0  0  0  0  0  0  0  0  0  0  0  0
    1.9843   -2.8501   -2.2293 C   0  0  0  0  0  0  0  0  0  0  0  0
    2.3843   -3.5357   -1.4789 H   0  0  0  0  0  0  0  0  0  0  0  0
    1.4631   -3.4226   -2.9974 H   0  0  0  0  0  0  0  0  0  0  0  0
    2.8151   -2.3080   -2.6842 H   0  0  0  0  0  0  0  0  0  0  0  0
  5  6  2  0  0  0  0
  5  7  1  0  0  0  0
  2  3  1  0  0  0  0
  2  4  1  0  0  0  0
  2  5  1  0  0  0  0
  1  2  1  0  0  0  0
 16 17  2  0  0  0  0
 16 18  1  0  0  0  0
 14 15  1  0  0  0  0
 11 12  1  0  0  0  0
 11 13  1  0  0  0  0
 11 14  1  0  0  0  0
  9 10  1  0  0  0  0
  9 11  1  0  0  0  0
  9 16  1  0  0  0  0
  7  8  1  0  0  0  0
  7  9  1  0  0  0  0
 20 21  1  0  0  0  0
 20 22  1  0  0  0  0
 20 23  1  0  0  0  0
 18 19  1  0  0  0  0
 18 20  1  0  0  0  0
M  END
$$$$
default_name
  -OEChem-01062215323D

 23 22  0     1  0  0  0  0  0999 V2000
   -2.6857   -3.6684    0.8743 H   0  0  0  0  0  0  0  0  0  0  0  0
   -2.6617   -2.6474    0.4953 C   0  0  0  0  0  0  0  0  0  0  0  0
   -3.2657   -2.0054    1.1353 H   0  0  0  0  0  0  0  0  0  0  0  0
   -3.0477   -2.6254   -0.5217 H   0  0  0  0  0  0  0  0  0  0  0  0
   -1.2337   -2.1564    0.4993 C   0  0  0  0  0  0  0  0  0  0  0  0
   -0.3327   -2.8864    0.8893 O   0  0  0  0  0  0  0  0  0  0  0  0
   -1.0277   -0.9164    0.0623 N   0  0  0  0  0  0  0  0  0  0  0  0
   -1.8237   -0.3604   -0.2157 H   0  0  0  0  0  0  0  0  0  0  0  0
    0.2713   -0.2414    0.0463 C   0  0  1  0  0  0  0  0  0  0  0  0
    0.2108    0.6209   -0.6206 H   0  0  0  0  0  0  0  0  0  0  0  0
    0.5770    0.2629    1.4663 C   0  0  0  0  0  0  0  0  0  0  0  0
    0.5091   -0.5769    2.1614 H   0  0  0  0  0  0  0  0  0  0  0  0
    1.5917    0.6649    1.4992 H   0  0  0  0  0  0  0  0  0  0  0  0
   -0.6097    1.5392    1.9800 S   0  0  0  0  0  0  0  0  0  0  0  0
   -0.1721    1.6754    3.2376 H   0  0  0  0  0  0  0  0  0  0  0  0
    1.3564   -1.1919   -0.4997 C   0  0  0  0  0  0  0  0  0  0  0  0
    2.3191   -1.4947    0.2059 O   0  0  0  0  0  0  0  0  0  0  0  0
    1.2028   -1.6660   -1.7415 N   0  0  0  0  0  0  0  0  0  0  0  0
    0.4197   -1.3190   -2.2762 H   0  0  0  0  0  0  0  0  0  0  0  0
    2.1366   -2.5798   -2.3972 C   0  0  0  0  0  0  0  0  0  0  0  0
    2.3510   -3.4245   -1.7387 H   0  0  0  0  0  0  0  0  0  0  0  0
    1.7093   -2.9506   -3.3296 H   0  0  0  0  0  0  0  0  0  0  0  0
    3.0712   -2.0581   -2.6104 H   0  0  0  0  0  0  0  0  0  0  0  0
  5  6  2  0  0  0  0
  5  7  1  0  0  0  0
  2  3  1  0  0  0  0
  2  4  1  0  0  0  0
  2  5  1  0  0  0  0
  1  2  1  0  0  0  0
 16 17  2  0  0  0  0
 16 18  1  0  0  0  0
 14 15  1  0  0  0  0
 11 12  1  0  0  0  0
 11 13  1  0  0  0  0
 11 14  1  0  0  0  0
  9 10  1  0  0  0  0
  9 11  1  0  0  0  0
  9 16  1  0  0  0  0
  7  8  1  0  0  0  0
  7  9  1  0  0  0  0
 20 21  1  0  0  0  0
 20 22  1  0  0  0  0
 20 23  1  0  0  0  0
 18 19  1  0  0  0  0
 18 20  1  0  0  0  0
M  END
$$$$
default_name
  -OEChem-01062215323D

 23 22  0     1  0  0  0  0  0999 V2000
   -2.6857   -3.6684    0.8743 H   0  0  0  0  0  0  0  0  0  0  0  0
   -2.6617   -2.6474    0.4953 C   0  0  0  0  0  0  0  0  0  0  0  0
   -3.2657   -2.0054    1.1353 H   0  0  0  0  0  0  0  0  0  0  0  0
   -3.0477   -2.6254   -0.5217 H   0  0  0  0  0  0  0  0  0  0  0  0
   -1.2337   -2.1564    0.4993 C   0  0  0  0  0  0  0  0  0  0  0  0
   -0.3327   -2.8864    0.8893 O   0  0  0  0  0  0  0  0  0  0  0  0
   -1.0277   -0.9164    0.0623 N   0  0  0  0  0  0  0  0  0  0  0  0
   -1.8237   -0.3604   -0.2157 H   0  0  0  0  0  0  0  0  0  0  0  0
    0.2713   -0.2414    0.0463 C   0  0  1  0  0  0  0  0  0  0  0  0
    0.2108    0.6209   -0.6206 H   0  0  0  0  0  0  0  0  0  0  0  0
    0.5770    0.2629    1.4663 C   0  0  0  0  0  0  0  0  0  0  0  0
    0.5091   -0.5769    2.1614 H   0  0  0  0  0  0  0  0  0  0  0  0
    1.5917    0.6649    1.4992 H   0  0  0  0  0  0  0  0  0  0  0  0
   -0.6097    1.5392    1.9800 S   0  0  0  0  0  0  0  0  0  0  0  0
   -0.1721    1.6754    3.2376 H   0  0  0  0  0  0  0  0  0  0  0  0
    1.3564   -1.1919   -0.4997 C   0  0  0  0  0  0  0  0  0  0  0  0
    2.1607   -1.7140    0.2729 O   0  0  0  0  0  0  0  0  0  0  0  0
    1.3776   -1.4227   -1.8176 N   0  0  0  0  0  0  0  0  0  0  0  0
    0.7245   -0.9064   -2.3888 H   0  0  0  0  0  0  0  0  0  0  0  0
    2.3352   -2.3021   -2.4858 C   0  0  0  0  0  0  0  0  0  0  0  0
    2.3704   -3.2668   -1.9746 H   0  0  0  0  0  0  0  0  0  0  0  0
    2.0435   -2.4567   -3.5253 H   0  0  0  0  0  0  0  0  0  0  0  0
    3.3296   -1.8537   -2.4527 H   0  0  0  0  0  0  0  0  0  0  0  0
  5  6  2  0  0  0  0
  5  7  1  0  0  0  0
  2  3  1  0  0  0  0
  2  4  1  0  0  0  0
  2  5  1  0  0  0  0
  1  2  1  0  0  0  0
 16 17  2  0  0  0  0
 16 18  1  0  0  0  0
 14 15  1  0  0  0  0
 11 12  1  0  0  0  0
 11 13  1  0  0  0  0
 11 14  1  0  0  0  0
  9 10  1  0  0  0  0
  9 11  1  0  0  0  0
  9 16  1  0  0  0  0
  7  8  1  0  0  0  0
  7  9  1  0  0  0  0
 20 21  1  0  0  0  0
 20 22  1  0  0  0  0
 20 23  1  0  0  0  0
 18 19  1  0  0  0  0
 18 20  1  0  0  0  0
M  END
$$$$
default_name
  -OEChem-01062215323D

 23 22  0     1  0  0  0  0  0999 V2000
   -2.6857   -3.6684    0.8743 H   0  0  0  0  0  0  0  0  0  0  0  0
   -2.6617   -2.6474    0.4953 C   0  0  0  0  0  0  0  0  0  0  0  0
   -3.2657   -2.0054    1.1353 H   0  0  0  0  0  0  0  0  0  0  0  0
   -3.0477   -2.6254   -0.5217 H   0  0  0  0  0  0  0  0  0  0  0  0
   -1.2337   -2.1564    0.4993 C   0  0  0  0  0  0  0  0  0  0  0  0
   -0.3327   -2.8864    0.8893 O   0  0  0  0  0  0  0  0  0  0  0  0
   -1.0277   -0.9164    0.0623 N   0  0  0  0  0  0  0  0  0  0  0  0
   -1.8237   -0.3604   -0.2157 H   0  0  0  0  0  0  0  0  0  0  0  0
    0.2713   -0.2414    0.0463 C   0  0  1  0  0  0  0  0  0  0  0  0
    0.2108    0.6209   -0.6206 H   0  0  0  0  0  0  0  0  0  0  0  0
    0.5770    0.2629    1.4663 C   0  0  0  0  0  0  0  0  0  0  0  0
    0.5091   -0.5769    2.1614 H   0  0  0  0  0  0  0  0  0  0  0  0
    1.5917    0.6649    1.4992 H   0  0  0  0  0  0  0  0  0  0  0  0
   -0.6097    1.5392    1.9800 S   0  0  0  0  0  0  0  0  0  0  0  0
   -0.1721    1.6754    3.2376 H   0  0  0  0  0  0  0  0  0  0  0  0
    1.3564   -1.1919   -0.4997 C   0  0  0  0  0  0  0  0  0  0  0  0
    1.9770   -1.9234    0.2724 O   0  0  0  0  0  0  0  0  0  0  0  0
    1.5809   -1.1900   -1.8188 N   0  0  0  0  0  0  0  0  0  0  0  0
    1.0746   -0.5152   -2.3738 H   0  0  0  0  0  0  0  0  0  0  0  0
    2.5667   -2.0359   -2.4892 C   0  0  0  0  0  0  0  0  0  0  0  0
    2.4412   -3.0732   -2.1708 H   0  0  0  0  0  0  0  0  0  0  0  0
    2.4427   -1.9747   -3.5710 H   0  0  0  0  0  0  0  0  0  0  0  0
    3.5729   -1.7086   -2.2219 H   0  0  0  0  0  0  0  0  0  0  0  0
  5  6  2  0  0  0  0
  5  7  1  0  0  0  0
  2  3  1  0  0  0  0
  2  4  1  0  0  0  0
  2  5  1  0  0  0  0
  1  2  1  0  0  0  0
 16 17  2  0  0  0  0
 16 18  1  0  0  0  0
 14 15  1  0  0  0  0
 11 12  1  0  0  0  0
 11 13  1  0  0  0  0
 11 14  1  0  0  0  0
  9 10  1  0  0  0  0
  9 11  1  0  0  0  0
  9 16  1  0  0  0  0
  7  8  1  0  0  0  0
  7  9  1  0  0  0  0
 20 21  1  0  0  0  0
 20 22  1  0  0  0  0
 20 23  1  0  0  0  0
 18 19  1  0  0  0  0
 18 20  1  0  0  0  0
M  END
$$$$
default_name
  -OEChem-01062215323D

 23 22  0     1  0  0  0  0  0999 V2000
   -2.6857   -3.6684    0.8743 H   0  0  0  0  0  0  0  0  0  0  0  0
   -2.6617   -2.6474    0.4953 C   0  0  0  0  0  0  0  0  0  0  0  0
   -3.2657   -2.0054    1.1353 H   0  0  0  0  0  0  0  0  0  0  0  0
   -3.0477   -2.6254   -0.5217 H   0  0  0  0  0  0  0  0  0  0  0  0
   -1.2337   -2.1564    0.4993 C   0  0  0  0  0  0  0  0  0  0  0  0
   -0.3327   -2.8864    0.8893 O   0  0  0  0  0  0  0  0  0  0  0  0
   -1.0277   -0.9164    0.0623 N   0  0  0  0  0  0  0  0  0  0  0  0
   -1.8237   -0.3604   -0.2157 H   0  0  0  0  0  0  0  0  0  0  0  0
    0.2713   -0.2414    0.0463 C   0  0  1  0  0  0  0  0  0  0  0  0
    0.2108    0.6209   -0.6206 H   0  0  0  0  0  0  0  0  0  0  0  0
    0.5770    0.2629    1.4663 C   0  0  0  0  0  0  0  0  0  0  0  0
    0.5091   -0.5769    2.1614 H   0  0  0  0  0  0  0  0  0  0  0  0
    1.5917    0.6649    1.4992 H   0  0  0  0  0  0  0  0  0  0  0  0
   -0.6097    1.5392    1.9800 S   0  0  0  0  0  0  0  0  0  0  0  0
   -0.1721    1.6754    3.2376 H   0  0  0  0  0  0  0  0  0  0  0  0
    1.3564   -1.1919   -0.4997 C   0  0  0  0  0  0  0  0  0  0  0  0
    1.7803   -2.1089    0.2045 O   0  0  0  0  0  0  0  0  0  0  0  0
    1.7988   -0.9835   -1.7452 N   0  0  0  0  0  0  0  0  0  0  0  0
    1.4463   -0.1723   -2.2323 H   0  0  0  0  0  0  0  0  0  0  0  0
    2.8152   -1.7994   -2.4071 C   0  0  0  0  0  0  0  0  0  0  0  0
    2.5587   -2.8571   -2.3137 H   0  0  0  0  0  0  0  0  0  0  0  0
    2.8798   -1.5374   -3.4638 H   0  0  0  0  0  0  0  0  0  0  0  0
    3.7843   -1.6327   -1.9338 H   0  0  0  0  0  0  0  0  0  0  0  0
  5  6  2  0  0  0  0
  5  7  1  0  0  0  0
  2  3  1  0  0  0  0
  2  4  1  0  0  0  0
  2  5  1  0  0  0  0
  1  2  1  0  0  0  0
 16 17  2  0  0  0  0
 16 18  1  0  0  0  0
 14 15  1  0  0  0  0
 11 12  1  0  0  0  0
 11 13  1  0  0  0  0
 11 14  1  0  0  0  0
  9 10  1  0  0  0  0
  9 11  1  0  0  0  0
  9 16  1  0  0  0  0
  7  8  1  0  0  0  0
  7  9  1  0  0  0  0
 20 21  1  0  0  0  0
 20 22  1  0  0  0  0
 20 23  1  0  0  0  0
 18 19  1  0  0  0  0
 18 20  1  0  0  0  0
M  END
$$$$
default_name
  -OEChem-01062215323D

 23 22  0     1  0  0  0  0  0999 V2000
   -2.6857   -3.6684    0.8743 H   0  0  0  0  0  0  0  0  0  0  0  0
   -2.6617   -2.6474    0.4953 C   0  0  0  0  0  0  0  0  0  0  0  0
   -3.2657   -2.0054    1.1353 H   0  0  0  0  0  0  0  0  0  0  0  0
   -3.0477   -2.6254   -0.5217 H   0  0  0  0  0  0  0  0  0  0  0  0
   -1.2337   -2.1564    0.4993 C   0  0  0  0  0  0  0  0  0  0  0  0
   -0.3327   -2.8864    0.8893 O   0  0  0  0  0  0  0  0  0  0  0  0
   -1.0277   -0.9164    0.0623 N   0  0  0  0  0  0  0  0  0  0  0  0
   -1.8237   -0.3604   -0.2157 H   0  0  0  0  0  0  0  0  0  0  0  0
    0.2713   -0.2414    0.0463 C   0  0  1  0  0  0  0  0  0  0  0  0
    0.2108    0.6209   -0.6206 H   0  0  0  0  0  0  0  0  0  0  0  0
    0.5770    0.2629    1.4663 C   0  0  0  0  0  0  0  0  0  0  0  0
    0.5091   -0.5769    2.1614 H   0  0  0  0  0  0  0  0  0  0  0  0
    1.5917    0.6649    1.4992 H   0  0  0  0  0  0  0  0  0  0  0  0
   -0.6097    1.5392    1.9800 S   0  0  0  0  0  0  0  0  0  0  0  0
   -0.1721    1.6754    3.2376 H   0  0  0  0  0  0  0  0  0  0  0  0
    1.3564   -1.1919   -0.4997 C   0  0  0  0  0  0  0  0  0  0  0  0
    1.5843   -2.2576    0.0737 O   0  0  0  0  0  0  0  0  0  0  0  0
    2.0164   -0.8175   -1.6018 N   0  0  0  0  0  0  0  0  0  0  0  0
    1.8142    0.0992   -1.9738 H   0  0  0  0  0  0  0  0  0  0  0  0
    3.0638   -1.6087   -2.2451 C   0  0  0  0  0  0  0  0  0  0  0  0
    2.7147   -2.6330   -2.3936 H   0  0  0  0  0  0  0  0  0  0  0  0
    3.3249   -1.1745   -3.2109 H   0  0  0  0  0  0  0  0  0  0  0  0
    3.9495   -1.6313   -1.6079 H   0  0  0  0  0  0  0  0  0  0  0  0
  5  6  2  0  0  0  0
  5  7  1  0  0  0  0
  2  3  1  0  0  0  0
  2  4  1  0  0  0  0
  2  5  1  0  0  0  0
  1  2  1  0  0  0  0
 16 17  2  0  0  0  0
 16 18  1  0  0  0  0
 14 15  1  0  0  0  0
 11 12  1  0  0  0  0
 11 13  1  0  0  0  0
 11 14  1  0  0  0  0
  9 10  1  0  0  0  0
  9 11  1  0  0  0  0
  9 16  1  0  0  0  0
  7  8  1  0  0  0  0
  7  9  1  0  0  0  0
 20 21  1  0  0  0  0
 20 22  1  0  0  0  0
 20 23  1  0  0  0  0
 18 19  1  0  0  0  0
 18 20  1  0  0  0  0
M  END
$$$$
default_name
  -OEChem-01062215323D

 23 22  0     1  0  0  0  0  0999 V2000
   -2.6857   -3.6684    0.8743 H   0  0  0  0  0  0  0  0  0  0  0  0
   -2.6617   -2.6474    0.4953 C   0  0  0  0  0  0  0  0  0  0  0  0
   -3.2657   -2.0054    1.1353 H   0  0  0  0  0  0  0  0  0  0  0  0
   -3.0477   -2.6254   -0.5217 H   0  0  0  0  0  0  0  0  0  0  0  0
   -1.2337   -2.1564    0.4993 C   0  0  0  0  0  0  0  0  0  0  0  0
   -0.3327   -2.8864    0.8893 O   0  0  0  0  0  0  0  0  0  0  0  0
   -1.0277   -0.9164    0.0623 N   0  0  0  0  0  0  0  0  0  0  0  0
   -1.8237   -0.3604   -0.2157 H   0  0  0  0  0  0  0  0  0  0  0  0
    0.2713   -0.2414    0.0463 C   0  0  1  0  0  0  0  0  0  0  0  0
    0.2108    0.6209   -0.6206 H   0  0  0  0  0  0  0  0  0  0  0  0
    0.5770    0.2629    1.4663 C   0  0  0  0  0  0  0  0  0  0  0  0
    0.5091   -0.5769    2.1614 H   0  0  0  0  0  0  0  0  0  0  0  0
    1.5917    0.6649    1.4992 H   0  0  0  0  0  0  0  0  0  0  0  0
   -0.6097    1.5392    1.9800 S   0  0  0  0  0  0  0  0  0  0  0  0
   -0.1721    1.6754    3.2376 H   0  0  0  0  0  0  0  0  0  0  0  0
    1.3564   -1.1919   -0.4997 C   0  0  0  0  0  0  0  0  0  0  0  0
    1.4021   -2.3595   -0.1109 O   0  0  0  0  0  0  0  0  0  0  0  0
    2.2189   -0.7032   -1.3983 N   0  0  0  0  0  0  0  0  0  0  0  0
    2.1531    0.2806   -1.6161 H   0  0  0  0  0  0  0  0  0  0  0  0
    3.2956   -1.4767   -2.0142 C   0  0  0  0  0  0  0  0  0  0  0  0
    2.8987   -2.4163   -2.4052 H   0  0  0  0  0  0  0  0  0  0  0  0
    3.7478   -0.9109   -2.8295 H   0  0  0  0  0  0  0  0  0  0  0  0
    4.0573   -1.7044   -1.2666 H   0  0  0  0  0  0  0  0  0  0  0  0
  5  6  2  0  0  0  0
  5  7  1  0  0  0  0
  2  3  1  0  0  0  0
  2  4  1  0  0  0  0
  2  5  1  0  0  0  0
  1  2  1  0  0  0  0
 16 17  2  0  0  0  0
 16 18  1  0  0  0  0
 14 15  1  0  0  0  0
 11 12  1  0  0  0  0
 11 13  1  0  0  0  0
 11 14  1  0  0  0  0
  9 10  1  0  0  0  0
  9 11  1  0  0  0  0
  9 16  1  0  0  0  0
  7  8  1  0  0  0  0
  7  9  1  0  0  0  0
 20 21  1  0  0  0  0
 20 22  1  0  0  0  0
 20 23  1  0  0  0  0
 18 19  1  0  0  0  0
 18 20  1  0  0  0  0
M  END
$$$$
default_name
  -OEChem-01062215323D

 23 22  0     1  0  0  0  0  0999 V2000
   -2.6857   -3.6684    0.8743 H   0  0  0  0  0  0  0  0  0  0  0  0
   -2.6617   -2.6474    0.4953 C   0  0  0  0  0  0  0  0  0  0  0  0
   -3.2657   -2.0054    1.1353 H   0  0  0  0  0  0  0  0  0  0  0  0
   -3.0477   -2.6254   -0.5217 H   0  0  0  0  0  0  0  0  0  0  0  0
   -1.2337   -2.1564    0.4993 C   0  0  0  0  0  0  0  0  0  0  0  0
   -0.3327   -2.8864    0.8893 O   0  0  0  0  0  0  0  0  0  0  0  0
   -1.0277   -0.9164    0.0623 N   0  0  0  0  0  0  0  0  0  0  0  0
   -1.8237   -0.3604   -0.2157 H   0  0  0  0  0  0  0  0  0  0  0  0
    0.2713   -0.2414    0.0463 C   0  0  1  0  0  0  0  0  0  0  0  0
    0.2108    0.6209   -0.6206 H   0  0  0  0  0  0  0  0  0  0  0  0
    0.5770    0.2629    1.4663 C   0  0  0  0  0  0  0  0  0  0  0  0
    0.5091   -0.5769    2.1614 H   0  0  0  0  0  0  0  0  0  0  0  0
    1.5917    0.6649    1.4992 H   0  0  0  0  0  0  0  0  0  0  0  0
   -0.6097    1.5392    1.9800 S   0  0  0  0  0  0  0  0  0  0  0  0
   -0.1721    1.6754    3.2376 H   0  0  0  0  0  0  0  0  0  0  0  0
    1.3564   -1.1919   -0.4997 C   0  0  0  0  0  0  0  0  0  0  0  0
    1.2463   -2.4076   -0.3368 O   0  0  0  0  0  0  0  0  0  0  0  0
    2.3926   -0.6483   -1.1487 N   0  0  0  0  0  0  0  0  0  0  0  0
    2.4401    0.3597   -1.1834 H   0  0  0  0  0  0  0  0  0  0  0  0
    3.4947   -1.4125   -1.7302 C   0  0  0  0  0  0  0  0  0  0  0  0
    3.0981   -2.2218   -2.3475 H   0  0  0  0  0  0  0  0  0  0  0  0
    4.1196   -0.7644   -2.3457 H   0  0  0  0  0  0  0  0  0  0  0  0
    4.1002   -1.8470   -0.9330 H   0  0  0  0  0  0  0  0  0  0  0  0
  5  6  2  0  0  0  0
  5  7  1  0  0  0  0
  2  3  1  0  0  0  0
  2  4  1  0  0  0  0
  2  5  1  0  0  0  0
  1  2  1  0  0  0  0
 16 17  2  0  0  0  0
 16 18  1  0  0  0  0
 14 15  1  0  0  0  0
 11 12  1  0  0  0  0
 11 13  1  0  0  0  0
 11 14  1  0  0  0  0
  9 10  1  0  0  0  0
  9 11  1  0  0  0  0
  9 16  1  0  0  0  0
  7  8  1  0  0  0  0
  7  9  1  0  0  0  0
 20 21  1  0  0  0  0
 20 22  1  0  0  0  0
 20 23  1  0  0  0  0
 18 19  1  0  0  0  0
 18 20  1  0  0  0  0
M  END
$$$$
default_name
  -OEChem-01062215323D

 23 22  0     1  0  0  0  0  0999 V2000
   -2.6857   -3.6684    0.8743 H   0  0  0  0  0  0  0  0  0  0  0  0
   -2.6617   -2.6474    0.4953 C   0  0  0  0  0  0  0  0  0  0  0  0
   -3.2657   -2.0054    1.1353 H   0  0  0  0  0  0  0  0  0  0  0  0
   -3.0477   -2.6254   -0.5217 H   0  0  0  0  0  0  0  0  0  0  0  0
   -1.2337   -2.1564    0.4993 C   0  0  0  0  0  0  0  0  0  0  0  0
   -0.3327   -2.8864    0.8893 O   0  0  0  0  0  0  0  0  0  0  0  0
   -1.0277   -0.9164    0.0623 N   0  0  0  0  0  0  0  0  0  0  0  0
   -1.8237   -0.3604   -0.2157 H   0  0  0  0  0  0  0  0  0  0  0  0
    0.2713   -0.2414    0.0463 C   0  0  1  0  0  0  0  0  0  0  0  0
    0.2108    0.6209   -0.6206 H   0  0  0  0  0  0  0  0  0  0  0  0
    0.5770    0.2629    1.4663 C   0  0  0  0  0  0  0  0  0  0  0  0
    0.5091   -0.5769    2.1614 H   0  0  0  0  0  0  0  0  0  0  0  0
    1.5917    0.6649    1.4992 H   0  0  0  0  0  0  0  0  0  0  0  0
   -0.6097    1.5392    1.9800 S   0  0  0  0  0  0  0  0  0  0  0  0
   -0.1721    1.6754    3.2376 H   0  0  0  0  0  0  0  0  0  0  0  0
    1.3564   -1.1919   -0.4997 C   0  0  0  0  0  0  0  0  0  0  0  0
    1.1274   -2.3986   -0.5887 O   0  0  0  0  0  0  0  0  0  0  0  0
    2.5256   -0.6567   -0.8698 N   0  0  0  0  0  0  0  0  0  0  0  0
    2.6556    0.3310   -0.7054 H   0  0  0  0  0  0  0  0  0  0  0  0
    3.6476   -1.4205   -1.4124 C   0  0  0  0  0  0  0  0  0  0  0  0
    3.2994   -2.0627   -2.2246 H   0  0  0  0  0  0  0  0  0  0  0  0
    4.4150   -0.7450   -1.7924 H   0  0  0  0  0  0  0  0  0  0  0  0
    4.0754   -2.0495   -0.6299 H   0  0  0  0  0  0  0  0  0  0  0  0
  5  6  2  0  0  0  0
  5  7  1  0  0  0  0
  2  3  1  0  0  0  0
  2  4  1  0  0  0  0
  2  5  1  0  0  0  0
  1  2  1  0  0  0  0
 16 17  2  0  0  0  0
 16 18  1  0  0  0  0
 14 15  1  0  0  0  0
 11 12  1  0  0  0  0
 11 13  1  0  0  0  0
 11 14  1  0  0  0  0
  9 10  1  0  0  0  0
  9 11  1  0  0  0  0
  9 16  1  0  0  0  0
  7  8  1  0  0  0  0
  7  9  1  0  0  0  0
 20 21  1  0  0  0  0
 20 22  1  0  0  0  0
 20 23  1  0  0  0  0
 18 19  1  0  0  0  0
 18 20  1  0  0  0  0
M  END
$$$$
default_name
  -OEChem-01062215323D

 23 22  0     1  0  0  0  0  0999 V2000
   -2.6857   -3.6684    0.8743 H   0  0  0  0  0  0  0  0  0  0  0  0
   -2.6617   -2.6474    0.4953 C   0  0  0  0  0  0  0  0  0  0  0  0
   -3.2657   -2.0054    1.1353 H   0  0  0  0  0  0  0  0  0  0  0  0
   -3.0477   -2.6254   -0.5217 H   0  0  0  0  0  0  0  0  0  0  0  0
   -1.2337   -2.1564    0.4993 C   0  0  0  0  0  0  0  0  0  0  0  0
   -0.3327   -2.8864    0.8893 O   0  0  0  0  0  0  0  0  0  0  0  0
   -1.0277   -0.9164    0.0623 N   0  0  0  0  0  0  0  0  0  0  0  0
   -1.8237   -0.3604   -0.2157 H   0  0  0  0  0  0  0  0  0  0  0  0
    0.2713   -0.2414    0.0463 C   0  0  1  0  0  0  0  0  0  0  0  0
    0.1463    0.7503   -0.3928 H   0  0  0  0  0  0  0  0  0  0  0  0
    0.7523   -0.0736    1.4970 C   0  0  0  0  0  0  0  0  0  0  0  0
    0.7534   -1.0514    1.9839 H   0  0  0  0  0  0  0  0  0  0  0  0
    1.7702    0.3214    1.4997 H   0  0  0  0  0  0  0  0  0  0  0  0
   -0.3433    1.0372    2.4282 S   0  0  0  0  0  0  0  0  0  0  0  0
    0.2431    0.8857    3.6218 H   0  0  0  0  0  0  0  0  0  0  0  0
    1.2676   -1.0289   -0.8291 C   0  0  0  0  0  0  0  0  0  0  0  0
    0.9062   -2.0625   -1.3924 O   0  0  0  0  0  0  0  0  0  0  0  0
    2.5090   -0.5447   -0.9508 N   0  0  0  0  0  0  0  0  0  0  0  0
    2.7429    0.2726   -0.4058 H   0  0  0  0  0  0  0  0  0  0  0  0
    3.5633   -1.1683   -1.7485 C   0  0  0  0  0  0  0  0  0  0  0  0
    3.1880   -1.3876   -2.7506 H   0  0  0  0  0  0  0  0  0  0  0  0
    4.4229   -0.5014   -1.8248 H   0  0  0  0  0  0  0  0  0  0  0  0
    3.8727   -2.1040   -1.2797 H   0  0  0  0  0  0  0  0  0  0  0  0
  5  6  2  0  0  0  0
  5  7  1  0  0  0  0
  2  3  1  0  0  0  0
  2  4  1  0  0  0  0
  2  5  1  0  0  0  0
  1  2  1  0  0  0  0
 16 17  2  0  0  0  0
 16 18  1  0  0  0  0
 14 15  1  0  0  0  0
 11 12  1  0  0  0  0
 11 13  1  0  0  0  0
 11 14  1  0  0  0  0
  9 10  1  0  0  0  0
  9 11  1  0  0  0  0
  9 16  1  0  0  0  0
  7  8  1  0  0  0  0
  7  9  1  0  0  0  0
 20 21  1  0  0  0  0
 20 22  1  0  0  0  0
 20 23  1  0  0  0  0
 18 19  1  0  0  0  0
 18 20  1  0  0  0  0
M  END
$$$$
default_name
  -OEChem-01062215323D

 23 22  0     1  0  0  0  0  0999 V2000
   -2.6857   -3.6684    0.8743 H   0  0  0  0  0  0  0  0  0  0  0  0
   -2.6617   -2.6474    0.4953 C   0  0  0  0  0  0  0  0  0  0  0  0
   -3.2657   -2.0054    1.1353 H   0  0  0  0  0  0  0  0  0  0  0  0
   -3.0477   -2.6254   -0.5217 H   0  0  0  0  0  0  0  0  0  0  0  0
   -1.2337   -2.1564    0.4993 C   0  0  0  0  0  0  0  0  0  0  0  0
   -0.3327   -2.8864    0.8893 O   0  0  0  0  0  0  0  0  0  0  0  0
   -1.0277   -0.9164    0.0623 N   0  0  0  0  0  0  0  0  0  0  0  0
   -1.8237   -0.3604   -0.2157 H   0  0  0  0  0  0  0  0  0  0  0  0
    0.2713   -0.2414    0.0463 C   0  0  1  0  0  0  0  0  0  0  0  0
    0.1463    0.7503   -0.3928 H   0  0  0  0  0  0  0  0  0  0  0  0
    0.7523   -0.0736    1.4970 C   0  0  0  0  0  0  0  0  0  0  0  0
    0.7534   -1.0514    1.9839 H   0  0  0  0  0  0  0  0  0  0  0  0
    1.7702    0.3214    1.4997 H   0  0  0  0  0  0  0  0  0  0  0  0
   -0.3433    1.0372    2.4282 S   0  0  0  0  0  0  0  0  0  0  0  0
    0.2431    0.8857    3.6218 H   0  0  0  0  0  0  0  0  0  0  0  0
    1.2676   -1.0289   -0.8291 C   0  0  0  0  0  0  0  0  0  0  0  0
    0.8546   -1.8907   -1.6057 O   0  0  0  0  0  0  0  0  0  0  0  0
    2.5676   -0.7340   -0.7137 N   0  0  0  0  0  0  0  0  0  0  0  0
    2.8290   -0.0601   -0.0087 H   0  0  0  0  0  0  0  0  0  0  0  0
    3.6318   -1.3832   -1.4772 C   0  0  0  0  0  0  0  0  0  0  0  0
    3.3791   -1.3800   -2.5399 H   0  0  0  0  0  0  0  0  0  0  0  0
    4.5758   -0.8570   -1.3309 H   0  0  0  0  0  0  0  0  0  0  0  0
    3.7403   -2.4180   -1.1480 H   0  0  0  0  0  0  0  0  0  0  0  0
  5  6  2  0  0  0  0
  5  7  1  0  0  0  0
  2  3  1  0  0  0  0
  2  4  1  0  0  0  0
  2  5  1  0  0  0  0
  1  2  1  0  0  0  0
 16 17  2  0  0  0  0
 16 18  1  0  0  0  0
 14 15  1  0  0  0  0
 11 12  1  0  0  0  0
 11 13  1  0  0  0  0
 11 14  1  0  0  0  0
  9 10  1  0  0  0  0
  9 11  1  0  0  0  0
  9 16  1  0  0  0  0
  7  8  1  0  0  0  0
  7  9  1  0  0  0  0
 20 21  1  0  0  0  0
 20 22  1  0  0  0  0
 20 23  1  0  0  0  0
 18 19  1  0  0  0  0
 18 20  1  0  0  0  0
M  END
$$$$
default_name
  -OEChem-01062215323D

 23 22  0     1  0  0  0  0  0999 V2000
   -2.6857   -3.6684    0.8743 H   0  0  0  0  0  0  0  0  0  0  0  0
   -2.6617   -2.6474    0.4953 C   0  0  0  0  0  0  0  0  0  0  0  0
   -3.2657   -2.0054    1.1353 H   0  0  0  0  0  0  0  0  0  0  0  0
   -3.0477   -2.6254   -0.5217 H   0  0  0  0  0  0  0  0  0  0  0  0
   -1.2337   -2.1564    0.4993 C   0  0  0  0  0  0  0  0  0  0  0  0
   -0.3327   -2.8864    0.8893 O   0  0  0  0  0  0  0  0  0  0  0  0
   -1.0277   -0.9164    0.0623 N   0  0  0  0  0  0  0  0  0  0  0  0
   -1.8237   -0.3604   -0.2157 H   0  0  0  0  0  0  0  0  0  0  0  0
    0.2713   -0.2414    0.0463 C   0  0  1  0  0  0  0  0  0  0  0  0
    0.1463    0.7503   -0.3928 H   0  0  0  0  0  0  0  0  0  0  0  0
    0.7523   -0.0736    1.4970 C   0  0  0  0  0  0  0  0  0  0  0  0
    0.7534   -1.0514    1.9839 H   0  0  0  0  0  0  0  0  0  0  0  0
    1.7702    0.3214    1.4997 H   0  0  0  0  0  0  0  0  0  0  0  0
   -0.3433    1.0372    2.4282 S   0  0  0  0  0  0  0  0  0  0  0  0
    0.2431    0.8857    3.6218 H   0  0  0  0  0  0  0  0  0  0  0  0
    1.2676   -1.0289   -0.8291 C   0  0  0  0  0  0  0  0  0  0  0  0
    0.8582   -1.6816   -1.7897 O   0  0  0  0  0  0  0  0  0  0  0  0
    2.5651   -0.9652   -0.5086 N   0  0  0  0  0  0  0  0  0  0  0  0
    2.8107   -0.4604    0.3307 H   0  0  0  0  0  0  0  0  0  0  0  0
    3.6305   -1.6462   -1.2421 C   0  0  0  0  0  0  0  0  0  0  0  0
    3.5369   -1.4359   -2.3100 H   0  0  0  0  0  0  0  0  0  0  0  0
    4.6060   -1.3055   -0.8931 H   0  0  0  0  0  0  0  0  0  0  0  0
    3.5489   -2.7238   -1.0907 H   0  0  0  0  0  0  0  0  0  0  0  0
  5  6  2  0  0  0  0
  5  7  1  0  0  0  0
  2  3  1  0  0  0  0
  2  4  1  0  0  0  0
  2  5  1  0  0  0  0
  1  2  1  0  0  0  0
 16 17  2  0  0  0  0
 16 18  1  0  0  0  0
 14 15  1  0  0  0  0
 11 12  1  0  0  0  0
 11 13  1  0  0  0  0
 11 14  1  0  0  0  0
  9 10  1  0  0  0  0
  9 11  1  0  0  0  0
  9 16  1  0  0  0  0
  7  8  1  0  0  0  0
  7  9  1  0  0  0  0
 20 21  1  0  0  0  0
 20 22  1  0  0  0  0
 20 23  1  0  0  0  0
 18 19  1  0  0  0  0
 18 20  1  0  0  0  0
M  END
$$$$
default_name
  -OEChem-01062215323D

 23 22  0     1  0  0  0  0  0999 V2000
   -2.6857   -3.6684    0.8743 H   0  0  0  0  0  0  0  0  0  0  0  0
   -2.6617   -2.6474    0.4953 C   0  0  0  0  0  0  0  0  0  0  0  0
   -3.2657   -2.0054    1.1353 H   0  0  0  0  0  0  0  0  0  0  0  0
   -3.0477   -2.6254   -0.5217 H   0  0  0  0  0  0  0  0  0  0  0  0
   -1.2337   -2.1564    0.4993 C   0  0  0  0  0  0  0  0  0  0  0  0
   -0.3327   -2.8864    0.8893 O   0  0  0  0  0  0  0  0  0  0  0  0
   -1.0277   -0.9164    0.0623 N   0  0  0  0  0  0  0  0  0  0  0  0
   -1.8237   -0.3604   -0.2157 H   0  0  0  0  0  0  0  0  0  0  0  0
    0.2713   -0.2414    0.0463 C   0  0  1  0  0  0  0  0  0  0  0  0
    0.1463    0.7503   -0.3928 H   0  0  0  0  0  0  0  0  0  0  0  0
    0.7523   -0.0736    1.4970 C   0  0  0  0  0  0  0  0  0  0  0  0
    0.7534   -1.0514    1.9839 H   0  0  0  0  0  0  0  0  0  0  0  0
    1.7702    0.3214    1.4997 H   0  0  0  0  0  0  0  0  0  0  0  0
   -0.3433    1.0372    2.4282 S   0  0  0  0  0  0  0  0  0  0  0  0
    0.2431    0.8857    3.6218 H   0  0  0  0  0  0  0  0  0  0  0  0
    1.2676   -1.0289   -0.8291 C   0  0  0  0  0  0  0  0  0  0  0  0
    0.9167   -1.4493   -1.9321 O   0  0  0  0  0  0  0  0  0  0  0  0
    2.5017   -1.2224   -0.3495 N   0  0  0  0  0  0  0  0  0  0  0  0
    2.6894   -0.9012    0.5892 H   0  0  0  0  0  0  0  0  0  0  0  0
    3.5596   -1.9393   -1.0592 C   0  0  0  0  0  0  0  0  0  0  0  0
    3.6508   -1.5516   -2.0763 H   0  0  0  0  0  0  0  0  0  0  0  0
    4.5115   -1.8164   -0.5412 H   0  0  0  0  0  0  0  0  0  0  0  0
    3.3114   -3.0007   -1.1118 H   0  0  0  0  0  0  0  0  0  0  0  0
  5  6  2  0  0  0  0
  5  7  1  0  0  0  0
  2  3  1  0  0  0  0
  2  4  1  0  0  0  0
  2  5  1  0  0  0  0
  1  2  1  0  0  0  0
 16 17  2  0  0  0  0
 16 18  1  0  0  0  0
 14 15  1  0  0  0  0
 11 12  1  0  0  0  0
 11 13  1  0  0  0  0
 11 14  1  0  0  0  0
  9 10  1  0  0  0  0
  9 11  1  0  0  0  0
  9 16  1  0  0  0  0
  7  8  1  0  0  0  0
  7  9  1  0  0  0  0
 20 21  1  0  0  0  0
 20 22  1  0  0  0  0
 20 23  1  0  0  0  0
 18 19  1  0  0  0  0
 18 20  1  0  0  0  0
M  END
$$$$
default_name
  -OEChem-01062215323D

 23 22  0     1  0  0  0  0  0999 V2000
   -2.6857   -3.6684    0.8743 H   0  0  0  0  0  0  0  0  0  0  0  0
   -2.6617   -2.6474    0.4953 C   0  0  0  0  0  0  0  0  0  0  0  0
   -3.2657   -2.0054    1.1353 H   0  0  0  0  0  0  0  0  0  0  0  0
   -3.0477   -2.6254   -0.5217 H   0  0  0  0  0  0  0  0  0  0  0  0
   -1.2337   -2.1564    0.4993 C   0  0  0  0  0  0  0  0  0  0  0  0
   -0.3327   -2.8864    0.8893 O   0  0  0  0  0  0  0  0  0  0  0  0
   -1.0277   -0.9164    0.0623 N   0  0  0  0  0  0  0  0  0  0  0  0
   -1.8237   -0.3604   -0.2157 H   0  0  0  0  0  0  0  0  0  0  0  0
    0.2713   -0.2414    0.0463 C   0  0  1  0  0  0  0  0  0  0  0  0
    0.1463    0.7503   -0.3928 H   0  0  0  0  0  0  0  0  0  0  0  0
    0.7523   -0.0736    1.4970 C   0  0  0  0  0  0  0  0  0  0  0  0
    0.7534   -1.0514    1.9839 H   0  0  0  0  0  0  0  0  0  0  0  0
    1.7702    0.3214    1.4997 H   0  0  0  0  0  0  0  0  0  0  0  0
   -0.3433    1.0372    2.4282 S   0  0  0  0  0  0  0  0  0  0  0  0
    0.2431    0.8857    3.6218 H   0  0  0  0  0  0  0  0  0  0  0  0
    1.2676   -1.0289   -0.8291 C   0  0  0  0  0  0  0  0  0  0  0  0
    1.0262   -1.2097   -2.0230 O   0  0  0  0  0  0  0  0  0  0  0  0
    2.3815   -1.4881   -0.2472 N   0  0  0  0  0  0  0  0  0  0  0  0
    2.4734   -1.3524    0.7492 H   0  0  0  0  0  0  0  0  0  0  0  0
    3.4239   -2.2426   -0.9408 C   0  0  0  0  0  0  0  0  0  0  0  0
    3.7130   -1.7191   -1.8549 H   0  0  0  0  0  0  0  0  0  0  0  0
    4.2986   -2.3548   -0.2991 H   0  0  0  0  0  0  0  0  0  0  0  0
    3.0443   -3.2298   -1.2099 H   0  0  0  0  0  0  0  0  0  0  0  0
  5  6  2  0  0  0  0
  5  7  1  0  0  0  0
  2  3  1  0  0  0  0
  2  4  1  0  0  0  0
  2  5  1  0  0  0  0
  1  2  1  0  0  0  0
 16 17  2  0  0  0  0
 16 18  1  0  0  0  0
 14 15  1  0  0  0  0
 11 12  1  0  0  0  0
 11 13  1  0  0  0  0
 11 14  1  0  0  0  0
  9 10  1  0  0  0  0
  9 11  1  0  0  0  0
  9 16  1  0  0  0  0
  7  8  1  0  0  0  0
  7  9  1  0  0  0  0
 20 21  1  0  0  0  0
 20 22  1  0  0  0  0
 20 23  1  0  0  0  0
 18 19  1  0  0  0  0
 18 20  1  0  0  0  0
M  END
$$$$
default_name
  -OEChem-01062215323D

 23 22  0     1  0  0  0  0  0999 V2000
   -2.6857   -3.6684    0.8743 H   0  0  0  0  0  0  0  0  0  0  0  0
   -2.6617   -2.6474    0.4953 C   0  0  0  0  0  0  0  0  0  0  0  0
   -3.2657   -2.0054    1.1353 H   0  0  0  0  0  0  0  0  0  0  0  0
   -3.0477   -2.6254   -0.5217 H   0  0  0  0  0  0  0  0  0  0  0  0
   -1.2337   -2.1564    0.4993 C   0  0  0  0  0  0  0  0  0  0  0  0
   -0.3327   -2.8864    0.8893 O   0  0  0  0  0  0  0  0  0  0  0  0
   -1.0277   -0.9164    0.0623 N   0  0  0  0  0  0  0  0  0  0  0  0
   -1.8237   -0.3604   -0.2157 H   0  0  0  0  0  0  0  0  0  0  0  0
    0.2713   -0.2414    0.0463 C   0  0  1  0  0  0  0  0  0  0  0  0
    0.1463    0.7503   -0.3928 H   0  0  0  0  0  0  0  0  0  0  0  0
    0.7523   -0.0736    1.4970 C   0  0  0  0  0  0  0  0  0  0  0  0
    0.7534   -1.0514    1.9839 H   0  0  0  0  0  0  0  0  0  0  0  0
    1.7702    0.3214    1.4997 H   0  0  0  0  0  0  0  0  0  0  0  0
   -0.3433    1.0372    2.4282 S   0  0  0  0  0  0  0  0  0  0  0  0
    0.2431    0.8857    3.6218 H   0  0  0  0  0  0  0  0  0  0  0  0
    1.2676   -1.0289   -0.8291 C   0  0  0  0  0  0  0  0  0  0  0  0
    1.1791   -0.9791   -2.0563 O   0  0  0  0  0  0  0  0  0  0  0  0
    2.2130   -1.7442   -0.2087 N   0  0  0  0  0  0  0  0  0  0  0  0
    2.1773   -1.7832    0.7997 H   0  0  0  0  0  0  0  0  0  0  0  0
    3.2325   -2.5354   -0.8952 C   0  0  0  0  0  0  0  0  0  0  0  0
    3.7191   -1.9270   -1.6608 H   0  0  0  0  0  0  0  0  0  0  0  0
    3.9819   -2.8841   -0.1835 H   0  0  0  0  0  0  0  0  0  0  0  0
    2.7655   -3.3954   -1.3782 H   0  0  0  0  0  0  0  0  0  0  0  0
  5  6  2  0  0  0  0
  5  7  1  0  0  0  0
  2  3  1  0  0  0  0
  2  4  1  0  0  0  0
  2  5  1  0  0  0  0
  1  2  1  0  0  0  0
 16 17  2  0  0  0  0
 16 18  1  0  0  0  0
 14 15  1  0  0  0  0
 11 12  1  0  0  0  0
 11 13  1  0  0  0  0
 11 14  1  0  0  0  0
  9 10  1  0  0  0  0
  9 11  1  0  0  0  0
  9 16  1  0  0  0  0
  7  8  1  0  0  0  0
  7  9  1  0  0  0  0
 20 21  1  0  0  0  0
 20 22  1  0  0  0  0
 20 23  1  0  0  0  0
 18 19  1  0  0  0  0
 18 20  1  0  0  0  0
M  END
$$$$
default_name
  -OEChem-01062215323D

 23 22  0     1  0  0  0  0  0999 V2000
   -2.6857   -3.6684    0.8743 H   0  0  0  0  0  0  0  0  0  0  0  0
   -2.6617   -2.6474    0.4953 C   0  0  0  0  0  0  0  0  0  0  0  0
   -3.2657   -2.0054    1.1353 H   0  0  0  0  0  0  0  0  0  0  0  0
   -3.0477   -2.6254   -0.5217 H   0  0  0  0  0  0  0  0  0  0  0  0
   -1.2337   -2.1564    0.4993 C   0  0  0  0  0  0  0  0  0  0  0  0
   -0.3327   -2.8864    0.8893 O   0  0  0  0  0  0  0  0  0  0  0  0
   -1.0277   -0.9164    0.0623 N   0  0  0  0  0  0  0  0  0  0  0  0
   -1.8237   -0.3604   -0.2157 H   0  0  0  0  0  0  0  0  0  0  0  0
    0.2713   -0.2414    0.0463 C   0  0  1  0  0  0  0  0  0  0  0  0
    0.1463    0.7503   -0.3928 H   0  0  0  0  0  0  0  0  0  0  0  0
    0.7523   -0.0736    1.4970 C   0  0  0  0  0  0  0  0  0  0  0  0
    0.7534   -1.0514    1.9839 H   0  0  0  0  0  0  0  0  0  0  0  0
    1.7702    0.3214    1.4997 H   0  0  0  0  0  0  0  0  0  0  0  0
   -0.3433    1.0372    2.4282 S   0  0  0  0  0  0  0  0  0  0  0  0
    0.2431    0.8857    3.6218 H   0  0  0  0  0  0  0  0  0  0  0  0
    1.2676   -1.0289   -0.8291 C   0  0  0  0  0  0  0  0  0  0  0  0
    1.3651   -0.7734   -2.0298 O   0  0  0  0  0  0  0  0  0  0  0  0
    2.0074   -1.9733   -0.2366 N   0  0  0  0  0  0  0  0  0  0  0  0
    1.8213   -2.1642    0.7374 H   0  0  0  0  0  0  0  0  0  0  0  0
    2.9987   -2.7978   -0.9253 C   0  0  0  0  0  0  0  0  0  0  0  0
    3.6689   -2.1612   -1.5073 H   0  0  0  0  0  0  0  0  0  0  0  0
    3.5829   -3.3681   -0.2021 H   0  0  0  0  0  0  0  0  0  0  0  0
    2.4941   -3.4862   -1.6053 H   0  0  0  0  0  0  0  0  0  0  0  0
  5  6  2  0  0  0  0
  5  7  1  0  0  0  0
  2  3  1  0  0  0  0
  2  4  1  0  0  0  0
  2  5  1  0  0  0  0
  1  2  1  0  0  0  0
 16 17  2  0  0  0  0
 16 18  1  0  0  0  0
 14 15  1  0  0  0  0
 11 12  1  0  0  0  0
 11 13  1  0  0  0  0
 11 14  1  0  0  0  0
  9 10  1  0  0  0  0
  9 11  1  0  0  0  0
  9 16  1  0  0  0  0
  7  8  1  0  0  0  0
  7  9  1  0  0  0  0
 20 21  1  0  0  0  0
 20 22  1  0  0  0  0
 20 23  1  0  0  0  0
 18 19  1  0  0  0  0
 18 20  1  0  0  0  0
M  END
$$$$
default_name
  -OEChem-01062215323D

 23 22  0     1  0  0  0  0  0999 V2000
   -2.6857   -3.6684    0.8743 H   0  0  0  0  0  0  0  0  0  0  0  0
   -2.6617   -2.6474    0.4953 C   0  0  0  0  0  0  0  0  0  0  0  0
   -3.2657   -2.0054    1.1353 H   0  0  0  0  0  0  0  0  0  0  0  0
   -3.0477   -2.6254   -0.5217 H   0  0  0  0  0  0  0  0  0  0  0  0
   -1.2337   -2.1564    0.4993 C   0  0  0  0  0  0  0  0  0  0  0  0
   -0.3327   -2.8864    0.8893 O   0  0  0  0  0  0  0  0  0  0  0  0
   -1.0277   -0.9164    0.0623 N   0  0  0  0  0  0  0  0  0  0  0  0
   -1.8237   -0.3604   -0.2157 H   0  0  0  0  0  0  0  0  0  0  0  0
    0.2713   -0.2414    0.0463 C   0  0  1  0  0  0  0  0  0  0  0  0
    0.1463    0.7503   -0.3928 H   0  0  0  0  0  0  0  0  0  0  0  0
    0.7523   -0.0736    1.4970 C   0  0  0  0  0  0  0  0  0  0  0  0
    0.7534   -1.0514    1.9839 H   0  0  0  0  0  0  0  0  0  0  0  0
    1.7702    0.3214    1.4997 H   0  0  0  0  0  0  0  0  0  0  0  0
   -0.3433    1.0372    2.4282 S   0  0  0  0  0  0  0  0  0  0  0  0
    0.2431    0.8857    3.6218 H   0  0  0  0  0  0  0  0  0  0  0  0
    1.2676   -1.0289   -0.8291 C   0  0  0  0  0  0  0  0  0  0  0  0
    1.5715   -0.6063   -1.9451 O   0  0  0  0  0  0  0  0  0  0  0  0
    1.7789   -2.1597   -0.3289 N   0  0  0  0  0  0  0  0  0  0  0  0
    1.4298   -2.4696    0.5664 H   0  0  0  0  0  0  0  0  0  0  0  0
    2.7383   -3.0119   -1.0291 C   0  0  0  0  0  0  0  0  0  0  0  0
    3.5657   -2.4057   -1.4049 H   0  0  0  0  0  0  0  0  0  0  0  0
    3.1289   -3.7739   -0.3538 H   0  0  0  0  0  0  0  0  0  0  0  0
    2.2486   -3.4962   -1.8757 H   0  0  0  0  0  0  0  0  0  0  0  0
  5  6  2  0  0  0  0
  5  7  1  0  0  0  0
  2  3  1  0  0  0  0
  2  4  1  0  0  0  0
  2  5  1  0  0  0  0
  1  2  1  0  0  0  0
 16 17  2  0  0  0  0
 16 18  1  0  0  0  0
 14 15  1  0  0  0  0
 11 12  1  0  0  0  0
 11 13  1  0  0  0  0
 11 14  1  0  0  0  0
  9 10  1  0  0  0  0
  9 11  1  0  0  0  0
  9 16  1  0  0  0  0
  7  8  1  0  0  0  0
  7  9  1  0  0  0  0
 20 21  1  0  0  0  0
 20 22  1  0  0  0  0
 20 23  1  0  0  0  0
 18 19  1  0  0  0  0
 18 20  1  0  0  0  0
M  END
$$$$
default_name
  -OEChem-01062215323D

 23 22  0     1  0  0  0  0  0999 V2000
   -2.6857   -3.6684    0.8743 H   0  0  0  0  0  0  0  0  0  0  0  0
   -2.6617   -2.6474    0.4953 C   0  0  0  0  0  0  0  0  0  0  0  0
   -3.2657   -2.0054    1.1353 H   0  0  0  0  0  0  0  0  0  0  0  0
   -3.0477   -2.6254   -0.5217 H   0  0  0  0  0  0  0  0  0  0  0  0
   -1.2337   -2.1564    0.4993 C   0  0  0  0  0  0  0  0  0  0  0  0
   -0.3327   -2.8864    0.8893 O   0  0  0  0  0  0  0  0  0  0  0  0
   -1.0277   -0.9164    0.0623 N   0  0  0  0  0  0  0  0  0  0  0  0
   -1.8237   -0.3604   -0.2157 H   0  0  0  0  0  0  0  0  0  0  0  0
    0.2713   -0.2414    0.0463 C   0  0  1  0  0  0  0  0  0  0  0  0
    0.1463    0.7503   -0.3928 H   0  0  0  0  0  0  0  0  0  0  0  0
    0.7523   -0.0736    1.4970 C   0  0  0  0  0  0  0  0  0  0  0  0
    0.7534   -1.0514    1.9839 H   0  0  0  0  0  0  0  0  0  0  0  0
    1.7702    0.3214    1.4997 H   0  0  0  0  0  0  0  0  0  0  0  0
   -0.3433    1.0372    2.4282 S   0  0  0  0  0  0  0  0  0  0  0  0
    0.2431    0.8857    3.6218 H   0  0  0  0  0  0  0  0  0  0  0  0
    1.2676   -1.0289   -0.8291 C   0  0  0  0  0  0  0  0  0  0  0  0
    1.7842   -0.4895   -1.8082 O   0  0  0  0  0  0  0  0  0  0  0  0
    1.5430   -2.2907   -0.4795 N   0  0  0  0  0  0  0  0  0  0  0  0
    1.0293   -2.6785    0.2985 H   0  0  0  0  0  0  0  0  0  0  0  0
    2.4690   -3.1630   -1.1996 C   0  0  0  0  0  0  0  0  0  0  0  0
    3.4166   -2.6439   -1.3604 H   0  0  0  0  0  0  0  0  0  0  0  0
    2.6508   -4.0739   -0.6281 H   0  0  0  0  0  0  0  0  0  0  0  0
    2.0458   -3.4245   -2.1710 H   0  0  0  0  0  0  0  0  0  0  0  0
  5  6  2  0  0  0  0
  5  7  1  0  0  0  0
  2  3  1  0  0  0  0
  2  4  1  0  0  0  0
  2  5  1  0  0  0  0
  1  2  1  0  0  0  0
 16 17  2  0  0  0  0
 16 18  1  0  0  0  0
 14 15  1  0  0  0  0
 11 12  1  0  0  0  0
 11 13  1  0  0  0  0
 11 14  1  0  0  0  0
  9 10  1  0  0  0  0
  9 11  1  0  0  0  0
  9 16  1  0  0  0  0
  7  8  1  0  0  0  0
  7  9  1  0  0  0  0
 20 21  1  0  0  0  0
 20 22  1  0  0  0  0
 20 23  1  0  0  0  0
 18 19  1  0  0  0  0
 18 20  1  0  0  0  0
M  END
$$$$
default_name
  -OEChem-01062215323D

 23 22  0     1  0  0  0  0  0999 V2000
   -2.6857   -3.6684    0.8743 H   0  0  0  0  0  0  0  0  0  0  0  0
   -2.6617   -2.6474    0.4953 C   0  0  0  0  0  0  0  0  0  0  0  0
   -3.2657   -2.0054    1.1353 H   0  0  0  0  0  0  0  0  0  0  0  0
   -3.0477   -2.6254   -0.5217 H   0  0  0  0  0  0  0  0  0  0  0  0
   -1.2337   -2.1564    0.4993 C   0  0  0  0  0  0  0  0  0  0  0  0
   -0.3327   -2.8864    0.8893 O   0  0  0  0  0  0  0  0  0  0  0  0
   -1.0277   -0.9164    0.0623 N   0  0  0  0  0  0  0  0  0  0  0  0
   -1.8237   -0.3604   -0.2157 H   0  0  0  0  0  0  0  0  0  0  0  0
    0.2713   -0.2414    0.0463 C   0  0  1  0  0  0  0  0  0  0  0  0
    0.1463    0.7503   -0.3928 H   0  0  0  0  0  0  0  0  0  0  0  0
    0.7523   -0.0736    1.4970 C   0  0  0  0  0  0  0  0  0  0  0  0
    0.7534   -1.0514    1.9839 H   0  0  0  0  0  0  0  0  0  0  0  0
    1.7702    0.3214    1.4997 H   0  0  0  0  0  0  0  0  0  0  0  0
   -0.3433    1.0372    2.4282 S   0  0  0  0  0  0  0  0  0  0  0  0
    0.2431    0.8857    3.6218 H   0  0  0  0  0  0  0  0  0  0  0  0
    1.2676   -1.0289   -0.8291 C   0  0  0  0  0  0  0  0  0  0  0  0
    1.9887   -0.4307   -1.6283 O   0  0  0  0  0  0  0  0  0  0  0  0
    1.3158   -2.3575   -0.6781 N   0  0  0  0  0  0  0  0  0  0  0  0
    0.6471   -2.7766   -0.0481 H   0  0  0  0  0  0  0  0  0  0  0  0
    2.2092   -3.2409   -1.4252 C   0  0  0  0  0  0  0  0  0  0  0  0
    3.2316   -2.8594   -1.3769 H   0  0  0  0  0  0  0  0  0  0  0  0
    2.1812   -4.2475   -1.0063 H   0  0  0  0  0  0  0  0  0  0  0  0
    1.8994   -3.2761   -2.4711 H   0  0  0  0  0  0  0  0  0  0  0  0
  5  6  2  0  0  0  0
  5  7  1  0  0  0  0
  2  3  1  0  0  0  0
  2  4  1  0  0  0  0
  2  5  1  0  0  0  0
  1  2  1  0  0  0  0
 16 17  2  0  0  0  0
 16 18  1  0  0  0  0
 14 15  1  0  0  0  0
 11 12  1  0  0  0  0
 11 13  1  0  0  0  0
 11 14  1  0  0  0  0
  9 10  1  0  0  0  0
  9 11  1  0  0  0  0
  9 16  1  0  0  0  0
  7  8  1  0  0  0  0
  7  9  1  0  0  0  0
 20 21  1  0  0  0  0
 20 22  1  0  0  0  0
 20 23  1  0  0  0  0
 18 19  1  0  0  0  0
 18 20  1  0  0  0  0
M  END
$$$$
default_name
  -OEChem-01062215323D

 23 22  0     1  0  0  0  0  0999 V2000
   -2.6857   -3.6684    0.8743 H   0  0  0  0  0  0  0  0  0  0  0  0
   -2.6617   -2.6474    0.4953 C   0  0  0  0  0  0  0  0  0  0  0  0
   -3.2657   -2.0054    1.1353 H   0  0  0  0  0  0  0  0  0  0  0  0
   -3.0477   -2.6254   -0.5217 H   0  0  0  0  0  0  0  0  0  0  0  0
   -1.2337   -2.1564    0.4993 C   0  0  0  0  0  0  0  0  0  0  0  0
   -0.3327   -2.8864    0.8893 O   0  0  0  0  0  0  0  0  0  0  0  0
   -1.0277   -0.9164    0.0623 N   0  0  0  0  0  0  0  0  0  0  0  0
   -1.8237   -0.3604   -0.2157 H   0  0  0  0  0  0  0  0  0  0  0  0
    0.2713   -0.2414    0.0463 C   0  0  1  0  0  0  0  0  0  0  0  0
    0.1463    0.7503   -0.3928 H   0  0  0  0  0  0  0  0  0  0  0  0
    0.7523   -0.0736    1.4970 C   0  0  0  0  0  0  0  0  0  0  0  0
    0.7534   -1.0514    1.9839 H   0  0  0  0  0  0  0  0  0  0  0  0
    1.7702    0.3214    1.4997 H   0  0  0  0  0  0  0  0  0  0  0  0
   -0.3433    1.0372    2.4282 S   0  0  0  0  0  0  0  0  0  0  0  0
    0.2431    0.8857    3.6218 H   0  0  0  0  0  0  0  0  0  0  0  0
    1.2676   -1.0289   -0.8291 C   0  0  0  0  0  0  0  0  0  0  0  0
    2.1711   -0.4341   -1.4176 O   0  0  0  0  0  0  0  0  0  0  0  0
    1.1128   -2.3554   -0.9110 N   0  0  0  0  0  0  0  0  0  0  0  0
    0.3094   -2.7573   -0.4498 H   0  0  0  0  0  0  0  0  0  0  0  0
    1.9766   -3.2403   -1.6904 C   0  0  0  0  0  0  0  0  0  0  0  0
    3.0235   -3.0377   -1.4534 H   0  0  0  0  0  0  0  0  0  0  0  0
    1.7520   -4.2830   -1.4628 H   0  0  0  0  0  0  0  0  0  0  0  0
    1.8195   -3.0612   -2.7554 H   0  0  0  0  0  0  0  0  0  0  0  0
  5  6  2  0  0  0  0
  5  7  1  0  0  0  0
  2  3  1  0  0  0  0
  2  4  1  0  0  0  0
  2  5  1  0  0  0  0
  1  2  1  0  0  0  0
 16 17  2  0  0  0  0
 16 18  1  0  0  0  0
 14 15  1  0  0  0  0
 11 12  1  0  0  0  0
 11 13  1  0  0  0  0
 11 14  1  0  0  0  0
  9 10  1  0  0  0  0
  9 11  1  0  0  0  0
  9 16  1  0  0  0  0
  7  8  1  0  0  0  0
  7  9  1  0  0  0  0
 20 21  1  0  0  0  0
 20 22  1  0  0  0  0
 20 23  1  0  0  0  0
 18 19  1  0  0  0  0
 18 20  1  0  0  0  0
M  END
$$$$
default_name
  -OEChem-01062215323D

 23 22  0     1  0  0  0  0  0999 V2000
   -2.6857   -3.6684    0.8743 H   0  0  0  0  0  0  0  0  0  0  0  0
   -2.6617   -2.6474    0.4953 C   0  0  0  0  0  0  0  0  0  0  0  0
   -3.2657   -2.0054    1.1353 H   0  0  0  0  0  0  0  0  0  0  0  0
   -3.0477   -2.6254   -0.5217 H   0  0  0  0  0  0  0  0  0  0  0  0
   -1.2337   -2.1564    0.4993 C   0  0  0  0  0  0  0  0  0  0  0  0
   -0.3327   -2.8864    0.8893 O   0  0  0  0  0  0  0  0  0  0  0  0
   -1.0277   -0.9164    0.0623 N   0  0  0  0  0  0  0  0  0  0  0  0
   -1.8237   -0.3604   -0.2157 H   0  0  0  0  0  0  0  0  0  0  0  0
    0.2713   -0.2414    0.0463 C   0  0  1  0  0  0  0  0  0  0  0  0
    0.1463    0.7503   -0.3928 H   0  0  0  0  0  0  0  0  0  0  0  0
    0.7523   -0.0736    1.4970 C   0  0  0  0  0  0  0  0  0  0  0  0
    0.7534   -1.0514    1.9839 H   0  0  0  0  0  0  0  0  0  0  0  0
    1.7702    0.3214    1.4997 H   0  0  0  0  0  0  0  0  0  0  0  0
   -0.3433    1.0372    2.4282 S   0  0  0  0  0  0  0  0  0  0  0  0
    0.2431    0.8857    3.6218 H   0  0  0  0  0  0  0  0  0  0  0  0
    1.2676   -1.0289   -0.8291 C   0  0  0  0  0  0  0  0  0  0  0  0
    2.3190   -0.4994   -1.1906 O   0  0  0  0  0  0  0  0  0  0  0  0
    0.9477   -2.2846   -1.1625 N   0  0  0  0  0  0  0  0  0  0  0  0
    0.0391   -2.6219   -0.8793 H   0  0  0  0  0  0  0  0  0  0  0  0
    1.7871   -3.1612   -1.9772 C   0  0  0  0  0  0  0  0  0  0  0  0
    2.8064   -3.1666   -1.5846 H   0  0  0  0  0  0  0  0  0  0  0  0
    1.3926   -4.1780   -1.9664 H   0  0  0  0  0  0  0  0  0  0  0  0
    1.8114   -2.7942   -3.0047 H   0  0  0  0  0  0  0  0  0  0  0  0
  5  6  2  0  0  0  0
  5  7  1  0  0  0  0
  2  3  1  0  0  0  0
  2  4  1  0  0  0  0
  2  5  1  0  0  0  0
  1  2  1  0  0  0  0
 16 17  2  0  0  0  0
 16 18  1  0  0  0  0
 14 15  1  0  0  0  0
 11 12  1  0  0  0  0
 11 13  1  0  0  0  0
 11 14  1  0  0  0  0
  9 10  1  0  0  0  0
  9 11  1  0  0  0  0
  9 16  1  0  0  0  0
  7  8  1  0  0  0  0
  7  9  1  0  0  0  0
 20 21  1  0  0  0  0
 20 22  1  0  0  0  0
 20 23  1  0  0  0  0
 18 19  1  0  0  0  0
 18 20  1  0  0  0  0
M  END
$$$$
default_name
  -OEChem-01062215323D

 23 22  0     1  0  0  0  0  0999 V2000
   -2.6857   -3.6684    0.8743 H   0  0  0  0  0  0  0  0  0  0  0  0
   -2.6617   -2.6474    0.4953 C   0  0  0  0  0  0  0  0  0  0  0  0
   -3.2657   -2.0054    1.1353 H   0  0  0  0  0  0  0  0  0  0  0  0
   -3.0477   -2.6254   -0.5217 H   0  0  0  0  0  0  0  0  0  0  0  0
   -1.2337   -2.1564    0.4993 C   0  0  0  0  0  0  0  0  0  0  0  0
   -0.3327   -2.8864    0.8893 O   0  0  0  0  0  0  0  0  0  0  0  0
   -1.0277   -0.9164    0.0623 N   0  0  0  0  0  0  0  0  0  0  0  0
   -1.8237   -0.3604   -0.2157 H   0  0  0  0  0  0  0  0  0  0  0  0
    0.2713   -0.2414    0.0463 C   0  0  1  0  0  0  0  0  0  0  0  0
    0.1463    0.7503   -0.3928 H   0  0  0  0  0  0  0  0  0  0  0  0
    0.7523   -0.0736    1.4970 C   0  0  0  0  0  0  0  0  0  0  0  0
    0.7534   -1.0514    1.9839 H   0  0  0  0  0  0  0  0  0  0  0  0
    1.7702    0.3214    1.4997 H   0  0  0  0  0  0  0  0  0  0  0  0
   -0.3433    1.0372    2.4282 S   0  0  0  0  0  0  0  0  0  0  0  0
    0.2431    0.8857    3.6218 H   0  0  0  0  0  0  0  0  0  0  0  0
    1.2676   -1.0289   -0.8291 C   0  0  0  0  0  0  0  0  0  0  0  0
    2.4222   -0.6221   -0.9628 O   0  0  0  0  0  0  0  0  0  0  0  0
    0.8320   -2.1499   -1.4154 N   0  0  0  0  0  0  0  0  0  0  0  0
   -0.1454   -2.3796   -1.3071 H   0  0  0  0  0  0  0  0  0  0  0  0
    1.6536   -3.0091   -2.2661 C   0  0  0  0  0  0  0  0  0  0  0  0
    2.5951   -3.2372   -1.7615 H   0  0  0  0  0  0  0  0  0  0  0  0
    1.1274   -3.9395   -2.4827 H   0  0  0  0  0  0  0  0  0  0  0  0
    1.8758   -2.4935   -3.2019 H   0  0  0  0  0  0  0  0  0  0  0  0
  5  6  2  0  0  0  0
  5  7  1  0  0  0  0
  2  3  1  0  0  0  0
  2  4  1  0  0  0  0
  2  5  1  0  0  0  0
  1  2  1  0  0  0  0
 16 17  2  0  0  0  0
 16 18  1  0  0  0  0
 14 15  1  0  0  0  0
 11 12  1  0  0  0  0
 11 13  1  0  0  0  0
 11 14  1  0  0  0  0
  9 10  1  0  0  0  0
  9 11  1  0  0  0  0
  9 16  1  0  0  0  0
  7  8  1  0  0  0  0
  7  9  1  0  0  0  0
 20 21  1  0  0  0  0
 20 22  1  0  0  0  0
 20 23  1  0  0  0  0
 18 19  1  0  0  0  0
 18 20  1  0  0  0  0
M  END
$$$$
default_name
  -OEChem-01062215323D

 23 22  0     1  0  0  0  0  0999 V2000
   -2.6857   -3.6684    0.8743 H   0  0  0  0  0  0  0  0  0  0  0  0
   -2.6617   -2.6474    0.4953 C   0  0  0  0  0  0  0  0  0  0  0  0
   -3.2657   -2.0054    1.1353 H   0  0  0  0  0  0  0  0  0  0  0  0
   -3.0477   -2.6254   -0.5217 H   0  0  0  0  0  0  0  0  0  0  0  0
   -1.2337   -2.1564    0.4993 C   0  0  0  0  0  0  0  0  0  0  0  0
   -0.3327   -2.8864    0.8893 O   0  0  0  0  0  0  0  0  0  0  0  0
   -1.0277   -0.9164    0.0623 N   0  0  0  0  0  0  0  0  0  0  0  0
   -1.8237   -0.3604   -0.2157 H   0  0  0  0  0  0  0  0  0  0  0  0
    0.2713   -0.2414    0.0463 C   0  0  1  0  0  0  0  0  0  0  0  0
    0.1463    0.7503   -0.3928 H   0  0  0  0  0  0  0  0  0  0  0  0
    0.7523   -0.0736    1.4970 C   0  0  0  0  0  0  0  0  0  0  0  0
    0.7534   -1.0514    1.9839 H   0  0  0  0  0  0  0  0  0  0  0  0
    1.7702    0.3214    1.4997 H   0  0  0  0  0  0  0  0  0  0  0  0
   -0.3433    1.0372    2.4282 S   0  0  0  0  0  0  0  0  0  0  0  0
    0.2431    0.8857    3.6218 H   0  0  0  0  0  0  0  0  0  0  0  0
    1.2676   -1.0289   -0.8291 C   0  0  0  0  0  0  0  0  0  0  0  0
    2.4738   -0.7939   -0.7495 O   0  0  0  0  0  0  0  0  0  0  0  0
    0.7733   -1.9606   -1.6525 N   0  0  0  0  0  0  0  0  0  0  0  0
   -0.2314   -2.0469   -1.7043 H   0  0  0  0  0  0  0  0  0  0  0  0
    1.5851   -2.7942   -2.5373 C   0  0  0  0  0  0  0  0  0  0  0  0
    2.4040   -3.2449   -1.9721 H   0  0  0  0  0  0  0  0  0  0  0  0
    0.9745   -3.5839   -2.9766 H   0  0  0  0  0  0  0  0  0  0  0  0
    2.0082   -2.1795   -3.3337 H   0  0  0  0  0  0  0  0  0  0  0  0
  5  6  2  0  0  0  0
  5  7  1  0  0  0  0
  2  3  1  0  0  0  0
  2  4  1  0  0  0  0
  2  5  1  0  0  0  0
  1  2  1  0  0  0  0
 16 17  2  0  0  0  0
 16 18  1  0  0  0  0
 14 15  1  0  0  0  0
 11 12  1  0  0  0  0
 11 13  1  0  0  0  0
 11 14  1  0  0  0  0
  9 10  1  0  0  0  0
  9 11  1  0  0  0  0
  9 16  1  0  0  0  0
  7  8  1  0  0  0  0
  7  9  1  0  0  0  0
 20 21  1  0  0  0  0
 20 22  1  0  0  0  0
 20 23  1  0  0  0  0
 18 19  1  0  0  0  0
 18 20  1  0  0  0  0
M  END
$$$$
default_name
  -OEChem-01062215323D

 23 22  0     1  0  0  0  0  0999 V2000
   -2.6857   -3.6684    0.8743 H   0  0  0  0  0  0  0  0  0  0  0  0
   -2.6617   -2.6474    0.4953 C   0  0  0  0  0  0  0  0  0  0  0  0
   -3.2657   -2.0054    1.1353 H   0  0  0  0  0  0  0  0  0  0  0  0
   -3.0477   -2.6254   -0.5217 H   0  0  0  0  0  0  0  0  0  0  0  0
   -1.2337   -2.1564    0.4993 C   0  0  0  0  0  0  0  0  0  0  0  0
   -0.3327   -2.8864    0.8893 O   0  0  0  0  0  0  0  0  0  0  0  0
   -1.0277   -0.9164    0.0623 N   0  0  0  0  0  0  0  0  0  0  0  0
   -1.8237   -0.3604   -0.2157 H   0  0  0  0  0  0  0  0  0  0  0  0
    0.2713   -0.2414    0.0463 C   0  0  1  0  0  0  0  0  0  0  0  0
    0.1463    0.7503   -0.3928 H   0  0  0  0  0  0  0  0  0  0  0  0
    0.7523   -0.0736    1.4970 C   0  0  0  0  0  0  0  0  0  0  0  0
    0.7534   -1.0514    1.9839 H   0  0  0  0  0  0  0  0  0  0  0  0
    1.7702    0.3214    1.4997 H   0  0  0  0  0  0  0  0  0  0  0  0
   -0.3433    1.0372    2.4282 S   0  0  0  0  0  0  0  0  0  0  0  0
    0.2431    0.8857    3.6218 H   0  0  0  0  0  0  0  0  0  0  0  0
    1.2676   -1.0289   -0.8291 C   0  0  0  0  0  0  0  0  0  0  0  0
    2.4702   -1.0031   -0.5654 O   0  0  0  0  0  0  0  0  0  0  0  0
    0.7758   -1.7294   -1.8576 N   0  0  0  0  0  0  0  0  0  0  0  0
   -0.2132   -1.6466   -2.0437 H   0  0  0  0  0  0  0  0  0  0  0  0
    1.5864   -2.5312   -2.7724 C   0  0  0  0  0  0  0  0  0  0  0  0
    2.2462   -3.1889   -2.2021 H   0  0  0  0  0  0  0  0  0  0  0  0
    0.9443   -3.1353   -3.4144 H   0  0  0  0  0  0  0  0  0  0  0  0
    2.1997   -1.8737   -3.3909 H   0  0  0  0  0  0  0  0  0  0  0  0
  5  6  2  0  0  0  0
  5  7  1  0  0  0  0
  2  3  1  0  0  0  0
  2  4  1  0  0  0  0
  2  5  1  0  0  0  0
  1  2  1  0  0  0  0
 16 17  2  0  0  0  0
 16 18  1  0  0  0  0
 14 15  1  0  0  0  0
 11 12  1  0  0  0  0
 11 13  1  0  0  0  0
 11 14  1  0  0  0  0
  9 10  1  0  0  0  0
  9 11  1  0  0  0  0
  9 16  1  0  0  0  0
  7  8  1  0  0  0  0
  7  9  1  0  0  0  0
 20 21  1  0  0  0  0
 20 22  1  0  0  0  0
 20 23  1  0  0  0  0
 18 19  1  0  0  0  0
 18 20  1  0  0  0  0
M  END
$$$$
default_name
  -OEChem-01062215323D

 23 22  0     1  0  0  0  0  0999 V2000
   -2.6857   -3.6684    0.8743 H   0  0  0  0  0  0  0  0  0  0  0  0
   -2.6617   -2.6474    0.4953 C   0  0  0  0  0  0  0  0  0  0  0  0
   -3.2657   -2.0054    1.1353 H   0  0  0  0  0  0  0  0  0  0  0  0
   -3.0477   -2.6254   -0.5217 H   0  0  0  0  0  0  0  0  0  0  0  0
   -1.2337   -2.1564    0.4993 C   0  0  0  0  0  0  0  0  0  0  0  0
   -0.3327   -2.8864    0.8893 O   0  0  0  0  0  0  0  0  0  0  0  0
   -1.0277   -0.9164    0.0623 N   0  0  0  0  0  0  0  0  0  0  0  0
   -1.8237   -0.3604   -0.2157 H   0  0  0  0  0  0  0  0  0  0  0  0
    0.2713   -0.2414    0.0463 C   0  0  1  0  0  0  0  0  0  0  0  0
    0.1463    0.7503   -0.3928 H   0  0  0  0  0  0  0  0  0  0  0  0
    0.7523   -0.0736    1.4970 C   0  0  0  0  0  0  0  0  0  0  0  0
    0.7534   -1.0514    1.9839 H   0  0  0  0  0  0  0  0  0  0  0  0
    1.7702    0.3214    1.4997 H   0  0  0  0  0  0  0  0  0  0  0  0
   -0.3433    1.0372    2.4282 S   0  0  0  0  0  0  0  0  0  0  0  0
    0.2431    0.8857    3.6218 H   0  0  0  0  0  0  0  0  0  0  0  0
    1.2676   -1.0289   -0.8291 C   0  0  0  0  0  0  0  0  0  0  0  0
    2.4117   -1.2354   -0.4231 O   0  0  0  0  0  0  0  0  0  0  0  0
    0.8393   -1.4722   -2.0167 N   0  0  0  0  0  0  0  0  0  0  0  0
   -0.0919   -1.2058   -2.3022 H   0  0  0  0  0  0  0  0  0  0  0  0
    1.6573   -2.2380   -2.9554 C   0  0  0  0  0  0  0  0  0  0  0  0
    2.1323   -3.0733   -2.4357 H   0  0  0  0  0  0  0  0  0  0  0  0
    1.0389   -2.6245   -3.7664 H   0  0  0  0  0  0  0  0  0  0  0  0
    2.4371   -1.5968   -3.3698 H   0  0  0  0  0  0  0  0  0  0  0  0
  5  6  2  0  0  0  0
  5  7  1  0  0  0  0
  2  3  1  0  0  0  0
  2  4  1  0  0  0  0
  2  5  1  0  0  0  0
  1  2  1  0  0  0  0
 16 17  2  0  0  0  0
 16 18  1  0  0  0  0
 14 15  1  0  0  0  0
 11 12  1  0  0  0  0
 11 13  1  0  0  0  0
 11 14  1  0  0  0  0
  9 10  1  0  0  0  0
  9 11  1  0  0  0  0
  9 16  1  0  0  0  0
  7  8  1  0  0  0  0
  7  9  1  0  0  0  0
 20 21  1  0  0  0  0
 20 22  1  0  0  0  0
 20 23  1  0  0  0  0
 18 19  1  0  0  0  0
 18 20  1  0  0  0  0
M  END
$$$$
default_name
  -OEChem-01062215323D

 23 22  0     1  0  0  0  0  0999 V2000
   -2.6857   -3.6684    0.8743 H   0  0  0  0  0  0  0  0  0  0  0  0
   -2.6617   -2.6474    0.4953 C   0  0  0  0  0  0  0  0  0  0  0  0
   -3.2657   -2.0054    1.1353 H   0  0  0  0  0  0  0  0  0  0  0  0
   -3.0477   -2.6254   -0.5217 H   0  0  0  0  0  0  0  0  0  0  0  0
   -1.2337   -2.1564    0.4993 C   0  0  0  0  0  0  0  0  0  0  0  0
   -0.3327   -2.8864    0.8893 O   0  0  0  0  0  0  0  0  0  0  0  0
   -1.0277   -0.9164    0.0623 N   0  0  0  0  0  0  0  0  0  0  0  0
   -1.8237   -0.3604   -0.2157 H   0  0  0  0  0  0  0  0  0  0  0  0
    0.2713   -0.2414    0.0463 C   0  0  1  0  0  0  0  0  0  0  0  0
    0.1463    0.7503   -0.3928 H   0  0  0  0  0  0  0  0  0  0  0  0
    0.7523   -0.0736    1.4970 C   0  0  0  0  0  0  0  0  0  0  0  0
    0.7534   -1.0514    1.9839 H   0  0  0  0  0  0  0  0  0  0  0  0
    1.7702    0.3214    1.4997 H   0  0  0  0  0  0  0  0  0  0  0  0
   -0.3433    1.0372    2.4282 S   0  0  0  0  0  0  0  0  0  0  0  0
    0.2431    0.8857    3.6218 H   0  0  0  0  0  0  0  0  0  0  0  0
    1.2676   -1.0289   -0.8291 C   0  0  0  0  0  0  0  0  0  0  0  0
    2.3022   -1.4750   -0.3321 O   0  0  0  0  0  0  0  0  0  0  0  0
    0.9594   -1.2065   -2.1190 N   0  0  0  0  0  0  0  0  0  0  0  0
    0.1242   -0.7546   -2.4621 H   0  0  0  0  0  0  0  0  0  0  0  0
    1.7931   -1.9347   -3.0737 C   0  0  0  0  0  0  0  0  0  0  0  0
    2.0701   -2.9058   -2.6571 H   0  0  0  0  0  0  0  0  0  0  0  0
    1.2518   -2.0860   -4.0084 H   0  0  0  0  0  0  0  0  0  0  0  0
    2.7043   -1.3677   -3.2718 H   0  0  0  0  0  0  0  0  0  0  0  0
  5  6  2  0  0  0  0
  5  7  1  0  0  0  0
  2  3  1  0  0  0  0
  2  4  1  0  0  0  0
  2  5  1  0  0  0  0
  1  2  1  0  0  0  0
 16 17  2  0  0  0  0
 16 18  1  0  0  0  0
 14 15  1  0  0  0  0
 11 12  1  0  0  0  0
 11 13  1  0  0  0  0
 11 14  1  0  0  0  0
  9 10  1  0  0  0  0
  9 11  1  0  0  0  0
  9 16  1  0  0  0  0
  7  8  1  0  0  0  0
  7  9  1  0  0  0  0
 20 21  1  0  0  0  0
 20 22  1  0  0  0  0
 20 23  1  0  0  0  0
 18 19  1  0  0  0  0
 18 20  1  0  0  0  0
M  END
$$$$
default_name
  -OEChem-01062215323D

 23 22  0     1  0  0  0  0  0999 V2000
   -2.6857   -3.6684    0.8743 H   0  0  0  0  0  0  0  0  0  0  0  0
   -2.6617   -2.6474    0.4953 C   0  0  0  0  0  0  0  0  0  0  0  0
   -3.2657   -2.0054    1.1353 H   0  0  0  0  0  0  0  0  0  0  0  0
   -3.0477   -2.6254   -0.5217 H   0  0  0  0  0  0  0  0  0  0  0  0
   -1.2337   -2.1564    0.4993 C   0  0  0  0  0  0  0  0  0  0  0  0
   -0.3327   -2.8864    0.8893 O   0  0  0  0  0  0  0  0  0  0  0  0
   -1.0277   -0.9164    0.0623 N   0  0  0  0  0  0  0  0  0  0  0  0
   -1.8237   -0.3604   -0.2157 H   0  0  0  0  0  0  0  0  0  0  0  0
    0.2713   -0.2414    0.0463 C   0  0  1  0  0  0  0  0  0  0  0  0
    0.1463    0.7503   -0.3928 H   0  0  0  0  0  0  0  0  0  0  0  0
    0.7523   -0.0736    1.4970 C   0  0  0  0  0  0  0  0  0  0  0  0
    0.7534   -1.0514    1.9839 H   0  0  0  0  0  0  0  0  0  0  0  0
    1.7702    0.3214    1.4997 H   0  0  0  0  0  0  0  0  0  0  0  0
   -0.3433    1.0372    2.4282 S   0  0  0  0  0  0  0  0  0  0  0  0
    0.2431    0.8857    3.6218 H   0  0  0  0  0  0  0  0  0  0  0  0
    1.2676   -1.0289   -0.8291 C   0  0  0  0  0  0  0  0  0  0  0  0
    2.1493   -1.7055   -0.2988 O   0  0  0  0  0  0  0  0  0  0  0  0
    1.1280   -0.9504   -2.1575 N   0  0  0  0  0  0  0  0  0  0  0  0
    0.4202   -0.3238   -2.5127 H   0  0  0  0  0  0  0  0  0  0  0  0
    1.9844   -1.6419   -3.1194 C   0  0  0  0  0  0  0  0  0  0  0  0
    2.0639   -2.6978   -2.8512 H   0  0  0  0  0  0  0  0  0  0  0  0
    1.5685   -1.5568   -4.1240 H   0  0  0  0  0  0  0  0  0  0  0  0
    2.9830   -1.2021   -3.1035 H   0  0  0  0  0  0  0  0  0  0  0  0
  5  6  2  0  0  0  0
  5  7  1  0  0  0  0
  2  3  1  0  0  0  0
  2  4  1  0  0  0  0
  2  5  1  0  0  0  0
  1  2  1  0  0  0  0
 16 17  2  0  0  0  0
 16 18  1  0  0  0  0
 14 15  1  0  0  0  0
 11 12  1  0  0  0  0
 11 13  1  0  0  0  0
 11 14  1  0  0  0  0
  9 10  1  0  0  0  0
  9 11  1  0  0  0  0
  9 16  1  0  0  0  0
  7  8  1  0  0  0  0
  7  9  1  0  0  0  0
 20 21  1  0  0  0  0
 20 22  1  0  0  0  0
 20 23  1  0  0  0  0
 18 19  1  0  0  0  0
 18 20  1  0  0  0  0
M  END
$$$$
default_name
  -OEChem-01062215323D

 23 22  0     1  0  0  0  0  0999 V2000
   -2.6857   -3.6684    0.8743 H   0  0  0  0  0  0  0  0  0  0  0  0
   -2.6617   -2.6474    0.4953 C   0  0  0  0  0  0  0  0  0  0  0  0
   -3.2657   -2.0054    1.1353 H   0  0  0  0  0  0  0  0  0  0  0  0
   -3.0477   -2.6254   -0.5217 H   0  0  0  0  0  0  0  0  0  0  0  0
   -1.2337   -2.1564    0.4993 C   0  0  0  0  0  0  0  0  0  0  0  0
   -0.3327   -2.8864    0.8893 O   0  0  0  0  0  0  0  0  0  0  0  0
   -1.0277   -0.9164    0.0623 N   0  0  0  0  0  0  0  0  0  0  0  0
   -1.8237   -0.3604   -0.2157 H   0  0  0  0  0  0  0  0  0  0  0  0
    0.2713   -0.2414    0.0463 C   0  0  1  0  0  0  0  0  0  0  0  0
    0.1463    0.7503   -0.3928 H   0  0  0  0  0  0  0  0  0  0  0  0
    0.7523   -0.0736    1.4970 C   0  0  0  0  0  0  0  0  0  0  0  0
    0.7534   -1.0514    1.9839 H   0  0  0  0  0  0  0  0  0  0  0  0
    1.7702    0.3214    1.4997 H   0  0  0  0  0  0  0  0  0  0  0  0
   -0.3433    1.0372    2.4282 S   0  0  0  0  0  0  0  0  0  0  0  0
    0.2431    0.8857    3.6218 H   0  0  0  0  0  0  0  0  0  0  0  0
    1.2676   -1.0289   -0.8291 C   0  0  0  0  0  0  0  0  0  0  0  0
    1.9633   -1.9113   -0.3254 O   0  0  0  0  0  0  0  0  0  0  0  0
    1.3335   -0.7213   -2.1296 N   0  0  0  0  0  0  0  0  0  0  0  0
    0.7762    0.0572   -2.4503 H   0  0  0  0  0  0  0  0  0  0  0  0
    2.2182   -1.3795   -3.0893 C   0  0  0  0  0  0  0  0  0  0  0  0
    2.1142   -2.4636   -3.0047 H   0  0  0  0  0  0  0  0  0  0  0  0
    1.9674   -1.0728   -4.1054 H   0  0  0  0  0  0  0  0  0  0  0  0
    3.2544   -1.1113   -2.8764 H   0  0  0  0  0  0  0  0  0  0  0  0
  5  6  2  0  0  0  0
  5  7  1  0  0  0  0
  2  3  1  0  0  0  0
  2  4  1  0  0  0  0
  2  5  1  0  0  0  0
  1  2  1  0  0  0  0
 16 17  2  0  0  0  0
 16 18  1  0  0  0  0
 14 15  1  0  0  0  0
 11 12  1  0  0  0  0
 11 13  1  0  0  0  0
 11 14  1  0  0  0  0
  9 10  1  0  0  0  0
  9 11  1  0  0  0  0
  9 16  1  0  0  0  0
  7  8  1  0  0  0  0
  7  9  1  0  0  0  0
 20 21  1  0  0  0  0
 20 22  1  0  0  0  0
 20 23  1  0  0  0  0
 18 19  1  0  0  0  0
 18 20  1  0  0  0  0
M  END
$$$$
default_name
  -OEChem-01062215323D

 23 22  0     1  0  0  0  0  0999 V2000
   -2.6857   -3.6684    0.8743 H   0  0  0  0  0  0  0  0  0  0  0  0
   -2.6617   -2.6474    0.4953 C   0  0  0  0  0  0  0  0  0  0  0  0
   -3.2657   -2.0054    1.1353 H   0  0  0  0  0  0  0  0  0  0  0  0
   -3.0477   -2.6254   -0.5217 H   0  0  0  0  0  0  0  0  0  0  0  0
   -1.2337   -2.1564    0.4993 C   0  0  0  0  0  0  0  0  0  0  0  0
   -0.3327   -2.8864    0.8893 O   0  0  0  0  0  0  0  0  0  0  0  0
   -1.0277   -0.9164    0.0623 N   0  0  0  0  0  0  0  0  0  0  0  0
   -1.8237   -0.3604   -0.2157 H   0  0  0  0  0  0  0  0  0  0  0  0
    0.2713   -0.2414    0.0463 C   0  0  1  0  0  0  0  0  0  0  0  0
    0.1463    0.7503   -0.3928 H   0  0  0  0  0  0  0  0  0  0  0  0
    0.7523   -0.0736    1.4970 C   0  0  0  0  0  0  0  0  0  0  0  0
    0.7534   -1.0514    1.9839 H   0  0  0  0  0  0  0  0  0  0  0  0
    1.7702    0.3214    1.4997 H   0  0  0  0  0  0  0  0  0  0  0  0
   -0.3433    1.0372    2.4282 S   0  0  0  0  0  0  0  0  0  0  0  0
    0.2431    0.8857    3.6218 H   0  0  0  0  0  0  0  0  0  0  0  0
    1.2676   -1.0289   -0.8291 C   0  0  0  0  0  0  0  0  0  0  0  0
    1.7569   -2.0783   -0.4100 O   0  0  0  0  0  0  0  0  0  0  0  0
    1.5621   -0.5349   -2.0373 N   0  0  0  0  0  0  0  0  0  0  0  0
    1.1678    0.3626   -2.2794 H   0  0  0  0  0  0  0  0  0  0  0  0
    2.4787   -1.1655   -2.9854 C   0  0  0  0  0  0  0  0  0  0  0  0
    2.2174   -2.2191   -3.1072 H   0  0  0  0  0  0  0  0  0  0  0  0
    2.4214   -0.6669   -3.9538 H   0  0  0  0  0  0  0  0  0  0  0  0
    3.4999   -1.1013   -2.6060 H   0  0  0  0  0  0  0  0  0  0  0  0
  5  6  2  0  0  0  0
  5  7  1  0  0  0  0
  2  3  1  0  0  0  0
  2  4  1  0  0  0  0
  2  5  1  0  0  0  0
  1  2  1  0  0  0  0
 16 17  2  0  0  0  0
 16 18  1  0  0  0  0
 14 15  1  0  0  0  0
 11 12  1  0  0  0  0
 11 13  1  0  0  0  0
 11 14  1  0  0  0  0
  9 10  1  0  0  0  0
  9 11  1  0  0  0  0
  9 16  1  0  0  0  0
  7  8  1  0  0  0  0
  7  9  1  0  0  0  0
 20 21  1  0  0  0  0
 20 22  1  0  0  0  0
 20 23  1  0  0  0  0
 18 19  1  0  0  0  0
 18 20  1  0  0  0  0
M  END
$$$$
default_name
  -OEChem-01062215323D

 23 22  0     1  0  0  0  0  0999 V2000
   -2.6857   -3.6684    0.8743 H   0  0  0  0  0  0  0  0  0  0  0  0
   -2.6617   -2.6474    0.4953 C   0  0  0  0  0  0  0  0  0  0  0  0
   -3.2657   -2.0054    1.1353 H   0  0  0  0  0  0  0  0  0  0  0  0
   -3.0477   -2.6254   -0.5217 H   0  0  0  0  0  0  0  0  0  0  0  0
   -1.2337   -2.1564    0.4993 C   0  0  0  0  0  0  0  0  0  0  0  0
   -0.3327   -2.8864    0.8893 O   0  0  0  0  0  0  0  0  0  0  0  0
   -1.0277   -0.9164    0.0623 N   0  0  0  0  0  0  0  0  0  0  0  0
   -1.8237   -0.3604   -0.2157 H   0  0  0  0  0  0  0  0  0  0  0  0
    0.2713   -0.2414    0.0463 C   0  0  1  0  0  0  0  0  0  0  0  0
    0.1463    0.7503   -0.3928 H   0  0  0  0  0  0  0  0  0  0  0  0
    0.7523   -0.0736    1.4970 C   0  0  0  0  0  0  0  0  0  0  0  0
    0.7534   -1.0514    1.9839 H   0  0  0  0  0  0  0  0  0  0  0  0
    1.7702    0.3214    1.4997 H   0  0  0  0  0  0  0  0  0  0  0  0
   -0.3433    1.0372    2.4282 S   0  0  0  0  0  0  0  0  0  0  0  0
    0.2431    0.8857    3.6218 H   0  0  0  0  0  0  0  0  0  0  0  0
    1.2676   -1.0289   -0.8291 C   0  0  0  0  0  0  0  0  0  0  0  0
    1.5442   -2.1952   -0.5470 O   0  0  0  0  0  0  0  0  0  0  0  0
    1.7979   -0.4039   -1.8867 N   0  0  0  0  0  0  0  0  0  0  0  0
    1.5683    0.5715   -2.0115 H   0  0  0  0  0  0  0  0  0  0  0  0
    2.7479   -1.0143   -2.8149 C   0  0  0  0  0  0  0  0  0  0  0  0
    2.3665   -1.9810   -3.1517 H   0  0  0  0  0  0  0  0  0  0  0  0
    2.8995   -0.3670   -3.6795 H   0  0  0  0  0  0  0  0  0  0  0  0
    3.7027   -1.1730   -2.3107 H   0  0  0  0  0  0  0  0  0  0  0  0
  5  6  2  0  0  0  0
  5  7  1  0  0  0  0
  2  3  1  0  0  0  0
  2  4  1  0  0  0  0
  2  5  1  0  0  0  0
  1  2  1  0  0  0  0
 16 17  2  0  0  0  0
 16 18  1  0  0  0  0
 14 15  1  0  0  0  0
 11 12  1  0  0  0  0
 11 13  1  0  0  0  0
 11 14  1  0  0  0  0
  9 10  1  0  0  0  0
  9 11  1  0  0  0  0
  9 16  1  0  0  0  0
  7  8  1  0  0  0  0
  7  9  1  0  0  0  0
 20 21  1  0  0  0  0
 20 22  1  0  0  0  0
 20 23  1  0  0  0  0
 18 19  1  0  0  0  0
 18 20  1  0  0  0  0
M  END
$$$$
default_name
  -OEChem-01062215323D

 23 22  0     1  0  0  0  0  0999 V2000
   -2.6857   -3.6684    0.8743 H   0  0  0  0  0  0  0  0  0  0  0  0
   -2.6617   -2.6474    0.4953 C   0  0  0  0  0  0  0  0  0  0  0  0
   -3.2657   -2.0054    1.1353 H   0  0  0  0  0  0  0  0  0  0  0  0
   -3.0477   -2.6254   -0.5217 H   0  0  0  0  0  0  0  0  0  0  0  0
   -1.2337   -2.1564    0.4993 C   0  0  0  0  0  0  0  0  0  0  0  0
   -0.3327   -2.8864    0.8893 O   0  0  0  0  0  0  0  0  0  0  0  0
   -1.0277   -0.9164    0.0623 N   0  0  0  0  0  0  0  0  0  0  0  0
   -1.8237   -0.3604   -0.2157 H   0  0  0  0  0  0  0  0  0  0  0  0
    0.2713   -0.2414    0.0463 C   0  0  1  0  0  0  0  0  0  0  0  0
    0.1463    0.7503   -0.3928 H   0  0  0  0  0  0  0  0  0  0  0  0
    0.7523   -0.0736    1.4970 C   0  0  0  0  0  0  0  0  0  0  0  0
    0.7534   -1.0514    1.9839 H   0  0  0  0  0  0  0  0  0  0  0  0
    1.7702    0.3214    1.4997 H   0  0  0  0  0  0  0  0  0  0  0  0
   -0.3433    1.0372    2.4282 S   0  0  0  0  0  0  0  0  0  0  0  0
    0.2431    0.8857    3.6218 H   0  0  0  0  0  0  0  0  0  0  0  0
    1.2676   -1.0289   -0.8291 C   0  0  0  0  0  0  0  0  0  0  0  0
    1.3397   -2.2539   -0.7269 O   0  0  0  0  0  0  0  0  0  0  0  0
    2.0252   -0.3371   -1.6881 N   0  0  0  0  0  0  0  0  0  0  0  0
    1.9504    0.6696   -1.6648 H   0  0  0  0  0  0  0  0  0  0  0  0
    3.0077   -0.9364   -2.5894 C   0  0  0  0  0  0  0  0  0  0  0  0
    2.5515   -1.7654   -3.1351 H   0  0  0  0  0  0  0  0  0  0  0  0
    3.3691   -0.1933   -3.3012 H   0  0  0  0  0  0  0  0  0  0  0  0
    3.8491   -1.3214   -2.0106 H   0  0  0  0  0  0  0  0  0  0  0  0
  5  6  2  0  0  0  0
  5  7  1  0  0  0  0
  2  3  1  0  0  0  0
  2  4  1  0  0  0  0
  2  5  1  0  0  0  0
  1  2  1  0  0  0  0
 16 17  2  0  0  0  0
 16 18  1  0  0  0  0
 14 15  1  0  0  0  0
 11 12  1  0  0  0  0
 11 13  1  0  0  0  0
 11 14  1  0  0  0  0
  9 10  1  0  0  0  0
  9 11  1  0  0  0  0
  9 16  1  0  0  0  0
  7  8  1  0  0  0  0
  7  9  1  0  0  0  0
 20 21  1  0  0  0  0
 20 22  1  0  0  0  0
 20 23  1  0  0  0  0
 18 19  1  0  0  0  0
 18 20  1  0  0  0  0
M  END
$$$$
default_name
  -OEChem-01062215323D

 23 22  0     1  0  0  0  0  0999 V2000
   -2.6857   -3.6684    0.8743 H   0  0  0  0  0  0  0  0  0  0  0  0
   -2.6617   -2.6474    0.4953 C   0  0  0  0  0  0  0  0  0  0  0  0
   -3.2657   -2.0054    1.1353 H   0  0  0  0  0  0  0  0  0  0  0  0
   -3.0477   -2.6254   -0.5217 H   0  0  0  0  0  0  0  0  0  0  0  0
   -1.2337   -2.1564    0.4993 C   0  0  0  0  0  0  0  0  0  0  0  0
   -0.3327   -2.8864    0.8893 O   0  0  0  0  0  0  0  0  0  0  0  0
   -1.0277   -0.9164    0.0623 N   0  0  0  0  0  0  0  0  0  0  0  0
   -1.8237   -0.3604   -0.2157 H   0  0  0  0  0  0  0  0  0  0  0  0
    0.2713   -0.2414    0.0463 C   0  0  1  0  0  0  0  0  0  0  0  0
    0.1463    0.7503   -0.3928 H   0  0  0  0  0  0  0  0  0  0  0  0
    0.7523   -0.0736    1.4970 C   0  0  0  0  0  0  0  0  0  0  0  0
    0.7534   -1.0514    1.9839 H   0  0  0  0  0  0  0  0  0  0  0  0
    1.7702    0.3214    1.4997 H   0  0  0  0  0  0  0  0  0  0  0  0
   -0.3433    1.0372    2.4282 S   0  0  0  0  0  0  0  0  0  0  0  0
    0.2431    0.8857    3.6218 H   0  0  0  0  0  0  0  0  0  0  0  0
    1.2676   -1.0289   -0.8291 C   0  0  0  0  0  0  0  0  0  0  0  0
    1.1573   -2.2506   -0.9375 O   0  0  0  0  0  0  0  0  0  0  0  0
    2.2282   -0.3392   -1.4552 N   0  0  0  0  0  0  0  0  0  0  0  0
    2.2881    0.6503   -1.2631 H   0  0  0  0  0  0  0  0  0  0  0  0
    3.2403   -0.9370   -2.3241 C   0  0  0  0  0  0  0  0  0  0  0  0
    2.7596   -1.5871   -3.0587 H   0  0  0  0  0  0  0  0  0  0  0  0
    3.7983   -0.1578   -2.8447 H   0  0  0  0  0  0  0  0  0  0  0  0
    3.9290   -1.5364   -1.7262 H   0  0  0  0  0  0  0  0  0  0  0  0
  5  6  2  0  0  0  0
  5  7  1  0  0  0  0
  2  3  1  0  0  0  0
  2  4  1  0  0  0  0
  2  5  1  0  0  0  0
  1  2  1  0  0  0  0
 16 17  2  0  0  0  0
 16 18  1  0  0  0  0
 14 15  1  0  0  0  0
 11 12  1  0  0  0  0
 11 13  1  0  0  0  0
 11 14  1  0  0  0  0
  9 10  1  0  0  0  0
  9 11  1  0  0  0  0
  9 16  1  0  0  0  0
  7  8  1  0  0  0  0
  7  9  1  0  0  0  0
 20 21  1  0  0  0  0
 20 22  1  0  0  0  0
 20 23  1  0  0  0  0
 18 19  1  0  0  0  0
 18 20  1  0  0  0  0
M  END
$$$$
default_name
  -OEChem-01062215323D

 23 22  0     1  0  0  0  0  0999 V2000
   -2.6857   -3.6684    0.8743 H   0  0  0  0  0  0  0  0  0  0  0  0
   -2.6617   -2.6474    0.4953 C   0  0  0  0  0  0  0  0  0  0  0  0
   -3.2657   -2.0054    1.1353 H   0  0  0  0  0  0  0  0  0  0  0  0
   -3.0477   -2.6254   -0.5217 H   0  0  0  0  0  0  0  0  0  0  0  0
   -1.2337   -2.1564    0.4993 C   0  0  0  0  0  0  0  0  0  0  0  0
   -0.3327   -2.8864    0.8893 O   0  0  0  0  0  0  0  0  0  0  0  0
   -1.0277   -0.9164    0.0623 N   0  0  0  0  0  0  0  0  0  0  0  0
   -1.8237   -0.3604   -0.2157 H   0  0  0  0  0  0  0  0  0  0  0  0
    0.2713   -0.2414    0.0463 C   0  0  1  0  0  0  0  0  0  0  0  0
    0.1463    0.7503   -0.3928 H   0  0  0  0  0  0  0  0  0  0  0  0
    0.7523   -0.0736    1.4970 C   0  0  0  0  0  0  0  0  0  0  0  0
    0.7534   -1.0514    1.9839 H   0  0  0  0  0  0  0  0  0  0  0  0
    1.7702    0.3214    1.4997 H   0  0  0  0  0  0  0  0  0  0  0  0
   -0.3433    1.0372    2.4282 S   0  0  0  0  0  0  0  0  0  0  0  0
    0.2431    0.8857    3.6218 H   0  0  0  0  0  0  0  0  0  0  0  0
    1.2676   -1.0289   -0.8291 C   0  0  0  0  0  0  0  0  0  0  0  0
    1.0094   -2.1853   -1.1645 O   0  0  0  0  0  0  0  0  0  0  0  0
    2.3932   -0.4100   -1.2037 N   0  0  0  0  0  0  0  0  0  0  0  0
    2.5585    0.5149   -0.8337 H   0  0  0  0  0  0  0  0  0  0  0  0
    3.4298   -1.0161   -2.0373 C   0  0  0  0  0  0  0  0  0  0  0  0
    2.9767   -1.4583   -2.9275 H   0  0  0  0  0  0  0  0  0  0  0  0
    4.1577   -0.2629   -2.3412 H   0  0  0  0  0  0  0  0  0  0  0  0
    3.9371   -1.8033   -1.4770 H   0  0  0  0  0  0  0  0  0  0  0  0
  5  6  2  0  0  0  0
  5  7  1  0  0  0  0
  2  3  1  0  0  0  0
  2  4  1  0  0  0  0
  2  5  1  0  0  0  0
  1  2  1  0  0  0  0
 16 17  2  0  0  0  0
 16 18  1  0  0  0  0
 14 15  1  0  0  0  0
 11 12  1  0  0  0  0
 11 13  1  0  0  0  0
 11 14  1  0  0  0  0
  9 10  1  0  0  0  0
  9 11  1  0  0  0  0
  9 16  1  0  0  0  0
  7  8  1  0  0  0  0
  7  9  1  0  0  0  0
 20 21  1  0  0  0  0
 20 22  1  0  0  0  0
 20 23  1  0  0  0  0
 18 19  1  0  0  0  0
 18 20  1  0  0  0  0
M  END
$$$$
default_name
  -OEChem-01062215323D

 23 22  0     1  0  0  0  0  0999 V2000
   -2.6857   -3.6684    0.8743 H   0  0  0  0  0  0  0  0  0  0  0  0
   -2.6617   -2.6474    0.4953 C   0  0  0  0  0  0  0  0  0  0  0  0
   -3.2657   -2.0054    1.1353 H   0  0  0  0  0  0  0  0  0  0  0  0
   -3.0477   -2.6254   -0.5217 H   0  0  0  0  0  0  0  0  0  0  0  0
   -1.2337   -2.1564    0.4993 C   0  0  0  0  0  0  0  0  0  0  0  0
   -0.3327   -2.8864    0.8893 O   0  0  0  0  0  0  0  0  0  0  0  0
   -1.0277   -0.9164    0.0623 N   0  0  0  0  0  0  0  0  0  0  0  0
   -1.8237   -0.3604   -0.2157 H   0  0  0  0  0  0  0  0  0  0  0  0
    0.2713   -0.2414    0.0463 C   0  0  1  0  0  0  0  0  0  0  0  0
    0.1116    0.8232   -0.1352 H   0  0  0  0  0  0  0  0  0  0  0  0
    0.9242   -0.4062    1.4286 C   0  0  0  0  0  0  0  0  0  0  0  0
    0.9669   -1.4696    1.6743 H   0  0  0  0  0  0  0  0  0  0  0  0
    1.9417   -0.0111    1.4000 H   0  0  0  0  0  0  0  0  0  0  0  0
   -0.0340    0.4487    2.7140 S   0  0  0  0  0  0  0  0  0  0  0  0
    0.6876    0.0334    3.7620 H   0  0  0  0  0  0  0  0  0  0  0  0
    1.1430   -0.7955   -1.0992 C   0  0  0  0  0  0  0  0  0  0  0  0
    0.6998   -1.6760   -1.8373 O   0  0  0  0  0  0  0  0  0  0  0  0
    2.3691   -0.2825   -1.2542 N   0  0  0  0  0  0  0  0  0  0  0  0
    2.6798    0.3902   -0.5682 H   0  0  0  0  0  0  0  0  0  0  0  0
    3.3104   -0.6944   -2.2939 C   0  0  0  0  0  0  0  0  0  0  0  0
    2.8148   -0.6817   -3.2673 H   0  0  0  0  0  0  0  0  0  0  0  0
    4.1658   -0.0182   -2.3175 H   0  0  0  0  0  0  0  0  0  0  0  0
    3.6576   -1.7093   -2.0929 H   0  0  0  0  0  0  0  0  0  0  0  0
  5  6  2  0  0  0  0
  5  7  1  0  0  0  0
  2  3  1  0  0  0  0
  2  4  1  0  0  0  0
  2  5  1  0  0  0  0
  1  2  1  0  0  0  0
 16 17  2  0  0  0  0
 16 18  1  0  0  0  0
 14 15  1  0  0  0  0
 11 12  1  0  0  0  0
 11 13  1  0  0  0  0
 11 14  1  0  0  0  0
  9 10  1  0  0  0  0
  9 11  1  0  0  0  0
  9 16  1  0  0  0  0
  7  8  1  0  0  0  0
  7  9  1  0  0  0  0
 20 21  1  0  0  0  0
 20 22  1  0  0  0  0
 20 23  1  0  0  0  0
 18 19  1  0  0  0  0
 18 20  1  0  0  0  0
M  END
$$$$
default_name
  -OEChem-01062215323D

 23 22  0     1  0  0  0  0  0999 V2000
   -2.6857   -3.6684    0.8743 H   0  0  0  0  0  0  0  0  0  0  0  0
   -2.6617   -2.6474    0.4953 C   0  0  0  0  0  0  0  0  0  0  0  0
   -3.2657   -2.0054    1.1353 H   0  0  0  0  0  0  0  0  0  0  0  0
   -3.0477   -2.6254   -0.5217 H   0  0  0  0  0  0  0  0  0  0  0  0
   -1.2337   -2.1564    0.4993 C   0  0  0  0  0  0  0  0  0  0  0  0
   -0.3327   -2.8864    0.8893 O   0  0  0  0  0  0  0  0  0  0  0  0
   -1.0277   -0.9164    0.0623 N   0  0  0  0  0  0  0  0  0  0  0  0
   -1.8237   -0.3604   -0.2157 H   0  0  0  0  0  0  0  0  0  0  0  0
    0.2713   -0.2414    0.0463 C   0  0  1  0  0  0  0  0  0  0  0  0
    0.1116    0.8232   -0.1352 H   0  0  0  0  0  0  0  0  0  0  0  0
    0.9242   -0.4062    1.4286 C   0  0  0  0  0  0  0  0  0  0  0  0
    0.9669   -1.4696    1.6743 H   0  0  0  0  0  0  0  0  0  0  0  0
    1.9417   -0.0111    1.4000 H   0  0  0  0  0  0  0  0  0  0  0  0
   -0.0340    0.4487    2.7140 S   0  0  0  0  0  0  0  0  0  0  0  0
    0.6876    0.0334    3.7620 H   0  0  0  0  0  0  0  0  0  0  0  0
    1.1430   -0.7955   -1.0992 C   0  0  0  0  0  0  0  0  0  0  0  0
    0.6261   -1.4604   -1.9977 O   0  0  0  0  0  0  0  0  0  0  0  0
    2.4523   -0.5206   -1.0756 N   0  0  0  0  0  0  0  0  0  0  0  0
    2.8069   -0.0239   -0.2712 H   0  0  0  0  0  0  0  0  0  0  0  0
    3.4070   -0.9651   -2.0895 C   0  0  0  0  0  0  0  0  0  0  0  0
    3.0297   -0.7205   -3.0850 H   0  0  0  0  0  0  0  0  0  0  0  0
    4.3704   -0.4761   -1.9403 H   0  0  0  0  0  0  0  0  0  0  0  0
    3.5365   -2.0466   -2.0219 H   0  0  0  0  0  0  0  0  0  0  0  0
  5  6  2  0  0  0  0
  5  7  1  0  0  0  0
  2  3  1  0  0  0  0
  2  4  1  0  0  0  0
  2  5  1  0  0  0  0
  1  2  1  0  0  0  0
 16 17  2  0  0  0  0
 16 18  1  0  0  0  0
 14 15  1  0  0  0  0
 11 12  1  0  0  0  0
 11 13  1  0  0  0  0
 11 14  1  0  0  0  0
  9 10  1  0  0  0  0
  9 11  1  0  0  0  0
  9 16  1  0  0  0  0
  7  8  1  0  0  0  0
  7  9  1  0  0  0  0
 20 21  1  0  0  0  0
 20 22  1  0  0  0  0
 20 23  1  0  0  0  0
 18 19  1  0  0  0  0
 18 20  1  0  0  0  0
M  END
$$$$
default_name
  -OEChem-01062215323D

 23 22  0     1  0  0  0  0  0999 V2000
   -2.6857   -3.6684    0.8743 H   0  0  0  0  0  0  0  0  0  0  0  0
   -2.6617   -2.6474    0.4953 C   0  0  0  0  0  0  0  0  0  0  0  0
   -3.2657   -2.0054    1.1353 H   0  0  0  0  0  0  0  0  0  0  0  0
   -3.0477   -2.6254   -0.5217 H   0  0  0  0  0  0  0  0  0  0  0  0
   -1.2337   -2.1564    0.4993 C   0  0  0  0  0  0  0  0  0  0  0  0
   -0.3327   -2.8864    0.8893 O   0  0  0  0  0  0  0  0  0  0  0  0
   -1.0277   -0.9164    0.0623 N   0  0  0  0  0  0  0  0  0  0  0  0
   -1.8237   -0.3604   -0.2157 H   0  0  0  0  0  0  0  0  0  0  0  0
    0.2713   -0.2414    0.0463 C   0  0  1  0  0  0  0  0  0  0  0  0
    0.1116    0.8232   -0.1352 H   0  0  0  0  0  0  0  0  0  0  0  0
    0.9242   -0.4062    1.4286 C   0  0  0  0  0  0  0  0  0  0  0  0
    0.9669   -1.4696    1.6743 H   0  0  0  0  0  0  0  0  0  0  0  0
    1.9417   -0.0111    1.4000 H   0  0  0  0  0  0  0  0  0  0  0  0
   -0.0340    0.4487    2.7140 S   0  0  0  0  0  0  0  0  0  0  0  0
    0.6876    0.0334    3.7620 H   0  0  0  0  0  0  0  0  0  0  0  0
    1.1430   -0.7955   -1.0992 C   0  0  0  0  0  0  0  0  0  0  0  0
    0.6113   -1.2144   -2.1279 O   0  0  0  0  0  0  0  0  0  0  0  0
    2.4703   -0.7928   -0.9303 N   0  0  0  0  0  0  0  0  0  0  0  0
    2.8225   -0.4917   -0.0331 H   0  0  0  0  0  0  0  0  0  0  0  0
    3.4293   -1.2750   -1.9226 C   0  0  0  0  0  0  0  0  0  0  0  0
    3.2128   -0.8261   -2.8946 H   0  0  0  0  0  0  0  0  0  0  0  0
    4.4450   -1.0129   -1.6240 H   0  0  0  0  0  0  0  0  0  0  0  0
    3.3482   -2.3595   -2.0138 H   0  0  0  0  0  0  0  0  0  0  0  0
  5  6  2  0  0  0  0
  5  7  1  0  0  0  0
  2  3  1  0  0  0  0
  2  4  1  0  0  0  0
  2  5  1  0  0  0  0
  1  2  1  0  0  0  0
 16 17  2  0  0  0  0
 16 18  1  0  0  0  0
 14 15  1  0  0  0  0
 11 12  1  0  0  0  0
 11 13  1  0  0  0  0
 11 14  1  0  0  0  0
  9 10  1  0  0  0  0
  9 11  1  0  0  0  0
  9 16  1  0  0  0  0
  7  8  1  0  0  0  0
  7  9  1  0  0  0  0
 20 21  1  0  0  0  0
 20 22  1  0  0  0  0
 20 23  1  0  0  0  0
 18 19  1  0  0  0  0
 18 20  1  0  0  0  0
M  END
$$$$
default_name
  -OEChem-01062215323D

 23 22  0     1  0  0  0  0  0999 V2000
   -2.6857   -3.6684    0.8743 H   0  0  0  0  0  0  0  0  0  0  0  0
   -2.6617   -2.6474    0.4953 C   0  0  0  0  0  0  0  0  0  0  0  0
   -3.2657   -2.0054    1.1353 H   0  0  0  0  0  0  0  0  0  0  0  0
   -3.0477   -2.6254   -0.5217 H   0  0  0  0  0  0  0  0  0  0  0  0
   -1.2337   -2.1564    0.4993 C   0  0  0  0  0  0  0  0  0  0  0  0
   -0.3327   -2.8864    0.8893 O   0  0  0  0  0  0  0  0  0  0  0  0
   -1.0277   -0.9164    0.0623 N   0  0  0  0  0  0  0  0  0  0  0  0
   -1.8237   -0.3604   -0.2157 H   0  0  0  0  0  0  0  0  0  0  0  0
    0.2713   -0.2414    0.0463 C   0  0  1  0  0  0  0  0  0  0  0  0
    0.1116    0.8232   -0.1352 H   0  0  0  0  0  0  0  0  0  0  0  0
    0.9242   -0.4062    1.4286 C   0  0  0  0  0  0  0  0  0  0  0  0
    0.9669   -1.4696    1.6743 H   0  0  0  0  0  0  0  0  0  0  0  0
    1.9417   -0.0111    1.4000 H   0  0  0  0  0  0  0  0  0  0  0  0
   -0.0340    0.4487    2.7140 S   0  0  0  0  0  0  0  0  0  0  0  0
    0.6876    0.0334    3.7620 H   0  0  0  0  0  0  0  0  0  0  0  0
    1.1430   -0.7955   -1.0992 C   0  0  0  0  0  0  0  0  0  0  0  0
    0.6564   -0.9550   -2.2191 O   0  0  0  0  0  0  0  0  0  0  0  0
    2.4219   -1.0803   -0.8280 N   0  0  0  0  0  0  0  0  0  0  0  0
    2.7255   -0.9814    0.1299 H   0  0  0  0  0  0  0  0  0  0  0  0
    3.3758   -1.6031   -1.8046 C   0  0  0  0  0  0  0  0  0  0  0  0
    3.3518   -0.9910   -2.7090 H   0  0  0  0  0  0  0  0  0  0  0  0
    4.3844   -1.5920   -1.3900 H   0  0  0  0  0  0  0  0  0  0  0  0
    3.1053   -2.6268   -2.0694 H   0  0  0  0  0  0  0  0  0  0  0  0
  5  6  2  0  0  0  0
  5  7  1  0  0  0  0
  2  3  1  0  0  0  0
  2  4  1  0  0  0  0
  2  5  1  0  0  0  0
  1  2  1  0  0  0  0
 16 17  2  0  0  0  0
 16 18  1  0  0  0  0
 14 15  1  0  0  0  0
 11 12  1  0  0  0  0
 11 13  1  0  0  0  0
 11 14  1  0  0  0  0
  9 10  1  0  0  0  0
  9 11  1  0  0  0  0
  9 16  1  0  0  0  0
  7  8  1  0  0  0  0
  7  9  1  0  0  0  0
 20 21  1  0  0  0  0
 20 22  1  0  0  0  0
 20 23  1  0  0  0  0
 18 19  1  0  0  0  0
 18 20  1  0  0  0  0
M  END
$$$$
default_name
  -OEChem-01062215323D

 23 22  0     1  0  0  0  0  0999 V2000
   -2.6857   -3.6684    0.8743 H   0  0  0  0  0  0  0  0  0  0  0  0
   -2.6617   -2.6474    0.4953 C   0  0  0  0  0  0  0  0  0  0  0  0
   -3.2657   -2.0054    1.1353 H   0  0  0  0  0  0  0  0  0  0  0  0
   -3.0477   -2.6254   -0.5217 H   0  0  0  0  0  0  0  0  0  0  0  0
   -1.2337   -2.1564    0.4993 C   0  0  0  0  0  0  0  0  0  0  0  0
   -0.3327   -2.8864    0.8893 O   0  0  0  0  0  0  0  0  0  0  0  0
   -1.0277   -0.9164    0.0623 N   0  0  0  0  0  0  0  0  0  0  0  0
   -1.8237   -0.3604   -0.2157 H   0  0  0  0  0  0  0  0  0  0  0  0
    0.2713   -0.2414    0.0463 C   0  0  1  0  0  0  0  0  0  0  0  0
    0.1116    0.8232   -0.1352 H   0  0  0  0  0  0  0  0  0  0  0  0
    0.9242   -0.4062    1.4286 C   0  0  0  0  0  0  0  0  0  0  0  0
    0.9669   -1.4696    1.6743 H   0  0  0  0  0  0  0  0  0  0  0  0
    1.9417   -0.0111    1.4000 H   0  0  0  0  0  0  0  0  0  0  0  0
   -0.0340    0.4487    2.7140 S   0  0  0  0  0  0  0  0  0  0  0  0
    0.6876    0.0334    3.7620 H   0  0  0  0  0  0  0  0  0  0  0  0
    1.1430   -0.7955   -1.0992 C   0  0  0  0  0  0  0  0  0  0  0  0
    0.7582   -0.6997   -2.2650 O   0  0  0  0  0  0  0  0  0  0  0  0
    2.3104   -1.3638   -0.7758 N   0  0  0  0  0  0  0  0  0  0  0  0
    2.5225   -1.4596    0.2068 H   0  0  0  0  0  0  0  0  0  0  0  0
    3.2500   -1.9270   -1.7437 C   0  0  0  0  0  0  0  0  0  0  0  0
    3.4370   -1.2043   -2.5411 H   0  0  0  0  0  0  0  0  0  0  0  0
    4.1928   -2.1740   -1.2543 H   0  0  0  0  0  0  0  0  0  0  0  0
    2.8246   -2.8301   -2.1847 H   0  0  0  0  0  0  0  0  0  0  0  0
  5  6  2  0  0  0  0
  5  7  1  0  0  0  0
  2  3  1  0  0  0  0
  2  4  1  0  0  0  0
  2  5  1  0  0  0  0
  1  2  1  0  0  0  0
 16 17  2  0  0  0  0
 16 18  1  0  0  0  0
 14 15  1  0  0  0  0
 11 12  1  0  0  0  0
 11 13  1  0  0  0  0
 11 14  1  0  0  0  0
  9 10  1  0  0  0  0
  9 11  1  0  0  0  0
  9 16  1  0  0  0  0
  7  8  1  0  0  0  0
  7  9  1  0  0  0  0
 20 21  1  0  0  0  0
 20 22  1  0  0  0  0
 20 23  1  0  0  0  0
 18 19  1  0  0  0  0
 18 20  1  0  0  0  0
M  END
$$$$
default_name
  -OEChem-01062215323D

 23 22  0     1  0  0  0  0  0999 V2000
   -2.6857   -3.6684    0.8743 H   0  0  0  0  0  0  0  0  0  0  0  0
   -2.6617   -2.6474    0.4953 C   0  0  0  0  0  0  0  0  0  0  0  0
   -3.2657   -2.0054    1.1353 H   0  0  0  0  0  0  0  0  0  0  0  0
   -3.0477   -2.6254   -0.5217 H   0  0  0  0  0  0  0  0  0  0  0  0
   -1.2337   -2.1564    0.4993 C   0  0  0  0  0  0  0  0  0  0  0  0
   -0.3327   -2.8864    0.8893 O   0  0  0  0  0  0  0  0  0  0  0  0
   -1.0277   -0.9164    0.0623 N   0  0  0  0  0  0  0  0  0  0  0  0
   -1.8237   -0.3604   -0.2157 H   0  0  0  0  0  0  0  0  0  0  0  0
    0.2713   -0.2414    0.0463 C   0  0  1  0  0  0  0  0  0  0  0  0
    0.1116    0.8232   -0.1352 H   0  0  0  0  0  0  0  0  0  0  0  0
    0.9242   -0.4062    1.4286 C   0  0  0  0  0  0  0  0  0  0  0  0
    0.9669   -1.4696    1.6743 H   0  0  0  0  0  0  0  0  0  0  0  0
    1.9417   -0.0111    1.4000 H   0  0  0  0  0  0  0  0  0  0  0  0
   -0.0340    0.4487    2.7140 S   0  0  0  0  0  0  0  0  0  0  0  0
    0.6876    0.0334    3.7620 H   0  0  0  0  0  0  0  0  0  0  0  0
    1.1430   -0.7955   -1.0992 C   0  0  0  0  0  0  0  0  0  0  0  0
    0.9100   -0.4660   -2.2626 O   0  0  0  0  0  0  0  0  0  0  0  0
    2.1434   -1.6237   -0.7772 N   0  0  0  0  0  0  0  0  0  0  0  0
    2.2273   -1.8938    0.1922 H   0  0  0  0  0  0  0  0  0  0  0  0
    3.0606   -2.2246   -1.7438 C   0  0  0  0  0  0  0  0  0  0  0  0
    3.4627   -1.4511   -2.4021 H   0  0  0  0  0  0  0  0  0  0  0  0
    3.8833   -2.7191   -1.2261 H   0  0  0  0  0  0  0  0  0  0  0  0
    2.5250   -2.9557   -2.3519 H   0  0  0  0  0  0  0  0  0  0  0  0
  5  6  2  0  0  0  0
  5  7  1  0  0  0  0
  2  3  1  0  0  0  0
  2  4  1  0  0  0  0
  2  5  1  0  0  0  0
  1  2  1  0  0  0  0
 16 17  2  0  0  0  0
 16 18  1  0  0  0  0
 14 15  1  0  0  0  0
 11 12  1  0  0  0  0
 11 13  1  0  0  0  0
 11 14  1  0  0  0  0
  9 10  1  0  0  0  0
  9 11  1  0  0  0  0
  9 16  1  0  0  0  0
  7  8  1  0  0  0  0
  7  9  1  0  0  0  0
 20 21  1  0  0  0  0
 20 22  1  0  0  0  0
 20 23  1  0  0  0  0
 18 19  1  0  0  0  0
 18 20  1  0  0  0  0
M  END
$$$$
default_name
  -OEChem-01062215323D

 23 22  0     1  0  0  0  0  0999 V2000
   -2.6857   -3.6684    0.8743 H   0  0  0  0  0  0  0  0  0  0  0  0
   -2.6617   -2.6474    0.4953 C   0  0  0  0  0  0  0  0  0  0  0  0
   -3.2657   -2.0054    1.1353 H   0  0  0  0  0  0  0  0  0  0  0  0
   -3.0477   -2.6254   -0.5217 H   0  0  0  0  0  0  0  0  0  0  0  0
   -1.2337   -2.1564    0.4993 C   0  0  0  0  0  0  0  0  0  0  0  0
   -0.3327   -2.8864    0.8893 O   0  0  0  0  0  0  0  0  0  0  0  0
   -1.0277   -0.9164    0.0623 N   0  0  0  0  0  0  0  0  0  0  0  0
   -1.8237   -0.3604   -0.2157 H   0  0  0  0  0  0  0  0  0  0  0  0
    0.2713   -0.2414    0.0463 C   0  0  1  0  0  0  0  0  0  0  0  0
    0.1116    0.8232   -0.1352 H   0  0  0  0  0  0  0  0  0  0  0  0
    0.9242   -0.4062    1.4286 C   0  0  0  0  0  0  0  0  0  0  0  0
    0.9669   -1.4696    1.6743 H   0  0  0  0  0  0  0  0  0  0  0  0
    1.9417   -0.0111    1.4000 H   0  0  0  0  0  0  0  0  0  0  0  0
   -0.0340    0.4487    2.7140 S   0  0  0  0  0  0  0  0  0  0  0  0
    0.6876    0.0334    3.7620 H   0  0  0  0  0  0  0  0  0  0  0  0
    1.1430   -0.7955   -1.0992 C   0  0  0  0  0  0  0  0  0  0  0  0
    1.1012   -0.2698   -2.2120 O   0  0  0  0  0  0  0  0  0  0  0  0
    1.9321   -1.8425   -0.8321 N   0  0  0  0  0  0  0  0  0  0  0  0
    1.8601   -2.2543    0.0871 H   0  0  0  0  0  0  0  0  0  0  0  0
    2.8204   -2.4756   -1.8052 C   0  0  0  0  0  0  0  0  0  0  0  0
    3.4272   -1.7149   -2.3015 H   0  0  0  0  0  0  0  0  0  0  0  0
    3.4769   -3.1903   -1.3074 H   0  0  0  0  0  0  0  0  0  0  0  0
    2.2270   -2.9949   -2.5596 H   0  0  0  0  0  0  0  0  0  0  0  0
  5  6  2  0  0  0  0
  5  7  1  0  0  0  0
  2  3  1  0  0  0  0
  2  4  1  0  0  0  0
  2  5  1  0  0  0  0
  1  2  1  0  0  0  0
 16 17  2  0  0  0  0
 16 18  1  0  0  0  0
 14 15  1  0  0  0  0
 11 12  1  0  0  0  0
 11 13  1  0  0  0  0
 11 14  1  0  0  0  0
  9 10  1  0  0  0  0
  9 11  1  0  0  0  0
  9 16  1  0  0  0  0
  7  8  1  0  0  0  0
  7  9  1  0  0  0  0
 20 21  1  0  0  0  0
 20 22  1  0  0  0  0
 20 23  1  0  0  0  0
 18 19  1  0  0  0  0
 18 20  1  0  0  0  0
M  END
$$$$
default_name
  -OEChem-01062215323D

 23 22  0     1  0  0  0  0  0999 V2000
   -2.6857   -3.6684    0.8743 H   0  0  0  0  0  0  0  0  0  0  0  0
   -2.6617   -2.6474    0.4953 C   0  0  0  0  0  0  0  0  0  0  0  0
   -3.2657   -2.0054    1.1353 H   0  0  0  0  0  0  0  0  0  0  0  0
   -3.0477   -2.6254   -0.5217 H   0  0  0  0  0  0  0  0  0  0  0  0
   -1.2337   -2.1564    0.4993 C   0  0  0  0  0  0  0  0  0  0  0  0
   -0.3327   -2.8864    0.8893 O   0  0  0  0  0  0  0  0  0  0  0  0
   -1.0277   -0.9164    0.0623 N   0  0  0  0  0  0  0  0  0  0  0  0
   -1.8237   -0.3604   -0.2157 H   0  0  0  0  0  0  0  0  0  0  0  0
    0.2713   -0.2414    0.0463 C   0  0  1  0  0  0  0  0  0  0  0  0
    0.1116    0.8232   -0.1352 H   0  0  0  0  0  0  0  0  0  0  0  0
    0.9242   -0.4062    1.4286 C   0  0  0  0  0  0  0  0  0  0  0  0
    0.9669   -1.4696    1.6743 H   0  0  0  0  0  0  0  0  0  0  0  0
    1.9417   -0.0111    1.4000 H   0  0  0  0  0  0  0  0  0  0  0  0
   -0.0340    0.4487    2.7140 S   0  0  0  0  0  0  0  0  0  0  0  0
    0.6876    0.0334    3.7620 H   0  0  0  0  0  0  0  0  0  0  0  0
    1.1430   -0.7955   -1.0992 C   0  0  0  0  0  0  0  0  0  0  0  0
    1.3190   -0.1244   -2.1166 O   0  0  0  0  0  0  0  0  0  0  0  0
    1.6912   -2.0052   -0.9367 N   0  0  0  0  0  0  0  0  0  0  0  0
    1.4459   -2.5165   -0.1012 H   0  0  0  0  0  0  0  0  0  0  0  0
    2.5459   -2.6630   -1.9234 C   0  0  0  0  0  0  0  0  0  0  0  0
    3.3328   -1.9776   -2.2463 H   0  0  0  0  0  0  0  0  0  0  0  0
    3.0014   -3.5554   -1.4927 H   0  0  0  0  0  0  0  0  0  0  0  0
    1.9510   -2.9452   -2.7937 H   0  0  0  0  0  0  0  0  0  0  0  0
  5  6  2  0  0  0  0
  5  7  1  0  0  0  0
  2  3  1  0  0  0  0
  2  4  1  0  0  0  0
  2  5  1  0  0  0  0
  1  2  1  0  0  0  0
 16 17  2  0  0  0  0
 16 18  1  0  0  0  0
 14 15  1  0  0  0  0
 11 12  1  0  0  0  0
 11 13  1  0  0  0  0
 11 14  1  0  0  0  0
  9 10  1  0  0  0  0
  9 11  1  0  0  0  0
  9 16  1  0  0  0  0
  7  8  1  0  0  0  0
  7  9  1  0  0  0  0
 20 21  1  0  0  0  0
 20 22  1  0  0  0  0
 20 23  1  0  0  0  0
 18 19  1  0  0  0  0
 18 20  1  0  0  0  0
M  END
$$$$
default_name
  -OEChem-01062215323D

 23 22  0     1  0  0  0  0  0999 V2000
   -2.6857   -3.6684    0.8743 H   0  0  0  0  0  0  0  0  0  0  0  0
   -2.6617   -2.6474    0.4953 C   0  0  0  0  0  0  0  0  0  0  0  0
   -3.2657   -2.0054    1.1353 H   0  0  0  0  0  0  0  0  0  0  0  0
   -3.0477   -2.6254   -0.5217 H   0  0  0  0  0  0  0  0  0  0  0  0
   -1.2337   -2.1564    0.4993 C   0  0  0  0  0  0  0  0  0  0  0  0
   -0.3327   -2.8864    0.8893 O   0  0  0  0  0  0  0  0  0  0  0  0
   -1.0277   -0.9164    0.0623 N   0  0  0  0  0  0  0  0  0  0  0  0
   -1.8237   -0.3604   -0.2157 H   0  0  0  0  0  0  0  0  0  0  0  0
    0.2713   -0.2414    0.0463 C   0  0  1  0  0  0  0  0  0  0  0  0
    0.1116    0.8232   -0.1352 H   0  0  0  0  0  0  0  0  0  0  0  0
    0.9242   -0.4062    1.4286 C   0  0  0  0  0  0  0  0  0  0  0  0
    0.9669   -1.4696    1.6743 H   0  0  0  0  0  0  0  0  0  0  0  0
    1.9417   -0.0111    1.4000 H   0  0  0  0  0  0  0  0  0  0  0  0
   -0.0340    0.4487    2.7140 S   0  0  0  0  0  0  0  0  0  0  0  0
    0.6876    0.0334    3.7620 H   0  0  0  0  0  0  0  0  0  0  0  0
    1.1430   -0.7955   -1.0992 C   0  0  0  0  0  0  0  0  0  0  0  0
    1.5484   -0.0398   -1.9830 O   0  0  0  0  0  0  0  0  0  0  0  0
    1.4369   -2.1008   -1.0841 N   0  0  0  0  0  0  0  0  0  0  0  0
    1.0129   -2.6626   -0.3600 H   0  0  0  0  0  0  0  0  0  0  0  0
    2.2558   -2.7738   -2.0906 C   0  0  0  0  0  0  0  0  0  0  0  0
    3.1861   -2.2212   -2.2401 H   0  0  0  0  0  0  0  0  0  0  0  0
    2.4891   -3.7896   -1.7693 H   0  0  0  0  0  0  0  0  0  0  0  0
    1.7157   -2.8098   -3.0382 H   0  0  0  0  0  0  0  0  0  0  0  0
  5  6  2  0  0  0  0
  5  7  1  0  0  0  0
  2  3  1  0  0  0  0
  2  4  1  0  0  0  0
  2  5  1  0  0  0  0
  1  2  1  0  0  0  0
 16 17  2  0  0  0  0
 16 18  1  0  0  0  0
 14 15  1  0  0  0  0
 11 12  1  0  0  0  0
 11 13  1  0  0  0  0
 11 14  1  0  0  0  0
  9 10  1  0  0  0  0
  9 11  1  0  0  0  0
  9 16  1  0  0  0  0
  7  8  1  0  0  0  0
  7  9  1  0  0  0  0
 20 21  1  0  0  0  0
 20 22  1  0  0  0  0
 20 23  1  0  0  0  0
 18 19  1  0  0  0  0
 18 20  1  0  0  0  0
M  END
$$$$
default_name
  -OEChem-01062215323D

 23 22  0     1  0  0  0  0  0999 V2000
   -2.6857   -3.6684    0.8743 H   0  0  0  0  0  0  0  0  0  0  0  0
   -2.6617   -2.6474    0.4953 C   0  0  0  0  0  0  0  0  0  0  0  0
   -3.2657   -2.0054    1.1353 H   0  0  0  0  0  0  0  0  0  0  0  0
   -3.0477   -2.6254   -0.5217 H   0  0  0  0  0  0  0  0  0  0  0  0
   -1.2337   -2.1564    0.4993 C   0  0  0  0  0  0  0  0  0  0  0  0
   -0.3327   -2.8864    0.8893 O   0  0  0  0  0  0  0  0  0  0  0  0
   -1.0277   -0.9164    0.0623 N   0  0  0  0  0  0  0  0  0  0  0  0
   -1.8237   -0.3604   -0.2157 H   0  0  0  0  0  0  0  0  0  0  0  0
    0.2713   -0.2414    0.0463 C   0  0  1  0  0  0  0  0  0  0  0  0
    0.1116    0.8232   -0.1352 H   0  0  0  0  0  0  0  0  0  0  0  0
    0.9242   -0.4062    1.4286 C   0  0  0  0  0  0  0  0  0  0  0  0
    0.9669   -1.4696    1.6743 H   0  0  0  0  0  0  0  0  0  0  0  0
    1.9417   -0.0111    1.4000 H   0  0  0  0  0  0  0  0  0  0  0  0
   -0.0340    0.4487    2.7140 S   0  0  0  0  0  0  0  0  0  0  0  0
    0.6876    0.0334    3.7620 H   0  0  0  0  0  0  0  0  0  0  0  0
    1.1430   -0.7955   -1.0992 C   0  0  0  0  0  0  0  0  0  0  0  0
    1.7738   -0.0217   -1.8202 O   0  0  0  0  0  0  0  0  0  0  0  0
    1.1865   -2.1226   -1.2640 N   0  0  0  0  0  0  0  0  0  0  0  0
    0.5907   -2.6827   -0.6716 H   0  0  0  0  0  0  0  0  0  0  0  0
    1.9697   -2.8007   -2.2953 C   0  0  0  0  0  0  0  0  0  0  0  0
    2.9969   -2.4292   -2.2835 H   0  0  0  0  0  0  0  0  0  0  0  0
    1.9749   -3.8769   -2.1183 H   0  0  0  0  0  0  0  0  0  0  0  0
    1.5372   -2.5981   -3.2765 H   0  0  0  0  0  0  0  0  0  0  0  0
  5  6  2  0  0  0  0
  5  7  1  0  0  0  0
  2  3  1  0  0  0  0
  2  4  1  0  0  0  0
  2  5  1  0  0  0  0
  1  2  1  0  0  0  0
 16 17  2  0  0  0  0
 16 18  1  0  0  0  0
 14 15  1  0  0  0  0
 11 12  1  0  0  0  0
 11 13  1  0  0  0  0
 11 14  1  0  0  0  0
  9 10  1  0  0  0  0
  9 11  1  0  0  0  0
  9 16  1  0  0  0  0
  7  8  1  0  0  0  0
  7  9  1  0  0  0  0
 20 21  1  0  0  0  0
 20 22  1  0  0  0  0
 20 23  1  0  0  0  0
 18 19  1  0  0  0  0
 18 20  1  0  0  0  0
M  END
$$$$
default_name
  -OEChem-01062215323D

 23 22  0     1  0  0  0  0  0999 V2000
   -2.6857   -3.6684    0.8743 H   0  0  0  0  0  0  0  0  0  0  0  0
   -2.6617   -2.6474    0.4953 C   0  0  0  0  0  0  0  0  0  0  0  0
   -3.2657   -2.0054    1.1353 H   0  0  0  0  0  0  0  0  0  0  0  0
   -3.0477   -2.6254   -0.5217 H   0  0  0  0  0  0  0  0  0  0  0  0
   -1.2337   -2.1564    0.4993 C   0  0  0  0  0  0  0  0  0  0  0  0
   -0.3327   -2.8864    0.8893 O   0  0  0  0  0  0  0  0  0  0  0  0
   -1.0277   -0.9164    0.0623 N   0  0  0  0  0  0  0  0  0  0  0  0
   -1.8237   -0.3604   -0.2157 H   0  0  0  0  0  0  0  0  0  0  0  0
    0.2713   -0.2414    0.0463 C   0  0  1  0  0  0  0  0  0  0  0  0
    0.1116    0.8232   -0.1352 H   0  0  0  0  0  0  0  0  0  0  0  0
    0.9242   -0.4062    1.4286 C   0  0  0  0  0  0  0  0  0  0  0  0
    0.9669   -1.4696    1.6743 H   0  0  0  0  0  0  0  0  0  0  0  0
    1.9417   -0.0111    1.4000 H   0  0  0  0  0  0  0  0  0  0  0  0
   -0.0340    0.4487    2.7140 S   0  0  0  0  0  0  0  0  0  0  0  0
    0.6876    0.0334    3.7620 H   0  0  0  0  0  0  0  0  0  0  0  0
    1.1430   -0.7955   -1.0992 C   0  0  0  0  0  0  0  0  0  0  0  0
    1.9799   -0.0714   -1.6393 O   0  0  0  0  0  0  0  0  0  0  0  0
    0.9573   -2.0693   -1.4642 N   0  0  0  0  0  0  0  0  0  0  0  0
    0.2079   -2.5754   -1.0148 H   0  0  0  0  0  0  0  0  0  0  0  0
    1.7073   -2.7418   -2.5235 C   0  0  0  0  0  0  0  0  0  0  0  0
    2.7782   -2.5875   -2.3733 H   0  0  0  0  0  0  0  0  0  0  0  0
    1.4939   -3.8113   -2.5160 H   0  0  0  0  0  0  0  0  0  0  0  0
    1.4276   -2.3244   -3.4923 H   0  0  0  0  0  0  0  0  0  0  0  0
  5  6  2  0  0  0  0
  5  7  1  0  0  0  0
  2  3  1  0  0  0  0
  2  4  1  0  0  0  0
  2  5  1  0  0  0  0
  1  2  1  0  0  0  0
 16 17  2  0  0  0  0
 16 18  1  0  0  0  0
 14 15  1  0  0  0  0
 11 12  1  0  0  0  0
 11 13  1  0  0  0  0
 11 14  1  0  0  0  0
  9 10  1  0  0  0  0
  9 11  1  0  0  0  0
  9 16  1  0  0  0  0
  7  8  1  0  0  0  0
  7  9  1  0  0  0  0
 20 21  1  0  0  0  0
 20 22  1  0  0  0  0
 20 23  1  0  0  0  0
 18 19  1  0  0  0  0
 18 20  1  0  0  0  0
M  END
$$$$
default_name
  -OEChem-01062215323D

 23 22  0     1  0  0  0  0  0999 V2000
   -2.6857   -3.6684    0.8743 H   0  0  0  0  0  0  0  0  0  0  0  0
   -2.6617   -2.6474    0.4953 C   0  0  0  0  0  0  0  0  0  0  0  0
   -3.2657   -2.0054    1.1353 H   0  0  0  0  0  0  0  0  0  0  0  0
   -3.0477   -2.6254   -0.5217 H   0  0  0  0  0  0  0  0  0  0  0  0
   -1.2337   -2.1564    0.4993 C   0  0  0  0  0  0  0  0  0  0  0  0
   -0.3327   -2.8864    0.8893 O   0  0  0  0  0  0  0  0  0  0  0  0
   -1.0277   -0.9164    0.0623 N   0  0  0  0  0  0  0  0  0  0  0  0
   -1.8237   -0.3604   -0.2157 H   0  0  0  0  0  0  0  0  0  0  0  0
    0.2713   -0.2414    0.0463 C   0  0  1  0  0  0  0  0  0  0  0  0
    0.1116    0.8232   -0.1352 H   0  0  0  0  0  0  0  0  0  0  0  0
    0.9242   -0.4062    1.4286 C   0  0  0  0  0  0  0  0  0  0  0  0
    0.9669   -1.4696    1.6743 H   0  0  0  0  0  0  0  0  0  0  0  0
    1.9417   -0.0111    1.4000 H   0  0  0  0  0  0  0  0  0  0  0  0
   -0.0340    0.4487    2.7140 S   0  0  0  0  0  0  0  0  0  0  0  0
    0.6876    0.0334    3.7620 H   0  0  0  0  0  0  0  0  0  0  0  0
    1.1430   -0.7955   -1.0992 C   0  0  0  0  0  0  0  0  0  0  0  0
    2.1526   -0.1855   -1.4527 O   0  0  0  0  0  0  0  0  0  0  0  0
    0.7647   -1.9445   -1.6711 N   0  0  0  0  0  0  0  0  0  0  0  0
   -0.1093   -2.3479   -1.3662 H   0  0  0  0  0  0  0  0  0  0  0  0
    1.4864   -2.6010   -2.7597 C   0  0  0  0  0  0  0  0  0  0  0  0
    2.5449   -2.6851   -2.5036 H   0  0  0  0  0  0  0  0  0  0  0  0
    1.0790   -3.5973   -2.9353 H   0  0  0  0  0  0  0  0  0  0  0  0
    1.3944   -2.0074   -3.6709 H   0  0  0  0  0  0  0  0  0  0  0  0
  5  6  2  0  0  0  0
  5  7  1  0  0  0  0
  2  3  1  0  0  0  0
  2  4  1  0  0  0  0
  2  5  1  0  0  0  0
  1  2  1  0  0  0  0
 16 17  2  0  0  0  0
 16 18  1  0  0  0  0
 14 15  1  0  0  0  0
 11 12  1  0  0  0  0
 11 13  1  0  0  0  0
 11 14  1  0  0  0  0
  9 10  1  0  0  0  0
  9 11  1  0  0  0  0
  9 16  1  0  0  0  0
  7  8  1  0  0  0  0
  7  9  1  0  0  0  0
 20 21  1  0  0  0  0
 20 22  1  0  0  0  0
 20 23  1  0  0  0  0
 18 19  1  0  0  0  0
 18 20  1  0  0  0  0
M  END
$$$$
default_name
  -OEChem-01062215323D

 23 22  0     1  0  0  0  0  0999 V2000
   -2.6857   -3.6684    0.8743 H   0  0  0  0  0  0  0  0  0  0  0  0
   -2.6617   -2.6474    0.4953 C   0  0  0  0  0  0  0  0  0  0  0  0
   -3.2657   -2.0054    1.1353 H   0  0  0  0  0  0  0  0  0  0  0  0
   -3.0477   -2.6254   -0.5217 H   0  0  0  0  0  0  0  0  0  0  0  0
   -1.2337   -2.1564    0.4993 C   0  0  0  0  0  0  0  0  0  0  0  0
   -0.3327   -2.8864    0.8893 O   0  0  0  0  0  0  0  0  0  0  0  0
   -1.0277   -0.9164    0.0623 N   0  0  0  0  0  0  0  0  0  0  0  0
   -1.8237   -0.3604   -0.2157 H   0  0  0  0  0  0  0  0  0  0  0  0
    0.2713   -0.2414    0.0463 C   0  0  1  0  0  0  0  0  0  0  0  0
    0.1116    0.8232   -0.1352 H   0  0  0  0  0  0  0  0  0  0  0  0
    0.9242   -0.4062    1.4286 C   0  0  0  0  0  0  0  0  0  0  0  0
    0.9669   -1.4696    1.6743 H   0  0  0  0  0  0  0  0  0  0  0  0
    1.9417   -0.0111    1.4000 H   0  0  0  0  0  0  0  0  0  0  0  0
   -0.0340    0.4487    2.7140 S   0  0  0  0  0  0  0  0  0  0  0  0
    0.6876    0.0334    3.7620 H   0  0  0  0  0  0  0  0  0  0  0  0
    1.1430   -0.7955   -1.0992 C   0  0  0  0  0  0  0  0  0  0  0  0
    2.2802   -0.3561   -1.2731 O   0  0  0  0  0  0  0  0  0  0  0  0
    0.6219   -1.7566   -1.8707 N   0  0  0  0  0  0  0  0  0  0  0  0
   -0.3393   -2.0158   -1.7018 H   0  0  0  0  0  0  0  0  0  0  0  0
    1.3220   -2.3880   -2.9878 C   0  0  0  0  0  0  0  0  0  0  0  0
    2.3129   -2.7156   -2.6654 H   0  0  0  0  0  0  0  0  0  0  0  0
    0.7582   -3.2495   -3.3476 H   0  0  0  0  0  0  0  0  0  0  0  0
    1.4399   -1.6687   -3.8001 H   0  0  0  0  0  0  0  0  0  0  0  0
  5  6  2  0  0  0  0
  5  7  1  0  0  0  0
  2  3  1  0  0  0  0
  2  4  1  0  0  0  0
  2  5  1  0  0  0  0
  1  2  1  0  0  0  0
 16 17  2  0  0  0  0
 16 18  1  0  0  0  0
 14 15  1  0  0  0  0
 11 12  1  0  0  0  0
 11 13  1  0  0  0  0
 11 14  1  0  0  0  0
  9 10  1  0  0  0  0
  9 11  1  0  0  0  0
  9 16  1  0  0  0  0
  7  8  1  0  0  0  0
  7  9  1  0  0  0  0
 20 21  1  0  0  0  0
 20 22  1  0  0  0  0
 20 23  1  0  0  0  0
 18 19  1  0  0  0  0
 18 20  1  0  0  0  0
M  END
$$$$
default_name
  -OEChem-01062215323D

 23 22  0     1  0  0  0  0  0999 V2000
   -2.6857   -3.6684    0.8743 H   0  0  0  0  0  0  0  0  0  0  0  0
   -2.6617   -2.6474    0.4953 C   0  0  0  0  0  0  0  0  0  0  0  0
   -3.2657   -2.0054    1.1353 H   0  0  0  0  0  0  0  0  0  0  0  0
   -3.0477   -2.6254   -0.5217 H   0  0  0  0  0  0  0  0  0  0  0  0
   -1.2337   -2.1564    0.4993 C   0  0  0  0  0  0  0  0  0  0  0  0
   -0.3327   -2.8864    0.8893 O   0  0  0  0  0  0  0  0  0  0  0  0
   -1.0277   -0.9164    0.0623 N   0  0  0  0  0  0  0  0  0  0  0  0
   -1.8237   -0.3604   -0.2157 H   0  0  0  0  0  0  0  0  0  0  0  0
    0.2713   -0.2414    0.0463 C   0  0  1  0  0  0  0  0  0  0  0  0
    0.1116    0.8232   -0.1352 H   0  0  0  0  0  0  0  0  0  0  0  0
    0.9242   -0.4062    1.4286 C   0  0  0  0  0  0  0  0  0  0  0  0
    0.9669   -1.4696    1.6743 H   0  0  0  0  0  0  0  0  0  0  0  0
    1.9417   -0.0111    1.4000 H   0  0  0  0  0  0  0  0  0  0  0  0
   -0.0340    0.4487    2.7140 S   0  0  0  0  0  0  0  0  0  0  0  0
    0.6876    0.0334    3.7620 H   0  0  0  0  0  0  0  0  0  0  0  0
    1.1430   -0.7955   -1.0992 C   0  0  0  0  0  0  0  0  0  0  0  0
    2.3539   -0.5718   -1.1127 O   0  0  0  0  0  0  0  0  0  0  0  0
    0.5387   -1.5184   -2.0492 N   0  0  0  0  0  0  0  0  0  0  0  0
   -0.4664   -1.6018   -1.9988 H   0  0  0  0  0  0  0  0  0  0  0  0
    1.2253   -2.1173   -3.1923 C   0  0  0  0  0  0  0  0  0  0  0  0
    2.0980   -2.6767   -2.8478 H   0  0  0  0  0  0  0  0  0  0  0  0
    0.5536   -2.7917   -3.7248 H   0  0  0  0  0  0  0  0  0  0  0  0
    1.5609   -1.3314   -3.8711 H   0  0  0  0  0  0  0  0  0  0  0  0
  5  6  2  0  0  0  0
  5  7  1  0  0  0  0
  2  3  1  0  0  0  0
  2  4  1  0  0  0  0
  2  5  1  0  0  0  0
  1  2  1  0  0  0  0
 16 17  2  0  0  0  0
 16 18  1  0  0  0  0
 14 15  1  0  0  0  0
 11 12  1  0  0  0  0
 11 13  1  0  0  0  0
 11 14  1  0  0  0  0
  9 10  1  0  0  0  0
  9 11  1  0  0  0  0
  9 16  1  0  0  0  0
  7  8  1  0  0  0  0
  7  9  1  0  0  0  0
 20 21  1  0  0  0  0
 20 22  1  0  0  0  0
 20 23  1  0  0  0  0
 18 19  1  0  0  0  0
 18 20  1  0  0  0  0
M  END
$$$$
default_name
  -OEChem-01062215323D

 23 22  0     1  0  0  0  0  0999 V2000
   -2.6857   -3.6684    0.8743 H   0  0  0  0  0  0  0  0  0  0  0  0
   -2.6617   -2.6474    0.4953 C   0  0  0  0  0  0  0  0  0  0  0  0
   -3.2657   -2.0054    1.1353 H   0  0  0  0  0  0  0  0  0  0  0  0
   -3.0477   -2.6254   -0.5217 H   0  0  0  0  0  0  0  0  0  0  0  0
   -1.2337   -2.1564    0.4993 C   0  0  0  0  0  0  0  0  0  0  0  0
   -0.3327   -2.8864    0.8893 O   0  0  0  0  0  0  0  0  0  0  0  0
   -1.0277   -0.9164    0.0623 N   0  0  0  0  0  0  0  0  0  0  0  0
   -1.8237   -0.3604   -0.2157 H   0  0  0  0  0  0  0  0  0  0  0  0
    0.2713   -0.2414    0.0463 C   0  0  1  0  0  0  0  0  0  0  0  0
    0.1116    0.8232   -0.1352 H   0  0  0  0  0  0  0  0  0  0  0  0
    0.9242   -0.4062    1.4286 C   0  0  0  0  0  0  0  0  0  0  0  0
    0.9669   -1.4696    1.6743 H   0  0  0  0  0  0  0  0  0  0  0  0
    1.9417   -0.0111    1.4000 H   0  0  0  0  0  0  0  0  0  0  0  0
   -0.0340    0.4487    2.7140 S   0  0  0  0  0  0  0  0  0  0  0  0
    0.6876    0.0334    3.7620 H   0  0  0  0  0  0  0  0  0  0  0  0
    1.1430   -0.7955   -1.0992 C   0  0  0  0  0  0  0  0  0  0  0  0
    2.3687   -0.8177   -0.9825 O   0  0  0  0  0  0  0  0  0  0  0  0
    0.5207   -1.2463   -2.1945 N   0  0  0  0  0  0  0  0  0  0  0  0
   -0.4819   -1.1339   -2.2370 H   0  0  0  0  0  0  0  0  0  0  0  0
    1.2030   -1.8073   -3.3592 C   0  0  0  0  0  0  0  0  0  0  0  0
    1.9149   -2.5712   -3.0382 H   0  0  0  0  0  0  0  0  0  0  0  0
    0.4790   -2.2549   -4.0411 H   0  0  0  0  0  0  0  0  0  0  0  0
    1.7493   -1.0185   -3.8791 H   0  0  0  0  0  0  0  0  0  0  0  0
  5  6  2  0  0  0  0
  5  7  1  0  0  0  0
  2  3  1  0  0  0  0
  2  4  1  0  0  0  0
  2  5  1  0  0  0  0
  1  2  1  0  0  0  0
 16 17  2  0  0  0  0
 16 18  1  0  0  0  0
 14 15  1  0  0  0  0
 11 12  1  0  0  0  0
 11 13  1  0  0  0  0
 11 14  1  0  0  0  0
  9 10  1  0  0  0  0
  9 11  1  0  0  0  0
  9 16  1  0  0  0  0
  7  8  1  0  0  0  0
  7  9  1  0  0  0  0
 20 21  1  0  0  0  0
 20 22  1  0  0  0  0
 20 23  1  0  0  0  0
 18 19  1  0  0  0  0
 18 20  1  0  0  0  0
M  END
$$$$
default_name
  -OEChem-01062215323D

 23 22  0     1  0  0  0  0  0999 V2000
   -2.6857   -3.6684    0.8743 H   0  0  0  0  0  0  0  0  0  0  0  0
   -2.6617   -2.6474    0.4953 C   0  0  0  0  0  0  0  0  0  0  0  0
   -3.2657   -2.0054    1.1353 H   0  0  0  0  0  0  0  0  0  0  0  0
   -3.0477   -2.6254   -0.5217 H   0  0  0  0  0  0  0  0  0  0  0  0
   -1.2337   -2.1564    0.4993 C   0  0  0  0  0  0  0  0  0  0  0  0
   -0.3327   -2.8864    0.8893 O   0  0  0  0  0  0  0  0  0  0  0  0
   -1.0277   -0.9164    0.0623 N   0  0  0  0  0  0  0  0  0  0  0  0
   -1.8237   -0.3604   -0.2157 H   0  0  0  0  0  0  0  0  0  0  0  0
    0.2713   -0.2414    0.0463 C   0  0  1  0  0  0  0  0  0  0  0  0
    0.1116    0.8232   -0.1352 H   0  0  0  0  0  0  0  0  0  0  0  0
    0.9242   -0.4062    1.4286 C   0  0  0  0  0  0  0  0  0  0  0  0
    0.9669   -1.4696    1.6743 H   0  0  0  0  0  0  0  0  0  0  0  0
    1.9417   -0.0111    1.4000 H   0  0  0  0  0  0  0  0  0  0  0  0
   -0.0340    0.4487    2.7140 S   0  0  0  0  0  0  0  0  0  0  0  0
    0.6876    0.0334    3.7620 H   0  0  0  0  0  0  0  0  0  0  0  0
    1.1430   -0.7955   -1.0992 C   0  0  0  0  0  0  0  0  0  0  0  0
    2.3237   -1.0771   -0.8913 O   0  0  0  0  0  0  0  0  0  0  0  0
    0.5690   -0.9588   -2.2968 N   0  0  0  0  0  0  0  0  0  0  0  0
   -0.3849   -0.6442   -2.4000 H   0  0  0  0  0  0  0  0  0  0  0  0
    1.2566   -1.4792   -3.4771 C   0  0  0  0  0  0  0  0  0  0  0  0
    1.7759   -2.4062   -3.2237 H   0  0  0  0  0  0  0  0  0  0  0  0
    0.5396   -1.6758   -4.2751 H   0  0  0  0  0  0  0  0  0  0  0  0
    1.9921   -0.7512   -3.8236 H   0  0  0  0  0  0  0  0  0  0  0  0
  5  6  2  0  0  0  0
  5  7  1  0  0  0  0
  2  3  1  0  0  0  0
  2  4  1  0  0  0  0
  2  5  1  0  0  0  0
  1  2  1  0  0  0  0
 16 17  2  0  0  0  0
 16 18  1  0  0  0  0
 14 15  1  0  0  0  0
 11 12  1  0  0  0  0
 11 13  1  0  0  0  0
 11 14  1  0  0  0  0
  9 10  1  0  0  0  0
  9 11  1  0  0  0  0
  9 16  1  0  0  0  0
  7  8  1  0  0  0  0
  7  9  1  0  0  0  0
 20 21  1  0  0  0  0
 20 22  1  0  0  0  0
 20 23  1  0  0  0  0
 18 19  1  0  0  0  0
 18 20  1  0  0  0  0
M  END
$$$$
default_name
  -OEChem-01062215323D

 23 22  0     1  0  0  0  0  0999 V2000
   -2.6857   -3.6684    0.8743 H   0  0  0  0  0  0  0  0  0  0  0  0
   -2.6617   -2.6474    0.4953 C   0  0  0  0  0  0  0  0  0  0  0  0
   -3.2657   -2.0054    1.1353 H   0  0  0  0  0  0  0  0  0  0  0  0
   -3.0477   -2.6254   -0.5217 H   0  0  0  0  0  0  0  0  0  0  0  0
   -1.2337   -2.1564    0.4993 C   0  0  0  0  0  0  0  0  0  0  0  0
   -0.3327   -2.8864    0.8893 O   0  0  0  0  0  0  0  0  0  0  0  0
   -1.0277   -0.9164    0.0623 N   0  0  0  0  0  0  0  0  0  0  0  0
   -1.8237   -0.3604   -0.2157 H   0  0  0  0  0  0  0  0  0  0  0  0
    0.2713   -0.2414    0.0463 C   0  0  1  0  0  0  0  0  0  0  0  0
    0.1116    0.8232   -0.1352 H   0  0  0  0  0  0  0  0  0  0  0  0
    0.9242   -0.4062    1.4286 C   0  0  0  0  0  0  0  0  0  0  0  0
    0.9669   -1.4696    1.6743 H   0  0  0  0  0  0  0  0  0  0  0  0
    1.9417   -0.0111    1.4000 H   0  0  0  0  0  0  0  0  0  0  0  0
   -0.0340    0.4487    2.7140 S   0  0  0  0  0  0  0  0  0  0  0  0
    0.6876    0.0334    3.7620 H   0  0  0  0  0  0  0  0  0  0  0  0
    1.1430   -0.7955   -1.0992 C   0  0  0  0  0  0  0  0  0  0  0  0
    2.2218   -1.3324   -0.8454 O   0  0  0  0  0  0  0  0  0  0  0  0
    0.6806   -0.6753   -2.3490 N   0  0  0  0  0  0  0  0  0  0  0  0
   -0.1819   -0.1660   -2.4768 H   0  0  0  0  0  0  0  0  0  0  0  0
    1.3823   -1.1553   -3.5381 C   0  0  0  0  0  0  0  0  0  0  0  0
    1.6907   -2.1930   -3.3917 H   0  0  0  0  0  0  0  0  0  0  0  0
    0.7312   -1.0938   -4.4109 H   0  0  0  0  0  0  0  0  0  0  0  0
    2.2729   -0.5479   -3.7083 H   0  0  0  0  0  0  0  0  0  0  0  0
  5  6  2  0  0  0  0
  5  7  1  0  0  0  0
  2  3  1  0  0  0  0
  2  4  1  0  0  0  0
  2  5  1  0  0  0  0
  1  2  1  0  0  0  0
 16 17  2  0  0  0  0
 16 18  1  0  0  0  0
 14 15  1  0  0  0  0
 11 12  1  0  0  0  0
 11 13  1  0  0  0  0
 11 14  1  0  0  0  0
  9 10  1  0  0  0  0
  9 11  1  0  0  0  0
  9 16  1  0  0  0  0
  7  8  1  0  0  0  0
  7  9  1  0  0  0  0
 20 21  1  0  0  0  0
 20 22  1  0  0  0  0
 20 23  1  0  0  0  0
 18 19  1  0  0  0  0
 18 20  1  0  0  0  0
M  END
$$$$
default_name
  -OEChem-01062215323D

 23 22  0     1  0  0  0  0  0999 V2000
   -2.6857   -3.6684    0.8743 H   0  0  0  0  0  0  0  0  0  0  0  0
   -2.6617   -2.6474    0.4953 C   0  0  0  0  0  0  0  0  0  0  0  0
   -3.2657   -2.0054    1.1353 H   0  0  0  0  0  0  0  0  0  0  0  0
   -3.0477   -2.6254   -0.5217 H   0  0  0  0  0  0  0  0  0  0  0  0
   -1.2337   -2.1564    0.4993 C   0  0  0  0  0  0  0  0  0  0  0  0
   -0.3327   -2.8864    0.8893 O   0  0  0  0  0  0  0  0  0  0  0  0
   -1.0277   -0.9164    0.0623 N   0  0  0  0  0  0  0  0  0  0  0  0
   -1.8237   -0.3604   -0.2157 H   0  0  0  0  0  0  0  0  0  0  0  0
    0.2713   -0.2414    0.0463 C   0  0  1  0  0  0  0  0  0  0  0  0
    0.1116    0.8232   -0.1352 H   0  0  0  0  0  0  0  0  0  0  0  0
    0.9242   -0.4062    1.4286 C   0  0  0  0  0  0  0  0  0  0  0  0
    0.9669   -1.4696    1.6743 H   0  0  0  0  0  0  0  0  0  0  0  0
    1.9417   -0.0111    1.4000 H   0  0  0  0  0  0  0  0  0  0  0  0
   -0.0340    0.4487    2.7140 S   0  0  0  0  0  0  0  0  0  0  0  0
    0.6876    0.0334    3.7620 H   0  0  0  0  0  0  0  0  0  0  0  0
    1.1430   -0.7955   -1.0992 C   0  0  0  0  0  0  0  0  0  0  0  0
    2.0701   -1.5661   -0.8478 O   0  0  0  0  0  0  0  0  0  0  0  0
    0.8476   -0.4154   -2.3476 N   0  0  0  0  0  0  0  0  0  0  0  0
    0.1133    0.2681   -2.4622 H   0  0  0  0  0  0  0  0  0  0  0  0
    1.5717   -0.8577   -3.5379 C   0  0  0  0  0  0  0  0  0  0  0  0
    1.6650   -1.9461   -3.5307 H   0  0  0  0  0  0  0  0  0  0  0  0
    1.0407   -0.5487   -4.4390 H   0  0  0  0  0  0  0  0  0  0  0  0
    2.5724   -0.4223   -3.5411 H   0  0  0  0  0  0  0  0  0  0  0  0
  5  6  2  0  0  0  0
  5  7  1  0  0  0  0
  2  3  1  0  0  0  0
  2  4  1  0  0  0  0
  2  5  1  0  0  0  0
  1  2  1  0  0  0  0
 16 17  2  0  0  0  0
 16 18  1  0  0  0  0
 14 15  1  0  0  0  0
 11 12  1  0  0  0  0
 11 13  1  0  0  0  0
 11 14  1  0  0  0  0
  9 10  1  0  0  0  0
  9 11  1  0  0  0  0
  9 16  1  0  0  0  0
  7  8  1  0  0  0  0
  7  9  1  0  0  0  0
 20 21  1  0  0  0  0
 20 22  1  0  0  0  0
 20 23  1  0  0  0  0
 18 19  1  0  0  0  0
 18 20  1  0  0  0  0
M  END
$$$$
default_name
  -OEChem-01062215323D

 23 22  0     1  0  0  0  0  0999 V2000
   -2.6857   -3.6684    0.8743 H   0  0  0  0  0  0  0  0  0  0  0  0
   -2.6617   -2.6474    0.4953 C   0  0  0  0  0  0  0  0  0  0  0  0
   -3.2657   -2.0054    1.1353 H   0  0  0  0  0  0  0  0  0  0  0  0
   -3.0477   -2.6254   -0.5217 H   0  0  0  0  0  0  0  0  0  0  0  0
   -1.2337   -2.1564    0.4993 C   0  0  0  0  0  0  0  0  0  0  0  0
   -0.3327   -2.8864    0.8893 O   0  0  0  0  0  0  0  0  0  0  0  0
   -1.0277   -0.9164    0.0623 N   0  0  0  0  0  0  0  0  0  0  0  0
   -1.8237   -0.3604   -0.2157 H   0  0  0  0  0  0  0  0  0  0  0  0
    0.2713   -0.2414    0.0463 C   0  0  1  0  0  0  0  0  0  0  0  0
    0.1116    0.8232   -0.1352 H   0  0  0  0  0  0  0  0  0  0  0  0
    0.9242   -0.4062    1.4286 C   0  0  0  0  0  0  0  0  0  0  0  0
    0.9669   -1.4696    1.6743 H   0  0  0  0  0  0  0  0  0  0  0  0
    1.9417   -0.0111    1.4000 H   0  0  0  0  0  0  0  0  0  0  0  0
   -0.0340    0.4487    2.7140 S   0  0  0  0  0  0  0  0  0  0  0  0
    0.6876    0.0334    3.7620 H   0  0  0  0  0  0  0  0  0  0  0  0
    1.1430   -0.7955   -1.0992 C   0  0  0  0  0  0  0  0  0  0  0  0
    1.8788   -1.7623   -0.8984 O   0  0  0  0  0  0  0  0  0  0  0  0
    1.0589   -0.1966   -2.2927 N   0  0  0  0  0  0  0  0  0  0  0  0
    0.4805    0.6286   -2.3571 H   0  0  0  0  0  0  0  0  0  0  0  0
    1.8119   -0.6067   -3.4766 C   0  0  0  0  0  0  0  0  0  0  0  0
    1.7005   -1.6823   -3.6312 H   0  0  0  0  0  0  0  0  0  0  0  0
    1.4471   -0.0775   -4.3577 H   0  0  0  0  0  0  0  0  0  0  0  0
    2.8704   -0.3831   -3.3334 H   0  0  0  0  0  0  0  0  0  0  0  0
  5  6  2  0  0  0  0
  5  7  1  0  0  0  0
  2  3  1  0  0  0  0
  2  4  1  0  0  0  0
  2  5  1  0  0  0  0
  1  2  1  0  0  0  0
 16 17  2  0  0  0  0
 16 18  1  0  0  0  0
 14 15  1  0  0  0  0
 11 12  1  0  0  0  0
 11 13  1  0  0  0  0
 11 14  1  0  0  0  0
  9 10  1  0  0  0  0
  9 11  1  0  0  0  0
  9 16  1  0  0  0  0
  7  8  1  0  0  0  0
  7  9  1  0  0  0  0
 20 21  1  0  0  0  0
 20 22  1  0  0  0  0
 20 23  1  0  0  0  0
 18 19  1  0  0  0  0
 18 20  1  0  0  0  0
M  END
$$$$
default_name
  -OEChem-01062215323D

 23 22  0     1  0  0  0  0  0999 V2000
   -2.6857   -3.6684    0.8743 H   0  0  0  0  0  0  0  0  0  0  0  0
   -2.6617   -2.6474    0.4953 C   0  0  0  0  0  0  0  0  0  0  0  0
   -3.2657   -2.0054    1.1353 H   0  0  0  0  0  0  0  0  0  0  0  0
   -3.0477   -2.6254   -0.5217 H   0  0  0  0  0  0  0  0  0  0  0  0
   -1.2337   -2.1564    0.4993 C   0  0  0  0  0  0  0  0  0  0  0  0
   -0.3327   -2.8864    0.8893 O   0  0  0  0  0  0  0  0  0  0  0  0
   -1.0277   -0.9164    0.0623 N   0  0  0  0  0  0  0  0  0  0  0  0
   -1.8237   -0.3604   -0.2157 H   0  0  0  0  0  0  0  0  0  0  0  0
    0.2713   -0.2414    0.0463 C   0  0  1  0  0  0  0  0  0  0  0  0
    0.1116    0.8232   -0.1352 H   0  0  0  0  0  0  0  0  0  0  0  0
    0.9242   -0.4062    1.4286 C   0  0  0  0  0  0  0  0  0  0  0  0
    0.9669   -1.4696    1.6743 H   0  0  0  0  0  0  0  0  0  0  0  0
    1.9417   -0.0111    1.4000 H   0  0  0  0  0  0  0  0  0  0  0  0
   -0.0340    0.4487    2.7140 S   0  0  0  0  0  0  0  0  0  0  0  0
    0.6876    0.0334    3.7620 H   0  0  0  0  0  0  0  0  0  0  0  0
    1.1430   -0.7955   -1.0992 C   0  0  0  0  0  0  0  0  0  0  0  0
    1.6610   -1.9077   -0.9938 O   0  0  0  0  0  0  0  0  0  0  0  0
    1.2998   -0.0338   -2.1881 N   0  0  0  0  0  0  0  0  0  0  0  0
    0.8947    0.8908   -2.1688 H   0  0  0  0  0  0  0  0  0  0  0  0
    2.0864   -0.4194   -3.3583 C   0  0  0  0  0  0  0  0  0  0  0  0
    1.7948   -1.4197   -3.6865 H   0  0  0  0  0  0  0  0  0  0  0  0
    1.9227    0.2877   -4.1724 H   0  0  0  0  0  0  0  0  0  0  0  0
    3.1464   -0.4328   -3.0993 H   0  0  0  0  0  0  0  0  0  0  0  0
  5  6  2  0  0  0  0
  5  7  1  0  0  0  0
  2  3  1  0  0  0  0
  2  4  1  0  0  0  0
  2  5  1  0  0  0  0
  1  2  1  0  0  0  0
 16 17  2  0  0  0  0
 16 18  1  0  0  0  0
 14 15  1  0  0  0  0
 11 12  1  0  0  0  0
 11 13  1  0  0  0  0
 11 14  1  0  0  0  0
  9 10  1  0  0  0  0
  9 11  1  0  0  0  0
  9 16  1  0  0  0  0
  7  8  1  0  0  0  0
  7  9  1  0  0  0  0
 20 21  1  0  0  0  0
 20 22  1  0  0  0  0
 20 23  1  0  0  0  0
 18 19  1  0  0  0  0
 18 20  1  0  0  0  0
M  END
$$$$
default_name
  -OEChem-01062215323D

 23 22  0     1  0  0  0  0  0999 V2000
   -2.6857   -3.6684    0.8743 H   0  0  0  0  0  0  0  0  0  0  0  0
   -2.6617   -2.6474    0.4953 C   0  0  0  0  0  0  0  0  0  0  0  0
   -3.2657   -2.0054    1.1353 H   0  0  0  0  0  0  0  0  0  0  0  0
   -3.0477   -2.6254   -0.5217 H   0  0  0  0  0  0  0  0  0  0  0  0
   -1.2337   -2.1564    0.4993 C   0  0  0  0  0  0  0  0  0  0  0  0
   -0.3327   -2.8864    0.8893 O   0  0  0  0  0  0  0  0  0  0  0  0
   -1.0277   -0.9164    0.0623 N   0  0  0  0  0  0  0  0  0  0  0  0
   -1.8237   -0.3604   -0.2157 H   0  0  0  0  0  0  0  0  0  0  0  0
    0.2713   -0.2414    0.0463 C   0  0  1  0  0  0  0  0  0  0  0  0
    0.1116    0.8232   -0.1352 H   0  0  0  0  0  0  0  0  0  0  0  0
    0.9242   -0.4062    1.4286 C   0  0  0  0  0  0  0  0  0  0  0  0
    0.9669   -1.4696    1.6743 H   0  0  0  0  0  0  0  0  0  0  0  0
    1.9417   -0.0111    1.4000 H   0  0  0  0  0  0  0  0  0  0  0  0
   -0.0340    0.4487    2.7140 S   0  0  0  0  0  0  0  0  0  0  0  0
    0.6876    0.0334    3.7620 H   0  0  0  0  0  0  0  0  0  0  0  0
    1.1430   -0.7955   -1.0992 C   0  0  0  0  0  0  0  0  0  0  0  0
    1.4316   -1.9923   -1.1274 O   0  0  0  0  0  0  0  0  0  0  0  0
    1.5541    0.0617   -2.0408 N   0  0  0  0  0  0  0  0  0  0  0  0
    1.3276    1.0370   -1.9100 H   0  0  0  0  0  0  0  0  0  0  0  0
    2.3765   -0.3085   -3.1912 C   0  0  0  0  0  0  0  0  0  0  0  0
    1.9416   -1.1760   -3.6926 H   0  0  0  0  0  0  0  0  0  0  0  0
    2.4350    0.5218   -3.8958 H   0  0  0  0  0  0  0  0  0  0  0  0
    3.3817   -0.5682   -2.8547 H   0  0  0  0  0  0  0  0  0  0  0  0
  5  6  2  0  0  0  0
  5  7  1  0  0  0  0
  2  3  1  0  0  0  0
  2  4  1  0  0  0  0
  2  5  1  0  0  0  0
  1  2  1  0  0  0  0
 16 17  2  0  0  0  0
 16 18  1  0  0  0  0
 14 15  1  0  0  0  0
 11 12  1  0  0  0  0
 11 13  1  0  0  0  0
 11 14  1  0  0  0  0
  9 10  1  0  0  0  0
  9 11  1  0  0  0  0
  9 16  1  0  0  0  0
  7  8  1  0  0  0  0
  7  9  1  0  0  0  0
 20 21  1  0  0  0  0
 20 22  1  0  0  0  0
 20 23  1  0  0  0  0
 18 19  1  0  0  0  0
 18 20  1  0  0  0  0
M  END
$$$$
default_name
  -OEChem-01062215323D

 23 22  0     1  0  0  0  0  0999 V2000
   -2.6857   -3.6684    0.8743 H   0  0  0  0  0  0  0  0  0  0  0  0
   -2.6617   -2.6474    0.4953 C   0  0  0  0  0  0  0  0  0  0  0  0
   -3.2657   -2.0054    1.1353 H   0  0  0  0  0  0  0  0  0  0  0  0
   -3.0477   -2.6254   -0.5217 H   0  0  0  0  0  0  0  0  0  0  0  0
   -1.2337   -2.1564    0.4993 C   0  0  0  0  0  0  0  0  0  0  0  0
   -0.3327   -2.8864    0.8893 O   0  0  0  0  0  0  0  0  0  0  0  0
   -1.0277   -0.9164    0.0623 N   0  0  0  0  0  0  0  0  0  0  0  0
   -1.8237   -0.3604   -0.2157 H   0  0  0  0  0  0  0  0  0  0  0  0
    0.2713   -0.2414    0.0463 C   0  0  1  0  0  0  0  0  0  0  0  0
    0.1116    0.8232   -0.1352 H   0  0  0  0  0  0  0  0  0  0  0  0
    0.9242   -0.4062    1.4286 C   0  0  0  0  0  0  0  0  0  0  0  0
    0.9669   -1.4696    1.6743 H   0  0  0  0  0  0  0  0  0  0  0  0
    1.9417   -0.0111    1.4000 H   0  0  0  0  0  0  0  0  0  0  0  0
   -0.0340    0.4487    2.7140 S   0  0  0  0  0  0  0  0  0  0  0  0
    0.6876    0.0334    3.7620 H   0  0  0  0  0  0  0  0  0  0  0  0
    1.1430   -0.7955   -1.0992 C   0  0  0  0  0  0  0  0  0  0  0  0
    1.2062   -2.0104   -1.2902 O   0  0  0  0  0  0  0  0  0  0  0  0
    1.8044    0.0835   -1.8609 N   0  0  0  0  0  0  0  0  0  0  0  0
    1.7499    1.0571   -1.5984 H   0  0  0  0  0  0  0  0  0  0  0  0
    2.6626   -0.2816   -2.9865 C   0  0  0  0  0  0  0  0  0  0  0  0
    2.1308   -0.9680   -3.6493 H   0  0  0  0  0  0  0  0  0  0  0  0
    2.9491    0.6091   -3.5468 H   0  0  0  0  0  0  0  0  0  0  0  0
    3.5603   -0.7799   -2.6165 H   0  0  0  0  0  0  0  0  0  0  0  0
  5  6  2  0  0  0  0
  5  7  1  0  0  0  0
  2  3  1  0  0  0  0
  2  4  1  0  0  0  0
  2  5  1  0  0  0  0
  1  2  1  0  0  0  0
 16 17  2  0  0  0  0
 16 18  1  0  0  0  0
 14 15  1  0  0  0  0
 11 12  1  0  0  0  0
 11 13  1  0  0  0  0
 11 14  1  0  0  0  0
  9 10  1  0  0  0  0
  9 11  1  0  0  0  0
  9 16  1  0  0  0  0
  7  8  1  0  0  0  0
  7  9  1  0  0  0  0
 20 21  1  0  0  0  0
 20 22  1  0  0  0  0
 20 23  1  0  0  0  0
 18 19  1  0  0  0  0
 18 20  1  0  0  0  0
M  END
$$$$
default_name
  -OEChem-01062215323D

 23 22  0     1  0  0  0  0  0999 V2000
   -2.6857   -3.6684    0.8743 H   0  0  0  0  0  0  0  0  0  0  0  0
   -2.6617   -2.6474    0.4953 C   0  0  0  0  0  0  0  0  0  0  0  0
   -3.2657   -2.0054    1.1353 H   0  0  0  0  0  0  0  0  0  0  0  0
   -3.0477   -2.6254   -0.5217 H   0  0  0  0  0  0  0  0  0  0  0  0
   -1.2337   -2.1564    0.4993 C   0  0  0  0  0  0  0  0  0  0  0  0
   -0.3327   -2.8864    0.8893 O   0  0  0  0  0  0  0  0  0  0  0  0
   -1.0277   -0.9164    0.0623 N   0  0  0  0  0  0  0  0  0  0  0  0
   -1.8237   -0.3604   -0.2157 H   0  0  0  0  0  0  0  0  0  0  0  0
    0.2713   -0.2414    0.0463 C   0  0  1  0  0  0  0  0  0  0  0  0
    0.1116    0.8232   -0.1352 H   0  0  0  0  0  0  0  0  0  0  0  0
    0.9242   -0.4062    1.4286 C   0  0  0  0  0  0  0  0  0  0  0  0
    0.9669   -1.4696    1.6743 H   0  0  0  0  0  0  0  0  0  0  0  0
    1.9417   -0.0111    1.4000 H   0  0  0  0  0  0  0  0  0  0  0  0
   -0.0340    0.4487    2.7140 S   0  0  0  0  0  0  0  0  0  0  0  0
    0.6876    0.0334    3.7620 H   0  0  0  0  0  0  0  0  0  0  0  0
    1.1430   -0.7955   -1.0992 C   0  0  0  0  0  0  0  0  0  0  0  0
    1.0001   -1.9607   -1.4711 O   0  0  0  0  0  0  0  0  0  0  0  0
    2.0337    0.0302   -1.6606 N   0  0  0  0  0  0  0  0  0  0  0  0
    2.1327    0.9497   -1.2552 H   0  0  0  0  0  0  0  0  0  0  0  0
    2.9250   -0.3406   -2.7583 C   0  0  0  0  0  0  0  0  0  0  0  0
    2.3495   -0.8098   -3.5594 H   0  0  0  0  0  0  0  0  0  0  0  0
    3.4301    0.5435   -3.1491 H   0  0  0  0  0  0  0  0  0  0  0  0
    3.6698   -1.0536   -2.4007 H   0  0  0  0  0  0  0  0  0  0  0  0
  5  6  2  0  0  0  0
  5  7  1  0  0  0  0
  2  3  1  0  0  0  0
  2  4  1  0  0  0  0
  2  5  1  0  0  0  0
  1  2  1  0  0  0  0
 16 17  2  0  0  0  0
 16 18  1  0  0  0  0
 14 15  1  0  0  0  0
 11 12  1  0  0  0  0
 11 13  1  0  0  0  0
 11 14  1  0  0  0  0
  9 10  1  0  0  0  0
  9 11  1  0  0  0  0
  9 16  1  0  0  0  0
  7  8  1  0  0  0  0
  7  9  1  0  0  0  0
 20 21  1  0  0  0  0
 20 22  1  0  0  0  0
 20 23  1  0  0  0  0
 18 19  1  0  0  0  0
 18 20  1  0  0  0  0
M  END
$$$$
default_name
  -OEChem-01062215323D

 23 22  0     1  0  0  0  0  0999 V2000
   -2.6857   -3.6684    0.8743 H   0  0  0  0  0  0  0  0  0  0  0  0
   -2.6617   -2.6474    0.4953 C   0  0  0  0  0  0  0  0  0  0  0  0
   -3.2657   -2.0054    1.1353 H   0  0  0  0  0  0  0  0  0  0  0  0
   -3.0477   -2.6254   -0.5217 H   0  0  0  0  0  0  0  0  0  0  0  0
   -1.2337   -2.1564    0.4993 C   0  0  0  0  0  0  0  0  0  0  0  0
   -0.3327   -2.8864    0.8893 O   0  0  0  0  0  0  0  0  0  0  0  0
   -1.0277   -0.9164    0.0623 N   0  0  0  0  0  0  0  0  0  0  0  0
   -1.8237   -0.3604   -0.2157 H   0  0  0  0  0  0  0  0  0  0  0  0
    0.2713   -0.2414    0.0463 C   0  0  1  0  0  0  0  0  0  0  0  0
    0.1116    0.8232   -0.1352 H   0  0  0  0  0  0  0  0  0  0  0  0
    0.9242   -0.4062    1.4286 C   0  0  0  0  0  0  0  0  0  0  0  0
    0.9669   -1.4696    1.6743 H   0  0  0  0  0  0  0  0  0  0  0  0
    1.9417   -0.0111    1.4000 H   0  0  0  0  0  0  0  0  0  0  0  0
   -0.0340    0.4487    2.7140 S   0  0  0  0  0  0  0  0  0  0  0  0
    0.6876    0.0334    3.7620 H   0  0  0  0  0  0  0  0  0  0  0  0
    1.1430   -0.7955   -1.0992 C   0  0  0  0  0  0  0  0  0  0  0  0
    0.8274   -1.8466   -1.6577 O   0  0  0  0  0  0  0  0  0  0  0  0
    2.2263   -0.0946   -1.4537 N   0  0  0  0  0  0  0  0  0  0  0  0
    2.4498    0.7222   -0.9038 H   0  0  0  0  0  0  0  0  0  0  0  0
    3.1460   -0.4814   -2.5221 C   0  0  0  0  0  0  0  0  0  0  0  0
    2.5828   -0.7121   -3.4291 H   0  0  0  0  0  0  0  0  0  0  0  0
    3.8451    0.3295   -2.7298 H   0  0  0  0  0  0  0  0  0  0  0  0
    3.7030   -1.3706   -2.2221 H   0  0  0  0  0  0  0  0  0  0  0  0
  5  6  2  0  0  0  0
  5  7  1  0  0  0  0
  2  3  1  0  0  0  0
  2  4  1  0  0  0  0
  2  5  1  0  0  0  0
  1  2  1  0  0  0  0
 16 17  2  0  0  0  0
 16 18  1  0  0  0  0
 14 15  1  0  0  0  0
 11 12  1  0  0  0  0
 11 13  1  0  0  0  0
 11 14  1  0  0  0  0
  9 10  1  0  0  0  0
  9 11  1  0  0  0  0
  9 16  1  0  0  0  0
  7  8  1  0  0  0  0
  7  9  1  0  0  0  0
 20 21  1  0  0  0  0
 20 22  1  0  0  0  0
 20 23  1  0  0  0  0
 18 19  1  0  0  0  0
 18 20  1  0  0  0  0
M  END
$$$$
default_name
  -OEChem-01062215323D

 23 22  0     1  0  0  0  0  0999 V2000
   -2.6857   -3.6684    0.8743 H   0  0  0  0  0  0  0  0  0  0  0  0
   -2.6617   -2.6474    0.4953 C   0  0  0  0  0  0  0  0  0  0  0  0
   -3.2657   -2.0054    1.1353 H   0  0  0  0  0  0  0  0  0  0  0  0
   -3.0477   -2.6254   -0.5217 H   0  0  0  0  0  0  0  0  0  0  0  0
   -1.2337   -2.1564    0.4993 C   0  0  0  0  0  0  0  0  0  0  0  0
   -0.3327   -2.8864    0.8893 O   0  0  0  0  0  0  0  0  0  0  0  0
   -1.0277   -0.9164    0.0623 N   0  0  0  0  0  0  0  0  0  0  0  0
   -1.8237   -0.3604   -0.2157 H   0  0  0  0  0  0  0  0  0  0  0  0
    0.2713   -0.2414    0.0463 C   0  0  1  0  0  0  0  0  0  0  0  0
    0.1090    0.8346    0.1344 H   0  0  0  0  0  0  0  0  0  0  0  0
    1.0812   -0.7122    1.2656 C   0  0  0  0  0  0  0  0  0  0  0  0
    1.1350   -1.8031    1.2538 H   0  0  0  0  0  0  0  0  0  0  0  0
    2.0946   -0.3098    1.2068 H   0  0  0  0  0  0  0  0  0  0  0  0
    0.2972   -0.1863    2.8180 S   0  0  0  0  0  0  0  0  0  0  0  0
    1.1314   -0.8233    3.6486 H   0  0  0  0  0  0  0  0  0  0  0  0
    0.9911   -0.5077   -1.2916 C   0  0  0  0  0  0  0  0  0  0  0  0
    0.4485   -1.1998   -2.1536 O   0  0  0  0  0  0  0  0  0  0  0  0
    2.1984    0.0408   -1.4703 N   0  0  0  0  0  0  0  0  0  0  0  0
    2.5998    0.5412   -0.6905 H   0  0  0  0  0  0  0  0  0  0  0  0
    3.0022   -0.1106   -2.6818 C   0  0  0  0  0  0  0  0  0  0  0  0
    2.3946    0.1199   -3.5598 H   0  0  0  0  0  0  0  0  0  0  0  0
    3.8600    0.5623   -2.6518 H   0  0  0  0  0  0  0  0  0  0  0  0
    3.3538   -1.1406   -2.7621 H   0  0  0  0  0  0  0  0  0  0  0  0
  5  6  2  0  0  0  0
  5  7  1  0  0  0  0
  2  3  1  0  0  0  0
  2  4  1  0  0  0  0
  2  5  1  0  0  0  0
  1  2  1  0  0  0  0
 16 17  2  0  0  0  0
 16 18  1  0  0  0  0
 14 15  1  0  0  0  0
 11 12  1  0  0  0  0
 11 13  1  0  0  0  0
 11 14  1  0  0  0  0
  9 10  1  0  0  0  0
  9 11  1  0  0  0  0
  9 16  1  0  0  0  0
  7  8  1  0  0  0  0
  7  9  1  0  0  0  0
 20 21  1  0  0  0  0
 20 22  1  0  0  0  0
 20 23  1  0  0  0  0
 18 19  1  0  0  0  0
 18 20  1  0  0  0  0
M  END
$$$$
default_name
  -OEChem-01062215323D

 23 22  0     1  0  0  0  0  0999 V2000
   -2.6857   -3.6684    0.8743 H   0  0  0  0  0  0  0  0  0  0  0  0
   -2.6617   -2.6474    0.4953 C   0  0  0  0  0  0  0  0  0  0  0  0
   -3.2657   -2.0054    1.1353 H   0  0  0  0  0  0  0  0  0  0  0  0
   -3.0477   -2.6254   -0.5217 H   0  0  0  0  0  0  0  0  0  0  0  0
   -1.2337   -2.1564    0.4993 C   0  0  0  0  0  0  0  0  0  0  0  0
   -0.3327   -2.8864    0.8893 O   0  0  0  0  0  0  0  0  0  0  0  0
   -1.0277   -0.9164    0.0623 N   0  0  0  0  0  0  0  0  0  0  0  0
   -1.8237   -0.3604   -0.2157 H   0  0  0  0  0  0  0  0  0  0  0  0
    0.2713   -0.2414    0.0463 C   0  0  1  0  0  0  0  0  0  0  0  0
    0.1090    0.8346    0.1344 H   0  0  0  0  0  0  0  0  0  0  0  0
    1.0812   -0.7122    1.2656 C   0  0  0  0  0  0  0  0  0  0  0  0
    1.1350   -1.8031    1.2538 H   0  0  0  0  0  0  0  0  0  0  0  0
    2.0946   -0.3098    1.2068 H   0  0  0  0  0  0  0  0  0  0  0  0
    0.2972   -0.1863    2.8180 S   0  0  0  0  0  0  0  0  0  0  0  0
    1.1314   -0.8233    3.6486 H   0  0  0  0  0  0  0  0  0  0  0  0
    0.9911   -0.5077   -1.2916 C   0  0  0  0  0  0  0  0  0  0  0  0
    0.3599   -0.9540   -2.2502 O   0  0  0  0  0  0  0  0  0  0  0  0
    2.2983   -0.2311   -1.3625 N   0  0  0  0  0  0  0  0  0  0  0  0
    2.7544    0.0714   -0.5139 H   0  0  0  0  0  0  0  0  0  0  0  0
    3.1180   -0.4200   -2.5580 C   0  0  0  0  0  0  0  0  0  0  0  0
    2.6290    0.0426   -3.4183 H   0  0  0  0  0  0  0  0  0  0  0  0
    4.1004    0.0323   -2.4170 H   0  0  0  0  0  0  0  0  0  0  0  0
    3.2365   -1.4866   -2.7564 H   0  0  0  0  0  0  0  0  0  0  0  0
  5  6  2  0  0  0  0
  5  7  1  0  0  0  0
  2  3  1  0  0  0  0
  2  4  1  0  0  0  0
  2  5  1  0  0  0  0
  1  2  1  0  0  0  0
 16 17  2  0  0  0  0
 16 18  1  0  0  0  0
 14 15  1  0  0  0  0
 11 12  1  0  0  0  0
 11 13  1  0  0  0  0
 11 14  1  0  0  0  0
  9 10  1  0  0  0  0
  9 11  1  0  0  0  0
  9 16  1  0  0  0  0
  7  8  1  0  0  0  0
  7  9  1  0  0  0  0
 20 21  1  0  0  0  0
 20 22  1  0  0  0  0
 20 23  1  0  0  0  0
 18 19  1  0  0  0  0
 18 20  1  0  0  0  0
M  END
$$$$
default_name
  -OEChem-01062215323D

 23 22  0     1  0  0  0  0  0999 V2000
   -2.6857   -3.6684    0.8743 H   0  0  0  0  0  0  0  0  0  0  0  0
   -2.6617   -2.6474    0.4953 C   0  0  0  0  0  0  0  0  0  0  0  0
   -3.2657   -2.0054    1.1353 H   0  0  0  0  0  0  0  0  0  0  0  0
   -3.0477   -2.6254   -0.5217 H   0  0  0  0  0  0  0  0  0  0  0  0
   -1.2337   -2.1564    0.4993 C   0  0  0  0  0  0  0  0  0  0  0  0
   -0.3327   -2.8864    0.8893 O   0  0  0  0  0  0  0  0  0  0  0  0
   -1.0277   -0.9164    0.0623 N   0  0  0  0  0  0  0  0  0  0  0  0
   -1.8237   -0.3604   -0.2157 H   0  0  0  0  0  0  0  0  0  0  0  0
    0.2713   -0.2414    0.0463 C   0  0  1  0  0  0  0  0  0  0  0  0
    0.1090    0.8346    0.1344 H   0  0  0  0  0  0  0  0  0  0  0  0
    1.0812   -0.7122    1.2656 C   0  0  0  0  0  0  0  0  0  0  0  0
    1.1350   -1.8031    1.2538 H   0  0  0  0  0  0  0  0  0  0  0  0
    2.0946   -0.3098    1.2068 H   0  0  0  0  0  0  0  0  0  0  0  0
    0.2972   -0.1863    2.8180 S   0  0  0  0  0  0  0  0  0  0  0  0
    1.1314   -0.8233    3.6486 H   0  0  0  0  0  0  0  0  0  0  0  0
    0.9911   -0.5077   -1.2916 C   0  0  0  0  0  0  0  0  0  0  0  0
    0.3338   -0.6849   -2.3178 O   0  0  0  0  0  0  0  0  0  0  0  0
    2.3289   -0.5291   -1.2867 N   0  0  0  0  0  0  0  0  0  0  0  0
    2.7904   -0.4384   -0.3931 H   0  0  0  0  0  0  0  0  0  0  0  0
    3.1548   -0.7597   -2.4706 C   0  0  0  0  0  0  0  0  0  0  0  0
    2.8317   -0.1018   -3.2805 H   0  0  0  0  0  0  0  0  0  0  0  0
    4.2030   -0.5620   -2.2435 H   0  0  0  0  0  0  0  0  0  0  0  0
    3.0452   -1.7950   -2.7979 H   0  0  0  0  0  0  0  0  0  0  0  0
  5  6  2  0  0  0  0
  5  7  1  0  0  0  0
  2  3  1  0  0  0  0
  2  4  1  0  0  0  0
  2  5  1  0  0  0  0
  1  2  1  0  0  0  0
 16 17  2  0  0  0  0
 16 18  1  0  0  0  0
 14 15  1  0  0  0  0
 11 12  1  0  0  0  0
 11 13  1  0  0  0  0
 11 14  1  0  0  0  0
  9 10  1  0  0  0  0
  9 11  1  0  0  0  0
  9 16  1  0  0  0  0
  7  8  1  0  0  0  0
  7  9  1  0  0  0  0
 20 21  1  0  0  0  0
 20 22  1  0  0  0  0
 20 23  1  0  0  0  0
 18 19  1  0  0  0  0
 18 20  1  0  0  0  0
M  END
$$$$
default_name
  -OEChem-01062215323D

 23 22  0     1  0  0  0  0  0999 V2000
   -2.6857   -3.6684    0.8743 H   0  0  0  0  0  0  0  0  0  0  0  0
   -2.6617   -2.6474    0.4953 C   0  0  0  0  0  0  0  0  0  0  0  0
   -3.2657   -2.0054    1.1353 H   0  0  0  0  0  0  0  0  0  0  0  0
   -3.0477   -2.6254   -0.5217 H   0  0  0  0  0  0  0  0  0  0  0  0
   -1.2337   -2.1564    0.4993 C   0  0  0  0  0  0  0  0  0  0  0  0
   -0.3327   -2.8864    0.8893 O   0  0  0  0  0  0  0  0  0  0  0  0
   -1.0277   -0.9164    0.0623 N   0  0  0  0  0  0  0  0  0  0  0  0
   -1.8237   -0.3604   -0.2157 H   0  0  0  0  0  0  0  0  0  0  0  0
    0.2713   -0.2414    0.0463 C   0  0  1  0  0  0  0  0  0  0  0  0
    0.1090    0.8346    0.1344 H   0  0  0  0  0  0  0  0  0  0  0  0
    1.0812   -0.7122    1.2656 C   0  0  0  0  0  0  0  0  0  0  0  0
    1.1350   -1.8031    1.2538 H   0  0  0  0  0  0  0  0  0  0  0  0
    2.0946   -0.3098    1.2068 H   0  0  0  0  0  0  0  0  0  0  0  0
    0.2972   -0.1863    2.8180 S   0  0  0  0  0  0  0  0  0  0  0  0
    1.1314   -0.8233    3.6486 H   0  0  0  0  0  0  0  0  0  0  0  0
    0.9911   -0.5077   -1.2916 C   0  0  0  0  0  0  0  0  0  0  0  0
    0.3720   -0.4110   -2.3517 O   0  0  0  0  0  0  0  0  0  0  0  0
    2.2882   -0.8330   -1.2481 N   0  0  0  0  0  0  0  0  0  0  0  0
    2.7052   -0.9535   -0.3364 H   0  0  0  0  0  0  0  0  0  0  0  0
    3.1102   -1.1067   -2.4255 C   0  0  0  0  0  0  0  0  0  0  0  0
    2.9890   -0.3035   -3.1558 H   0  0  0  0  0  0  0  0  0  0  0  0
    4.1610   -1.1800   -2.1431 H   0  0  0  0  0  0  0  0  0  0  0  0
    2.7930   -2.0450   -2.8838 H   0  0  0  0  0  0  0  0  0  0  0  0
  5  6  2  0  0  0  0
  5  7  1  0  0  0  0
  2  3  1  0  0  0  0
  2  4  1  0  0  0  0
  2  5  1  0  0  0  0
  1  2  1  0  0  0  0
 16 17  2  0  0  0  0
 16 18  1  0  0  0  0
 14 15  1  0  0  0  0
 11 12  1  0  0  0  0
 11 13  1  0  0  0  0
 11 14  1  0  0  0  0
  9 10  1  0  0  0  0
  9 11  1  0  0  0  0
  9 16  1  0  0  0  0
  7  8  1  0  0  0  0
  7  9  1  0  0  0  0
 20 21  1  0  0  0  0
 20 22  1  0  0  0  0
 20 23  1  0  0  0  0
 18 19  1  0  0  0  0
 18 20  1  0  0  0  0
M  END
$$$$
default_name
  -OEChem-01062215323D

 23 22  0     1  0  0  0  0  0999 V2000
   -2.6857   -3.6684    0.8743 H   0  0  0  0  0  0  0  0  0  0  0  0
   -2.6617   -2.6474    0.4953 C   0  0  0  0  0  0  0  0  0  0  0  0
   -3.2657   -2.0054    1.1353 H   0  0  0  0  0  0  0  0  0  0  0  0
   -3.0477   -2.6254   -0.5217 H   0  0  0  0  0  0  0  0  0  0  0  0
   -1.2337   -2.1564    0.4993 C   0  0  0  0  0  0  0  0  0  0  0  0
   -0.3327   -2.8864    0.8893 O   0  0  0  0  0  0  0  0  0  0  0  0
   -1.0277   -0.9164    0.0623 N   0  0  0  0  0  0  0  0  0  0  0  0
   -1.8237   -0.3604   -0.2157 H   0  0  0  0  0  0  0  0  0  0  0  0
    0.2713   -0.2414    0.0463 C   0  0  1  0  0  0  0  0  0  0  0  0
    0.1090    0.8346    0.1344 H   0  0  0  0  0  0  0  0  0  0  0  0
    1.0812   -0.7122    1.2656 C   0  0  0  0  0  0  0  0  0  0  0  0
    1.1350   -1.8031    1.2538 H   0  0  0  0  0  0  0  0  0  0  0  0
    2.0946   -0.3098    1.2068 H   0  0  0  0  0  0  0  0  0  0  0  0
    0.2972   -0.1863    2.8180 S   0  0  0  0  0  0  0  0  0  0  0  0
    1.1314   -0.8233    3.6486 H   0  0  0  0  0  0  0  0  0  0  0  0
    0.9911   -0.5077   -1.2916 C   0  0  0  0  0  0  0  0  0  0  0  0
    0.4720   -0.1508   -2.3497 O   0  0  0  0  0  0  0  0  0  0  0  0
    2.1790   -1.1220   -1.2493 N   0  0  0  0  0  0  0  0  0  0  0  0
    2.5048   -1.4388   -0.3476 H   0  0  0  0  0  0  0  0  0  0  0  0
    2.9871   -1.4373   -2.4259 C   0  0  0  0  0  0  0  0  0  0  0  0
    3.0900   -0.5486   -3.0527 H   0  0  0  0  0  0  0  0  0  0  0  0
    3.9772   -1.7797   -2.1227 H   0  0  0  0  0  0  0  0  0  0  0  0
    2.4972   -2.2195   -3.0082 H   0  0  0  0  0  0  0  0  0  0  0  0
  5  6  2  0  0  0  0
  5  7  1  0  0  0  0
  2  3  1  0  0  0  0
  2  4  1  0  0  0  0
  2  5  1  0  0  0  0
  1  2  1  0  0  0  0
 16 17  2  0  0  0  0
 16 18  1  0  0  0  0
 14 15  1  0  0  0  0
 11 12  1  0  0  0  0
 11 13  1  0  0  0  0
 11 14  1  0  0  0  0
  9 10  1  0  0  0  0
  9 11  1  0  0  0  0
  9 16  1  0  0  0  0
  7  8  1  0  0  0  0
  7  9  1  0  0  0  0
 20 21  1  0  0  0  0
 20 22  1  0  0  0  0
 20 23  1  0  0  0  0
 18 19  1  0  0  0  0
 18 20  1  0  0  0  0
M  END
$$$$
default_name
  -OEChem-01062215323D

 23 22  0     1  0  0  0  0  0999 V2000
   -2.6857   -3.6684    0.8743 H   0  0  0  0  0  0  0  0  0  0  0  0
   -2.6617   -2.6474    0.4953 C   0  0  0  0  0  0  0  0  0  0  0  0
   -3.2657   -2.0054    1.1353 H   0  0  0  0  0  0  0  0  0  0  0  0
   -3.0477   -2.6254   -0.5217 H   0  0  0  0  0  0  0  0  0  0  0  0
   -1.2337   -2.1564    0.4993 C   0  0  0  0  0  0  0  0  0  0  0  0
   -0.3327   -2.8864    0.8893 O   0  0  0  0  0  0  0  0  0  0  0  0
   -1.0277   -0.9164    0.0623 N   0  0  0  0  0  0  0  0  0  0  0  0
   -1.8237   -0.3604   -0.2157 H   0  0  0  0  0  0  0  0  0  0  0  0
    0.2713   -0.2414    0.0463 C   0  0  1  0  0  0  0  0  0  0  0  0
    0.1090    0.8346    0.1344 H   0  0  0  0  0  0  0  0  0  0  0  0
    1.0812   -0.7122    1.2656 C   0  0  0  0  0  0  0  0  0  0  0  0
    1.1350   -1.8031    1.2538 H   0  0  0  0  0  0  0  0  0  0  0  0
    2.0946   -0.3098    1.2068 H   0  0  0  0  0  0  0  0  0  0  0  0
    0.2972   -0.1863    2.8180 S   0  0  0  0  0  0  0  0  0  0  0  0
    1.1314   -0.8233    3.6486 H   0  0  0  0  0  0  0  0  0  0  0  0
    0.9911   -0.5077   -1.2916 C   0  0  0  0  0  0  0  0  0  0  0  0
    0.6268    0.0777   -2.3119 O   0  0  0  0  0  0  0  0  0  0  0  0
    2.0086   -1.3766   -1.2903 N   0  0  0  0  0  0  0  0  0  0  0  0
    2.2028   -1.8612   -0.4260 H   0  0  0  0  0  0  0  0  0  0  0  0
    2.7941   -1.7290   -2.4717 C   0  0  0  0  0  0  0  0  0  0  0  0
    3.1280   -0.8205   -2.9781 H   0  0  0  0  0  0  0  0  0  0  0  0
    3.6642   -2.3201   -2.1836 H   0  0  0  0  0  0  0  0  0  0  0  0
    2.1777   -2.3066   -3.1627 H   0  0  0  0  0  0  0  0  0  0  0  0
  5  6  2  0  0  0  0
  5  7  1  0  0  0  0
  2  3  1  0  0  0  0
  2  4  1  0  0  0  0
  2  5  1  0  0  0  0
  1  2  1  0  0  0  0
 16 17  2  0  0  0  0
 16 18  1  0  0  0  0
 14 15  1  0  0  0  0
 11 12  1  0  0  0  0
 11 13  1  0  0  0  0
 11 14  1  0  0  0  0
  9 10  1  0  0  0  0
  9 11  1  0  0  0  0
  9 16  1  0  0  0  0
  7  8  1  0  0  0  0
  7  9  1  0  0  0  0
 20 21  1  0  0  0  0
 20 22  1  0  0  0  0
 20 23  1  0  0  0  0
 18 19  1  0  0  0  0
 18 20  1  0  0  0  0
M  END
$$$$
default_name
  -OEChem-01062215323D

 23 22  0     1  0  0  0  0  0999 V2000
   -2.6857   -3.6684    0.8743 H   0  0  0  0  0  0  0  0  0  0  0  0
   -2.6617   -2.6474    0.4953 C   0  0  0  0  0  0  0  0  0  0  0  0
   -3.2657   -2.0054    1.1353 H   0  0  0  0  0  0  0  0  0  0  0  0
   -3.0477   -2.6254   -0.5217 H   0  0  0  0  0  0  0  0  0  0  0  0
   -1.2337   -2.1564    0.4993 C   0  0  0  0  0  0  0  0  0  0  0  0
   -0.3327   -2.8864    0.8893 O   0  0  0  0  0  0  0  0  0  0  0  0
   -1.0277   -0.9164    0.0623 N   0  0  0  0  0  0  0  0  0  0  0  0
   -1.8237   -0.3604   -0.2157 H   0  0  0  0  0  0  0  0  0  0  0  0
    0.2713   -0.2414    0.0463 C   0  0  1  0  0  0  0  0  0  0  0  0
    0.1090    0.8346    0.1344 H   0  0  0  0  0  0  0  0  0  0  0  0
    1.0812   -0.7122    1.2656 C   0  0  0  0  0  0  0  0  0  0  0  0
    1.1350   -1.8031    1.2538 H   0  0  0  0  0  0  0  0  0  0  0  0
    2.0946   -0.3098    1.2068 H   0  0  0  0  0  0  0  0  0  0  0  0
    0.2972   -0.1863    2.8180 S   0  0  0  0  0  0  0  0  0  0  0  0
    1.1314   -0.8233    3.6486 H   0  0  0  0  0  0  0  0  0  0  0  0
    0.9911   -0.5077   -1.2916 C   0  0  0  0  0  0  0  0  0  0  0  0
    0.8260    0.2592   -2.2409 O   0  0  0  0  0  0  0  0  0  0  0  0
    1.7887   -1.5792   -1.3683 N   0  0  0  0  0  0  0  0  0  0  0  0
    1.8197   -2.1920   -0.5663 H   0  0  0  0  0  0  0  0  0  0  0  0
    2.5442   -1.9619   -2.5598 C   0  0  0  0  0  0  0  0  0  0  0  0
    3.1002   -1.1007   -2.9373 H   0  0  0  0  0  0  0  0  0  0  0  0
    3.2431   -2.7645   -2.3216 H   0  0  0  0  0  0  0  0  0  0  0  0
    1.8566   -2.3004   -3.3367 H   0  0  0  0  0  0  0  0  0  0  0  0
  5  6  2  0  0  0  0
  5  7  1  0  0  0  0
  2  3  1  0  0  0  0
  2  4  1  0  0  0  0
  2  5  1  0  0  0  0
  1  2  1  0  0  0  0
 16 17  2  0  0  0  0
 16 18  1  0  0  0  0
 14 15  1  0  0  0  0
 11 12  1  0  0  0  0
 11 13  1  0  0  0  0
 11 14  1  0  0  0  0
  9 10  1  0  0  0  0
  9 11  1  0  0  0  0
  9 16  1  0  0  0  0
  7  8  1  0  0  0  0
  7  9  1  0  0  0  0
 20 21  1  0  0  0  0
 20 22  1  0  0  0  0
 20 23  1  0  0  0  0
 18 19  1  0  0  0  0
 18 20  1  0  0  0  0
M  END
$$$$
default_name
  -OEChem-01062215323D

 23 22  0     1  0  0  0  0  0999 V2000
   -2.6857   -3.6684    0.8743 H   0  0  0  0  0  0  0  0  0  0  0  0
   -2.6617   -2.6474    0.4953 C   0  0  0  0  0  0  0  0  0  0  0  0
   -3.2657   -2.0054    1.1353 H   0  0  0  0  0  0  0  0  0  0  0  0
   -3.0477   -2.6254   -0.5217 H   0  0  0  0  0  0  0  0  0  0  0  0
   -1.2337   -2.1564    0.4993 C   0  0  0  0  0  0  0  0  0  0  0  0
   -0.3327   -2.8864    0.8893 O   0  0  0  0  0  0  0  0  0  0  0  0
   -1.0277   -0.9164    0.0623 N   0  0  0  0  0  0  0  0  0  0  0  0
   -1.8237   -0.3604   -0.2157 H   0  0  0  0  0  0  0  0  0  0  0  0
    0.2713   -0.2414    0.0463 C   0  0  1  0  0  0  0  0  0  0  0  0
    0.1090    0.8346    0.1344 H   0  0  0  0  0  0  0  0  0  0  0  0
    1.0812   -0.7122    1.2656 C   0  0  0  0  0  0  0  0  0  0  0  0
    1.1350   -1.8031    1.2538 H   0  0  0  0  0  0  0  0  0  0  0  0
    2.0946   -0.3098    1.2068 H   0  0  0  0  0  0  0  0  0  0  0  0
    0.2972   -0.1863    2.8180 S   0  0  0  0  0  0  0  0  0  0  0  0
    1.1314   -0.8233    3.6486 H   0  0  0  0  0  0  0  0  0  0  0  0
    0.9911   -0.5077   -1.2916 C   0  0  0  0  0  0  0  0  0  0  0  0
    1.0560    0.3812   -2.1414 O   0  0  0  0  0  0  0  0  0  0  0  0
    1.5343   -1.7162   -1.4779 N   0  0  0  0  0  0  0  0  0  0  0  0
    1.3817   -2.4085   -0.7588 H   0  0  0  0  0  0  0  0  0  0  0  0
    2.2544   -2.1200   -2.6842 C   0  0  0  0  0  0  0  0  0  0  0  0
    3.0087   -1.3701   -2.9329 H   0  0  0  0  0  0  0  0  0  0  0  0
    2.7429   -3.0825   -2.5275 H   0  0  0  0  0  0  0  0  0  0  0  0
    1.5555   -2.2013   -3.5184 H   0  0  0  0  0  0  0  0  0  0  0  0
  5  6  2  0  0  0  0
  5  7  1  0  0  0  0
  2  3  1  0  0  0  0
  2  4  1  0  0  0  0
  2  5  1  0  0  0  0
  1  2  1  0  0  0  0
 16 17  2  0  0  0  0
 16 18  1  0  0  0  0
 14 15  1  0  0  0  0
 11 12  1  0  0  0  0
 11 13  1  0  0  0  0
 11 14  1  0  0  0  0
  9 10  1  0  0  0  0
  9 11  1  0  0  0  0
  9 16  1  0  0  0  0
  7  8  1  0  0  0  0
  7  9  1  0  0  0  0
 20 21  1  0  0  0  0
 20 22  1  0  0  0  0
 20 23  1  0  0  0  0
 18 19  1  0  0  0  0
 18 20  1  0  0  0  0
M  END
$$$$
default_name
  -OEChem-01062215323D

 23 22  0     1  0  0  0  0  0999 V2000
   -2.6857   -3.6684    0.8743 H   0  0  0  0  0  0  0  0  0  0  0  0
   -2.6617   -2.6474    0.4953 C   0  0  0  0  0  0  0  0  0  0  0  0
   -3.2657   -2.0054    1.1353 H   0  0  0  0  0  0  0  0  0  0  0  0
   -3.0477   -2.6254   -0.5217 H   0  0  0  0  0  0  0  0  0  0  0  0
   -1.2337   -2.1564    0.4993 C   0  0  0  0  0  0  0  0  0  0  0  0
   -0.3327   -2.8864    0.8893 O   0  0  0  0  0  0  0  0  0  0  0  0
   -1.0277   -0.9164    0.0623 N   0  0  0  0  0  0  0  0  0  0  0  0
   -1.8237   -0.3604   -0.2157 H   0  0  0  0  0  0  0  0  0  0  0  0
    0.2713   -0.2414    0.0463 C   0  0  1  0  0  0  0  0  0  0  0  0
    0.1090    0.8346    0.1344 H   0  0  0  0  0  0  0  0  0  0  0  0
    1.0812   -0.7122    1.2656 C   0  0  0  0  0  0  0  0  0  0  0  0
    1.1350   -1.8031    1.2538 H   0  0  0  0  0  0  0  0  0  0  0  0
    2.0946   -0.3098    1.2068 H   0  0  0  0  0  0  0  0  0  0  0  0
    0.2972   -0.1863    2.8180 S   0  0  0  0  0  0  0  0  0  0  0  0
    1.1314   -0.8233    3.6486 H   0  0  0  0  0  0  0  0  0  0  0  0
    0.9911   -0.5077   -1.2916 C   0  0  0  0  0  0  0  0  0  0  0  0
    1.3010    0.4353   -2.0204 O   0  0  0  0  0  0  0  0  0  0  0  0
    1.2627   -1.7782   -1.6117 N   0  0  0  0  0  0  0  0  0  0  0  0
    0.9186   -2.4960   -0.9905 H   0  0  0  0  0  0  0  0  0  0  0  0
    1.9446   -2.1927   -2.8364 C   0  0  0  0  0  0  0  0  0  0  0  0
    2.8597   -1.6102   -2.9653 H   0  0  0  0  0  0  0  0  0  0  0  0
    2.1974   -3.2525   -2.7870 H   0  0  0  0  0  0  0  0  0  0  0  0
    1.2951   -2.0160   -3.6954 H   0  0  0  0  0  0  0  0  0  0  0  0
  5  6  2  0  0  0  0
  5  7  1  0  0  0  0
  2  3  1  0  0  0  0
  2  4  1  0  0  0  0
  2  5  1  0  0  0  0
  1  2  1  0  0  0  0
 16 17  2  0  0  0  0
 16 18  1  0  0  0  0
 14 15  1  0  0  0  0
 11 12  1  0  0  0  0
 11 13  1  0  0  0  0
 11 14  1  0  0  0  0
  9 10  1  0  0  0  0
  9 11  1  0  0  0  0
  9 16  1  0  0  0  0
  7  8  1  0  0  0  0
  7  9  1  0  0  0  0
 20 21  1  0  0  0  0
 20 22  1  0  0  0  0
 20 23  1  0  0  0  0
 18 19  1  0  0  0  0
 18 20  1  0  0  0  0
M  END
$$$$
default_name
  -OEChem-01062215323D

 23 22  0     1  0  0  0  0  0999 V2000
   -2.6857   -3.6684    0.8743 H   0  0  0  0  0  0  0  0  0  0  0  0
   -2.6617   -2.6474    0.4953 C   0  0  0  0  0  0  0  0  0  0  0  0
   -3.2657   -2.0054    1.1353 H   0  0  0  0  0  0  0  0  0  0  0  0
   -3.0477   -2.6254   -0.5217 H   0  0  0  0  0  0  0  0  0  0  0  0
   -1.2337   -2.1564    0.4993 C   0  0  0  0  0  0  0  0  0  0  0  0
   -0.3327   -2.8864    0.8893 O   0  0  0  0  0  0  0  0  0  0  0  0
   -1.0277   -0.9164    0.0623 N   0  0  0  0  0  0  0  0  0  0  0  0
   -1.8237   -0.3604   -0.2157 H   0  0  0  0  0  0  0  0  0  0  0  0
    0.2713   -0.2414    0.0463 C   0  0  1  0  0  0  0  0  0  0  0  0
    0.1090    0.8346    0.1344 H   0  0  0  0  0  0  0  0  0  0  0  0
    1.0812   -0.7122    1.2656 C   0  0  0  0  0  0  0  0  0  0  0  0
    1.1350   -1.8031    1.2538 H   0  0  0  0  0  0  0  0  0  0  0  0
    2.0946   -0.3098    1.2068 H   0  0  0  0  0  0  0  0  0  0  0  0
    0.2972   -0.1863    2.8180 S   0  0  0  0  0  0  0  0  0  0  0  0
    1.1314   -0.8233    3.6486 H   0  0  0  0  0  0  0  0  0  0  0  0
    0.9911   -0.5077   -1.2916 C   0  0  0  0  0  0  0  0  0  0  0  0
    1.5445    0.4180   -1.8859 O   0  0  0  0  0  0  0  0  0  0  0  0
    0.9924   -1.7609   -1.7605 N   0  0  0  0  0  0  0  0  0  0  0  0
    0.4620   -2.4487   -1.2456 H   0  0  0  0  0  0  0  0  0  0  0  0
    1.6359   -2.1750   -3.0060 C   0  0  0  0  0  0  0  0  0  0  0  0
    2.6632   -1.8048   -3.0323 H   0  0  0  0  0  0  0  0  0  0  0  0
    1.6440   -3.2629   -3.0827 H   0  0  0  0  0  0  0  0  0  0  0  0
    1.0931   -1.7571   -3.8556 H   0  0  0  0  0  0  0  0  0  0  0  0
  5  6  2  0  0  0  0
  5  7  1  0  0  0  0
  2  3  1  0  0  0  0
  2  4  1  0  0  0  0
  2  5  1  0  0  0  0
  1  2  1  0  0  0  0
 16 17  2  0  0  0  0
 16 18  1  0  0  0  0
 14 15  1  0  0  0  0
 11 12  1  0  0  0  0
 11 13  1  0  0  0  0
 11 14  1  0  0  0  0
  9 10  1  0  0  0  0
  9 11  1  0  0  0  0
  9 16  1  0  0  0  0
  7  8  1  0  0  0  0
  7  9  1  0  0  0  0
 20 21  1  0  0  0  0
 20 22  1  0  0  0  0
 20 23  1  0  0  0  0
 18 19  1  0  0  0  0
 18 20  1  0  0  0  0
M  END
$$$$
default_name
  -OEChem-01062215323D

 23 22  0     1  0  0  0  0  0999 V2000
   -2.6857   -3.6684    0.8743 H   0  0  0  0  0  0  0  0  0  0  0  0
   -2.6617   -2.6474    0.4953 C   0  0  0  0  0  0  0  0  0  0  0  0
   -3.2657   -2.0054    1.1353 H   0  0  0  0  0  0  0  0  0  0  0  0
   -3.0477   -2.6254   -0.5217 H   0  0  0  0  0  0  0  0  0  0  0  0
   -1.2337   -2.1564    0.4993 C   0  0  0  0  0  0  0  0  0  0  0  0
   -0.3327   -2.8864    0.8893 O   0  0  0  0  0  0  0  0  0  0  0  0
   -1.0277   -0.9164    0.0623 N   0  0  0  0  0  0  0  0  0  0  0  0
   -1.8237   -0.3604   -0.2157 H   0  0  0  0  0  0  0  0  0  0  0  0
    0.2713   -0.2414    0.0463 C   0  0  1  0  0  0  0  0  0  0  0  0
    0.1090    0.8346    0.1344 H   0  0  0  0  0  0  0  0  0  0  0  0
    1.0812   -0.7122    1.2656 C   0  0  0  0  0  0  0  0  0  0  0  0
    1.1350   -1.8031    1.2538 H   0  0  0  0  0  0  0  0  0  0  0  0
    2.0946   -0.3098    1.2068 H   0  0  0  0  0  0  0  0  0  0  0  0
    0.2972   -0.1863    2.8180 S   0  0  0  0  0  0  0  0  0  0  0  0
    1.1314   -0.8233    3.6486 H   0  0  0  0  0  0  0  0  0  0  0  0
    0.9911   -0.5077   -1.2916 C   0  0  0  0  0  0  0  0  0  0  0  0
    1.7698    0.3304   -1.7473 O   0  0  0  0  0  0  0  0  0  0  0  0
    0.7419   -1.6655   -1.9143 N   0  0  0  0  0  0  0  0  0  0  0  0
    0.0429   -2.2696   -1.5067 H   0  0  0  0  0  0  0  0  0  0  0  0
    1.3492   -2.0681   -3.1815 C   0  0  0  0  0  0  0  0  0  0  0  0
    2.4328   -1.9406   -3.1292 H   0  0  0  0  0  0  0  0  0  0  0  0
    1.1203   -3.1131   -3.3942 H   0  0  0  0  0  0  0  0  0  0  0  0
    0.9632   -1.4424   -3.9881 H   0  0  0  0  0  0  0  0  0  0  0  0
  5  6  2  0  0  0  0
  5  7  1  0  0  0  0
  2  3  1  0  0  0  0
  2  4  1  0  0  0  0
  2  5  1  0  0  0  0
  1  2  1  0  0  0  0
 16 17  2  0  0  0  0
 16 18  1  0  0  0  0
 14 15  1  0  0  0  0
 11 12  1  0  0  0  0
 11 13  1  0  0  0  0
 11 14  1  0  0  0  0
  9 10  1  0  0  0  0
  9 11  1  0  0  0  0
  9 16  1  0  0  0  0
  7  8  1  0  0  0  0
  7  9  1  0  0  0  0
 20 21  1  0  0  0  0
 20 22  1  0  0  0  0
 20 23  1  0  0  0  0
 18 19  1  0  0  0  0
 18 20  1  0  0  0  0
M  END
$$$$
default_name
  -OEChem-01062215323D

 23 22  0     1  0  0  0  0  0999 V2000
   -2.6857   -3.6684    0.8743 H   0  0  0  0  0  0  0  0  0  0  0  0
   -2.6617   -2.6474    0.4953 C   0  0  0  0  0  0  0  0  0  0  0  0
   -3.2657   -2.0054    1.1353 H   0  0  0  0  0  0  0  0  0  0  0  0
   -3.0477   -2.6254   -0.5217 H   0  0  0  0  0  0  0  0  0  0  0  0
   -1.2337   -2.1564    0.4993 C   0  0  0  0  0  0  0  0  0  0  0  0
   -0.3327   -2.8864    0.8893 O   0  0  0  0  0  0  0  0  0  0  0  0
   -1.0277   -0.9164    0.0623 N   0  0  0  0  0  0  0  0  0  0  0  0
   -1.8237   -0.3604   -0.2157 H   0  0  0  0  0  0  0  0  0  0  0  0
    0.2713   -0.2414    0.0463 C   0  0  1  0  0  0  0  0  0  0  0  0
    0.1090    0.8346    0.1344 H   0  0  0  0  0  0  0  0  0  0  0  0
    1.0812   -0.7122    1.2656 C   0  0  0  0  0  0  0  0  0  0  0  0
    1.1350   -1.8031    1.2538 H   0  0  0  0  0  0  0  0  0  0  0  0
    2.0946   -0.3098    1.2068 H   0  0  0  0  0  0  0  0  0  0  0  0
    0.2972   -0.1863    2.8180 S   0  0  0  0  0  0  0  0  0  0  0  0
    1.1314   -0.8233    3.6486 H   0  0  0  0  0  0  0  0  0  0  0  0
    0.9911   -0.5077   -1.2916 C   0  0  0  0  0  0  0  0  0  0  0  0
    1.9615    0.1784   -1.6139 O   0  0  0  0  0  0  0  0  0  0  0  0
    0.5282   -1.4986   -2.0625 N   0  0  0  0  0  0  0  0  0  0  0  0
   -0.3099   -1.9710   -1.7559 H   0  0  0  0  0  0  0  0  0  0  0  0
    1.1041   -1.8793   -3.3510 C   0  0  0  0  0  0  0  0  0  0  0  0
    2.1840   -2.0083   -3.2496 H   0  0  0  0  0  0  0  0  0  0  0  0
    0.6620   -2.8131   -3.7005 H   0  0  0  0  0  0  0  0  0  0  0  0
    0.9143   -1.0933   -4.0839 H   0  0  0  0  0  0  0  0  0  0  0  0
  5  6  2  0  0  0  0
  5  7  1  0  0  0  0
  2  3  1  0  0  0  0
  2  4  1  0  0  0  0
  2  5  1  0  0  0  0
  1  2  1  0  0  0  0
 16 17  2  0  0  0  0
 16 18  1  0  0  0  0
 14 15  1  0  0  0  0
 11 12  1  0  0  0  0
 11 13  1  0  0  0  0
 11 14  1  0  0  0  0
  9 10  1  0  0  0  0
  9 11  1  0  0  0  0
  9 16  1  0  0  0  0
  7  8  1  0  0  0  0
  7  9  1  0  0  0  0
 20 21  1  0  0  0  0
 20 22  1  0  0  0  0
 20 23  1  0  0  0  0
 18 19  1  0  0  0  0
 18 20  1  0  0  0  0
M  END
$$$$
default_name
  -OEChem-01062215323D

 23 22  0     1  0  0  0  0  0999 V2000
   -2.6857   -3.6684    0.8743 H   0  0  0  0  0  0  0  0  0  0  0  0
   -2.6617   -2.6474    0.4953 C   0  0  0  0  0  0  0  0  0  0  0  0
   -3.2657   -2.0054    1.1353 H   0  0  0  0  0  0  0  0  0  0  0  0
   -3.0477   -2.6254   -0.5217 H   0  0  0  0  0  0  0  0  0  0  0  0
   -1.2337   -2.1564    0.4993 C   0  0  0  0  0  0  0  0  0  0  0  0
   -0.3327   -2.8864    0.8893 O   0  0  0  0  0  0  0  0  0  0  0  0
   -1.0277   -0.9164    0.0623 N   0  0  0  0  0  0  0  0  0  0  0  0
   -1.8237   -0.3604   -0.2157 H   0  0  0  0  0  0  0  0  0  0  0  0
    0.2713   -0.2414    0.0463 C   0  0  1  0  0  0  0  0  0  0  0  0
    0.1090    0.8346    0.1344 H   0  0  0  0  0  0  0  0  0  0  0  0
    1.0812   -0.7122    1.2656 C   0  0  0  0  0  0  0  0  0  0  0  0
    1.1350   -1.8031    1.2538 H   0  0  0  0  0  0  0  0  0  0  0  0
    2.0946   -0.3098    1.2068 H   0  0  0  0  0  0  0  0  0  0  0  0
    0.2972   -0.1863    2.8180 S   0  0  0  0  0  0  0  0  0  0  0  0
    1.1314   -0.8233    3.6486 H   0  0  0  0  0  0  0  0  0  0  0  0
    0.9911   -0.5077   -1.2916 C   0  0  0  0  0  0  0  0  0  0  0  0
    2.1067   -0.0275   -1.4949 O   0  0  0  0  0  0  0  0  0  0  0  0
    0.3659   -1.2715   -2.1950 N   0  0  0  0  0  0  0  0  0  0  0  0
   -0.5726   -1.5732   -1.9764 H   0  0  0  0  0  0  0  0  0  0  0  0
    0.9173   -1.6214   -3.5028 C   0  0  0  0  0  0  0  0  0  0  0  0
    1.9339   -2.0033   -3.3851 H   0  0  0  0  0  0  0  0  0  0  0  0
    0.3004   -2.3834   -3.9805 H   0  0  0  0  0  0  0  0  0  0  0  0
    0.9497   -0.7335   -4.1364 H   0  0  0  0  0  0  0  0  0  0  0  0
  5  6  2  0  0  0  0
  5  7  1  0  0  0  0
  2  3  1  0  0  0  0
  2  4  1  0  0  0  0
  2  5  1  0  0  0  0
  1  2  1  0  0  0  0
 16 17  2  0  0  0  0
 16 18  1  0  0  0  0
 14 15  1  0  0  0  0
 11 12  1  0  0  0  0
 11 13  1  0  0  0  0
 11 14  1  0  0  0  0
  9 10  1  0  0  0  0
  9 11  1  0  0  0  0
  9 16  1  0  0  0  0
  7  8  1  0  0  0  0
  7  9  1  0  0  0  0
 20 21  1  0  0  0  0
 20 22  1  0  0  0  0
 20 23  1  0  0  0  0
 18 19  1  0  0  0  0
 18 20  1  0  0  0  0
M  END
$$$$
default_name
  -OEChem-01062215323D

 23 22  0     1  0  0  0  0  0999 V2000
   -2.6857   -3.6684    0.8743 H   0  0  0  0  0  0  0  0  0  0  0  0
   -2.6617   -2.6474    0.4953 C   0  0  0  0  0  0  0  0  0  0  0  0
   -3.2657   -2.0054    1.1353 H   0  0  0  0  0  0  0  0  0  0  0  0
   -3.0477   -2.6254   -0.5217 H   0  0  0  0  0  0  0  0  0  0  0  0
   -1.2337   -2.1564    0.4993 C   0  0  0  0  0  0  0  0  0  0  0  0
   -0.3327   -2.8864    0.8893 O   0  0  0  0  0  0  0  0  0  0  0  0
   -1.0277   -0.9164    0.0623 N   0  0  0  0  0  0  0  0  0  0  0  0
   -1.8237   -0.3604   -0.2157 H   0  0  0  0  0  0  0  0  0  0  0  0
    0.2713   -0.2414    0.0463 C   0  0  1  0  0  0  0  0  0  0  0  0
    0.1090    0.8346    0.1344 H   0  0  0  0  0  0  0  0  0  0  0  0
    1.0812   -0.7122    1.2656 C   0  0  0  0  0  0  0  0  0  0  0  0
    1.1350   -1.8031    1.2538 H   0  0  0  0  0  0  0  0  0  0  0  0
    2.0946   -0.3098    1.2068 H   0  0  0  0  0  0  0  0  0  0  0  0
    0.2972   -0.1863    2.8180 S   0  0  0  0  0  0  0  0  0  0  0  0
    1.1314   -0.8233    3.6486 H   0  0  0  0  0  0  0  0  0  0  0  0
    0.9911   -0.5077   -1.2916 C   0  0  0  0  0  0  0  0  0  0  0  0
    2.1953   -0.2734   -1.3983 O   0  0  0  0  0  0  0  0  0  0  0  0
    0.2660   -0.9996   -2.3028 N   0  0  0  0  0  0  0  0  0  0  0  0
   -0.7272   -1.1034   -2.1530 H   0  0  0  0  0  0  0  0  0  0  0  0
    0.8015   -1.3121   -3.6266 C   0  0  0  0  0  0  0  0  0  0  0  0
    1.6995   -1.9259   -3.5266 H   0  0  0  0  0  0  0  0  0  0  0  0
    0.0600   -1.8534   -4.2153 H   0  0  0  0  0  0  0  0  0  0  0  0
    1.0671   -0.3875   -4.1421 H   0  0  0  0  0  0  0  0  0  0  0  0
  5  6  2  0  0  0  0
  5  7  1  0  0  0  0
  2  3  1  0  0  0  0
  2  4  1  0  0  0  0
  2  5  1  0  0  0  0
  1  2  1  0  0  0  0
 16 17  2  0  0  0  0
 16 18  1  0  0  0  0
 14 15  1  0  0  0  0
 11 12  1  0  0  0  0
 11 13  1  0  0  0  0
 11 14  1  0  0  0  0
  9 10  1  0  0  0  0
  9 11  1  0  0  0  0
  9 16  1  0  0  0  0
  7  8  1  0  0  0  0
  7  9  1  0  0  0  0
 20 21  1  0  0  0  0
 20 22  1  0  0  0  0
 20 23  1  0  0  0  0
 18 19  1  0  0  0  0
 18 20  1  0  0  0  0
M  END
$$$$
default_name
  -OEChem-01062215323D

 23 22  0     1  0  0  0  0  0999 V2000
   -2.6857   -3.6684    0.8743 H   0  0  0  0  0  0  0  0  0  0  0  0
   -2.6617   -2.6474    0.4953 C   0  0  0  0  0  0  0  0  0  0  0  0
   -3.2657   -2.0054    1.1353 H   0  0  0  0  0  0  0  0  0  0  0  0
   -3.0477   -2.6254   -0.5217 H   0  0  0  0  0  0  0  0  0  0  0  0
   -1.2337   -2.1564    0.4993 C   0  0  0  0  0  0  0  0  0  0  0  0
   -0.3327   -2.8864    0.8893 O   0  0  0  0  0  0  0  0  0  0  0  0
   -1.0277   -0.9164    0.0623 N   0  0  0  0  0  0  0  0  0  0  0  0
   -1.8237   -0.3604   -0.2157 H   0  0  0  0  0  0  0  0  0  0  0  0
    0.2713   -0.2414    0.0463 C   0  0  1  0  0  0  0  0  0  0  0  0
    0.1090    0.8346    0.1344 H   0  0  0  0  0  0  0  0  0  0  0  0
    1.0812   -0.7122    1.2656 C   0  0  0  0  0  0  0  0  0  0  0  0
    1.1350   -1.8031    1.2538 H   0  0  0  0  0  0  0  0  0  0  0  0
    2.0946   -0.3098    1.2068 H   0  0  0  0  0  0  0  0  0  0  0  0
    0.2972   -0.1863    2.8180 S   0  0  0  0  0  0  0  0  0  0  0  0
    1.1314   -0.8233    3.6486 H   0  0  0  0  0  0  0  0  0  0  0  0
    0.9911   -0.5077   -1.2916 C   0  0  0  0  0  0  0  0  0  0  0  0
    2.2214   -0.5425   -1.3307 O   0  0  0  0  0  0  0  0  0  0  0  0
    0.2353   -0.7016   -2.3786 N   0  0  0  0  0  0  0  0  0  0  0  0
   -0.7631   -0.5936   -2.2738 H   0  0  0  0  0  0  0  0  0  0  0  0
    0.7647   -0.9723   -3.7140 C   0  0  0  0  0  0  0  0  0  0  0  0
    1.4968   -1.7815   -3.6644 H   0  0  0  0  0  0  0  0  0  0  0  0
   -0.0426   -1.2592   -4.3888 H   0  0  0  0  0  0  0  0  0  0  0  0
    1.2584   -0.0791   -4.1006 H   0  0  0  0  0  0  0  0  0  0  0  0
  5  6  2  0  0  0  0
  5  7  1  0  0  0  0
  2  3  1  0  0  0  0
  2  4  1  0  0  0  0
  2  5  1  0  0  0  0
  1  2  1  0  0  0  0
 16 17  2  0  0  0  0
 16 18  1  0  0  0  0
 14 15  1  0  0  0  0
 11 12  1  0  0  0  0
 11 13  1  0  0  0  0
 11 14  1  0  0  0  0
  9 10  1  0  0  0  0
  9 11  1  0  0  0  0
  9 16  1  0  0  0  0
  7  8  1  0  0  0  0
  7  9  1  0  0  0  0
 20 21  1  0  0  0  0
 20 22  1  0  0  0  0
 20 23  1  0  0  0  0
 18 19  1  0  0  0  0
 18 20  1  0  0  0  0
M  END
$$$$
default_name
  -OEChem-01062215323D

 23 22  0     1  0  0  0  0  0999 V2000
   -2.6857   -3.6684    0.8743 H   0  0  0  0  0  0  0  0  0  0  0  0
   -2.6617   -2.6474    0.4953 C   0  0  0  0  0  0  0  0  0  0  0  0
   -3.2657   -2.0054    1.1353 H   0  0  0  0  0  0  0  0  0  0  0  0
   -3.0477   -2.6254   -0.5217 H   0  0  0  0  0  0  0  0  0  0  0  0
   -1.2337   -2.1564    0.4993 C   0  0  0  0  0  0  0  0  0  0  0  0
   -0.3327   -2.8864    0.8893 O   0  0  0  0  0  0  0  0  0  0  0  0
   -1.0277   -0.9164    0.0623 N   0  0  0  0  0  0  0  0  0  0  0  0
   -1.8237   -0.3604   -0.2157 H   0  0  0  0  0  0  0  0  0  0  0  0
    0.2713   -0.2414    0.0463 C   0  0  1  0  0  0  0  0  0  0  0  0
    0.1090    0.8346    0.1344 H   0  0  0  0  0  0  0  0  0  0  0  0
    1.0812   -0.7122    1.2656 C   0  0  0  0  0  0  0  0  0  0  0  0
    1.1350   -1.8031    1.2538 H   0  0  0  0  0  0  0  0  0  0  0  0
    2.0946   -0.3098    1.2068 H   0  0  0  0  0  0  0  0  0  0  0  0
    0.2972   -0.1863    2.8180 S   0  0  0  0  0  0  0  0  0  0  0  0
    1.1314   -0.8233    3.6486 H   0  0  0  0  0  0  0  0  0  0  0  0
    0.9911   -0.5077   -1.2916 C   0  0  0  0  0  0  0  0  0  0  0  0
    2.1832   -0.8164   -1.2967 O   0  0  0  0  0  0  0  0  0  0  0  0
    0.2760   -0.3977   -2.4172 N   0  0  0  0  0  0  0  0  0  0  0  0
   -0.6780   -0.0785   -2.3305 H   0  0  0  0  0  0  0  0  0  0  0  0
    0.8094   -0.6253   -3.7590 C   0  0  0  0  0  0  0  0  0  0  0  0
    1.3396   -1.5799   -3.7891 H   0  0  0  0  0  0  0  0  0  0  0  0
   -0.0006   -0.6411   -4.4892 H   0  0  0  0  0  0  0  0  0  0  0  0
    1.5106    0.1709   -4.0147 H   0  0  0  0  0  0  0  0  0  0  0  0
  5  6  2  0  0  0  0
  5  7  1  0  0  0  0
  2  3  1  0  0  0  0
  2  4  1  0  0  0  0
  2  5  1  0  0  0  0
  1  2  1  0  0  0  0
 16 17  2  0  0  0  0
 16 18  1  0  0  0  0
 14 15  1  0  0  0  0
 11 12  1  0  0  0  0
 11 13  1  0  0  0  0
 11 14  1  0  0  0  0
  9 10  1  0  0  0  0
  9 11  1  0  0  0  0
  9 16  1  0  0  0  0
  7  8  1  0  0  0  0
  7  9  1  0  0  0  0
 20 21  1  0  0  0  0
 20 22  1  0  0  0  0
 20 23  1  0  0  0  0
 18 19  1  0  0  0  0
 18 20  1  0  0  0  0
M  END
$$$$
default_name
  -OEChem-01062215323D

 23 22  0     1  0  0  0  0  0999 V2000
   -2.6857   -3.6684    0.8743 H   0  0  0  0  0  0  0  0  0  0  0  0
   -2.6617   -2.6474    0.4953 C   0  0  0  0  0  0  0  0  0  0  0  0
   -3.2657   -2.0054    1.1353 H   0  0  0  0  0  0  0  0  0  0  0  0
   -3.0477   -2.6254   -0.5217 H   0  0  0  0  0  0  0  0  0  0  0  0
   -1.2337   -2.1564    0.4993 C   0  0  0  0  0  0  0  0  0  0  0  0
   -0.3327   -2.8864    0.8893 O   0  0  0  0  0  0  0  0  0  0  0  0
   -1.0277   -0.9164    0.0623 N   0  0  0  0  0  0  0  0  0  0  0  0
   -1.8237   -0.3604   -0.2157 H   0  0  0  0  0  0  0  0  0  0  0  0
    0.2713   -0.2414    0.0463 C   0  0  1  0  0  0  0  0  0  0  0  0
    0.1090    0.8346    0.1344 H   0  0  0  0  0  0  0  0  0  0  0  0
    1.0812   -0.7122    1.2656 C   0  0  0  0  0  0  0  0  0  0  0  0
    1.1350   -1.8031    1.2538 H   0  0  0  0  0  0  0  0  0  0  0  0
    2.0946   -0.3098    1.2068 H   0  0  0  0  0  0  0  0  0  0  0  0
    0.2972   -0.1863    2.8180 S   0  0  0  0  0  0  0  0  0  0  0  0
    1.1314   -0.8233    3.6486 H   0  0  0  0  0  0  0  0  0  0  0  0
    0.9911   -0.5077   -1.2916 C   0  0  0  0  0  0  0  0  0  0  0  0
    2.0833   -1.0765   -1.2987 O   0  0  0  0  0  0  0  0  0  0  0  0
    0.3853   -0.1086   -2.4159 N   0  0  0  0  0  0  0  0  0  0  0  0
   -0.4776    0.4068   -2.3193 H   0  0  0  0  0  0  0  0  0  0  0  0
    0.9324   -0.2947   -3.7586 C   0  0  0  0  0  0  0  0  0  0  0  0
    1.2385   -1.3347   -3.8922 H   0  0  0  0  0  0  0  0  0  0  0  0
    0.1832   -0.0415   -4.5096 H   0  0  0  0  0  0  0  0  0  0  0  0
    1.8064    0.3454   -3.8902 H   0  0  0  0  0  0  0  0  0  0  0  0
  5  6  2  0  0  0  0
  5  7  1  0  0  0  0
  2  3  1  0  0  0  0
  2  4  1  0  0  0  0
  2  5  1  0  0  0  0
  1  2  1  0  0  0  0
 16 17  2  0  0  0  0
 16 18  1  0  0  0  0
 14 15  1  0  0  0  0
 11 12  1  0  0  0  0
 11 13  1  0  0  0  0
 11 14  1  0  0  0  0
  9 10  1  0  0  0  0
  9 11  1  0  0  0  0
  9 16  1  0  0  0  0
  7  8  1  0  0  0  0
  7  9  1  0  0  0  0
 20 21  1  0  0  0  0
 20 22  1  0  0  0  0
 20 23  1  0  0  0  0
 18 19  1  0  0  0  0
 18 20  1  0  0  0  0
M  END
$$$$
default_name
  -OEChem-01062215323D

 23 22  0     1  0  0  0  0  0999 V2000
   -2.6857   -3.6684    0.8743 H   0  0  0  0  0  0  0  0  0  0  0  0
   -2.6617   -2.6474    0.4953 C   0  0  0  0  0  0  0  0  0  0  0  0
   -3.2657   -2.0054    1.1353 H   0  0  0  0  0  0  0  0  0  0  0  0
   -3.0477   -2.6254   -0.5217 H   0  0  0  0  0  0  0  0  0  0  0  0
   -1.2337   -2.1564    0.4993 C   0  0  0  0  0  0  0  0  0  0  0  0
   -0.3327   -2.8864    0.8893 O   0  0  0  0  0  0  0  0  0  0  0  0
   -1.0277   -0.9164    0.0623 N   0  0  0  0  0  0  0  0  0  0  0  0
   -1.8237   -0.3604   -0.2157 H   0  0  0  0  0  0  0  0  0  0  0  0
    0.2713   -0.2414    0.0463 C   0  0  1  0  0  0  0  0  0  0  0  0
    0.1090    0.8346    0.1344 H   0  0  0  0  0  0  0  0  0  0  0  0
    1.0812   -0.7122    1.2656 C   0  0  0  0  0  0  0  0  0  0  0  0
    1.1350   -1.8031    1.2538 H   0  0  0  0  0  0  0  0  0  0  0  0
    2.0946   -0.3098    1.2068 H   0  0  0  0  0  0  0  0  0  0  0  0
    0.2972   -0.1863    2.8180 S   0  0  0  0  0  0  0  0  0  0  0  0
    1.1314   -0.8233    3.6486 H   0  0  0  0  0  0  0  0  0  0  0  0
    0.9911   -0.5077   -1.2916 C   0  0  0  0  0  0  0  0  0  0  0  0
    1.9284   -1.3051   -1.3365 O   0  0  0  0  0  0  0  0  0  0  0  0
    0.5557    0.1459   -2.3749 N   0  0  0  0  0  0  0  0  0  0  0  0
   -0.1756    0.8292   -2.2409 H   0  0  0  0  0  0  0  0  0  0  0  0
    1.1255   -0.0030   -3.7128 C   0  0  0  0  0  0  0  0  0  0  0  0
    1.2006   -1.0628   -3.9668 H   0  0  0  0  0  0  0  0  0  0  0  0
    0.4962    0.4990   -4.4487 H   0  0  0  0  0  0  0  0  0  0  0  0
    2.1258    0.4325   -3.7357 H   0  0  0  0  0  0  0  0  0  0  0  0
  5  6  2  0  0  0  0
  5  7  1  0  0  0  0
  2  3  1  0  0  0  0
  2  4  1  0  0  0  0
  2  5  1  0  0  0  0
  1  2  1  0  0  0  0
 16 17  2  0  0  0  0
 16 18  1  0  0  0  0
 14 15  1  0  0  0  0
 11 12  1  0  0  0  0
 11 13  1  0  0  0  0
 11 14  1  0  0  0  0
  9 10  1  0  0  0  0
  9 11  1  0  0  0  0
  9 16  1  0  0  0  0
  7  8  1  0  0  0  0
  7  9  1  0  0  0  0
 20 21  1  0  0  0  0
 20 22  1  0  0  0  0
 20 23  1  0  0  0  0
 18 19  1  0  0  0  0
 18 20  1  0  0  0  0
M  END
$$$$
default_name
  -OEChem-01062215323D

 23 22  0     1  0  0  0  0  0999 V2000
   -2.6857   -3.6684    0.8743 H   0  0  0  0  0  0  0  0  0  0  0  0
   -2.6617   -2.6474    0.4953 C   0  0  0  0  0  0  0  0  0  0  0  0
   -3.2657   -2.0054    1.1353 H   0  0  0  0  0  0  0  0  0  0  0  0
   -3.0477   -2.6254   -0.5217 H   0  0  0  0  0  0  0  0  0  0  0  0
   -1.2337   -2.1564    0.4993 C   0  0  0  0  0  0  0  0  0  0  0  0
   -0.3327   -2.8864    0.8893 O   0  0  0  0  0  0  0  0  0  0  0  0
   -1.0277   -0.9164    0.0623 N   0  0  0  0  0  0  0  0  0  0  0  0
   -1.8237   -0.3604   -0.2157 H   0  0  0  0  0  0  0  0  0  0  0  0
    0.2713   -0.2414    0.0463 C   0  0  1  0  0  0  0  0  0  0  0  0
    0.1090    0.8346    0.1344 H   0  0  0  0  0  0  0  0  0  0  0  0
    1.0812   -0.7122    1.2656 C   0  0  0  0  0  0  0  0  0  0  0  0
    1.1350   -1.8031    1.2538 H   0  0  0  0  0  0  0  0  0  0  0  0
    2.0946   -0.3098    1.2068 H   0  0  0  0  0  0  0  0  0  0  0  0
    0.2972   -0.1863    2.8180 S   0  0  0  0  0  0  0  0  0  0  0  0
    1.1314   -0.8233    3.6486 H   0  0  0  0  0  0  0  0  0  0  0  0
    0.9911   -0.5077   -1.2916 C   0  0  0  0  0  0  0  0  0  0  0  0
    1.7292   -1.4865   -1.4076 O   0  0  0  0  0  0  0  0  0  0  0  0
    0.7755    0.3485   -2.2970 N   0  0  0  0  0  0  0  0  0  0  0  0
    0.2075    1.1600   -2.1006 H   0  0  0  0  0  0  0  0  0  0  0  0
    1.3754    0.2298   -3.6247 C   0  0  0  0  0  0  0  0  0  0  0  0
    1.2283   -0.7826   -4.0076 H   0  0  0  0  0  0  0  0  0  0  0  0
    0.9173    0.9433   -4.3107 H   0  0  0  0  0  0  0  0  0  0  0  0
    2.4470    0.4263   -3.5617 H   0  0  0  0  0  0  0  0  0  0  0  0
  5  6  2  0  0  0  0
  5  7  1  0  0  0  0
  2  3  1  0  0  0  0
  2  4  1  0  0  0  0
  2  5  1  0  0  0  0
  1  2  1  0  0  0  0
 16 17  2  0  0  0  0
 16 18  1  0  0  0  0
 14 15  1  0  0  0  0
 11 12  1  0  0  0  0
 11 13  1  0  0  0  0
 11 14  1  0  0  0  0
  9 10  1  0  0  0  0
  9 11  1  0  0  0  0
  9 16  1  0  0  0  0
  7  8  1  0  0  0  0
  7  9  1  0  0  0  0
 20 21  1  0  0  0  0
 20 22  1  0  0  0  0
 20 23  1  0  0  0  0
 18 19  1  0  0  0  0
 18 20  1  0  0  0  0
M  END
$$$$
default_name
  -OEChem-01062215323D

 23 22  0     1  0  0  0  0  0999 V2000
   -2.6857   -3.6684    0.8743 H   0  0  0  0  0  0  0  0  0  0  0  0
   -2.6617   -2.6474    0.4953 C   0  0  0  0  0  0  0  0  0  0  0  0
   -3.2657   -2.0054    1.1353 H   0  0  0  0  0  0  0  0  0  0  0  0
   -3.0477   -2.6254   -0.5217 H   0  0  0  0  0  0  0  0  0  0  0  0
   -1.2337   -2.1564    0.4993 C   0  0  0  0  0  0  0  0  0  0  0  0
   -0.3327   -2.8864    0.8893 O   0  0  0  0  0  0  0  0  0  0  0  0
   -1.0277   -0.9164    0.0623 N   0  0  0  0  0  0  0  0  0  0  0  0
   -1.8237   -0.3604   -0.2157 H   0  0  0  0  0  0  0  0  0  0  0  0
    0.2713   -0.2414    0.0463 C   0  0  1  0  0  0  0  0  0  0  0  0
    0.1090    0.8346    0.1344 H   0  0  0  0  0  0  0  0  0  0  0  0
    1.0812   -0.7122    1.2656 C   0  0  0  0  0  0  0  0  0  0  0  0
    1.1350   -1.8031    1.2538 H   0  0  0  0  0  0  0  0  0  0  0  0
    2.0946   -0.3098    1.2068 H   0  0  0  0  0  0  0  0  0  0  0  0
    0.2972   -0.1863    2.8180 S   0  0  0  0  0  0  0  0  0  0  0  0
    1.1314   -0.8233    3.6486 H   0  0  0  0  0  0  0  0  0  0  0  0
    0.9911   -0.5077   -1.2916 C   0  0  0  0  0  0  0  0  0  0  0  0
    1.4993   -1.6085   -1.5070 O   0  0  0  0  0  0  0  0  0  0  0  0
    1.0300    0.4855   -2.1874 N   0  0  0  0  0  0  0  0  0  0  0  0
    0.6455    1.3765   -1.9081 H   0  0  0  0  0  0  0  0  0  0  0  0
    1.6651    0.3880   -3.5004 C   0  0  0  0  0  0  0  0  0  0  0  0
    1.3198   -0.5133   -4.0120 H   0  0  0  0  0  0  0  0  0  0  0  0
    1.4175    1.2614   -4.1049 H   0  0  0  0  0  0  0  0  0  0  0  0
    2.7481    0.3272   -3.3800 H   0  0  0  0  0  0  0  0  0  0  0  0
  5  6  2  0  0  0  0
  5  7  1  0  0  0  0
  2  3  1  0  0  0  0
  2  4  1  0  0  0  0
  2  5  1  0  0  0  0
  1  2  1  0  0  0  0
 16 17  2  0  0  0  0
 16 18  1  0  0  0  0
 14 15  1  0  0  0  0
 11 12  1  0  0  0  0
 11 13  1  0  0  0  0
 11 14  1  0  0  0  0
  9 10  1  0  0  0  0
  9 11  1  0  0  0  0
  9 16  1  0  0  0  0
  7  8  1  0  0  0  0
  7  9  1  0  0  0  0
 20 21  1  0  0  0  0
 20 22  1  0  0  0  0
 20 23  1  0  0  0  0
 18 19  1  0  0  0  0
 18 20  1  0  0  0  0
M  END
$$$$
default_name
  -OEChem-01062215323D

 23 22  0     1  0  0  0  0  0999 V2000
   -2.6857   -3.6684    0.8743 H   0  0  0  0  0  0  0  0  0  0  0  0
   -2.6617   -2.6474    0.4953 C   0  0  0  0  0  0  0  0  0  0  0  0
   -3.2657   -2.0054    1.1353 H   0  0  0  0  0  0  0  0  0  0  0  0
   -3.0477   -2.6254   -0.5217 H   0  0  0  0  0  0  0  0  0  0  0  0
   -1.2337   -2.1564    0.4993 C   0  0  0  0  0  0  0  0  0  0  0  0
   -0.3327   -2.8864    0.8893 O   0  0  0  0  0  0  0  0  0  0  0  0
   -1.0277   -0.9164    0.0623 N   0  0  0  0  0  0  0  0  0  0  0  0
   -1.8237   -0.3604   -0.2157 H   0  0  0  0  0  0  0  0  0  0  0  0
    0.2713   -0.2414    0.0463 C   0  0  1  0  0  0  0  0  0  0  0  0
    0.1090    0.8346    0.1344 H   0  0  0  0  0  0  0  0  0  0  0  0
    1.0812   -0.7122    1.2656 C   0  0  0  0  0  0  0  0  0  0  0  0
    1.1350   -1.8031    1.2538 H   0  0  0  0  0  0  0  0  0  0  0  0
    2.0946   -0.3098    1.2068 H   0  0  0  0  0  0  0  0  0  0  0  0
    0.2972   -0.1863    2.8180 S   0  0  0  0  0  0  0  0  0  0  0  0
    1.1314   -0.8233    3.6486 H   0  0  0  0  0  0  0  0  0  0  0  0
    0.9911   -0.5077   -1.2916 C   0  0  0  0  0  0  0  0  0  0  0  0
    1.2542   -1.6627   -1.6281 O   0  0  0  0  0  0  0  0  0  0  0  0
    1.3016    0.5475   -2.0536 N   0  0  0  0  0  0  0  0  0  0  0  0
    1.1086    1.4640   -1.6764 H   0  0  0  0  0  0  0  0  0  0  0  0
    1.9749    0.4607   -3.3482 C   0  0  0  0  0  0  0  0  0  0  0  0
    1.4689   -0.2731   -3.9796 H   0  0  0  0  0  0  0  0  0  0  0  0
    1.9630    1.4314   -3.8453 H   0  0  0  0  0  0  0  0  0  0  0  0
    3.0085    0.1419   -3.2031 H   0  0  0  0  0  0  0  0  0  0  0  0
  5  6  2  0  0  0  0
  5  7  1  0  0  0  0
  2  3  1  0  0  0  0
  2  4  1  0  0  0  0
  2  5  1  0  0  0  0
  1  2  1  0  0  0  0
 16 17  2  0  0  0  0
 16 18  1  0  0  0  0
 14 15  1  0  0  0  0
 11 12  1  0  0  0  0
 11 13  1  0  0  0  0
 11 14  1  0  0  0  0
  9 10  1  0  0  0  0
  9 11  1  0  0  0  0
  9 16  1  0  0  0  0
  7  8  1  0  0  0  0
  7  9  1  0  0  0  0
 20 21  1  0  0  0  0
 20 22  1  0  0  0  0
 20 23  1  0  0  0  0
 18 19  1  0  0  0  0
 18 20  1  0  0  0  0
M  END
$$$$
default_name
  -OEChem-01062215323D

 23 22  0     1  0  0  0  0  0999 V2000
   -2.6857   -3.6684    0.8743 H   0  0  0  0  0  0  0  0  0  0  0  0
   -2.6617   -2.6474    0.4953 C   0  0  0  0  0  0  0  0  0  0  0  0
   -3.2657   -2.0054    1.1353 H   0  0  0  0  0  0  0  0  0  0  0  0
   -3.0477   -2.6254   -0.5217 H   0  0  0  0  0  0  0  0  0  0  0  0
   -1.2337   -2.1564    0.4993 C   0  0  0  0  0  0  0  0  0  0  0  0
   -0.3327   -2.8864    0.8893 O   0  0  0  0  0  0  0  0  0  0  0  0
   -1.0277   -0.9164    0.0623 N   0  0  0  0  0  0  0  0  0  0  0  0
   -1.8237   -0.3604   -0.2157 H   0  0  0  0  0  0  0  0  0  0  0  0
    0.2713   -0.2414    0.0463 C   0  0  1  0  0  0  0  0  0  0  0  0
    0.1090    0.8346    0.1344 H   0  0  0  0  0  0  0  0  0  0  0  0
    1.0812   -0.7122    1.2656 C   0  0  0  0  0  0  0  0  0  0  0  0
    1.1350   -1.8031    1.2538 H   0  0  0  0  0  0  0  0  0  0  0  0
    2.0946   -0.3098    1.2068 H   0  0  0  0  0  0  0  0  0  0  0  0
    0.2972   -0.1863    2.8180 S   0  0  0  0  0  0  0  0  0  0  0  0
    1.1314   -0.8233    3.6486 H   0  0  0  0  0  0  0  0  0  0  0  0
    0.9911   -0.5077   -1.2916 C   0  0  0  0  0  0  0  0  0  0  0  0
    1.0107   -1.6454   -1.7625 O   0  0  0  0  0  0  0  0  0  0  0  0
    1.5718    0.5302   -1.9048 N   0  0  0  0  0  0  0  0  0  0  0  0
    1.5652    1.4166   -1.4213 H   0  0  0  0  0  0  0  0  0  0  0  0
    2.2837    0.4430   -3.1785 C   0  0  0  0  0  0  0  0  0  0  0  0
    1.6653   -0.0785   -3.9126 H   0  0  0  0  0  0  0  0  0  0  0  0
    2.5164    1.4418   -3.5496 H   0  0  0  0  0  0  0  0  0  0  0  0
    3.2105   -0.1170   -3.0429 H   0  0  0  0  0  0  0  0  0  0  0  0
  5  6  2  0  0  0  0
  5  7  1  0  0  0  0
  2  3  1  0  0  0  0
  2  4  1  0  0  0  0
  2  5  1  0  0  0  0
  1  2  1  0  0  0  0
 16 17  2  0  0  0  0
 16 18  1  0  0  0  0
 14 15  1  0  0  0  0
 11 12  1  0  0  0  0
 11 13  1  0  0  0  0
 11 14  1  0  0  0  0
  9 10  1  0  0  0  0
  9 11  1  0  0  0  0
  9 16  1  0  0  0  0
  7  8  1  0  0  0  0
  7  9  1  0  0  0  0
 20 21  1  0  0  0  0
 20 22  1  0  0  0  0
 20 23  1  0  0  0  0
 18 19  1  0  0  0  0
 18 20  1  0  0  0  0
M  END
$$$$
default_name
  -OEChem-01062215323D

 23 22  0     1  0  0  0  0  0999 V2000
   -2.6857   -3.6684    0.8743 H   0  0  0  0  0  0  0  0  0  0  0  0
   -2.6617   -2.6474    0.4953 C   0  0  0  0  0  0  0  0  0  0  0  0
   -3.2657   -2.0054    1.1353 H   0  0  0  0  0  0  0  0  0  0  0  0
   -3.0477   -2.6254   -0.5217 H   0  0  0  0  0  0  0  0  0  0  0  0
   -1.2337   -2.1564    0.4993 C   0  0  0  0  0  0  0  0  0  0  0  0
   -0.3327   -2.8864    0.8893 O   0  0  0  0  0  0  0  0  0  0  0  0
   -1.0277   -0.9164    0.0623 N   0  0  0  0  0  0  0  0  0  0  0  0
   -1.8237   -0.3604   -0.2157 H   0  0  0  0  0  0  0  0  0  0  0  0
    0.2713   -0.2414    0.0463 C   0  0  1  0  0  0  0  0  0  0  0  0
    0.1090    0.8346    0.1344 H   0  0  0  0  0  0  0  0  0  0  0  0
    1.0812   -0.7122    1.2656 C   0  0  0  0  0  0  0  0  0  0  0  0
    1.1350   -1.8031    1.2538 H   0  0  0  0  0  0  0  0  0  0  0  0
    2.0946   -0.3098    1.2068 H   0  0  0  0  0  0  0  0  0  0  0  0
    0.2972   -0.1863    2.8180 S   0  0  0  0  0  0  0  0  0  0  0  0
    1.1314   -0.8233    3.6486 H   0  0  0  0  0  0  0  0  0  0  0  0
    0.9911   -0.5077   -1.2916 C   0  0  0  0  0  0  0  0  0  0  0  0
    0.7854   -1.5577   -1.9011 O   0  0  0  0  0  0  0  0  0  0  0  0
    1.8224    0.4348   -1.7510 N   0  0  0  0  0  0  0  0  0  0  0  0
    1.9843    1.2376   -1.1603 H   0  0  0  0  0  0  0  0  0  0  0  0
    2.5704    0.3361   -3.0030 C   0  0  0  0  0  0  0  0  0  0  0  0
    1.8958    0.0572   -3.8157 H   0  0  0  0  0  0  0  0  0  0  0  0
    3.0401    1.2919   -3.2381 H   0  0  0  0  0  0  0  0  0  0  0  0
    3.3404   -0.4317   -2.9104 H   0  0  0  0  0  0  0  0  0  0  0  0
  5  6  2  0  0  0  0
  5  7  1  0  0  0  0
  2  3  1  0  0  0  0
  2  4  1  0  0  0  0
  2  5  1  0  0  0  0
  1  2  1  0  0  0  0
 16 17  2  0  0  0  0
 16 18  1  0  0  0  0
 14 15  1  0  0  0  0
 11 12  1  0  0  0  0
 11 13  1  0  0  0  0
 11 14  1  0  0  0  0
  9 10  1  0  0  0  0
  9 11  1  0  0  0  0
  9 16  1  0  0  0  0
  7  8  1  0  0  0  0
  7  9  1  0  0  0  0
 20 21  1  0  0  0  0
 20 22  1  0  0  0  0
 20 23  1  0  0  0  0
 18 19  1  0  0  0  0
 18 20  1  0  0  0  0
M  END
$$$$
default_name
  -OEChem-01062215323D

 23 22  0     1  0  0  0  0  0999 V2000
   -2.6857   -3.6684    0.8743 H   0  0  0  0  0  0  0  0  0  0  0  0
   -2.6617   -2.6474    0.4953 C   0  0  0  0  0  0  0  0  0  0  0  0
   -3.2657   -2.0054    1.1353 H   0  0  0  0  0  0  0  0  0  0  0  0
   -3.0477   -2.6254   -0.5217 H   0  0  0  0  0  0  0  0  0  0  0  0
   -1.2337   -2.1564    0.4993 C   0  0  0  0  0  0  0  0  0  0  0  0
   -0.3327   -2.8864    0.8893 O   0  0  0  0  0  0  0  0  0  0  0  0
   -1.0277   -0.9164    0.0623 N   0  0  0  0  0  0  0  0  0  0  0  0
   -1.8237   -0.3604   -0.2157 H   0  0  0  0  0  0  0  0  0  0  0  0
    0.2713   -0.2414    0.0463 C   0  0  1  0  0  0  0  0  0  0  0  0
    0.1090    0.8346    0.1344 H   0  0  0  0  0  0  0  0  0  0  0  0
    1.0812   -0.7122    1.2656 C   0  0  0  0  0  0  0  0  0  0  0  0
    1.1350   -1.8031    1.2538 H   0  0  0  0  0  0  0  0  0  0  0  0
    2.0946   -0.3098    1.2068 H   0  0  0  0  0  0  0  0  0  0  0  0
    0.2972   -0.1863    2.8180 S   0  0  0  0  0  0  0  0  0  0  0  0
    1.1314   -0.8233    3.6486 H   0  0  0  0  0  0  0  0  0  0  0  0
    0.9911   -0.5077   -1.2916 C   0  0  0  0  0  0  0  0  0  0  0  0
    0.5937   -1.4058   -2.0345 O   0  0  0  0  0  0  0  0  0  0  0  0
    2.0361    0.2679   -1.6028 N   0  0  0  0  0  0  0  0  0  0  0  0
    2.3371    0.9390   -0.9110 H   0  0  0  0  0  0  0  0  0  0  0  0
    2.8155    0.1473   -2.8336 C   0  0  0  0  0  0  0  0  0  0  0  0
    2.1445    0.1249   -3.6953 H   0  0  0  0  0  0  0  0  0  0  0  0
    3.4984    0.9919   -2.9318 H   0  0  0  0  0  0  0  0  0  0  0  0
    3.3893   -0.7808   -2.8146 H   0  0  0  0  0  0  0  0  0  0  0  0
  5  6  2  0  0  0  0
  5  7  1  0  0  0  0
  2  3  1  0  0  0  0
  2  4  1  0  0  0  0
  2  5  1  0  0  0  0
  1  2  1  0  0  0  0
 16 17  2  0  0  0  0
 16 18  1  0  0  0  0
 14 15  1  0  0  0  0
 11 12  1  0  0  0  0
 11 13  1  0  0  0  0
 11 14  1  0  0  0  0
  9 10  1  0  0  0  0
  9 11  1  0  0  0  0
  9 16  1  0  0  0  0
  7  8  1  0  0  0  0
  7  9  1  0  0  0  0
 20 21  1  0  0  0  0
 20 22  1  0  0  0  0
 20 23  1  0  0  0  0
 18 19  1  0  0  0  0
 18 20  1  0  0  0  0
M  END
$$$$
default_name
  -OEChem-01062215323D

 23 22  0     1  0  0  0  0  0999 V2000
   -2.6857   -3.6684    0.8743 H   0  0  0  0  0  0  0  0  0  0  0  0
   -2.6617   -2.6474    0.4953 C   0  0  0  0  0  0  0  0  0  0  0  0
   -3.2657   -2.0054    1.1353 H   0  0  0  0  0  0  0  0  0  0  0  0
   -3.0477   -2.6254   -0.5217 H   0  0  0  0  0  0  0  0  0  0  0  0
   -1.2337   -2.1564    0.4993 C   0  0  0  0  0  0  0  0  0  0  0  0
   -0.3327   -2.8864    0.8893 O   0  0  0  0  0  0  0  0  0  0  0  0
   -1.0277   -0.9164    0.0623 N   0  0  0  0  0  0  0  0  0  0  0  0
   -1.8237   -0.3604   -0.2157 H   0  0  0  0  0  0  0  0  0  0  0  0
    0.2713   -0.2414    0.0463 C   0  0  1  0  0  0  0  0  0  0  0  0
    0.1387    0.7837    0.3977 H   0  0  0  0  0  0  0  0  0  0  0  0
    1.2126   -0.9707    1.0191 C   0  0  0  0  0  0  0  0  0  0  0  0
    1.2463   -2.0291    0.7509 H   0  0  0  0  0  0  0  0  0  0  0  0
    2.2183   -0.5544    0.9334 H   0  0  0  0  0  0  0  0  0  0  0  0
    0.6278   -0.8245    2.7331 S   0  0  0  0  0  0  0  0  0  0  0  0
    1.5441   -1.6260    3.2895 H   0  0  0  0  0  0  0  0  0  0  0  0
    0.8222   -0.1851   -1.3933 C   0  0  0  0  0  0  0  0  0  0  0  0
    0.1694   -0.6666   -2.3198 O   0  0  0  0  0  0  0  0  0  0  0  0
    2.0087    0.4032   -1.5845 N   0  0  0  0  0  0  0  0  0  0  0  0
    2.5084    0.7154   -0.7645 H   0  0  0  0  0  0  0  0  0  0  0  0
    2.6600    0.5432   -2.8856 C   0  0  0  0  0  0  0  0  0  0  0  0
    1.9562    0.9626   -3.6081 H   0  0  0  0  0  0  0  0  0  0  0  0
    3.5264    1.2007   -2.8049 H   0  0  0  0  0  0  0  0  0  0  0  0
    2.9822   -0.4368   -3.2416 H   0  0  0  0  0  0  0  0  0  0  0  0
  5  6  2  0  0  0  0
  5  7  1  0  0  0  0
  2  3  1  0  0  0  0
  2  4  1  0  0  0  0
  2  5  1  0  0  0  0
  1  2  1  0  0  0  0
 16 17  2  0  0  0  0
 16 18  1  0  0  0  0
 14 15  1  0  0  0  0
 11 12  1  0  0  0  0
 11 13  1  0  0  0  0
 11 14  1  0  0  0  0
  9 10  1  0  0  0  0
  9 11  1  0  0  0  0
  9 16  1  0  0  0  0
  7  8  1  0  0  0  0
  7  9  1  0  0  0  0
 20 21  1  0  0  0  0
 20 22  1  0  0  0  0
 20 23  1  0  0  0  0
 18 19  1  0  0  0  0
 18 20  1  0  0  0  0
M  END
$$$$
default_name
  -OEChem-01062215323D

 23 22  0     1  0  0  0  0  0999 V2000
   -2.6857   -3.6684    0.8743 H   0  0  0  0  0  0  0  0  0  0  0  0
   -2.6617   -2.6474    0.4953 C   0  0  0  0  0  0  0  0  0  0  0  0
   -3.2657   -2.0054    1.1353 H   0  0  0  0  0  0  0  0  0  0  0  0
   -3.0477   -2.6254   -0.5217 H   0  0  0  0  0  0  0  0  0  0  0  0
   -1.2337   -2.1564    0.4993 C   0  0  0  0  0  0  0  0  0  0  0  0
   -0.3327   -2.8864    0.8893 O   0  0  0  0  0  0  0  0  0  0  0  0
   -1.0277   -0.9164    0.0623 N   0  0  0  0  0  0  0  0  0  0  0  0
   -1.8237   -0.3604   -0.2157 H   0  0  0  0  0  0  0  0  0  0  0  0
    0.2713   -0.2414    0.0463 C   0  0  1  0  0  0  0  0  0  0  0  0
    0.1387    0.7837    0.3977 H   0  0  0  0  0  0  0  0  0  0  0  0
    1.2126   -0.9707    1.0191 C   0  0  0  0  0  0  0  0  0  0  0  0
    1.2463   -2.0291    0.7509 H   0  0  0  0  0  0  0  0  0  0  0  0
    2.2183   -0.5544    0.9334 H   0  0  0  0  0  0  0  0  0  0  0  0
    0.6278   -0.8245    2.7331 S   0  0  0  0  0  0  0  0  0  0  0  0
    1.5441   -1.6260    3.2895 H   0  0  0  0  0  0  0  0  0  0  0  0
    0.8222   -0.1851   -1.3933 C   0  0  0  0  0  0  0  0  0  0  0  0
    0.0740   -0.4061   -2.3460 O   0  0  0  0  0  0  0  0  0  0  0  0
    2.1161    0.1149   -1.5546 N   0  0  0  0  0  0  0  0  0  0  0  0
    2.6750    0.2194   -0.7201 H   0  0  0  0  0  0  0  0  0  0  0  0
    2.7844    0.2150   -2.8509 C   0  0  0  0  0  0  0  0  0  0  0  0
    2.2044    0.8574   -3.5172 H   0  0  0  0  0  0  0  0  0  0  0  0
    3.7841    0.6336   -2.7285 H   0  0  0  0  0  0  0  0  0  0  0  0
    2.8606   -0.7761   -3.3014 H   0  0  0  0  0  0  0  0  0  0  0  0
  5  6  2  0  0  0  0
  5  7  1  0  0  0  0
  2  3  1  0  0  0  0
  2  4  1  0  0  0  0
  2  5  1  0  0  0  0
  1  2  1  0  0  0  0
 16 17  2  0  0  0  0
 16 18  1  0  0  0  0
 14 15  1  0  0  0  0
 11 12  1  0  0  0  0
 11 13  1  0  0  0  0
 11 14  1  0  0  0  0
  9 10  1  0  0  0  0
  9 11  1  0  0  0  0
  9 16  1  0  0  0  0
  7  8  1  0  0  0  0
  7  9  1  0  0  0  0
 20 21  1  0  0  0  0
 20 22  1  0  0  0  0
 20 23  1  0  0  0  0
 18 19  1  0  0  0  0
 18 20  1  0  0  0  0
M  END
$$$$
default_name
  -OEChem-01062215323D

 23 22  0     1  0  0  0  0  0999 V2000
   -2.6857   -3.6684    0.8743 H   0  0  0  0  0  0  0  0  0  0  0  0
   -2.6617   -2.6474    0.4953 C   0  0  0  0  0  0  0  0  0  0  0  0
   -3.2657   -2.0054    1.1353 H   0  0  0  0  0  0  0  0  0  0  0  0
   -3.0477   -2.6254   -0.5217 H   0  0  0  0  0  0  0  0  0  0  0  0
   -1.2337   -2.1564    0.4993 C   0  0  0  0  0  0  0  0  0  0  0  0
   -0.3327   -2.8864    0.8893 O   0  0  0  0  0  0  0  0  0  0  0  0
   -1.0277   -0.9164    0.0623 N   0  0  0  0  0  0  0  0  0  0  0  0
   -1.8237   -0.3604   -0.2157 H   0  0  0  0  0  0  0  0  0  0  0  0
    0.2713   -0.2414    0.0463 C   0  0  1  0  0  0  0  0  0  0  0  0
    0.1387    0.7837    0.3977 H   0  0  0  0  0  0  0  0  0  0  0  0
    1.2126   -0.9707    1.0191 C   0  0  0  0  0  0  0  0  0  0  0  0
    1.2463   -2.0291    0.7509 H   0  0  0  0  0  0  0  0  0  0  0  0
    2.2183   -0.5544    0.9334 H   0  0  0  0  0  0  0  0  0  0  0  0
    0.6278   -0.8245    2.7331 S   0  0  0  0  0  0  0  0  0  0  0  0
    1.5441   -1.6260    3.2895 H   0  0  0  0  0  0  0  0  0  0  0  0
    0.8222   -0.1851   -1.3933 C   0  0  0  0  0  0  0  0  0  0  0  0
    0.0446   -0.1290   -2.3465 O   0  0  0  0  0  0  0  0  0  0  0  0
    2.1506   -0.1922   -1.5535 N   0  0  0  0  0  0  0  0  0  0  0  0
    2.7165   -0.3042   -0.7248 H   0  0  0  0  0  0  0  0  0  0  0  0
    2.8257   -0.1354   -2.8488 C   0  0  0  0  0  0  0  0  0  0  0  0
    2.4196    0.6875   -3.4415 H   0  0  0  0  0  0  0  0  0  0  0  0
    3.8967    0.0166   -2.7096 H   0  0  0  0  0  0  0  0  0  0  0  0
    2.6606   -1.0689   -3.3894 H   0  0  0  0  0  0  0  0  0  0  0  0
  5  6  2  0  0  0  0
  5  7  1  0  0  0  0
  2  3  1  0  0  0  0
  2  4  1  0  0  0  0
  2  5  1  0  0  0  0
  1  2  1  0  0  0  0
 16 17  2  0  0  0  0
 16 18  1  0  0  0  0
 14 15  1  0  0  0  0
 11 12  1  0  0  0  0
 11 13  1  0  0  0  0
 11 14  1  0  0  0  0
  9 10  1  0  0  0  0
  9 11  1  0  0  0  0
  9 16  1  0  0  0  0
  7  8  1  0  0  0  0
  7  9  1  0  0  0  0
 20 21  1  0  0  0  0
 20 22  1  0  0  0  0
 20 23  1  0  0  0  0
 18 19  1  0  0  0  0
 18 20  1  0  0  0  0
M  END
$$$$
default_name
  -OEChem-01062215323D

 23 22  0     1  0  0  0  0  0999 V2000
   -2.6857   -3.6684    0.8743 H   0  0  0  0  0  0  0  0  0  0  0  0
   -2.6617   -2.6474    0.4953 C   0  0  0  0  0  0  0  0  0  0  0  0
   -3.2657   -2.0054    1.1353 H   0  0  0  0  0  0  0  0  0  0  0  0
   -3.0477   -2.6254   -0.5217 H   0  0  0  0  0  0  0  0  0  0  0  0
   -1.2337   -2.1564    0.4993 C   0  0  0  0  0  0  0  0  0  0  0  0
   -0.3327   -2.8864    0.8893 O   0  0  0  0  0  0  0  0  0  0  0  0
   -1.0277   -0.9164    0.0623 N   0  0  0  0  0  0  0  0  0  0  0  0
   -1.8237   -0.3604   -0.2157 H   0  0  0  0  0  0  0  0  0  0  0  0
    0.2713   -0.2414    0.0463 C   0  0  1  0  0  0  0  0  0  0  0  0
    0.1387    0.7837    0.3977 H   0  0  0  0  0  0  0  0  0  0  0  0
    1.2126   -0.9707    1.0191 C   0  0  0  0  0  0  0  0  0  0  0  0
    1.2463   -2.0291    0.7509 H   0  0  0  0  0  0  0  0  0  0  0  0
    2.2183   -0.5544    0.9334 H   0  0  0  0  0  0  0  0  0  0  0  0
    0.6278   -0.8245    2.7331 S   0  0  0  0  0  0  0  0  0  0  0  0
    1.5441   -1.6260    3.2895 H   0  0  0  0  0  0  0  0  0  0  0  0
    0.8222   -0.1851   -1.3933 C   0  0  0  0  0  0  0  0  0  0  0  0
    0.0831    0.1458   -2.3210 O   0  0  0  0  0  0  0  0  0  0  0  0
    2.1097   -0.4972   -1.5811 N   0  0  0  0  0  0  0  0  0  0  0  0
    2.6301   -0.8194   -0.7780 H   0  0  0  0  0  0  0  0  0  0  0  0
    2.7809   -0.4839   -2.8796 C   0  0  0  0  0  0  0  0  0  0  0  0
    2.5872    0.4643   -3.3861 H   0  0  0  0  0  0  0  0  0  0  0  0
    3.8566   -0.6084   -2.7494 H   0  0  0  0  0  0  0  0  0  0  0  0
    2.3958   -1.2952   -3.4996 H   0  0  0  0  0  0  0  0  0  0  0  0
  5  6  2  0  0  0  0
  5  7  1  0  0  0  0
  2  3  1  0  0  0  0
  2  4  1  0  0  0  0
  2  5  1  0  0  0  0
  1  2  1  0  0  0  0
 16 17  2  0  0  0  0
 16 18  1  0  0  0  0
 14 15  1  0  0  0  0
 11 12  1  0  0  0  0
 11 13  1  0  0  0  0
 11 14  1  0  0  0  0
  9 10  1  0  0  0  0
  9 11  1  0  0  0  0
  9 16  1  0  0  0  0
  7  8  1  0  0  0  0
  7  9  1  0  0  0  0
 20 21  1  0  0  0  0
 20 22  1  0  0  0  0
 20 23  1  0  0  0  0
 18 19  1  0  0  0  0
 18 20  1  0  0  0  0
M  END
$$$$
default_name
  -OEChem-01062215323D

 23 22  0     1  0  0  0  0  0999 V2000
   -2.6857   -3.6684    0.8743 H   0  0  0  0  0  0  0  0  0  0  0  0
   -2.6617   -2.6474    0.4953 C   0  0  0  0  0  0  0  0  0  0  0  0
   -3.2657   -2.0054    1.1353 H   0  0  0  0  0  0  0  0  0  0  0  0
   -3.0477   -2.6254   -0.5217 H   0  0  0  0  0  0  0  0  0  0  0  0
   -1.2337   -2.1564    0.4993 C   0  0  0  0  0  0  0  0  0  0  0  0
   -0.3327   -2.8864    0.8893 O   0  0  0  0  0  0  0  0  0  0  0  0
   -1.0277   -0.9164    0.0623 N   0  0  0  0  0  0  0  0  0  0  0  0
   -1.8237   -0.3604   -0.2157 H   0  0  0  0  0  0  0  0  0  0  0  0
    0.2713   -0.2414    0.0463 C   0  0  1  0  0  0  0  0  0  0  0  0
    0.1387    0.7837    0.3977 H   0  0  0  0  0  0  0  0  0  0  0  0
    1.2126   -0.9707    1.0191 C   0  0  0  0  0  0  0  0  0  0  0  0
    1.2463   -2.0291    0.7509 H   0  0  0  0  0  0  0  0  0  0  0  0
    2.2183   -0.5544    0.9334 H   0  0  0  0  0  0  0  0  0  0  0  0
    0.6278   -0.8245    2.7331 S   0  0  0  0  0  0  0  0  0  0  0  0
    1.5441   -1.6260    3.2895 H   0  0  0  0  0  0  0  0  0  0  0  0
    0.8222   -0.1851   -1.3933 C   0  0  0  0  0  0  0  0  0  0  0  0
    0.1869    0.3996   -2.2713 O   0  0  0  0  0  0  0  0  0  0  0  0
    1.9962   -0.7795   -1.6356 N   0  0  0  0  0  0  0  0  0  0  0  0
    2.4217   -1.2913   -0.8762 H   0  0  0  0  0  0  0  0  0  0  0  0
    2.6532   -0.8069   -2.9411 C   0  0  0  0  0  0  0  0  0  0  0  0
    2.6957    0.2032   -3.3549 H   0  0  0  0  0  0  0  0  0  0  0  0
    3.6665   -1.1987   -2.8452 H   0  0  0  0  0  0  0  0  0  0  0  0
    2.0844   -1.4397   -3.6244 H   0  0  0  0  0  0  0  0  0  0  0  0
  5  6  2  0  0  0  0
  5  7  1  0  0  0  0
  2  3  1  0  0  0  0
  2  4  1  0  0  0  0
  2  5  1  0  0  0  0
  1  2  1  0  0  0  0
 16 17  2  0  0  0  0
 16 18  1  0  0  0  0
 14 15  1  0  0  0  0
 11 12  1  0  0  0  0
 11 13  1  0  0  0  0
 11 14  1  0  0  0  0
  9 10  1  0  0  0  0
  9 11  1  0  0  0  0
  9 16  1  0  0  0  0
  7  8  1  0  0  0  0
  7  9  1  0  0  0  0
 20 21  1  0  0  0  0
 20 22  1  0  0  0  0
 20 23  1  0  0  0  0
 18 19  1  0  0  0  0
 18 20  1  0  0  0  0
M  END
$$$$
default_name
  -OEChem-01062215323D

 23 22  0     1  0  0  0  0  0999 V2000
   -2.6857   -3.6684    0.8743 H   0  0  0  0  0  0  0  0  0  0  0  0
   -2.6617   -2.6474    0.4953 C   0  0  0  0  0  0  0  0  0  0  0  0
   -3.2657   -2.0054    1.1353 H   0  0  0  0  0  0  0  0  0  0  0  0
   -3.0477   -2.6254   -0.5217 H   0  0  0  0  0  0  0  0  0  0  0  0
   -1.2337   -2.1564    0.4993 C   0  0  0  0  0  0  0  0  0  0  0  0
   -0.3327   -2.8864    0.8893 O   0  0  0  0  0  0  0  0  0  0  0  0
   -1.0277   -0.9164    0.0623 N   0  0  0  0  0  0  0  0  0  0  0  0
   -1.8237   -0.3604   -0.2157 H   0  0  0  0  0  0  0  0  0  0  0  0
    0.2713   -0.2414    0.0463 C   0  0  1  0  0  0  0  0  0  0  0  0
    0.1387    0.7837    0.3977 H   0  0  0  0  0  0  0  0  0  0  0  0
    1.2126   -0.9707    1.0191 C   0  0  0  0  0  0  0  0  0  0  0  0
    1.2463   -2.0291    0.7509 H   0  0  0  0  0  0  0  0  0  0  0  0
    2.2183   -0.5544    0.9334 H   0  0  0  0  0  0  0  0  0  0  0  0
    0.6278   -0.8245    2.7331 S   0  0  0  0  0  0  0  0  0  0  0  0
    1.5441   -1.6260    3.2895 H   0  0  0  0  0  0  0  0  0  0  0  0
    0.8222   -0.1851   -1.3933 C   0  0  0  0  0  0  0  0  0  0  0  0
    0.3489    0.6151   -2.2009 O   0  0  0  0  0  0  0  0  0  0  0  0
    1.8179   -1.0196   -1.7132 N   0  0  0  0  0  0  0  0  0  0  0  0
    2.1054   -1.6878   -1.0128 H   0  0  0  0  0  0  0  0  0  0  0  0
    2.4512   -1.0824   -3.0292 C   0  0  0  0  0  0  0  0  0  0  0  0
    2.7376   -0.0782   -3.3498 H   0  0  0  0  0  0  0  0  0  0  0  0
    3.3394   -1.7141   -2.9906 H   0  0  0  0  0  0  0  0  0  0  0  0
    1.7474   -1.4926   -3.7554 H   0  0  0  0  0  0  0  0  0  0  0  0
  5  6  2  0  0  0  0
  5  7  1  0  0  0  0
  2  3  1  0  0  0  0
  2  4  1  0  0  0  0
  2  5  1  0  0  0  0
  1  2  1  0  0  0  0
 16 17  2  0  0  0  0
 16 18  1  0  0  0  0
 14 15  1  0  0  0  0
 11 12  1  0  0  0  0
 11 13  1  0  0  0  0
 11 14  1  0  0  0  0
  9 10  1  0  0  0  0
  9 11  1  0  0  0  0
  9 16  1  0  0  0  0
  7  8  1  0  0  0  0
  7  9  1  0  0  0  0
 20 21  1  0  0  0  0
 20 22  1  0  0  0  0
 20 23  1  0  0  0  0
 18 19  1  0  0  0  0
 18 20  1  0  0  0  0
M  END
$$$$
default_name
  -OEChem-01062215323D

 23 22  0     1  0  0  0  0  0999 V2000
   -2.6857   -3.6684    0.8743 H   0  0  0  0  0  0  0  0  0  0  0  0
   -2.6617   -2.6474    0.4953 C   0  0  0  0  0  0  0  0  0  0  0  0
   -3.2657   -2.0054    1.1353 H   0  0  0  0  0  0  0  0  0  0  0  0
   -3.0477   -2.6254   -0.5217 H   0  0  0  0  0  0  0  0  0  0  0  0
   -1.2337   -2.1564    0.4993 C   0  0  0  0  0  0  0  0  0  0  0  0
   -0.3327   -2.8864    0.8893 O   0  0  0  0  0  0  0  0  0  0  0  0
   -1.0277   -0.9164    0.0623 N   0  0  0  0  0  0  0  0  0  0  0  0
   -1.8237   -0.3604   -0.2157 H   0  0  0  0  0  0  0  0  0  0  0  0
    0.2713   -0.2414    0.0463 C   0  0  1  0  0  0  0  0  0  0  0  0
    0.1387    0.7837    0.3977 H   0  0  0  0  0  0  0  0  0  0  0  0
    1.2126   -0.9707    1.0191 C   0  0  0  0  0  0  0  0  0  0  0  0
    1.2463   -2.0291    0.7509 H   0  0  0  0  0  0  0  0  0  0  0  0
    2.2183   -0.5544    0.9334 H   0  0  0  0  0  0  0  0  0  0  0  0
    0.6278   -0.8245    2.7331 S   0  0  0  0  0  0  0  0  0  0  0  0
    1.5441   -1.6260    3.2895 H   0  0  0  0  0  0  0  0  0  0  0  0
    0.8222   -0.1851   -1.3933 C   0  0  0  0  0  0  0  0  0  0  0  0
    0.5582    0.7776   -2.1144 O   0  0  0  0  0  0  0  0  0  0  0  0
    1.5869   -1.2014   -1.8087 N   0  0  0  0  0  0  0  0  0  0  0  0
    1.7029   -1.9816   -1.1783 H   0  0  0  0  0  0  0  0  0  0  0  0
    2.1887   -1.2915   -3.1378 C   0  0  0  0  0  0  0  0  0  0  0  0
    2.7103   -0.3605   -3.3713 H   0  0  0  0  0  0  0  0  0  0  0  0
    2.8975   -2.1195   -3.1755 H   0  0  0  0  0  0  0  0  0  0  0  0
    1.4080   -1.4501   -3.8837 H   0  0  0  0  0  0  0  0  0  0  0  0
  5  6  2  0  0  0  0
  5  7  1  0  0  0  0
  2  3  1  0  0  0  0
  2  4  1  0  0  0  0
  2  5  1  0  0  0  0
  1  2  1  0  0  0  0
 16 17  2  0  0  0  0
 16 18  1  0  0  0  0
 14 15  1  0  0  0  0
 11 12  1  0  0  0  0
 11 13  1  0  0  0  0
 11 14  1  0  0  0  0
  9 10  1  0  0  0  0
  9 11  1  0  0  0  0
  9 16  1  0  0  0  0
  7  8  1  0  0  0  0
  7  9  1  0  0  0  0
 20 21  1  0  0  0  0
 20 22  1  0  0  0  0
 20 23  1  0  0  0  0
 18 19  1  0  0  0  0
 18 20  1  0  0  0  0
M  END
$$$$
default_name
  -OEChem-01062215323D

 23 22  0     1  0  0  0  0  0999 V2000
   -2.6857   -3.6684    0.8743 H   0  0  0  0  0  0  0  0  0  0  0  0
   -2.6617   -2.6474    0.4953 C   0  0  0  0  0  0  0  0  0  0  0  0
   -3.2657   -2.0054    1.1353 H   0  0  0  0  0  0  0  0  0  0  0  0
   -3.0477   -2.6254   -0.5217 H   0  0  0  0  0  0  0  0  0  0  0  0
   -1.2337   -2.1564    0.4993 C   0  0  0  0  0  0  0  0  0  0  0  0
   -0.3327   -2.8864    0.8893 O   0  0  0  0  0  0  0  0  0  0  0  0
   -1.0277   -0.9164    0.0623 N   0  0  0  0  0  0  0  0  0  0  0  0
   -1.8237   -0.3604   -0.2157 H   0  0  0  0  0  0  0  0  0  0  0  0
    0.2713   -0.2414    0.0463 C   0  0  1  0  0  0  0  0  0  0  0  0
    0.1387    0.7837    0.3977 H   0  0  0  0  0  0  0  0  0  0  0  0
    1.2126   -0.9707    1.0191 C   0  0  0  0  0  0  0  0  0  0  0  0
    1.2463   -2.0291    0.7509 H   0  0  0  0  0  0  0  0  0  0  0  0
    2.2183   -0.5544    0.9334 H   0  0  0  0  0  0  0  0  0  0  0  0
    0.6278   -0.8245    2.7331 S   0  0  0  0  0  0  0  0  0  0  0  0
    1.5441   -1.6260    3.2895 H   0  0  0  0  0  0  0  0  0  0  0  0
    0.8222   -0.1851   -1.3933 C   0  0  0  0  0  0  0  0  0  0  0  0
    0.8004    0.8760   -2.0179 O   0  0  0  0  0  0  0  0  0  0  0  0
    1.3190   -1.3123   -1.9155 N   0  0  0  0  0  0  0  0  0  0  0  0
    1.2415   -2.1530   -1.3616 H   0  0  0  0  0  0  0  0  0  0  0  0
    1.8836   -1.4201   -3.2596 C   0  0  0  0  0  0  0  0  0  0  0  0
    2.6154   -0.6247   -3.4180 H   0  0  0  0  0  0  0  0  0  0  0  0
    2.3710   -2.3873   -3.3875 H   0  0  0  0  0  0  0  0  0  0  0  0
    1.0891   -1.3152   -4.0004 H   0  0  0  0  0  0  0  0  0  0  0  0
  5  6  2  0  0  0  0
  5  7  1  0  0  0  0
  2  3  1  0  0  0  0
  2  4  1  0  0  0  0
  2  5  1  0  0  0  0
  1  2  1  0  0  0  0
 16 17  2  0  0  0  0
 16 18  1  0  0  0  0
 14 15  1  0  0  0  0
 11 12  1  0  0  0  0
 11 13  1  0  0  0  0
 11 14  1  0  0  0  0
  9 10  1  0  0  0  0
  9 11  1  0  0  0  0
  9 16  1  0  0  0  0
  7  8  1  0  0  0  0
  7  9  1  0  0  0  0
 20 21  1  0  0  0  0
 20 22  1  0  0  0  0
 20 23  1  0  0  0  0
 18 19  1  0  0  0  0
 18 20  1  0  0  0  0
M  END
$$$$
default_name
  -OEChem-01062215323D

 23 22  0     1  0  0  0  0  0999 V2000
   -2.6857   -3.6684    0.8743 H   0  0  0  0  0  0  0  0  0  0  0  0
   -2.6617   -2.6474    0.4953 C   0  0  0  0  0  0  0  0  0  0  0  0
   -3.2657   -2.0054    1.1353 H   0  0  0  0  0  0  0  0  0  0  0  0
   -3.0477   -2.6254   -0.5217 H   0  0  0  0  0  0  0  0  0  0  0  0
   -1.2337   -2.1564    0.4993 C   0  0  0  0  0  0  0  0  0  0  0  0
   -0.3327   -2.8864    0.8893 O   0  0  0  0  0  0  0  0  0  0  0  0
   -1.0277   -0.9164    0.0623 N   0  0  0  0  0  0  0  0  0  0  0  0
   -1.8237   -0.3604   -0.2157 H   0  0  0  0  0  0  0  0  0  0  0  0
    0.2713   -0.2414    0.0463 C   0  0  1  0  0  0  0  0  0  0  0  0
    0.1387    0.7837    0.3977 H   0  0  0  0  0  0  0  0  0  0  0  0
    1.2126   -0.9707    1.0191 C   0  0  0  0  0  0  0  0  0  0  0  0
    1.2463   -2.0291    0.7509 H   0  0  0  0  0  0  0  0  0  0  0  0
    2.2183   -0.5544    0.9334 H   0  0  0  0  0  0  0  0  0  0  0  0
    0.6278   -0.8245    2.7331 S   0  0  0  0  0  0  0  0  0  0  0  0
    1.5441   -1.6260    3.2895 H   0  0  0  0  0  0  0  0  0  0  0  0
    0.8222   -0.1851   -1.3933 C   0  0  0  0  0  0  0  0  0  0  0  0
    1.0590    0.9036   -1.9179 O   0  0  0  0  0  0  0  0  0  0  0  0
    1.0325   -1.3449   -2.0265 N   0  0  0  0  0  0  0  0  0  0  0  0
    0.7527   -2.1901   -1.5501 H   0  0  0  0  0  0  0  0  0  0  0  0
    1.5567   -1.4593   -3.3862 C   0  0  0  0  0  0  0  0  0  0  0  0
    2.4596   -0.8526   -3.4865 H   0  0  0  0  0  0  0  0  0  0  0  0
    1.7958   -2.4992   -3.6120 H   0  0  0  0  0  0  0  0  0  0  0  0
    0.8127   -1.0971   -4.0976 H   0  0  0  0  0  0  0  0  0  0  0  0
  5  6  2  0  0  0  0
  5  7  1  0  0  0  0
  2  3  1  0  0  0  0
  2  4  1  0  0  0  0
  2  5  1  0  0  0  0
  1  2  1  0  0  0  0
 16 17  2  0  0  0  0
 16 18  1  0  0  0  0
 14 15  1  0  0  0  0
 11 12  1  0  0  0  0
 11 13  1  0  0  0  0
 11 14  1  0  0  0  0
  9 10  1  0  0  0  0
  9 11  1  0  0  0  0
  9 16  1  0  0  0  0
  7  8  1  0  0  0  0
  7  9  1  0  0  0  0
 20 21  1  0  0  0  0
 20 22  1  0  0  0  0
 20 23  1  0  0  0  0
 18 19  1  0  0  0  0
 18 20  1  0  0  0  0
M  END
$$$$
default_name
  -OEChem-01062215323D

 23 22  0     1  0  0  0  0  0999 V2000
   -2.6857   -3.6684    0.8743 H   0  0  0  0  0  0  0  0  0  0  0  0
   -2.6617   -2.6474    0.4953 C   0  0  0  0  0  0  0  0  0  0  0  0
   -3.2657   -2.0054    1.1353 H   0  0  0  0  0  0  0  0  0  0  0  0
   -3.0477   -2.6254   -0.5217 H   0  0  0  0  0  0  0  0  0  0  0  0
   -1.2337   -2.1564    0.4993 C   0  0  0  0  0  0  0  0  0  0  0  0
   -0.3327   -2.8864    0.8893 O   0  0  0  0  0  0  0  0  0  0  0  0
   -1.0277   -0.9164    0.0623 N   0  0  0  0  0  0  0  0  0  0  0  0
   -1.8237   -0.3604   -0.2157 H   0  0  0  0  0  0  0  0  0  0  0  0
    0.2713   -0.2414    0.0463 C   0  0  1  0  0  0  0  0  0  0  0  0
    0.1387    0.7837    0.3977 H   0  0  0  0  0  0  0  0  0  0  0  0
    1.2126   -0.9707    1.0191 C   0  0  0  0  0  0  0  0  0  0  0  0
    1.2463   -2.0291    0.7509 H   0  0  0  0  0  0  0  0  0  0  0  0
    2.2183   -0.5544    0.9334 H   0  0  0  0  0  0  0  0  0  0  0  0
    0.6278   -0.8245    2.7331 S   0  0  0  0  0  0  0  0  0  0  0  0
    1.5441   -1.6260    3.2895 H   0  0  0  0  0  0  0  0  0  0  0  0
    0.8222   -0.1851   -1.3933 C   0  0  0  0  0  0  0  0  0  0  0  0
    1.3164    0.8585   -1.8211 O   0  0  0  0  0  0  0  0  0  0  0  0
    0.7467   -1.2968   -2.1339 N   0  0  0  0  0  0  0  0  0  0  0  0
    0.2698   -2.0904   -1.7309 H   0  0  0  0  0  0  0  0  0  0  0  0
    1.2303   -1.4065   -3.5090 C   0  0  0  0  0  0  0  0  0  0  0  0
    2.2533   -1.0288   -3.5724 H   0  0  0  0  0  0  0  0  0  0  0  0
    1.2110   -2.4475   -3.8337 H   0  0  0  0  0  0  0  0  0  0  0  0
    0.5974   -0.8106   -4.1688 H   0  0  0  0  0  0  0  0  0  0  0  0
  5  6  2  0  0  0  0
  5  7  1  0  0  0  0
  2  3  1  0  0  0  0
  2  4  1  0  0  0  0
  2  5  1  0  0  0  0
  1  2  1  0  0  0  0
 16 17  2  0  0  0  0
 16 18  1  0  0  0  0
 14 15  1  0  0  0  0
 11 12  1  0  0  0  0
 11 13  1  0  0  0  0
 11 14  1  0  0  0  0
  9 10  1  0  0  0  0
  9 11  1  0  0  0  0
  9 16  1  0  0  0  0
  7  8  1  0  0  0  0
  7  9  1  0  0  0  0
 20 21  1  0  0  0  0
 20 22  1  0  0  0  0
 20 23  1  0  0  0  0
 18 19  1  0  0  0  0
 18 20  1  0  0  0  0
M  END
$$$$
default_name
  -OEChem-01062215323D

 23 22  0     1  0  0  0  0  0999 V2000
   -2.6857   -3.6684    0.8743 H   0  0  0  0  0  0  0  0  0  0  0  0
   -2.6617   -2.6474    0.4953 C   0  0  0  0  0  0  0  0  0  0  0  0
   -3.2657   -2.0054    1.1353 H   0  0  0  0  0  0  0  0  0  0  0  0
   -3.0477   -2.6254   -0.5217 H   0  0  0  0  0  0  0  0  0  0  0  0
   -1.2337   -2.1564    0.4993 C   0  0  0  0  0  0  0  0  0  0  0  0
   -0.3327   -2.8864    0.8893 O   0  0  0  0  0  0  0  0  0  0  0  0
   -1.0277   -0.9164    0.0623 N   0  0  0  0  0  0  0  0  0  0  0  0
   -1.8237   -0.3604   -0.2157 H   0  0  0  0  0  0  0  0  0  0  0  0
    0.2713   -0.2414    0.0463 C   0  0  1  0  0  0  0  0  0  0  0  0
    0.1387    0.7837    0.3977 H   0  0  0  0  0  0  0  0  0  0  0  0
    1.2126   -0.9707    1.0191 C   0  0  0  0  0  0  0  0  0  0  0  0
    1.2463   -2.0291    0.7509 H   0  0  0  0  0  0  0  0  0  0  0  0
    2.2183   -0.5544    0.9334 H   0  0  0  0  0  0  0  0  0  0  0  0
    0.6278   -0.8245    2.7331 S   0  0  0  0  0  0  0  0  0  0  0  0
    1.5441   -1.6260    3.2895 H   0  0  0  0  0  0  0  0  0  0  0  0
    0.8222   -0.1851   -1.3933 C   0  0  0  0  0  0  0  0  0  0  0  0
    1.5551    0.7439   -1.7343 O   0  0  0  0  0  0  0  0  0  0  0  0
    0.4813   -1.1715   -2.2306 N   0  0  0  0  0  0  0  0  0  0  0  0
   -0.1742   -1.8608   -1.8918 H   0  0  0  0  0  0  0  0  0  0  0  0
    0.9266   -1.2653   -3.6197 C   0  0  0  0  0  0  0  0  0  0  0  0
    2.0107   -1.1412   -3.6696 H   0  0  0  0  0  0  0  0  0  0  0  0
    0.6566   -2.2359   -4.0376 H   0  0  0  0  0  0  0  0  0  0  0  0
    0.4579   -0.4753   -4.2090 H   0  0  0  0  0  0  0  0  0  0  0  0
  5  6  2  0  0  0  0
  5  7  1  0  0  0  0
  2  3  1  0  0  0  0
  2  4  1  0  0  0  0
  2  5  1  0  0  0  0
  1  2  1  0  0  0  0
 16 17  2  0  0  0  0
 16 18  1  0  0  0  0
 14 15  1  0  0  0  0
 11 12  1  0  0  0  0
 11 13  1  0  0  0  0
 11 14  1  0  0  0  0
  9 10  1  0  0  0  0
  9 11  1  0  0  0  0
  9 16  1  0  0  0  0
  7  8  1  0  0  0  0
  7  9  1  0  0  0  0
 20 21  1  0  0  0  0
 20 22  1  0  0  0  0
 20 23  1  0  0  0  0
 18 19  1  0  0  0  0
 18 20  1  0  0  0  0
M  END
$$$$
default_name
  -OEChem-01062215323D

 23 22  0     1  0  0  0  0  0999 V2000
   -2.6857   -3.6684    0.8743 H   0  0  0  0  0  0  0  0  0  0  0  0
   -2.6617   -2.6474    0.4953 C   0  0  0  0  0  0  0  0  0  0  0  0
   -3.2657   -2.0054    1.1353 H   0  0  0  0  0  0  0  0  0  0  0  0
   -3.0477   -2.6254   -0.5217 H   0  0  0  0  0  0  0  0  0  0  0  0
   -1.2337   -2.1564    0.4993 C   0  0  0  0  0  0  0  0  0  0  0  0
   -0.3327   -2.8864    0.8893 O   0  0  0  0  0  0  0  0  0  0  0  0
   -1.0277   -0.9164    0.0623 N   0  0  0  0  0  0  0  0  0  0  0  0
   -1.8237   -0.3604   -0.2157 H   0  0  0  0  0  0  0  0  0  0  0  0
    0.2713   -0.2414    0.0463 C   0  0  1  0  0  0  0  0  0  0  0  0
    0.1387    0.7837    0.3977 H   0  0  0  0  0  0  0  0  0  0  0  0
    1.2126   -0.9707    1.0191 C   0  0  0  0  0  0  0  0  0  0  0  0
    1.2463   -2.0291    0.7509 H   0  0  0  0  0  0  0  0  0  0  0  0
    2.2183   -0.5544    0.9334 H   0  0  0  0  0  0  0  0  0  0  0  0
    0.6278   -0.8245    2.7331 S   0  0  0  0  0  0  0  0  0  0  0  0
    1.5441   -1.6260    3.2895 H   0  0  0  0  0  0  0  0  0  0  0  0
    0.8222   -0.1851   -1.3933 C   0  0  0  0  0  0  0  0  0  0  0  0
    1.7588    0.5675   -1.6633 O   0  0  0  0  0  0  0  0  0  0  0  0
    0.2543   -0.9774   -2.3098 N   0  0  0  0  0  0  0  0  0  0  0  0
   -0.5492   -1.5168   -2.0219 H   0  0  0  0  0  0  0  0  0  0  0  0
    0.6663   -1.0453   -3.7107 C   0  0  0  0  0  0  0  0  0  0  0  0
    1.7483   -1.1822   -3.7716 H   0  0  0  0  0  0  0  0  0  0  0  0
    0.1702   -1.8786   -4.2097 H   0  0  0  0  0  0  0  0  0  0  0  0
    0.4038   -0.1141   -4.2156 H   0  0  0  0  0  0  0  0  0  0  0  0
  5  6  2  0  0  0  0
  5  7  1  0  0  0  0
  2  3  1  0  0  0  0
  2  4  1  0  0  0  0
  2  5  1  0  0  0  0
  1  2  1  0  0  0  0
 16 17  2  0  0  0  0
 16 18  1  0  0  0  0
 14 15  1  0  0  0  0
 11 12  1  0  0  0  0
 11 13  1  0  0  0  0
 11 14  1  0  0  0  0
  9 10  1  0  0  0  0
  9 11  1  0  0  0  0
  9 16  1  0  0  0  0
  7  8  1  0  0  0  0
  7  9  1  0  0  0  0
 20 21  1  0  0  0  0
 20 22  1  0  0  0  0
 20 23  1  0  0  0  0
 18 19  1  0  0  0  0
 18 20  1  0  0  0  0
M  END
$$$$
default_name
  -OEChem-01062215323D

 23 22  0     1  0  0  0  0  0999 V2000
   -2.6857   -3.6684    0.8743 H   0  0  0  0  0  0  0  0  0  0  0  0
   -2.6617   -2.6474    0.4953 C   0  0  0  0  0  0  0  0  0  0  0  0
   -3.2657   -2.0054    1.1353 H   0  0  0  0  0  0  0  0  0  0  0  0
   -3.0477   -2.6254   -0.5217 H   0  0  0  0  0  0  0  0  0  0  0  0
   -1.2337   -2.1564    0.4993 C   0  0  0  0  0  0  0  0  0  0  0  0
   -0.3327   -2.8864    0.8893 O   0  0  0  0  0  0  0  0  0  0  0  0
   -1.0277   -0.9164    0.0623 N   0  0  0  0  0  0  0  0  0  0  0  0
   -1.8237   -0.3604   -0.2157 H   0  0  0  0  0  0  0  0  0  0  0  0
    0.2713   -0.2414    0.0463 C   0  0  1  0  0  0  0  0  0  0  0  0
    0.1387    0.7837    0.3977 H   0  0  0  0  0  0  0  0  0  0  0  0
    1.2126   -0.9707    1.0191 C   0  0  0  0  0  0  0  0  0  0  0  0
    1.2463   -2.0291    0.7509 H   0  0  0  0  0  0  0  0  0  0  0  0
    2.2183   -0.5544    0.9334 H   0  0  0  0  0  0  0  0  0  0  0  0
    0.6278   -0.8245    2.7331 S   0  0  0  0  0  0  0  0  0  0  0  0
    1.5441   -1.6260    3.2895 H   0  0  0  0  0  0  0  0  0  0  0  0
    0.8222   -0.1851   -1.3933 C   0  0  0  0  0  0  0  0  0  0  0  0
    1.9136    0.3414   -1.6129 O   0  0  0  0  0  0  0  0  0  0  0  0
    0.0812   -0.7277   -2.3663 N   0  0  0  0  0  0  0  0  0  0  0  0
   -0.8295   -1.0820   -2.1121 H   0  0  0  0  0  0  0  0  0  0  0  0
    0.4671   -0.7616   -3.7758 C   0  0  0  0  0  0  0  0  0  0  0  0
    1.4840   -1.1489   -3.8715 H   0  0  0  0  0  0  0  0  0  0  0  0
   -0.2149   -1.4002   -4.3383 H   0  0  0  0  0  0  0  0  0  0  0  0
    0.4388    0.2485   -4.1880 H   0  0  0  0  0  0  0  0  0  0  0  0
  5  6  2  0  0  0  0
  5  7  1  0  0  0  0
  2  3  1  0  0  0  0
  2  4  1  0  0  0  0
  2  5  1  0  0  0  0
  1  2  1  0  0  0  0
 16 17  2  0  0  0  0
 16 18  1  0  0  0  0
 14 15  1  0  0  0  0
 11 12  1  0  0  0  0
 11 13  1  0  0  0  0
 11 14  1  0  0  0  0
  9 10  1  0  0  0  0
  9 11  1  0  0  0  0
  9 16  1  0  0  0  0
  7  8  1  0  0  0  0
  7  9  1  0  0  0  0
 20 21  1  0  0  0  0
 20 22  1  0  0  0  0
 20 23  1  0  0  0  0
 18 19  1  0  0  0  0
 18 20  1  0  0  0  0
M  END
$$$$
default_name
  -OEChem-01062215323D

 23 22  0     1  0  0  0  0  0999 V2000
   -2.6857   -3.6684    0.8743 H   0  0  0  0  0  0  0  0  0  0  0  0
   -2.6617   -2.6474    0.4953 C   0  0  0  0  0  0  0  0  0  0  0  0
   -3.2657   -2.0054    1.1353 H   0  0  0  0  0  0  0  0  0  0  0  0
   -3.0477   -2.6254   -0.5217 H   0  0  0  0  0  0  0  0  0  0  0  0
   -1.2337   -2.1564    0.4993 C   0  0  0  0  0  0  0  0  0  0  0  0
   -0.3327   -2.8864    0.8893 O   0  0  0  0  0  0  0  0  0  0  0  0
   -1.0277   -0.9164    0.0623 N   0  0  0  0  0  0  0  0  0  0  0  0
   -1.8237   -0.3604   -0.2157 H   0  0  0  0  0  0  0  0  0  0  0  0
    0.2713   -0.2414    0.0463 C   0  0  1  0  0  0  0  0  0  0  0  0
    0.1387    0.7837    0.3977 H   0  0  0  0  0  0  0  0  0  0  0  0
    1.2126   -0.9707    1.0191 C   0  0  0  0  0  0  0  0  0  0  0  0
    1.2463   -2.0291    0.7509 H   0  0  0  0  0  0  0  0  0  0  0  0
    2.2183   -0.5544    0.9334 H   0  0  0  0  0  0  0  0  0  0  0  0
    0.6278   -0.8245    2.7331 S   0  0  0  0  0  0  0  0  0  0  0  0
    1.5441   -1.6260    3.2895 H   0  0  0  0  0  0  0  0  0  0  0  0
    0.8222   -0.1851   -1.3933 C   0  0  0  0  0  0  0  0  0  0  0  0
    2.0089    0.0808   -1.5866 O   0  0  0  0  0  0  0  0  0  0  0  0
   -0.0263   -0.4395   -2.3961 N   0  0  0  0  0  0  0  0  0  0  0  0
   -0.9961   -0.5859   -2.1564 H   0  0  0  0  0  0  0  0  0  0  0  0
    0.3427   -0.4333   -3.8106 C   0  0  0  0  0  0  0  0  0  0  0  0
    1.2358   -1.0437   -3.9623 H   0  0  0  0  0  0  0  0  0  0  0  0
   -0.4726   -0.8331   -4.4147 H   0  0  0  0  0  0  0  0  0  0  0  0
    0.5605    0.5878   -4.1281 H   0  0  0  0  0  0  0  0  0  0  0  0
  5  6  2  0  0  0  0
  5  7  1  0  0  0  0
  2  3  1  0  0  0  0
  2  4  1  0  0  0  0
  2  5  1  0  0  0  0
  1  2  1  0  0  0  0
 16 17  2  0  0  0  0
 16 18  1  0  0  0  0
 14 15  1  0  0  0  0
 11 12  1  0  0  0  0
 11 13  1  0  0  0  0
 11 14  1  0  0  0  0
  9 10  1  0  0  0  0
  9 11  1  0  0  0  0
  9 16  1  0  0  0  0
  7  8  1  0  0  0  0
  7  9  1  0  0  0  0
 20 21  1  0  0  0  0
 20 22  1  0  0  0  0
 20 23  1  0  0  0  0
 18 19  1  0  0  0  0
 18 20  1  0  0  0  0
M  END
$$$$
default_name
  -OEChem-01062215323D

 23 22  0     1  0  0  0  0  0999 V2000
   -2.6857   -3.6684    0.8743 H   0  0  0  0  0  0  0  0  0  0  0  0
   -2.6617   -2.6474    0.4953 C   0  0  0  0  0  0  0  0  0  0  0  0
   -3.2657   -2.0054    1.1353 H   0  0  0  0  0  0  0  0  0  0  0  0
   -3.0477   -2.6254   -0.5217 H   0  0  0  0  0  0  0  0  0  0  0  0
   -1.2337   -2.1564    0.4993 C   0  0  0  0  0  0  0  0  0  0  0  0
   -0.3327   -2.8864    0.8893 O   0  0  0  0  0  0  0  0  0  0  0  0
   -1.0277   -0.9164    0.0623 N   0  0  0  0  0  0  0  0  0  0  0  0
   -1.8237   -0.3604   -0.2157 H   0  0  0  0  0  0  0  0  0  0  0  0
    0.2713   -0.2414    0.0463 C   0  0  1  0  0  0  0  0  0  0  0  0
    0.1387    0.7837    0.3977 H   0  0  0  0  0  0  0  0  0  0  0  0
    1.2126   -0.9707    1.0191 C   0  0  0  0  0  0  0  0  0  0  0  0
    1.2463   -2.0291    0.7509 H   0  0  0  0  0  0  0  0  0  0  0  0
    2.2183   -0.5544    0.9334 H   0  0  0  0  0  0  0  0  0  0  0  0
    0.6278   -0.8245    2.7331 S   0  0  0  0  0  0  0  0  0  0  0  0
    1.5441   -1.6260    3.2895 H   0  0  0  0  0  0  0  0  0  0  0  0
    0.8222   -0.1851   -1.3933 C   0  0  0  0  0  0  0  0  0  0  0  0
    2.0384   -0.1963   -1.5862 O   0  0  0  0  0  0  0  0  0  0  0  0
   -0.0607   -0.1324   -2.3973 N   0  0  0  0  0  0  0  0  0  0  0  0
   -1.0377   -0.0624   -2.1518 H   0  0  0  0  0  0  0  0  0  0  0  0
    0.3014   -0.0830   -3.8126 C   0  0  0  0  0  0  0  0  0  0  0  0
    1.0205   -0.8738   -4.0380 H   0  0  0  0  0  0  0  0  0  0  0  0
   -0.5852   -0.2161   -4.4336 H   0  0  0  0  0  0  0  0  0  0  0  0
    0.7605    0.8806   -4.0401 H   0  0  0  0  0  0  0  0  0  0  0  0
  5  6  2  0  0  0  0
  5  7  1  0  0  0  0
  2  3  1  0  0  0  0
  2  4  1  0  0  0  0
  2  5  1  0  0  0  0
  1  2  1  0  0  0  0
 16 17  2  0  0  0  0
 16 18  1  0  0  0  0
 14 15  1  0  0  0  0
 11 12  1  0  0  0  0
 11 13  1  0  0  0  0
 11 14  1  0  0  0  0
  9 10  1  0  0  0  0
  9 11  1  0  0  0  0
  9 16  1  0  0  0  0
  7  8  1  0  0  0  0
  7  9  1  0  0  0  0
 20 21  1  0  0  0  0
 20 22  1  0  0  0  0
 20 23  1  0  0  0  0
 18 19  1  0  0  0  0
 18 20  1  0  0  0  0
M  END
$$$$
default_name
  -OEChem-01062215323D

 23 22  0     1  0  0  0  0  0999 V2000
   -2.6857   -3.6684    0.8743 H   0  0  0  0  0  0  0  0  0  0  0  0
   -2.6617   -2.6474    0.4953 C   0  0  0  0  0  0  0  0  0  0  0  0
   -3.2657   -2.0054    1.1353 H   0  0  0  0  0  0  0  0  0  0  0  0
   -3.0477   -2.6254   -0.5217 H   0  0  0  0  0  0  0  0  0  0  0  0
   -1.2337   -2.1564    0.4993 C   0  0  0  0  0  0  0  0  0  0  0  0
   -0.3327   -2.8864    0.8893 O   0  0  0  0  0  0  0  0  0  0  0  0
   -1.0277   -0.9164    0.0623 N   0  0  0  0  0  0  0  0  0  0  0  0
   -1.8237   -0.3604   -0.2157 H   0  0  0  0  0  0  0  0  0  0  0  0
    0.2713   -0.2414    0.0463 C   0  0  1  0  0  0  0  0  0  0  0  0
    0.1387    0.7837    0.3977 H   0  0  0  0  0  0  0  0  0  0  0  0
    1.2126   -0.9707    1.0191 C   0  0  0  0  0  0  0  0  0  0  0  0
    1.2463   -2.0291    0.7509 H   0  0  0  0  0  0  0  0  0  0  0  0
    2.2183   -0.5544    0.9334 H   0  0  0  0  0  0  0  0  0  0  0  0
    0.6278   -0.8245    2.7331 S   0  0  0  0  0  0  0  0  0  0  0  0
    1.5441   -1.6260    3.2895 H   0  0  0  0  0  0  0  0  0  0  0  0
    0.8222   -0.1851   -1.3933 C   0  0  0  0  0  0  0  0  0  0  0  0
    1.9999   -0.4711   -1.6117 O   0  0  0  0  0  0  0  0  0  0  0  0
   -0.0198    0.1727   -2.3697 N   0  0  0  0  0  0  0  0  0  0  0  0
   -0.9513    0.4528   -2.0986 H   0  0  0  0  0  0  0  0  0  0  0  0
    0.3462    0.2655   -3.7819 C   0  0  0  0  0  0  0  0  0  0  0  0
    0.8530   -0.6506   -4.0934 H   0  0  0  0  0  0  0  0  0  0  0  0
   -0.5451    0.4089   -4.3938 H   0  0  0  0  0  0  0  0  0  0  0  0
    1.0252    1.1069   -3.9300 H   0  0  0  0  0  0  0  0  0  0  0  0
  5  6  2  0  0  0  0
  5  7  1  0  0  0  0
  2  3  1  0  0  0  0
  2  4  1  0  0  0  0
  2  5  1  0  0  0  0
  1  2  1  0  0  0  0
 16 17  2  0  0  0  0
 16 18  1  0  0  0  0
 14 15  1  0  0  0  0
 11 12  1  0  0  0  0
 11 13  1  0  0  0  0
 11 14  1  0  0  0  0
  9 10  1  0  0  0  0
  9 11  1  0  0  0  0
  9 16  1  0  0  0  0
  7  8  1  0  0  0  0
  7  9  1  0  0  0  0
 20 21  1  0  0  0  0
 20 22  1  0  0  0  0
 20 23  1  0  0  0  0
 18 19  1  0  0  0  0
 18 20  1  0  0  0  0
M  END
$$$$
default_name
  -OEChem-01062215323D

 23 22  0     1  0  0  0  0  0999 V2000
   -2.6857   -3.6684    0.8743 H   0  0  0  0  0  0  0  0  0  0  0  0
   -2.6617   -2.6474    0.4953 C   0  0  0  0  0  0  0  0  0  0  0  0
   -3.2657   -2.0054    1.1353 H   0  0  0  0  0  0  0  0  0  0  0  0
   -3.0477   -2.6254   -0.5217 H   0  0  0  0  0  0  0  0  0  0  0  0
   -1.2337   -2.1564    0.4993 C   0  0  0  0  0  0  0  0  0  0  0  0
   -0.3327   -2.8864    0.8893 O   0  0  0  0  0  0  0  0  0  0  0  0
   -1.0277   -0.9164    0.0623 N   0  0  0  0  0  0  0  0  0  0  0  0
   -1.8237   -0.3604   -0.2157 H   0  0  0  0  0  0  0  0  0  0  0  0
    0.2713   -0.2414    0.0463 C   0  0  1  0  0  0  0  0  0  0  0  0
    0.1387    0.7837    0.3977 H   0  0  0  0  0  0  0  0  0  0  0  0
    1.2126   -0.9707    1.0191 C   0  0  0  0  0  0  0  0  0  0  0  0
    1.2463   -2.0291    0.7509 H   0  0  0  0  0  0  0  0  0  0  0  0
    2.2183   -0.5544    0.9334 H   0  0  0  0  0  0  0  0  0  0  0  0
    0.6278   -0.8245    2.7331 S   0  0  0  0  0  0  0  0  0  0  0  0
    1.5441   -1.6260    3.2895 H   0  0  0  0  0  0  0  0  0  0  0  0
    0.8222   -0.1851   -1.3933 C   0  0  0  0  0  0  0  0  0  0  0  0
    1.8961   -0.7248   -1.6613 O   0  0  0  0  0  0  0  0  0  0  0  0
    0.0937    0.4549   -2.3152 N   0  0  0  0  0  0  0  0  0  0  0  0
   -0.7428    0.9248   -2.0003 H   0  0  0  0  0  0  0  0  0  0  0  0
    0.4739    0.5885   -3.7203 C   0  0  0  0  0  0  0  0  0  0  0  0
    0.7445   -0.3895   -4.1247 H   0  0  0  0  0  0  0  0  0  0  0  0
   -0.3550    0.9992   -4.2980 H   0  0  0  0  0  0  0  0  0  0  0  0
    1.3367    1.2515   -3.8051 H   0  0  0  0  0  0  0  0  0  0  0  0
  5  6  2  0  0  0  0
  5  7  1  0  0  0  0
  2  3  1  0  0  0  0
  2  4  1  0  0  0  0
  2  5  1  0  0  0  0
  1  2  1  0  0  0  0
 16 17  2  0  0  0  0
 16 18  1  0  0  0  0
 14 15  1  0  0  0  0
 11 12  1  0  0  0  0
 11 13  1  0  0  0  0
 11 14  1  0  0  0  0
  9 10  1  0  0  0  0
  9 11  1  0  0  0  0
  9 16  1  0  0  0  0
  7  8  1  0  0  0  0
  7  9  1  0  0  0  0
 20 21  1  0  0  0  0
 20 22  1  0  0  0  0
 20 23  1  0  0  0  0
 18 19  1  0  0  0  0
 18 20  1  0  0  0  0
M  END
$$$$
default_name
  -OEChem-01062215323D

 23 22  0     1  0  0  0  0  0999 V2000
   -2.6857   -3.6684    0.8743 H   0  0  0  0  0  0  0  0  0  0  0  0
   -2.6617   -2.6474    0.4953 C   0  0  0  0  0  0  0  0  0  0  0  0
   -3.2657   -2.0054    1.1353 H   0  0  0  0  0  0  0  0  0  0  0  0
   -3.0477   -2.6254   -0.5217 H   0  0  0  0  0  0  0  0  0  0  0  0
   -1.2337   -2.1564    0.4993 C   0  0  0  0  0  0  0  0  0  0  0  0
   -0.3327   -2.8864    0.8893 O   0  0  0  0  0  0  0  0  0  0  0  0
   -1.0277   -0.9164    0.0623 N   0  0  0  0  0  0  0  0  0  0  0  0
   -1.8237   -0.3604   -0.2157 H   0  0  0  0  0  0  0  0  0  0  0  0
    0.2713   -0.2414    0.0463 C   0  0  1  0  0  0  0  0  0  0  0  0
    0.1387    0.7837    0.3977 H   0  0  0  0  0  0  0  0  0  0  0  0
    1.2126   -0.9707    1.0191 C   0  0  0  0  0  0  0  0  0  0  0  0
    1.2463   -2.0291    0.7509 H   0  0  0  0  0  0  0  0  0  0  0  0
    2.2183   -0.5544    0.9334 H   0  0  0  0  0  0  0  0  0  0  0  0
    0.6278   -0.8245    2.7331 S   0  0  0  0  0  0  0  0  0  0  0  0
    1.5441   -1.6260    3.2895 H   0  0  0  0  0  0  0  0  0  0  0  0
    0.8222   -0.1851   -1.3933 C   0  0  0  0  0  0  0  0  0  0  0  0
    1.7340   -0.9403   -1.7318 O   0  0  0  0  0  0  0  0  0  0  0  0
    0.2720    0.6951   -2.2376 N   0  0  0  0  0  0  0  0  0  0  0  0
   -0.4266    1.3212   -1.8638 H   0  0  0  0  0  0  0  0  0  0  0  0
    0.6759    0.8640   -3.6323 C   0  0  0  0  0  0  0  0  0  0  0  0
    0.7025   -0.1081   -4.1297 H   0  0  0  0  0  0  0  0  0  0  0  0
   -0.0279    1.5146   -4.1526 H   0  0  0  0  0  0  0  0  0  0  0  0
    1.6736    1.3043   -3.6741 H   0  0  0  0  0  0  0  0  0  0  0  0
  5  6  2  0  0  0  0
  5  7  1  0  0  0  0
  2  3  1  0  0  0  0
  2  4  1  0  0  0  0
  2  5  1  0  0  0  0
  1  2  1  0  0  0  0
 16 17  2  0  0  0  0
 16 18  1  0  0  0  0
 14 15  1  0  0  0  0
 11 12  1  0  0  0  0
 11 13  1  0  0  0  0
 11 14  1  0  0  0  0
  9 10  1  0  0  0  0
  9 11  1  0  0  0  0
  9 16  1  0  0  0  0
  7  8  1  0  0  0  0
  7  9  1  0  0  0  0
 20 21  1  0  0  0  0
 20 22  1  0  0  0  0
 20 23  1  0  0  0  0
 18 19  1  0  0  0  0
 18 20  1  0  0  0  0
M  END
$$$$
default_name
  -OEChem-01062215323D

 23 22  0     1  0  0  0  0  0999 V2000
   -2.6857   -3.6684    0.8743 H   0  0  0  0  0  0  0  0  0  0  0  0
   -2.6617   -2.6474    0.4953 C   0  0  0  0  0  0  0  0  0  0  0  0
   -3.2657   -2.0054    1.1353 H   0  0  0  0  0  0  0  0  0  0  0  0
   -3.0477   -2.6254   -0.5217 H   0  0  0  0  0  0  0  0  0  0  0  0
   -1.2337   -2.1564    0.4993 C   0  0  0  0  0  0  0  0  0  0  0  0
   -0.3327   -2.8864    0.8893 O   0  0  0  0  0  0  0  0  0  0  0  0
   -1.0277   -0.9164    0.0623 N   0  0  0  0  0  0  0  0  0  0  0  0
   -1.8237   -0.3604   -0.2157 H   0  0  0  0  0  0  0  0  0  0  0  0
    0.2713   -0.2414    0.0463 C   0  0  1  0  0  0  0  0  0  0  0  0
    0.1387    0.7837    0.3977 H   0  0  0  0  0  0  0  0  0  0  0  0
    1.2126   -0.9707    1.0191 C   0  0  0  0  0  0  0  0  0  0  0  0
    1.2463   -2.0291    0.7509 H   0  0  0  0  0  0  0  0  0  0  0  0
    2.2183   -0.5544    0.9334 H   0  0  0  0  0  0  0  0  0  0  0  0
    0.6278   -0.8245    2.7331 S   0  0  0  0  0  0  0  0  0  0  0  0
    1.5441   -1.6260    3.2895 H   0  0  0  0  0  0  0  0  0  0  0  0
    0.8222   -0.1851   -1.3933 C   0  0  0  0  0  0  0  0  0  0  0  0
    1.5248   -1.1028   -1.8182 O   0  0  0  0  0  0  0  0  0  0  0  0
    0.5029    0.8769   -2.1421 N   0  0  0  0  0  0  0  0  0  0  0  0
   -0.0240    1.6151   -1.6983 H   0  0  0  0  0  0  0  0  0  0  0  0
    0.9384    1.0731   -3.5236 C   0  0  0  0  0  0  0  0  0  0  0  0
    0.7299    0.1742   -4.1082 H   0  0  0  0  0  0  0  0  0  0  0  0
    0.4140    1.9200   -3.9677 H   0  0  0  0  0  0  0  0  0  0  0  0
    2.0131    1.2618   -3.5459 H   0  0  0  0  0  0  0  0  0  0  0  0
  5  6  2  0  0  0  0
  5  7  1  0  0  0  0
  2  3  1  0  0  0  0
  2  4  1  0  0  0  0
  2  5  1  0  0  0  0
  1  2  1  0  0  0  0
 16 17  2  0  0  0  0
 16 18  1  0  0  0  0
 14 15  1  0  0  0  0
 11 12  1  0  0  0  0
 11 13  1  0  0  0  0
 11 14  1  0  0  0  0
  9 10  1  0  0  0  0
  9 11  1  0  0  0  0
  9 16  1  0  0  0  0
  7  8  1  0  0  0  0
  7  9  1  0  0  0  0
 20 21  1  0  0  0  0
 20 22  1  0  0  0  0
 20 23  1  0  0  0  0
 18 19  1  0  0  0  0
 18 20  1  0  0  0  0
M  END
$$$$
default_name
  -OEChem-01062215323D

 23 22  0     1  0  0  0  0  0999 V2000
   -2.6857   -3.6684    0.8743 H   0  0  0  0  0  0  0  0  0  0  0  0
   -2.6617   -2.6474    0.4953 C   0  0  0  0  0  0  0  0  0  0  0  0
   -3.2657   -2.0054    1.1353 H   0  0  0  0  0  0  0  0  0  0  0  0
   -3.0477   -2.6254   -0.5217 H   0  0  0  0  0  0  0  0  0  0  0  0
   -1.2337   -2.1564    0.4993 C   0  0  0  0  0  0  0  0  0  0  0  0
   -0.3327   -2.8864    0.8893 O   0  0  0  0  0  0  0  0  0  0  0  0
   -1.0277   -0.9164    0.0623 N   0  0  0  0  0  0  0  0  0  0  0  0
   -1.8237   -0.3604   -0.2157 H   0  0  0  0  0  0  0  0  0  0  0  0
    0.2713   -0.2414    0.0463 C   0  0  1  0  0  0  0  0  0  0  0  0
    0.1387    0.7837    0.3977 H   0  0  0  0  0  0  0  0  0  0  0  0
    1.2126   -0.9707    1.0191 C   0  0  0  0  0  0  0  0  0  0  0  0
    1.2463   -2.0291    0.7509 H   0  0  0  0  0  0  0  0  0  0  0  0
    2.2183   -0.5544    0.9334 H   0  0  0  0  0  0  0  0  0  0  0  0
    0.6278   -0.8245    2.7331 S   0  0  0  0  0  0  0  0  0  0  0  0
    1.5441   -1.6260    3.2895 H   0  0  0  0  0  0  0  0  0  0  0  0
    0.8222   -0.1851   -1.3933 C   0  0  0  0  0  0  0  0  0  0  0  0
    1.2826   -1.2012   -1.9147 O   0  0  0  0  0  0  0  0  0  0  0  0
    0.7708    0.9878   -2.0352 N   0  0  0  0  0  0  0  0  0  0  0  0
    0.4374    1.7864   -1.5150 H   0  0  0  0  0  0  0  0  0  0  0  0
    1.2435    1.2017   -3.4019 C   0  0  0  0  0  0  0  0  0  0  0  0
    0.8247    0.4384   -4.0616 H   0  0  0  0  0  0  0  0  0  0  0  0
    0.9404    2.1878   -3.7557 H   0  0  0  0  0  0  0  0  0  0  0  0
    2.3319    1.1269   -3.4292 H   0  0  0  0  0  0  0  0  0  0  0  0
  5  6  2  0  0  0  0
  5  7  1  0  0  0  0
  2  3  1  0  0  0  0
  2  4  1  0  0  0  0
  2  5  1  0  0  0  0
  1  2  1  0  0  0  0
 16 17  2  0  0  0  0
 16 18  1  0  0  0  0
 14 15  1  0  0  0  0
 11 12  1  0  0  0  0
 11 13  1  0  0  0  0
 11 14  1  0  0  0  0
  9 10  1  0  0  0  0
  9 11  1  0  0  0  0
  9 16  1  0  0  0  0
  7  8  1  0  0  0  0
  7  9  1  0  0  0  0
 20 21  1  0  0  0  0
 20 22  1  0  0  0  0
 20 23  1  0  0  0  0
 18 19  1  0  0  0  0
 18 20  1  0  0  0  0
M  END
$$$$
default_name
  -OEChem-01062215323D

 23 22  0     1  0  0  0  0  0999 V2000
   -2.6857   -3.6684    0.8743 H   0  0  0  0  0  0  0  0  0  0  0  0
   -2.6617   -2.6474    0.4953 C   0  0  0  0  0  0  0  0  0  0  0  0
   -3.2657   -2.0054    1.1353 H   0  0  0  0  0  0  0  0  0  0  0  0
   -3.0477   -2.6254   -0.5217 H   0  0  0  0  0  0  0  0  0  0  0  0
   -1.2337   -2.1564    0.4993 C   0  0  0  0  0  0  0  0  0  0  0  0
   -0.3327   -2.8864    0.8893 O   0  0  0  0  0  0  0  0  0  0  0  0
   -1.0277   -0.9164    0.0623 N   0  0  0  0  0  0  0  0  0  0  0  0
   -1.8237   -0.3604   -0.2157 H   0  0  0  0  0  0  0  0  0  0  0  0
    0.2713   -0.2414    0.0463 C   0  0  1  0  0  0  0  0  0  0  0  0
    0.1387    0.7837    0.3977 H   0  0  0  0  0  0  0  0  0  0  0  0
    1.2126   -0.9707    1.0191 C   0  0  0  0  0  0  0  0  0  0  0  0
    1.2463   -2.0291    0.7509 H   0  0  0  0  0  0  0  0  0  0  0  0
    2.2183   -0.5544    0.9334 H   0  0  0  0  0  0  0  0  0  0  0  0
    0.6278   -0.8245    2.7331 S   0  0  0  0  0  0  0  0  0  0  0  0
    1.5441   -1.6260    3.2895 H   0  0  0  0  0  0  0  0  0  0  0  0
    0.8222   -0.1851   -1.3933 C   0  0  0  0  0  0  0  0  0  0  0  0
    1.0240   -1.2288   -2.0148 O   0  0  0  0  0  0  0  0  0  0  0  0
    1.0574    1.0203   -1.9243 N   0  0  0  0  0  0  0  0  0  0  0  0
    0.9261    1.8235   -1.3265 H   0  0  0  0  0  0  0  0  0  0  0  0
    1.5704    1.2409   -3.2752 C   0  0  0  0  0  0  0  0  0  0  0  0
    0.9806    0.6663   -3.9930 H   0  0  0  0  0  0  0  0  0  0  0  0
    1.5157    2.2997   -3.5312 H   0  0  0  0  0  0  0  0  0  0  0  0
    2.6084    0.9088   -3.3319 H   0  0  0  0  0  0  0  0  0  0  0  0
  5  6  2  0  0  0  0
  5  7  1  0  0  0  0
  2  3  1  0  0  0  0
  2  4  1  0  0  0  0
  2  5  1  0  0  0  0
  1  2  1  0  0  0  0
 16 17  2  0  0  0  0
 16 18  1  0  0  0  0
 14 15  1  0  0  0  0
 11 12  1  0  0  0  0
 11 13  1  0  0  0  0
 11 14  1  0  0  0  0
  9 10  1  0  0  0  0
  9 11  1  0  0  0  0
  9 16  1  0  0  0  0
  7  8  1  0  0  0  0
  7  9  1  0  0  0  0
 20 21  1  0  0  0  0
 20 22  1  0  0  0  0
 20 23  1  0  0  0  0
 18 19  1  0  0  0  0
 18 20  1  0  0  0  0
M  END
$$$$
default_name
  -OEChem-01062215323D

 23 22  0     1  0  0  0  0  0999 V2000
   -2.6857   -3.6684    0.8743 H   0  0  0  0  0  0  0  0  0  0  0  0
   -2.6617   -2.6474    0.4953 C   0  0  0  0  0  0  0  0  0  0  0  0
   -3.2657   -2.0054    1.1353 H   0  0  0  0  0  0  0  0  0  0  0  0
   -3.0477   -2.6254   -0.5217 H   0  0  0  0  0  0  0  0  0  0  0  0
   -1.2337   -2.1564    0.4993 C   0  0  0  0  0  0  0  0  0  0  0  0
   -0.3327   -2.8864    0.8893 O   0  0  0  0  0  0  0  0  0  0  0  0
   -1.0277   -0.9164    0.0623 N   0  0  0  0  0  0  0  0  0  0  0  0
   -1.8237   -0.3604   -0.2157 H   0  0  0  0  0  0  0  0  0  0  0  0
    0.2713   -0.2414    0.0463 C   0  0  1  0  0  0  0  0  0  0  0  0
    0.1387    0.7837    0.3977 H   0  0  0  0  0  0  0  0  0  0  0  0
    1.2126   -0.9707    1.0191 C   0  0  0  0  0  0  0  0  0  0  0  0
    1.2463   -2.0291    0.7509 H   0  0  0  0  0  0  0  0  0  0  0  0
    2.2183   -0.5544    0.9334 H   0  0  0  0  0  0  0  0  0  0  0  0
    0.6278   -0.8245    2.7331 S   0  0  0  0  0  0  0  0  0  0  0  0
    1.5441   -1.6260    3.2895 H   0  0  0  0  0  0  0  0  0  0  0  0
    0.8222   -0.1851   -1.3933 C   0  0  0  0  0  0  0  0  0  0  0  0
    0.7666   -1.1838   -2.1115 O   0  0  0  0  0  0  0  0  0  0  0  0
    1.3432    0.9723   -1.8168 N   0  0  0  0  0  0  0  0  0  0  0  0
    1.4090    1.7238   -1.1456 H   0  0  0  0  0  0  0  0  0  0  0  0
    1.8968    1.1881   -3.1524 C   0  0  0  0  0  0  0  0  0  0  0  0
    1.1868    0.8424   -3.9072 H   0  0  0  0  0  0  0  0  0  0  0  0
    2.1004    2.2480   -3.3095 H   0  0  0  0  0  0  0  0  0  0  0  0
    2.8237    0.6223   -3.2608 H   0  0  0  0  0  0  0  0  0  0  0  0
  5  6  2  0  0  0  0
  5  7  1  0  0  0  0
  2  3  1  0  0  0  0
  2  4  1  0  0  0  0
  2  5  1  0  0  0  0
  1  2  1  0  0  0  0
 16 17  2  0  0  0  0
 16 18  1  0  0  0  0
 14 15  1  0  0  0  0
 11 12  1  0  0  0  0
 11 13  1  0  0  0  0
 11 14  1  0  0  0  0
  9 10  1  0  0  0  0
  9 11  1  0  0  0  0
  9 16  1  0  0  0  0
  7  8  1  0  0  0  0
  7  9  1  0  0  0  0
 20 21  1  0  0  0  0
 20 22  1  0  0  0  0
 20 23  1  0  0  0  0
 18 19  1  0  0  0  0
 18 20  1  0  0  0  0
M  END
$$$$
default_name
  -OEChem-01062215323D

 23 22  0     1  0  0  0  0  0999 V2000
   -2.6857   -3.6684    0.8743 H   0  0  0  0  0  0  0  0  0  0  0  0
   -2.6617   -2.6474    0.4953 C   0  0  0  0  0  0  0  0  0  0  0  0
   -3.2657   -2.0054    1.1353 H   0  0  0  0  0  0  0  0  0  0  0  0
   -3.0477   -2.6254   -0.5217 H   0  0  0  0  0  0  0  0  0  0  0  0
   -1.2337   -2.1564    0.4993 C   0  0  0  0  0  0  0  0  0  0  0  0
   -0.3327   -2.8864    0.8893 O   0  0  0  0  0  0  0  0  0  0  0  0
   -1.0277   -0.9164    0.0623 N   0  0  0  0  0  0  0  0  0  0  0  0
   -1.8237   -0.3604   -0.2157 H   0  0  0  0  0  0  0  0  0  0  0  0
    0.2713   -0.2414    0.0463 C   0  0  1  0  0  0  0  0  0  0  0  0
    0.1387    0.7837    0.3977 H   0  0  0  0  0  0  0  0  0  0  0  0
    1.2126   -0.9707    1.0191 C   0  0  0  0  0  0  0  0  0  0  0  0
    1.2463   -2.0291    0.7509 H   0  0  0  0  0  0  0  0  0  0  0  0
    2.2183   -0.5544    0.9334 H   0  0  0  0  0  0  0  0  0  0  0  0
    0.6278   -0.8245    2.7331 S   0  0  0  0  0  0  0  0  0  0  0  0
    1.5441   -1.6260    3.2895 H   0  0  0  0  0  0  0  0  0  0  0  0
    0.8222   -0.1851   -1.3933 C   0  0  0  0  0  0  0  0  0  0  0  0
    0.5279   -1.0692   -2.1984 O   0  0  0  0  0  0  0  0  0  0  0  0
    1.6086    0.8470   -1.7202 N   0  0  0  0  0  0  0  0  0  0  0  0
    1.8531    1.4942   -0.9847 H   0  0  0  0  0  0  0  0  0  0  0  0
    2.2005    1.0470   -3.0417 C   0  0  0  0  0  0  0  0  0  0  0  0
    1.4294    0.9548   -3.8099 H   0  0  0  0  0  0  0  0  0  0  0  0
    2.6549    2.0364   -3.1056 H   0  0  0  0  0  0  0  0  0  0  0  0
    2.9631    0.2870   -3.2206 H   0  0  0  0  0  0  0  0  0  0  0  0
  5  6  2  0  0  0  0
  5  7  1  0  0  0  0
  2  3  1  0  0  0  0
  2  4  1  0  0  0  0
  2  5  1  0  0  0  0
  1  2  1  0  0  0  0
 16 17  2  0  0  0  0
 16 18  1  0  0  0  0
 14 15  1  0  0  0  0
 11 12  1  0  0  0  0
 11 13  1  0  0  0  0
 11 14  1  0  0  0  0
  9 10  1  0  0  0  0
  9 11  1  0  0  0  0
  9 16  1  0  0  0  0
  7  8  1  0  0  0  0
  7  9  1  0  0  0  0
 20 21  1  0  0  0  0
 20 22  1  0  0  0  0
 20 23  1  0  0  0  0
 18 19  1  0  0  0  0
 18 20  1  0  0  0  0
M  END
$$$$
default_name
  -OEChem-01062215323D

 23 22  0     1  0  0  0  0  0999 V2000
   -2.6857   -3.6684    0.8743 H   0  0  0  0  0  0  0  0  0  0  0  0
   -2.6617   -2.6474    0.4953 C   0  0  0  0  0  0  0  0  0  0  0  0
   -3.2657   -2.0054    1.1353 H   0  0  0  0  0  0  0  0  0  0  0  0
   -3.0477   -2.6254   -0.5217 H   0  0  0  0  0  0  0  0  0  0  0  0
   -1.2337   -2.1564    0.4993 C   0  0  0  0  0  0  0  0  0  0  0  0
   -0.3327   -2.8864    0.8893 O   0  0  0  0  0  0  0  0  0  0  0  0
   -1.0277   -0.9164    0.0623 N   0  0  0  0  0  0  0  0  0  0  0  0
   -1.8237   -0.3604   -0.2157 H   0  0  0  0  0  0  0  0  0  0  0  0
    0.2713   -0.2414    0.0463 C   0  0  1  0  0  0  0  0  0  0  0  0
    0.1387    0.7837    0.3977 H   0  0  0  0  0  0  0  0  0  0  0  0
    1.2126   -0.9707    1.0191 C   0  0  0  0  0  0  0  0  0  0  0  0
    1.2463   -2.0291    0.7509 H   0  0  0  0  0  0  0  0  0  0  0  0
    2.2183   -0.5544    0.9334 H   0  0  0  0  0  0  0  0  0  0  0  0
    0.6278   -0.8245    2.7331 S   0  0  0  0  0  0  0  0  0  0  0  0
    1.5441   -1.6260    3.2895 H   0  0  0  0  0  0  0  0  0  0  0  0
    0.8222   -0.1851   -1.3933 C   0  0  0  0  0  0  0  0  0  0  0  0
    0.3242   -0.8928   -2.2694 O   0  0  0  0  0  0  0  0  0  0  0  0
    1.8356    0.6528   -1.6409 N   0  0  0  0  0  0  0  0  0  0  0  0
    2.2280    1.1502   -0.8547 H   0  0  0  0  0  0  0  0  0  0  0  0
    2.4608    0.8270   -2.9507 C   0  0  0  0  0  0  0  0  0  0  0  0
    1.6918    0.9958   -3.7079 H   0  0  0  0  0  0  0  0  0  0  0  0
    3.1413    1.6791   -2.9335 H   0  0  0  0  0  0  0  0  0  0  0  0
    3.0172   -0.0742   -3.2140 H   0  0  0  0  0  0  0  0  0  0  0  0
  5  6  2  0  0  0  0
  5  7  1  0  0  0  0
  2  3  1  0  0  0  0
  2  4  1  0  0  0  0
  2  5  1  0  0  0  0
  1  2  1  0  0  0  0
 16 17  2  0  0  0  0
 16 18  1  0  0  0  0
 14 15  1  0  0  0  0
 11 12  1  0  0  0  0
 11 13  1  0  0  0  0
 11 14  1  0  0  0  0
  9 10  1  0  0  0  0
  9 11  1  0  0  0  0
  9 16  1  0  0  0  0
  7  8  1  0  0  0  0
  7  9  1  0  0  0  0
 20 21  1  0  0  0  0
 20 22  1  0  0  0  0
 20 23  1  0  0  0  0
 18 19  1  0  0  0  0
 18 20  1  0  0  0  0
M  END
$$$$
default_name
  -OEChem-01062215323D

 23 22  0     1  0  0  0  0  0999 V2000
   -2.6857   -3.6684    0.8743 H   0  0  0  0  0  0  0  0  0  0  0  0
   -2.6617   -2.6474    0.4953 C   0  0  0  0  0  0  0  0  0  0  0  0
   -3.2657   -2.0054    1.1353 H   0  0  0  0  0  0  0  0  0  0  0  0
   -3.0477   -2.6254   -0.5217 H   0  0  0  0  0  0  0  0  0  0  0  0
   -1.2337   -2.1564    0.4993 C   0  0  0  0  0  0  0  0  0  0  0  0
   -0.3327   -2.8864    0.8893 O   0  0  0  0  0  0  0  0  0  0  0  0
   -1.0277   -0.9164    0.0623 N   0  0  0  0  0  0  0  0  0  0  0  0
   -1.8237   -0.3604   -0.2157 H   0  0  0  0  0  0  0  0  0  0  0  0
    0.2713   -0.2414    0.0463 C   0  0  1  0  0  0  0  0  0  0  0  0
    0.1987    0.6740    0.6369 H   0  0  0  0  0  0  0  0  0  0  0  0
    1.3093   -1.1643    0.7060 C   0  0  0  0  0  0  0  0  0  0  0  0
    1.2931   -2.1322    0.2000 H   0  0  0  0  0  0  0  0  0  0  0  0
    2.3045   -0.7283    0.5984 H   0  0  0  0  0  0  0  0  0  0  0  0
    0.9352   -1.4224    2.4651 S   0  0  0  0  0  0  0  0  0  0  0  0
    1.8976   -2.3201    2.7089 H   0  0  0  0  0  0  0  0  0  0  0  0
    0.6478    0.1504   -1.3972 C   0  0  0  0  0  0  0  0  0  0  0  0
   -0.1186   -0.1125   -2.3245 O   0  0  0  0  0  0  0  0  0  0  0  0
    1.8128    0.7799   -1.5889 N   0  0  0  0  0  0  0  0  0  0  0  0
    2.4117    0.9009   -0.7850 H   0  0  0  0  0  0  0  0  0  0  0  0
    2.3069    1.2225   -2.8915 C   0  0  0  0  0  0  0  0  0  0  0  0
    1.5293    1.7889   -3.4089 H   0  0  0  0  0  0  0  0  0  0  0  0
    3.1877    1.8534   -2.7663 H   0  0  0  0  0  0  0  0  0  0  0  0
    2.5680    0.3542   -3.4988 H   0  0  0  0  0  0  0  0  0  0  0  0
  5  6  2  0  0  0  0
  5  7  1  0  0  0  0
  2  3  1  0  0  0  0
  2  4  1  0  0  0  0
  2  5  1  0  0  0  0
  1  2  1  0  0  0  0
 16 17  2  0  0  0  0
 16 18  1  0  0  0  0
 14 15  1  0  0  0  0
 11 12  1  0  0  0  0
 11 13  1  0  0  0  0
 11 14  1  0  0  0  0
  9 10  1  0  0  0  0
  9 11  1  0  0  0  0
  9 16  1  0  0  0  0
  7  8  1  0  0  0  0
  7  9  1  0  0  0  0
 20 21  1  0  0  0  0
 20 22  1  0  0  0  0
 20 23  1  0  0  0  0
 18 19  1  0  0  0  0
 18 20  1  0  0  0  0
M  END
$$$$
default_name
  -OEChem-01062215323D

 23 22  0     1  0  0  0  0  0999 V2000
   -2.6857   -3.6684    0.8743 H   0  0  0  0  0  0  0  0  0  0  0  0
   -2.6617   -2.6474    0.4953 C   0  0  0  0  0  0  0  0  0  0  0  0
   -3.2657   -2.0054    1.1353 H   0  0  0  0  0  0  0  0  0  0  0  0
   -3.0477   -2.6254   -0.5217 H   0  0  0  0  0  0  0  0  0  0  0  0
   -1.2337   -2.1564    0.4993 C   0  0  0  0  0  0  0  0  0  0  0  0
   -0.3327   -2.8864    0.8893 O   0  0  0  0  0  0  0  0  0  0  0  0
   -1.0277   -0.9164    0.0623 N   0  0  0  0  0  0  0  0  0  0  0  0
   -1.8237   -0.3604   -0.2157 H   0  0  0  0  0  0  0  0  0  0  0  0
    0.2713   -0.2414    0.0463 C   0  0  1  0  0  0  0  0  0  0  0  0
    0.1987    0.6740    0.6369 H   0  0  0  0  0  0  0  0  0  0  0  0
    1.3093   -1.1643    0.7060 C   0  0  0  0  0  0  0  0  0  0  0  0
    1.2931   -2.1322    0.2000 H   0  0  0  0  0  0  0  0  0  0  0  0
    2.3045   -0.7283    0.5984 H   0  0  0  0  0  0  0  0  0  0  0  0
    0.9352   -1.4224    2.4651 S   0  0  0  0  0  0  0  0  0  0  0  0
    1.8976   -2.3201    2.7089 H   0  0  0  0  0  0  0  0  0  0  0  0
    0.6478    0.1504   -1.3972 C   0  0  0  0  0  0  0  0  0  0  0  0
   -0.2120    0.1460   -2.2787 O   0  0  0  0  0  0  0  0  0  0  0  0
    1.9182    0.4938   -1.6391 N   0  0  0  0  0  0  0  0  0  0  0  0
    2.5741    0.4098   -0.8759 H   0  0  0  0  0  0  0  0  0  0  0  0
    2.4291    0.8965   -2.9481 C   0  0  0  0  0  0  0  0  0  0  0  0
    1.7847    1.6684   -3.3750 H   0  0  0  0  0  0  0  0  0  0  0  0
    3.4431    1.2869   -2.8535 H   0  0  0  0  0  0  0  0  0  0  0  0
    2.4345    0.0364   -3.6199 H   0  0  0  0  0  0  0  0  0  0  0  0
  5  6  2  0  0  0  0
  5  7  1  0  0  0  0
  2  3  1  0  0  0  0
  2  4  1  0  0  0  0
  2  5  1  0  0  0  0
  1  2  1  0  0  0  0
 16 17  2  0  0  0  0
 16 18  1  0  0  0  0
 14 15  1  0  0  0  0
 11 12  1  0  0  0  0
 11 13  1  0  0  0  0
 11 14  1  0  0  0  0
  9 10  1  0  0  0  0
  9 11  1  0  0  0  0
  9 16  1  0  0  0  0
  7  8  1  0  0  0  0
  7  9  1  0  0  0  0
 20 21  1  0  0  0  0
 20 22  1  0  0  0  0
 20 23  1  0  0  0  0
 18 19  1  0  0  0  0
 18 20  1  0  0  0  0
M  END
$$$$
default_name
  -OEChem-01062215323D

 23 22  0     1  0  0  0  0  0999 V2000
   -2.6857   -3.6684    0.8743 H   0  0  0  0  0  0  0  0  0  0  0  0
   -2.6617   -2.6474    0.4953 C   0  0  0  0  0  0  0  0  0  0  0  0
   -3.2657   -2.0054    1.1353 H   0  0  0  0  0  0  0  0  0  0  0  0
   -3.0477   -2.6254   -0.5217 H   0  0  0  0  0  0  0  0  0  0  0  0
   -1.2337   -2.1564    0.4993 C   0  0  0  0  0  0  0  0  0  0  0  0
   -0.3327   -2.8864    0.8893 O   0  0  0  0  0  0  0  0  0  0  0  0
   -1.0277   -0.9164    0.0623 N   0  0  0  0  0  0  0  0  0  0  0  0
   -1.8237   -0.3604   -0.2157 H   0  0  0  0  0  0  0  0  0  0  0  0
    0.2713   -0.2414    0.0463 C   0  0  1  0  0  0  0  0  0  0  0  0
    0.1987    0.6740    0.6369 H   0  0  0  0  0  0  0  0  0  0  0  0
    1.3093   -1.1643    0.7060 C   0  0  0  0  0  0  0  0  0  0  0  0
    1.2931   -2.1322    0.2000 H   0  0  0  0  0  0  0  0  0  0  0  0
    2.3045   -0.7283    0.5984 H   0  0  0  0  0  0  0  0  0  0  0  0
    0.9352   -1.4224    2.4651 S   0  0  0  0  0  0  0  0  0  0  0  0
    1.8976   -2.3201    2.7089 H   0  0  0  0  0  0  0  0  0  0  0  0
    0.6478    0.1504   -1.3972 C   0  0  0  0  0  0  0  0  0  0  0  0
   -0.2366    0.4154   -2.2120 O   0  0  0  0  0  0  0  0  0  0  0  0
    1.9474    0.1951   -1.7125 N   0  0  0  0  0  0  0  0  0  0  0  0
    2.6060   -0.0981   -1.0055 H   0  0  0  0  0  0  0  0  0  0  0  0
    2.4644    0.5555   -3.0315 C   0  0  0  0  0  0  0  0  0  0  0  0
    2.0046    1.4880   -3.3666 H   0  0  0  0  0  0  0  0  0  0  0  0
    3.5468    0.6833   -2.9903 H   0  0  0  0  0  0  0  0  0  0  0  0
    2.2205   -0.2305   -3.7481 H   0  0  0  0  0  0  0  0  0  0  0  0
  5  6  2  0  0  0  0
  5  7  1  0  0  0  0
  2  3  1  0  0  0  0
  2  4  1  0  0  0  0
  2  5  1  0  0  0  0
  1  2  1  0  0  0  0
 16 17  2  0  0  0  0
 16 18  1  0  0  0  0
 14 15  1  0  0  0  0
 11 12  1  0  0  0  0
 11 13  1  0  0  0  0
 11 14  1  0  0  0  0
  9 10  1  0  0  0  0
  9 11  1  0  0  0  0
  9 16  1  0  0  0  0
  7  8  1  0  0  0  0
  7  9  1  0  0  0  0
 20 21  1  0  0  0  0
 20 22  1  0  0  0  0
 20 23  1  0  0  0  0
 18 19  1  0  0  0  0
 18 20  1  0  0  0  0
M  END
$$$$
default_name
  -OEChem-01062215323D

 23 22  0     1  0  0  0  0  0999 V2000
   -2.6857   -3.6684    0.8743 H   0  0  0  0  0  0  0  0  0  0  0  0
   -2.6617   -2.6474    0.4953 C   0  0  0  0  0  0  0  0  0  0  0  0
   -3.2657   -2.0054    1.1353 H   0  0  0  0  0  0  0  0  0  0  0  0
   -3.0477   -2.6254   -0.5217 H   0  0  0  0  0  0  0  0  0  0  0  0
   -1.2337   -2.1564    0.4993 C   0  0  0  0  0  0  0  0  0  0  0  0
   -0.3327   -2.8864    0.8893 O   0  0  0  0  0  0  0  0  0  0  0  0
   -1.0277   -0.9164    0.0623 N   0  0  0  0  0  0  0  0  0  0  0  0
   -1.8237   -0.3604   -0.2157 H   0  0  0  0  0  0  0  0  0  0  0  0
    0.2713   -0.2414    0.0463 C   0  0  1  0  0  0  0  0  0  0  0  0
    0.1987    0.6740    0.6369 H   0  0  0  0  0  0  0  0  0  0  0  0
    1.3093   -1.1643    0.7060 C   0  0  0  0  0  0  0  0  0  0  0  0
    1.2931   -2.1322    0.2000 H   0  0  0  0  0  0  0  0  0  0  0  0
    2.3045   -0.7283    0.5984 H   0  0  0  0  0  0  0  0  0  0  0  0
    0.9352   -1.4224    2.4651 S   0  0  0  0  0  0  0  0  0  0  0  0
    1.8976   -2.3201    2.7089 H   0  0  0  0  0  0  0  0  0  0  0  0
    0.6478    0.1504   -1.3972 C   0  0  0  0  0  0  0  0  0  0  0  0
   -0.1908    0.6774   -2.1289 O   0  0  0  0  0  0  0  0  0  0  0  0
    1.8984   -0.0959   -1.8043 N   0  0  0  0  0  0  0  0  0  0  0  0
    2.5052   -0.5883   -1.1648 H   0  0  0  0  0  0  0  0  0  0  0  0
    2.4105    0.2229   -3.1358 C   0  0  0  0  0  0  0  0  0  0  0  0
    2.1738    1.2600   -3.3844 H   0  0  0  0  0  0  0  0  0  0  0  0
    3.4917    0.0838   -3.1674 H   0  0  0  0  0  0  0  0  0  0  0  0
    1.9408   -0.4284   -3.8748 H   0  0  0  0  0  0  0  0  0  0  0  0
  5  6  2  0  0  0  0
  5  7  1  0  0  0  0
  2  3  1  0  0  0  0
  2  4  1  0  0  0  0
  2  5  1  0  0  0  0
  1  2  1  0  0  0  0
 16 17  2  0  0  0  0
 16 18  1  0  0  0  0
 14 15  1  0  0  0  0
 11 12  1  0  0  0  0
 11 13  1  0  0  0  0
 11 14  1  0  0  0  0
  9 10  1  0  0  0  0
  9 11  1  0  0  0  0
  9 16  1  0  0  0  0
  7  8  1  0  0  0  0
  7  9  1  0  0  0  0
 20 21  1  0  0  0  0
 20 22  1  0  0  0  0
 20 23  1  0  0  0  0
 18 19  1  0  0  0  0
 18 20  1  0  0  0  0
M  END
$$$$
default_name
  -OEChem-01062215323D

 23 22  0     1  0  0  0  0  0999 V2000
   -2.6857   -3.6684    0.8743 H   0  0  0  0  0  0  0  0  0  0  0  0
   -2.6617   -2.6474    0.4953 C   0  0  0  0  0  0  0  0  0  0  0  0
   -3.2657   -2.0054    1.1353 H   0  0  0  0  0  0  0  0  0  0  0  0
   -3.0477   -2.6254   -0.5217 H   0  0  0  0  0  0  0  0  0  0  0  0
   -1.2337   -2.1564    0.4993 C   0  0  0  0  0  0  0  0  0  0  0  0
   -0.3327   -2.8864    0.8893 O   0  0  0  0  0  0  0  0  0  0  0  0
   -1.0277   -0.9164    0.0623 N   0  0  0  0  0  0  0  0  0  0  0  0
   -1.8237   -0.3604   -0.2157 H   0  0  0  0  0  0  0  0  0  0  0  0
    0.2713   -0.2414    0.0463 C   0  0  1  0  0  0  0  0  0  0  0  0
    0.1987    0.6740    0.6369 H   0  0  0  0  0  0  0  0  0  0  0  0
    1.3093   -1.1643    0.7060 C   0  0  0  0  0  0  0  0  0  0  0  0
    1.2931   -2.1322    0.2000 H   0  0  0  0  0  0  0  0  0  0  0  0
    2.3045   -0.7283    0.5984 H   0  0  0  0  0  0  0  0  0  0  0  0
    0.9352   -1.4224    2.4651 S   0  0  0  0  0  0  0  0  0  0  0  0
    1.8976   -2.3201    2.7089 H   0  0  0  0  0  0  0  0  0  0  0  0
    0.6478    0.1504   -1.3972 C   0  0  0  0  0  0  0  0  0  0  0  0
   -0.0776    0.9141   -2.0351 O   0  0  0  0  0  0  0  0  0  0  0  0
    1.7745   -0.3593   -1.9081 N   0  0  0  0  0  0  0  0  0  0  0  0
    2.2787   -1.0273   -1.3431 H   0  0  0  0  0  0  0  0  0  0  0  0
    2.2709   -0.0787   -3.2541 C   0  0  0  0  0  0  0  0  0  0  0  0
    2.2808    0.9998   -3.4271 H   0  0  0  0  0  0  0  0  0  0  0  0
    3.2817   -0.4708   -3.3727 H   0  0  0  0  0  0  0  0  0  0  0  0
    1.6143   -0.5438   -3.9913 H   0  0  0  0  0  0  0  0  0  0  0  0
  5  6  2  0  0  0  0
  5  7  1  0  0  0  0
  2  3  1  0  0  0  0
  2  4  1  0  0  0  0
  2  5  1  0  0  0  0
  1  2  1  0  0  0  0
 16 17  2  0  0  0  0
 16 18  1  0  0  0  0
 14 15  1  0  0  0  0
 11 12  1  0  0  0  0
 11 13  1  0  0  0  0
 11 14  1  0  0  0  0
  9 10  1  0  0  0  0
  9 11  1  0  0  0  0
  9 16  1  0  0  0  0
  7  8  1  0  0  0  0
  7  9  1  0  0  0  0
 20 21  1  0  0  0  0
 20 22  1  0  0  0  0
 20 23  1  0  0  0  0
 18 19  1  0  0  0  0
 18 20  1  0  0  0  0
M  END
$$$$
default_name
  -OEChem-01062215323D

 23 22  0     1  0  0  0  0  0999 V2000
   -2.6857   -3.6684    0.8743 H   0  0  0  0  0  0  0  0  0  0  0  0
   -2.6617   -2.6474    0.4953 C   0  0  0  0  0  0  0  0  0  0  0  0
   -3.2657   -2.0054    1.1353 H   0  0  0  0  0  0  0  0  0  0  0  0
   -3.0477   -2.6254   -0.5217 H   0  0  0  0  0  0  0  0  0  0  0  0
   -1.2337   -2.1564    0.4993 C   0  0  0  0  0  0  0  0  0  0  0  0
   -0.3327   -2.8864    0.8893 O   0  0  0  0  0  0  0  0  0  0  0  0
   -1.0277   -0.9164    0.0623 N   0  0  0  0  0  0  0  0  0  0  0  0
   -1.8237   -0.3604   -0.2157 H   0  0  0  0  0  0  0  0  0  0  0  0
    0.2713   -0.2414    0.0463 C   0  0  1  0  0  0  0  0  0  0  0  0
    0.1987    0.6740    0.6369 H   0  0  0  0  0  0  0  0  0  0  0  0
    1.3093   -1.1643    0.7060 C   0  0  0  0  0  0  0  0  0  0  0  0
    1.2931   -2.1322    0.2000 H   0  0  0  0  0  0  0  0  0  0  0  0
    2.3045   -0.7283    0.5984 H   0  0  0  0  0  0  0  0  0  0  0  0
    0.9352   -1.4224    2.4651 S   0  0  0  0  0  0  0  0  0  0  0  0
    1.8976   -2.3201    2.7089 H   0  0  0  0  0  0  0  0  0  0  0  0
    0.6478    0.1504   -1.3972 C   0  0  0  0  0  0  0  0  0  0  0  0
    0.0953    1.1094   -1.9370 O   0  0  0  0  0  0  0  0  0  0  0  0
    1.5843   -0.5772   -2.0169 N   0  0  0  0  0  0  0  0  0  0  0  0
    1.9418   -1.3852   -1.5281 H   0  0  0  0  0  0  0  0  0  0  0  0
    2.0553   -0.3288   -3.3782 C   0  0  0  0  0  0  0  0  0  0  0  0
    2.3183    0.7253   -3.4918 H   0  0  0  0  0  0  0  0  0  0  0  0
    2.9310   -0.9426   -3.5922 H   0  0  0  0  0  0  0  0  0  0  0  0
    1.2633   -0.5689   -4.0896 H   0  0  0  0  0  0  0  0  0  0  0  0
  5  6  2  0  0  0  0
  5  7  1  0  0  0  0
  2  3  1  0  0  0  0
  2  4  1  0  0  0  0
  2  5  1  0  0  0  0
  1  2  1  0  0  0  0
 16 17  2  0  0  0  0
 16 18  1  0  0  0  0
 14 15  1  0  0  0  0
 11 12  1  0  0  0  0
 11 13  1  0  0  0  0
 11 14  1  0  0  0  0
  9 10  1  0  0  0  0
  9 11  1  0  0  0  0
  9 16  1  0  0  0  0
  7  8  1  0  0  0  0
  7  9  1  0  0  0  0
 20 21  1  0  0  0  0
 20 22  1  0  0  0  0
 20 23  1  0  0  0  0
 18 19  1  0  0  0  0
 18 20  1  0  0  0  0
M  END
$$$$
default_name
  -OEChem-01062215323D

 23 22  0     1  0  0  0  0  0999 V2000
   -2.6857   -3.6684    0.8743 H   0  0  0  0  0  0  0  0  0  0  0  0
   -2.6617   -2.6474    0.4953 C   0  0  0  0  0  0  0  0  0  0  0  0
   -3.2657   -2.0054    1.1353 H   0  0  0  0  0  0  0  0  0  0  0  0
   -3.0477   -2.6254   -0.5217 H   0  0  0  0  0  0  0  0  0  0  0  0
   -1.2337   -2.1564    0.4993 C   0  0  0  0  0  0  0  0  0  0  0  0
   -0.3327   -2.8864    0.8893 O   0  0  0  0  0  0  0  0  0  0  0  0
   -1.0277   -0.9164    0.0623 N   0  0  0  0  0  0  0  0  0  0  0  0
   -1.8237   -0.3604   -0.2157 H   0  0  0  0  0  0  0  0  0  0  0  0
    0.2713   -0.2414    0.0463 C   0  0  1  0  0  0  0  0  0  0  0  0
    0.1987    0.6740    0.6369 H   0  0  0  0  0  0  0  0  0  0  0  0
    1.3093   -1.1643    0.7060 C   0  0  0  0  0  0  0  0  0  0  0  0
    1.2931   -2.1322    0.2000 H   0  0  0  0  0  0  0  0  0  0  0  0
    2.3045   -0.7283    0.5984 H   0  0  0  0  0  0  0  0  0  0  0  0
    0.9352   -1.4224    2.4651 S   0  0  0  0  0  0  0  0  0  0  0  0
    1.8976   -2.3201    2.7089 H   0  0  0  0  0  0  0  0  0  0  0  0
    0.6478    0.1504   -1.3972 C   0  0  0  0  0  0  0  0  0  0  0  0
    0.3161    1.2500   -1.8413 O   0  0  0  0  0  0  0  0  0  0  0  0
    1.3406   -0.7347   -2.1232 N   0  0  0  0  0  0  0  0  0  0  0  0
    1.5176   -1.6376   -1.7072 H   0  0  0  0  0  0  0  0  0  0  0  0
    1.7783   -0.5102   -3.4997 C   0  0  0  0  0  0  0  0  0  0  0  0
    2.2839    0.4552   -3.5741 H   0  0  0  0  0  0  0  0  0  0  0  0
    2.4636   -1.2995   -3.8110 H   0  0  0  0  0  0  0  0  0  0  0  0
    0.9118   -0.5018   -4.1631 H   0  0  0  0  0  0  0  0  0  0  0  0
  5  6  2  0  0  0  0
  5  7  1  0  0  0  0
  2  3  1  0  0  0  0
  2  4  1  0  0  0  0
  2  5  1  0  0  0  0
  1  2  1  0  0  0  0
 16 17  2  0  0  0  0
 16 18  1  0  0  0  0
 14 15  1  0  0  0  0
 11 12  1  0  0  0  0
 11 13  1  0  0  0  0
 11 14  1  0  0  0  0
  9 10  1  0  0  0  0
  9 11  1  0  0  0  0
  9 16  1  0  0  0  0
  7  8  1  0  0  0  0
  7  9  1  0  0  0  0
 20 21  1  0  0  0  0
 20 22  1  0  0  0  0
 20 23  1  0  0  0  0
 18 19  1  0  0  0  0
 18 20  1  0  0  0  0
M  END
$$$$
default_name
  -OEChem-01062215323D

 23 22  0     1  0  0  0  0  0999 V2000
   -2.6857   -3.6684    0.8743 H   0  0  0  0  0  0  0  0  0  0  0  0
   -2.6617   -2.6474    0.4953 C   0  0  0  0  0  0  0  0  0  0  0  0
   -3.2657   -2.0054    1.1353 H   0  0  0  0  0  0  0  0  0  0  0  0
   -3.0477   -2.6254   -0.5217 H   0  0  0  0  0  0  0  0  0  0  0  0
   -1.2337   -2.1564    0.4993 C   0  0  0  0  0  0  0  0  0  0  0  0
   -0.3327   -2.8864    0.8893 O   0  0  0  0  0  0  0  0  0  0  0  0
   -1.0277   -0.9164    0.0623 N   0  0  0  0  0  0  0  0  0  0  0  0
   -1.8237   -0.3604   -0.2157 H   0  0  0  0  0  0  0  0  0  0  0  0
    0.2713   -0.2414    0.0463 C   0  0  1  0  0  0  0  0  0  0  0  0
    0.1987    0.6740    0.6369 H   0  0  0  0  0  0  0  0  0  0  0  0
    1.3093   -1.1643    0.7060 C   0  0  0  0  0  0  0  0  0  0  0  0
    1.2931   -2.1322    0.2000 H   0  0  0  0  0  0  0  0  0  0  0  0
    2.3045   -0.7283    0.5984 H   0  0  0  0  0  0  0  0  0  0  0  0
    0.9352   -1.4224    2.4651 S   0  0  0  0  0  0  0  0  0  0  0  0
    1.8976   -2.3201    2.7089 H   0  0  0  0  0  0  0  0  0  0  0  0
    0.6478    0.1504   -1.3972 C   0  0  0  0  0  0  0  0  0  0  0  0
    0.5696    1.3263   -1.7545 O   0  0  0  0  0  0  0  0  0  0  0  0
    1.0600   -0.8211   -2.2198 N   0  0  0  0  0  0  0  0  0  0  0  0
    1.0349   -1.7673   -1.8684 H   0  0  0  0  0  0  0  0  0  0  0  0
    1.4588   -0.6108   -3.6103 C   0  0  0  0  0  0  0  0  0  0  0  0
    2.1798    0.2078   -3.6684 H   0  0  0  0  0  0  0  0  0  0  0  0
    1.9112   -1.5172   -4.0142 H   0  0  0  0  0  0  0  0  0  0  0  0
    0.5836   -0.3473   -4.2068 H   0  0  0  0  0  0  0  0  0  0  0  0
  5  6  2  0  0  0  0
  5  7  1  0  0  0  0
  2  3  1  0  0  0  0
  2  4  1  0  0  0  0
  2  5  1  0  0  0  0
  1  2  1  0  0  0  0
 16 17  2  0  0  0  0
 16 18  1  0  0  0  0
 14 15  1  0  0  0  0
 11 12  1  0  0  0  0
 11 13  1  0  0  0  0
 11 14  1  0  0  0  0
  9 10  1  0  0  0  0
  9 11  1  0  0  0  0
  9 16  1  0  0  0  0
  7  8  1  0  0  0  0
  7  9  1  0  0  0  0
 20 21  1  0  0  0  0
 20 22  1  0  0  0  0
 20 23  1  0  0  0  0
 18 19  1  0  0  0  0
 18 20  1  0  0  0  0
M  END
$$$$
default_name
  -OEChem-01062215323D

 23 22  0     1  0  0  0  0  0999 V2000
   -2.6857   -3.6684    0.8743 H   0  0  0  0  0  0  0  0  0  0  0  0
   -2.6617   -2.6474    0.4953 C   0  0  0  0  0  0  0  0  0  0  0  0
   -3.2657   -2.0054    1.1353 H   0  0  0  0  0  0  0  0  0  0  0  0
   -3.0477   -2.6254   -0.5217 H   0  0  0  0  0  0  0  0  0  0  0  0
   -1.2337   -2.1564    0.4993 C   0  0  0  0  0  0  0  0  0  0  0  0
   -0.3327   -2.8864    0.8893 O   0  0  0  0  0  0  0  0  0  0  0  0
   -1.0277   -0.9164    0.0623 N   0  0  0  0  0  0  0  0  0  0  0  0
   -1.8237   -0.3604   -0.2157 H   0  0  0  0  0  0  0  0  0  0  0  0
    0.2713   -0.2414    0.0463 C   0  0  1  0  0  0  0  0  0  0  0  0
    0.1987    0.6740    0.6369 H   0  0  0  0  0  0  0  0  0  0  0  0
    1.3093   -1.1643    0.7060 C   0  0  0  0  0  0  0  0  0  0  0  0
    1.2931   -2.1322    0.2000 H   0  0  0  0  0  0  0  0  0  0  0  0
    2.3045   -0.7283    0.5984 H   0  0  0  0  0  0  0  0  0  0  0  0
    0.9352   -1.4224    2.4651 S   0  0  0  0  0  0  0  0  0  0  0  0
    1.8976   -2.3201    2.7089 H   0  0  0  0  0  0  0  0  0  0  0  0
    0.6478    0.1504   -1.3972 C   0  0  0  0  0  0  0  0  0  0  0  0
    0.8387    1.3330   -1.6824 O   0  0  0  0  0  0  0  0  0  0  0  0
    0.7618   -0.8304   -2.3001 N   0  0  0  0  0  0  0  0  0  0  0  0
    0.5266   -1.7656   -2.0004 H   0  0  0  0  0  0  0  0  0  0  0  0
    1.1185   -0.6235   -3.7025 C   0  0  0  0  0  0  0  0  0  0  0  0
    2.0130    0.0000   -3.7683 H   0  0  0  0  0  0  0  0  0  0  0  0
    1.3115   -1.5809   -4.1878 H   0  0  0  0  0  0  0  0  0  0  0  0
    0.3012   -0.1157   -4.2176 H   0  0  0  0  0  0  0  0  0  0  0  0
  5  6  2  0  0  0  0
  5  7  1  0  0  0  0
  2  3  1  0  0  0  0
  2  4  1  0  0  0  0
  2  5  1  0  0  0  0
  1  2  1  0  0  0  0
 16 17  2  0  0  0  0
 16 18  1  0  0  0  0
 14 15  1  0  0  0  0
 11 12  1  0  0  0  0
 11 13  1  0  0  0  0
 11 14  1  0  0  0  0
  9 10  1  0  0  0  0
  9 11  1  0  0  0  0
  9 16  1  0  0  0  0
  7  8  1  0  0  0  0
  7  9  1  0  0  0  0
 20 21  1  0  0  0  0
 20 22  1  0  0  0  0
 20 23  1  0  0  0  0
 18 19  1  0  0  0  0
 18 20  1  0  0  0  0
M  END
$$$$
default_name
  -OEChem-01062215323D

 23 22  0     1  0  0  0  0  0999 V2000
   -2.6857   -3.6684    0.8743 H   0  0  0  0  0  0  0  0  0  0  0  0
   -2.6617   -2.6474    0.4953 C   0  0  0  0  0  0  0  0  0  0  0  0
   -3.2657   -2.0054    1.1353 H   0  0  0  0  0  0  0  0  0  0  0  0
   -3.0477   -2.6254   -0.5217 H   0  0  0  0  0  0  0  0  0  0  0  0
   -1.2337   -2.1564    0.4993 C   0  0  0  0  0  0  0  0  0  0  0  0
   -0.3327   -2.8864    0.8893 O   0  0  0  0  0  0  0  0  0  0  0  0
   -1.0277   -0.9164    0.0623 N   0  0  0  0  0  0  0  0  0  0  0  0
   -1.8237   -0.3604   -0.2157 H   0  0  0  0  0  0  0  0  0  0  0  0
    0.2713   -0.2414    0.0463 C   0  0  1  0  0  0  0  0  0  0  0  0
    0.1987    0.6740    0.6369 H   0  0  0  0  0  0  0  0  0  0  0  0
    1.3093   -1.1643    0.7060 C   0  0  0  0  0  0  0  0  0  0  0  0
    1.2931   -2.1322    0.2000 H   0  0  0  0  0  0  0  0  0  0  0  0
    2.3045   -0.7283    0.5984 H   0  0  0  0  0  0  0  0  0  0  0  0
    0.9352   -1.4224    2.4651 S   0  0  0  0  0  0  0  0  0  0  0  0
    1.8976   -2.3201    2.7089 H   0  0  0  0  0  0  0  0  0  0  0  0
    0.6478    0.1504   -1.3972 C   0  0  0  0  0  0  0  0  0  0  0  0
    1.1050    1.2698   -1.6301 O   0  0  0  0  0  0  0  0  0  0  0  0
    0.4661   -0.7622   -2.3587 N   0  0  0  0  0  0  0  0  0  0  0  0
    0.0273   -1.6324   -2.0945 H   0  0  0  0  0  0  0  0  0  0  0  0
    0.7807   -0.5475   -3.7700 C   0  0  0  0  0  0  0  0  0  0  0  0
    1.7951   -0.1540   -3.8669 H   0  0  0  0  0  0  0  0  0  0  0  0
    0.7055   -1.4862   -4.3202 H   0  0  0  0  0  0  0  0  0  0  0  0
    0.0838    0.1770   -4.1948 H   0  0  0  0  0  0  0  0  0  0  0  0
  5  6  2  0  0  0  0
  5  7  1  0  0  0  0
  2  3  1  0  0  0  0
  2  4  1  0  0  0  0
  2  5  1  0  0  0  0
  1  2  1  0  0  0  0
 16 17  2  0  0  0  0
 16 18  1  0  0  0  0
 14 15  1  0  0  0  0
 11 12  1  0  0  0  0
 11 13  1  0  0  0  0
 11 14  1  0  0  0  0
  9 10  1  0  0  0  0
  9 11  1  0  0  0  0
  9 16  1  0  0  0  0
  7  8  1  0  0  0  0
  7  9  1  0  0  0  0
 20 21  1  0  0  0  0
 20 22  1  0  0  0  0
 20 23  1  0  0  0  0
 18 19  1  0  0  0  0
 18 20  1  0  0  0  0
M  END
$$$$
default_name
  -OEChem-01062215323D

 23 22  0     1  0  0  0  0  0999 V2000
   -2.6857   -3.6684    0.8743 H   0  0  0  0  0  0  0  0  0  0  0  0
   -2.6617   -2.6474    0.4953 C   0  0  0  0  0  0  0  0  0  0  0  0
   -3.2657   -2.0054    1.1353 H   0  0  0  0  0  0  0  0  0  0  0  0
   -3.0477   -2.6254   -0.5217 H   0  0  0  0  0  0  0  0  0  0  0  0
   -1.2337   -2.1564    0.4993 C   0  0  0  0  0  0  0  0  0  0  0  0
   -0.3327   -2.8864    0.8893 O   0  0  0  0  0  0  0  0  0  0  0  0
   -1.0277   -0.9164    0.0623 N   0  0  0  0  0  0  0  0  0  0  0  0
   -1.8237   -0.3604   -0.2157 H   0  0  0  0  0  0  0  0  0  0  0  0
    0.2713   -0.2414    0.0463 C   0  0  1  0  0  0  0  0  0  0  0  0
    0.1987    0.6740    0.6369 H   0  0  0  0  0  0  0  0  0  0  0  0
    1.3093   -1.1643    0.7060 C   0  0  0  0  0  0  0  0  0  0  0  0
    1.2931   -2.1322    0.2000 H   0  0  0  0  0  0  0  0  0  0  0  0
    2.3045   -0.7283    0.5984 H   0  0  0  0  0  0  0  0  0  0  0  0
    0.9352   -1.4224    2.4651 S   0  0  0  0  0  0  0  0  0  0  0  0
    1.8976   -2.3201    2.7089 H   0  0  0  0  0  0  0  0  0  0  0  0
    0.6478    0.1504   -1.3972 C   0  0  0  0  0  0  0  0  0  0  0  0
    1.3504    1.1410   -1.6011 O   0  0  0  0  0  0  0  0  0  0  0  0
    0.1932   -0.6209   -2.3916 N   0  0  0  0  0  0  0  0  0  0  0  0
   -0.4288   -1.3769   -2.1441 H   0  0  0  0  0  0  0  0  0  0  0  0
    0.4684   -0.3880   -3.8082 C   0  0  0  0  0  0  0  0  0  0  0  0
    1.5408   -0.2437   -3.9576 H   0  0  0  0  0  0  0  0  0  0  0  0
    0.1343   -1.2395   -4.4022 H   0  0  0  0  0  0  0  0  0  0  0  0
   -0.0537    0.5110   -4.1400 H   0  0  0  0  0  0  0  0  0  0  0  0
  5  6  2  0  0  0  0
  5  7  1  0  0  0  0
  2  3  1  0  0  0  0
  2  4  1  0  0  0  0
  2  5  1  0  0  0  0
  1  2  1  0  0  0  0
 16 17  2  0  0  0  0
 16 18  1  0  0  0  0
 14 15  1  0  0  0  0
 11 12  1  0  0  0  0
 11 13  1  0  0  0  0
 11 14  1  0  0  0  0
  9 10  1  0  0  0  0
  9 11  1  0  0  0  0
  9 16  1  0  0  0  0
  7  8  1  0  0  0  0
  7  9  1  0  0  0  0
 20 21  1  0  0  0  0
 20 22  1  0  0  0  0
 20 23  1  0  0  0  0
 18 19  1  0  0  0  0
 18 20  1  0  0  0  0
M  END
$$$$
default_name
  -OEChem-01062215323D

 23 22  0     1  0  0  0  0  0999 V2000
   -2.6857   -3.6684    0.8743 H   0  0  0  0  0  0  0  0  0  0  0  0
   -2.6617   -2.6474    0.4953 C   0  0  0  0  0  0  0  0  0  0  0  0
   -3.2657   -2.0054    1.1353 H   0  0  0  0  0  0  0  0  0  0  0  0
   -3.0477   -2.6254   -0.5217 H   0  0  0  0  0  0  0  0  0  0  0  0
   -1.2337   -2.1564    0.4993 C   0  0  0  0  0  0  0  0  0  0  0  0
   -0.3327   -2.8864    0.8893 O   0  0  0  0  0  0  0  0  0  0  0  0
   -1.0277   -0.9164    0.0623 N   0  0  0  0  0  0  0  0  0  0  0  0
   -1.8237   -0.3604   -0.2157 H   0  0  0  0  0  0  0  0  0  0  0  0
    0.2713   -0.2414    0.0463 C   0  0  1  0  0  0  0  0  0  0  0  0
    0.1987    0.6740    0.6369 H   0  0  0  0  0  0  0  0  0  0  0  0
    1.3093   -1.1643    0.7060 C   0  0  0  0  0  0  0  0  0  0  0  0
    1.2931   -2.1322    0.2000 H   0  0  0  0  0  0  0  0  0  0  0  0
    2.3045   -0.7283    0.5984 H   0  0  0  0  0  0  0  0  0  0  0  0
    0.9352   -1.4224    2.4651 S   0  0  0  0  0  0  0  0  0  0  0  0
    1.8976   -2.3201    2.7089 H   0  0  0  0  0  0  0  0  0  0  0  0
    0.6478    0.1504   -1.3972 C   0  0  0  0  0  0  0  0  0  0  0  0
    1.5581    0.9552   -1.5974 O   0  0  0  0  0  0  0  0  0  0  0  0
   -0.0383   -0.4163   -2.3964 N   0  0  0  0  0  0  0  0  0  0  0  0
   -0.8108   -1.0164   -2.1459 H   0  0  0  0  0  0  0  0  0  0  0  0
    0.2028   -0.1559   -3.8145 C   0  0  0  0  0  0  0  0  0  0  0  0
    1.2675   -0.2631   -4.0341 H   0  0  0  0  0  0  0  0  0  0  0  0
   -0.3630   -0.8577   -4.4283 H   0  0  0  0  0  0  0  0  0  0  0  0
   -0.1022    0.8635   -4.0570 H   0  0  0  0  0  0  0  0  0  0  0  0
  5  6  2  0  0  0  0
  5  7  1  0  0  0  0
  2  3  1  0  0  0  0
  2  4  1  0  0  0  0
  2  5  1  0  0  0  0
  1  2  1  0  0  0  0
 16 17  2  0  0  0  0
 16 18  1  0  0  0  0
 14 15  1  0  0  0  0
 11 12  1  0  0  0  0
 11 13  1  0  0  0  0
 11 14  1  0  0  0  0
  9 10  1  0  0  0  0
  9 11  1  0  0  0  0
  9 16  1  0  0  0  0
  7  8  1  0  0  0  0
  7  9  1  0  0  0  0
 20 21  1  0  0  0  0
 20 22  1  0  0  0  0
 20 23  1  0  0  0  0
 18 19  1  0  0  0  0
 18 20  1  0  0  0  0
M  END
$$$$
default_name
  -OEChem-01062215323D

 23 22  0     1  0  0  0  0  0999 V2000
   -2.6857   -3.6684    0.8743 H   0  0  0  0  0  0  0  0  0  0  0  0
   -2.6617   -2.6474    0.4953 C   0  0  0  0  0  0  0  0  0  0  0  0
   -3.2657   -2.0054    1.1353 H   0  0  0  0  0  0  0  0  0  0  0  0
   -3.0477   -2.6254   -0.5217 H   0  0  0  0  0  0  0  0  0  0  0  0
   -1.2337   -2.1564    0.4993 C   0  0  0  0  0  0  0  0  0  0  0  0
   -0.3327   -2.8864    0.8893 O   0  0  0  0  0  0  0  0  0  0  0  0
   -1.0277   -0.9164    0.0623 N   0  0  0  0  0  0  0  0  0  0  0  0
   -1.8237   -0.3604   -0.2157 H   0  0  0  0  0  0  0  0  0  0  0  0
    0.2713   -0.2414    0.0463 C   0  0  1  0  0  0  0  0  0  0  0  0
    0.1987    0.6740    0.6369 H   0  0  0  0  0  0  0  0  0  0  0  0
    1.3093   -1.1643    0.7060 C   0  0  0  0  0  0  0  0  0  0  0  0
    1.2931   -2.1322    0.2000 H   0  0  0  0  0  0  0  0  0  0  0  0
    2.3045   -0.7283    0.5984 H   0  0  0  0  0  0  0  0  0  0  0  0
    0.9352   -1.4224    2.4651 S   0  0  0  0  0  0  0  0  0  0  0  0
    1.8976   -2.3201    2.7089 H   0  0  0  0  0  0  0  0  0  0  0  0
    0.6478    0.1504   -1.3972 C   0  0  0  0  0  0  0  0  0  0  0  0
    1.7140    0.7253   -1.6191 O   0  0  0  0  0  0  0  0  0  0  0  0
   -0.2127   -0.1623   -2.3729 N   0  0  0  0  0  0  0  0  0  0  0  0
   -1.0925   -0.5756   -2.0997 H   0  0  0  0  0  0  0  0  0  0  0  0
    0.0021    0.1330   -3.7884 C   0  0  0  0  0  0  0  0  0  0  0  0
    0.9938   -0.2107   -4.0913 H   0  0  0  0  0  0  0  0  0  0  0  0
   -0.7526   -0.3668   -4.3967 H   0  0  0  0  0  0  0  0  0  0  0  0
   -0.0581    1.2104   -3.9513 H   0  0  0  0  0  0  0  0  0  0  0  0
  5  6  2  0  0  0  0
  5  7  1  0  0  0  0
  2  3  1  0  0  0  0
  2  4  1  0  0  0  0
  2  5  1  0  0  0  0
  1  2  1  0  0  0  0
 16 17  2  0  0  0  0
 16 18  1  0  0  0  0
 14 15  1  0  0  0  0
 11 12  1  0  0  0  0
 11 13  1  0  0  0  0
 11 14  1  0  0  0  0
  9 10  1  0  0  0  0
  9 11  1  0  0  0  0
  9 16  1  0  0  0  0
  7  8  1  0  0  0  0
  7  9  1  0  0  0  0
 20 21  1  0  0  0  0
 20 22  1  0  0  0  0
 20 23  1  0  0  0  0
 18 19  1  0  0  0  0
 18 20  1  0  0  0  0
M  END
$$$$
default_name
  -OEChem-01062215323D

 23 22  0     1  0  0  0  0  0999 V2000
   -2.6857   -3.6684    0.8743 H   0  0  0  0  0  0  0  0  0  0  0  0
   -2.6617   -2.6474    0.4953 C   0  0  0  0  0  0  0  0  0  0  0  0
   -3.2657   -2.0054    1.1353 H   0  0  0  0  0  0  0  0  0  0  0  0
   -3.0477   -2.6254   -0.5217 H   0  0  0  0  0  0  0  0  0  0  0  0
   -1.2337   -2.1564    0.4993 C   0  0  0  0  0  0  0  0  0  0  0  0
   -0.3327   -2.8864    0.8893 O   0  0  0  0  0  0  0  0  0  0  0  0
   -1.0277   -0.9164    0.0623 N   0  0  0  0  0  0  0  0  0  0  0  0
   -1.8237   -0.3604   -0.2157 H   0  0  0  0  0  0  0  0  0  0  0  0
    0.2713   -0.2414    0.0463 C   0  0  1  0  0  0  0  0  0  0  0  0
    0.1987    0.6740    0.6369 H   0  0  0  0  0  0  0  0  0  0  0  0
    1.3093   -1.1643    0.7060 C   0  0  0  0  0  0  0  0  0  0  0  0
    1.2931   -2.1322    0.2000 H   0  0  0  0  0  0  0  0  0  0  0  0
    2.3045   -0.7283    0.5984 H   0  0  0  0  0  0  0  0  0  0  0  0
    0.9352   -1.4224    2.4651 S   0  0  0  0  0  0  0  0  0  0  0  0
    1.8976   -2.3201    2.7089 H   0  0  0  0  0  0  0  0  0  0  0  0
    0.6478    0.1504   -1.3972 C   0  0  0  0  0  0  0  0  0  0  0  0
    1.8074    0.4668   -1.6649 O   0  0  0  0  0  0  0  0  0  0  0  0
   -0.3181    0.1239   -2.3227 N   0  0  0  0  0  0  0  0  0  0  0  0
   -1.2549   -0.0846   -2.0088 H   0  0  0  0  0  0  0  0  0  0  0  0
   -0.1200    0.4590   -3.7317 C   0  0  0  0  0  0  0  0  0  0  0  0
    0.7383   -0.0902   -4.1253 H   0  0  0  0  0  0  0  0  0  0  0  0
   -1.0080    0.1997   -4.3095 H   0  0  0  0  0  0  0  0  0  0  0  0
    0.0755    1.5281   -3.8302 H   0  0  0  0  0  0  0  0  0  0  0  0
  5  6  2  0  0  0  0
  5  7  1  0  0  0  0
  2  3  1  0  0  0  0
  2  4  1  0  0  0  0
  2  5  1  0  0  0  0
  1  2  1  0  0  0  0
 16 17  2  0  0  0  0
 16 18  1  0  0  0  0
 14 15  1  0  0  0  0
 11 12  1  0  0  0  0
 11 13  1  0  0  0  0
 11 14  1  0  0  0  0
  9 10  1  0  0  0  0
  9 11  1  0  0  0  0
  9 16  1  0  0  0  0
  7  8  1  0  0  0  0
  7  9  1  0  0  0  0
 20 21  1  0  0  0  0
 20 22  1  0  0  0  0
 20 23  1  0  0  0  0
 18 19  1  0  0  0  0
 18 20  1  0  0  0  0
M  END
$$$$
default_name
  -OEChem-01062215323D

 23 22  0     1  0  0  0  0  0999 V2000
   -2.6857   -3.6684    0.8743 H   0  0  0  0  0  0  0  0  0  0  0  0
   -2.6617   -2.6474    0.4953 C   0  0  0  0  0  0  0  0  0  0  0  0
   -3.2657   -2.0054    1.1353 H   0  0  0  0  0  0  0  0  0  0  0  0
   -3.0477   -2.6254   -0.5217 H   0  0  0  0  0  0  0  0  0  0  0  0
   -1.2337   -2.1564    0.4993 C   0  0  0  0  0  0  0  0  0  0  0  0
   -0.3327   -2.8864    0.8893 O   0  0  0  0  0  0  0  0  0  0  0  0
   -1.0277   -0.9164    0.0623 N   0  0  0  0  0  0  0  0  0  0  0  0
   -1.8237   -0.3604   -0.2157 H   0  0  0  0  0  0  0  0  0  0  0  0
    0.2713   -0.2414    0.0463 C   0  0  1  0  0  0  0  0  0  0  0  0
    0.1987    0.6740    0.6369 H   0  0  0  0  0  0  0  0  0  0  0  0
    1.3093   -1.1643    0.7060 C   0  0  0  0  0  0  0  0  0  0  0  0
    1.2931   -2.1322    0.2000 H   0  0  0  0  0  0  0  0  0  0  0  0
    2.3045   -0.7283    0.5984 H   0  0  0  0  0  0  0  0  0  0  0  0
    0.9352   -1.4224    2.4651 S   0  0  0  0  0  0  0  0  0  0  0  0
    1.8976   -2.3201    2.7089 H   0  0  0  0  0  0  0  0  0  0  0  0
    0.6478    0.1504   -1.3972 C   0  0  0  0  0  0  0  0  0  0  0  0
    1.8320    0.1974   -1.7316 O   0  0  0  0  0  0  0  0  0  0  0  0
   -0.3473    0.4226   -2.2493 N   0  0  0  0  0  0  0  0  0  0  0  0
   -1.2868    0.4234   -1.8792 H   0  0  0  0  0  0  0  0  0  0  0  0
   -0.1554    0.7999   -3.6484 C   0  0  0  0  0  0  0  0  0  0  0  0
    0.5184    0.0902   -4.1336 H   0  0  0  0  0  0  0  0  0  0  0  0
   -1.1117    0.8033   -4.1727 H   0  0  0  0  0  0  0  0  0  0  0  0
    0.2894    1.7951   -3.7020 H   0  0  0  0  0  0  0  0  0  0  0  0
  5  6  2  0  0  0  0
  5  7  1  0  0  0  0
  2  3  1  0  0  0  0
  2  4  1  0  0  0  0
  2  5  1  0  0  0  0
  1  2  1  0  0  0  0
 16 17  2  0  0  0  0
 16 18  1  0  0  0  0
 14 15  1  0  0  0  0
 11 12  1  0  0  0  0
 11 13  1  0  0  0  0
 11 14  1  0  0  0  0
  9 10  1  0  0  0  0
  9 11  1  0  0  0  0
  9 16  1  0  0  0  0
  7  8  1  0  0  0  0
  7  9  1  0  0  0  0
 20 21  1  0  0  0  0
 20 22  1  0  0  0  0
 20 23  1  0  0  0  0
 18 19  1  0  0  0  0
 18 20  1  0  0  0  0
M  END
$$$$
default_name
  -OEChem-01062215323D

 23 22  0     1  0  0  0  0  0999 V2000
   -2.6857   -3.6684    0.8743 H   0  0  0  0  0  0  0  0  0  0  0  0
   -2.6617   -2.6474    0.4953 C   0  0  0  0  0  0  0  0  0  0  0  0
   -3.2657   -2.0054    1.1353 H   0  0  0  0  0  0  0  0  0  0  0  0
   -3.0477   -2.6254   -0.5217 H   0  0  0  0  0  0  0  0  0  0  0  0
   -1.2337   -2.1564    0.4993 C   0  0  0  0  0  0  0  0  0  0  0  0
   -0.3327   -2.8864    0.8893 O   0  0  0  0  0  0  0  0  0  0  0  0
   -1.0277   -0.9164    0.0623 N   0  0  0  0  0  0  0  0  0  0  0  0
   -1.8237   -0.3604   -0.2157 H   0  0  0  0  0  0  0  0  0  0  0  0
    0.2713   -0.2414    0.0463 C   0  0  1  0  0  0  0  0  0  0  0  0
    0.1987    0.6740    0.6369 H   0  0  0  0  0  0  0  0  0  0  0  0
    1.3093   -1.1643    0.7060 C   0  0  0  0  0  0  0  0  0  0  0  0
    1.2931   -2.1322    0.2000 H   0  0  0  0  0  0  0  0  0  0  0  0
    2.3045   -0.7283    0.5984 H   0  0  0  0  0  0  0  0  0  0  0  0
    0.9352   -1.4224    2.4651 S   0  0  0  0  0  0  0  0  0  0  0  0
    1.8976   -2.3201    2.7089 H   0  0  0  0  0  0  0  0  0  0  0  0
    0.6478    0.1504   -1.3972 C   0  0  0  0  0  0  0  0  0  0  0  0
    1.7862   -0.0647   -1.8147 O   0  0  0  0  0  0  0  0  0  0  0  0
   -0.2982    0.7136   -2.1575 N   0  0  0  0  0  0  0  0  0  0  0  0
   -1.1860    0.9136   -1.7199 H   0  0  0  0  0  0  0  0  0  0  0  0
   -0.1014    1.1326   -3.5441 C   0  0  0  0  0  0  0  0  0  0  0  0
    0.3493    0.3182   -4.1159 H   0  0  0  0  0  0  0  0  0  0  0  0
   -1.0567    1.4028   -3.9956 H   0  0  0  0  0  0  0  0  0  0  0  0
    0.5692    1.9930   -3.5753 H   0  0  0  0  0  0  0  0  0  0  0  0
  5  6  2  0  0  0  0
  5  7  1  0  0  0  0
  2  3  1  0  0  0  0
  2  4  1  0  0  0  0
  2  5  1  0  0  0  0
  1  2  1  0  0  0  0
 16 17  2  0  0  0  0
 16 18  1  0  0  0  0
 14 15  1  0  0  0  0
 11 12  1  0  0  0  0
 11 13  1  0  0  0  0
 11 14  1  0  0  0  0
  9 10  1  0  0  0  0
  9 11  1  0  0  0  0
  9 16  1  0  0  0  0
  7  8  1  0  0  0  0
  7  9  1  0  0  0  0
 20 21  1  0  0  0  0
 20 22  1  0  0  0  0
 20 23  1  0  0  0  0
 18 19  1  0  0  0  0
 18 20  1  0  0  0  0
M  END
$$$$
default_name
  -OEChem-01062215323D

 23 22  0     1  0  0  0  0  0999 V2000
   -2.6857   -3.6684    0.8743 H   0  0  0  0  0  0  0  0  0  0  0  0
   -2.6617   -2.6474    0.4953 C   0  0  0  0  0  0  0  0  0  0  0  0
   -3.2657   -2.0054    1.1353 H   0  0  0  0  0  0  0  0  0  0  0  0
   -3.0477   -2.6254   -0.5217 H   0  0  0  0  0  0  0  0  0  0  0  0
   -1.2337   -2.1564    0.4993 C   0  0  0  0  0  0  0  0  0  0  0  0
   -0.3327   -2.8864    0.8893 O   0  0  0  0  0  0  0  0  0  0  0  0
   -1.0277   -0.9164    0.0623 N   0  0  0  0  0  0  0  0  0  0  0  0
   -1.8237   -0.3604   -0.2157 H   0  0  0  0  0  0  0  0  0  0  0  0
    0.2713   -0.2414    0.0463 C   0  0  1  0  0  0  0  0  0  0  0  0
    0.1987    0.6740    0.6369 H   0  0  0  0  0  0  0  0  0  0  0  0
    1.3093   -1.1643    0.7060 C   0  0  0  0  0  0  0  0  0  0  0  0
    1.2931   -2.1322    0.2000 H   0  0  0  0  0  0  0  0  0  0  0  0
    2.3045   -0.7283    0.5984 H   0  0  0  0  0  0  0  0  0  0  0  0
    0.9352   -1.4224    2.4651 S   0  0  0  0  0  0  0  0  0  0  0  0
    1.8976   -2.3201    2.7089 H   0  0  0  0  0  0  0  0  0  0  0  0
    0.6478    0.1504   -1.3972 C   0  0  0  0  0  0  0  0  0  0  0  0
    1.6730   -0.3014   -1.9085 O   0  0  0  0  0  0  0  0  0  0  0  0
   -0.1744    0.9770   -2.0537 N   0  0  0  0  0  0  0  0  0  0  0  0
   -0.9595    1.3526   -1.5416 H   0  0  0  0  0  0  0  0  0  0  0  0
    0.0381    1.4342   -3.4258 C   0  0  0  0  0  0  0  0  0  0  0  0
    0.2422    0.5783   -4.0732 H   0  0  0  0  0  0  0  0  0  0  0  0
   -0.8466    1.9574   -3.7903 H   0  0  0  0  0  0  0  0  0  0  0  0
    0.8957    2.1084   -3.4588 H   0  0  0  0  0  0  0  0  0  0  0  0
  5  6  2  0  0  0  0
  5  7  1  0  0  0  0
  2  3  1  0  0  0  0
  2  4  1  0  0  0  0
  2  5  1  0  0  0  0
  1  2  1  0  0  0  0
 16 17  2  0  0  0  0
 16 18  1  0  0  0  0
 14 15  1  0  0  0  0
 11 12  1  0  0  0  0
 11 13  1  0  0  0  0
 11 14  1  0  0  0  0
  9 10  1  0  0  0  0
  9 11  1  0  0  0  0
  9 16  1  0  0  0  0
  7  8  1  0  0  0  0
  7  9  1  0  0  0  0
 20 21  1  0  0  0  0
 20 22  1  0  0  0  0
 20 23  1  0  0  0  0
 18 19  1  0  0  0  0
 18 20  1  0  0  0  0
M  END
$$$$
default_name
  -OEChem-01062215323D

 23 22  0     1  0  0  0  0  0999 V2000
   -2.6857   -3.6684    0.8743 H   0  0  0  0  0  0  0  0  0  0  0  0
   -2.6617   -2.6474    0.4953 C   0  0  0  0  0  0  0  0  0  0  0  0
   -3.2657   -2.0054    1.1353 H   0  0  0  0  0  0  0  0  0  0  0  0
   -3.0477   -2.6254   -0.5217 H   0  0  0  0  0  0  0  0  0  0  0  0
   -1.2337   -2.1564    0.4993 C   0  0  0  0  0  0  0  0  0  0  0  0
   -0.3327   -2.8864    0.8893 O   0  0  0  0  0  0  0  0  0  0  0  0
   -1.0277   -0.9164    0.0623 N   0  0  0  0  0  0  0  0  0  0  0  0
   -1.8237   -0.3604   -0.2157 H   0  0  0  0  0  0  0  0  0  0  0  0
    0.2713   -0.2414    0.0463 C   0  0  1  0  0  0  0  0  0  0  0  0
    0.1987    0.6740    0.6369 H   0  0  0  0  0  0  0  0  0  0  0  0
    1.3093   -1.1643    0.7060 C   0  0  0  0  0  0  0  0  0  0  0  0
    1.2931   -2.1322    0.2000 H   0  0  0  0  0  0  0  0  0  0  0  0
    2.3045   -0.7283    0.5984 H   0  0  0  0  0  0  0  0  0  0  0  0
    0.9352   -1.4224    2.4651 S   0  0  0  0  0  0  0  0  0  0  0  0
    1.8976   -2.3201    2.7089 H   0  0  0  0  0  0  0  0  0  0  0  0
    0.6478    0.1504   -1.3972 C   0  0  0  0  0  0  0  0  0  0  0  0
    1.5001   -0.4967   -2.0066 O   0  0  0  0  0  0  0  0  0  0  0  0
    0.0159    1.1949   -1.9449 N   0  0  0  0  0  0  0  0  0  0  0  0
   -0.6226    1.7105   -1.3566 H   0  0  0  0  0  0  0  0  0  0  0  0
    0.2538    1.6842   -3.3017 C   0  0  0  0  0  0  0  0  0  0  0  0
    0.2047    0.8528   -4.0085 H   0  0  0  0  0  0  0  0  0  0  0  0
   -0.4960    2.4292   -3.5708 H   0  0  0  0  0  0  0  0  0  0  0  0
    1.2466    2.1334   -3.3605 H   0  0  0  0  0  0  0  0  0  0  0  0
  5  6  2  0  0  0  0
  5  7  1  0  0  0  0
  2  3  1  0  0  0  0
  2  4  1  0  0  0  0
  2  5  1  0  0  0  0
  1  2  1  0  0  0  0
 16 17  2  0  0  0  0
 16 18  1  0  0  0  0
 14 15  1  0  0  0  0
 11 12  1  0  0  0  0
 11 13  1  0  0  0  0
 11 14  1  0  0  0  0
  9 10  1  0  0  0  0
  9 11  1  0  0  0  0
  9 16  1  0  0  0  0
  7  8  1  0  0  0  0
  7  9  1  0  0  0  0
 20 21  1  0  0  0  0
 20 22  1  0  0  0  0
 20 23  1  0  0  0  0
 18 19  1  0  0  0  0
 18 20  1  0  0  0  0
M  END
$$$$
default_name
  -OEChem-01062215323D

 23 22  0     1  0  0  0  0  0999 V2000
   -2.6857   -3.6684    0.8743 H   0  0  0  0  0  0  0  0  0  0  0  0
   -2.6617   -2.6474    0.4953 C   0  0  0  0  0  0  0  0  0  0  0  0
   -3.2657   -2.0054    1.1353 H   0  0  0  0  0  0  0  0  0  0  0  0
   -3.0477   -2.6254   -0.5217 H   0  0  0  0  0  0  0  0  0  0  0  0
   -1.2337   -2.1564    0.4993 C   0  0  0  0  0  0  0  0  0  0  0  0
   -0.3327   -2.8864    0.8893 O   0  0  0  0  0  0  0  0  0  0  0  0
   -1.0277   -0.9164    0.0623 N   0  0  0  0  0  0  0  0  0  0  0  0
   -1.8237   -0.3604   -0.2157 H   0  0  0  0  0  0  0  0  0  0  0  0
    0.2713   -0.2414    0.0463 C   0  0  1  0  0  0  0  0  0  0  0  0
    0.1987    0.6740    0.6369 H   0  0  0  0  0  0  0  0  0  0  0  0
    1.3093   -1.1643    0.7060 C   0  0  0  0  0  0  0  0  0  0  0  0
    1.2931   -2.1322    0.2000 H   0  0  0  0  0  0  0  0  0  0  0  0
    2.3045   -0.7283    0.5984 H   0  0  0  0  0  0  0  0  0  0  0  0
    0.9352   -1.4224    2.4651 S   0  0  0  0  0  0  0  0  0  0  0  0
    1.8976   -2.3201    2.7089 H   0  0  0  0  0  0  0  0  0  0  0  0
    0.6478    0.1504   -1.3972 C   0  0  0  0  0  0  0  0  0  0  0  0
    1.2794   -0.6372   -2.1023 O   0  0  0  0  0  0  0  0  0  0  0  0
    0.2596    1.3524   -1.8386 N   0  0  0  0  0  0  0  0  0  0  0  0
   -0.1984    1.9629   -1.1774 H   0  0  0  0  0  0  0  0  0  0  0  0
    0.5308    1.8657   -3.1802 C   0  0  0  0  0  0  0  0  0  0  0  0
    0.2391    1.1229   -3.9261 H   0  0  0  0  0  0  0  0  0  0  0  0
   -0.0285    2.7861   -3.3520 H   0  0  0  0  0  0  0  0  0  0  0  0
    1.5982    2.0664   -3.2870 H   0  0  0  0  0  0  0  0  0  0  0  0
  5  6  2  0  0  0  0
  5  7  1  0  0  0  0
  2  3  1  0  0  0  0
  2  4  1  0  0  0  0
  2  5  1  0  0  0  0
  1  2  1  0  0  0  0
 16 17  2  0  0  0  0
 16 18  1  0  0  0  0
 14 15  1  0  0  0  0
 11 12  1  0  0  0  0
 11 13  1  0  0  0  0
 11 14  1  0  0  0  0
  9 10  1  0  0  0  0
  9 11  1  0  0  0  0
  9 16  1  0  0  0  0
  7  8  1  0  0  0  0
  7  9  1  0  0  0  0
 20 21  1  0  0  0  0
 20 22  1  0  0  0  0
 20 23  1  0  0  0  0
 18 19  1  0  0  0  0
 18 20  1  0  0  0  0
M  END
$$$$
default_name
  -OEChem-01062215323D

 23 22  0     1  0  0  0  0  0999 V2000
   -2.6857   -3.6684    0.8743 H   0  0  0  0  0  0  0  0  0  0  0  0
   -2.6617   -2.6474    0.4953 C   0  0  0  0  0  0  0  0  0  0  0  0
   -3.2657   -2.0054    1.1353 H   0  0  0  0  0  0  0  0  0  0  0  0
   -3.0477   -2.6254   -0.5217 H   0  0  0  0  0  0  0  0  0  0  0  0
   -1.2337   -2.1564    0.4993 C   0  0  0  0  0  0  0  0  0  0  0  0
   -0.3327   -2.8864    0.8893 O   0  0  0  0  0  0  0  0  0  0  0  0
   -1.0277   -0.9164    0.0623 N   0  0  0  0  0  0  0  0  0  0  0  0
   -1.8237   -0.3604   -0.2157 H   0  0  0  0  0  0  0  0  0  0  0  0
    0.2713   -0.2414    0.0463 C   0  0  1  0  0  0  0  0  0  0  0  0
    0.1987    0.6740    0.6369 H   0  0  0  0  0  0  0  0  0  0  0  0
    1.3093   -1.1643    0.7060 C   0  0  0  0  0  0  0  0  0  0  0  0
    1.2931   -2.1322    0.2000 H   0  0  0  0  0  0  0  0  0  0  0  0
    2.3045   -0.7283    0.5984 H   0  0  0  0  0  0  0  0  0  0  0  0
    0.9352   -1.4224    2.4651 S   0  0  0  0  0  0  0  0  0  0  0  0
    1.8976   -2.3201    2.7089 H   0  0  0  0  0  0  0  0  0  0  0  0
    0.6478    0.1504   -1.3972 C   0  0  0  0  0  0  0  0  0  0  0  0
    1.0258   -0.7135   -2.1892 O   0  0  0  0  0  0  0  0  0  0  0  0
    0.5401    1.4387   -1.7420 N   0  0  0  0  0  0  0  0  0  0  0  0
    0.2844    2.0926   -1.0163 H   0  0  0  0  0  0  0  0  0  0  0  0
    0.8503    1.9662   -3.0695 C   0  0  0  0  0  0  0  0  0  0  0  0
    0.3433    1.3703   -3.8318 H   0  0  0  0  0  0  0  0  0  0  0  0
    0.5239    3.0038   -3.1488 H   0  0  0  0  0  0  0  0  0  0  0  0
    1.9263    1.9118   -3.2434 H   0  0  0  0  0  0  0  0  0  0  0  0
  5  6  2  0  0  0  0
  5  7  1  0  0  0  0
  2  3  1  0  0  0  0
  2  4  1  0  0  0  0
  2  5  1  0  0  0  0
  1  2  1  0  0  0  0
 16 17  2  0  0  0  0
 16 18  1  0  0  0  0
 14 15  1  0  0  0  0
 11 12  1  0  0  0  0
 11 13  1  0  0  0  0
 11 14  1  0  0  0  0
  9 10  1  0  0  0  0
  9 11  1  0  0  0  0
  9 16  1  0  0  0  0
  7  8  1  0  0  0  0
  7  9  1  0  0  0  0
 20 21  1  0  0  0  0
 20 22  1  0  0  0  0
 20 23  1  0  0  0  0
 18 19  1  0  0  0  0
 18 20  1  0  0  0  0
M  END
$$$$
default_name
  -OEChem-01062215323D

 23 22  0     1  0  0  0  0  0999 V2000
   -2.6857   -3.6684    0.8743 H   0  0  0  0  0  0  0  0  0  0  0  0
   -2.6617   -2.6474    0.4953 C   0  0  0  0  0  0  0  0  0  0  0  0
   -3.2657   -2.0054    1.1353 H   0  0  0  0  0  0  0  0  0  0  0  0
   -3.0477   -2.6254   -0.5217 H   0  0  0  0  0  0  0  0  0  0  0  0
   -1.2337   -2.1564    0.4993 C   0  0  0  0  0  0  0  0  0  0  0  0
   -0.3327   -2.8864    0.8893 O   0  0  0  0  0  0  0  0  0  0  0  0
   -1.0277   -0.9164    0.0623 N   0  0  0  0  0  0  0  0  0  0  0  0
   -1.8237   -0.3604   -0.2157 H   0  0  0  0  0  0  0  0  0  0  0  0
    0.2713   -0.2414    0.0463 C   0  0  1  0  0  0  0  0  0  0  0  0
    0.1987    0.6740    0.6369 H   0  0  0  0  0  0  0  0  0  0  0  0
    1.3093   -1.1643    0.7060 C   0  0  0  0  0  0  0  0  0  0  0  0
    1.2931   -2.1322    0.2000 H   0  0  0  0  0  0  0  0  0  0  0  0
    2.3045   -0.7283    0.5984 H   0  0  0  0  0  0  0  0  0  0  0  0
    0.9352   -1.4224    2.4651 S   0  0  0  0  0  0  0  0  0  0  0  0
    1.8976   -2.3201    2.7089 H   0  0  0  0  0  0  0  0  0  0  0  0
    0.6478    0.1504   -1.3972 C   0  0  0  0  0  0  0  0  0  0  0  0
    0.7567   -0.7203   -2.2612 O   0  0  0  0  0  0  0  0  0  0  0  0
    0.8384    1.4481   -1.6617 N   0  0  0  0  0  0  0  0  0  0  0  0
    0.7927    2.0909   -0.8842 H   0  0  0  0  0  0  0  0  0  0  0  0
    1.1905    1.9789   -2.9773 C   0  0  0  0  0  0  0  0  0  0  0  0
    0.5100    1.5781   -3.7319 H   0  0  0  0  0  0  0  0  0  0  0  0
    1.1235    3.0675   -2.9751 H   0  0  0  0  0  0  0  0  0  0  0  0
    2.2087    1.6803   -3.2326 H   0  0  0  0  0  0  0  0  0  0  0  0
  5  6  2  0  0  0  0
  5  7  1  0  0  0  0
  2  3  1  0  0  0  0
  2  4  1  0  0  0  0
  2  5  1  0  0  0  0
  1  2  1  0  0  0  0
 16 17  2  0  0  0  0
 16 18  1  0  0  0  0
 14 15  1  0  0  0  0
 11 12  1  0  0  0  0
 11 13  1  0  0  0  0
 11 14  1  0  0  0  0
  9 10  1  0  0  0  0
  9 11  1  0  0  0  0
  9 16  1  0  0  0  0
  7  8  1  0  0  0  0
  7  9  1  0  0  0  0
 20 21  1  0  0  0  0
 20 22  1  0  0  0  0
 20 23  1  0  0  0  0
 18 19  1  0  0  0  0
 18 20  1  0  0  0  0
M  END
$$$$
default_name
  -OEChem-01062215323D

 23 22  0     1  0  0  0  0  0999 V2000
   -2.6857   -3.6684    0.8743 H   0  0  0  0  0  0  0  0  0  0  0  0
   -2.6617   -2.6474    0.4953 C   0  0  0  0  0  0  0  0  0  0  0  0
   -3.2657   -2.0054    1.1353 H   0  0  0  0  0  0  0  0  0  0  0  0
   -3.0477   -2.6254   -0.5217 H   0  0  0  0  0  0  0  0  0  0  0  0
   -1.2337   -2.1564    0.4993 C   0  0  0  0  0  0  0  0  0  0  0  0
   -0.3327   -2.8864    0.8893 O   0  0  0  0  0  0  0  0  0  0  0  0
   -1.0277   -0.9164    0.0623 N   0  0  0  0  0  0  0  0  0  0  0  0
   -1.8237   -0.3604   -0.2157 H   0  0  0  0  0  0  0  0  0  0  0  0
    0.2713   -0.2414    0.0463 C   0  0  1  0  0  0  0  0  0  0  0  0
    0.1987    0.6740    0.6369 H   0  0  0  0  0  0  0  0  0  0  0  0
    1.3093   -1.1643    0.7060 C   0  0  0  0  0  0  0  0  0  0  0  0
    1.2931   -2.1322    0.2000 H   0  0  0  0  0  0  0  0  0  0  0  0
    2.3045   -0.7283    0.5984 H   0  0  0  0  0  0  0  0  0  0  0  0
    0.9352   -1.4224    2.4651 S   0  0  0  0  0  0  0  0  0  0  0  0
    1.8976   -2.3201    2.7089 H   0  0  0  0  0  0  0  0  0  0  0  0
    0.6478    0.1504   -1.3972 C   0  0  0  0  0  0  0  0  0  0  0  0
    0.4904   -0.6571   -2.3135 O   0  0  0  0  0  0  0  0  0  0  0  0
    1.1340    1.3798   -1.6031 N   0  0  0  0  0  0  0  0  0  0  0  0
    1.2919    1.9577   -0.7902 H   0  0  0  0  0  0  0  0  0  0  0  0
    1.5283    1.9030   -2.9099 C   0  0  0  0  0  0  0  0  0  0  0  0
    0.7279    1.7321   -3.6333 H   0  0  0  0  0  0  0  0  0  0  0  0
    1.7296    2.9728   -2.8428 H   0  0  0  0  0  0  0  0  0  0  0  0
    2.4261    1.3875   -3.2553 H   0  0  0  0  0  0  0  0  0  0  0  0
  5  6  2  0  0  0  0
  5  7  1  0  0  0  0
  2  3  1  0  0  0  0
  2  4  1  0  0  0  0
  2  5  1  0  0  0  0
  1  2  1  0  0  0  0
 16 17  2  0  0  0  0
 16 18  1  0  0  0  0
 14 15  1  0  0  0  0
 11 12  1  0  0  0  0
 11 13  1  0  0  0  0
 11 14  1  0  0  0  0
  9 10  1  0  0  0  0
  9 11  1  0  0  0  0
  9 16  1  0  0  0  0
  7  8  1  0  0  0  0
  7  9  1  0  0  0  0
 20 21  1  0  0  0  0
 20 22  1  0  0  0  0
 20 23  1  0  0  0  0
 18 19  1  0  0  0  0
 18 20  1  0  0  0  0
M  END
$$$$
default_name
  -OEChem-01062215323D

 23 22  0     1  0  0  0  0  0999 V2000
   -2.6857   -3.6684    0.8743 H   0  0  0  0  0  0  0  0  0  0  0  0
   -2.6617   -2.6474    0.4953 C   0  0  0  0  0  0  0  0  0  0  0  0
   -3.2657   -2.0054    1.1353 H   0  0  0  0  0  0  0  0  0  0  0  0
   -3.0477   -2.6254   -0.5217 H   0  0  0  0  0  0  0  0  0  0  0  0
   -1.2337   -2.1564    0.4993 C   0  0  0  0  0  0  0  0  0  0  0  0
   -0.3327   -2.8864    0.8893 O   0  0  0  0  0  0  0  0  0  0  0  0
   -1.0277   -0.9164    0.0623 N   0  0  0  0  0  0  0  0  0  0  0  0
   -1.8237   -0.3604   -0.2157 H   0  0  0  0  0  0  0  0  0  0  0  0
    0.2713   -0.2414    0.0463 C   0  0  1  0  0  0  0  0  0  0  0  0
    0.1987    0.6740    0.6369 H   0  0  0  0  0  0  0  0  0  0  0  0
    1.3093   -1.1643    0.7060 C   0  0  0  0  0  0  0  0  0  0  0  0
    1.2931   -2.1322    0.2000 H   0  0  0  0  0  0  0  0  0  0  0  0
    2.3045   -0.7283    0.5984 H   0  0  0  0  0  0  0  0  0  0  0  0
    0.9352   -1.4224    2.4651 S   0  0  0  0  0  0  0  0  0  0  0  0
    1.8976   -2.3201    2.7089 H   0  0  0  0  0  0  0  0  0  0  0  0
    0.6478    0.1504   -1.3972 C   0  0  0  0  0  0  0  0  0  0  0  0
    0.2450   -0.5282   -2.3425 O   0  0  0  0  0  0  0  0  0  0  0  0
    1.4069    1.2386   -1.5703 N   0  0  0  0  0  0  0  0  0  0  0  0
    1.7480    1.7022   -0.7406 H   0  0  0  0  0  0  0  0  0  0  0  0
    1.8407    1.7435   -2.8717 C   0  0  0  0  0  0  0  0  0  0  0  0
    0.9822    1.8219   -3.5426 H   0  0  0  0  0  0  0  0  0  0  0  0
    2.3007    2.7261   -2.7607 H   0  0  0  0  0  0  0  0  0  0  0  0
    2.5637    1.0536   -3.3101 H   0  0  0  0  0  0  0  0  0  0  0  0
  5  6  2  0  0  0  0
  5  7  1  0  0  0  0
  2  3  1  0  0  0  0
  2  4  1  0  0  0  0
  2  5  1  0  0  0  0
  1  2  1  0  0  0  0
 16 17  2  0  0  0  0
 16 18  1  0  0  0  0
 14 15  1  0  0  0  0
 11 12  1  0  0  0  0
 11 13  1  0  0  0  0
 11 14  1  0  0  0  0
  9 10  1  0  0  0  0
  9 11  1  0  0  0  0
  9 16  1  0  0  0  0
  7  8  1  0  0  0  0
  7  9  1  0  0  0  0
 20 21  1  0  0  0  0
 20 22  1  0  0  0  0
 20 23  1  0  0  0  0
 18 19  1  0  0  0  0
 18 20  1  0  0  0  0
M  END
$$$$
default_name
  -OEChem-01062215323D

 23 22  0     1  0  0  0  0  0999 V2000
   -2.6857   -3.6684    0.8743 H   0  0  0  0  0  0  0  0  0  0  0  0
   -2.6617   -2.6474    0.4953 C   0  0  0  0  0  0  0  0  0  0  0  0
   -3.2657   -2.0054    1.1353 H   0  0  0  0  0  0  0  0  0  0  0  0
   -3.0477   -2.6254   -0.5217 H   0  0  0  0  0  0  0  0  0  0  0  0
   -1.2337   -2.1564    0.4993 C   0  0  0  0  0  0  0  0  0  0  0  0
   -0.3327   -2.8864    0.8893 O   0  0  0  0  0  0  0  0  0  0  0  0
   -1.0277   -0.9164    0.0623 N   0  0  0  0  0  0  0  0  0  0  0  0
   -1.8237   -0.3604   -0.2157 H   0  0  0  0  0  0  0  0  0  0  0  0
    0.2713   -0.2414    0.0463 C   0  0  1  0  0  0  0  0  0  0  0  0
    0.1987    0.6740    0.6369 H   0  0  0  0  0  0  0  0  0  0  0  0
    1.3093   -1.1643    0.7060 C   0  0  0  0  0  0  0  0  0  0  0  0
    1.2931   -2.1322    0.2000 H   0  0  0  0  0  0  0  0  0  0  0  0
    2.3045   -0.7283    0.5984 H   0  0  0  0  0  0  0  0  0  0  0  0
    0.9352   -1.4224    2.4651 S   0  0  0  0  0  0  0  0  0  0  0  0
    1.8976   -2.3201    2.7089 H   0  0  0  0  0  0  0  0  0  0  0  0
    0.6478    0.1504   -1.3972 C   0  0  0  0  0  0  0  0  0  0  0  0
    0.0373   -0.3425   -2.3463 O   0  0  0  0  0  0  0  0  0  0  0  0
    1.6384    1.0340   -1.5654 N   0  0  0  0  0  0  0  0  0  0  0  0
    2.1300    1.3417   -0.7388 H   0  0  0  0  0  0  0  0  0  0  0  0
    2.1062    1.5114   -2.8654 C   0  0  0  0  0  0  0  0  0  0  0  0
    1.2555    1.8412   -3.4661 H   0  0  0  0  0  0  0  0  0  0  0  0
    2.7981    2.3443   -2.7347 H   0  0  0  0  0  0  0  0  0  0  0  0
    2.6121    0.7011   -3.3931 H   0  0  0  0  0  0  0  0  0  0  0  0
  5  6  2  0  0  0  0
  5  7  1  0  0  0  0
  2  3  1  0  0  0  0
  2  4  1  0  0  0  0
  2  5  1  0  0  0  0
  1  2  1  0  0  0  0
 16 17  2  0  0  0  0
 16 18  1  0  0  0  0
 14 15  1  0  0  0  0
 11 12  1  0  0  0  0
 11 13  1  0  0  0  0
 11 14  1  0  0  0  0
  9 10  1  0  0  0  0
  9 11  1  0  0  0  0
  9 16  1  0  0  0  0
  7  8  1  0  0  0  0
  7  9  1  0  0  0  0
 20 21  1  0  0  0  0
 20 22  1  0  0  0  0
 20 23  1  0  0  0  0
 18 19  1  0  0  0  0
 18 20  1  0  0  0  0
M  END
$$$$
default_name
  -OEChem-01062215323D

 23 22  0     1  0  0  0  0  0999 V2000
   -2.6857   -3.6684    0.8743 H   0  0  0  0  0  0  0  0  0  0  0  0
   -2.6617   -2.6474    0.4953 C   0  0  0  0  0  0  0  0  0  0  0  0
   -3.2657   -2.0054    1.1353 H   0  0  0  0  0  0  0  0  0  0  0  0
   -3.0477   -2.6254   -0.5217 H   0  0  0  0  0  0  0  0  0  0  0  0
   -1.2337   -2.1564    0.4993 C   0  0  0  0  0  0  0  0  0  0  0  0
   -0.3327   -2.8864    0.8893 O   0  0  0  0  0  0  0  0  0  0  0  0
   -1.0277   -0.9164    0.0623 N   0  0  0  0  0  0  0  0  0  0  0  0
   -1.8237   -0.3604   -0.2157 H   0  0  0  0  0  0  0  0  0  0  0  0
    0.2713   -0.2414    0.0463 C   0  0  1  0  0  0  0  0  0  0  0  0
    0.2848    0.5129    0.8355 H   0  0  0  0  0  0  0  0  0  0  0  0
    1.3648   -1.2796    0.3475 C   0  0  0  0  0  0  0  0  0  0  0  0
    1.2723   -2.1055   -0.3614 H   0  0  0  0  0  0  0  0  0  0  0  0
    2.3473   -0.8195    0.2246 H   0  0  0  0  0  0  0  0  0  0  0  0
    1.1984   -1.9392    2.0323 S   0  0  0  0  0  0  0  0  0  0  0  0
    2.1678   -2.8582    1.9466 H   0  0  0  0  0  0  0  0  0  0  0  0
    0.4799    0.4758   -1.3032 C   0  0  0  0  0  0  0  0  0  0  0  0
   -0.3957    0.4245   -2.1675 O   0  0  0  0  0  0  0  0  0  0  0  0
    1.6242    1.1455   -1.4832 N   0  0  0  0  0  0  0  0  0  0  0  0
    2.3165    1.0851   -0.7506 H   0  0  0  0  0  0  0  0  0  0  0  0
    1.9671    1.8810   -2.6991 C   0  0  0  0  0  0  0  0  0  0  0  0
    1.1430    2.5424   -2.9758 H   0  0  0  0  0  0  0  0  0  0  0  0
    2.8670    2.4760   -2.5387 H   0  0  0  0  0  0  0  0  0  0  0  0
    2.1395    1.1784   -3.5162 H   0  0  0  0  0  0  0  0  0  0  0  0
  5  6  2  0  0  0  0
  5  7  1  0  0  0  0
  2  3  1  0  0  0  0
  2  4  1  0  0  0  0
  2  5  1  0  0  0  0
  1  2  1  0  0  0  0
 16 17  2  0  0  0  0
 16 18  1  0  0  0  0
 14 15  1  0  0  0  0
 11 12  1  0  0  0  0
 11 13  1  0  0  0  0
 11 14  1  0  0  0  0
  9 10  1  0  0  0  0
  9 11  1  0  0  0  0
  9 16  1  0  0  0  0
  7  8  1  0  0  0  0
  7  9  1  0  0  0  0
 20 21  1  0  0  0  0
 20 22  1  0  0  0  0
 20 23  1  0  0  0  0
 18 19  1  0  0  0  0
 18 20  1  0  0  0  0
M  END
$$$$
default_name
  -OEChem-01062215323D

 23 22  0     1  0  0  0  0  0999 V2000
   -2.6857   -3.6684    0.8743 H   0  0  0  0  0  0  0  0  0  0  0  0
   -2.6617   -2.6474    0.4953 C   0  0  0  0  0  0  0  0  0  0  0  0
   -3.2657   -2.0054    1.1353 H   0  0  0  0  0  0  0  0  0  0  0  0
   -3.0477   -2.6254   -0.5217 H   0  0  0  0  0  0  0  0  0  0  0  0
   -1.2337   -2.1564    0.4993 C   0  0  0  0  0  0  0  0  0  0  0  0
   -0.3327   -2.8864    0.8893 O   0  0  0  0  0  0  0  0  0  0  0  0
   -1.0277   -0.9164    0.0623 N   0  0  0  0  0  0  0  0  0  0  0  0
   -1.8237   -0.3604   -0.2157 H   0  0  0  0  0  0  0  0  0  0  0  0
    0.2713   -0.2414    0.0463 C   0  0  1  0  0  0  0  0  0  0  0  0
    0.2848    0.5129    0.8355 H   0  0  0  0  0  0  0  0  0  0  0  0
    1.3648   -1.2796    0.3475 C   0  0  0  0  0  0  0  0  0  0  0  0
    1.2723   -2.1055   -0.3614 H   0  0  0  0  0  0  0  0  0  0  0  0
    2.3473   -0.8195    0.2246 H   0  0  0  0  0  0  0  0  0  0  0  0
    1.1984   -1.9392    2.0323 S   0  0  0  0  0  0  0  0  0  0  0  0
    2.1678   -2.8582    1.9466 H   0  0  0  0  0  0  0  0  0  0  0  0
    0.4799    0.4758   -1.3032 C   0  0  0  0  0  0  0  0  0  0  0  0
   -0.4787    0.6645   -2.0528 O   0  0  0  0  0  0  0  0  0  0  0  0
    1.7181    0.8797   -1.6100 N   0  0  0  0  0  0  0  0  0  0  0  0
    2.4586    0.6299   -0.9706 H   0  0  0  0  0  0  0  0  0  0  0  0
    2.0762    1.5781   -2.8432 C   0  0  0  0  0  0  0  0  0  0  0  0
    1.3987    2.4202   -3.0012 H   0  0  0  0  0  0  0  0  0  0  0  0
    3.1006    1.9475   -2.7835 H   0  0  0  0  0  0  0  0  0  0  0  0
    1.9872    0.8956   -3.6901 H   0  0  0  0  0  0  0  0  0  0  0  0
  5  6  2  0  0  0  0
  5  7  1  0  0  0  0
  2  3  1  0  0  0  0
  2  4  1  0  0  0  0
  2  5  1  0  0  0  0
  1  2  1  0  0  0  0
 16 17  2  0  0  0  0
 16 18  1  0  0  0  0
 14 15  1  0  0  0  0
 11 12  1  0  0  0  0
 11 13  1  0  0  0  0
 11 14  1  0  0  0  0
  9 10  1  0  0  0  0
  9 11  1  0  0  0  0
  9 16  1  0  0  0  0
  7  8  1  0  0  0  0
  7  9  1  0  0  0  0
 20 21  1  0  0  0  0
 20 22  1  0  0  0  0
 20 23  1  0  0  0  0
 18 19  1  0  0  0  0
 18 20  1  0  0  0  0
M  END
$$$$
default_name
  -OEChem-01062215323D

 23 22  0     1  0  0  0  0  0999 V2000
   -2.6857   -3.6684    0.8743 H   0  0  0  0  0  0  0  0  0  0  0  0
   -2.6617   -2.6474    0.4953 C   0  0  0  0  0  0  0  0  0  0  0  0
   -3.2657   -2.0054    1.1353 H   0  0  0  0  0  0  0  0  0  0  0  0
   -3.0477   -2.6254   -0.5217 H   0  0  0  0  0  0  0  0  0  0  0  0
   -1.2337   -2.1564    0.4993 C   0  0  0  0  0  0  0  0  0  0  0  0
   -0.3327   -2.8864    0.8893 O   0  0  0  0  0  0  0  0  0  0  0  0
   -1.0277   -0.9164    0.0623 N   0  0  0  0  0  0  0  0  0  0  0  0
   -1.8237   -0.3604   -0.2157 H   0  0  0  0  0  0  0  0  0  0  0  0
    0.2713   -0.2414    0.0463 C   0  0  1  0  0  0  0  0  0  0  0  0
    0.2848    0.5129    0.8355 H   0  0  0  0  0  0  0  0  0  0  0  0
    1.3648   -1.2796    0.3475 C   0  0  0  0  0  0  0  0  0  0  0  0
    1.2723   -2.1055   -0.3614 H   0  0  0  0  0  0  0  0  0  0  0  0
    2.3473   -0.8195    0.2246 H   0  0  0  0  0  0  0  0  0  0  0  0
    1.1984   -1.9392    2.0323 S   0  0  0  0  0  0  0  0  0  0  0  0
    2.1678   -2.8582    1.9466 H   0  0  0  0  0  0  0  0  0  0  0  0
    0.4799    0.4758   -1.3032 C   0  0  0  0  0  0  0  0  0  0  0  0
   -0.4907    0.9111   -1.9235 O   0  0  0  0  0  0  0  0  0  0  0  0
    1.7333    0.6062   -1.7530 N   0  0  0  0  0  0  0  0  0  0  0  0
    2.4663    0.1657   -1.2161 H   0  0  0  0  0  0  0  0  0  0  0  0
    2.0956    1.2659   -3.0062 C   0  0  0  0  0  0  0  0  0  0  0  0
    1.6149    2.2452   -3.0609 H   0  0  0  0  0  0  0  0  0  0  0  0
    3.1772    1.3927   -3.0666 H   0  0  0  0  0  0  0  0  0  0  0  0
    1.7550    0.6629   -3.8496 H   0  0  0  0  0  0  0  0  0  0  0  0
  5  6  2  0  0  0  0
  5  7  1  0  0  0  0
  2  3  1  0  0  0  0
  2  4  1  0  0  0  0
  2  5  1  0  0  0  0
  1  2  1  0  0  0  0
 16 17  2  0  0  0  0
 16 18  1  0  0  0  0
 14 15  1  0  0  0  0
 11 12  1  0  0  0  0
 11 13  1  0  0  0  0
 11 14  1  0  0  0  0
  9 10  1  0  0  0  0
  9 11  1  0  0  0  0
  9 16  1  0  0  0  0
  7  8  1  0  0  0  0
  7  9  1  0  0  0  0
 20 21  1  0  0  0  0
 20 22  1  0  0  0  0
 20 23  1  0  0  0  0
 18 19  1  0  0  0  0
 18 20  1  0  0  0  0
M  END
$$$$
default_name
  -OEChem-01062215323D

 23 22  0     1  0  0  0  0  0999 V2000
   -2.6857   -3.6684    0.8743 H   0  0  0  0  0  0  0  0  0  0  0  0
   -2.6617   -2.6474    0.4953 C   0  0  0  0  0  0  0  0  0  0  0  0
   -3.2657   -2.0054    1.1353 H   0  0  0  0  0  0  0  0  0  0  0  0
   -3.0477   -2.6254   -0.5217 H   0  0  0  0  0  0  0  0  0  0  0  0
   -1.2337   -2.1564    0.4993 C   0  0  0  0  0  0  0  0  0  0  0  0
   -0.3327   -2.8864    0.8893 O   0  0  0  0  0  0  0  0  0  0  0  0
   -1.0277   -0.9164    0.0623 N   0  0  0  0  0  0  0  0  0  0  0  0
   -1.8237   -0.3604   -0.2157 H   0  0  0  0  0  0  0  0  0  0  0  0
    0.2713   -0.2414    0.0463 C   0  0  1  0  0  0  0  0  0  0  0  0
    0.2848    0.5129    0.8355 H   0  0  0  0  0  0  0  0  0  0  0  0
    1.3648   -1.2796    0.3475 C   0  0  0  0  0  0  0  0  0  0  0  0
    1.2723   -2.1055   -0.3614 H   0  0  0  0  0  0  0  0  0  0  0  0
    2.3473   -0.8195    0.2246 H   0  0  0  0  0  0  0  0  0  0  0  0
    1.1984   -1.9392    2.0323 S   0  0  0  0  0  0  0  0  0  0  0  0
    2.1678   -2.8582    1.9466 H   0  0  0  0  0  0  0  0  0  0  0  0
    0.4799    0.4758   -1.3032 C   0  0  0  0  0  0  0  0  0  0  0  0
   -0.4309    1.1475   -1.7887 O   0  0  0  0  0  0  0  0  0  0  0  0
    1.6688    0.3436   -1.9026 N   0  0  0  0  0  0  0  0  0  0  0  0
    2.3391   -0.2758   -1.4704 H   0  0  0  0  0  0  0  0  0  0  0  0
    2.0241    0.9655   -3.1768 C   0  0  0  0  0  0  0  0  0  0  0  0
    1.7769    2.0292   -3.1506 H   0  0  0  0  0  0  0  0  0  0  0  0
    3.0914    0.8494   -3.3686 H   0  0  0  0  0  0  0  0  0  0  0  0
    1.4589    0.4963   -3.9839 H   0  0  0  0  0  0  0  0  0  0  0  0
  5  6  2  0  0  0  0
  5  7  1  0  0  0  0
  2  3  1  0  0  0  0
  2  4  1  0  0  0  0
  2  5  1  0  0  0  0
  1  2  1  0  0  0  0
 16 17  2  0  0  0  0
 16 18  1  0  0  0  0
 14 15  1  0  0  0  0
 11 12  1  0  0  0  0
 11 13  1  0  0  0  0
 11 14  1  0  0  0  0
  9 10  1  0  0  0  0
  9 11  1  0  0  0  0
  9 16  1  0  0  0  0
  7  8  1  0  0  0  0
  7  9  1  0  0  0  0
 20 21  1  0  0  0  0
 20 22  1  0  0  0  0
 20 23  1  0  0  0  0
 18 19  1  0  0  0  0
 18 20  1  0  0  0  0
M  END
$$$$
default_name
  -OEChem-01062215323D

 23 22  0     1  0  0  0  0  0999 V2000
   -2.6857   -3.6684    0.8743 H   0  0  0  0  0  0  0  0  0  0  0  0
   -2.6617   -2.6474    0.4953 C   0  0  0  0  0  0  0  0  0  0  0  0
   -3.2657   -2.0054    1.1353 H   0  0  0  0  0  0  0  0  0  0  0  0
   -3.0477   -2.6254   -0.5217 H   0  0  0  0  0  0  0  0  0  0  0  0
   -1.2337   -2.1564    0.4993 C   0  0  0  0  0  0  0  0  0  0  0  0
   -0.3327   -2.8864    0.8893 O   0  0  0  0  0  0  0  0  0  0  0  0
   -1.0277   -0.9164    0.0623 N   0  0  0  0  0  0  0  0  0  0  0  0
   -1.8237   -0.3604   -0.2157 H   0  0  0  0  0  0  0  0  0  0  0  0
    0.2713   -0.2414    0.0463 C   0  0  1  0  0  0  0  0  0  0  0  0
    0.2848    0.5129    0.8355 H   0  0  0  0  0  0  0  0  0  0  0  0
    1.3648   -1.2796    0.3475 C   0  0  0  0  0  0  0  0  0  0  0  0
    1.2723   -2.1055   -0.3614 H   0  0  0  0  0  0  0  0  0  0  0  0
    2.3473   -0.8195    0.2246 H   0  0  0  0  0  0  0  0  0  0  0  0
    1.1984   -1.9392    2.0323 S   0  0  0  0  0  0  0  0  0  0  0  0
    2.1678   -2.8582    1.9466 H   0  0  0  0  0  0  0  0  0  0  0  0
    0.4799    0.4758   -1.3032 C   0  0  0  0  0  0  0  0  0  0  0  0
   -0.3033    1.3576   -1.6573 O   0  0  0  0  0  0  0  0  0  0  0  0
    1.5291    0.1097   -2.0485 N   0  0  0  0  0  0  0  0  0  0  0  0
    2.0856   -0.6646   -1.7163 H   0  0  0  0  0  0  0  0  0  0  0  0
    1.8664    0.6977   -3.3436 C   0  0  0  0  0  0  0  0  0  0  0  0
    1.8737    1.7871   -3.2643 H   0  0  0  0  0  0  0  0  0  0  0  0
    2.8492    0.3546   -3.6690 H   0  0  0  0  0  0  0  0  0  0  0  0
    1.1190    0.4071   -4.0838 H   0  0  0  0  0  0  0  0  0  0  0  0
  5  6  2  0  0  0  0
  5  7  1  0  0  0  0
  2  3  1  0  0  0  0
  2  4  1  0  0  0  0
  2  5  1  0  0  0  0
  1  2  1  0  0  0  0
 16 17  2  0  0  0  0
 16 18  1  0  0  0  0
 14 15  1  0  0  0  0
 11 12  1  0  0  0  0
 11 13  1  0  0  0  0
 11 14  1  0  0  0  0
  9 10  1  0  0  0  0
  9 11  1  0  0  0  0
  9 16  1  0  0  0  0
  7  8  1  0  0  0  0
  7  9  1  0  0  0  0
 20 21  1  0  0  0  0
 20 22  1  0  0  0  0
 20 23  1  0  0  0  0
 18 19  1  0  0  0  0
 18 20  1  0  0  0  0
M  END
$$$$
default_name
  -OEChem-01062215323D

 23 22  0     1  0  0  0  0  0999 V2000
   -2.6857   -3.6684    0.8743 H   0  0  0  0  0  0  0  0  0  0  0  0
   -2.6617   -2.6474    0.4953 C   0  0  0  0  0  0  0  0  0  0  0  0
   -3.2657   -2.0054    1.1353 H   0  0  0  0  0  0  0  0  0  0  0  0
   -3.0477   -2.6254   -0.5217 H   0  0  0  0  0  0  0  0  0  0  0  0
   -1.2337   -2.1564    0.4993 C   0  0  0  0  0  0  0  0  0  0  0  0
   -0.3327   -2.8864    0.8893 O   0  0  0  0  0  0  0  0  0  0  0  0
   -1.0277   -0.9164    0.0623 N   0  0  0  0  0  0  0  0  0  0  0  0
   -1.8237   -0.3604   -0.2157 H   0  0  0  0  0  0  0  0  0  0  0  0
    0.2713   -0.2414    0.0463 C   0  0  1  0  0  0  0  0  0  0  0  0
    0.2848    0.5129    0.8355 H   0  0  0  0  0  0  0  0  0  0  0  0
    1.3648   -1.2796    0.3475 C   0  0  0  0  0  0  0  0  0  0  0  0
    1.2723   -2.1055   -0.3614 H   0  0  0  0  0  0  0  0  0  0  0  0
    2.3473   -0.8195    0.2246 H   0  0  0  0  0  0  0  0  0  0  0  0
    1.1984   -1.9392    2.0323 S   0  0  0  0  0  0  0  0  0  0  0  0
    2.1678   -2.8582    1.9466 H   0  0  0  0  0  0  0  0  0  0  0  0
    0.4799    0.4758   -1.3032 C   0  0  0  0  0  0  0  0  0  0  0  0
   -0.1168    1.5270   -1.5384 O   0  0  0  0  0  0  0  0  0  0  0  0
    1.3236   -0.0794   -2.1807 N   0  0  0  0  0  0  0  0  0  0  0  0
    1.7232   -0.9741   -1.9368 H   0  0  0  0  0  0  0  0  0  0  0  0
    1.6334    0.4804   -3.4951 C   0  0  0  0  0  0  0  0  0  0  0  0
    1.8987    1.5353   -3.3943 H   0  0  0  0  0  0  0  0  0  0  0  0
    2.4670   -0.0580   -3.9474 H   0  0  0  0  0  0  0  0  0  0  0  0
    0.7585    0.4015   -4.1426 H   0  0  0  0  0  0  0  0  0  0  0  0
  5  6  2  0  0  0  0
  5  7  1  0  0  0  0
  2  3  1  0  0  0  0
  2  4  1  0  0  0  0
  2  5  1  0  0  0  0
  1  2  1  0  0  0  0
 16 17  2  0  0  0  0
 16 18  1  0  0  0  0
 14 15  1  0  0  0  0
 11 12  1  0  0  0  0
 11 13  1  0  0  0  0
 11 14  1  0  0  0  0
  9 10  1  0  0  0  0
  9 11  1  0  0  0  0
  9 16  1  0  0  0  0
  7  8  1  0  0  0  0
  7  9  1  0  0  0  0
 20 21  1  0  0  0  0
 20 22  1  0  0  0  0
 20 23  1  0  0  0  0
 18 19  1  0  0  0  0
 18 20  1  0  0  0  0
M  END
$$$$
default_name
  -OEChem-01062215323D

 23 22  0     1  0  0  0  0  0999 V2000
   -2.6857   -3.6684    0.8743 H   0  0  0  0  0  0  0  0  0  0  0  0
   -2.6617   -2.6474    0.4953 C   0  0  0  0  0  0  0  0  0  0  0  0
   -3.2657   -2.0054    1.1353 H   0  0  0  0  0  0  0  0  0  0  0  0
   -3.0477   -2.6254   -0.5217 H   0  0  0  0  0  0  0  0  0  0  0  0
   -1.2337   -2.1564    0.4993 C   0  0  0  0  0  0  0  0  0  0  0  0
   -0.3327   -2.8864    0.8893 O   0  0  0  0  0  0  0  0  0  0  0  0
   -1.0277   -0.9164    0.0623 N   0  0  0  0  0  0  0  0  0  0  0  0
   -1.8237   -0.3604   -0.2157 H   0  0  0  0  0  0  0  0  0  0  0  0
    0.2713   -0.2414    0.0463 C   0  0  1  0  0  0  0  0  0  0  0  0
    0.2848    0.5129    0.8355 H   0  0  0  0  0  0  0  0  0  0  0  0
    1.3648   -1.2796    0.3475 C   0  0  0  0  0  0  0  0  0  0  0  0
    1.2723   -2.1055   -0.3614 H   0  0  0  0  0  0  0  0  0  0  0  0
    2.3473   -0.8195    0.2246 H   0  0  0  0  0  0  0  0  0  0  0  0
    1.1984   -1.9392    2.0323 S   0  0  0  0  0  0  0  0  0  0  0  0
    2.1678   -2.8582    1.9466 H   0  0  0  0  0  0  0  0  0  0  0  0
    0.4799    0.4758   -1.3032 C   0  0  0  0  0  0  0  0  0  0  0  0
    0.1161    1.6443   -1.4401 O   0  0  0  0  0  0  0  0  0  0  0  0
    1.0664   -0.2110   -2.2904 N   0  0  0  0  0  0  0  0  0  0  0  0
    1.2765   -1.1833   -2.1170 H   0  0  0  0  0  0  0  0  0  0  0  0
    1.3409    0.3287   -3.6209 C   0  0  0  0  0  0  0  0  0  0  0  0
    1.8501    1.2909   -3.5317 H   0  0  0  0  0  0  0  0  0  0  0  0
    1.9709   -0.3603   -4.1847 H   0  0  0  0  0  0  0  0  0  0  0  0
    0.4019    0.4797   -4.1561 H   0  0  0  0  0  0  0  0  0  0  0  0
  5  6  2  0  0  0  0
  5  7  1  0  0  0  0
  2  3  1  0  0  0  0
  2  4  1  0  0  0  0
  2  5  1  0  0  0  0
  1  2  1  0  0  0  0
 16 17  2  0  0  0  0
 16 18  1  0  0  0  0
 14 15  1  0  0  0  0
 11 12  1  0  0  0  0
 11 13  1  0  0  0  0
 11 14  1  0  0  0  0
  9 10  1  0  0  0  0
  9 11  1  0  0  0  0
  9 16  1  0  0  0  0
  7  8  1  0  0  0  0
  7  9  1  0  0  0  0
 20 21  1  0  0  0  0
 20 22  1  0  0  0  0
 20 23  1  0  0  0  0
 18 19  1  0  0  0  0
 18 20  1  0  0  0  0
M  END
$$$$
default_name
  -OEChem-01062215323D

 23 22  0     1  0  0  0  0  0999 V2000
   -2.6857   -3.6684    0.8743 H   0  0  0  0  0  0  0  0  0  0  0  0
   -2.6617   -2.6474    0.4953 C   0  0  0  0  0  0  0  0  0  0  0  0
   -3.2657   -2.0054    1.1353 H   0  0  0  0  0  0  0  0  0  0  0  0
   -3.0477   -2.6254   -0.5217 H   0  0  0  0  0  0  0  0  0  0  0  0
   -1.2337   -2.1564    0.4993 C   0  0  0  0  0  0  0  0  0  0  0  0
   -0.3327   -2.8864    0.8893 O   0  0  0  0  0  0  0  0  0  0  0  0
   -1.0277   -0.9164    0.0623 N   0  0  0  0  0  0  0  0  0  0  0  0
   -1.8237   -0.3604   -0.2157 H   0  0  0  0  0  0  0  0  0  0  0  0
    0.2713   -0.2414    0.0463 C   0  0  1  0  0  0  0  0  0  0  0  0
    0.2848    0.5129    0.8355 H   0  0  0  0  0  0  0  0  0  0  0  0
    1.3648   -1.2796    0.3475 C   0  0  0  0  0  0  0  0  0  0  0  0
    1.2723   -2.1055   -0.3614 H   0  0  0  0  0  0  0  0  0  0  0  0
    2.3473   -0.8195    0.2246 H   0  0  0  0  0  0  0  0  0  0  0  0
    1.1984   -1.9392    2.0323 S   0  0  0  0  0  0  0  0  0  0  0  0
    2.1678   -2.8582    1.9466 H   0  0  0  0  0  0  0  0  0  0  0  0
    0.4799    0.4758   -1.3032 C   0  0  0  0  0  0  0  0  0  0  0  0
    0.3794    1.7014   -1.3691 O   0  0  0  0  0  0  0  0  0  0  0  0
    0.7749   -0.2759   -2.3700 N   0  0  0  0  0  0  0  0  0  0  0  0
    0.7759   -1.2779   -2.2446 H   0  0  0  0  0  0  0  0  0  0  0  0
    1.0088    0.2527   -3.7126 C   0  0  0  0  0  0  0  0  0  0  0  0
    1.7314    1.0707   -3.6671 H   0  0  0  0  0  0  0  0  0  0  0  0
    1.3947   -0.5316   -4.3648 H   0  0  0  0  0  0  0  0  0  0  0  0
    0.0735    0.6365   -4.1235 H   0  0  0  0  0  0  0  0  0  0  0  0
  5  6  2  0  0  0  0
  5  7  1  0  0  0  0
  2  3  1  0  0  0  0
  2  4  1  0  0  0  0
  2  5  1  0  0  0  0
  1  2  1  0  0  0  0
 16 17  2  0  0  0  0
 16 18  1  0  0  0  0
 14 15  1  0  0  0  0
 11 12  1  0  0  0  0
 11 13  1  0  0  0  0
 11 14  1  0  0  0  0
  9 10  1  0  0  0  0
  9 11  1  0  0  0  0
  9 16  1  0  0  0  0
  7  8  1  0  0  0  0
  7  9  1  0  0  0  0
 20 21  1  0  0  0  0
 20 22  1  0  0  0  0
 20 23  1  0  0  0  0
 18 19  1  0  0  0  0
 18 20  1  0  0  0  0
M  END
$$$$
default_name
  -OEChem-01062215323D

 23 22  0     1  0  0  0  0  0999 V2000
   -2.6857   -3.6684    0.8743 H   0  0  0  0  0  0  0  0  0  0  0  0
   -2.6617   -2.6474    0.4953 C   0  0  0  0  0  0  0  0  0  0  0  0
   -3.2657   -2.0054    1.1353 H   0  0  0  0  0  0  0  0  0  0  0  0
   -3.0477   -2.6254   -0.5217 H   0  0  0  0  0  0  0  0  0  0  0  0
   -1.2337   -2.1564    0.4993 C   0  0  0  0  0  0  0  0  0  0  0  0
   -0.3327   -2.8864    0.8893 O   0  0  0  0  0  0  0  0  0  0  0  0
   -1.0277   -0.9164    0.0623 N   0  0  0  0  0  0  0  0  0  0  0  0
   -1.8237   -0.3604   -0.2157 H   0  0  0  0  0  0  0  0  0  0  0  0
    0.2713   -0.2414    0.0463 C   0  0  1  0  0  0  0  0  0  0  0  0
    0.2848    0.5129    0.8355 H   0  0  0  0  0  0  0  0  0  0  0  0
    1.3648   -1.2796    0.3475 C   0  0  0  0  0  0  0  0  0  0  0  0
    1.2723   -2.1055   -0.3614 H   0  0  0  0  0  0  0  0  0  0  0  0
    2.3473   -0.8195    0.2246 H   0  0  0  0  0  0  0  0  0  0  0  0
    1.1984   -1.9392    2.0323 S   0  0  0  0  0  0  0  0  0  0  0  0
    2.1678   -2.8582    1.9466 H   0  0  0  0  0  0  0  0  0  0  0  0
    0.4799    0.4758   -1.3032 C   0  0  0  0  0  0  0  0  0  0  0  0
    0.6553    1.6944   -1.3301 O   0  0  0  0  0  0  0  0  0  0  0  0
    0.4691   -0.2699   -2.4140 N   0  0  0  0  0  0  0  0  0  0  0  0
    0.2556   -1.2514   -2.3110 H   0  0  0  0  0  0  0  0  0  0  0  0
    0.6599    0.2578   -3.7639 C   0  0  0  0  0  0  0  0  0  0  0  0
    1.5505    0.8896   -3.7913 H   0  0  0  0  0  0  0  0  0  0  0  0
    0.7777   -0.5603   -4.4754 H   0  0  0  0  0  0  0  0  0  0  0  0
   -0.2043    0.8612   -4.0470 H   0  0  0  0  0  0  0  0  0  0  0  0
  5  6  2  0  0  0  0
  5  7  1  0  0  0  0
  2  3  1  0  0  0  0
  2  4  1  0  0  0  0
  2  5  1  0  0  0  0
  1  2  1  0  0  0  0
 16 17  2  0  0  0  0
 16 18  1  0  0  0  0
 14 15  1  0  0  0  0
 11 12  1  0  0  0  0
 11 13  1  0  0  0  0
 11 14  1  0  0  0  0
  9 10  1  0  0  0  0
  9 11  1  0  0  0  0
  9 16  1  0  0  0  0
  7  8  1  0  0  0  0
  7  9  1  0  0  0  0
 20 21  1  0  0  0  0
 20 22  1  0  0  0  0
 20 23  1  0  0  0  0
 18 19  1  0  0  0  0
 18 20  1  0  0  0  0
M  END
$$$$
default_name
  -OEChem-01062215323D

 23 22  0     1  0  0  0  0  0999 V2000
   -2.6857   -3.6684    0.8743 H   0  0  0  0  0  0  0  0  0  0  0  0
   -2.6617   -2.6474    0.4953 C   0  0  0  0  0  0  0  0  0  0  0  0
   -3.2657   -2.0054    1.1353 H   0  0  0  0  0  0  0  0  0  0  0  0
   -3.0477   -2.6254   -0.5217 H   0  0  0  0  0  0  0  0  0  0  0  0
   -1.2337   -2.1564    0.4993 C   0  0  0  0  0  0  0  0  0  0  0  0
   -0.3327   -2.8864    0.8893 O   0  0  0  0  0  0  0  0  0  0  0  0
   -1.0277   -0.9164    0.0623 N   0  0  0  0  0  0  0  0  0  0  0  0
   -1.8237   -0.3604   -0.2157 H   0  0  0  0  0  0  0  0  0  0  0  0
    0.2713   -0.2414    0.0463 C   0  0  1  0  0  0  0  0  0  0  0  0
    0.2848    0.5129    0.8355 H   0  0  0  0  0  0  0  0  0  0  0  0
    1.3648   -1.2796    0.3475 C   0  0  0  0  0  0  0  0  0  0  0  0
    1.2723   -2.1055   -0.3614 H   0  0  0  0  0  0  0  0  0  0  0  0
    2.3473   -0.8195    0.2246 H   0  0  0  0  0  0  0  0  0  0  0  0
    1.1984   -1.9392    2.0323 S   0  0  0  0  0  0  0  0  0  0  0  0
    2.1678   -2.8582    1.9466 H   0  0  0  0  0  0  0  0  0  0  0  0
    0.4799    0.4758   -1.3032 C   0  0  0  0  0  0  0  0  0  0  0  0
    0.9248    1.6238   -1.3260 O   0  0  0  0  0  0  0  0  0  0  0  0
    0.1698   -0.1933   -2.4196 N   0  0  0  0  0  0  0  0  0  0  0  0
   -0.2490   -1.1058   -2.3115 H   0  0  0  0  0  0  0  0  0  0  0  0
    0.3178    0.3434   -3.7712 C   0  0  0  0  0  0  0  0  0  0  0  0
    1.3199    0.7600   -3.8959 H   0  0  0  0  0  0  0  0  0  0  0  0
    0.1618   -0.4444   -4.5090 H   0  0  0  0  0  0  0  0  0  0  0  0
   -0.4125    1.1384   -3.9318 H   0  0  0  0  0  0  0  0  0  0  0  0
  5  6  2  0  0  0  0
  5  7  1  0  0  0  0
  2  3  1  0  0  0  0
  2  4  1  0  0  0  0
  2  5  1  0  0  0  0
  1  2  1  0  0  0  0
 16 17  2  0  0  0  0
 16 18  1  0  0  0  0
 14 15  1  0  0  0  0
 11 12  1  0  0  0  0
 11 13  1  0  0  0  0
 11 14  1  0  0  0  0
  9 10  1  0  0  0  0
  9 11  1  0  0  0  0
  9 16  1  0  0  0  0
  7  8  1  0  0  0  0
  7  9  1  0  0  0  0
 20 21  1  0  0  0  0
 20 22  1  0  0  0  0
 20 23  1  0  0  0  0
 18 19  1  0  0  0  0
 18 20  1  0  0  0  0
M  END
$$$$
default_name
  -OEChem-01062215323D

 23 22  0     1  0  0  0  0  0999 V2000
   -2.6857   -3.6684    0.8743 H   0  0  0  0  0  0  0  0  0  0  0  0
   -2.6617   -2.6474    0.4953 C   0  0  0  0  0  0  0  0  0  0  0  0
   -3.2657   -2.0054    1.1353 H   0  0  0  0  0  0  0  0  0  0  0  0
   -3.0477   -2.6254   -0.5217 H   0  0  0  0  0  0  0  0  0  0  0  0
   -1.2337   -2.1564    0.4993 C   0  0  0  0  0  0  0  0  0  0  0  0
   -0.3327   -2.8864    0.8893 O   0  0  0  0  0  0  0  0  0  0  0  0
   -1.0277   -0.9164    0.0623 N   0  0  0  0  0  0  0  0  0  0  0  0
   -1.8237   -0.3604   -0.2157 H   0  0  0  0  0  0  0  0  0  0  0  0
    0.2713   -0.2414    0.0463 C   0  0  1  0  0  0  0  0  0  0  0  0
    0.2848    0.5129    0.8355 H   0  0  0  0  0  0  0  0  0  0  0  0
    1.3648   -1.2796    0.3475 C   0  0  0  0  0  0  0  0  0  0  0  0
    1.2723   -2.1055   -0.3614 H   0  0  0  0  0  0  0  0  0  0  0  0
    2.3473   -0.8195    0.2246 H   0  0  0  0  0  0  0  0  0  0  0  0
    1.1984   -1.9392    2.0323 S   0  0  0  0  0  0  0  0  0  0  0  0
    2.1678   -2.8582    1.9466 H   0  0  0  0  0  0  0  0  0  0  0  0
    0.4799    0.4758   -1.3032 C   0  0  0  0  0  0  0  0  0  0  0  0
    1.1697    1.4945   -1.3569 O   0  0  0  0  0  0  0  0  0  0  0  0
   -0.1027   -0.0513   -2.3862 N   0  0  0  0  0  0  0  0  0  0  0  0
   -0.7034   -0.8508   -2.2462 H   0  0  0  0  0  0  0  0  0  0  0  0
    0.0058    0.5039   -3.7341 C   0  0  0  0  0  0  0  0  0  0  0  0
    1.0551    0.6906   -3.9736 H   0  0  0  0  0  0  0  0  0  0  0  0
   -0.4108   -0.1919   -4.4633 H   0  0  0  0  0  0  0  0  0  0  0  0
   -0.5370    1.4493   -3.7858 H   0  0  0  0  0  0  0  0  0  0  0  0
  5  6  2  0  0  0  0
  5  7  1  0  0  0  0
  2  3  1  0  0  0  0
  2  4  1  0  0  0  0
  2  5  1  0  0  0  0
  1  2  1  0  0  0  0
 16 17  2  0  0  0  0
 16 18  1  0  0  0  0
 14 15  1  0  0  0  0
 11 12  1  0  0  0  0
 11 13  1  0  0  0  0
 11 14  1  0  0  0  0
  9 10  1  0  0  0  0
  9 11  1  0  0  0  0
  9 16  1  0  0  0  0
  7  8  1  0  0  0  0
  7  9  1  0  0  0  0
 20 21  1  0  0  0  0
 20 22  1  0  0  0  0
 20 23  1  0  0  0  0
 18 19  1  0  0  0  0
 18 20  1  0  0  0  0
M  END
$$$$
default_name
  -OEChem-01062215323D

 23 22  0     1  0  0  0  0  0999 V2000
   -2.6857   -3.6684    0.8743 H   0  0  0  0  0  0  0  0  0  0  0  0
   -2.6617   -2.6474    0.4953 C   0  0  0  0  0  0  0  0  0  0  0  0
   -3.2657   -2.0054    1.1353 H   0  0  0  0  0  0  0  0  0  0  0  0
   -3.0477   -2.6254   -0.5217 H   0  0  0  0  0  0  0  0  0  0  0  0
   -1.2337   -2.1564    0.4993 C   0  0  0  0  0  0  0  0  0  0  0  0
   -0.3327   -2.8864    0.8893 O   0  0  0  0  0  0  0  0  0  0  0  0
   -1.0277   -0.9164    0.0623 N   0  0  0  0  0  0  0  0  0  0  0  0
   -1.8237   -0.3604   -0.2157 H   0  0  0  0  0  0  0  0  0  0  0  0
    0.2713   -0.2414    0.0463 C   0  0  1  0  0  0  0  0  0  0  0  0
    0.2848    0.5129    0.8355 H   0  0  0  0  0  0  0  0  0  0  0  0
    1.3648   -1.2796    0.3475 C   0  0  0  0  0  0  0  0  0  0  0  0
    1.2723   -2.1055   -0.3614 H   0  0  0  0  0  0  0  0  0  0  0  0
    2.3473   -0.8195    0.2246 H   0  0  0  0  0  0  0  0  0  0  0  0
    1.1984   -1.9392    2.0323 S   0  0  0  0  0  0  0  0  0  0  0  0
    2.1678   -2.8582    1.9466 H   0  0  0  0  0  0  0  0  0  0  0  0
    0.4799    0.4758   -1.3032 C   0  0  0  0  0  0  0  0  0  0  0  0
    1.3732    1.3152   -1.4207 O   0  0  0  0  0  0  0  0  0  0  0  0
   -0.3297    0.1463   -2.3163 N   0  0  0  0  0  0  0  0  0  0  0  0
   -1.0768   -0.5038   -2.1196 H   0  0  0  0  0  0  0  0  0  0  0  0
   -0.2547    0.7283   -3.6551 C   0  0  0  0  0  0  0  0  0  0  0  0
    0.7743    0.6864   -4.0193 H   0  0  0  0  0  0  0  0  0  0  0  0
   -0.9012    0.1801   -4.3414 H   0  0  0  0  0  0  0  0  0  0  0  0
   -0.5692    1.7727   -3.6189 H   0  0  0  0  0  0  0  0  0  0  0  0
  5  6  2  0  0  0  0
  5  7  1  0  0  0  0
  2  3  1  0  0  0  0
  2  4  1  0  0  0  0
  2  5  1  0  0  0  0
  1  2  1  0  0  0  0
 16 17  2  0  0  0  0
 16 18  1  0  0  0  0
 14 15  1  0  0  0  0
 11 12  1  0  0  0  0
 11 13  1  0  0  0  0
 11 14  1  0  0  0  0
  9 10  1  0  0  0  0
  9 11  1  0  0  0  0
  9 16  1  0  0  0  0
  7  8  1  0  0  0  0
  7  9  1  0  0  0  0
 20 21  1  0  0  0  0
 20 22  1  0  0  0  0
 20 23  1  0  0  0  0
 18 19  1  0  0  0  0
 18 20  1  0  0  0  0
M  END
$$$$
default_name
  -OEChem-01062215323D

 23 22  0     1  0  0  0  0  0999 V2000
   -2.6857   -3.6684    0.8743 H   0  0  0  0  0  0  0  0  0  0  0  0
   -2.6617   -2.6474    0.4953 C   0  0  0  0  0  0  0  0  0  0  0  0
   -3.2657   -2.0054    1.1353 H   0  0  0  0  0  0  0  0  0  0  0  0
   -3.0477   -2.6254   -0.5217 H   0  0  0  0  0  0  0  0  0  0  0  0
   -1.2337   -2.1564    0.4993 C   0  0  0  0  0  0  0  0  0  0  0  0
   -0.3327   -2.8864    0.8893 O   0  0  0  0  0  0  0  0  0  0  0  0
   -1.0277   -0.9164    0.0623 N   0  0  0  0  0  0  0  0  0  0  0  0
   -1.8237   -0.3604   -0.2157 H   0  0  0  0  0  0  0  0  0  0  0  0
    0.2713   -0.2414    0.0463 C   0  0  1  0  0  0  0  0  0  0  0  0
    0.2848    0.5129    0.8355 H   0  0  0  0  0  0  0  0  0  0  0  0
    1.3648   -1.2796    0.3475 C   0  0  0  0  0  0  0  0  0  0  0  0
    1.2723   -2.1055   -0.3614 H   0  0  0  0  0  0  0  0  0  0  0  0
    2.3473   -0.8195    0.2246 H   0  0  0  0  0  0  0  0  0  0  0  0
    1.1984   -1.9392    2.0323 S   0  0  0  0  0  0  0  0  0  0  0  0
    2.1678   -2.8582    1.9466 H   0  0  0  0  0  0  0  0  0  0  0  0
    0.4799    0.4758   -1.3032 C   0  0  0  0  0  0  0  0  0  0  0  0
    1.5215    1.0981   -1.5132 O   0  0  0  0  0  0  0  0  0  0  0  0
   -0.4958    0.3862   -2.2144 N   0  0  0  0  0  0  0  0  0  0  0  0
   -1.3436   -0.0886   -1.9401 H   0  0  0  0  0  0  0  0  0  0  0  0
   -0.4460    1.0012   -3.5396 C   0  0  0  0  0  0  0  0  0  0  0  0
    0.4967    0.7474   -4.0298 H   0  0  0  0  0  0  0  0  0  0  0  0
   -1.2760    0.6463   -4.1515 H   0  0  0  0  0  0  0  0  0  0  0  0
   -0.5071    2.0865   -3.4425 H   0  0  0  0  0  0  0  0  0  0  0  0
  5  6  2  0  0  0  0
  5  7  1  0  0  0  0
  2  3  1  0  0  0  0
  2  4  1  0  0  0  0
  2  5  1  0  0  0  0
  1  2  1  0  0  0  0
 16 17  2  0  0  0  0
 16 18  1  0  0  0  0
 14 15  1  0  0  0  0
 11 12  1  0  0  0  0
 11 13  1  0  0  0  0
 11 14  1  0  0  0  0
  9 10  1  0  0  0  0
  9 11  1  0  0  0  0
  9 16  1  0  0  0  0
  7  8  1  0  0  0  0
  7  9  1  0  0  0  0
 20 21  1  0  0  0  0
 20 22  1  0  0  0  0
 20 23  1  0  0  0  0
 18 19  1  0  0  0  0
 18 20  1  0  0  0  0
M  END
$$$$
default_name
  -OEChem-01062215323D

 23 22  0     1  0  0  0  0  0999 V2000
   -2.6857   -3.6684    0.8743 H   0  0  0  0  0  0  0  0  0  0  0  0
   -2.6617   -2.6474    0.4953 C   0  0  0  0  0  0  0  0  0  0  0  0
   -3.2657   -2.0054    1.1353 H   0  0  0  0  0  0  0  0  0  0  0  0
   -3.0477   -2.6254   -0.5217 H   0  0  0  0  0  0  0  0  0  0  0  0
   -1.2337   -2.1564    0.4993 C   0  0  0  0  0  0  0  0  0  0  0  0
   -0.3327   -2.8864    0.8893 O   0  0  0  0  0  0  0  0  0  0  0  0
   -1.0277   -0.9164    0.0623 N   0  0  0  0  0  0  0  0  0  0  0  0
   -1.8237   -0.3604   -0.2157 H   0  0  0  0  0  0  0  0  0  0  0  0
    0.2713   -0.2414    0.0463 C   0  0  1  0  0  0  0  0  0  0  0  0
    0.2848    0.5129    0.8355 H   0  0  0  0  0  0  0  0  0  0  0  0
    1.3648   -1.2796    0.3475 C   0  0  0  0  0  0  0  0  0  0  0  0
    1.2723   -2.1055   -0.3614 H   0  0  0  0  0  0  0  0  0  0  0  0
    2.3473   -0.8195    0.2246 H   0  0  0  0  0  0  0  0  0  0  0  0
    1.1984   -1.9392    2.0323 S   0  0  0  0  0  0  0  0  0  0  0  0
    2.1678   -2.8582    1.9466 H   0  0  0  0  0  0  0  0  0  0  0  0
    0.4799    0.4758   -1.3032 C   0  0  0  0  0  0  0  0  0  0  0  0
    1.6045    0.8581   -1.6279 O   0  0  0  0  0  0  0  0  0  0  0  0
   -0.5896    0.6520   -2.0877 N   0  0  0  0  0  0  0  0  0  0  0  0
   -1.4857    0.3666   -1.7201 H   0  0  0  0  0  0  0  0  0  0  0  0
   -0.5551    1.3041   -3.3955 C   0  0  0  0  0  0  0  0  0  0  0  0
    0.2410    0.8696   -4.0043 H   0  0  0  0  0  0  0  0  0  0  0  0
   -1.5097    1.1747   -3.9068 H   0  0  0  0  0  0  0  0  0  0  0  0
   -0.3547    2.3694   -3.2686 H   0  0  0  0  0  0  0  0  0  0  0  0
  5  6  2  0  0  0  0
  5  7  1  0  0  0  0
  2  3  1  0  0  0  0
  2  4  1  0  0  0  0
  2  5  1  0  0  0  0
  1  2  1  0  0  0  0
 16 17  2  0  0  0  0
 16 18  1  0  0  0  0
 14 15  1  0  0  0  0
 11 12  1  0  0  0  0
 11 13  1  0  0  0  0
 11 14  1  0  0  0  0
  9 10  1  0  0  0  0
  9 11  1  0  0  0  0
  9 16  1  0  0  0  0
  7  8  1  0  0  0  0
  7  9  1  0  0  0  0
 20 21  1  0  0  0  0
 20 22  1  0  0  0  0
 20 23  1  0  0  0  0
 18 19  1  0  0  0  0
 18 20  1  0  0  0  0
M  END
$$$$
default_name
  -OEChem-01062215323D

 23 22  0     1  0  0  0  0  0999 V2000
   -2.6857   -3.6684    0.8743 H   0  0  0  0  0  0  0  0  0  0  0  0
   -2.6617   -2.6474    0.4953 C   0  0  0  0  0  0  0  0  0  0  0  0
   -3.2657   -2.0054    1.1353 H   0  0  0  0  0  0  0  0  0  0  0  0
   -3.0477   -2.6254   -0.5217 H   0  0  0  0  0  0  0  0  0  0  0  0
   -1.2337   -2.1564    0.4993 C   0  0  0  0  0  0  0  0  0  0  0  0
   -0.3327   -2.8864    0.8893 O   0  0  0  0  0  0  0  0  0  0  0  0
   -1.0277   -0.9164    0.0623 N   0  0  0  0  0  0  0  0  0  0  0  0
   -1.8237   -0.3604   -0.2157 H   0  0  0  0  0  0  0  0  0  0  0  0
    0.2713   -0.2414    0.0463 C   0  0  1  0  0  0  0  0  0  0  0  0
    0.2848    0.5129    0.8355 H   0  0  0  0  0  0  0  0  0  0  0  0
    1.3648   -1.2796    0.3475 C   0  0  0  0  0  0  0  0  0  0  0  0
    1.2723   -2.1055   -0.3614 H   0  0  0  0  0  0  0  0  0  0  0  0
    2.3473   -0.8195    0.2246 H   0  0  0  0  0  0  0  0  0  0  0  0
    1.1984   -1.9392    2.0323 S   0  0  0  0  0  0  0  0  0  0  0  0
    2.1678   -2.8582    1.9466 H   0  0  0  0  0  0  0  0  0  0  0  0
    0.4799    0.4758   -1.3032 C   0  0  0  0  0  0  0  0  0  0  0  0
    1.6165    0.6115   -1.7571 O   0  0  0  0  0  0  0  0  0  0  0  0
   -0.6048    0.9255   -1.9446 N   0  0  0  0  0  0  0  0  0  0  0  0
   -1.4935    0.8308   -1.4746 H   0  0  0  0  0  0  0  0  0  0  0  0
   -0.5745    1.6164   -3.2325 C   0  0  0  0  0  0  0  0  0  0  0  0
    0.0248    1.0447   -3.9447 H   0  0  0  0  0  0  0  0  0  0  0  0
   -1.5862    1.7295   -3.6237 H   0  0  0  0  0  0  0  0  0  0  0  0
   -0.1226    2.6021   -3.1091 H   0  0  0  0  0  0  0  0  0  0  0  0
  5  6  2  0  0  0  0
  5  7  1  0  0  0  0
  2  3  1  0  0  0  0
  2  4  1  0  0  0  0
  2  5  1  0  0  0  0
  1  2  1  0  0  0  0
 16 17  2  0  0  0  0
 16 18  1  0  0  0  0
 14 15  1  0  0  0  0
 11 12  1  0  0  0  0
 11 13  1  0  0  0  0
 11 14  1  0  0  0  0
  9 10  1  0  0  0  0
  9 11  1  0  0  0  0
  9 16  1  0  0  0  0
  7  8  1  0  0  0  0
  7  9  1  0  0  0  0
 20 21  1  0  0  0  0
 20 22  1  0  0  0  0
 20 23  1  0  0  0  0
 18 19  1  0  0  0  0
 18 20  1  0  0  0  0
M  END
$$$$
default_name
  -OEChem-01062215323D

 23 22  0     1  0  0  0  0  0999 V2000
   -2.6857   -3.6684    0.8743 H   0  0  0  0  0  0  0  0  0  0  0  0
   -2.6617   -2.6474    0.4953 C   0  0  0  0  0  0  0  0  0  0  0  0
   -3.2657   -2.0054    1.1353 H   0  0  0  0  0  0  0  0  0  0  0  0
   -3.0477   -2.6254   -0.5217 H   0  0  0  0  0  0  0  0  0  0  0  0
   -1.2337   -2.1564    0.4993 C   0  0  0  0  0  0  0  0  0  0  0  0
   -0.3327   -2.8864    0.8893 O   0  0  0  0  0  0  0  0  0  0  0  0
   -1.0277   -0.9164    0.0623 N   0  0  0  0  0  0  0  0  0  0  0  0
   -1.8237   -0.3604   -0.2157 H   0  0  0  0  0  0  0  0  0  0  0  0
    0.2713   -0.2414    0.0463 C   0  0  1  0  0  0  0  0  0  0  0  0
    0.2848    0.5129    0.8355 H   0  0  0  0  0  0  0  0  0  0  0  0
    1.3648   -1.2796    0.3475 C   0  0  0  0  0  0  0  0  0  0  0  0
    1.2723   -2.1055   -0.3614 H   0  0  0  0  0  0  0  0  0  0  0  0
    2.3473   -0.8195    0.2246 H   0  0  0  0  0  0  0  0  0  0  0  0
    1.1984   -1.9392    2.0323 S   0  0  0  0  0  0  0  0  0  0  0  0
    2.1678   -2.8582    1.9466 H   0  0  0  0  0  0  0  0  0  0  0  0
    0.4799    0.4758   -1.3032 C   0  0  0  0  0  0  0  0  0  0  0  0
    1.5567    0.3751   -1.8920 O   0  0  0  0  0  0  0  0  0  0  0  0
   -0.5404    1.1881   -1.7951 N   0  0  0  0  0  0  0  0  0  0  0  0
   -1.3662    1.2723   -1.2203 H   0  0  0  0  0  0  0  0  0  0  0  0
   -0.5029    1.9167   -3.0618 C   0  0  0  0  0  0  0  0  0  0  0  0
   -0.1372    1.2606   -3.8550 H   0  0  0  0  0  0  0  0  0  0  0  0
   -1.5005    2.2729   -3.3217 H   0  0  0  0  0  0  0  0  0  0  0  0
    0.1735    2.7687   -2.9748 H   0  0  0  0  0  0  0  0  0  0  0  0
  5  6  2  0  0  0  0
  5  7  1  0  0  0  0
  2  3  1  0  0  0  0
  2  4  1  0  0  0  0
  2  5  1  0  0  0  0
  1  2  1  0  0  0  0
 16 17  2  0  0  0  0
 16 18  1  0  0  0  0
 14 15  1  0  0  0  0
 11 12  1  0  0  0  0
 11 13  1  0  0  0  0
 11 14  1  0  0  0  0
  9 10  1  0  0  0  0
  9 11  1  0  0  0  0
  9 16  1  0  0  0  0
  7  8  1  0  0  0  0
  7  9  1  0  0  0  0
 20 21  1  0  0  0  0
 20 22  1  0  0  0  0
 20 23  1  0  0  0  0
 18 19  1  0  0  0  0
 18 20  1  0  0  0  0
M  END
$$$$
default_name
  -OEChem-01062215323D

 23 22  0     1  0  0  0  0  0999 V2000
   -2.6857   -3.6684    0.8743 H   0  0  0  0  0  0  0  0  0  0  0  0
   -2.6617   -2.6474    0.4953 C   0  0  0  0  0  0  0  0  0  0  0  0
   -3.2657   -2.0054    1.1353 H   0  0  0  0  0  0  0  0  0  0  0  0
   -3.0477   -2.6254   -0.5217 H   0  0  0  0  0  0  0  0  0  0  0  0
   -1.2337   -2.1564    0.4993 C   0  0  0  0  0  0  0  0  0  0  0  0
   -0.3327   -2.8864    0.8893 O   0  0  0  0  0  0  0  0  0  0  0  0
   -1.0277   -0.9164    0.0623 N   0  0  0  0  0  0  0  0  0  0  0  0
   -1.8237   -0.3604   -0.2157 H   0  0  0  0  0  0  0  0  0  0  0  0
    0.2713   -0.2414    0.0463 C   0  0  1  0  0  0  0  0  0  0  0  0
    0.2848    0.5129    0.8355 H   0  0  0  0  0  0  0  0  0  0  0  0
    1.3648   -1.2796    0.3475 C   0  0  0  0  0  0  0  0  0  0  0  0
    1.2723   -2.1055   -0.3614 H   0  0  0  0  0  0  0  0  0  0  0  0
    2.3473   -0.8195    0.2246 H   0  0  0  0  0  0  0  0  0  0  0  0
    1.1984   -1.9392    2.0323 S   0  0  0  0  0  0  0  0  0  0  0  0
    2.1678   -2.8582    1.9466 H   0  0  0  0  0  0  0  0  0  0  0  0
    0.4799    0.4758   -1.3032 C   0  0  0  0  0  0  0  0  0  0  0  0
    1.4292    0.1651   -2.0234 O   0  0  0  0  0  0  0  0  0  0  0  0
   -0.4006    1.4220   -1.6492 N   0  0  0  0  0  0  0  0  0  0  0  0
   -1.1128    1.6611   -0.9745 H   0  0  0  0  0  0  0  0  0  0  0  0
   -0.3453    2.1846   -2.8951 C   0  0  0  0  0  0  0  0  0  0  0  0
   -0.2340    1.5027   -3.7412 H   0  0  0  0  0  0  0  0  0  0  0  0
   -1.2582    2.7677   -3.0212 H   0  0  0  0  0  0  0  0  0  0  0  0
    0.5134    2.8578   -2.8749 H   0  0  0  0  0  0  0  0  0  0  0  0
  5  6  2  0  0  0  0
  5  7  1  0  0  0  0
  2  3  1  0  0  0  0
  2  4  1  0  0  0  0
  2  5  1  0  0  0  0
  1  2  1  0  0  0  0
 16 17  2  0  0  0  0
 16 18  1  0  0  0  0
 14 15  1  0  0  0  0
 11 12  1  0  0  0  0
 11 13  1  0  0  0  0
 11 14  1  0  0  0  0
  9 10  1  0  0  0  0
  9 11  1  0  0  0  0
  9 16  1  0  0  0  0
  7  8  1  0  0  0  0
  7  9  1  0  0  0  0
 20 21  1  0  0  0  0
 20 22  1  0  0  0  0
 20 23  1  0  0  0  0
 18 19  1  0  0  0  0
 18 20  1  0  0  0  0
M  END
$$$$
default_name
  -OEChem-01062215323D

 23 22  0     1  0  0  0  0  0999 V2000
   -2.6857   -3.6684    0.8743 H   0  0  0  0  0  0  0  0  0  0  0  0
   -2.6617   -2.6474    0.4953 C   0  0  0  0  0  0  0  0  0  0  0  0
   -3.2657   -2.0054    1.1353 H   0  0  0  0  0  0  0  0  0  0  0  0
   -3.0477   -2.6254   -0.5217 H   0  0  0  0  0  0  0  0  0  0  0  0
   -1.2337   -2.1564    0.4993 C   0  0  0  0  0  0  0  0  0  0  0  0
   -0.3327   -2.8864    0.8893 O   0  0  0  0  0  0  0  0  0  0  0  0
   -1.0277   -0.9164    0.0623 N   0  0  0  0  0  0  0  0  0  0  0  0
   -1.8237   -0.3604   -0.2157 H   0  0  0  0  0  0  0  0  0  0  0  0
    0.2713   -0.2414    0.0463 C   0  0  1  0  0  0  0  0  0  0  0  0
    0.2848    0.5129    0.8355 H   0  0  0  0  0  0  0  0  0  0  0  0
    1.3648   -1.2796    0.3475 C   0  0  0  0  0  0  0  0  0  0  0  0
    1.2723   -2.1055   -0.3614 H   0  0  0  0  0  0  0  0  0  0  0  0
    2.3473   -0.8195    0.2246 H   0  0  0  0  0  0  0  0  0  0  0  0
    1.1984   -1.9392    2.0323 S   0  0  0  0  0  0  0  0  0  0  0  0
    2.1678   -2.8582    1.9466 H   0  0  0  0  0  0  0  0  0  0  0  0
    0.4799    0.4758   -1.3032 C   0  0  0  0  0  0  0  0  0  0  0  0
    1.2426   -0.0044   -2.1423 O   0  0  0  0  0  0  0  0  0  0  0  0
   -0.1951    1.6111   -1.5169 N   0  0  0  0  0  0  0  0  0  0  0  0
   -0.7503    1.9706   -0.7539 H   0  0  0  0  0  0  0  0  0  0  0  0
   -0.1122    2.4018   -2.7436 C   0  0  0  0  0  0  0  0  0  0  0  0
   -0.2590    1.7546   -3.6112 H   0  0  0  0  0  0  0  0  0  0  0  0
   -0.8761    3.1803   -2.7429 H   0  0  0  0  0  0  0  0  0  0  0  0
    0.8740    2.8635   -2.8161 H   0  0  0  0  0  0  0  0  0  0  0  0
  5  6  2  0  0  0  0
  5  7  1  0  0  0  0
  2  3  1  0  0  0  0
  2  4  1  0  0  0  0
  2  5  1  0  0  0  0
  1  2  1  0  0  0  0
 16 17  2  0  0  0  0
 16 18  1  0  0  0  0
 14 15  1  0  0  0  0
 11 12  1  0  0  0  0
 11 13  1  0  0  0  0
 11 14  1  0  0  0  0
  9 10  1  0  0  0  0
  9 11  1  0  0  0  0
  9 16  1  0  0  0  0
  7  8  1  0  0  0  0
  7  9  1  0  0  0  0
 20 21  1  0  0  0  0
 20 22  1  0  0  0  0
 20 23  1  0  0  0  0
 18 19  1  0  0  0  0
 18 20  1  0  0  0  0
M  END
$$$$
default_name
  -OEChem-01062215323D

 23 22  0     1  0  0  0  0  0999 V2000
   -2.6857   -3.6684    0.8743 H   0  0  0  0  0  0  0  0  0  0  0  0
   -2.6617   -2.6474    0.4953 C   0  0  0  0  0  0  0  0  0  0  0  0
   -3.2657   -2.0054    1.1353 H   0  0  0  0  0  0  0  0  0  0  0  0
   -3.0477   -2.6254   -0.5217 H   0  0  0  0  0  0  0  0  0  0  0  0
   -1.2337   -2.1564    0.4993 C   0  0  0  0  0  0  0  0  0  0  0  0
   -0.3327   -2.8864    0.8893 O   0  0  0  0  0  0  0  0  0  0  0  0
   -1.0277   -0.9164    0.0623 N   0  0  0  0  0  0  0  0  0  0  0  0
   -1.8237   -0.3604   -0.2157 H   0  0  0  0  0  0  0  0  0  0  0  0
    0.2713   -0.2414    0.0463 C   0  0  1  0  0  0  0  0  0  0  0  0
    0.2848    0.5129    0.8355 H   0  0  0  0  0  0  0  0  0  0  0  0
    1.3648   -1.2796    0.3475 C   0  0  0  0  0  0  0  0  0  0  0  0
    1.2723   -2.1055   -0.3614 H   0  0  0  0  0  0  0  0  0  0  0  0
    2.3473   -0.8195    0.2246 H   0  0  0  0  0  0  0  0  0  0  0  0
    1.1984   -1.9392    2.0323 S   0  0  0  0  0  0  0  0  0  0  0  0
    2.1678   -2.8582    1.9466 H   0  0  0  0  0  0  0  0  0  0  0  0
    0.4799    0.4758   -1.3032 C   0  0  0  0  0  0  0  0  0  0  0  0
    1.0097   -0.1216   -2.2406 O   0  0  0  0  0  0  0  0  0  0  0  0
    0.0621    1.7427   -1.4073 N   0  0  0  0  0  0  0  0  0  0  0  0
   -0.3036    2.1798   -0.5737 H   0  0  0  0  0  0  0  0  0  0  0  0
    0.1803    2.5536   -2.6177 C   0  0  0  0  0  0  0  0  0  0  0  0
   -0.2105    1.9989   -3.4738 H   0  0  0  0  0  0  0  0  0  0  0  0
   -0.3800    3.4826   -2.5055 H   0  0  0  0  0  0  0  0  0  0  0  0
    1.2306    2.7852   -2.8026 H   0  0  0  0  0  0  0  0  0  0  0  0
  5  6  2  0  0  0  0
  5  7  1  0  0  0  0
  2  3  1  0  0  0  0
  2  4  1  0  0  0  0
  2  5  1  0  0  0  0
  1  2  1  0  0  0  0
 16 17  2  0  0  0  0
 16 18  1  0  0  0  0
 14 15  1  0  0  0  0
 11 12  1  0  0  0  0
 11 13  1  0  0  0  0
 11 14  1  0  0  0  0
  9 10  1  0  0  0  0
  9 11  1  0  0  0  0
  9 16  1  0  0  0  0
  7  8  1  0  0  0  0
  7  9  1  0  0  0  0
 20 21  1  0  0  0  0
 20 22  1  0  0  0  0
 20 23  1  0  0  0  0
 18 19  1  0  0  0  0
 18 20  1  0  0  0  0
M  END
$$$$
default_name
  -OEChem-01062215323D

 23 22  0     1  0  0  0  0  0999 V2000
   -2.6857   -3.6684    0.8743 H   0  0  0  0  0  0  0  0  0  0  0  0
   -2.6617   -2.6474    0.4953 C   0  0  0  0  0  0  0  0  0  0  0  0
   -3.2657   -2.0054    1.1353 H   0  0  0  0  0  0  0  0  0  0  0  0
   -3.0477   -2.6254   -0.5217 H   0  0  0  0  0  0  0  0  0  0  0  0
   -1.2337   -2.1564    0.4993 C   0  0  0  0  0  0  0  0  0  0  0  0
   -0.3327   -2.8864    0.8893 O   0  0  0  0  0  0  0  0  0  0  0  0
   -1.0277   -0.9164    0.0623 N   0  0  0  0  0  0  0  0  0  0  0  0
   -1.8237   -0.3604   -0.2157 H   0  0  0  0  0  0  0  0  0  0  0  0
    0.2713   -0.2414    0.0463 C   0  0  1  0  0  0  0  0  0  0  0  0
    0.2848    0.5129    0.8355 H   0  0  0  0  0  0  0  0  0  0  0  0
    1.3648   -1.2796    0.3475 C   0  0  0  0  0  0  0  0  0  0  0  0
    1.2723   -2.1055   -0.3614 H   0  0  0  0  0  0  0  0  0  0  0  0
    2.3473   -0.8195    0.2246 H   0  0  0  0  0  0  0  0  0  0  0  0
    1.1984   -1.9392    2.0323 S   0  0  0  0  0  0  0  0  0  0  0  0
    2.1678   -2.8582    1.9466 H   0  0  0  0  0  0  0  0  0  0  0  0
    0.4799    0.4758   -1.3032 C   0  0  0  0  0  0  0  0  0  0  0  0
    0.7464   -0.1787   -2.3116 O   0  0  0  0  0  0  0  0  0  0  0  0
    0.3535    1.8076   -1.3277 N   0  0  0  0  0  0  0  0  0  0  0  0
    0.1970    2.2744   -0.4461 H   0  0  0  0  0  0  0  0  0  0  0  0
    0.5123    2.6295   -2.5261 C   0  0  0  0  0  0  0  0  0  0  0  0
   -0.0917    2.2192   -3.3384 H   0  0  0  0  0  0  0  0  0  0  0  0
    0.1962    3.6539   -2.3254 H   0  0  0  0  0  0  0  0  0  0  0  0
    1.5589    2.6285   -2.8352 H   0  0  0  0  0  0  0  0  0  0  0  0
  5  6  2  0  0  0  0
  5  7  1  0  0  0  0
  2  3  1  0  0  0  0
  2  4  1  0  0  0  0
  2  5  1  0  0  0  0
  1  2  1  0  0  0  0
 16 17  2  0  0  0  0
 16 18  1  0  0  0  0
 14 15  1  0  0  0  0
 11 12  1  0  0  0  0
 11 13  1  0  0  0  0
 11 14  1  0  0  0  0
  9 10  1  0  0  0  0
  9 11  1  0  0  0  0
  9 16  1  0  0  0  0
  7  8  1  0  0  0  0
  7  9  1  0  0  0  0
 20 21  1  0  0  0  0
 20 22  1  0  0  0  0
 20 23  1  0  0  0  0
 18 19  1  0  0  0  0
 18 20  1  0  0  0  0
M  END
$$$$
default_name
  -OEChem-01062215323D

 23 22  0     1  0  0  0  0  0999 V2000
   -2.6857   -3.6684    0.8743 H   0  0  0  0  0  0  0  0  0  0  0  0
   -2.6617   -2.6474    0.4953 C   0  0  0  0  0  0  0  0  0  0  0  0
   -3.2657   -2.0054    1.1353 H   0  0  0  0  0  0  0  0  0  0  0  0
   -3.0477   -2.6254   -0.5217 H   0  0  0  0  0  0  0  0  0  0  0  0
   -1.2337   -2.1564    0.4993 C   0  0  0  0  0  0  0  0  0  0  0  0
   -0.3327   -2.8864    0.8893 O   0  0  0  0  0  0  0  0  0  0  0  0
   -1.0277   -0.9164    0.0623 N   0  0  0  0  0  0  0  0  0  0  0  0
   -1.8237   -0.3604   -0.2157 H   0  0  0  0  0  0  0  0  0  0  0  0
    0.2713   -0.2414    0.0463 C   0  0  1  0  0  0  0  0  0  0  0  0
    0.2848    0.5129    0.8355 H   0  0  0  0  0  0  0  0  0  0  0  0
    1.3648   -1.2796    0.3475 C   0  0  0  0  0  0  0  0  0  0  0  0
    1.2723   -2.1055   -0.3614 H   0  0  0  0  0  0  0  0  0  0  0  0
    2.3473   -0.8195    0.2246 H   0  0  0  0  0  0  0  0  0  0  0  0
    1.1984   -1.9392    2.0323 S   0  0  0  0  0  0  0  0  0  0  0  0
    2.1678   -2.8582    1.9466 H   0  0  0  0  0  0  0  0  0  0  0  0
    0.4799    0.4758   -1.3032 C   0  0  0  0  0  0  0  0  0  0  0  0
    0.4705   -0.1717   -2.3505 O   0  0  0  0  0  0  0  0  0  0  0  0
    0.6593    1.8016   -1.2836 N   0  0  0  0  0  0  0  0  0  0  0  0
    0.7172    2.2479   -0.3797 H   0  0  0  0  0  0  0  0  0  0  0  0
    0.8613    2.6245   -2.4748 C   0  0  0  0  0  0  0  0  0  0  0  0
    0.0891    2.4003   -3.2142 H   0  0  0  0  0  0  0  0  0  0  0  0
    0.8133    3.6826   -2.2148 H   0  0  0  0  0  0  0  0  0  0  0  0
    1.8367    2.4038   -2.9117 H   0  0  0  0  0  0  0  0  0  0  0  0
  5  6  2  0  0  0  0
  5  7  1  0  0  0  0
  2  3  1  0  0  0  0
  2  4  1  0  0  0  0
  2  5  1  0  0  0  0
  1  2  1  0  0  0  0
 16 17  2  0  0  0  0
 16 18  1  0  0  0  0
 14 15  1  0  0  0  0
 11 12  1  0  0  0  0
 11 13  1  0  0  0  0
 11 14  1  0  0  0  0
  9 10  1  0  0  0  0
  9 11  1  0  0  0  0
  9 16  1  0  0  0  0
  7  8  1  0  0  0  0
  7  9  1  0  0  0  0
 20 21  1  0  0  0  0
 20 22  1  0  0  0  0
 20 23  1  0  0  0  0
 18 19  1  0  0  0  0
 18 20  1  0  0  0  0
M  END
$$$$
default_name
  -OEChem-01062215323D

 23 22  0     1  0  0  0  0  0999 V2000
   -2.6857   -3.6684    0.8743 H   0  0  0  0  0  0  0  0  0  0  0  0
   -2.6617   -2.6474    0.4953 C   0  0  0  0  0  0  0  0  0  0  0  0
   -3.2657   -2.0054    1.1353 H   0  0  0  0  0  0  0  0  0  0  0  0
   -3.0477   -2.6254   -0.5217 H   0  0  0  0  0  0  0  0  0  0  0  0
   -1.2337   -2.1564    0.4993 C   0  0  0  0  0  0  0  0  0  0  0  0
   -0.3327   -2.8864    0.8893 O   0  0  0  0  0  0  0  0  0  0  0  0
   -1.0277   -0.9164    0.0623 N   0  0  0  0  0  0  0  0  0  0  0  0
   -1.8237   -0.3604   -0.2157 H   0  0  0  0  0  0  0  0  0  0  0  0
    0.2713   -0.2414    0.0463 C   0  0  1  0  0  0  0  0  0  0  0  0
    0.2848    0.5129    0.8355 H   0  0  0  0  0  0  0  0  0  0  0  0
    1.3648   -1.2796    0.3475 C   0  0  0  0  0  0  0  0  0  0  0  0
    1.2723   -2.1055   -0.3614 H   0  0  0  0  0  0  0  0  0  0  0  0
    2.3473   -0.8195    0.2246 H   0  0  0  0  0  0  0  0  0  0  0  0
    1.1984   -1.9392    2.0323 S   0  0  0  0  0  0  0  0  0  0  0  0
    2.1678   -2.8582    1.9466 H   0  0  0  0  0  0  0  0  0  0  0  0
    0.4799    0.4758   -1.3032 C   0  0  0  0  0  0  0  0  0  0  0  0
    0.2010   -0.1012   -2.3547 O   0  0  0  0  0  0  0  0  0  0  0  0
    0.9587    1.7250   -1.2781 N   0  0  0  0  0  0  0  0  0  0  0  0
    1.2218    2.1022   -0.3792 H   0  0  0  0  0  0  0  0  0  0  0  0
    1.2034    2.5388   -2.4675 C   0  0  0  0  0  0  0  0  0  0  0  0
    0.3198    2.5299   -3.1097 H   0  0  0  0  0  0  0  0  0  0  0  0
    1.4291    3.5667   -2.1812 H   0  0  0  0  0  0  0  0  0  0  0  0
    2.0449    2.1266   -3.0269 H   0  0  0  0  0  0  0  0  0  0  0  0
  5  6  2  0  0  0  0
  5  7  1  0  0  0  0
  2  3  1  0  0  0  0
  2  4  1  0  0  0  0
  2  5  1  0  0  0  0
  1  2  1  0  0  0  0
 16 17  2  0  0  0  0
 16 18  1  0  0  0  0
 14 15  1  0  0  0  0
 11 12  1  0  0  0  0
 11 13  1  0  0  0  0
 11 14  1  0  0  0  0
  9 10  1  0  0  0  0
  9 11  1  0  0  0  0
  9 16  1  0  0  0  0
  7  8  1  0  0  0  0
  7  9  1  0  0  0  0
 20 21  1  0  0  0  0
 20 22  1  0  0  0  0
 20 23  1  0  0  0  0
 18 19  1  0  0  0  0
 18 20  1  0  0  0  0
M  END
$$$$
default_name
  -OEChem-01062215323D

 23 22  0     1  0  0  0  0  0999 V2000
   -2.6857   -3.6684    0.8743 H   0  0  0  0  0  0  0  0  0  0  0  0
   -2.6617   -2.6474    0.4953 C   0  0  0  0  0  0  0  0  0  0  0  0
   -3.2657   -2.0054    1.1353 H   0  0  0  0  0  0  0  0  0  0  0  0
   -3.0477   -2.6254   -0.5217 H   0  0  0  0  0  0  0  0  0  0  0  0
   -1.2337   -2.1564    0.4993 C   0  0  0  0  0  0  0  0  0  0  0  0
   -0.3327   -2.8864    0.8893 O   0  0  0  0  0  0  0  0  0  0  0  0
   -1.0277   -0.9164    0.0623 N   0  0  0  0  0  0  0  0  0  0  0  0
   -1.8237   -0.3604   -0.2157 H   0  0  0  0  0  0  0  0  0  0  0  0
    0.2713   -0.2414    0.0463 C   0  0  1  0  0  0  0  0  0  0  0  0
    0.2848    0.5129    0.8355 H   0  0  0  0  0  0  0  0  0  0  0  0
    1.3648   -1.2796    0.3475 C   0  0  0  0  0  0  0  0  0  0  0  0
    1.2723   -2.1055   -0.3614 H   0  0  0  0  0  0  0  0  0  0  0  0
    2.3473   -0.8195    0.2246 H   0  0  0  0  0  0  0  0  0  0  0  0
    1.1984   -1.9392    2.0323 S   0  0  0  0  0  0  0  0  0  0  0  0
    2.1678   -2.8582    1.9466 H   0  0  0  0  0  0  0  0  0  0  0  0
    0.4799    0.4758   -1.3032 C   0  0  0  0  0  0  0  0  0  0  0  0
   -0.0439    0.0282   -2.3238 O   0  0  0  0  0  0  0  0  0  0  0  0
    1.2311    1.5830   -1.3114 N   0  0  0  0  0  0  0  0  0  0  0  0
    1.6763    1.8473   -0.4445 H   0  0  0  0  0  0  0  0  0  0  0  0
    1.5153    2.3783   -2.5046 C   0  0  0  0  0  0  0  0  0  0  0  0
    0.5846    2.5992   -3.0319 H   0  0  0  0  0  0  0  0  0  0  0  0
    2.0017    3.3142   -2.2270 H   0  0  0  0  0  0  0  0  0  0  0  0
    2.1694    1.8157   -3.1729 H   0  0  0  0  0  0  0  0  0  0  0  0
  5  6  2  0  0  0  0
  5  7  1  0  0  0  0
  2  3  1  0  0  0  0
  2  4  1  0  0  0  0
  2  5  1  0  0  0  0
  1  2  1  0  0  0  0
 16 17  2  0  0  0  0
 16 18  1  0  0  0  0
 14 15  1  0  0  0  0
 11 12  1  0  0  0  0
 11 13  1  0  0  0  0
 11 14  1  0  0  0  0
  9 10  1  0  0  0  0
  9 11  1  0  0  0  0
  9 16  1  0  0  0  0
  7  8  1  0  0  0  0
  7  9  1  0  0  0  0
 20 21  1  0  0  0  0
 20 22  1  0  0  0  0
 20 23  1  0  0  0  0
 18 19  1  0  0  0  0
 18 20  1  0  0  0  0
M  END
$$$$
default_name
  -OEChem-01062215323D

 23 22  0     1  0  0  0  0  0999 V2000
   -2.6857   -3.6684    0.8743 H   0  0  0  0  0  0  0  0  0  0  0  0
   -2.6617   -2.6474    0.4953 C   0  0  0  0  0  0  0  0  0  0  0  0
   -3.2657   -2.0054    1.1353 H   0  0  0  0  0  0  0  0  0  0  0  0
   -3.0477   -2.6254   -0.5217 H   0  0  0  0  0  0  0  0  0  0  0  0
   -1.2337   -2.1564    0.4993 C   0  0  0  0  0  0  0  0  0  0  0  0
   -0.3327   -2.8864    0.8893 O   0  0  0  0  0  0  0  0  0  0  0  0
   -1.0277   -0.9164    0.0623 N   0  0  0  0  0  0  0  0  0  0  0  0
   -1.8237   -0.3604   -0.2157 H   0  0  0  0  0  0  0  0  0  0  0  0
    0.2713   -0.2414    0.0463 C   0  0  1  0  0  0  0  0  0  0  0  0
    0.2848    0.5129    0.8355 H   0  0  0  0  0  0  0  0  0  0  0  0
    1.3648   -1.2796    0.3475 C   0  0  0  0  0  0  0  0  0  0  0  0
    1.2723   -2.1055   -0.3614 H   0  0  0  0  0  0  0  0  0  0  0  0
    2.3473   -0.8195    0.2246 H   0  0  0  0  0  0  0  0  0  0  0  0
    1.1984   -1.9392    2.0323 S   0  0  0  0  0  0  0  0  0  0  0  0
    2.1678   -2.8582    1.9466 H   0  0  0  0  0  0  0  0  0  0  0  0
    0.4799    0.4758   -1.3032 C   0  0  0  0  0  0  0  0  0  0  0  0
   -0.2474    0.2075   -2.2599 O   0  0  0  0  0  0  0  0  0  0  0  0
    1.4581    1.3854   -1.3814 N   0  0  0  0  0  0  0  0  0  0  0  0
    2.0496    1.5003   -0.5712 H   0  0  0  0  0  0  0  0  0  0  0  0
    1.7758    2.1540   -2.5836 C   0  0  0  0  0  0  0  0  0  0  0  0
    0.8653    2.6035   -2.9863 H   0  0  0  0  0  0  0  0  0  0  0  0
    2.4922    2.9421   -2.3489 H   0  0  0  0  0  0  0  0  0  0  0  0
    2.2016    1.4923   -3.3398 H   0  0  0  0  0  0  0  0  0  0  0  0
  5  6  2  0  0  0  0
  5  7  1  0  0  0  0
  2  3  1  0  0  0  0
  2  4  1  0  0  0  0
  2  5  1  0  0  0  0
  1  2  1  0  0  0  0
 16 17  2  0  0  0  0
 16 18  1  0  0  0  0
 14 15  1  0  0  0  0
 11 12  1  0  0  0  0
 11 13  1  0  0  0  0
 11 14  1  0  0  0  0
  9 10  1  0  0  0  0
  9 11  1  0  0  0  0
  9 16  1  0  0  0  0
  7  8  1  0  0  0  0
  7  9  1  0  0  0  0
 20 21  1  0  0  0  0
 20 22  1  0  0  0  0
 20 23  1  0  0  0  0
 18 19  1  0  0  0  0
 18 20  1  0  0  0  0
M  END
$$$$
default_name
  -OEChem-01062215323D

 23 22  0     1  0  0  0  0  0999 V2000
   -2.6857   -3.6684    0.8743 H   0  0  0  0  0  0  0  0  0  0  0  0
   -2.6617   -2.6474    0.4953 C   0  0  0  0  0  0  0  0  0  0  0  0
   -3.2657   -2.0054    1.1353 H   0  0  0  0  0  0  0  0  0  0  0  0
   -3.0477   -2.6254   -0.5217 H   0  0  0  0  0  0  0  0  0  0  0  0
   -1.2337   -2.1564    0.4993 C   0  0  0  0  0  0  0  0  0  0  0  0
   -0.3327   -2.8864    0.8893 O   0  0  0  0  0  0  0  0  0  0  0  0
   -1.0277   -0.9164    0.0623 N   0  0  0  0  0  0  0  0  0  0  0  0
   -1.8237   -0.3604   -0.2157 H   0  0  0  0  0  0  0  0  0  0  0  0
    0.2713   -0.2414    0.0463 C   0  0  1  0  0  0  0  0  0  0  0  0
    0.3913    0.3114    0.9801 H   0  0  0  0  0  0  0  0  0  0  0  0
    1.3753   -1.3088   -0.0318 C   0  0  0  0  0  0  0  0  0  0  0  0
    1.1853   -1.9507   -0.8950 H   0  0  0  0  0  0  0  0  0  0  0  0
    2.3438   -0.8219   -0.1626 H   0  0  0  0  0  0  0  0  0  0  0  0
    1.3996   -2.3398    1.4641 S   0  0  0  0  0  0  0  0  0  0  0  0
    2.3363   -3.2036    1.0544 H   0  0  0  0  0  0  0  0  0  0  0  0
    0.3298    0.7690   -1.1175 C   0  0  0  0  0  0  0  0  0  0  0  0
   -0.6432    0.9080   -1.8594 O   0  0  0  0  0  0  0  0  0  0  0  0
    1.4556    1.4748   -1.2748 N   0  0  0  0  0  0  0  0  0  0  0  0
    2.2290    1.2554   -0.6638 H   0  0  0  0  0  0  0  0  0  0  0  0
    1.6637    2.4739   -2.3214 C   0  0  0  0  0  0  0  0  0  0  0  0
    0.8237    3.1720   -2.3383 H   0  0  0  0  0  0  0  0  0  0  0  0
    2.5861    3.0260   -2.1377 H   0  0  0  0  0  0  0  0  0  0  0  0
    1.7258    1.9798   -3.2925 H   0  0  0  0  0  0  0  0  0  0  0  0
  5  6  2  0  0  0  0
  5  7  1  0  0  0  0
  2  3  1  0  0  0  0
  2  4  1  0  0  0  0
  2  5  1  0  0  0  0
  1  2  1  0  0  0  0
 16 17  2  0  0  0  0
 16 18  1  0  0  0  0
 14 15  1  0  0  0  0
 11 12  1  0  0  0  0
 11 13  1  0  0  0  0
 11 14  1  0  0  0  0
  9 10  1  0  0  0  0
  9 11  1  0  0  0  0
  9 16  1  0  0  0  0
  7  8  1  0  0  0  0
  7  9  1  0  0  0  0
 20 21  1  0  0  0  0
 20 22  1  0  0  0  0
 20 23  1  0  0  0  0
 18 19  1  0  0  0  0
 18 20  1  0  0  0  0
M  END
$$$$
default_name
  -OEChem-01062215323D

 23 22  0     1  0  0  0  0  0999 V2000
   -2.6857   -3.6684    0.8743 H   0  0  0  0  0  0  0  0  0  0  0  0
   -2.6617   -2.6474    0.4953 C   0  0  0  0  0  0  0  0  0  0  0  0
   -3.2657   -2.0054    1.1353 H   0  0  0  0  0  0  0  0  0  0  0  0
   -3.0477   -2.6254   -0.5217 H   0  0  0  0  0  0  0  0  0  0  0  0
   -1.2337   -2.1564    0.4993 C   0  0  0  0  0  0  0  0  0  0  0  0
   -0.3327   -2.8864    0.8893 O   0  0  0  0  0  0  0  0  0  0  0  0
   -1.0277   -0.9164    0.0623 N   0  0  0  0  0  0  0  0  0  0  0  0
   -1.8237   -0.3604   -0.2157 H   0  0  0  0  0  0  0  0  0  0  0  0
    0.2713   -0.2414    0.0463 C   0  0  1  0  0  0  0  0  0  0  0  0
    0.3913    0.3114    0.9801 H   0  0  0  0  0  0  0  0  0  0  0  0
    1.3753   -1.3088   -0.0318 C   0  0  0  0  0  0  0  0  0  0  0  0
    1.1853   -1.9507   -0.8950 H   0  0  0  0  0  0  0  0  0  0  0  0
    2.3438   -0.8219   -0.1626 H   0  0  0  0  0  0  0  0  0  0  0  0
    1.3996   -2.3398    1.4641 S   0  0  0  0  0  0  0  0  0  0  0  0
    2.3363   -3.2036    1.0544 H   0  0  0  0  0  0  0  0  0  0  0  0
    0.3298    0.7690   -1.1175 C   0  0  0  0  0  0  0  0  0  0  0  0
   -0.7079    1.1143   -1.6836 O   0  0  0  0  0  0  0  0  0  0  0  0
    1.5293    1.2464   -1.4694 N   0  0  0  0  0  0  0  0  0  0  0  0
    2.3363    0.8645   -0.9977 H   0  0  0  0  0  0  0  0  0  0  0  0
    1.7498    2.2134   -2.5432 C   0  0  0  0  0  0  0  0  0  0  0  0
    1.0725    3.0617   -2.4215 H   0  0  0  0  0  0  0  0  0  0  0  0
    2.7801    2.5706   -2.5233 H   0  0  0  0  0  0  0  0  0  0  0  0
    1.5491    1.7428   -3.5072 H   0  0  0  0  0  0  0  0  0  0  0  0
  5  6  2  0  0  0  0
  5  7  1  0  0  0  0
  2  3  1  0  0  0  0
  2  4  1  0  0  0  0
  2  5  1  0  0  0  0
  1  2  1  0  0  0  0
 16 17  2  0  0  0  0
 16 18  1  0  0  0  0
 14 15  1  0  0  0  0
 11 12  1  0  0  0  0
 11 13  1  0  0  0  0
 11 14  1  0  0  0  0
  9 10  1  0  0  0  0
  9 11  1  0  0  0  0
  9 16  1  0  0  0  0
  7  8  1  0  0  0  0
  7  9  1  0  0  0  0
 20 21  1  0  0  0  0
 20 22  1  0  0  0  0
 20 23  1  0  0  0  0
 18 19  1  0  0  0  0
 18 20  1  0  0  0  0
M  END
$$$$
default_name
  -OEChem-01062215323D

 23 22  0     1  0  0  0  0  0999 V2000
   -2.6857   -3.6684    0.8743 H   0  0  0  0  0  0  0  0  0  0  0  0
   -2.6617   -2.6474    0.4953 C   0  0  0  0  0  0  0  0  0  0  0  0
   -3.2657   -2.0054    1.1353 H   0  0  0  0  0  0  0  0  0  0  0  0
   -3.0477   -2.6254   -0.5217 H   0  0  0  0  0  0  0  0  0  0  0  0
   -1.2337   -2.1564    0.4993 C   0  0  0  0  0  0  0  0  0  0  0  0
   -0.3327   -2.8864    0.8893 O   0  0  0  0  0  0  0  0  0  0  0  0
   -1.0277   -0.9164    0.0623 N   0  0  0  0  0  0  0  0  0  0  0  0
   -1.8237   -0.3604   -0.2157 H   0  0  0  0  0  0  0  0  0  0  0  0
    0.2713   -0.2414    0.0463 C   0  0  1  0  0  0  0  0  0  0  0  0
    0.3913    0.3114    0.9801 H   0  0  0  0  0  0  0  0  0  0  0  0
    1.3753   -1.3088   -0.0318 C   0  0  0  0  0  0  0  0  0  0  0  0
    1.1853   -1.9507   -0.8950 H   0  0  0  0  0  0  0  0  0  0  0  0
    2.3438   -0.8219   -0.1626 H   0  0  0  0  0  0  0  0  0  0  0  0
    1.3996   -2.3398    1.4641 S   0  0  0  0  0  0  0  0  0  0  0  0
    2.3363   -3.2036    1.0544 H   0  0  0  0  0  0  0  0  0  0  0  0
    0.3298    0.7690   -1.1175 C   0  0  0  0  0  0  0  0  0  0  0  0
   -0.7002    1.3245   -1.5008 O   0  0  0  0  0  0  0  0  0  0  0  0
    1.5228    1.0132   -1.6721 N   0  0  0  0  0  0  0  0  0  0  0  0
    2.3070    0.4693   -1.3423 H   0  0  0  0  0  0  0  0  0  0  0  0
    1.7444    1.9472   -2.7746 C   0  0  0  0  0  0  0  0  0  0  0  0
    1.2771    2.9075   -2.5451 H   0  0  0  0  0  0  0  0  0  0  0  0
    2.8131    2.0966   -2.9332 H   0  0  0  0  0  0  0  0  0  0  0  0
    1.2958    1.5505   -3.6869 H   0  0  0  0  0  0  0  0  0  0  0  0
  5  6  2  0  0  0  0
  5  7  1  0  0  0  0
  2  3  1  0  0  0  0
  2  4  1  0  0  0  0
  2  5  1  0  0  0  0
  1  2  1  0  0  0  0
 16 17  2  0  0  0  0
 16 18  1  0  0  0  0
 14 15  1  0  0  0  0
 11 12  1  0  0  0  0
 11 13  1  0  0  0  0
 11 14  1  0  0  0  0
  9 10  1  0  0  0  0
  9 11  1  0  0  0  0
  9 16  1  0  0  0  0
  7  8  1  0  0  0  0
  7  9  1  0  0  0  0
 20 21  1  0  0  0  0
 20 22  1  0  0  0  0
 20 23  1  0  0  0  0
 18 19  1  0  0  0  0
 18 20  1  0  0  0  0
M  END
$$$$
default_name
  -OEChem-01062215323D

 23 22  0     1  0  0  0  0  0999 V2000
   -2.6857   -3.6684    0.8743 H   0  0  0  0  0  0  0  0  0  0  0  0
   -2.6617   -2.6474    0.4953 C   0  0  0  0  0  0  0  0  0  0  0  0
   -3.2657   -2.0054    1.1353 H   0  0  0  0  0  0  0  0  0  0  0  0
   -3.0477   -2.6254   -0.5217 H   0  0  0  0  0  0  0  0  0  0  0  0
   -1.2337   -2.1564    0.4993 C   0  0  0  0  0  0  0  0  0  0  0  0
   -0.3327   -2.8864    0.8893 O   0  0  0  0  0  0  0  0  0  0  0  0
   -1.0277   -0.9164    0.0623 N   0  0  0  0  0  0  0  0  0  0  0  0
   -1.8237   -0.3604   -0.2157 H   0  0  0  0  0  0  0  0  0  0  0  0
    0.2713   -0.2414    0.0463 C   0  0  1  0  0  0  0  0  0  0  0  0
    0.3913    0.3114    0.9801 H   0  0  0  0  0  0  0  0  0  0  0  0
    1.3753   -1.3088   -0.0318 C   0  0  0  0  0  0  0  0  0  0  0  0
    1.1853   -1.9507   -0.8950 H   0  0  0  0  0  0  0  0  0  0  0  0
    2.3438   -0.8219   -0.1626 H   0  0  0  0  0  0  0  0  0  0  0  0
    1.3996   -2.3398    1.4641 S   0  0  0  0  0  0  0  0  0  0  0  0
    2.3363   -3.2036    1.0544 H   0  0  0  0  0  0  0  0  0  0  0  0
    0.3298    0.7690   -1.1175 C   0  0  0  0  0  0  0  0  0  0  0  0
   -0.6209    1.5242   -1.3234 O   0  0  0  0  0  0  0  0  0  0  0  0
    1.4366    0.7913   -1.8692 N   0  0  0  0  0  0  0  0  0  0  0  0
    2.1430    0.0967   -1.6741 H   0  0  0  0  0  0  0  0  0  0  0  0
    1.6481    1.6934   -2.9998 C   0  0  0  0  0  0  0  0  0  0  0  0
    1.4236    2.7198   -2.7008 H   0  0  0  0  0  0  0  0  0  0  0  0
    2.6829    1.6363   -3.3394 H   0  0  0  0  0  0  0  0  0  0  0  0
    0.9831    1.4159   -3.8194 H   0  0  0  0  0  0  0  0  0  0  0  0
  5  6  2  0  0  0  0
  5  7  1  0  0  0  0
  2  3  1  0  0  0  0
  2  4  1  0  0  0  0
  2  5  1  0  0  0  0
  1  2  1  0  0  0  0
 16 17  2  0  0  0  0
 16 18  1  0  0  0  0
 14 15  1  0  0  0  0
 11 12  1  0  0  0  0
 11 13  1  0  0  0  0
 11 14  1  0  0  0  0
  9 10  1  0  0  0  0
  9 11  1  0  0  0  0
  9 16  1  0  0  0  0
  7  8  1  0  0  0  0
  7  9  1  0  0  0  0
 20 21  1  0  0  0  0
 20 22  1  0  0  0  0
 20 23  1  0  0  0  0
 18 19  1  0  0  0  0
 18 20  1  0  0  0  0
M  END
$$$$
default_name
  -OEChem-01062215323D

 23 22  0     1  0  0  0  0  0999 V2000
   -2.6857   -3.6684    0.8743 H   0  0  0  0  0  0  0  0  0  0  0  0
   -2.6617   -2.6474    0.4953 C   0  0  0  0  0  0  0  0  0  0  0  0
   -3.2657   -2.0054    1.1353 H   0  0  0  0  0  0  0  0  0  0  0  0
   -3.0477   -2.6254   -0.5217 H   0  0  0  0  0  0  0  0  0  0  0  0
   -1.2337   -2.1564    0.4993 C   0  0  0  0  0  0  0  0  0  0  0  0
   -0.3327   -2.8864    0.8893 O   0  0  0  0  0  0  0  0  0  0  0  0
   -1.0277   -0.9164    0.0623 N   0  0  0  0  0  0  0  0  0  0  0  0
   -1.8237   -0.3604   -0.2157 H   0  0  0  0  0  0  0  0  0  0  0  0
    0.2713   -0.2414    0.0463 C   0  0  1  0  0  0  0  0  0  0  0  0
    0.3913    0.3114    0.9801 H   0  0  0  0  0  0  0  0  0  0  0  0
    1.3753   -1.3088   -0.0318 C   0  0  0  0  0  0  0  0  0  0  0  0
    1.1853   -1.9507   -0.8950 H   0  0  0  0  0  0  0  0  0  0  0  0
    2.3438   -0.8219   -0.1626 H   0  0  0  0  0  0  0  0  0  0  0  0
    1.3996   -2.3398    1.4641 S   0  0  0  0  0  0  0  0  0  0  0  0
    2.3363   -3.2036    1.0544 H   0  0  0  0  0  0  0  0  0  0  0  0
    0.3298    0.7690   -1.1175 C   0  0  0  0  0  0  0  0  0  0  0  0
   -0.4751    1.6998   -1.1635 O   0  0  0  0  0  0  0  0  0  0  0  0
    1.2766    0.5957   -2.0470 N   0  0  0  0  0  0  0  0  0  0  0  0
    1.8556   -0.2280   -1.9704 H   0  0  0  0  0  0  0  0  0  0  0  0
    1.4672    1.4692   -3.2035 C   0  0  0  0  0  0  0  0  0  0  0  0
    1.5021    2.5113   -2.8778 H   0  0  0  0  0  0  0  0  0  0  0  0
    2.3984    1.2211   -3.7142 H   0  0  0  0  0  0  0  0  0  0  0  0
    0.6322    1.3483   -3.8957 H   0  0  0  0  0  0  0  0  0  0  0  0
  5  6  2  0  0  0  0
  5  7  1  0  0  0  0
  2  3  1  0  0  0  0
  2  4  1  0  0  0  0
  2  5  1  0  0  0  0
  1  2  1  0  0  0  0
 16 17  2  0  0  0  0
 16 18  1  0  0  0  0
 14 15  1  0  0  0  0
 11 12  1  0  0  0  0
 11 13  1  0  0  0  0
 11 14  1  0  0  0  0
  9 10  1  0  0  0  0
  9 11  1  0  0  0  0
  9 16  1  0  0  0  0
  7  8  1  0  0  0  0
  7  9  1  0  0  0  0
 20 21  1  0  0  0  0
 20 22  1  0  0  0  0
 20 23  1  0  0  0  0
 18 19  1  0  0  0  0
 18 20  1  0  0  0  0
M  END
$$$$
default_name
  -OEChem-01062215323D

 23 22  0     1  0  0  0  0  0999 V2000
   -2.6857   -3.6684    0.8743 H   0  0  0  0  0  0  0  0  0  0  0  0
   -2.6617   -2.6474    0.4953 C   0  0  0  0  0  0  0  0  0  0  0  0
   -3.2657   -2.0054    1.1353 H   0  0  0  0  0  0  0  0  0  0  0  0
   -3.0477   -2.6254   -0.5217 H   0  0  0  0  0  0  0  0  0  0  0  0
   -1.2337   -2.1564    0.4993 C   0  0  0  0  0  0  0  0  0  0  0  0
   -0.3327   -2.8864    0.8893 O   0  0  0  0  0  0  0  0  0  0  0  0
   -1.0277   -0.9164    0.0623 N   0  0  0  0  0  0  0  0  0  0  0  0
   -1.8237   -0.3604   -0.2157 H   0  0  0  0  0  0  0  0  0  0  0  0
    0.2713   -0.2414    0.0463 C   0  0  1  0  0  0  0  0  0  0  0  0
    0.3913    0.3114    0.9801 H   0  0  0  0  0  0  0  0  0  0  0  0
    1.3753   -1.3088   -0.0318 C   0  0  0  0  0  0  0  0  0  0  0  0
    1.1853   -1.9507   -0.8950 H   0  0  0  0  0  0  0  0  0  0  0  0
    2.3438   -0.8219   -0.1626 H   0  0  0  0  0  0  0  0  0  0  0  0
    1.3996   -2.3398    1.4641 S   0  0  0  0  0  0  0  0  0  0  0  0
    2.3363   -3.2036    1.0544 H   0  0  0  0  0  0  0  0  0  0  0  0
    0.3298    0.7690   -1.1175 C   0  0  0  0  0  0  0  0  0  0  0  0
   -0.2729    1.8395   -1.0322 O   0  0  0  0  0  0  0  0  0  0  0  0
    1.0537    0.4397   -2.1936 N   0  0  0  0  0  0  0  0  0  0  0  0
    1.4644   -0.4826   -2.2111 H   0  0  0  0  0  0  0  0  0  0  0  0
    1.2142    1.2901   -3.3717 C   0  0  0  0  0  0  0  0  0  0  0  0
    1.5072    2.2964   -3.0641 H   0  0  0  0  0  0  0  0  0  0  0  0
    1.9789    0.8793   -4.0320 H   0  0  0  0  0  0  0  0  0  0  0  0
    0.2672    1.3523   -3.9106 H   0  0  0  0  0  0  0  0  0  0  0  0
  5  6  2  0  0  0  0
  5  7  1  0  0  0  0
  2  3  1  0  0  0  0
  2  4  1  0  0  0  0
  2  5  1  0  0  0  0
  1  2  1  0  0  0  0
 16 17  2  0  0  0  0
 16 18  1  0  0  0  0
 14 15  1  0  0  0  0
 11 12  1  0  0  0  0
 11 13  1  0  0  0  0
 11 14  1  0  0  0  0
  9 10  1  0  0  0  0
  9 11  1  0  0  0  0
  9 16  1  0  0  0  0
  7  8  1  0  0  0  0
  7  9  1  0  0  0  0
 20 21  1  0  0  0  0
 20 22  1  0  0  0  0
 20 23  1  0  0  0  0
 18 19  1  0  0  0  0
 18 20  1  0  0  0  0
M  END
$$$$
default_name
  -OEChem-01062215323D

 23 22  0     1  0  0  0  0  0999 V2000
   -2.6857   -3.6684    0.8743 H   0  0  0  0  0  0  0  0  0  0  0  0
   -2.6617   -2.6474    0.4953 C   0  0  0  0  0  0  0  0  0  0  0  0
   -3.2657   -2.0054    1.1353 H   0  0  0  0  0  0  0  0  0  0  0  0
   -3.0477   -2.6254   -0.5217 H   0  0  0  0  0  0  0  0  0  0  0  0
   -1.2337   -2.1564    0.4993 C   0  0  0  0  0  0  0  0  0  0  0  0
   -0.3327   -2.8864    0.8893 O   0  0  0  0  0  0  0  0  0  0  0  0
   -1.0277   -0.9164    0.0623 N   0  0  0  0  0  0  0  0  0  0  0  0
   -1.8237   -0.3604   -0.2157 H   0  0  0  0  0  0  0  0  0  0  0  0
    0.2713   -0.2414    0.0463 C   0  0  1  0  0  0  0  0  0  0  0  0
    0.3913    0.3114    0.9801 H   0  0  0  0  0  0  0  0  0  0  0  0
    1.3753   -1.3088   -0.0318 C   0  0  0  0  0  0  0  0  0  0  0  0
    1.1853   -1.9507   -0.8950 H   0  0  0  0  0  0  0  0  0  0  0  0
    2.3438   -0.8219   -0.1626 H   0  0  0  0  0  0  0  0  0  0  0  0
    1.3996   -2.3398    1.4641 S   0  0  0  0  0  0  0  0  0  0  0  0
    2.3363   -3.2036    1.0544 H   0  0  0  0  0  0  0  0  0  0  0  0
    0.3298    0.7690   -1.1175 C   0  0  0  0  0  0  0  0  0  0  0  0
   -0.0280    1.9336   -0.9381 O   0  0  0  0  0  0  0  0  0  0  0  0
    0.7830    0.3341   -2.2990 N   0  0  0  0  0  0  0  0  0  0  0  0
    0.9959   -0.6497   -2.3797 H   0  0  0  0  0  0  0  0  0  0  0  0
    0.9063    1.1681   -3.4931 C   0  0  0  0  0  0  0  0  0  0  0  0
    1.4386    2.0896   -3.2471 H   0  0  0  0  0  0  0  0  0  0  0  0
    1.4531    0.6342   -4.2712 H   0  0  0  0  0  0  0  0  0  0  0  0
   -0.0871    1.4276   -3.8630 H   0  0  0  0  0  0  0  0  0  0  0  0
  5  6  2  0  0  0  0
  5  7  1  0  0  0  0
  2  3  1  0  0  0  0
  2  4  1  0  0  0  0
  2  5  1  0  0  0  0
  1  2  1  0  0  0  0
 16 17  2  0  0  0  0
 16 18  1  0  0  0  0
 14 15  1  0  0  0  0
 11 12  1  0  0  0  0
 11 13  1  0  0  0  0
 11 14  1  0  0  0  0
  9 10  1  0  0  0  0
  9 11  1  0  0  0  0
  9 16  1  0  0  0  0
  7  8  1  0  0  0  0
  7  9  1  0  0  0  0
 20 21  1  0  0  0  0
 20 22  1  0  0  0  0
 20 23  1  0  0  0  0
 18 19  1  0  0  0  0
 18 20  1  0  0  0  0
M  END
$$$$
default_name
  -OEChem-01062215323D

 23 22  0     1  0  0  0  0  0999 V2000
   -2.6857   -3.6684    0.8743 H   0  0  0  0  0  0  0  0  0  0  0  0
   -2.6617   -2.6474    0.4953 C   0  0  0  0  0  0  0  0  0  0  0  0
   -3.2657   -2.0054    1.1353 H   0  0  0  0  0  0  0  0  0  0  0  0
   -3.0477   -2.6254   -0.5217 H   0  0  0  0  0  0  0  0  0  0  0  0
   -1.2337   -2.1564    0.4993 C   0  0  0  0  0  0  0  0  0  0  0  0
   -0.3327   -2.8864    0.8893 O   0  0  0  0  0  0  0  0  0  0  0  0
   -1.0277   -0.9164    0.0623 N   0  0  0  0  0  0  0  0  0  0  0  0
   -1.8237   -0.3604   -0.2157 H   0  0  0  0  0  0  0  0  0  0  0  0
    0.2713   -0.2414    0.0463 C   0  0  1  0  0  0  0  0  0  0  0  0
    0.3913    0.3114    0.9801 H   0  0  0  0  0  0  0  0  0  0  0  0
    1.3753   -1.3088   -0.0318 C   0  0  0  0  0  0  0  0  0  0  0  0
    1.1853   -1.9507   -0.8950 H   0  0  0  0  0  0  0  0  0  0  0  0
    2.3438   -0.8219   -0.1626 H   0  0  0  0  0  0  0  0  0  0  0  0
    1.3996   -2.3398    1.4641 S   0  0  0  0  0  0  0  0  0  0  0  0
    2.3363   -3.2036    1.0544 H   0  0  0  0  0  0  0  0  0  0  0  0
    0.3298    0.7690   -1.1175 C   0  0  0  0  0  0  0  0  0  0  0  0
    0.2428    1.9757   -0.8879 O   0  0  0  0  0  0  0  0  0  0  0  0
    0.4831    0.2859   -2.3558 N   0  0  0  0  0  0  0  0  0  0  0  0
    0.4822   -0.7180   -2.4648 H   0  0  0  0  0  0  0  0  0  0  0  0
    0.5645    1.1115   -3.5594 C   0  0  0  0  0  0  0  0  0  0  0  0
    1.3009    1.9051   -3.4142 H   0  0  0  0  0  0  0  0  0  0  0  0
    0.8568    0.5024   -4.4156 H   0  0  0  0  0  0  0  0  0  0  0  0
   -0.4066    1.5691   -3.7563 H   0  0  0  0  0  0  0  0  0  0  0  0
  5  6  2  0  0  0  0
  5  7  1  0  0  0  0
  2  3  1  0  0  0  0
  2  4  1  0  0  0  0
  2  5  1  0  0  0  0
  1  2  1  0  0  0  0
 16 17  2  0  0  0  0
 16 18  1  0  0  0  0
 14 15  1  0  0  0  0
 11 12  1  0  0  0  0
 11 13  1  0  0  0  0
 11 14  1  0  0  0  0
  9 10  1  0  0  0  0
  9 11  1  0  0  0  0
  9 16  1  0  0  0  0
  7  8  1  0  0  0  0
  7  9  1  0  0  0  0
 20 21  1  0  0  0  0
 20 22  1  0  0  0  0
 20 23  1  0  0  0  0
 18 19  1  0  0  0  0
 18 20  1  0  0  0  0
M  END
$$$$
default_name
  -OEChem-01062215323D

 23 22  0     1  0  0  0  0  0999 V2000
   -2.6857   -3.6684    0.8743 H   0  0  0  0  0  0  0  0  0  0  0  0
   -2.6617   -2.6474    0.4953 C   0  0  0  0  0  0  0  0  0  0  0  0
   -3.2657   -2.0054    1.1353 H   0  0  0  0  0  0  0  0  0  0  0  0
   -3.0477   -2.6254   -0.5217 H   0  0  0  0  0  0  0  0  0  0  0  0
   -1.2337   -2.1564    0.4993 C   0  0  0  0  0  0  0  0  0  0  0  0
   -0.3327   -2.8864    0.8893 O   0  0  0  0  0  0  0  0  0  0  0  0
   -1.0277   -0.9164    0.0623 N   0  0  0  0  0  0  0  0  0  0  0  0
   -1.8237   -0.3604   -0.2157 H   0  0  0  0  0  0  0  0  0  0  0  0
    0.2713   -0.2414    0.0463 C   0  0  1  0  0  0  0  0  0  0  0  0
    0.3913    0.3114    0.9801 H   0  0  0  0  0  0  0  0  0  0  0  0
    1.3753   -1.3088   -0.0318 C   0  0  0  0  0  0  0  0  0  0  0  0
    1.1853   -1.9507   -0.8950 H   0  0  0  0  0  0  0  0  0  0  0  0
    2.3438   -0.8219   -0.1626 H   0  0  0  0  0  0  0  0  0  0  0  0
    1.3996   -2.3398    1.4641 S   0  0  0  0  0  0  0  0  0  0  0  0
    2.3363   -3.2036    1.0544 H   0  0  0  0  0  0  0  0  0  0  0  0
    0.3298    0.7690   -1.1175 C   0  0  0  0  0  0  0  0  0  0  0  0
    0.5212    1.9630   -0.8850 O   0  0  0  0  0  0  0  0  0  0  0  0
    0.1744    0.2985   -2.3604 N   0  0  0  0  0  0  0  0  0  0  0  0
   -0.0418   -0.6828   -2.4606 H   0  0  0  0  0  0  0  0  0  0  0  0
    0.2120    1.1243   -3.5660 C   0  0  0  0  0  0  0  0  0  0  0  0
    1.1035    1.7554   -3.5541 H   0  0  0  0  0  0  0  0  0  0  0  0
    0.2306    0.4931   -4.4551 H   0  0  0  0  0  0  0  0  0  0  0  0
   -0.6695    1.7670   -3.5976 H   0  0  0  0  0  0  0  0  0  0  0  0
  5  6  2  0  0  0  0
  5  7  1  0  0  0  0
  2  3  1  0  0  0  0
  2  4  1  0  0  0  0
  2  5  1  0  0  0  0
  1  2  1  0  0  0  0
 16 17  2  0  0  0  0
 16 18  1  0  0  0  0
 14 15  1  0  0  0  0
 11 12  1  0  0  0  0
 11 13  1  0  0  0  0
 11 14  1  0  0  0  0
  9 10  1  0  0  0  0
  9 11  1  0  0  0  0
  9 16  1  0  0  0  0
  7  8  1  0  0  0  0
  7  9  1  0  0  0  0
 20 21  1  0  0  0  0
 20 22  1  0  0  0  0
 20 23  1  0  0  0  0
 18 19  1  0  0  0  0
 18 20  1  0  0  0  0
M  END
$$$$
default_name
  -OEChem-01062215323D

 23 22  0     1  0  0  0  0  0999 V2000
   -2.6857   -3.6684    0.8743 H   0  0  0  0  0  0  0  0  0  0  0  0
   -2.6617   -2.6474    0.4953 C   0  0  0  0  0  0  0  0  0  0  0  0
   -3.2657   -2.0054    1.1353 H   0  0  0  0  0  0  0  0  0  0  0  0
   -3.0477   -2.6254   -0.5217 H   0  0  0  0  0  0  0  0  0  0  0  0
   -1.2337   -2.1564    0.4993 C   0  0  0  0  0  0  0  0  0  0  0  0
   -0.3327   -2.8864    0.8893 O   0  0  0  0  0  0  0  0  0  0  0  0
   -1.0277   -0.9164    0.0623 N   0  0  0  0  0  0  0  0  0  0  0  0
   -1.8237   -0.3604   -0.2157 H   0  0  0  0  0  0  0  0  0  0  0  0
    0.2713   -0.2414    0.0463 C   0  0  1  0  0  0  0  0  0  0  0  0
    0.3913    0.3114    0.9801 H   0  0  0  0  0  0  0  0  0  0  0  0
    1.3753   -1.3088   -0.0318 C   0  0  0  0  0  0  0  0  0  0  0  0
    1.1853   -1.9507   -0.8950 H   0  0  0  0  0  0  0  0  0  0  0  0
    2.3438   -0.8219   -0.1626 H   0  0  0  0  0  0  0  0  0  0  0  0
    1.3996   -2.3398    1.4641 S   0  0  0  0  0  0  0  0  0  0  0  0
    2.3363   -3.2036    1.0544 H   0  0  0  0  0  0  0  0  0  0  0  0
    0.3298    0.7690   -1.1175 C   0  0  0  0  0  0  0  0  0  0  0  0
    0.7881    1.8964   -0.9294 O   0  0  0  0  0  0  0  0  0  0  0  0
   -0.1221    0.3710   -2.3124 N   0  0  0  0  0  0  0  0  0  0  0  0
   -0.5403   -0.5465   -2.3673 H   0  0  0  0  0  0  0  0  0  0  0  0
   -0.1271    1.2056   -3.5125 C   0  0  0  0  0  0  0  0  0  0  0  0
    0.8599    1.6507   -3.6572 H   0  0  0  0  0  0  0  0  0  0  0  0
   -0.3829    0.6067   -4.3873 H   0  0  0  0  0  0  0  0  0  0  0  0
   -0.8578    2.0080   -3.3978 H   0  0  0  0  0  0  0  0  0  0  0  0
  5  6  2  0  0  0  0
  5  7  1  0  0  0  0
  2  3  1  0  0  0  0
  2  4  1  0  0  0  0
  2  5  1  0  0  0  0
  1  2  1  0  0  0  0
 16 17  2  0  0  0  0
 16 18  1  0  0  0  0
 14 15  1  0  0  0  0
 11 12  1  0  0  0  0
 11 13  1  0  0  0  0
 11 14  1  0  0  0  0
  9 10  1  0  0  0  0
  9 11  1  0  0  0  0
  9 16  1  0  0  0  0
  7  8  1  0  0  0  0
  7  9  1  0  0  0  0
 20 21  1  0  0  0  0
 20 22  1  0  0  0  0
 20 23  1  0  0  0  0
 18 19  1  0  0  0  0
 18 20  1  0  0  0  0
M  END
$$$$
default_name
  -OEChem-01062215323D

 23 22  0     1  0  0  0  0  0999 V2000
   -2.6857   -3.6684    0.8743 H   0  0  0  0  0  0  0  0  0  0  0  0
   -2.6617   -2.6474    0.4953 C   0  0  0  0  0  0  0  0  0  0  0  0
   -3.2657   -2.0054    1.1353 H   0  0  0  0  0  0  0  0  0  0  0  0
   -3.0477   -2.6254   -0.5217 H   0  0  0  0  0  0  0  0  0  0  0  0
   -1.2337   -2.1564    0.4993 C   0  0  0  0  0  0  0  0  0  0  0  0
   -0.3327   -2.8864    0.8893 O   0  0  0  0  0  0  0  0  0  0  0  0
   -1.0277   -0.9164    0.0623 N   0  0  0  0  0  0  0  0  0  0  0  0
   -1.8237   -0.3604   -0.2157 H   0  0  0  0  0  0  0  0  0  0  0  0
    0.2713   -0.2414    0.0463 C   0  0  1  0  0  0  0  0  0  0  0  0
    0.3913    0.3114    0.9801 H   0  0  0  0  0  0  0  0  0  0  0  0
    1.3753   -1.3088   -0.0318 C   0  0  0  0  0  0  0  0  0  0  0  0
    1.1853   -1.9507   -0.8950 H   0  0  0  0  0  0  0  0  0  0  0  0
    2.3438   -0.8219   -0.1626 H   0  0  0  0  0  0  0  0  0  0  0  0
    1.3996   -2.3398    1.4641 S   0  0  0  0  0  0  0  0  0  0  0  0
    2.3363   -3.2036    1.0544 H   0  0  0  0  0  0  0  0  0  0  0  0
    0.3298    0.7690   -1.1175 C   0  0  0  0  0  0  0  0  0  0  0  0
    1.0253    1.7804   -1.0182 O   0  0  0  0  0  0  0  0  0  0  0  0
   -0.3862    0.4985   -2.2150 N   0  0  0  0  0  0  0  0  0  0  0  0
   -0.9794   -0.3184   -2.1913 H   0  0  0  0  0  0  0  0  0  0  0  0
   -0.4296    1.3498   -3.4025 C   0  0  0  0  0  0  0  0  0  0  0  0
    0.5867    1.5982   -3.7166 H   0  0  0  0  0  0  0  0  0  0  0  0
   -0.9417    0.8356   -4.2167 H   0  0  0  0  0  0  0  0  0  0  0  0
   -0.9588    2.2757   -3.1706 H   0  0  0  0  0  0  0  0  0  0  0  0
  5  6  2  0  0  0  0
  5  7  1  0  0  0  0
  2  3  1  0  0  0  0
  2  4  1  0  0  0  0
  2  5  1  0  0  0  0
  1  2  1  0  0  0  0
 16 17  2  0  0  0  0
 16 18  1  0  0  0  0
 14 15  1  0  0  0  0
 11 12  1  0  0  0  0
 11 13  1  0  0  0  0
 11 14  1  0  0  0  0
  9 10  1  0  0  0  0
  9 11  1  0  0  0  0
  9 16  1  0  0  0  0
  7  8  1  0  0  0  0
  7  9  1  0  0  0  0
 20 21  1  0  0  0  0
 20 22  1  0  0  0  0
 20 23  1  0  0  0  0
 18 19  1  0  0  0  0
 18 20  1  0  0  0  0
M  END
$$$$
default_name
  -OEChem-01062215323D

 23 22  0     1  0  0  0  0  0999 V2000
   -2.6857   -3.6684    0.8743 H   0  0  0  0  0  0  0  0  0  0  0  0
   -2.6617   -2.6474    0.4953 C   0  0  0  0  0  0  0  0  0  0  0  0
   -3.2657   -2.0054    1.1353 H   0  0  0  0  0  0  0  0  0  0  0  0
   -3.0477   -2.6254   -0.5217 H   0  0  0  0  0  0  0  0  0  0  0  0
   -1.2337   -2.1564    0.4993 C   0  0  0  0  0  0  0  0  0  0  0  0
   -0.3327   -2.8864    0.8893 O   0  0  0  0  0  0  0  0  0  0  0  0
   -1.0277   -0.9164    0.0623 N   0  0  0  0  0  0  0  0  0  0  0  0
   -1.8237   -0.3604   -0.2157 H   0  0  0  0  0  0  0  0  0  0  0  0
    0.2713   -0.2414    0.0463 C   0  0  1  0  0  0  0  0  0  0  0  0
    0.3913    0.3114    0.9801 H   0  0  0  0  0  0  0  0  0  0  0  0
    1.3753   -1.3088   -0.0318 C   0  0  0  0  0  0  0  0  0  0  0  0
    1.1853   -1.9507   -0.8950 H   0  0  0  0  0  0  0  0  0  0  0  0
    2.3438   -0.8219   -0.1626 H   0  0  0  0  0  0  0  0  0  0  0  0
    1.3996   -2.3398    1.4641 S   0  0  0  0  0  0  0  0  0  0  0  0
    2.3363   -3.2036    1.0544 H   0  0  0  0  0  0  0  0  0  0  0  0
    0.3298    0.7690   -1.1175 C   0  0  0  0  0  0  0  0  0  0  0  0
    1.2168    1.6228   -1.1454 O   0  0  0  0  0  0  0  0  0  0  0  0
   -0.6000    0.6722   -2.0749 N   0  0  0  0  0  0  0  0  0  0  0  0
   -1.3292   -0.0140   -1.9447 H   0  0  0  0  0  0  0  0  0  0  0  0
   -0.6751    1.5471   -3.2435 C   0  0  0  0  0  0  0  0  0  0  0  0
    0.3024    1.6014   -3.7281 H   0  0  0  0  0  0  0  0  0  0  0  0
   -1.4078    1.1642   -3.9548 H   0  0  0  0  0  0  0  0  0  0  0  0
   -0.9655    2.5516   -2.9313 H   0  0  0  0  0  0  0  0  0  0  0  0
  5  6  2  0  0  0  0
  5  7  1  0  0  0  0
  2  3  1  0  0  0  0
  2  4  1  0  0  0  0
  2  5  1  0  0  0  0
  1  2  1  0  0  0  0
 16 17  2  0  0  0  0
 16 18  1  0  0  0  0
 14 15  1  0  0  0  0
 11 12  1  0  0  0  0
 11 13  1  0  0  0  0
 11 14  1  0  0  0  0
  9 10  1  0  0  0  0
  9 11  1  0  0  0  0
  9 16  1  0  0  0  0
  7  8  1  0  0  0  0
  7  9  1  0  0  0  0
 20 21  1  0  0  0  0
 20 22  1  0  0  0  0
 20 23  1  0  0  0  0
 18 19  1  0  0  0  0
 18 20  1  0  0  0  0
M  END
$$$$
default_name
  -OEChem-01062215323D

 23 22  0     1  0  0  0  0  0999 V2000
   -2.6857   -3.6684    0.8743 H   0  0  0  0  0  0  0  0  0  0  0  0
   -2.6617   -2.6474    0.4953 C   0  0  0  0  0  0  0  0  0  0  0  0
   -3.2657   -2.0054    1.1353 H   0  0  0  0  0  0  0  0  0  0  0  0
   -3.0477   -2.6254   -0.5217 H   0  0  0  0  0  0  0  0  0  0  0  0
   -1.2337   -2.1564    0.4993 C   0  0  0  0  0  0  0  0  0  0  0  0
   -0.3327   -2.8864    0.8893 O   0  0  0  0  0  0  0  0  0  0  0  0
   -1.0277   -0.9164    0.0623 N   0  0  0  0  0  0  0  0  0  0  0  0
   -1.8237   -0.3604   -0.2157 H   0  0  0  0  0  0  0  0  0  0  0  0
    0.2713   -0.2414    0.0463 C   0  0  1  0  0  0  0  0  0  0  0  0
    0.3913    0.3114    0.9801 H   0  0  0  0  0  0  0  0  0  0  0  0
    1.3753   -1.3088   -0.0318 C   0  0  0  0  0  0  0  0  0  0  0  0
    1.1853   -1.9507   -0.8950 H   0  0  0  0  0  0  0  0  0  0  0  0
    2.3438   -0.8219   -0.1626 H   0  0  0  0  0  0  0  0  0  0  0  0
    1.3996   -2.3398    1.4641 S   0  0  0  0  0  0  0  0  0  0  0  0
    2.3363   -3.2036    1.0544 H   0  0  0  0  0  0  0  0  0  0  0  0
    0.3298    0.7690   -1.1175 C   0  0  0  0  0  0  0  0  0  0  0  0
    1.3494    1.4345   -1.3023 O   0  0  0  0  0  0  0  0  0  0  0  0
   -0.7487    0.8804   -1.9016 N   0  0  0  0  0  0  0  0  0  0  0  0
   -1.5657    0.3458   -1.6441 H   0  0  0  0  0  0  0  0  0  0  0  0
   -0.8467    1.7840   -3.0464 C   0  0  0  0  0  0  0  0  0  0  0  0
    0.0265    1.6601   -3.6909 H   0  0  0  0  0  0  0  0  0  0  0  0
   -1.7495    1.5700   -3.6196 H   0  0  0  0  0  0  0  0  0  0  0  0
   -0.8776    2.8172   -2.6963 H   0  0  0  0  0  0  0  0  0  0  0  0
  5  6  2  0  0  0  0
  5  7  1  0  0  0  0
  2  3  1  0  0  0  0
  2  4  1  0  0  0  0
  2  5  1  0  0  0  0
  1  2  1  0  0  0  0
 16 17  2  0  0  0  0
 16 18  1  0  0  0  0
 14 15  1  0  0  0  0
 11 12  1  0  0  0  0
 11 13  1  0  0  0  0
 11 14  1  0  0  0  0
  9 10  1  0  0  0  0
  9 11  1  0  0  0  0
  9 16  1  0  0  0  0
  7  8  1  0  0  0  0
  7  9  1  0  0  0  0
 20 21  1  0  0  0  0
 20 22  1  0  0  0  0
 20 23  1  0  0  0  0
 18 19  1  0  0  0  0
 18 20  1  0  0  0  0
M  END
$$$$
default_name
  -OEChem-01062215323D

 23 22  0     1  0  0  0  0  0999 V2000
   -2.6857   -3.6684    0.8743 H   0  0  0  0  0  0  0  0  0  0  0  0
   -2.6617   -2.6474    0.4953 C   0  0  0  0  0  0  0  0  0  0  0  0
   -3.2657   -2.0054    1.1353 H   0  0  0  0  0  0  0  0  0  0  0  0
   -3.0477   -2.6254   -0.5217 H   0  0  0  0  0  0  0  0  0  0  0  0
   -1.2337   -2.1564    0.4993 C   0  0  0  0  0  0  0  0  0  0  0  0
   -0.3327   -2.8864    0.8893 O   0  0  0  0  0  0  0  0  0  0  0  0
   -1.0277   -0.9164    0.0623 N   0  0  0  0  0  0  0  0  0  0  0  0
   -1.8237   -0.3604   -0.2157 H   0  0  0  0  0  0  0  0  0  0  0  0
    0.2713   -0.2414    0.0463 C   0  0  1  0  0  0  0  0  0  0  0  0
    0.3913    0.3114    0.9801 H   0  0  0  0  0  0  0  0  0  0  0  0
    1.3753   -1.3088   -0.0318 C   0  0  0  0  0  0  0  0  0  0  0  0
    1.1853   -1.9507   -0.8950 H   0  0  0  0  0  0  0  0  0  0  0  0
    2.3438   -0.8219   -0.1626 H   0  0  0  0  0  0  0  0  0  0  0  0
    1.3996   -2.3398    1.4641 S   0  0  0  0  0  0  0  0  0  0  0  0
    2.3363   -3.2036    1.0544 H   0  0  0  0  0  0  0  0  0  0  0  0
    0.3298    0.7690   -1.1175 C   0  0  0  0  0  0  0  0  0  0  0  0
    1.4141    1.2282   -1.4781 O   0  0  0  0  0  0  0  0  0  0  0  0
   -0.8223    1.1089   -1.7069 N   0  0  0  0  0  0  0  0  0  0  0  0
   -1.6730    0.7367   -1.3102 H   0  0  0  0  0  0  0  0  0  0  0  0
   -0.9327    2.0445   -2.8246 C   0  0  0  0  0  0  0  0  0  0  0  0
   -0.2222    1.7704   -3.6077 H   0  0  0  0  0  0  0  0  0  0  0  0
   -1.9434    2.0254   -3.2340 H   0  0  0  0  0  0  0  0  0  0  0  0
   -0.7009    3.0542   -2.4816 H   0  0  0  0  0  0  0  0  0  0  0  0
  5  6  2  0  0  0  0
  5  7  1  0  0  0  0
  2  3  1  0  0  0  0
  2  4  1  0  0  0  0
  2  5  1  0  0  0  0
  1  2  1  0  0  0  0
 16 17  2  0  0  0  0
 16 18  1  0  0  0  0
 14 15  1  0  0  0  0
 11 12  1  0  0  0  0
 11 13  1  0  0  0  0
 11 14  1  0  0  0  0
  9 10  1  0  0  0  0
  9 11  1  0  0  0  0
  9 16  1  0  0  0  0
  7  8  1  0  0  0  0
  7  9  1  0  0  0  0
 20 21  1  0  0  0  0
 20 22  1  0  0  0  0
 20 23  1  0  0  0  0
 18 19  1  0  0  0  0
 18 20  1  0  0  0  0
M  END
$$$$
default_name
  -OEChem-01062215323D

 23 22  0     1  0  0  0  0  0999 V2000
   -2.6857   -3.6684    0.8743 H   0  0  0  0  0  0  0  0  0  0  0  0
   -2.6617   -2.6474    0.4953 C   0  0  0  0  0  0  0  0  0  0  0  0
   -3.2657   -2.0054    1.1353 H   0  0  0  0  0  0  0  0  0  0  0  0
   -3.0477   -2.6254   -0.5217 H   0  0  0  0  0  0  0  0  0  0  0  0
   -1.2337   -2.1564    0.4993 C   0  0  0  0  0  0  0  0  0  0  0  0
   -0.3327   -2.8864    0.8893 O   0  0  0  0  0  0  0  0  0  0  0  0
   -1.0277   -0.9164    0.0623 N   0  0  0  0  0  0  0  0  0  0  0  0
   -1.8237   -0.3604   -0.2157 H   0  0  0  0  0  0  0  0  0  0  0  0
    0.2713   -0.2414    0.0463 C   0  0  1  0  0  0  0  0  0  0  0  0
    0.3913    0.3114    0.9801 H   0  0  0  0  0  0  0  0  0  0  0  0
    1.3753   -1.3088   -0.0318 C   0  0  0  0  0  0  0  0  0  0  0  0
    1.1853   -1.9507   -0.8950 H   0  0  0  0  0  0  0  0  0  0  0  0
    2.3438   -0.8219   -0.1626 H   0  0  0  0  0  0  0  0  0  0  0  0
    1.3996   -2.3398    1.4641 S   0  0  0  0  0  0  0  0  0  0  0  0
    2.3363   -3.2036    1.0544 H   0  0  0  0  0  0  0  0  0  0  0  0
    0.3298    0.7690   -1.1175 C   0  0  0  0  0  0  0  0  0  0  0  0
    1.4065    1.0181   -1.6609 O   0  0  0  0  0  0  0  0  0  0  0  0
   -0.8158    1.3420   -1.5042 N   0  0  0  0  0  0  0  0  0  0  0  0
   -1.6437    1.1319   -0.9656 H   0  0  0  0  0  0  0  0  0  0  0  0
   -0.9274    2.3107   -2.5932 C   0  0  0  0  0  0  0  0  0  0  0  0
   -0.4268    1.9246   -3.4841 H   0  0  0  0  0  0  0  0  0  0  0  0
   -1.9765    2.4995   -2.8241 H   0  0  0  0  0  0  0  0  0  0  0  0
   -0.4476    3.2466   -2.3019 H   0  0  0  0  0  0  0  0  0  0  0  0
  5  6  2  0  0  0  0
  5  7  1  0  0  0  0
  2  3  1  0  0  0  0
  2  4  1  0  0  0  0
  2  5  1  0  0  0  0
  1  2  1  0  0  0  0
 16 17  2  0  0  0  0
 16 18  1  0  0  0  0
 14 15  1  0  0  0  0
 11 12  1  0  0  0  0
 11 13  1  0  0  0  0
 11 14  1  0  0  0  0
  9 10  1  0  0  0  0
  9 11  1  0  0  0  0
  9 16  1  0  0  0  0
  7  8  1  0  0  0  0
  7  9  1  0  0  0  0
 20 21  1  0  0  0  0
 20 22  1  0  0  0  0
 20 23  1  0  0  0  0
 18 19  1  0  0  0  0
 18 20  1  0  0  0  0
M  END
$$$$
default_name
  -OEChem-01062215323D

 23 22  0     1  0  0  0  0  0999 V2000
   -2.6857   -3.6684    0.8743 H   0  0  0  0  0  0  0  0  0  0  0  0
   -2.6617   -2.6474    0.4953 C   0  0  0  0  0  0  0  0  0  0  0  0
   -3.2657   -2.0054    1.1353 H   0  0  0  0  0  0  0  0  0  0  0  0
   -3.0477   -2.6254   -0.5217 H   0  0  0  0  0  0  0  0  0  0  0  0
   -1.2337   -2.1564    0.4993 C   0  0  0  0  0  0  0  0  0  0  0  0
   -0.3327   -2.8864    0.8893 O   0  0  0  0  0  0  0  0  0  0  0  0
   -1.0277   -0.9164    0.0623 N   0  0  0  0  0  0  0  0  0  0  0  0
   -1.8237   -0.3604   -0.2157 H   0  0  0  0  0  0  0  0  0  0  0  0
    0.2713   -0.2414    0.0463 C   0  0  1  0  0  0  0  0  0  0  0  0
    0.3913    0.3114    0.9801 H   0  0  0  0  0  0  0  0  0  0  0  0
    1.3753   -1.3088   -0.0318 C   0  0  0  0  0  0  0  0  0  0  0  0
    1.1853   -1.9507   -0.8950 H   0  0  0  0  0  0  0  0  0  0  0  0
    2.3438   -0.8219   -0.1626 H   0  0  0  0  0  0  0  0  0  0  0  0
    1.3996   -2.3398    1.4641 S   0  0  0  0  0  0  0  0  0  0  0  0
    2.3363   -3.2036    1.0544 H   0  0  0  0  0  0  0  0  0  0  0  0
    0.3298    0.7690   -1.1175 C   0  0  0  0  0  0  0  0  0  0  0  0
    1.3271    0.8183   -1.8383 O   0  0  0  0  0  0  0  0  0  0  0  0
   -0.7296    1.5639   -1.3072 N   0  0  0  0  0  0  0  0  0  0  0  0
   -1.4797    1.5046   -0.6338 H   0  0  0  0  0  0  0  0  0  0  0  0
   -0.8310    2.5645   -2.3680 C   0  0  0  0  0  0  0  0  0  0  0  0
   -0.5733    2.1124   -3.3285 H   0  0  0  0  0  0  0  0  0  0  0  0
   -1.8463    2.9598   -2.4179 H   0  0  0  0  0  0  0  0  0  0  0  0
   -0.1348    3.3811   -2.1694 H   0  0  0  0  0  0  0  0  0  0  0  0
  5  6  2  0  0  0  0
  5  7  1  0  0  0  0
  2  3  1  0  0  0  0
  2  4  1  0  0  0  0
  2  5  1  0  0  0  0
  1  2  1  0  0  0  0
 16 17  2  0  0  0  0
 16 18  1  0  0  0  0
 14 15  1  0  0  0  0
 11 12  1  0  0  0  0
 11 13  1  0  0  0  0
 11 14  1  0  0  0  0
  9 10  1  0  0  0  0
  9 11  1  0  0  0  0
  9 16  1  0  0  0  0
  7  8  1  0  0  0  0
  7  9  1  0  0  0  0
 20 21  1  0  0  0  0
 20 22  1  0  0  0  0
 20 23  1  0  0  0  0
 18 19  1  0  0  0  0
 18 20  1  0  0  0  0
M  END
$$$$
default_name
  -OEChem-01062215323D

 23 22  0     1  0  0  0  0  0999 V2000
   -2.6857   -3.6684    0.8743 H   0  0  0  0  0  0  0  0  0  0  0  0
   -2.6617   -2.6474    0.4953 C   0  0  0  0  0  0  0  0  0  0  0  0
   -3.2657   -2.0054    1.1353 H   0  0  0  0  0  0  0  0  0  0  0  0
   -3.0477   -2.6254   -0.5217 H   0  0  0  0  0  0  0  0  0  0  0  0
   -1.2337   -2.1564    0.4993 C   0  0  0  0  0  0  0  0  0  0  0  0
   -0.3327   -2.8864    0.8893 O   0  0  0  0  0  0  0  0  0  0  0  0
   -1.0277   -0.9164    0.0623 N   0  0  0  0  0  0  0  0  0  0  0  0
   -1.8237   -0.3604   -0.2157 H   0  0  0  0  0  0  0  0  0  0  0  0
    0.2713   -0.2414    0.0463 C   0  0  1  0  0  0  0  0  0  0  0  0
    0.3913    0.3114    0.9801 H   0  0  0  0  0  0  0  0  0  0  0  0
    1.3753   -1.3088   -0.0318 C   0  0  0  0  0  0  0  0  0  0  0  0
    1.1853   -1.9507   -0.8950 H   0  0  0  0  0  0  0  0  0  0  0  0
    2.3438   -0.8219   -0.1626 H   0  0  0  0  0  0  0  0  0  0  0  0
    1.3996   -2.3398    1.4641 S   0  0  0  0  0  0  0  0  0  0  0  0
    2.3363   -3.2036    1.0544 H   0  0  0  0  0  0  0  0  0  0  0  0
    0.3298    0.7690   -1.1175 C   0  0  0  0  0  0  0  0  0  0  0  0
    1.1813    0.6427   -1.9981 O   0  0  0  0  0  0  0  0  0  0  0  0
   -0.5696    1.7595   -1.1293 N   0  0  0  0  0  0  0  0  0  0  0  0
   -1.1923    1.8292   -0.3375 H   0  0  0  0  0  0  0  0  0  0  0  0
   -0.6501    2.7886   -2.1644 C   0  0  0  0  0  0  0  0  0  0  0  0
   -0.6518    2.3208   -3.1514 H   0  0  0  0  0  0  0  0  0  0  0  0
   -1.5617    3.3749   -2.0431 H   0  0  0  0  0  0  0  0  0  0  0  0
    0.2160    3.4487   -2.0931 H   0  0  0  0  0  0  0  0  0  0  0  0
  5  6  2  0  0  0  0
  5  7  1  0  0  0  0
  2  3  1  0  0  0  0
  2  4  1  0  0  0  0
  2  5  1  0  0  0  0
  1  2  1  0  0  0  0
 16 17  2  0  0  0  0
 16 18  1  0  0  0  0
 14 15  1  0  0  0  0
 11 12  1  0  0  0  0
 11 13  1  0  0  0  0
 11 14  1  0  0  0  0
  9 10  1  0  0  0  0
  9 11  1  0  0  0  0
  9 16  1  0  0  0  0
  7  8  1  0  0  0  0
  7  9  1  0  0  0  0
 20 21  1  0  0  0  0
 20 22  1  0  0  0  0
 20 23  1  0  0  0  0
 18 19  1  0  0  0  0
 18 20  1  0  0  0  0
M  END
$$$$
default_name
  -OEChem-01062215323D

 23 22  0     1  0  0  0  0  0999 V2000
   -2.6857   -3.6684    0.8743 H   0  0  0  0  0  0  0  0  0  0  0  0
   -2.6617   -2.6474    0.4953 C   0  0  0  0  0  0  0  0  0  0  0  0
   -3.2657   -2.0054    1.1353 H   0  0  0  0  0  0  0  0  0  0  0  0
   -3.0477   -2.6254   -0.5217 H   0  0  0  0  0  0  0  0  0  0  0  0
   -1.2337   -2.1564    0.4993 C   0  0  0  0  0  0  0  0  0  0  0  0
   -0.3327   -2.8864    0.8893 O   0  0  0  0  0  0  0  0  0  0  0  0
   -1.0277   -0.9164    0.0623 N   0  0  0  0  0  0  0  0  0  0  0  0
   -1.8237   -0.3604   -0.2157 H   0  0  0  0  0  0  0  0  0  0  0  0
    0.2713   -0.2414    0.0463 C   0  0  1  0  0  0  0  0  0  0  0  0
    0.3913    0.3114    0.9801 H   0  0  0  0  0  0  0  0  0  0  0  0
    1.3753   -1.3088   -0.0318 C   0  0  0  0  0  0  0  0  0  0  0  0
    1.1853   -1.9507   -0.8950 H   0  0  0  0  0  0  0  0  0  0  0  0
    2.3438   -0.8219   -0.1626 H   0  0  0  0  0  0  0  0  0  0  0  0
    1.3996   -2.3398    1.4641 S   0  0  0  0  0  0  0  0  0  0  0  0
    2.3363   -3.2036    1.0544 H   0  0  0  0  0  0  0  0  0  0  0  0
    0.3298    0.7690   -1.1175 C   0  0  0  0  0  0  0  0  0  0  0  0
    0.9791    0.5030   -2.1295 O   0  0  0  0  0  0  0  0  0  0  0  0
   -0.3467    1.9155   -0.9827 N   0  0  0  0  0  0  0  0  0  0  0  0
   -0.8011    2.0838   -0.0968 H   0  0  0  0  0  0  0  0  0  0  0  0
   -0.3971    2.9678   -1.9961 C   0  0  0  0  0  0  0  0  0  0  0  0
   -0.6570    2.5357   -2.9651 H   0  0  0  0  0  0  0  0  0  0  0  0
   -1.1423    3.7168   -1.7253 H   0  0  0  0  0  0  0  0  0  0  0  0
    0.5810    3.4447   -2.0782 H   0  0  0  0  0  0  0  0  0  0  0  0
  5  6  2  0  0  0  0
  5  7  1  0  0  0  0
  2  3  1  0  0  0  0
  2  4  1  0  0  0  0
  2  5  1  0  0  0  0
  1  2  1  0  0  0  0
 16 17  2  0  0  0  0
 16 18  1  0  0  0  0
 14 15  1  0  0  0  0
 11 12  1  0  0  0  0
 11 13  1  0  0  0  0
 11 14  1  0  0  0  0
  9 10  1  0  0  0  0
  9 11  1  0  0  0  0
  9 16  1  0  0  0  0
  7  8  1  0  0  0  0
  7  9  1  0  0  0  0
 20 21  1  0  0  0  0
 20 22  1  0  0  0  0
 20 23  1  0  0  0  0
 18 19  1  0  0  0  0
 18 20  1  0  0  0  0
M  END
$$$$
default_name
  -OEChem-01062215323D

 23 22  0     1  0  0  0  0  0999 V2000
   -2.6857   -3.6684    0.8743 H   0  0  0  0  0  0  0  0  0  0  0  0
   -2.6617   -2.6474    0.4953 C   0  0  0  0  0  0  0  0  0  0  0  0
   -3.2657   -2.0054    1.1353 H   0  0  0  0  0  0  0  0  0  0  0  0
   -3.0477   -2.6254   -0.5217 H   0  0  0  0  0  0  0  0  0  0  0  0
   -1.2337   -2.1564    0.4993 C   0  0  0  0  0  0  0  0  0  0  0  0
   -0.3327   -2.8864    0.8893 O   0  0  0  0  0  0  0  0  0  0  0  0
   -1.0277   -0.9164    0.0623 N   0  0  0  0  0  0  0  0  0  0  0  0
   -1.8237   -0.3604   -0.2157 H   0  0  0  0  0  0  0  0  0  0  0  0
    0.2713   -0.2414    0.0463 C   0  0  1  0  0  0  0  0  0  0  0  0
    0.3913    0.3114    0.9801 H   0  0  0  0  0  0  0  0  0  0  0  0
    1.3753   -1.3088   -0.0318 C   0  0  0  0  0  0  0  0  0  0  0  0
    1.1853   -1.9507   -0.8950 H   0  0  0  0  0  0  0  0  0  0  0  0
    2.3438   -0.8219   -0.1626 H   0  0  0  0  0  0  0  0  0  0  0  0
    1.3996   -2.3398    1.4641 S   0  0  0  0  0  0  0  0  0  0  0  0
    2.3363   -3.2036    1.0544 H   0  0  0  0  0  0  0  0  0  0  0  0
    0.3298    0.7690   -1.1175 C   0  0  0  0  0  0  0  0  0  0  0  0
    0.7342    0.4089   -2.2235 O   0  0  0  0  0  0  0  0  0  0  0  0
   -0.0761    2.0212   -0.8774 N   0  0  0  0  0  0  0  0  0  0  0  0
   -0.3326    2.2509    0.0718 H   0  0  0  0  0  0  0  0  0  0  0  0
   -0.0892    3.0898   -1.8747 C   0  0  0  0  0  0  0  0  0  0  0  0
   -0.5883    2.7425   -2.7821 H   0  0  0  0  0  0  0  0  0  0  0  0
   -0.6165    3.9619   -1.4861 H   0  0  0  0  0  0  0  0  0  0  0  0
    0.9353    3.3694   -2.1258 H   0  0  0  0  0  0  0  0  0  0  0  0
  5  6  2  0  0  0  0
  5  7  1  0  0  0  0
  2  3  1  0  0  0  0
  2  4  1  0  0  0  0
  2  5  1  0  0  0  0
  1  2  1  0  0  0  0
 16 17  2  0  0  0  0
 16 18  1  0  0  0  0
 14 15  1  0  0  0  0
 11 12  1  0  0  0  0
 11 13  1  0  0  0  0
 11 14  1  0  0  0  0
  9 10  1  0  0  0  0
  9 11  1  0  0  0  0
  9 16  1  0  0  0  0
  7  8  1  0  0  0  0
  7  9  1  0  0  0  0
 20 21  1  0  0  0  0
 20 22  1  0  0  0  0
 20 23  1  0  0  0  0
 18 19  1  0  0  0  0
 18 20  1  0  0  0  0
M  END
$$$$
default_name
  -OEChem-01062215323D

 23 22  0     1  0  0  0  0  0999 V2000
   -2.6857   -3.6684    0.8743 H   0  0  0  0  0  0  0  0  0  0  0  0
   -2.6617   -2.6474    0.4953 C   0  0  0  0  0  0  0  0  0  0  0  0
   -3.2657   -2.0054    1.1353 H   0  0  0  0  0  0  0  0  0  0  0  0
   -3.0477   -2.6254   -0.5217 H   0  0  0  0  0  0  0  0  0  0  0  0
   -1.2337   -2.1564    0.4993 C   0  0  0  0  0  0  0  0  0  0  0  0
   -0.3327   -2.8864    0.8893 O   0  0  0  0  0  0  0  0  0  0  0  0
   -1.0277   -0.9164    0.0623 N   0  0  0  0  0  0  0  0  0  0  0  0
   -1.8237   -0.3604   -0.2157 H   0  0  0  0  0  0  0  0  0  0  0  0
    0.2713   -0.2414    0.0463 C   0  0  1  0  0  0  0  0  0  0  0  0
    0.3913    0.3114    0.9801 H   0  0  0  0  0  0  0  0  0  0  0  0
    1.3753   -1.3088   -0.0318 C   0  0  0  0  0  0  0  0  0  0  0  0
    1.1853   -1.9507   -0.8950 H   0  0  0  0  0  0  0  0  0  0  0  0
    2.3438   -0.8219   -0.1626 H   0  0  0  0  0  0  0  0  0  0  0  0
    1.3996   -2.3398    1.4641 S   0  0  0  0  0  0  0  0  0  0  0  0
    2.3363   -3.2036    1.0544 H   0  0  0  0  0  0  0  0  0  0  0  0
    0.3298    0.7690   -1.1175 C   0  0  0  0  0  0  0  0  0  0  0  0
    0.4634    0.3668   -2.2737 O   0  0  0  0  0  0  0  0  0  0  0  0
    0.2238    2.0693   -0.8205 N   0  0  0  0  0  0  0  0  0  0  0  0
    0.1811    2.3192    0.1569 H   0  0  0  0  0  0  0  0  0  0  0  0
    0.2526    3.1464   -1.8084 C   0  0  0  0  0  0  0  0  0  0  0  0
   -0.4506    2.9270   -2.6150 H   0  0  0  0  0  0  0  0  0  0  0  0
   -0.0201    4.0936   -1.3418 H   0  0  0  0  0  0  0  0  0  0  0  0
    1.2548    3.2280   -2.2325 H   0  0  0  0  0  0  0  0  0  0  0  0
  5  6  2  0  0  0  0
  5  7  1  0  0  0  0
  2  3  1  0  0  0  0
  2  4  1  0  0  0  0
  2  5  1  0  0  0  0
  1  2  1  0  0  0  0
 16 17  2  0  0  0  0
 16 18  1  0  0  0  0
 14 15  1  0  0  0  0
 11 12  1  0  0  0  0
 11 13  1  0  0  0  0
 11 14  1  0  0  0  0
  9 10  1  0  0  0  0
  9 11  1  0  0  0  0
  9 16  1  0  0  0  0
  7  8  1  0  0  0  0
  7  9  1  0  0  0  0
 20 21  1  0  0  0  0
 20 22  1  0  0  0  0
 20 23  1  0  0  0  0
 18 19  1  0  0  0  0
 18 20  1  0  0  0  0
M  END
$$$$
default_name
  -OEChem-01062215323D

 23 22  0     1  0  0  0  0  0999 V2000
   -2.6857   -3.6684    0.8743 H   0  0  0  0  0  0  0  0  0  0  0  0
   -2.6617   -2.6474    0.4953 C   0  0  0  0  0  0  0  0  0  0  0  0
   -3.2657   -2.0054    1.1353 H   0  0  0  0  0  0  0  0  0  0  0  0
   -3.0477   -2.6254   -0.5217 H   0  0  0  0  0  0  0  0  0  0  0  0
   -1.2337   -2.1564    0.4993 C   0  0  0  0  0  0  0  0  0  0  0  0
   -0.3327   -2.8864    0.8893 O   0  0  0  0  0  0  0  0  0  0  0  0
   -1.0277   -0.9164    0.0623 N   0  0  0  0  0  0  0  0  0  0  0  0
   -1.8237   -0.3604   -0.2157 H   0  0  0  0  0  0  0  0  0  0  0  0
    0.2713   -0.2414    0.0463 C   0  0  1  0  0  0  0  0  0  0  0  0
    0.3913    0.3114    0.9801 H   0  0  0  0  0  0  0  0  0  0  0  0
    1.3753   -1.3088   -0.0318 C   0  0  0  0  0  0  0  0  0  0  0  0
    1.1853   -1.9507   -0.8950 H   0  0  0  0  0  0  0  0  0  0  0  0
    2.3438   -0.8219   -0.1626 H   0  0  0  0  0  0  0  0  0  0  0  0
    1.3996   -2.3398    1.4641 S   0  0  0  0  0  0  0  0  0  0  0  0
    2.3363   -3.2036    1.0544 H   0  0  0  0  0  0  0  0  0  0  0  0
    0.3298    0.7690   -1.1175 C   0  0  0  0  0  0  0  0  0  0  0  0
    0.1850    0.3795   -2.2767 O   0  0  0  0  0  0  0  0  0  0  0  0
    0.5325    2.0567   -0.8159 N   0  0  0  0  0  0  0  0  0  0  0  0
    0.7051    2.2840    0.1527 H   0  0  0  0  0  0  0  0  0  0  0  0
    0.6051    3.1335   -1.8018 C   0  0  0  0  0  0  0  0  0  0  0  0
   -0.2532    3.0767   -2.4751 H   0  0  0  0  0  0  0  0  0  0  0  0
    0.6061    4.1030   -1.3022 H   0  0  0  0  0  0  0  0  0  0  0  0
    1.5177    3.0300   -2.3912 H   0  0  0  0  0  0  0  0  0  0  0  0
  5  6  2  0  0  0  0
  5  7  1  0  0  0  0
  2  3  1  0  0  0  0
  2  4  1  0  0  0  0
  2  5  1  0  0  0  0
  1  2  1  0  0  0  0
 16 17  2  0  0  0  0
 16 18  1  0  0  0  0
 14 15  1  0  0  0  0
 11 12  1  0  0  0  0
 11 13  1  0  0  0  0
 11 14  1  0  0  0  0
  9 10  1  0  0  0  0
  9 11  1  0  0  0  0
  9 16  1  0  0  0  0
  7  8  1  0  0  0  0
  7  9  1  0  0  0  0
 20 21  1  0  0  0  0
 20 22  1  0  0  0  0
 20 23  1  0  0  0  0
 18 19  1  0  0  0  0
 18 20  1  0  0  0  0
M  END
$$$$
default_name
  -OEChem-01062215323D

 23 22  0     1  0  0  0  0  0999 V2000
   -2.6857   -3.6684    0.8743 H   0  0  0  0  0  0  0  0  0  0  0  0
   -2.6617   -2.6474    0.4953 C   0  0  0  0  0  0  0  0  0  0  0  0
   -3.2657   -2.0054    1.1353 H   0  0  0  0  0  0  0  0  0  0  0  0
   -3.0477   -2.6254   -0.5217 H   0  0  0  0  0  0  0  0  0  0  0  0
   -1.2337   -2.1564    0.4993 C   0  0  0  0  0  0  0  0  0  0  0  0
   -0.3327   -2.8864    0.8893 O   0  0  0  0  0  0  0  0  0  0  0  0
   -1.0277   -0.9164    0.0623 N   0  0  0  0  0  0  0  0  0  0  0  0
   -1.8237   -0.3604   -0.2157 H   0  0  0  0  0  0  0  0  0  0  0  0
    0.2713   -0.2414    0.0463 C   0  0  1  0  0  0  0  0  0  0  0  0
    0.3913    0.3114    0.9801 H   0  0  0  0  0  0  0  0  0  0  0  0
    1.3753   -1.3088   -0.0318 C   0  0  0  0  0  0  0  0  0  0  0  0
    1.1853   -1.9507   -0.8950 H   0  0  0  0  0  0  0  0  0  0  0  0
    2.3438   -0.8219   -0.1626 H   0  0  0  0  0  0  0  0  0  0  0  0
    1.3996   -2.3398    1.4641 S   0  0  0  0  0  0  0  0  0  0  0  0
    2.3363   -3.2036    1.0544 H   0  0  0  0  0  0  0  0  0  0  0  0
    0.3298    0.7690   -1.1175 C   0  0  0  0  0  0  0  0  0  0  0  0
   -0.0819    0.4461   -2.2323 O   0  0  0  0  0  0  0  0  0  0  0  0
    0.8291    1.9842   -0.8640 N   0  0  0  0  0  0  0  0  0  0  0  0
    1.2036    2.1477    0.0594 H   0  0  0  0  0  0  0  0  0  0  0  0
    0.9441    3.0523   -1.8554 C   0  0  0  0  0  0  0  0  0  0  0  0
   -0.0096    3.1814   -2.3720 H   0  0  0  0  0  0  0  0  0  0  0  0
    1.2195    3.9893   -1.3700 H   0  0  0  0  0  0  0  0  0  0  0  0
    1.7060    2.7890   -2.5910 H   0  0  0  0  0  0  0  0  0  0  0  0
  5  6  2  0  0  0  0
  5  7  1  0  0  0  0
  2  3  1  0  0  0  0
  2  4  1  0  0  0  0
  2  5  1  0  0  0  0
  1  2  1  0  0  0  0
 16 17  2  0  0  0  0
 16 18  1  0  0  0  0
 14 15  1  0  0  0  0
 11 12  1  0  0  0  0
 11 13  1  0  0  0  0
 11 14  1  0  0  0  0
  9 10  1  0  0  0  0
  9 11  1  0  0  0  0
  9 16  1  0  0  0  0
  7  8  1  0  0  0  0
  7  9  1  0  0  0  0
 20 21  1  0  0  0  0
 20 22  1  0  0  0  0
 20 23  1  0  0  0  0
 18 19  1  0  0  0  0
 18 20  1  0  0  0  0
M  END
$$$$
default_name
  -OEChem-01062215323D

 23 22  0     1  0  0  0  0  0999 V2000
   -2.6857   -3.6684    0.8743 H   0  0  0  0  0  0  0  0  0  0  0  0
   -2.6617   -2.6474    0.4953 C   0  0  0  0  0  0  0  0  0  0  0  0
   -3.2657   -2.0054    1.1353 H   0  0  0  0  0  0  0  0  0  0  0  0
   -3.0477   -2.6254   -0.5217 H   0  0  0  0  0  0  0  0  0  0  0  0
   -1.2337   -2.1564    0.4993 C   0  0  0  0  0  0  0  0  0  0  0  0
   -0.3327   -2.8864    0.8893 O   0  0  0  0  0  0  0  0  0  0  0  0
   -1.0277   -0.9164    0.0623 N   0  0  0  0  0  0  0  0  0  0  0  0
   -1.8237   -0.3604   -0.2157 H   0  0  0  0  0  0  0  0  0  0  0  0
    0.2713   -0.2414    0.0463 C   0  0  1  0  0  0  0  0  0  0  0  0
    0.3913    0.3114    0.9801 H   0  0  0  0  0  0  0  0  0  0  0  0
    1.3753   -1.3088   -0.0318 C   0  0  0  0  0  0  0  0  0  0  0  0
    1.1853   -1.9507   -0.8950 H   0  0  0  0  0  0  0  0  0  0  0  0
    2.3438   -0.8219   -0.1626 H   0  0  0  0  0  0  0  0  0  0  0  0
    1.3996   -2.3398    1.4641 S   0  0  0  0  0  0  0  0  0  0  0  0
    2.3363   -3.2036    1.0544 H   0  0  0  0  0  0  0  0  0  0  0  0
    0.3298    0.7690   -1.1175 C   0  0  0  0  0  0  0  0  0  0  0  0
   -0.3191    0.5621   -2.1434 O   0  0  0  0  0  0  0  0  0  0  0  0
    1.0932    1.8568   -0.9614 N   0  0  0  0  0  0  0  0  0  0  0  0
    1.6427    1.9196   -0.1166 H   0  0  0  0  0  0  0  0  0  0  0  0
    1.2467    2.9081   -1.9653 C   0  0  0  0  0  0  0  0  0  0  0  0
    0.2636    3.2339   -2.3127 H   0  0  0  0  0  0  0  0  0  0  0  0
    1.7783    3.7604   -1.5407 H   0  0  0  0  0  0  0  0  0  0  0  0
    1.8070    2.5214   -2.8183 H   0  0  0  0  0  0  0  0  0  0  0  0
  5  6  2  0  0  0  0
  5  7  1  0  0  0  0
  2  3  1  0  0  0  0
  2  4  1  0  0  0  0
  2  5  1  0  0  0  0
  1  2  1  0  0  0  0
 16 17  2  0  0  0  0
 16 18  1  0  0  0  0
 14 15  1  0  0  0  0
 11 12  1  0  0  0  0
 11 13  1  0  0  0  0
 11 14  1  0  0  0  0
  9 10  1  0  0  0  0
  9 11  1  0  0  0  0
  9 16  1  0  0  0  0
  7  8  1  0  0  0  0
  7  9  1  0  0  0  0
 20 21  1  0  0  0  0
 20 22  1  0  0  0  0
 20 23  1  0  0  0  0
 18 19  1  0  0  0  0
 18 20  1  0  0  0  0
M  END
$$$$
default_name
  -OEChem-01062215323D

 23 22  0     1  0  0  0  0  0999 V2000
   -2.6857   -3.6684    0.8743 H   0  0  0  0  0  0  0  0  0  0  0  0
   -2.6617   -2.6474    0.4953 C   0  0  0  0  0  0  0  0  0  0  0  0
   -3.2657   -2.0054    1.1353 H   0  0  0  0  0  0  0  0  0  0  0  0
   -3.0477   -2.6254   -0.5217 H   0  0  0  0  0  0  0  0  0  0  0  0
   -1.2337   -2.1564    0.4993 C   0  0  0  0  0  0  0  0  0  0  0  0
   -0.3327   -2.8864    0.8893 O   0  0  0  0  0  0  0  0  0  0  0  0
   -1.0277   -0.9164    0.0623 N   0  0  0  0  0  0  0  0  0  0  0  0
   -1.8237   -0.3604   -0.2157 H   0  0  0  0  0  0  0  0  0  0  0  0
    0.2713   -0.2414    0.0463 C   0  0  1  0  0  0  0  0  0  0  0  0
    0.3913    0.3114    0.9801 H   0  0  0  0  0  0  0  0  0  0  0  0
    1.3753   -1.3088   -0.0318 C   0  0  0  0  0  0  0  0  0  0  0  0
    1.1853   -1.9507   -0.8950 H   0  0  0  0  0  0  0  0  0  0  0  0
    2.3438   -0.8219   -0.1626 H   0  0  0  0  0  0  0  0  0  0  0  0
    1.3996   -2.3398    1.4641 S   0  0  0  0  0  0  0  0  0  0  0  0
    2.3363   -3.2036    1.0544 H   0  0  0  0  0  0  0  0  0  0  0  0
    0.3298    0.7690   -1.1175 C   0  0  0  0  0  0  0  0  0  0  0  0
   -0.5106    0.7197   -2.0163 O   0  0  0  0  0  0  0  0  0  0  0  0
    1.3069    1.6830   -1.1015 N   0  0  0  0  0  0  0  0  0  0  0  0
    1.9925    1.6153   -0.3632 H   0  0  0  0  0  0  0  0  0  0  0  0
    1.4921    2.7108   -2.1243 C   0  0  0  0  0  0  0  0  0  0  0  0
    0.5479    3.2307   -2.3012 H   0  0  0  0  0  0  0  0  0  0  0  0
    2.2444    3.4319   -1.8025 H   0  0  0  0  0  0  0  0  0  0  0  0
    1.8138    2.2454   -3.0575 H   0  0  0  0  0  0  0  0  0  0  0  0
  5  6  2  0  0  0  0
  5  7  1  0  0  0  0
  2  3  1  0  0  0  0
  2  4  1  0  0  0  0
  2  5  1  0  0  0  0
  1  2  1  0  0  0  0
 16 17  2  0  0  0  0
 16 18  1  0  0  0  0
 14 15  1  0  0  0  0
 11 12  1  0  0  0  0
 11 13  1  0  0  0  0
 11 14  1  0  0  0  0
  9 10  1  0  0  0  0
  9 11  1  0  0  0  0
  9 16  1  0  0  0  0
  7  8  1  0  0  0  0
  7  9  1  0  0  0  0
 20 21  1  0  0  0  0
 20 22  1  0  0  0  0
 20 23  1  0  0  0  0
 18 19  1  0  0  0  0
 18 20  1  0  0  0  0
M  END
$$$$
default_name
  -OEChem-01062215323D

 23 22  0     1  0  0  0  0  0999 V2000
   -2.6857   -3.6684    0.8743 H   0  0  0  0  0  0  0  0  0  0  0  0
   -2.6617   -2.6474    0.4953 C   0  0  0  0  0  0  0  0  0  0  0  0
   -3.2657   -2.0054    1.1353 H   0  0  0  0  0  0  0  0  0  0  0  0
   -3.0477   -2.6254   -0.5217 H   0  0  0  0  0  0  0  0  0  0  0  0
   -1.2337   -2.1564    0.4993 C   0  0  0  0  0  0  0  0  0  0  0  0
   -0.3327   -2.8864    0.8893 O   0  0  0  0  0  0  0  0  0  0  0  0
   -1.0277   -0.9164    0.0623 N   0  0  0  0  0  0  0  0  0  0  0  0
   -1.8237   -0.3604   -0.2157 H   0  0  0  0  0  0  0  0  0  0  0  0
    0.2713   -0.2414    0.0463 C   0  0  1  0  0  0  0  0  0  0  0  0
    0.5108    0.0833    1.0608 H   0  0  0  0  0  0  0  0  0  0  0  0
    1.3401   -1.2499   -0.4062 C   0  0  0  0  0  0  0  0  0  0  0  0
    1.0380   -1.6783   -1.3645 H   0  0  0  0  0  0  0  0  0  0  0  0
    2.2942   -0.7353   -0.5367 H   0  0  0  0  0  0  0  0  0  0  0  0
    1.5249   -2.5968    0.7992 S   0  0  0  0  0  0  0  0  0  0  0  0
    2.3917   -3.3329    0.0932 H   0  0  0  0  0  0  0  0  0  0  0  0
    0.2078    1.0100   -0.8530 C   0  0  0  0  0  0  0  0  0  0  0  0
   -0.8440    1.3050   -1.4213 O   0  0  0  0  0  0  0  0  0  0  0  0
    1.3186    1.7455   -0.9776 N   0  0  0  0  0  0  0  0  0  0  0  0
    2.1554    1.4002   -0.5304 H   0  0  0  0  0  0  0  0  0  0  0  0
    1.4174    2.9606   -1.7842 C   0  0  0  0  0  0  0  0  0  0  0  0
    0.5932    3.6346   -1.5399 H   0  0  0  0  0  0  0  0  0  0  0  0
    2.3642    3.4660   -1.5904 H   0  0  0  0  0  0  0  0  0  0  0  0
    1.3552    2.7037   -2.8431 H   0  0  0  0  0  0  0  0  0  0  0  0
  5  6  2  0  0  0  0
  5  7  1  0  0  0  0
  2  3  1  0  0  0  0
  2  4  1  0  0  0  0
  2  5  1  0  0  0  0
  1  2  1  0  0  0  0
 16 17  2  0  0  0  0
 16 18  1  0  0  0  0
 14 15  1  0  0  0  0
 11 12  1  0  0  0  0
 11 13  1  0  0  0  0
 11 14  1  0  0  0  0
  9 10  1  0  0  0  0
  9 11  1  0  0  0  0
  9 16  1  0  0  0  0
  7  8  1  0  0  0  0
  7  9  1  0  0  0  0
 20 21  1  0  0  0  0
 20 22  1  0  0  0  0
 20 23  1  0  0  0  0
 18 19  1  0  0  0  0
 18 20  1  0  0  0  0
M  END
$$$$
default_name
  -OEChem-01062215323D

 23 22  0     1  0  0  0  0  0999 V2000
   -2.6857   -3.6684    0.8743 H   0  0  0  0  0  0  0  0  0  0  0  0
   -2.6617   -2.6474    0.4953 C   0  0  0  0  0  0  0  0  0  0  0  0
   -3.2657   -2.0054    1.1353 H   0  0  0  0  0  0  0  0  0  0  0  0
   -3.0477   -2.6254   -0.5217 H   0  0  0  0  0  0  0  0  0  0  0  0
   -1.2337   -2.1564    0.4993 C   0  0  0  0  0  0  0  0  0  0  0  0
   -0.3327   -2.8864    0.8893 O   0  0  0  0  0  0  0  0  0  0  0  0
   -1.0277   -0.9164    0.0623 N   0  0  0  0  0  0  0  0  0  0  0  0
   -1.8237   -0.3604   -0.2157 H   0  0  0  0  0  0  0  0  0  0  0  0
    0.2713   -0.2414    0.0463 C   0  0  1  0  0  0  0  0  0  0  0  0
    0.5108    0.0833    1.0608 H   0  0  0  0  0  0  0  0  0  0  0  0
    1.3401   -1.2499   -0.4062 C   0  0  0  0  0  0  0  0  0  0  0  0
    1.0380   -1.6783   -1.3645 H   0  0  0  0  0  0  0  0  0  0  0  0
    2.2942   -0.7353   -0.5367 H   0  0  0  0  0  0  0  0  0  0  0  0
    1.5249   -2.5968    0.7992 S   0  0  0  0  0  0  0  0  0  0  0  0
    2.3917   -3.3329    0.0932 H   0  0  0  0  0  0  0  0  0  0  0  0
    0.2078    1.0100   -0.8530 C   0  0  0  0  0  0  0  0  0  0  0  0
   -0.8839    1.4646   -1.1964 O   0  0  0  0  0  0  0  0  0  0  0  0
    1.3647    1.5688   -1.2269 N   0  0  0  0  0  0  0  0  0  0  0  0
    2.2157    1.0977   -0.9555 H   0  0  0  0  0  0  0  0  0  0  0  0
    1.4721    2.7591   -2.0685 C   0  0  0  0  0  0  0  0  0  0  0  0
    0.8284    3.5492   -1.6753 H   0  0  0  0  0  0  0  0  0  0  0  0
    2.5032    3.1136   -2.0907 H   0  0  0  0  0  0  0  0  0  0  0  0
    1.1503    2.5204   -3.0837 H   0  0  0  0  0  0  0  0  0  0  0  0
  5  6  2  0  0  0  0
  5  7  1  0  0  0  0
  2  3  1  0  0  0  0
  2  4  1  0  0  0  0
  2  5  1  0  0  0  0
  1  2  1  0  0  0  0
 16 17  2  0  0  0  0
 16 18  1  0  0  0  0
 14 15  1  0  0  0  0
 11 12  1  0  0  0  0
 11 13  1  0  0  0  0
 11 14  1  0  0  0  0
  9 10  1  0  0  0  0
  9 11  1  0  0  0  0
  9 16  1  0  0  0  0
  7  8  1  0  0  0  0
  7  9  1  0  0  0  0
 20 21  1  0  0  0  0
 20 22  1  0  0  0  0
 20 23  1  0  0  0  0
 18 19  1  0  0  0  0
 18 20  1  0  0  0  0
M  END
$$$$
default_name
  -OEChem-01062215323D

 23 22  0     1  0  0  0  0  0999 V2000
   -2.6857   -3.6684    0.8743 H   0  0  0  0  0  0  0  0  0  0  0  0
   -2.6617   -2.6474    0.4953 C   0  0  0  0  0  0  0  0  0  0  0  0
   -3.2657   -2.0054    1.1353 H   0  0  0  0  0  0  0  0  0  0  0  0
   -3.0477   -2.6254   -0.5217 H   0  0  0  0  0  0  0  0  0  0  0  0
   -1.2337   -2.1564    0.4993 C   0  0  0  0  0  0  0  0  0  0  0  0
   -0.3327   -2.8864    0.8893 O   0  0  0  0  0  0  0  0  0  0  0  0
   -1.0277   -0.9164    0.0623 N   0  0  0  0  0  0  0  0  0  0  0  0
   -1.8237   -0.3604   -0.2157 H   0  0  0  0  0  0  0  0  0  0  0  0
    0.2713   -0.2414    0.0463 C   0  0  1  0  0  0  0  0  0  0  0  0
    0.5108    0.0833    1.0608 H   0  0  0  0  0  0  0  0  0  0  0  0
    1.3401   -1.2499   -0.4062 C   0  0  0  0  0  0  0  0  0  0  0  0
    1.0380   -1.6783   -1.3645 H   0  0  0  0  0  0  0  0  0  0  0  0
    2.2942   -0.7353   -0.5367 H   0  0  0  0  0  0  0  0  0  0  0  0
    1.5249   -2.5968    0.7992 S   0  0  0  0  0  0  0  0  0  0  0  0
    2.3917   -3.3329    0.0932 H   0  0  0  0  0  0  0  0  0  0  0  0
    0.2078    1.0100   -0.8530 C   0  0  0  0  0  0  0  0  0  0  0  0
   -0.8511    1.6272   -0.9724 O   0  0  0  0  0  0  0  0  0  0  0  0
    1.3302    1.3884   -1.4754 N   0  0  0  0  0  0  0  0  0  0  0  0
    2.1389    0.7920   -1.3755 H   0  0  0  0  0  0  0  0  0  0  0  0
    1.4348    2.5531   -2.3525 C   0  0  0  0  0  0  0  0  0  0  0  0
    1.0142    3.4298   -1.8546 H   0  0  0  0  0  0  0  0  0  0  0  0
    2.4793    2.7468   -2.5993 H   0  0  0  0  0  0  0  0  0  0  0  0
    0.8742    2.3717   -3.2711 H   0  0  0  0  0  0  0  0  0  0  0  0
  5  6  2  0  0  0  0
  5  7  1  0  0  0  0
  2  3  1  0  0  0  0
  2  4  1  0  0  0  0
  2  5  1  0  0  0  0
  1  2  1  0  0  0  0
 16 17  2  0  0  0  0
 16 18  1  0  0  0  0
 14 15  1  0  0  0  0
 11 12  1  0  0  0  0
 11 13  1  0  0  0  0
 11 14  1  0  0  0  0
  9 10  1  0  0  0  0
  9 11  1  0  0  0  0
  9 16  1  0  0  0  0
  7  8  1  0  0  0  0
  7  9  1  0  0  0  0
 20 21  1  0  0  0  0
 20 22  1  0  0  0  0
 20 23  1  0  0  0  0
 18 19  1  0  0  0  0
 18 20  1  0  0  0  0
M  END
$$$$
default_name
  -OEChem-01062215323D

 23 22  0     1  0  0  0  0  0999 V2000
   -2.6857   -3.6684    0.8743 H   0  0  0  0  0  0  0  0  0  0  0  0
   -2.6617   -2.6474    0.4953 C   0  0  0  0  0  0  0  0  0  0  0  0
   -3.2657   -2.0054    1.1353 H   0  0  0  0  0  0  0  0  0  0  0  0
   -3.0477   -2.6254   -0.5217 H   0  0  0  0  0  0  0  0  0  0  0  0
   -1.2337   -2.1564    0.4993 C   0  0  0  0  0  0  0  0  0  0  0  0
   -0.3327   -2.8864    0.8893 O   0  0  0  0  0  0  0  0  0  0  0  0
   -1.0277   -0.9164    0.0623 N   0  0  0  0  0  0  0  0  0  0  0  0
   -1.8237   -0.3604   -0.2157 H   0  0  0  0  0  0  0  0  0  0  0  0
    0.2713   -0.2414    0.0463 C   0  0  1  0  0  0  0  0  0  0  0  0
    0.5108    0.0833    1.0608 H   0  0  0  0  0  0  0  0  0  0  0  0
    1.3401   -1.2499   -0.4062 C   0  0  0  0  0  0  0  0  0  0  0  0
    1.0380   -1.6783   -1.3645 H   0  0  0  0  0  0  0  0  0  0  0  0
    2.2942   -0.7353   -0.5367 H   0  0  0  0  0  0  0  0  0  0  0  0
    1.5249   -2.5968    0.7992 S   0  0  0  0  0  0  0  0  0  0  0  0
    2.3917   -3.3329    0.0932 H   0  0  0  0  0  0  0  0  0  0  0  0
    0.2078    1.0100   -0.8530 C   0  0  0  0  0  0  0  0  0  0  0  0
   -0.7478    1.7817   -0.7648 O   0  0  0  0  0  0  0  0  0  0  0  0
    1.2175    1.2167   -1.7063 N   0  0  0  0  0  0  0  0  0  0  0  0
    1.9304    0.5038   -1.7619 H   0  0  0  0  0  0  0  0  0  0  0  0
    1.3080    2.3568   -2.6167 C   0  0  0  0  0  0  0  0  0  0  0  0
    1.1380    3.2845   -2.0655 H   0  0  0  0  0  0  0  0  0  0  0  0
    2.2940    2.3908   -3.0817 H   0  0  0  0  0  0  0  0  0  0  0  0
    0.5457    2.2678   -3.3926 H   0  0  0  0  0  0  0  0  0  0  0  0
  5  6  2  0  0  0  0
  5  7  1  0  0  0  0
  2  3  1  0  0  0  0
  2  4  1  0  0  0  0
  2  5  1  0  0  0  0
  1  2  1  0  0  0  0
 16 17  2  0  0  0  0
 16 18  1  0  0  0  0
 14 15  1  0  0  0  0
 11 12  1  0  0  0  0
 11 13  1  0  0  0  0
 11 14  1  0  0  0  0
  9 10  1  0  0  0  0
  9 11  1  0  0  0  0
  9 16  1  0  0  0  0
  7  8  1  0  0  0  0
  7  9  1  0  0  0  0
 20 21  1  0  0  0  0
 20 22  1  0  0  0  0
 20 23  1  0  0  0  0
 18 19  1  0  0  0  0
 18 20  1  0  0  0  0
M  END
$$$$
default_name
  -OEChem-01062215323D

 23 22  0     1  0  0  0  0  0999 V2000
   -2.6857   -3.6684    0.8743 H   0  0  0  0  0  0  0  0  0  0  0  0
   -2.6617   -2.6474    0.4953 C   0  0  0  0  0  0  0  0  0  0  0  0
   -3.2657   -2.0054    1.1353 H   0  0  0  0  0  0  0  0  0  0  0  0
   -3.0477   -2.6254   -0.5217 H   0  0  0  0  0  0  0  0  0  0  0  0
   -1.2337   -2.1564    0.4993 C   0  0  0  0  0  0  0  0  0  0  0  0
   -0.3327   -2.8864    0.8893 O   0  0  0  0  0  0  0  0  0  0  0  0
   -1.0277   -0.9164    0.0623 N   0  0  0  0  0  0  0  0  0  0  0  0
   -1.8237   -0.3604   -0.2157 H   0  0  0  0  0  0  0  0  0  0  0  0
    0.2713   -0.2414    0.0463 C   0  0  1  0  0  0  0  0  0  0  0  0
    0.5108    0.0833    1.0608 H   0  0  0  0  0  0  0  0  0  0  0  0
    1.3401   -1.2499   -0.4062 C   0  0  0  0  0  0  0  0  0  0  0  0
    1.0380   -1.6783   -1.3645 H   0  0  0  0  0  0  0  0  0  0  0  0
    2.2942   -0.7353   -0.5367 H   0  0  0  0  0  0  0  0  0  0  0  0
    1.5249   -2.5968    0.7992 S   0  0  0  0  0  0  0  0  0  0  0  0
    2.3917   -3.3329    0.0932 H   0  0  0  0  0  0  0  0  0  0  0  0
    0.2078    1.0100   -0.8530 C   0  0  0  0  0  0  0  0  0  0  0  0
   -0.5811    1.9175   -0.5875 O   0  0  0  0  0  0  0  0  0  0  0  0
    1.0342    1.0655   -1.9039 N   0  0  0  0  0  0  0  0  0  0  0  0
    1.6044    0.2527   -2.0882 H   0  0  0  0  0  0  0  0  0  0  0  0
    1.1005    2.1835   -2.8433 C   0  0  0  0  0  0  0  0  0  0  0  0
    1.1914    3.1232   -2.2937 H   0  0  0  0  0  0  0  0  0  0  0  0
    1.9600    2.0697   -3.5049 H   0  0  0  0  0  0  0  0  0  0  0  0
    0.1872    2.2157   -3.4398 H   0  0  0  0  0  0  0  0  0  0  0  0
  5  6  2  0  0  0  0
  5  7  1  0  0  0  0
  2  3  1  0  0  0  0
  2  4  1  0  0  0  0
  2  5  1  0  0  0  0
  1  2  1  0  0  0  0
 16 17  2  0  0  0  0
 16 18  1  0  0  0  0
 14 15  1  0  0  0  0
 11 12  1  0  0  0  0
 11 13  1  0  0  0  0
 11 14  1  0  0  0  0
  9 10  1  0  0  0  0
  9 11  1  0  0  0  0
  9 16  1  0  0  0  0
  7  8  1  0  0  0  0
  7  9  1  0  0  0  0
 20 21  1  0  0  0  0
 20 22  1  0  0  0  0
 20 23  1  0  0  0  0
 18 19  1  0  0  0  0
 18 20  1  0  0  0  0
M  END
$$$$
default_name
  -OEChem-01062215323D

 23 22  0     1  0  0  0  0  0999 V2000
   -2.6857   -3.6684    0.8743 H   0  0  0  0  0  0  0  0  0  0  0  0
   -2.6617   -2.6474    0.4953 C   0  0  0  0  0  0  0  0  0  0  0  0
   -3.2657   -2.0054    1.1353 H   0  0  0  0  0  0  0  0  0  0  0  0
   -3.0477   -2.6254   -0.5217 H   0  0  0  0  0  0  0  0  0  0  0  0
   -1.2337   -2.1564    0.4993 C   0  0  0  0  0  0  0  0  0  0  0  0
   -0.3327   -2.8864    0.8893 O   0  0  0  0  0  0  0  0  0  0  0  0
   -1.0277   -0.9164    0.0623 N   0  0  0  0  0  0  0  0  0  0  0  0
   -1.8237   -0.3604   -0.2157 H   0  0  0  0  0  0  0  0  0  0  0  0
    0.2713   -0.2414    0.0463 C   0  0  1  0  0  0  0  0  0  0  0  0
    0.5108    0.0833    1.0608 H   0  0  0  0  0  0  0  0  0  0  0  0
    1.3401   -1.2499   -0.4062 C   0  0  0  0  0  0  0  0  0  0  0  0
    1.0380   -1.6783   -1.3645 H   0  0  0  0  0  0  0  0  0  0  0  0
    2.2942   -0.7353   -0.5367 H   0  0  0  0  0  0  0  0  0  0  0  0
    1.5249   -2.5968    0.7992 S   0  0  0  0  0  0  0  0  0  0  0  0
    2.3917   -3.3329    0.0932 H   0  0  0  0  0  0  0  0  0  0  0  0
    0.2078    1.0100   -0.8530 C   0  0  0  0  0  0  0  0  0  0  0  0
   -0.3624    2.0254   -0.4528 O   0  0  0  0  0  0  0  0  0  0  0  0
    0.7929    0.9449   -2.0546 N   0  0  0  0  0  0  0  0  0  0  0  0
    1.1831    0.0560   -2.3323 H   0  0  0  0  0  0  0  0  0  0  0  0
    0.8263    2.0450   -3.0167 C   0  0  0  0  0  0  0  0  0  0  0  0
    1.1707    2.9569   -2.5237 H   0  0  0  0  0  0  0  0  0  0  0  0
    1.5000    1.8055   -3.8402 H   0  0  0  0  0  0  0  0  0  0  0  0
   -0.1769    2.2189   -3.4096 H   0  0  0  0  0  0  0  0  0  0  0  0
  5  6  2  0  0  0  0
  5  7  1  0  0  0  0
  2  3  1  0  0  0  0
  2  4  1  0  0  0  0
  2  5  1  0  0  0  0
  1  2  1  0  0  0  0
 16 17  2  0  0  0  0
 16 18  1  0  0  0  0
 14 15  1  0  0  0  0
 11 12  1  0  0  0  0
 11 13  1  0  0  0  0
 11 14  1  0  0  0  0
  9 10  1  0  0  0  0
  9 11  1  0  0  0  0
  9 16  1  0  0  0  0
  7  8  1  0  0  0  0
  7  9  1  0  0  0  0
 20 21  1  0  0  0  0
 20 22  1  0  0  0  0
 20 23  1  0  0  0  0
 18 19  1  0  0  0  0
 18 20  1  0  0  0  0
M  END
$$$$
default_name
  -OEChem-01062215323D

 23 22  0     1  0  0  0  0  0999 V2000
   -2.6857   -3.6684    0.8743 H   0  0  0  0  0  0  0  0  0  0  0  0
   -2.6617   -2.6474    0.4953 C   0  0  0  0  0  0  0  0  0  0  0  0
   -3.2657   -2.0054    1.1353 H   0  0  0  0  0  0  0  0  0  0  0  0
   -3.0477   -2.6254   -0.5217 H   0  0  0  0  0  0  0  0  0  0  0  0
   -1.2337   -2.1564    0.4993 C   0  0  0  0  0  0  0  0  0  0  0  0
   -0.3327   -2.8864    0.8893 O   0  0  0  0  0  0  0  0  0  0  0  0
   -1.0277   -0.9164    0.0623 N   0  0  0  0  0  0  0  0  0  0  0  0
   -1.8237   -0.3604   -0.2157 H   0  0  0  0  0  0  0  0  0  0  0  0
    0.2713   -0.2414    0.0463 C   0  0  1  0  0  0  0  0  0  0  0  0
    0.5108    0.0833    1.0608 H   0  0  0  0  0  0  0  0  0  0  0  0
    1.3401   -1.2499   -0.4062 C   0  0  0  0  0  0  0  0  0  0  0  0
    1.0380   -1.6783   -1.3645 H   0  0  0  0  0  0  0  0  0  0  0  0
    2.2942   -0.7353   -0.5367 H   0  0  0  0  0  0  0  0  0  0  0  0
    1.5249   -2.5968    0.7992 S   0  0  0  0  0  0  0  0  0  0  0  0
    2.3917   -3.3329    0.0932 H   0  0  0  0  0  0  0  0  0  0  0  0
    0.2078    1.0100   -0.8530 C   0  0  0  0  0  0  0  0  0  0  0  0
   -0.1065    2.0981   -0.3697 O   0  0  0  0  0  0  0  0  0  0  0  0
    0.5099    0.8633   -2.1482 N   0  0  0  0  0  0  0  0  0  0  0  0
    0.6951   -0.0731   -2.4774 H   0  0  0  0  0  0  0  0  0  0  0  0
    0.5041    1.9507   -3.1251 C   0  0  0  0  0  0  0  0  0  0  0  0
    1.0773    2.7970   -2.7396 H   0  0  0  0  0  0  0  0  0  0  0  0
    0.9454    1.6161   -4.0646 H   0  0  0  0  0  0  0  0  0  0  0  0
   -0.5217    2.2773   -3.3040 H   0  0  0  0  0  0  0  0  0  0  0  0
  5  6  2  0  0  0  0
  5  7  1  0  0  0  0
  2  3  1  0  0  0  0
  2  4  1  0  0  0  0
  2  5  1  0  0  0  0
  1  2  1  0  0  0  0
 16 17  2  0  0  0  0
 16 18  1  0  0  0  0
 14 15  1  0  0  0  0
 11 12  1  0  0  0  0
 11 13  1  0  0  0  0
 11 14  1  0  0  0  0
  9 10  1  0  0  0  0
  9 11  1  0  0  0  0
  9 16  1  0  0  0  0
  7  8  1  0  0  0  0
  7  9  1  0  0  0  0
 20 21  1  0  0  0  0
 20 22  1  0  0  0  0
 20 23  1  0  0  0  0
 18 19  1  0  0  0  0
 18 20  1  0  0  0  0
M  END
$$$$
default_name
  -OEChem-01062215323D

 23 22  0     1  0  0  0  0  0999 V2000
   -2.6857   -3.6684    0.8743 H   0  0  0  0  0  0  0  0  0  0  0  0
   -2.6617   -2.6474    0.4953 C   0  0  0  0  0  0  0  0  0  0  0  0
   -3.2657   -2.0054    1.1353 H   0  0  0  0  0  0  0  0  0  0  0  0
   -3.0477   -2.6254   -0.5217 H   0  0  0  0  0  0  0  0  0  0  0  0
   -1.2337   -2.1564    0.4993 C   0  0  0  0  0  0  0  0  0  0  0  0
   -0.3327   -2.8864    0.8893 O   0  0  0  0  0  0  0  0  0  0  0  0
   -1.0277   -0.9164    0.0623 N   0  0  0  0  0  0  0  0  0  0  0  0
   -1.8237   -0.3604   -0.2157 H   0  0  0  0  0  0  0  0  0  0  0  0
    0.2713   -0.2414    0.0463 C   0  0  1  0  0  0  0  0  0  0  0  0
    0.5108    0.0833    1.0608 H   0  0  0  0  0  0  0  0  0  0  0  0
    1.3401   -1.2499   -0.4062 C   0  0  0  0  0  0  0  0  0  0  0  0
    1.0380   -1.6783   -1.3645 H   0  0  0  0  0  0  0  0  0  0  0  0
    2.2942   -0.7353   -0.5367 H   0  0  0  0  0  0  0  0  0  0  0  0
    1.5249   -2.5968    0.7992 S   0  0  0  0  0  0  0  0  0  0  0  0
    2.3917   -3.3329    0.0932 H   0  0  0  0  0  0  0  0  0  0  0  0
    0.2078    1.0100   -0.8530 C   0  0  0  0  0  0  0  0  0  0  0  0
    0.1690    2.1306   -0.3439 O   0  0  0  0  0  0  0  0  0  0  0  0
    0.2046    0.8262   -2.1783 N   0  0  0  0  0  0  0  0  0  0  0  0
    0.1739   -0.1257   -2.5138 H   0  0  0  0  0  0  0  0  0  0  0  0
    0.1559    1.9072   -3.1611 C   0  0  0  0  0  0  0  0  0  0  0  0
    0.9176    2.6543   -2.9269 H   0  0  0  0  0  0  0  0  0  0  0  0
    0.3340    1.5144   -4.1629 H   0  0  0  0  0  0  0  0  0  0  0  0
   -0.8238    2.3869   -3.1302 H   0  0  0  0  0  0  0  0  0  0  0  0
  5  6  2  0  0  0  0
  5  7  1  0  0  0  0
  2  3  1  0  0  0  0
  2  4  1  0  0  0  0
  2  5  1  0  0  0  0
  1  2  1  0  0  0  0
 16 17  2  0  0  0  0
 16 18  1  0  0  0  0
 14 15  1  0  0  0  0
 11 12  1  0  0  0  0
 11 13  1  0  0  0  0
 11 14  1  0  0  0  0
  9 10  1  0  0  0  0
  9 11  1  0  0  0  0
  9 16  1  0  0  0  0
  7  8  1  0  0  0  0
  7  9  1  0  0  0  0
 20 21  1  0  0  0  0
 20 22  1  0  0  0  0
 20 23  1  0  0  0  0
 18 19  1  0  0  0  0
 18 20  1  0  0  0  0
M  END
$$$$
default_name
  -OEChem-01062215323D

 23 22  0     1  0  0  0  0  0999 V2000
   -2.6857   -3.6684    0.8743 H   0  0  0  0  0  0  0  0  0  0  0  0
   -2.6617   -2.6474    0.4953 C   0  0  0  0  0  0  0  0  0  0  0  0
   -3.2657   -2.0054    1.1353 H   0  0  0  0  0  0  0  0  0  0  0  0
   -3.0477   -2.6254   -0.5217 H   0  0  0  0  0  0  0  0  0  0  0  0
   -1.2337   -2.1564    0.4993 C   0  0  0  0  0  0  0  0  0  0  0  0
   -0.3327   -2.8864    0.8893 O   0  0  0  0  0  0  0  0  0  0  0  0
   -1.0277   -0.9164    0.0623 N   0  0  0  0  0  0  0  0  0  0  0  0
   -1.8237   -0.3604   -0.2157 H   0  0  0  0  0  0  0  0  0  0  0  0
    0.2713   -0.2414    0.0463 C   0  0  1  0  0  0  0  0  0  0  0  0
    0.5108    0.0833    1.0608 H   0  0  0  0  0  0  0  0  0  0  0  0
    1.3401   -1.2499   -0.4062 C   0  0  0  0  0  0  0  0  0  0  0  0
    1.0380   -1.6783   -1.3645 H   0  0  0  0  0  0  0  0  0  0  0  0
    2.2942   -0.7353   -0.5367 H   0  0  0  0  0  0  0  0  0  0  0  0
    1.5249   -2.5968    0.7992 S   0  0  0  0  0  0  0  0  0  0  0  0
    2.3917   -3.3329    0.0932 H   0  0  0  0  0  0  0  0  0  0  0  0
    0.2078    1.0100   -0.8530 C   0  0  0  0  0  0  0  0  0  0  0  0
    0.4455    2.1207   -0.3772 O   0  0  0  0  0  0  0  0  0  0  0  0
   -0.1022    0.8360   -2.1429 N   0  0  0  0  0  0  0  0  0  0  0  0
   -0.3452   -0.0983   -2.4390 H   0  0  0  0  0  0  0  0  0  0  0  0
   -0.1945    1.9172   -3.1224 C   0  0  0  0  0  0  0  0  0  0  0  0
    0.7025    2.5385   -3.0728 H   0  0  0  0  0  0  0  0  0  0  0  0
   -0.2925    1.5074   -4.1284 H   0  0  0  0  0  0  0  0  0  0  0  0
   -1.0626    2.5401   -2.9000 H   0  0  0  0  0  0  0  0  0  0  0  0
  5  6  2  0  0  0  0
  5  7  1  0  0  0  0
  2  3  1  0  0  0  0
  2  4  1  0  0  0  0
  2  5  1  0  0  0  0
  1  2  1  0  0  0  0
 16 17  2  0  0  0  0
 16 18  1  0  0  0  0
 14 15  1  0  0  0  0
 11 12  1  0  0  0  0
 11 13  1  0  0  0  0
 11 14  1  0  0  0  0
  9 10  1  0  0  0  0
  9 11  1  0  0  0  0
  9 16  1  0  0  0  0
  7  8  1  0  0  0  0
  7  9  1  0  0  0  0
 20 21  1  0  0  0  0
 20 22  1  0  0  0  0
 20 23  1  0  0  0  0
 18 19  1  0  0  0  0
 18 20  1  0  0  0  0
M  END
$$$$
default_name
  -OEChem-01062215323D

 23 22  0     1  0  0  0  0  0999 V2000
   -2.6857   -3.6684    0.8743 H   0  0  0  0  0  0  0  0  0  0  0  0
   -2.6617   -2.6474    0.4953 C   0  0  0  0  0  0  0  0  0  0  0  0
   -3.2657   -2.0054    1.1353 H   0  0  0  0  0  0  0  0  0  0  0  0
   -3.0477   -2.6254   -0.5217 H   0  0  0  0  0  0  0  0  0  0  0  0
   -1.2337   -2.1564    0.4993 C   0  0  0  0  0  0  0  0  0  0  0  0
   -0.3327   -2.8864    0.8893 O   0  0  0  0  0  0  0  0  0  0  0  0
   -1.0277   -0.9164    0.0623 N   0  0  0  0  0  0  0  0  0  0  0  0
   -1.8237   -0.3604   -0.2157 H   0  0  0  0  0  0  0  0  0  0  0  0
    0.2713   -0.2414    0.0463 C   0  0  1  0  0  0  0  0  0  0  0  0
    0.5108    0.0833    1.0608 H   0  0  0  0  0  0  0  0  0  0  0  0
    1.3401   -1.2499   -0.4062 C   0  0  0  0  0  0  0  0  0  0  0  0
    1.0380   -1.6783   -1.3645 H   0  0  0  0  0  0  0  0  0  0  0  0
    2.2942   -0.7353   -0.5367 H   0  0  0  0  0  0  0  0  0  0  0  0
    1.5249   -2.5968    0.7992 S   0  0  0  0  0  0  0  0  0  0  0  0
    2.3917   -3.3329    0.0932 H   0  0  0  0  0  0  0  0  0  0  0  0
    0.2078    1.0100   -0.8530 C   0  0  0  0  0  0  0  0  0  0  0  0
    0.7041    2.0690   -0.4674 O   0  0  0  0  0  0  0  0  0  0  0  0
   -0.3897    0.8923   -2.0444 N   0  0  0  0  0  0  0  0  0  0  0  0
   -0.8267    0.0074   -2.2579 H   0  0  0  0  0  0  0  0  0  0  0  0
   -0.5234    1.9802   -3.0115 C   0  0  0  0  0  0  0  0  0  0  0  0
    0.4467    2.4577   -3.1673 H   0  0  0  0  0  0  0  0  0  0  0  0
   -0.8915    1.5956   -3.9633 H   0  0  0  0  0  0  0  0  0  0  0  0
   -1.2218    2.7267   -2.6292 H   0  0  0  0  0  0  0  0  0  0  0  0
  5  6  2  0  0  0  0
  5  7  1  0  0  0  0
  2  3  1  0  0  0  0
  2  4  1  0  0  0  0
  2  5  1  0  0  0  0
  1  2  1  0  0  0  0
 16 17  2  0  0  0  0
 16 18  1  0  0  0  0
 14 15  1  0  0  0  0
 11 12  1  0  0  0  0
 11 13  1  0  0  0  0
 11 14  1  0  0  0  0
  9 10  1  0  0  0  0
  9 11  1  0  0  0  0
  9 16  1  0  0  0  0
  7  8  1  0  0  0  0
  7  9  1  0  0  0  0
 20 21  1  0  0  0  0
 20 22  1  0  0  0  0
 20 23  1  0  0  0  0
 18 19  1  0  0  0  0
 18 20  1  0  0  0  0
M  END
$$$$
default_name
  -OEChem-01062215323D

 23 22  0     1  0  0  0  0  0999 V2000
   -2.6857   -3.6684    0.8743 H   0  0  0  0  0  0  0  0  0  0  0  0
   -2.6617   -2.6474    0.4953 C   0  0  0  0  0  0  0  0  0  0  0  0
   -3.2657   -2.0054    1.1353 H   0  0  0  0  0  0  0  0  0  0  0  0
   -3.0477   -2.6254   -0.5217 H   0  0  0  0  0  0  0  0  0  0  0  0
   -1.2337   -2.1564    0.4993 C   0  0  0  0  0  0  0  0  0  0  0  0
   -0.3327   -2.8864    0.8893 O   0  0  0  0  0  0  0  0  0  0  0  0
   -1.0277   -0.9164    0.0623 N   0  0  0  0  0  0  0  0  0  0  0  0
   -1.8237   -0.3604   -0.2157 H   0  0  0  0  0  0  0  0  0  0  0  0
    0.2713   -0.2414    0.0463 C   0  0  1  0  0  0  0  0  0  0  0  0
    0.5108    0.0833    1.0608 H   0  0  0  0  0  0  0  0  0  0  0  0
    1.3401   -1.2499   -0.4062 C   0  0  0  0  0  0  0  0  0  0  0  0
    1.0380   -1.6783   -1.3645 H   0  0  0  0  0  0  0  0  0  0  0  0
    2.2942   -0.7353   -0.5367 H   0  0  0  0  0  0  0  0  0  0  0  0
    1.5249   -2.5968    0.7992 S   0  0  0  0  0  0  0  0  0  0  0  0
    2.3917   -3.3329    0.0932 H   0  0  0  0  0  0  0  0  0  0  0  0
    0.2078    1.0100   -0.8530 C   0  0  0  0  0  0  0  0  0  0  0  0
    0.9271    1.9792   -0.6082 O   0  0  0  0  0  0  0  0  0  0  0  0
   -0.6382    0.9910   -1.8895 N   0  0  0  0  0  0  0  0  0  0  0  0
   -1.2379    0.1840   -1.9831 H   0  0  0  0  0  0  0  0  0  0  0  0
   -0.8083    2.0919   -2.8359 C   0  0  0  0  0  0  0  0  0  0  0  0
    0.1674    2.4171   -3.2039 H   0  0  0  0  0  0  0  0  0  0  0  0
   -1.4221    1.7729   -3.6791 H   0  0  0  0  0  0  0  0  0  0  0  0
   -1.2905    2.9338   -2.3361 H   0  0  0  0  0  0  0  0  0  0  0  0
  5  6  2  0  0  0  0
  5  7  1  0  0  0  0
  2  3  1  0  0  0  0
  2  4  1  0  0  0  0
  2  5  1  0  0  0  0
  1  2  1  0  0  0  0
 16 17  2  0  0  0  0
 16 18  1  0  0  0  0
 14 15  1  0  0  0  0
 11 12  1  0  0  0  0
 11 13  1  0  0  0  0
 11 14  1  0  0  0  0
  9 10  1  0  0  0  0
  9 11  1  0  0  0  0
  9 16  1  0  0  0  0
  7  8  1  0  0  0  0
  7  9  1  0  0  0  0
 20 21  1  0  0  0  0
 20 22  1  0  0  0  0
 20 23  1  0  0  0  0
 18 19  1  0  0  0  0
 18 20  1  0  0  0  0
M  END
$$$$
default_name
  -OEChem-01062215323D

 23 22  0     1  0  0  0  0  0999 V2000
   -2.6857   -3.6684    0.8743 H   0  0  0  0  0  0  0  0  0  0  0  0
   -2.6617   -2.6474    0.4953 C   0  0  0  0  0  0  0  0  0  0  0  0
   -3.2657   -2.0054    1.1353 H   0  0  0  0  0  0  0  0  0  0  0  0
   -3.0477   -2.6254   -0.5217 H   0  0  0  0  0  0  0  0  0  0  0  0
   -1.2337   -2.1564    0.4993 C   0  0  0  0  0  0  0  0  0  0  0  0
   -0.3327   -2.8864    0.8893 O   0  0  0  0  0  0  0  0  0  0  0  0
   -1.0277   -0.9164    0.0623 N   0  0  0  0  0  0  0  0  0  0  0  0
   -1.8237   -0.3604   -0.2157 H   0  0  0  0  0  0  0  0  0  0  0  0
    0.2713   -0.2414    0.0463 C   0  0  1  0  0  0  0  0  0  0  0  0
    0.5108    0.0833    1.0608 H   0  0  0  0  0  0  0  0  0  0  0  0
    1.3401   -1.2499   -0.4062 C   0  0  0  0  0  0  0  0  0  0  0  0
    1.0380   -1.6783   -1.3645 H   0  0  0  0  0  0  0  0  0  0  0  0
    2.2942   -0.7353   -0.5367 H   0  0  0  0  0  0  0  0  0  0  0  0
    1.5249   -2.5968    0.7992 S   0  0  0  0  0  0  0  0  0  0  0  0
    2.3917   -3.3329    0.0932 H   0  0  0  0  0  0  0  0  0  0  0  0
    0.2078    1.0100   -0.8530 C   0  0  0  0  0  0  0  0  0  0  0  0
    1.0994    1.8572   -0.7901 O   0  0  0  0  0  0  0  0  0  0  0  0
   -0.8307    1.1255   -1.6887 N   0  0  0  0  0  0  0  0  0  0  0  0
   -1.5507    0.4197   -1.6331 H   0  0  0  0  0  0  0  0  0  0  0  0
   -1.0297    2.2447   -2.6078 C   0  0  0  0  0  0  0  0  0  0  0  0
   -0.1161    2.4197   -3.1803 H   0  0  0  0  0  0  0  0  0  0  0  0
   -1.8482    2.0273   -3.2950 H   0  0  0  0  0  0  0  0  0  0  0  0
   -1.2641    3.1473   -2.0409 H   0  0  0  0  0  0  0  0  0  0  0  0
  5  6  2  0  0  0  0
  5  7  1  0  0  0  0
  2  3  1  0  0  0  0
  2  4  1  0  0  0  0
  2  5  1  0  0  0  0
  1  2  1  0  0  0  0
 16 17  2  0  0  0  0
 16 18  1  0  0  0  0
 14 15  1  0  0  0  0
 11 12  1  0  0  0  0
 11 13  1  0  0  0  0
 11 14  1  0  0  0  0
  9 10  1  0  0  0  0
  9 11  1  0  0  0  0
  9 16  1  0  0  0  0
  7  8  1  0  0  0  0
  7  9  1  0  0  0  0
 20 21  1  0  0  0  0
 20 22  1  0  0  0  0
 20 23  1  0  0  0  0
 18 19  1  0  0  0  0
 18 20  1  0  0  0  0
M  END
$$$$
default_name
  -OEChem-01062215323D

 23 22  0     1  0  0  0  0  0999 V2000
   -2.6857   -3.6684    0.8743 H   0  0  0  0  0  0  0  0  0  0  0  0
   -2.6617   -2.6474    0.4953 C   0  0  0  0  0  0  0  0  0  0  0  0
   -3.2657   -2.0054    1.1353 H   0  0  0  0  0  0  0  0  0  0  0  0
   -3.0477   -2.6254   -0.5217 H   0  0  0  0  0  0  0  0  0  0  0  0
   -1.2337   -2.1564    0.4993 C   0  0  0  0  0  0  0  0  0  0  0  0
   -0.3327   -2.8864    0.8893 O   0  0  0  0  0  0  0  0  0  0  0  0
   -1.0277   -0.9164    0.0623 N   0  0  0  0  0  0  0  0  0  0  0  0
   -1.8237   -0.3604   -0.2157 H   0  0  0  0  0  0  0  0  0  0  0  0
    0.2713   -0.2414    0.0463 C   0  0  1  0  0  0  0  0  0  0  0  0
    0.5108    0.0833    1.0608 H   0  0  0  0  0  0  0  0  0  0  0  0
    1.3401   -1.2499   -0.4062 C   0  0  0  0  0  0  0  0  0  0  0  0
    1.0380   -1.6783   -1.3645 H   0  0  0  0  0  0  0  0  0  0  0  0
    2.2942   -0.7353   -0.5367 H   0  0  0  0  0  0  0  0  0  0  0  0
    1.5249   -2.5968    0.7992 S   0  0  0  0  0  0  0  0  0  0  0  0
    2.3917   -3.3329    0.0932 H   0  0  0  0  0  0  0  0  0  0  0  0
    0.2078    1.0100   -0.8530 C   0  0  0  0  0  0  0  0  0  0  0  0
    1.2092    1.7114   -1.0007 O   0  0  0  0  0  0  0  0  0  0  0  0
   -0.9543    1.2866   -1.4557 N   0  0  0  0  0  0  0  0  0  0  0  0
   -1.7437    0.6982   -1.2319 H   0  0  0  0  0  0  0  0  0  0  0  0
   -1.1726    2.4280   -2.3425 C   0  0  0  0  0  0  0  0  0  0  0  0
   -0.3845    2.4653   -3.0979 H   0  0  0  0  0  0  0  0  0  0  0  0
   -2.1407    2.3415   -2.8372 H   0  0  0  0  0  0  0  0  0  0  0  0
   -1.1443    3.3527   -1.7635 H   0  0  0  0  0  0  0  0  0  0  0  0
  5  6  2  0  0  0  0
  5  7  1  0  0  0  0
  2  3  1  0  0  0  0
  2  4  1  0  0  0  0
  2  5  1  0  0  0  0
  1  2  1  0  0  0  0
 16 17  2  0  0  0  0
 16 18  1  0  0  0  0
 14 15  1  0  0  0  0
 11 12  1  0  0  0  0
 11 13  1  0  0  0  0
 11 14  1  0  0  0  0
  9 10  1  0  0  0  0
  9 11  1  0  0  0  0
  9 16  1  0  0  0  0
  7  8  1  0  0  0  0
  7  9  1  0  0  0  0
 20 21  1  0  0  0  0
 20 22  1  0  0  0  0
 20 23  1  0  0  0  0
 18 19  1  0  0  0  0
 18 20  1  0  0  0  0
M  END
$$$$
default_name
  -OEChem-01062215323D

 23 22  0     1  0  0  0  0  0999 V2000
   -2.6857   -3.6684    0.8743 H   0  0  0  0  0  0  0  0  0  0  0  0
   -2.6617   -2.6474    0.4953 C   0  0  0  0  0  0  0  0  0  0  0  0
   -3.2657   -2.0054    1.1353 H   0  0  0  0  0  0  0  0  0  0  0  0
   -3.0477   -2.6254   -0.5217 H   0  0  0  0  0  0  0  0  0  0  0  0
   -1.2337   -2.1564    0.4993 C   0  0  0  0  0  0  0  0  0  0  0  0
   -0.3327   -2.8864    0.8893 O   0  0  0  0  0  0  0  0  0  0  0  0
   -1.0277   -0.9164    0.0623 N   0  0  0  0  0  0  0  0  0  0  0  0
   -1.8237   -0.3604   -0.2157 H   0  0  0  0  0  0  0  0  0  0  0  0
    0.2713   -0.2414    0.0463 C   0  0  1  0  0  0  0  0  0  0  0  0
    0.5108    0.0833    1.0608 H   0  0  0  0  0  0  0  0  0  0  0  0
    1.3401   -1.2499   -0.4062 C   0  0  0  0  0  0  0  0  0  0  0  0
    1.0380   -1.6783   -1.3645 H   0  0  0  0  0  0  0  0  0  0  0  0
    2.2942   -0.7353   -0.5367 H   0  0  0  0  0  0  0  0  0  0  0  0
    1.5249   -2.5968    0.7992 S   0  0  0  0  0  0  0  0  0  0  0  0
    2.3917   -3.3329    0.0932 H   0  0  0  0  0  0  0  0  0  0  0  0
    0.2078    1.0100   -0.8530 C   0  0  0  0  0  0  0  0  0  0  0  0
    1.2490    1.5518   -1.2256 O   0  0  0  0  0  0  0  0  0  0  0  0
   -1.0004    1.4634   -1.2065 N   0  0  0  0  0  0  0  0  0  0  0  0
   -1.8039    1.0006   -0.8068 H   0  0  0  0  0  0  0  0  0  0  0  0
   -1.2273    2.6296   -2.0582 C   0  0  0  0  0  0  0  0  0  0  0  0
   -0.6197    2.5507   -2.9625 H   0  0  0  0  0  0  0  0  0  0  0  0
   -2.2797    2.6939   -2.3370 H   0  0  0  0  0  0  0  0  0  0  0  0
   -0.9394    3.5360   -1.5229 H   0  0  0  0  0  0  0  0  0  0  0  0
  5  6  2  0  0  0  0
  5  7  1  0  0  0  0
  2  3  1  0  0  0  0
  2  4  1  0  0  0  0
  2  5  1  0  0  0  0
  1  2  1  0  0  0  0
 16 17  2  0  0  0  0
 16 18  1  0  0  0  0
 14 15  1  0  0  0  0
 11 12  1  0  0  0  0
 11 13  1  0  0  0  0
 11 14  1  0  0  0  0
  9 10  1  0  0  0  0
  9 11  1  0  0  0  0
  9 16  1  0  0  0  0
  7  8  1  0  0  0  0
  7  9  1  0  0  0  0
 20 21  1  0  0  0  0
 20 22  1  0  0  0  0
 20 23  1  0  0  0  0
 18 19  1  0  0  0  0
 18 20  1  0  0  0  0
M  END
$$$$
default_name
  -OEChem-01062215323D

 23 22  0     1  0  0  0  0  0999 V2000
   -2.6857   -3.6684    0.8743 H   0  0  0  0  0  0  0  0  0  0  0  0
   -2.6617   -2.6474    0.4953 C   0  0  0  0  0  0  0  0  0  0  0  0
   -3.2657   -2.0054    1.1353 H   0  0  0  0  0  0  0  0  0  0  0  0
   -3.0477   -2.6254   -0.5217 H   0  0  0  0  0  0  0  0  0  0  0  0
   -1.2337   -2.1564    0.4993 C   0  0  0  0  0  0  0  0  0  0  0  0
   -0.3327   -2.8864    0.8893 O   0  0  0  0  0  0  0  0  0  0  0  0
   -1.0277   -0.9164    0.0623 N   0  0  0  0  0  0  0  0  0  0  0  0
   -1.8237   -0.3604   -0.2157 H   0  0  0  0  0  0  0  0  0  0  0  0
    0.2713   -0.2414    0.0463 C   0  0  1  0  0  0  0  0  0  0  0  0
    0.5108    0.0833    1.0608 H   0  0  0  0  0  0  0  0  0  0  0  0
    1.3401   -1.2499   -0.4062 C   0  0  0  0  0  0  0  0  0  0  0  0
    1.0380   -1.6783   -1.3645 H   0  0  0  0  0  0  0  0  0  0  0  0
    2.2942   -0.7353   -0.5367 H   0  0  0  0  0  0  0  0  0  0  0  0
    1.5249   -2.5968    0.7992 S   0  0  0  0  0  0  0  0  0  0  0  0
    2.3917   -3.3329    0.0932 H   0  0  0  0  0  0  0  0  0  0  0  0
    0.2078    1.0100   -0.8530 C   0  0  0  0  0  0  0  0  0  0  0  0
    1.2162    1.3892   -1.4496 O   0  0  0  0  0  0  0  0  0  0  0  0
   -0.9659    1.6438   -0.9579 N   0  0  0  0  0  0  0  0  0  0  0  0
   -1.7272    1.3063   -0.3868 H   0  0  0  0  0  0  0  0  0  0  0  0
   -1.1900    2.8355   -1.7742 C   0  0  0  0  0  0  0  0  0  0  0  0
   -0.8055    2.6701   -2.7832 H   0  0  0  0  0  0  0  0  0  0  0  0
   -2.2558    3.0606   -1.8283 H   0  0  0  0  0  0  0  0  0  0  0  0
   -0.6633    3.6847   -1.3355 H   0  0  0  0  0  0  0  0  0  0  0  0
  5  6  2  0  0  0  0
  5  7  1  0  0  0  0
  2  3  1  0  0  0  0
  2  4  1  0  0  0  0
  2  5  1  0  0  0  0
  1  2  1  0  0  0  0
 16 17  2  0  0  0  0
 16 18  1  0  0  0  0
 14 15  1  0  0  0  0
 11 12  1  0  0  0  0
 11 13  1  0  0  0  0
 11 14  1  0  0  0  0
  9 10  1  0  0  0  0
  9 11  1  0  0  0  0
  9 16  1  0  0  0  0
  7  8  1  0  0  0  0
  7  9  1  0  0  0  0
 20 21  1  0  0  0  0
 20 22  1  0  0  0  0
 20 23  1  0  0  0  0
 18 19  1  0  0  0  0
 18 20  1  0  0  0  0
M  END
$$$$
default_name
  -OEChem-01062215323D

 23 22  0     1  0  0  0  0  0999 V2000
   -2.6857   -3.6684    0.8743 H   0  0  0  0  0  0  0  0  0  0  0  0
   -2.6617   -2.6474    0.4953 C   0  0  0  0  0  0  0  0  0  0  0  0
   -3.2657   -2.0054    1.1353 H   0  0  0  0  0  0  0  0  0  0  0  0
   -3.0477   -2.6254   -0.5217 H   0  0  0  0  0  0  0  0  0  0  0  0
   -1.2337   -2.1564    0.4993 C   0  0  0  0  0  0  0  0  0  0  0  0
   -0.3327   -2.8864    0.8893 O   0  0  0  0  0  0  0  0  0  0  0  0
   -1.0277   -0.9164    0.0623 N   0  0  0  0  0  0  0  0  0  0  0  0
   -1.8237   -0.3604   -0.2157 H   0  0  0  0  0  0  0  0  0  0  0  0
    0.2713   -0.2414    0.0463 C   0  0  1  0  0  0  0  0  0  0  0  0
    0.5108    0.0833    1.0608 H   0  0  0  0  0  0  0  0  0  0  0  0
    1.3401   -1.2499   -0.4062 C   0  0  0  0  0  0  0  0  0  0  0  0
    1.0380   -1.6783   -1.3645 H   0  0  0  0  0  0  0  0  0  0  0  0
    2.2942   -0.7353   -0.5367 H   0  0  0  0  0  0  0  0  0  0  0  0
    1.5249   -2.5968    0.7992 S   0  0  0  0  0  0  0  0  0  0  0  0
    2.3917   -3.3329    0.0932 H   0  0  0  0  0  0  0  0  0  0  0  0
    0.2078    1.0100   -0.8530 C   0  0  0  0  0  0  0  0  0  0  0  0
    1.1129    1.2348   -1.6572 O   0  0  0  0  0  0  0  0  0  0  0  0
   -0.8532    1.8154   -0.7270 N   0  0  0  0  0  0  0  0  0  0  0  0
   -1.5187    1.5946   -0.0004 H   0  0  0  0  0  0  0  0  0  0  0  0
   -1.0633    3.0318   -1.5100 C   0  0  0  0  0  0  0  0  0  0  0  0
   -0.9294    2.8154   -2.5723 H   0  0  0  0  0  0  0  0  0  0  0  0
   -2.0705    3.4167   -1.3460 H   0  0  0  0  0  0  0  0  0  0  0  0
   -0.3348    3.7886   -1.2140 H   0  0  0  0  0  0  0  0  0  0  0  0
  5  6  2  0  0  0  0
  5  7  1  0  0  0  0
  2  3  1  0  0  0  0
  2  4  1  0  0  0  0
  2  5  1  0  0  0  0
  1  2  1  0  0  0  0
 16 17  2  0  0  0  0
 16 18  1  0  0  0  0
 14 15  1  0  0  0  0
 11 12  1  0  0  0  0
 11 13  1  0  0  0  0
 11 14  1  0  0  0  0
  9 10  1  0  0  0  0
  9 11  1  0  0  0  0
  9 16  1  0  0  0  0
  7  8  1  0  0  0  0
  7  9  1  0  0  0  0
 20 21  1  0  0  0  0
 20 22  1  0  0  0  0
 20 23  1  0  0  0  0
 18 19  1  0  0  0  0
 18 20  1  0  0  0  0
M  END
$$$$
default_name
  -OEChem-01062215323D

 23 22  0     1  0  0  0  0  0999 V2000
   -2.6857   -3.6684    0.8743 H   0  0  0  0  0  0  0  0  0  0  0  0
   -2.6617   -2.6474    0.4953 C   0  0  0  0  0  0  0  0  0  0  0  0
   -3.2657   -2.0054    1.1353 H   0  0  0  0  0  0  0  0  0  0  0  0
   -3.0477   -2.6254   -0.5217 H   0  0  0  0  0  0  0  0  0  0  0  0
   -1.2337   -2.1564    0.4993 C   0  0  0  0  0  0  0  0  0  0  0  0
   -0.3327   -2.8864    0.8893 O   0  0  0  0  0  0  0  0  0  0  0  0
   -1.0277   -0.9164    0.0623 N   0  0  0  0  0  0  0  0  0  0  0  0
   -1.8237   -0.3604   -0.2157 H   0  0  0  0  0  0  0  0  0  0  0  0
    0.2713   -0.2414    0.0463 C   0  0  1  0  0  0  0  0  0  0  0  0
    0.5108    0.0833    1.0608 H   0  0  0  0  0  0  0  0  0  0  0  0
    1.3401   -1.2499   -0.4062 C   0  0  0  0  0  0  0  0  0  0  0  0
    1.0380   -1.6783   -1.3645 H   0  0  0  0  0  0  0  0  0  0  0  0
    2.2942   -0.7353   -0.5367 H   0  0  0  0  0  0  0  0  0  0  0  0
    1.5249   -2.5968    0.7992 S   0  0  0  0  0  0  0  0  0  0  0  0
    2.3917   -3.3329    0.0932 H   0  0  0  0  0  0  0  0  0  0  0  0
    0.2078    1.0100   -0.8530 C   0  0  0  0  0  0  0  0  0  0  0  0
    0.9462    1.0989   -1.8345 O   0  0  0  0  0  0  0  0  0  0  0  0
   -0.6699    1.9667   -0.5294 N   0  0  0  0  0  0  0  0  0  0  0  0
   -1.1927    1.8456    0.3259 H   0  0  0  0  0  0  0  0  0  0  0  0
   -0.8557    3.2052   -1.2834 C   0  0  0  0  0  0  0  0  0  0  0  0
   -0.9827    2.9767   -2.3441 H   0  0  0  0  0  0  0  0  0  0  0  0
   -1.7365    3.7378   -0.9227 H   0  0  0  0  0  0  0  0  0  0  0  0
    0.0237    3.8408   -1.1668 H   0  0  0  0  0  0  0  0  0  0  0  0
  5  6  2  0  0  0  0
  5  7  1  0  0  0  0
  2  3  1  0  0  0  0
  2  4  1  0  0  0  0
  2  5  1  0  0  0  0
  1  2  1  0  0  0  0
 16 17  2  0  0  0  0
 16 18  1  0  0  0  0
 14 15  1  0  0  0  0
 11 12  1  0  0  0  0
 11 13  1  0  0  0  0
 11 14  1  0  0  0  0
  9 10  1  0  0  0  0
  9 11  1  0  0  0  0
  9 16  1  0  0  0  0
  7  8  1  0  0  0  0
  7  9  1  0  0  0  0
 20 21  1  0  0  0  0
 20 22  1  0  0  0  0
 20 23  1  0  0  0  0
 18 19  1  0  0  0  0
 18 20  1  0  0  0  0
M  END
$$$$
default_name
  -OEChem-01062215323D

 23 22  0     1  0  0  0  0  0999 V2000
   -2.6857   -3.6684    0.8743 H   0  0  0  0  0  0  0  0  0  0  0  0
   -2.6617   -2.6474    0.4953 C   0  0  0  0  0  0  0  0  0  0  0  0
   -3.2657   -2.0054    1.1353 H   0  0  0  0  0  0  0  0  0  0  0  0
   -3.0477   -2.6254   -0.5217 H   0  0  0  0  0  0  0  0  0  0  0  0
   -1.2337   -2.1564    0.4993 C   0  0  0  0  0  0  0  0  0  0  0  0
   -0.3327   -2.8864    0.8893 O   0  0  0  0  0  0  0  0  0  0  0  0
   -1.0277   -0.9164    0.0623 N   0  0  0  0  0  0  0  0  0  0  0  0
   -1.8237   -0.3604   -0.2157 H   0  0  0  0  0  0  0  0  0  0  0  0
    0.2713   -0.2414    0.0463 C   0  0  1  0  0  0  0  0  0  0  0  0
    0.5108    0.0833    1.0608 H   0  0  0  0  0  0  0  0  0  0  0  0
    1.3401   -1.2499   -0.4062 C   0  0  0  0  0  0  0  0  0  0  0  0
    1.0380   -1.6783   -1.3645 H   0  0  0  0  0  0  0  0  0  0  0  0
    2.2942   -0.7353   -0.5367 H   0  0  0  0  0  0  0  0  0  0  0  0
    1.5249   -2.5968    0.7992 S   0  0  0  0  0  0  0  0  0  0  0  0
    2.3917   -3.3329    0.0932 H   0  0  0  0  0  0  0  0  0  0  0  0
    0.2078    1.0100   -0.8530 C   0  0  0  0  0  0  0  0  0  0  0  0
    0.7275    0.9910   -1.9692 O   0  0  0  0  0  0  0  0  0  0  0  0
   -0.4285    2.0872   -0.3787 N   0  0  0  0  0  0  0  0  0  0  0  0
   -0.7713    2.0424    0.5700 H   0  0  0  0  0  0  0  0  0  0  0  0
   -0.5815    3.3437   -1.1100 C   0  0  0  0  0  0  0  0  0  0  0  0
   -0.9620    3.1430   -2.1141 H   0  0  0  0  0  0  0  0  0  0  0  0
   -1.2765    4.0020   -0.5875 H   0  0  0  0  0  0  0  0  0  0  0  0
    0.3878    3.8375   -1.1970 H   0  0  0  0  0  0  0  0  0  0  0  0
  5  6  2  0  0  0  0
  5  7  1  0  0  0  0
  2  3  1  0  0  0  0
  2  4  1  0  0  0  0
  2  5  1  0  0  0  0
  1  2  1  0  0  0  0
 16 17  2  0  0  0  0
 16 18  1  0  0  0  0
 14 15  1  0  0  0  0
 11 12  1  0  0  0  0
 11 13  1  0  0  0  0
 11 14  1  0  0  0  0
  9 10  1  0  0  0  0
  9 11  1  0  0  0  0
  9 16  1  0  0  0  0
  7  8  1  0  0  0  0
  7  9  1  0  0  0  0
 20 21  1  0  0  0  0
 20 22  1  0  0  0  0
 20 23  1  0  0  0  0
 18 19  1  0  0  0  0
 18 20  1  0  0  0  0
M  END
$$$$
default_name
  -OEChem-01062215323D

 23 22  0     1  0  0  0  0  0999 V2000
   -2.6857   -3.6684    0.8743 H   0  0  0  0  0  0  0  0  0  0  0  0
   -2.6617   -2.6474    0.4953 C   0  0  0  0  0  0  0  0  0  0  0  0
   -3.2657   -2.0054    1.1353 H   0  0  0  0  0  0  0  0  0  0  0  0
   -3.0477   -2.6254   -0.5217 H   0  0  0  0  0  0  0  0  0  0  0  0
   -1.2337   -2.1564    0.4993 C   0  0  0  0  0  0  0  0  0  0  0  0
   -0.3327   -2.8864    0.8893 O   0  0  0  0  0  0  0  0  0  0  0  0
   -1.0277   -0.9164    0.0623 N   0  0  0  0  0  0  0  0  0  0  0  0
   -1.8237   -0.3604   -0.2157 H   0  0  0  0  0  0  0  0  0  0  0  0
    0.2713   -0.2414    0.0463 C   0  0  1  0  0  0  0  0  0  0  0  0
    0.5108    0.0833    1.0608 H   0  0  0  0  0  0  0  0  0  0  0  0
    1.3401   -1.2499   -0.4062 C   0  0  0  0  0  0  0  0  0  0  0  0
    1.0380   -1.6783   -1.3645 H   0  0  0  0  0  0  0  0  0  0  0  0
    2.2942   -0.7353   -0.5367 H   0  0  0  0  0  0  0  0  0  0  0  0
    1.5249   -2.5968    0.7992 S   0  0  0  0  0  0  0  0  0  0  0  0
    2.3917   -3.3329    0.0932 H   0  0  0  0  0  0  0  0  0  0  0  0
    0.2078    1.0100   -0.8530 C   0  0  0  0  0  0  0  0  0  0  0  0
    0.4717    0.9183   -2.0523 O   0  0  0  0  0  0  0  0  0  0  0  0
   -0.1456    2.1689   -0.2851 N   0  0  0  0  0  0  0  0  0  0  0  0
   -0.2834    2.1715    0.7152 H   0  0  0  0  0  0  0  0  0  0  0  0
   -0.2594    3.4379   -1.0016 C   0  0  0  0  0  0  0  0  0  0  0  0
   -0.8687    3.3029   -1.8982 H   0  0  0  0  0  0  0  0  0  0  0  0
   -0.7219    4.1914   -0.3631 H   0  0  0  0  0  0  0  0  0  0  0  0
    0.7326    3.7791   -1.3026 H   0  0  0  0  0  0  0  0  0  0  0  0
  5  6  2  0  0  0  0
  5  7  1  0  0  0  0
  2  3  1  0  0  0  0
  2  4  1  0  0  0  0
  2  5  1  0  0  0  0
  1  2  1  0  0  0  0
 16 17  2  0  0  0  0
 16 18  1  0  0  0  0
 14 15  1  0  0  0  0
 11 12  1  0  0  0  0
 11 13  1  0  0  0  0
 11 14  1  0  0  0  0
  9 10  1  0  0  0  0
  9 11  1  0  0  0  0
  9 16  1  0  0  0  0
  7  8  1  0  0  0  0
  7  9  1  0  0  0  0
 20 21  1  0  0  0  0
 20 22  1  0  0  0  0
 20 23  1  0  0  0  0
 18 19  1  0  0  0  0
 18 20  1  0  0  0  0
M  END
$$$$
default_name
  -OEChem-01062215323D

 23 22  0     1  0  0  0  0  0999 V2000
   -2.6857   -3.6684    0.8743 H   0  0  0  0  0  0  0  0  0  0  0  0
   -2.6617   -2.6474    0.4953 C   0  0  0  0  0  0  0  0  0  0  0  0
   -3.2657   -2.0054    1.1353 H   0  0  0  0  0  0  0  0  0  0  0  0
   -3.0477   -2.6254   -0.5217 H   0  0  0  0  0  0  0  0  0  0  0  0
   -1.2337   -2.1564    0.4993 C   0  0  0  0  0  0  0  0  0  0  0  0
   -0.3327   -2.8864    0.8893 O   0  0  0  0  0  0  0  0  0  0  0  0
   -1.0277   -0.9164    0.0623 N   0  0  0  0  0  0  0  0  0  0  0  0
   -1.8237   -0.3604   -0.2157 H   0  0  0  0  0  0  0  0  0  0  0  0
    0.2713   -0.2414    0.0463 C   0  0  1  0  0  0  0  0  0  0  0  0
    0.5108    0.0833    1.0608 H   0  0  0  0  0  0  0  0  0  0  0  0
    1.3401   -1.2499   -0.4062 C   0  0  0  0  0  0  0  0  0  0  0  0
    1.0380   -1.6783   -1.3645 H   0  0  0  0  0  0  0  0  0  0  0  0
    2.2942   -0.7353   -0.5367 H   0  0  0  0  0  0  0  0  0  0  0  0
    1.5249   -2.5968    0.7992 S   0  0  0  0  0  0  0  0  0  0  0  0
    2.3917   -3.3329    0.0932 H   0  0  0  0  0  0  0  0  0  0  0  0
    0.2078    1.0100   -0.8530 C   0  0  0  0  0  0  0  0  0  0  0  0
    0.1961    0.8858   -2.0781 O   0  0  0  0  0  0  0  0  0  0  0  0
    0.1597    2.2060   -0.2550 N   0  0  0  0  0  0  0  0  0  0  0  0
    0.2378    2.2241    0.7516 H   0  0  0  0  0  0  0  0  0  0  0  0
    0.0888    3.4815   -0.9656 C   0  0  0  0  0  0  0  0  0  0  0  0
   -0.7090    3.4456   -1.7109 H   0  0  0  0  0  0  0  0  0  0  0  0
   -0.1105    4.2931   -0.2648 H   0  0  0  0  0  0  0  0  0  0  0  0
    1.0347    3.6696   -1.4764 H   0  0  0  0  0  0  0  0  0  0  0  0
  5  6  2  0  0  0  0
  5  7  1  0  0  0  0
  2  3  1  0  0  0  0
  2  4  1  0  0  0  0
  2  5  1  0  0  0  0
  1  2  1  0  0  0  0
 16 17  2  0  0  0  0
 16 18  1  0  0  0  0
 14 15  1  0  0  0  0
 11 12  1  0  0  0  0
 11 13  1  0  0  0  0
 11 14  1  0  0  0  0
  9 10  1  0  0  0  0
  9 11  1  0  0  0  0
  9 16  1  0  0  0  0
  7  8  1  0  0  0  0
  7  9  1  0  0  0  0
 20 21  1  0  0  0  0
 20 22  1  0  0  0  0
 20 23  1  0  0  0  0
 18 19  1  0  0  0  0
 18 20  1  0  0  0  0
M  END
$$$$
default_name
  -OEChem-01062215323D

 23 22  0     1  0  0  0  0  0999 V2000
   -2.6857   -3.6684    0.8743 H   0  0  0  0  0  0  0  0  0  0  0  0
   -2.6617   -2.6474    0.4953 C   0  0  0  0  0  0  0  0  0  0  0  0
   -3.2657   -2.0054    1.1353 H   0  0  0  0  0  0  0  0  0  0  0  0
   -3.0477   -2.6254   -0.5217 H   0  0  0  0  0  0  0  0  0  0  0  0
   -1.2337   -2.1564    0.4993 C   0  0  0  0  0  0  0  0  0  0  0  0
   -0.3327   -2.8864    0.8893 O   0  0  0  0  0  0  0  0  0  0  0  0
   -1.0277   -0.9164    0.0623 N   0  0  0  0  0  0  0  0  0  0  0  0
   -1.8237   -0.3604   -0.2157 H   0  0  0  0  0  0  0  0  0  0  0  0
    0.2713   -0.2414    0.0463 C   0  0  1  0  0  0  0  0  0  0  0  0
    0.5108    0.0833    1.0608 H   0  0  0  0  0  0  0  0  0  0  0  0
    1.3401   -1.2499   -0.4062 C   0  0  0  0  0  0  0  0  0  0  0  0
    1.0380   -1.6783   -1.3645 H   0  0  0  0  0  0  0  0  0  0  0  0
    2.2942   -0.7353   -0.5367 H   0  0  0  0  0  0  0  0  0  0  0  0
    1.5249   -2.5968    0.7992 S   0  0  0  0  0  0  0  0  0  0  0  0
    2.3917   -3.3329    0.0932 H   0  0  0  0  0  0  0  0  0  0  0  0
    0.2078    1.0100   -0.8530 C   0  0  0  0  0  0  0  0  0  0  0  0
   -0.0804    0.8957   -2.0448 O   0  0  0  0  0  0  0  0  0  0  0  0
    0.4666    2.1961   -0.2904 N   0  0  0  0  0  0  0  0  0  0  0  0
    0.7569    2.1966    0.6767 H   0  0  0  0  0  0  0  0  0  0  0  0
    0.4393    3.4714   -1.0043 C   0  0  0  0  0  0  0  0  0  0  0  0
   -0.4939    3.5613   -1.5650 H   0  0  0  0  0  0  0  0  0  0  0  0
    0.5160    4.3000   -0.2993 H   0  0  0  0  0  0  0  0  0  0  0  0
    1.2735    3.5163   -1.7066 H   0  0  0  0  0  0  0  0  0  0  0  0
  5  6  2  0  0  0  0
  5  7  1  0  0  0  0
  2  3  1  0  0  0  0
  2  4  1  0  0  0  0
  2  5  1  0  0  0  0
  1  2  1  0  0  0  0
 16 17  2  0  0  0  0
 16 18  1  0  0  0  0
 14 15  1  0  0  0  0
 11 12  1  0  0  0  0
 11 13  1  0  0  0  0
 11 14  1  0  0  0  0
  9 10  1  0  0  0  0
  9 11  1  0  0  0  0
  9 16  1  0  0  0  0
  7  8  1  0  0  0  0
  7  9  1  0  0  0  0
 20 21  1  0  0  0  0
 20 22  1  0  0  0  0
 20 23  1  0  0  0  0
 18 19  1  0  0  0  0
 18 20  1  0  0  0  0
M  END
$$$$
default_name
  -OEChem-01062215323D

 23 22  0     1  0  0  0  0  0999 V2000
   -2.6857   -3.6684    0.8743 H   0  0  0  0  0  0  0  0  0  0  0  0
   -2.6617   -2.6474    0.4953 C   0  0  0  0  0  0  0  0  0  0  0  0
   -3.2657   -2.0054    1.1353 H   0  0  0  0  0  0  0  0  0  0  0  0
   -3.0477   -2.6254   -0.5217 H   0  0  0  0  0  0  0  0  0  0  0  0
   -1.2337   -2.1564    0.4993 C   0  0  0  0  0  0  0  0  0  0  0  0
   -0.3327   -2.8864    0.8893 O   0  0  0  0  0  0  0  0  0  0  0  0
   -1.0277   -0.9164    0.0623 N   0  0  0  0  0  0  0  0  0  0  0  0
   -1.8237   -0.3604   -0.2157 H   0  0  0  0  0  0  0  0  0  0  0  0
    0.2713   -0.2414    0.0463 C   0  0  1  0  0  0  0  0  0  0  0  0
    0.5108    0.0833    1.0608 H   0  0  0  0  0  0  0  0  0  0  0  0
    1.3401   -1.2499   -0.4062 C   0  0  0  0  0  0  0  0  0  0  0  0
    1.0380   -1.6783   -1.3645 H   0  0  0  0  0  0  0  0  0  0  0  0
    2.2942   -0.7353   -0.5367 H   0  0  0  0  0  0  0  0  0  0  0  0
    1.5249   -2.5968    0.7992 S   0  0  0  0  0  0  0  0  0  0  0  0
    2.3917   -3.3329    0.0932 H   0  0  0  0  0  0  0  0  0  0  0  0
    0.2078    1.0100   -0.8530 C   0  0  0  0  0  0  0  0  0  0  0  0
   -0.3389    0.9474   -1.9546 O   0  0  0  0  0  0  0  0  0  0  0  0
    0.7540    2.1399   -0.3889 N   0  0  0  0  0  0  0  0  0  0  0  0
    1.2385    2.0910    0.4957 H   0  0  0  0  0  0  0  0  0  0  0  0
    0.7682    3.4084   -1.1152 C   0  0  0  0  0  0  0  0  0  0  0  0
   -0.2380    3.6422   -1.4705 H   0  0  0  0  0  0  0  0  0  0  0  0
    1.1150    4.2118   -0.4643 H   0  0  0  0  0  0  0  0  0  0  0  0
    1.4326    3.3297   -1.9774 H   0  0  0  0  0  0  0  0  0  0  0  0
  5  6  2  0  0  0  0
  5  7  1  0  0  0  0
  2  3  1  0  0  0  0
  2  4  1  0  0  0  0
  2  5  1  0  0  0  0
  1  2  1  0  0  0  0
 16 17  2  0  0  0  0
 16 18  1  0  0  0  0
 14 15  1  0  0  0  0
 11 12  1  0  0  0  0
 11 13  1  0  0  0  0
 11 14  1  0  0  0  0
  9 10  1  0  0  0  0
  9 11  1  0  0  0  0
  9 16  1  0  0  0  0
  7  8  1  0  0  0  0
  7  9  1  0  0  0  0
 20 21  1  0  0  0  0
 20 22  1  0  0  0  0
 20 23  1  0  0  0  0
 18 19  1  0  0  0  0
 18 20  1  0  0  0  0
M  END
$$$$
default_name
  -OEChem-01062215323D

 23 22  0     1  0  0  0  0  0999 V2000
   -2.6857   -3.6684    0.8743 H   0  0  0  0  0  0  0  0  0  0  0  0
   -2.6617   -2.6474    0.4953 C   0  0  0  0  0  0  0  0  0  0  0  0
   -3.2657   -2.0054    1.1353 H   0  0  0  0  0  0  0  0  0  0  0  0
   -3.0477   -2.6254   -0.5217 H   0  0  0  0  0  0  0  0  0  0  0  0
   -1.2337   -2.1564    0.4993 C   0  0  0  0  0  0  0  0  0  0  0  0
   -0.3327   -2.8864    0.8893 O   0  0  0  0  0  0  0  0  0  0  0  0
   -1.0277   -0.9164    0.0623 N   0  0  0  0  0  0  0  0  0  0  0  0
   -1.8237   -0.3604   -0.2157 H   0  0  0  0  0  0  0  0  0  0  0  0
    0.2713   -0.2414    0.0463 C   0  0  1  0  0  0  0  0  0  0  0  0
    0.5108    0.0833    1.0608 H   0  0  0  0  0  0  0  0  0  0  0  0
    1.3401   -1.2499   -0.4062 C   0  0  0  0  0  0  0  0  0  0  0  0
    1.0380   -1.6783   -1.3645 H   0  0  0  0  0  0  0  0  0  0  0  0
    2.2942   -0.7353   -0.5367 H   0  0  0  0  0  0  0  0  0  0  0  0
    1.5249   -2.5968    0.7992 S   0  0  0  0  0  0  0  0  0  0  0  0
    2.3917   -3.3329    0.0932 H   0  0  0  0  0  0  0  0  0  0  0  0
    0.2078    1.0100   -0.8530 C   0  0  0  0  0  0  0  0  0  0  0  0
   -0.5620    1.0373   -1.8138 O   0  0  0  0  0  0  0  0  0  0  0  0
    1.0025    2.0412   -0.5439 N   0  0  0  0  0  0  0  0  0  0  0  0
    1.6496    1.9143    0.2208 H   0  0  0  0  0  0  0  0  0  0  0  0
    1.0530    3.2967   -1.2908 C   0  0  0  0  0  0  0  0  0  0  0  0
    0.0412    3.6827   -1.4339 H   0  0  0  0  0  0  0  0  0  0  0  0
    1.6456    4.0345   -0.7486 H   0  0  0  0  0  0  0  0  0  0  0  0
    1.5013    3.1227   -2.2704 H   0  0  0  0  0  0  0  0  0  0  0  0
  5  6  2  0  0  0  0
  5  7  1  0  0  0  0
  2  3  1  0  0  0  0
  2  4  1  0  0  0  0
  2  5  1  0  0  0  0
  1  2  1  0  0  0  0
 16 17  2  0  0  0  0
 16 18  1  0  0  0  0
 14 15  1  0  0  0  0
 11 12  1  0  0  0  0
 11 13  1  0  0  0  0
 11 14  1  0  0  0  0
  9 10  1  0  0  0  0
  9 11  1  0  0  0  0
  9 16  1  0  0  0  0
  7  8  1  0  0  0  0
  7  9  1  0  0  0  0
 20 21  1  0  0  0  0
 20 22  1  0  0  0  0
 20 23  1  0  0  0  0
 18 19  1  0  0  0  0
 18 20  1  0  0  0  0
M  END
$$$$
default_name
  -OEChem-01062215323D

 23 22  0     1  0  0  0  0  0999 V2000
   -2.6857   -3.6684    0.8743 H   0  0  0  0  0  0  0  0  0  0  0  0
   -2.6617   -2.6474    0.4953 C   0  0  0  0  0  0  0  0  0  0  0  0
   -3.2657   -2.0054    1.1353 H   0  0  0  0  0  0  0  0  0  0  0  0
   -3.0477   -2.6254   -0.5217 H   0  0  0  0  0  0  0  0  0  0  0  0
   -1.2337   -2.1564    0.4993 C   0  0  0  0  0  0  0  0  0  0  0  0
   -0.3327   -2.8864    0.8893 O   0  0  0  0  0  0  0  0  0  0  0  0
   -1.0277   -0.9164    0.0623 N   0  0  0  0  0  0  0  0  0  0  0  0
   -1.8237   -0.3604   -0.2157 H   0  0  0  0  0  0  0  0  0  0  0  0
    0.2713   -0.2414    0.0463 C   0  0  1  0  0  0  0  0  0  0  0  0
    0.5108    0.0833    1.0608 H   0  0  0  0  0  0  0  0  0  0  0  0
    1.3401   -1.2499   -0.4062 C   0  0  0  0  0  0  0  0  0  0  0  0
    1.0380   -1.6783   -1.3645 H   0  0  0  0  0  0  0  0  0  0  0  0
    2.2942   -0.7353   -0.5367 H   0  0  0  0  0  0  0  0  0  0  0  0
    1.5249   -2.5968    0.7992 S   0  0  0  0  0  0  0  0  0  0  0  0
    2.3917   -3.3329    0.0932 H   0  0  0  0  0  0  0  0  0  0  0  0
    0.2078    1.0100   -0.8530 C   0  0  0  0  0  0  0  0  0  0  0  0
   -0.7342    1.1592   -1.6319 O   0  0  0  0  0  0  0  0  0  0  0  0
    1.1951    1.9067   -0.7447 N   0  0  0  0  0  0  0  0  0  0  0  0
    1.9624    1.6787   -0.1291 H   0  0  0  0  0  0  0  0  0  0  0  0
    1.2745    3.1440   -1.5190 C   0  0  0  0  0  0  0  0  0  0  0  0
    0.3247    3.6801   -1.4575 H   0  0  0  0  0  0  0  0  0  0  0  0
    2.0717    3.7801   -1.1327 H   0  0  0  0  0  0  0  0  0  0  0  0
    1.4749    2.9091   -2.5657 H   0  0  0  0  0  0  0  0  0  0  0  0
  5  6  2  0  0  0  0
  5  7  1  0  0  0  0
  2  3  1  0  0  0  0
  2  4  1  0  0  0  0
  2  5  1  0  0  0  0
  1  2  1  0  0  0  0
 16 17  2  0  0  0  0
 16 18  1  0  0  0  0
 14 15  1  0  0  0  0
 11 12  1  0  0  0  0
 11 13  1  0  0  0  0
 11 14  1  0  0  0  0
  9 10  1  0  0  0  0
  9 11  1  0  0  0  0
  9 16  1  0  0  0  0
  7  8  1  0  0  0  0
  7  9  1  0  0  0  0
 20 21  1  0  0  0  0
 20 22  1  0  0  0  0
 20 23  1  0  0  0  0
 18 19  1  0  0  0  0
 18 20  1  0  0  0  0
M  END
$$$$
