@<TRIPOS>MOLECULE
default_name
   22    21     1     0     0
SMALL
No Charge or Current Charge


@<TRIPOS>ATOM
      1 H1          25.7770    25.1430    24.3160 H          1 ACE       0.112300
      2 CH3         25.8930    26.1790    24.0070 C.3        1 ACE      -0.366200
      3 H2          25.2550    26.8260    24.6040 H          1 ACE       0.112300
      4 H3          25.6510    26.2870    22.9520 H          1 ACE       0.112300
      5 C           27.3310    26.5930    24.2140 C.2        1 ACE       0.597200
      6 O           28.1310    25.7820    24.6690 O.2        1 ACE      -0.567900
      7 N           27.6110    27.8510    23.8860 N.am       2 CGL      -0.567900
      8 H           26.8620    28.4560    23.5820 H          2 CGL      -0.567900
      9 CA          28.9010    28.5560    23.9710 C.3        2 CGL      -0.567900
     10 HA          29.4940    28.1490    24.7870 H          2 CGL      -0.567900
     11 CB          29.6740    28.3510    22.6460 C.3        2 CGL      -0.567900
     12 HB2         29.7680    27.2760    22.4770 H          2 CGL      -0.567900
     13 HB3         29.0930    28.7730    21.8250 H          2 CGL      -0.567900
     14 CG          31.0910    28.9590    22.6210 C.3        2 CGL      -0.567900
     15 HG2         31.0110    30.0490    22.6100 H          2 CGL      -0.567900
     16 HG3         31.6010    28.6700    23.5450 H          2 CGL      -0.567900
     17 CD          31.9440    28.5000    21.4130 C.2        2 CGL      -0.567900
     18 OE1         31.3810    28.2510    20.3180 O.co2      2 CGL      -0.567900
     19 OE2         33.1870    28.4100    21.5740 O.co2      2 CGL      -0.567900
     20 C           28.6470    30.0380    24.3110 C.2        2 CGL      -0.567900
     21 O           27.6200    30.5670    23.8160 O.co2      2 CGL      -0.567900
     22 OXT         29.4030    30.5840    25.1430 O.co2      2 CGL      -0.567900
@<TRIPOS>BOND
     1     5     6 2   
     2     5     7 am  
     3     2     3 1   
     4     2     4 1   
     5     2     5 1   
     6     1     2 1   
     7    20    21 1   
     8    20    22 1   
     9    17    18 1   
    10    17    19 1   
    11    14    15 1   
    12    14    16 1   
    13    14    17 1   
    14    11    12 1   
    15    11    13 1   
    16    11    14 1   
    17     9    10 1   
    18     9    11 1   
    19     9    20 1   
    20     7     8 1   
    21     7     9 1   
@<TRIPOS>SUBSTRUCTURE
     1 ACE         1 TEMP              0 ****  ****    0 ROOT
