default_name
  -OEChem-01062215323D

 29 29  0     1  0  0  0  0  0999 V2000
   -2.9561   -3.9186    1.3887 H   0  0  0  0  0  0  0  0  0  0  0  0
   -3.1191   -2.9346    0.9517 C   0  0  0  0  0  0  0  0  0  0  0  0
   -3.7811   -2.3546    1.5917 H   0  0  0  0  0  0  0  0  0  0  0  0
   -3.5591   -3.0406   -0.0383 H   0  0  0  0  0  0  0  0  0  0  0  0
   -1.7921   -2.2226    0.8327 C   0  0  0  0  0  0  0  0  0  0  0  0
   -0.7611   -2.7766    1.1927 O   0  0  0  0  0  0  0  0  0  0  0  0
   -1.8201   -0.9926    0.3247 N   0  0  0  0  0  0  0  0  0  0  0  0
   -2.7141   -0.5816    0.0927 H   0  0  0  0  0  0  0  0  0  0  0  0
   -0.6481   -0.1156    0.2017 C   0  0  1  0  0  0  0  0  0  0  0  0
   -0.2703    0.0905    1.2051 H   0  0  0  0  0  0  0  0  0  0  0  0
    0.4594   -0.8359   -0.5917 C   0  0  0  0  0  0  0  0  0  0  0  0
    0.0709   -1.1574   -1.5592 H   0  0  0  0  0  0  0  0  0  0  0  0
    1.2844   -0.1479   -0.7814 H   0  0  0  0  0  0  0  0  0  0  0  0
    0.9814   -2.0644    0.1128 C   0  0  0  0  0  0  0  0  0  0  0  0
    1.8341   -2.0729    1.2175 N   0  0  0  0  0  0  0  0  0  0  0  0
    2.0014   -3.3625    1.5449 C   0  0  0  0  0  0  0  0  0  0  0  0
    2.6224   -3.7120    2.3600 H   0  0  0  0  0  0  0  0  0  0  0  0
    1.2845   -4.1513    0.7268 N   0  0  0  0  0  0  0  0  0  0  0  0
    1.2300   -5.1591    0.7833 H   0  0  0  0  0  0  0  0  0  0  0  0
    0.6304   -3.3493   -0.1819 C   0  0  0  0  0  0  0  0  0  0  0  0
   -0.0486   -3.6574   -0.9670 H   0  0  0  0  0  0  0  0  0  0  0  0
   -1.0414    1.2327   -0.4279 C   0  0  0  0  0  0  0  0  0  0  0  0
   -2.2122    1.4480   -0.7415 O   0  0  0  0  0  0  0  0  0  0  0  0
   -0.0754    2.1397   -0.6045 N   0  0  0  0  0  0  0  0  0  0  0  0
    0.8753    1.8409   -0.4177 H   0  0  0  0  0  0  0  0  0  0  0  0
   -0.2749    3.4706   -1.1731 C   0  0  0  0  0  0  0  0  0  0  0  0
   -1.2445    3.8695   -0.8640 H   0  0  0  0  0  0  0  0  0  0  0  0
    0.5132    4.1424   -0.8302 H   0  0  0  0  0  0  0  0  0  0  0  0
   -0.2500    3.4099   -2.2624 H   0  0  0  0  0  0  0  0  0  0  0  0
  5  6  2  0  0  0  0
  5  7  1  0  0  0  0
  2  3  1  0  0  0  0
  2  4  1  0  0  0  0
  2  5  1  0  0  0  0
  1  2  1  0  0  0  0
 22 23  2  0  0  0  0
 22 24  1  0  0  0  0
 20 21  1  0  0  0  0
 18 19  1  0  0  0  0
 18 20  1  0  0  0  0
 16 17  1  0  0  0  0
 16 18  1  0  0  0  0
 15 16  2  0  0  0  0
 14 15  1  0  0  0  0
 14 20  2  0  0  0  0
 11 12  1  0  0  0  0
 11 13  1  0  0  0  0
 11 14  1  0  0  0  0
  9 10  1  0  0  0  0
  9 11  1  0  0  0  0
  9 22  1  0  0  0  0
  7  8  1  0  0  0  0
  7  9  1  0  0  0  0
 26 27  1  0  0  0  0
 26 28  1  0  0  0  0
 26 29  1  0  0  0  0
 24 25  1  0  0  0  0
 24 26  1  0  0  0  0
M  END
$$$$
default_name
  -OEChem-01062215323D

 29 29  0     1  0  0  0  0  0999 V2000
   -2.9561   -3.9186    1.3887 H   0  0  0  0  0  0  0  0  0  0  0  0
   -3.1191   -2.9346    0.9517 C   0  0  0  0  0  0  0  0  0  0  0  0
   -3.7811   -2.3546    1.5917 H   0  0  0  0  0  0  0  0  0  0  0  0
   -3.5591   -3.0406   -0.0383 H   0  0  0  0  0  0  0  0  0  0  0  0
   -1.7921   -2.2226    0.8327 C   0  0  0  0  0  0  0  0  0  0  0  0
   -0.7611   -2.7766    1.1927 O   0  0  0  0  0  0  0  0  0  0  0  0
   -1.8201   -0.9926    0.3247 N   0  0  0  0  0  0  0  0  0  0  0  0
   -2.7141   -0.5816    0.0927 H   0  0  0  0  0  0  0  0  0  0  0  0
   -0.6481   -0.1156    0.2017 C   0  0  1  0  0  0  0  0  0  0  0  0
   -0.2703    0.0905    1.2051 H   0  0  0  0  0  0  0  0  0  0  0  0
    0.4594   -0.8359   -0.5917 C   0  0  0  0  0  0  0  0  0  0  0  0
    0.0709   -1.1574   -1.5592 H   0  0  0  0  0  0  0  0  0  0  0  0
    1.2844   -0.1479   -0.7814 H   0  0  0  0  0  0  0  0  0  0  0  0
    0.9814   -2.0644    0.1128 C   0  0  0  0  0  0  0  0  0  0  0  0
    1.8341   -2.0729    1.2175 N   0  0  0  0  0  0  0  0  0  0  0  0
    2.0014   -3.3625    1.5449 C   0  0  0  0  0  0  0  0  0  0  0  0
    2.6224   -3.7120    2.3600 H   0  0  0  0  0  0  0  0  0  0  0  0
    1.2845   -4.1513    0.7268 N   0  0  0  0  0  0  0  0  0  0  0  0
    1.2300   -5.1591    0.7833 H   0  0  0  0  0  0  0  0  0  0  0  0
    0.6304   -3.3493   -0.1819 C   0  0  0  0  0  0  0  0  0  0  0  0
   -0.0486   -3.6574   -0.9670 H   0  0  0  0  0  0  0  0  0  0  0  0
   -1.0414    1.2327   -0.4279 C   0  0  0  0  0  0  0  0  0  0  0  0
   -2.2259    1.5623   -0.4882 O   0  0  0  0  0  0  0  0  0  0  0  0
   -0.0577    2.0133   -0.8861 N   0  0  0  0  0  0  0  0  0  0  0  0
    0.8764    1.6191   -0.8934 H   0  0  0  0  0  0  0  0  0  0  0  0
   -0.2511    3.3257   -1.4983 C   0  0  0  0  0  0  0  0  0  0  0  0
   -1.0794    3.8481   -1.0129 H   0  0  0  0  0  0  0  0  0  0  0  0
    0.6569    3.9212   -1.3936 H   0  0  0  0  0  0  0  0  0  0  0  0
   -0.4838    3.2040   -2.5575 H   0  0  0  0  0  0  0  0  0  0  0  0
  5  6  2  0  0  0  0
  5  7  1  0  0  0  0
  2  3  1  0  0  0  0
  2  4  1  0  0  0  0
  2  5  1  0  0  0  0
  1  2  1  0  0  0  0
 22 23  2  0  0  0  0
 22 24  1  0  0  0  0
 20 21  1  0  0  0  0
 18 19  1  0  0  0  0
 18 20  1  0  0  0  0
 16 17  1  0  0  0  0
 16 18  1  0  0  0  0
 15 16  2  0  0  0  0
 14 15  1  0  0  0  0
 14 20  2  0  0  0  0
 11 12  1  0  0  0  0
 11 13  1  0  0  0  0
 11 14  1  0  0  0  0
  9 10  1  0  0  0  0
  9 11  1  0  0  0  0
  9 22  1  0  0  0  0
  7  8  1  0  0  0  0
  7  9  1  0  0  0  0
 26 27  1  0  0  0  0
 26 28  1  0  0  0  0
 26 29  1  0  0  0  0
 24 25  1  0  0  0  0
 24 26  1  0  0  0  0
M  END
$$$$
default_name
  -OEChem-01062215323D

 29 29  0     1  0  0  0  0  0999 V2000
   -2.9561   -3.9186    1.3887 H   0  0  0  0  0  0  0  0  0  0  0  0
   -3.1191   -2.9346    0.9517 C   0  0  0  0  0  0  0  0  0  0  0  0
   -3.7811   -2.3546    1.5917 H   0  0  0  0  0  0  0  0  0  0  0  0
   -3.5591   -3.0406   -0.0383 H   0  0  0  0  0  0  0  0  0  0  0  0
   -1.7921   -2.2226    0.8327 C   0  0  0  0  0  0  0  0  0  0  0  0
   -0.7611   -2.7766    1.1927 O   0  0  0  0  0  0  0  0  0  0  0  0
   -1.8201   -0.9926    0.3247 N   0  0  0  0  0  0  0  0  0  0  0  0
   -2.7141   -0.5816    0.0927 H   0  0  0  0  0  0  0  0  0  0  0  0
   -0.6481   -0.1156    0.2017 C   0  0  1  0  0  0  0  0  0  0  0  0
   -0.2703    0.0905    1.2051 H   0  0  0  0  0  0  0  0  0  0  0  0
    0.4594   -0.8359   -0.5917 C   0  0  0  0  0  0  0  0  0  0  0  0
    0.0709   -1.1574   -1.5592 H   0  0  0  0  0  0  0  0  0  0  0  0
    1.2844   -0.1479   -0.7814 H   0  0  0  0  0  0  0  0  0  0  0  0
    0.9814   -2.0644    0.1128 C   0  0  0  0  0  0  0  0  0  0  0  0
    1.8341   -2.0729    1.2175 N   0  0  0  0  0  0  0  0  0  0  0  0
    2.0014   -3.3625    1.5449 C   0  0  0  0  0  0  0  0  0  0  0  0
    2.6224   -3.7120    2.3600 H   0  0  0  0  0  0  0  0  0  0  0  0
    1.2845   -4.1513    0.7268 N   0  0  0  0  0  0  0  0  0  0  0  0
    1.2300   -5.1591    0.7833 H   0  0  0  0  0  0  0  0  0  0  0  0
    0.6304   -3.3493   -0.1819 C   0  0  0  0  0  0  0  0  0  0  0  0
   -0.0486   -3.6574   -0.9670 H   0  0  0  0  0  0  0  0  0  0  0  0
   -1.0414    1.2327   -0.4279 C   0  0  0  0  0  0  0  0  0  0  0  0
   -2.1697    1.6909   -0.2480 O   0  0  0  0  0  0  0  0  0  0  0  0
   -0.1179    1.8708   -1.1538 N   0  0  0  0  0  0  0  0  0  0  0  0
    0.7461    1.3733   -1.3384 H   0  0  0  0  0  0  0  0  0  0  0  0
   -0.3171    3.1617   -1.8083 C   0  0  0  0  0  0  0  0  0  0  0  0
   -0.9559    3.8002   -1.1927 H   0  0  0  0  0  0  0  0  0  0  0  0
    0.6446    3.6551   -1.9558 H   0  0  0  0  0  0  0  0  0  0  0  0
   -0.7983    3.0102   -2.7759 H   0  0  0  0  0  0  0  0  0  0  0  0
  5  6  2  0  0  0  0
  5  7  1  0  0  0  0
  2  3  1  0  0  0  0
  2  4  1  0  0  0  0
  2  5  1  0  0  0  0
  1  2  1  0  0  0  0
 22 23  2  0  0  0  0
 22 24  1  0  0  0  0
 20 21  1  0  0  0  0
 18 19  1  0  0  0  0
 18 20  1  0  0  0  0
 16 17  1  0  0  0  0
 16 18  1  0  0  0  0
 15 16  2  0  0  0  0
 14 15  1  0  0  0  0
 14 20  2  0  0  0  0
 11 12  1  0  0  0  0
 11 13  1  0  0  0  0
 11 14  1  0  0  0  0
  9 10  1  0  0  0  0
  9 11  1  0  0  0  0
  9 22  1  0  0  0  0
  7  8  1  0  0  0  0
  7  9  1  0  0  0  0
 26 27  1  0  0  0  0
 26 28  1  0  0  0  0
 26 29  1  0  0  0  0
 24 25  1  0  0  0  0
 24 26  1  0  0  0  0
M  END
$$$$
default_name
  -OEChem-01062215323D

 29 29  0     1  0  0  0  0  0999 V2000
   -2.9561   -3.9186    1.3887 H   0  0  0  0  0  0  0  0  0  0  0  0
   -3.1191   -2.9346    0.9517 C   0  0  0  0  0  0  0  0  0  0  0  0
   -3.7811   -2.3546    1.5917 H   0  0  0  0  0  0  0  0  0  0  0  0
   -3.5591   -3.0406   -0.0383 H   0  0  0  0  0  0  0  0  0  0  0  0
   -1.7921   -2.2226    0.8327 C   0  0  0  0  0  0  0  0  0  0  0  0
   -0.7611   -2.7766    1.1927 O   0  0  0  0  0  0  0  0  0  0  0  0
   -1.8201   -0.9926    0.3247 N   0  0  0  0  0  0  0  0  0  0  0  0
   -2.7141   -0.5816    0.0927 H   0  0  0  0  0  0  0  0  0  0  0  0
   -0.6481   -0.1156    0.2017 C   0  0  1  0  0  0  0  0  0  0  0  0
   -0.2703    0.0905    1.2051 H   0  0  0  0  0  0  0  0  0  0  0  0
    0.4594   -0.8359   -0.5917 C   0  0  0  0  0  0  0  0  0  0  0  0
    0.0709   -1.1574   -1.5592 H   0  0  0  0  0  0  0  0  0  0  0  0
    1.2844   -0.1479   -0.7814 H   0  0  0  0  0  0  0  0  0  0  0  0
    0.9814   -2.0644    0.1128 C   0  0  0  0  0  0  0  0  0  0  0  0
    1.8341   -2.0729    1.2175 N   0  0  0  0  0  0  0  0  0  0  0  0
    2.0014   -3.3625    1.5449 C   0  0  0  0  0  0  0  0  0  0  0  0
    2.6224   -3.7120    2.3600 H   0  0  0  0  0  0  0  0  0  0  0  0
    1.2845   -4.1513    0.7268 N   0  0  0  0  0  0  0  0  0  0  0  0
    1.2300   -5.1591    0.7833 H   0  0  0  0  0  0  0  0  0  0  0  0
    0.6304   -3.3493   -0.1819 C   0  0  0  0  0  0  0  0  0  0  0  0
   -0.0486   -3.6574   -0.9670 H   0  0  0  0  0  0  0  0  0  0  0  0
   -1.0414    1.2327   -0.4279 C   0  0  0  0  0  0  0  0  0  0  0  0
   -2.0473    1.8250   -0.0372 O   0  0  0  0  0  0  0  0  0  0  0  0
   -0.2518    1.7218   -1.3893 N   0  0  0  0  0  0  0  0  0  0  0  0
    0.4933    1.1202   -1.7225 H   0  0  0  0  0  0  0  0  0  0  0  0
   -0.4685    2.9898   -2.0819 C   0  0  0  0  0  0  0  0  0  0  0  0
   -0.8825    3.7289   -1.3912 H   0  0  0  0  0  0  0  0  0  0  0  0
    0.4770    3.3621   -2.4785 H   0  0  0  0  0  0  0  0  0  0  0  0
   -1.1721    2.8419   -2.9028 H   0  0  0  0  0  0  0  0  0  0  0  0
  5  6  2  0  0  0  0
  5  7  1  0  0  0  0
  2  3  1  0  0  0  0
  2  4  1  0  0  0  0
  2  5  1  0  0  0  0
  1  2  1  0  0  0  0
 22 23  2  0  0  0  0
 22 24  1  0  0  0  0
 20 21  1  0  0  0  0
 18 19  1  0  0  0  0
 18 20  1  0  0  0  0
 16 17  1  0  0  0  0
 16 18  1  0  0  0  0
 15 16  2  0  0  0  0
 14 15  1  0  0  0  0
 14 20  2  0  0  0  0
 11 12  1  0  0  0  0
 11 13  1  0  0  0  0
 11 14  1  0  0  0  0
  9 10  1  0  0  0  0
  9 11  1  0  0  0  0
  9 22  1  0  0  0  0
  7  8  1  0  0  0  0
  7  9  1  0  0  0  0
 26 27  1  0  0  0  0
 26 28  1  0  0  0  0
 26 29  1  0  0  0  0
 24 25  1  0  0  0  0
 24 26  1  0  0  0  0
M  END
$$$$
default_name
  -OEChem-01062215323D

 29 29  0     1  0  0  0  0  0999 V2000
   -2.9561   -3.9186    1.3887 H   0  0  0  0  0  0  0  0  0  0  0  0
   -3.1191   -2.9346    0.9517 C   0  0  0  0  0  0  0  0  0  0  0  0
   -3.7811   -2.3546    1.5917 H   0  0  0  0  0  0  0  0  0  0  0  0
   -3.5591   -3.0406   -0.0383 H   0  0  0  0  0  0  0  0  0  0  0  0
   -1.7921   -2.2226    0.8327 C   0  0  0  0  0  0  0  0  0  0  0  0
   -0.7611   -2.7766    1.1927 O   0  0  0  0  0  0  0  0  0  0  0  0
   -1.8201   -0.9926    0.3247 N   0  0  0  0  0  0  0  0  0  0  0  0
   -2.7141   -0.5816    0.0927 H   0  0  0  0  0  0  0  0  0  0  0  0
   -0.6481   -0.1156    0.2017 C   0  0  1  0  0  0  0  0  0  0  0  0
   -0.2703    0.0905    1.2051 H   0  0  0  0  0  0  0  0  0  0  0  0
    0.4594   -0.8359   -0.5917 C   0  0  0  0  0  0  0  0  0  0  0  0
    0.0709   -1.1574   -1.5592 H   0  0  0  0  0  0  0  0  0  0  0  0
    1.2844   -0.1479   -0.7814 H   0  0  0  0  0  0  0  0  0  0  0  0
    0.9814   -2.0644    0.1128 C   0  0  0  0  0  0  0  0  0  0  0  0
    1.8341   -2.0729    1.2175 N   0  0  0  0  0  0  0  0  0  0  0  0
    2.0014   -3.3625    1.5449 C   0  0  0  0  0  0  0  0  0  0  0  0
    2.6224   -3.7120    2.3600 H   0  0  0  0  0  0  0  0  0  0  0  0
    1.2845   -4.1513    0.7268 N   0  0  0  0  0  0  0  0  0  0  0  0
    1.2300   -5.1591    0.7833 H   0  0  0  0  0  0  0  0  0  0  0  0
    0.6304   -3.3493   -0.1819 C   0  0  0  0  0  0  0  0  0  0  0  0
   -0.0486   -3.6574   -0.9670 H   0  0  0  0  0  0  0  0  0  0  0  0
   -1.0414    1.2327   -0.4279 C   0  0  0  0  0  0  0  0  0  0  0  0
   -1.8671    1.9556    0.1298 O   0  0  0  0  0  0  0  0  0  0  0  0
   -0.4502    1.5764   -1.5765 N   0  0  0  0  0  0  0  0  0  0  0  0
    0.1352    0.8771   -2.0194 H   0  0  0  0  0  0  0  0  0  0  0  0
   -0.6951    2.8216   -2.3004 C   0  0  0  0  0  0  0  0  0  0  0  0
   -0.8641    3.6391   -1.5948 H   0  0  0  0  0  0  0  0  0  0  0  0
    0.1657    3.0623   -2.9260 H   0  0  0  0  0  0  0  0  0  0  0  0
   -1.5798    2.7106   -2.9295 H   0  0  0  0  0  0  0  0  0  0  0  0
  5  6  2  0  0  0  0
  5  7  1  0  0  0  0
  2  3  1  0  0  0  0
  2  4  1  0  0  0  0
  2  5  1  0  0  0  0
  1  2  1  0  0  0  0
 22 23  2  0  0  0  0
 22 24  1  0  0  0  0
 20 21  1  0  0  0  0
 18 19  1  0  0  0  0
 18 20  1  0  0  0  0
 16 17  1  0  0  0  0
 16 18  1  0  0  0  0
 15 16  2  0  0  0  0
 14 15  1  0  0  0  0
 14 20  2  0  0  0  0
 11 12  1  0  0  0  0
 11 13  1  0  0  0  0
 11 14  1  0  0  0  0
  9 10  1  0  0  0  0
  9 11  1  0  0  0  0
  9 22  1  0  0  0  0
  7  8  1  0  0  0  0
  7  9  1  0  0  0  0
 26 27  1  0  0  0  0
 26 28  1  0  0  0  0
 26 29  1  0  0  0  0
 24 25  1  0  0  0  0
 24 26  1  0  0  0  0
M  END
$$$$
default_name
  -OEChem-01062215323D

 29 29  0     1  0  0  0  0  0999 V2000
   -2.9561   -3.9186    1.3887 H   0  0  0  0  0  0  0  0  0  0  0  0
   -3.1191   -2.9346    0.9517 C   0  0  0  0  0  0  0  0  0  0  0  0
   -3.7811   -2.3546    1.5917 H   0  0  0  0  0  0  0  0  0  0  0  0
   -3.5591   -3.0406   -0.0383 H   0  0  0  0  0  0  0  0  0  0  0  0
   -1.7921   -2.2226    0.8327 C   0  0  0  0  0  0  0  0  0  0  0  0
   -0.7611   -2.7766    1.1927 O   0  0  0  0  0  0  0  0  0  0  0  0
   -1.8201   -0.9926    0.3247 N   0  0  0  0  0  0  0  0  0  0  0  0
   -2.7141   -0.5816    0.0927 H   0  0  0  0  0  0  0  0  0  0  0  0
   -0.6481   -0.1156    0.2017 C   0  0  1  0  0  0  0  0  0  0  0  0
   -0.2703    0.0905    1.2051 H   0  0  0  0  0  0  0  0  0  0  0  0
    0.4594   -0.8359   -0.5917 C   0  0  0  0  0  0  0  0  0  0  0  0
    0.0709   -1.1574   -1.5592 H   0  0  0  0  0  0  0  0  0  0  0  0
    1.2844   -0.1479   -0.7814 H   0  0  0  0  0  0  0  0  0  0  0  0
    0.9814   -2.0644    0.1128 C   0  0  0  0  0  0  0  0  0  0  0  0
    1.8341   -2.0729    1.2175 N   0  0  0  0  0  0  0  0  0  0  0  0
    2.0014   -3.3625    1.5449 C   0  0  0  0  0  0  0  0  0  0  0  0
    2.6224   -3.7120    2.3600 H   0  0  0  0  0  0  0  0  0  0  0  0
    1.2845   -4.1513    0.7268 N   0  0  0  0  0  0  0  0  0  0  0  0
    1.2300   -5.1591    0.7833 H   0  0  0  0  0  0  0  0  0  0  0  0
    0.6304   -3.3493   -0.1819 C   0  0  0  0  0  0  0  0  0  0  0  0
   -0.0486   -3.6574   -0.9670 H   0  0  0  0  0  0  0  0  0  0  0  0
   -1.0414    1.2327   -0.4279 C   0  0  0  0  0  0  0  0  0  0  0  0
   -1.6413    2.0736    0.2417 O   0  0  0  0  0  0  0  0  0  0  0  0
   -0.6998    1.4447   -1.7028 N   0  0  0  0  0  0  0  0  0  0  0  0
   -0.3037    0.6606   -2.2090 H   0  0  0  0  0  0  0  0  0  0  0  0
   -0.9812    2.6688   -2.4491 C   0  0  0  0  0  0  0  0  0  0  0  0
   -0.9021    3.5370   -1.7898 H   0  0  0  0  0  0  0  0  0  0  0  0
   -0.2683    2.7762   -3.2678 H   0  0  0  0  0  0  0  0  0  0  0  0
   -1.9935    2.6251   -2.8541 H   0  0  0  0  0  0  0  0  0  0  0  0
  5  6  2  0  0  0  0
  5  7  1  0  0  0  0
  2  3  1  0  0  0  0
  2  4  1  0  0  0  0
  2  5  1  0  0  0  0
  1  2  1  0  0  0  0
 22 23  2  0  0  0  0
 22 24  1  0  0  0  0
 20 21  1  0  0  0  0
 18 19  1  0  0  0  0
 18 20  1  0  0  0  0
 16 17  1  0  0  0  0
 16 18  1  0  0  0  0
 15 16  2  0  0  0  0
 14 15  1  0  0  0  0
 14 20  2  0  0  0  0
 11 12  1  0  0  0  0
 11 13  1  0  0  0  0
 11 14  1  0  0  0  0
  9 10  1  0  0  0  0
  9 11  1  0  0  0  0
  9 22  1  0  0  0  0
  7  8  1  0  0  0  0
  7  9  1  0  0  0  0
 26 27  1  0  0  0  0
 26 28  1  0  0  0  0
 26 29  1  0  0  0  0
 24 25  1  0  0  0  0
 24 26  1  0  0  0  0
M  END
$$$$
default_name
  -OEChem-01062215323D

 29 29  0     1  0  0  0  0  0999 V2000
   -2.9561   -3.9186    1.3887 H   0  0  0  0  0  0  0  0  0  0  0  0
   -3.1191   -2.9346    0.9517 C   0  0  0  0  0  0  0  0  0  0  0  0
   -3.7811   -2.3546    1.5917 H   0  0  0  0  0  0  0  0  0  0  0  0
   -3.5591   -3.0406   -0.0383 H   0  0  0  0  0  0  0  0  0  0  0  0
   -1.7921   -2.2226    0.8327 C   0  0  0  0  0  0  0  0  0  0  0  0
   -0.7611   -2.7766    1.1927 O   0  0  0  0  0  0  0  0  0  0  0  0
   -1.8201   -0.9926    0.3247 N   0  0  0  0  0  0  0  0  0  0  0  0
   -2.7141   -0.5816    0.0927 H   0  0  0  0  0  0  0  0  0  0  0  0
   -0.6481   -0.1156    0.2017 C   0  0  1  0  0  0  0  0  0  0  0  0
   -0.2703    0.0905    1.2051 H   0  0  0  0  0  0  0  0  0  0  0  0
    0.4594   -0.8359   -0.5917 C   0  0  0  0  0  0  0  0  0  0  0  0
    0.0709   -1.1574   -1.5592 H   0  0  0  0  0  0  0  0  0  0  0  0
    1.2844   -0.1479   -0.7814 H   0  0  0  0  0  0  0  0  0  0  0  0
    0.9814   -2.0644    0.1128 C   0  0  0  0  0  0  0  0  0  0  0  0
    1.8341   -2.0729    1.2175 N   0  0  0  0  0  0  0  0  0  0  0  0
    2.0014   -3.3625    1.5449 C   0  0  0  0  0  0  0  0  0  0  0  0
    2.6224   -3.7120    2.3600 H   0  0  0  0  0  0  0  0  0  0  0  0
    1.2845   -4.1513    0.7268 N   0  0  0  0  0  0  0  0  0  0  0  0
    1.2300   -5.1591    0.7833 H   0  0  0  0  0  0  0  0  0  0  0  0
    0.6304   -3.3493   -0.1819 C   0  0  0  0  0  0  0  0  0  0  0  0
   -0.0486   -3.6574   -0.9670 H   0  0  0  0  0  0  0  0  0  0  0  0
   -1.0414    1.2327   -0.4279 C   0  0  0  0  0  0  0  0  0  0  0  0
   -1.3854    2.1712    0.2907 O   0  0  0  0  0  0  0  0  0  0  0  0
   -0.9834    1.3355   -1.7594 N   0  0  0  0  0  0  0  0  0  0  0  0
   -0.7936    0.4853   -2.2783 H   0  0  0  0  0  0  0  0  0  0  0  0
   -1.3075    2.5416   -2.5177 C   0  0  0  0  0  0  0  0  0  0  0  0
   -0.9938    3.4295   -1.9628 H   0  0  0  0  0  0  0  0  0  0  0  0
   -0.7953    2.5231   -3.4807 H   0  0  0  0  0  0  0  0  0  0  0  0
   -2.3851    2.5913   -2.6819 H   0  0  0  0  0  0  0  0  0  0  0  0
  5  6  2  0  0  0  0
  5  7  1  0  0  0  0
  2  3  1  0  0  0  0
  2  4  1  0  0  0  0
  2  5  1  0  0  0  0
  1  2  1  0  0  0  0
 22 23  2  0  0  0  0
 22 24  1  0  0  0  0
 20 21  1  0  0  0  0
 18 19  1  0  0  0  0
 18 20  1  0  0  0  0
 16 17  1  0  0  0  0
 16 18  1  0  0  0  0
 15 16  2  0  0  0  0
 14 15  1  0  0  0  0
 14 20  2  0  0  0  0
 11 12  1  0  0  0  0
 11 13  1  0  0  0  0
 11 14  1  0  0  0  0
  9 10  1  0  0  0  0
  9 11  1  0  0  0  0
  9 22  1  0  0  0  0
  7  8  1  0  0  0  0
  7  9  1  0  0  0  0
 26 27  1  0  0  0  0
 26 28  1  0  0  0  0
 26 29  1  0  0  0  0
 24 25  1  0  0  0  0
 24 26  1  0  0  0  0
M  END
$$$$
default_name
  -OEChem-01062215323D

 29 29  0     1  0  0  0  0  0999 V2000
   -2.9561   -3.9186    1.3887 H   0  0  0  0  0  0  0  0  0  0  0  0
   -3.1191   -2.9346    0.9517 C   0  0  0  0  0  0  0  0  0  0  0  0
   -3.7811   -2.3546    1.5917 H   0  0  0  0  0  0  0  0  0  0  0  0
   -3.5591   -3.0406   -0.0383 H   0  0  0  0  0  0  0  0  0  0  0  0
   -1.7921   -2.2226    0.8327 C   0  0  0  0  0  0  0  0  0  0  0  0
   -0.7611   -2.7766    1.1927 O   0  0  0  0  0  0  0  0  0  0  0  0
   -1.8201   -0.9926    0.3247 N   0  0  0  0  0  0  0  0  0  0  0  0
   -2.7141   -0.5816    0.0927 H   0  0  0  0  0  0  0  0  0  0  0  0
   -0.6481   -0.1156    0.2017 C   0  0  1  0  0  0  0  0  0  0  0  0
   -0.2703    0.0905    1.2051 H   0  0  0  0  0  0  0  0  0  0  0  0
    0.4594   -0.8359   -0.5917 C   0  0  0  0  0  0  0  0  0  0  0  0
    0.0709   -1.1574   -1.5592 H   0  0  0  0  0  0  0  0  0  0  0  0
    1.2844   -0.1479   -0.7814 H   0  0  0  0  0  0  0  0  0  0  0  0
    0.9814   -2.0644    0.1128 C   0  0  0  0  0  0  0  0  0  0  0  0
    1.8341   -2.0729    1.2175 N   0  0  0  0  0  0  0  0  0  0  0  0
    2.0014   -3.3625    1.5449 C   0  0  0  0  0  0  0  0  0  0  0  0
    2.6224   -3.7120    2.3600 H   0  0  0  0  0  0  0  0  0  0  0  0
    1.2845   -4.1513    0.7268 N   0  0  0  0  0  0  0  0  0  0  0  0
    1.2300   -5.1591    0.7833 H   0  0  0  0  0  0  0  0  0  0  0  0
    0.6304   -3.3493   -0.1819 C   0  0  0  0  0  0  0  0  0  0  0  0
   -0.0486   -3.6574   -0.9670 H   0  0  0  0  0  0  0  0  0  0  0  0
   -1.0414    1.2327   -0.4279 C   0  0  0  0  0  0  0  0  0  0  0  0
   -1.1168    2.2415    0.2735 O   0  0  0  0  0  0  0  0  0  0  0  0
   -1.2818    1.2563   -1.7426 N   0  0  0  0  0  0  0  0  0  0  0  0
   -1.3010    0.3634   -2.2225 H   0  0  0  0  0  0  0  0  0  0  0  0
   -1.6516    2.4487   -2.5015 C   0  0  0  0  0  0  0  0  0  0  0  0
   -1.1329    3.3239   -2.1019 H   0  0  0  0  0  0  0  0  0  0  0  0
   -1.3793    2.3203   -3.5501 H   0  0  0  0  0  0  0  0  0  0  0  0
   -2.7279    2.6115   -2.4245 H   0  0  0  0  0  0  0  0  0  0  0  0
  5  6  2  0  0  0  0
  5  7  1  0  0  0  0
  2  3  1  0  0  0  0
  2  4  1  0  0  0  0
  2  5  1  0  0  0  0
  1  2  1  0  0  0  0
 22 23  2  0  0  0  0
 22 24  1  0  0  0  0
 20 21  1  0  0  0  0
 18 19  1  0  0  0  0
 18 20  1  0  0  0  0
 16 17  1  0  0  0  0
 16 18  1  0  0  0  0
 15 16  2  0  0  0  0
 14 15  1  0  0  0  0
 14 20  2  0  0  0  0
 11 12  1  0  0  0  0
 11 13  1  0  0  0  0
 11 14  1  0  0  0  0
  9 10  1  0  0  0  0
  9 11  1  0  0  0  0
  9 22  1  0  0  0  0
  7  8  1  0  0  0  0
  7  9  1  0  0  0  0
 26 27  1  0  0  0  0
 26 28  1  0  0  0  0
 26 29  1  0  0  0  0
 24 25  1  0  0  0  0
 24 26  1  0  0  0  0
M  END
$$$$
default_name
  -OEChem-01062215323D

 29 29  0     1  0  0  0  0  0999 V2000
   -2.9561   -3.9186    1.3887 H   0  0  0  0  0  0  0  0  0  0  0  0
   -3.1191   -2.9346    0.9517 C   0  0  0  0  0  0  0  0  0  0  0  0
   -3.7811   -2.3546    1.5917 H   0  0  0  0  0  0  0  0  0  0  0  0
   -3.5591   -3.0406   -0.0383 H   0  0  0  0  0  0  0  0  0  0  0  0
   -1.7921   -2.2226    0.8327 C   0  0  0  0  0  0  0  0  0  0  0  0
   -0.7611   -2.7766    1.1927 O   0  0  0  0  0  0  0  0  0  0  0  0
   -1.8201   -0.9926    0.3247 N   0  0  0  0  0  0  0  0  0  0  0  0
   -2.7141   -0.5816    0.0927 H   0  0  0  0  0  0  0  0  0  0  0  0
   -0.6481   -0.1156    0.2017 C   0  0  1  0  0  0  0  0  0  0  0  0
   -0.2703    0.0905    1.2051 H   0  0  0  0  0  0  0  0  0  0  0  0
    0.4594   -0.8359   -0.5917 C   0  0  0  0  0  0  0  0  0  0  0  0
    0.0709   -1.1574   -1.5592 H   0  0  0  0  0  0  0  0  0  0  0  0
    1.2844   -0.1479   -0.7814 H   0  0  0  0  0  0  0  0  0  0  0  0
    0.9814   -2.0644    0.1128 C   0  0  0  0  0  0  0  0  0  0  0  0
    1.8341   -2.0729    1.2175 N   0  0  0  0  0  0  0  0  0  0  0  0
    2.0014   -3.3625    1.5449 C   0  0  0  0  0  0  0  0  0  0  0  0
    2.6224   -3.7120    2.3600 H   0  0  0  0  0  0  0  0  0  0  0  0
    1.2845   -4.1513    0.7268 N   0  0  0  0  0  0  0  0  0  0  0  0
    1.2300   -5.1591    0.7833 H   0  0  0  0  0  0  0  0  0  0  0  0
    0.6304   -3.3493   -0.1819 C   0  0  0  0  0  0  0  0  0  0  0  0
   -0.0486   -3.6574   -0.9670 H   0  0  0  0  0  0  0  0  0  0  0  0
   -1.0414    1.2327   -0.4279 C   0  0  0  0  0  0  0  0  0  0  0  0
   -0.8537    2.2799    0.1914 O   0  0  0  0  0  0  0  0  0  0  0  0
   -1.5746    1.2125   -1.6535 N   0  0  0  0  0  0  0  0  0  0  0  0
   -1.7914    0.3030   -2.0456 H   0  0  0  0  0  0  0  0  0  0  0  0
   -1.9902    2.3966   -2.4018 C   0  0  0  0  0  0  0  0  0  0  0  0
   -1.3100    3.2275   -2.1978 H   0  0  0  0  0  0  0  0  0  0  0  0
   -1.9807    2.1817   -3.4713 H   0  0  0  0  0  0  0  0  0  0  0  0
   -2.9985    2.6844   -2.0995 H   0  0  0  0  0  0  0  0  0  0  0  0
  5  6  2  0  0  0  0
  5  7  1  0  0  0  0
  2  3  1  0  0  0  0
  2  4  1  0  0  0  0
  2  5  1  0  0  0  0
  1  2  1  0  0  0  0
 22 23  2  0  0  0  0
 22 24  1  0  0  0  0
 20 21  1  0  0  0  0
 18 19  1  0  0  0  0
 18 20  1  0  0  0  0
 16 17  1  0  0  0  0
 16 18  1  0  0  0  0
 15 16  2  0  0  0  0
 14 15  1  0  0  0  0
 14 20  2  0  0  0  0
 11 12  1  0  0  0  0
 11 13  1  0  0  0  0
 11 14  1  0  0  0  0
  9 10  1  0  0  0  0
  9 11  1  0  0  0  0
  9 22  1  0  0  0  0
  7  8  1  0  0  0  0
  7  9  1  0  0  0  0
 26 27  1  0  0  0  0
 26 28  1  0  0  0  0
 26 29  1  0  0  0  0
 24 25  1  0  0  0  0
 24 26  1  0  0  0  0
M  END
$$$$
default_name
  -OEChem-01062215323D

 29 29  0     1  0  0  0  0  0999 V2000
   -2.9561   -3.9186    1.3887 H   0  0  0  0  0  0  0  0  0  0  0  0
   -3.1191   -2.9346    0.9517 C   0  0  0  0  0  0  0  0  0  0  0  0
   -3.7811   -2.3546    1.5917 H   0  0  0  0  0  0  0  0  0  0  0  0
   -3.5591   -3.0406   -0.0383 H   0  0  0  0  0  0  0  0  0  0  0  0
   -1.7921   -2.2226    0.8327 C   0  0  0  0  0  0  0  0  0  0  0  0
   -0.7611   -2.7766    1.1927 O   0  0  0  0  0  0  0  0  0  0  0  0
   -1.8201   -0.9926    0.3247 N   0  0  0  0  0  0  0  0  0  0  0  0
   -2.7141   -0.5816    0.0927 H   0  0  0  0  0  0  0  0  0  0  0  0
   -0.6481   -0.1156    0.2017 C   0  0  1  0  0  0  0  0  0  0  0  0
   -0.2703    0.0905    1.2051 H   0  0  0  0  0  0  0  0  0  0  0  0
    0.4594   -0.8359   -0.5917 C   0  0  0  0  0  0  0  0  0  0  0  0
    0.0709   -1.1574   -1.5592 H   0  0  0  0  0  0  0  0  0  0  0  0
    1.2844   -0.1479   -0.7814 H   0  0  0  0  0  0  0  0  0  0  0  0
    0.9814   -2.0644    0.1128 C   0  0  0  0  0  0  0  0  0  0  0  0
    1.8341   -2.0729    1.2175 N   0  0  0  0  0  0  0  0  0  0  0  0
    2.0014   -3.3625    1.5449 C   0  0  0  0  0  0  0  0  0  0  0  0
    2.6224   -3.7120    2.3600 H   0  0  0  0  0  0  0  0  0  0  0  0
    1.2845   -4.1513    0.7268 N   0  0  0  0  0  0  0  0  0  0  0  0
    1.2300   -5.1591    0.7833 H   0  0  0  0  0  0  0  0  0  0  0  0
    0.6304   -3.3493   -0.1819 C   0  0  0  0  0  0  0  0  0  0  0  0
   -0.0486   -3.6574   -0.9670 H   0  0  0  0  0  0  0  0  0  0  0  0
   -1.0414    1.2327   -0.4279 C   0  0  0  0  0  0  0  0  0  0  0  0
   -0.6142    2.2837    0.0500 O   0  0  0  0  0  0  0  0  0  0  0  0
   -1.8419    1.2071   -1.4982 N   0  0  0  0  0  0  0  0  0  0  0  0
   -2.2314    0.3083   -1.7594 H   0  0  0  0  0  0  0  0  0  0  0  0
   -2.3002    2.3886   -2.2252 C   0  0  0  0  0  0  0  0  0  0  0  0
   -1.5131    3.1468   -2.2439 H   0  0  0  0  0  0  0  0  0  0  0  0
   -2.5584    2.1167   -3.2496 H   0  0  0  0  0  0  0  0  0  0  0  0
   -3.1785    2.8049   -1.7290 H   0  0  0  0  0  0  0  0  0  0  0  0
  5  6  2  0  0  0  0
  5  7  1  0  0  0  0
  2  3  1  0  0  0  0
  2  4  1  0  0  0  0
  2  5  1  0  0  0  0
  1  2  1  0  0  0  0
 22 23  2  0  0  0  0
 22 24  1  0  0  0  0
 20 21  1  0  0  0  0
 18 19  1  0  0  0  0
 18 20  1  0  0  0  0
 16 17  1  0  0  0  0
 16 18  1  0  0  0  0
 15 16  2  0  0  0  0
 14 15  1  0  0  0  0
 14 20  2  0  0  0  0
 11 12  1  0  0  0  0
 11 13  1  0  0  0  0
 11 14  1  0  0  0  0
  9 10  1  0  0  0  0
  9 11  1  0  0  0  0
  9 22  1  0  0  0  0
  7  8  1  0  0  0  0
  7  9  1  0  0  0  0
 26 27  1  0  0  0  0
 26 28  1  0  0  0  0
 26 29  1  0  0  0  0
 24 25  1  0  0  0  0
 24 26  1  0  0  0  0
M  END
$$$$
default_name
  -OEChem-01062215323D

 29 29  0     1  0  0  0  0  0999 V2000
   -2.9561   -3.9186    1.3887 H   0  0  0  0  0  0  0  0  0  0  0  0
   -3.1191   -2.9346    0.9517 C   0  0  0  0  0  0  0  0  0  0  0  0
   -3.7811   -2.3546    1.5917 H   0  0  0  0  0  0  0  0  0  0  0  0
   -3.5591   -3.0406   -0.0383 H   0  0  0  0  0  0  0  0  0  0  0  0
   -1.7921   -2.2226    0.8327 C   0  0  0  0  0  0  0  0  0  0  0  0
   -0.7611   -2.7766    1.1927 O   0  0  0  0  0  0  0  0  0  0  0  0
   -1.8201   -0.9926    0.3247 N   0  0  0  0  0  0  0  0  0  0  0  0
   -2.7141   -0.5816    0.0927 H   0  0  0  0  0  0  0  0  0  0  0  0
   -0.6481   -0.1156    0.2017 C   0  0  1  0  0  0  0  0  0  0  0  0
   -0.2703    0.0905    1.2051 H   0  0  0  0  0  0  0  0  0  0  0  0
    0.4594   -0.8359   -0.5917 C   0  0  0  0  0  0  0  0  0  0  0  0
    0.0709   -1.1574   -1.5592 H   0  0  0  0  0  0  0  0  0  0  0  0
    1.2844   -0.1479   -0.7814 H   0  0  0  0  0  0  0  0  0  0  0  0
    0.9814   -2.0644    0.1128 C   0  0  0  0  0  0  0  0  0  0  0  0
    1.8341   -2.0729    1.2175 N   0  0  0  0  0  0  0  0  0  0  0  0
    2.0014   -3.3625    1.5449 C   0  0  0  0  0  0  0  0  0  0  0  0
    2.6224   -3.7120    2.3600 H   0  0  0  0  0  0  0  0  0  0  0  0
    1.2845   -4.1513    0.7268 N   0  0  0  0  0  0  0  0  0  0  0  0
    1.2300   -5.1591    0.7833 H   0  0  0  0  0  0  0  0  0  0  0  0
    0.6304   -3.3493   -0.1819 C   0  0  0  0  0  0  0  0  0  0  0  0
   -0.0486   -3.6574   -0.9670 H   0  0  0  0  0  0  0  0  0  0  0  0
   -1.0414    1.2327   -0.4279 C   0  0  0  0  0  0  0  0  0  0  0  0
   -0.4145    2.2526   -0.1413 O   0  0  0  0  0  0  0  0  0  0  0  0
   -2.0653    1.2405   -1.2872 N   0  0  0  0  0  0  0  0  0  0  0  0
   -2.5910    0.3789   -1.3837 H   0  0  0  0  0  0  0  0  0  0  0  0
   -2.5604    2.4254   -1.9838 C   0  0  0  0  0  0  0  0  0  0  0  0
   -1.7282    3.0872   -2.2371 H   0  0  0  0  0  0  0  0  0  0  0  0
   -3.0730    2.1297   -2.9003 H   0  0  0  0  0  0  0  0  0  0  0  0
   -3.2556    2.9648   -1.3383 H   0  0  0  0  0  0  0  0  0  0  0  0
  5  6  2  0  0  0  0
  5  7  1  0  0  0  0
  2  3  1  0  0  0  0
  2  4  1  0  0  0  0
  2  5  1  0  0  0  0
  1  2  1  0  0  0  0
 22 23  2  0  0  0  0
 22 24  1  0  0  0  0
 20 21  1  0  0  0  0
 18 19  1  0  0  0  0
 18 20  1  0  0  0  0
 16 17  1  0  0  0  0
 16 18  1  0  0  0  0
 15 16  2  0  0  0  0
 14 15  1  0  0  0  0
 14 20  2  0  0  0  0
 11 12  1  0  0  0  0
 11 13  1  0  0  0  0
 11 14  1  0  0  0  0
  9 10  1  0  0  0  0
  9 11  1  0  0  0  0
  9 22  1  0  0  0  0
  7  8  1  0  0  0  0
  7  9  1  0  0  0  0
 26 27  1  0  0  0  0
 26 28  1  0  0  0  0
 26 29  1  0  0  0  0
 24 25  1  0  0  0  0
 24 26  1  0  0  0  0
M  END
$$$$
default_name
  -OEChem-01062215323D

 29 29  0     1  0  0  0  0  0999 V2000
   -2.9561   -3.9186    1.3887 H   0  0  0  0  0  0  0  0  0  0  0  0
   -3.1191   -2.9346    0.9517 C   0  0  0  0  0  0  0  0  0  0  0  0
   -3.7811   -2.3546    1.5917 H   0  0  0  0  0  0  0  0  0  0  0  0
   -3.5591   -3.0406   -0.0383 H   0  0  0  0  0  0  0  0  0  0  0  0
   -1.7921   -2.2226    0.8327 C   0  0  0  0  0  0  0  0  0  0  0  0
   -0.7611   -2.7766    1.1927 O   0  0  0  0  0  0  0  0  0  0  0  0
   -1.8201   -0.9926    0.3247 N   0  0  0  0  0  0  0  0  0  0  0  0
   -2.7141   -0.5816    0.0927 H   0  0  0  0  0  0  0  0  0  0  0  0
   -0.6481   -0.1156    0.2017 C   0  0  1  0  0  0  0  0  0  0  0  0
   -0.2703    0.0905    1.2051 H   0  0  0  0  0  0  0  0  0  0  0  0
    0.4594   -0.8359   -0.5917 C   0  0  0  0  0  0  0  0  0  0  0  0
    0.0709   -1.1574   -1.5592 H   0  0  0  0  0  0  0  0  0  0  0  0
    1.2844   -0.1479   -0.7814 H   0  0  0  0  0  0  0  0  0  0  0  0
    0.9814   -2.0644    0.1128 C   0  0  0  0  0  0  0  0  0  0  0  0
    1.8341   -2.0729    1.2175 N   0  0  0  0  0  0  0  0  0  0  0  0
    2.0014   -3.3625    1.5449 C   0  0  0  0  0  0  0  0  0  0  0  0
    2.6224   -3.7120    2.3600 H   0  0  0  0  0  0  0  0  0  0  0  0
    1.2845   -4.1513    0.7268 N   0  0  0  0  0  0  0  0  0  0  0  0
    1.2300   -5.1591    0.7833 H   0  0  0  0  0  0  0  0  0  0  0  0
    0.6304   -3.3493   -0.1819 C   0  0  0  0  0  0  0  0  0  0  0  0
   -0.0486   -3.6574   -0.9670 H   0  0  0  0  0  0  0  0  0  0  0  0
   -1.0414    1.2327   -0.4279 C   0  0  0  0  0  0  0  0  0  0  0  0
   -0.2682    2.1888   -0.3692 O   0  0  0  0  0  0  0  0  0  0  0  0
   -2.2298    1.3103   -1.0349 N   0  0  0  0  0  0  0  0  0  0  0  0
   -2.8456    0.5100   -0.9439 H   0  0  0  0  0  0  0  0  0  0  0  0
   -2.7532    2.5045   -1.6941 C   0  0  0  0  0  0  0  0  0  0  0  0
   -1.9408    3.0529   -2.1778 H   0  0  0  0  0  0  0  0  0  0  0  0
   -3.4896    2.2199   -2.4470 H   0  0  0  0  0  0  0  0  0  0  0  0
   -3.2245    3.1533   -0.9541 H   0  0  0  0  0  0  0  0  0  0  0  0
  5  6  2  0  0  0  0
  5  7  1  0  0  0  0
  2  3  1  0  0  0  0
  2  4  1  0  0  0  0
  2  5  1  0  0  0  0
  1  2  1  0  0  0  0
 22 23  2  0  0  0  0
 22 24  1  0  0  0  0
 20 21  1  0  0  0  0
 18 19  1  0  0  0  0
 18 20  1  0  0  0  0
 16 17  1  0  0  0  0
 16 18  1  0  0  0  0
 15 16  2  0  0  0  0
 14 15  1  0  0  0  0
 14 20  2  0  0  0  0
 11 12  1  0  0  0  0
 11 13  1  0  0  0  0
 11 14  1  0  0  0  0
  9 10  1  0  0  0  0
  9 11  1  0  0  0  0
  9 22  1  0  0  0  0
  7  8  1  0  0  0  0
  7  9  1  0  0  0  0
 26 27  1  0  0  0  0
 26 28  1  0  0  0  0
 26 29  1  0  0  0  0
 24 25  1  0  0  0  0
 24 26  1  0  0  0  0
M  END
$$$$
default_name
  -OEChem-01062215323D

 29 29  0     1  0  0  0  0  0999 V2000
   -2.9561   -3.9186    1.3887 H   0  0  0  0  0  0  0  0  0  0  0  0
   -3.1191   -2.9346    0.9517 C   0  0  0  0  0  0  0  0  0  0  0  0
   -3.7811   -2.3546    1.5917 H   0  0  0  0  0  0  0  0  0  0  0  0
   -3.5591   -3.0406   -0.0383 H   0  0  0  0  0  0  0  0  0  0  0  0
   -1.7921   -2.2226    0.8327 C   0  0  0  0  0  0  0  0  0  0  0  0
   -0.7611   -2.7766    1.1927 O   0  0  0  0  0  0  0  0  0  0  0  0
   -1.8201   -0.9926    0.3247 N   0  0  0  0  0  0  0  0  0  0  0  0
   -2.7141   -0.5816    0.0927 H   0  0  0  0  0  0  0  0  0  0  0  0
   -0.6481   -0.1156    0.2017 C   0  0  1  0  0  0  0  0  0  0  0  0
   -0.2703    0.0905    1.2051 H   0  0  0  0  0  0  0  0  0  0  0  0
    0.4594   -0.8359   -0.5917 C   0  0  0  0  0  0  0  0  0  0  0  0
    0.0709   -1.1574   -1.5592 H   0  0  0  0  0  0  0  0  0  0  0  0
    1.2844   -0.1479   -0.7814 H   0  0  0  0  0  0  0  0  0  0  0  0
    0.9814   -2.0644    0.1128 C   0  0  0  0  0  0  0  0  0  0  0  0
    1.8341   -2.0729    1.2175 N   0  0  0  0  0  0  0  0  0  0  0  0
    2.0014   -3.3625    1.5449 C   0  0  0  0  0  0  0  0  0  0  0  0
    2.6224   -3.7120    2.3600 H   0  0  0  0  0  0  0  0  0  0  0  0
    1.2845   -4.1513    0.7268 N   0  0  0  0  0  0  0  0  0  0  0  0
    1.2300   -5.1591    0.7833 H   0  0  0  0  0  0  0  0  0  0  0  0
    0.6304   -3.3493   -0.1819 C   0  0  0  0  0  0  0  0  0  0  0  0
   -0.0486   -3.6574   -0.9670 H   0  0  0  0  0  0  0  0  0  0  0  0
   -1.0414    1.2327   -0.4279 C   0  0  0  0  0  0  0  0  0  0  0  0
   -0.1854    2.0967   -0.6183 O   0  0  0  0  0  0  0  0  0  0  0  0
   -2.3241    1.4119   -0.7585 N   0  0  0  0  0  0  0  0  0  0  0  0
   -2.9779    0.6927   -0.4700 H   0  0  0  0  0  0  0  0  0  0  0  0
   -2.8653    2.6205   -1.3758 C   0  0  0  0  0  0  0  0  0  0  0  0
   -2.1362    3.0462   -2.0700 H   0  0  0  0  0  0  0  0  0  0  0  0
   -3.7796    2.3811   -1.9207 H   0  0  0  0  0  0  0  0  0  0  0  0
   -3.0875    3.3575   -0.6024 H   0  0  0  0  0  0  0  0  0  0  0  0
  5  6  2  0  0  0  0
  5  7  1  0  0  0  0
  2  3  1  0  0  0  0
  2  4  1  0  0  0  0
  2  5  1  0  0  0  0
  1  2  1  0  0  0  0
 22 23  2  0  0  0  0
 22 24  1  0  0  0  0
 20 21  1  0  0  0  0
 18 19  1  0  0  0  0
 18 20  1  0  0  0  0
 16 17  1  0  0  0  0
 16 18  1  0  0  0  0
 15 16  2  0  0  0  0
 14 15  1  0  0  0  0
 14 20  2  0  0  0  0
 11 12  1  0  0  0  0
 11 13  1  0  0  0  0
 11 14  1  0  0  0  0
  9 10  1  0  0  0  0
  9 11  1  0  0  0  0
  9 22  1  0  0  0  0
  7  8  1  0  0  0  0
  7  9  1  0  0  0  0
 26 27  1  0  0  0  0
 26 28  1  0  0  0  0
 26 29  1  0  0  0  0
 24 25  1  0  0  0  0
 24 26  1  0  0  0  0
M  END
$$$$
default_name
  -OEChem-01062215323D

 29 29  0     1  0  0  0  0  0999 V2000
   -2.9561   -3.9186    1.3887 H   0  0  0  0  0  0  0  0  0  0  0  0
   -3.1191   -2.9346    0.9517 C   0  0  0  0  0  0  0  0  0  0  0  0
   -3.7811   -2.3546    1.5917 H   0  0  0  0  0  0  0  0  0  0  0  0
   -3.5591   -3.0406   -0.0383 H   0  0  0  0  0  0  0  0  0  0  0  0
   -1.7921   -2.2226    0.8327 C   0  0  0  0  0  0  0  0  0  0  0  0
   -0.7611   -2.7766    1.1927 O   0  0  0  0  0  0  0  0  0  0  0  0
   -1.8201   -0.9926    0.3247 N   0  0  0  0  0  0  0  0  0  0  0  0
   -2.7141   -0.5816    0.0927 H   0  0  0  0  0  0  0  0  0  0  0  0
   -0.6481   -0.1156    0.2017 C   0  0  1  0  0  0  0  0  0  0  0  0
   -0.2703    0.0905    1.2051 H   0  0  0  0  0  0  0  0  0  0  0  0
    0.4594   -0.8359   -0.5917 C   0  0  0  0  0  0  0  0  0  0  0  0
    0.0709   -1.1574   -1.5592 H   0  0  0  0  0  0  0  0  0  0  0  0
    1.2844   -0.1479   -0.7814 H   0  0  0  0  0  0  0  0  0  0  0  0
    0.9814   -2.0644    0.1128 C   0  0  0  0  0  0  0  0  0  0  0  0
    1.8341   -2.0729    1.2175 N   0  0  0  0  0  0  0  0  0  0  0  0
    2.0014   -3.3625    1.5449 C   0  0  0  0  0  0  0  0  0  0  0  0
    2.6224   -3.7120    2.3600 H   0  0  0  0  0  0  0  0  0  0  0  0
    1.2845   -4.1513    0.7268 N   0  0  0  0  0  0  0  0  0  0  0  0
    1.2300   -5.1591    0.7833 H   0  0  0  0  0  0  0  0  0  0  0  0
    0.6304   -3.3493   -0.1819 C   0  0  0  0  0  0  0  0  0  0  0  0
   -0.0486   -3.6574   -0.9670 H   0  0  0  0  0  0  0  0  0  0  0  0
   -1.0414    1.2327   -0.4279 C   0  0  0  0  0  0  0  0  0  0  0  0
   -0.1716    1.9824   -0.8716 O   0  0  0  0  0  0  0  0  0  0  0  0
   -2.3418    1.5382   -0.4769 N   0  0  0  0  0  0  0  0  0  0  0  0
   -2.9790    0.9145    0.0057 H   0  0  0  0  0  0  0  0  0  0  0  0
   -2.8891    2.7654   -1.0506 C   0  0  0  0  0  0  0  0  0  0  0  0
   -2.3013    3.0676   -1.9211 H   0  0  0  0  0  0  0  0  0  0  0  0
   -3.9233    2.6023   -1.3573 H   0  0  0  0  0  0  0  0  0  0  0  0
   -2.8537    3.5635   -0.3073 H   0  0  0  0  0  0  0  0  0  0  0  0
  5  6  2  0  0  0  0
  5  7  1  0  0  0  0
  2  3  1  0  0  0  0
  2  4  1  0  0  0  0
  2  5  1  0  0  0  0
  1  2  1  0  0  0  0
 22 23  2  0  0  0  0
 22 24  1  0  0  0  0
 20 21  1  0  0  0  0
 18 19  1  0  0  0  0
 18 20  1  0  0  0  0
 16 17  1  0  0  0  0
 16 18  1  0  0  0  0
 15 16  2  0  0  0  0
 14 15  1  0  0  0  0
 14 20  2  0  0  0  0
 11 12  1  0  0  0  0
 11 13  1  0  0  0  0
 11 14  1  0  0  0  0
  9 10  1  0  0  0  0
  9 11  1  0  0  0  0
  9 22  1  0  0  0  0
  7  8  1  0  0  0  0
  7  9  1  0  0  0  0
 26 27  1  0  0  0  0
 26 28  1  0  0  0  0
 26 29  1  0  0  0  0
 24 25  1  0  0  0  0
 24 26  1  0  0  0  0
M  END
$$$$
default_name
  -OEChem-01062215323D

 29 29  0     1  0  0  0  0  0999 V2000
   -2.9561   -3.9186    1.3887 H   0  0  0  0  0  0  0  0  0  0  0  0
   -3.1191   -2.9346    0.9517 C   0  0  0  0  0  0  0  0  0  0  0  0
   -3.7811   -2.3546    1.5917 H   0  0  0  0  0  0  0  0  0  0  0  0
   -3.5591   -3.0406   -0.0383 H   0  0  0  0  0  0  0  0  0  0  0  0
   -1.7921   -2.2226    0.8327 C   0  0  0  0  0  0  0  0  0  0  0  0
   -0.7611   -2.7766    1.1927 O   0  0  0  0  0  0  0  0  0  0  0  0
   -1.8201   -0.9926    0.3247 N   0  0  0  0  0  0  0  0  0  0  0  0
   -2.7141   -0.5816    0.0927 H   0  0  0  0  0  0  0  0  0  0  0  0
   -0.6481   -0.1156    0.2017 C   0  0  1  0  0  0  0  0  0  0  0  0
   -0.2703    0.0905    1.2051 H   0  0  0  0  0  0  0  0  0  0  0  0
    0.4594   -0.8359   -0.5917 C   0  0  0  0  0  0  0  0  0  0  0  0
    0.0709   -1.1574   -1.5592 H   0  0  0  0  0  0  0  0  0  0  0  0
    1.2844   -0.1479   -0.7814 H   0  0  0  0  0  0  0  0  0  0  0  0
    0.9814   -2.0644    0.1128 C   0  0  0  0  0  0  0  0  0  0  0  0
    1.8341   -2.0729    1.2175 N   0  0  0  0  0  0  0  0  0  0  0  0
    2.0014   -3.3625    1.5449 C   0  0  0  0  0  0  0  0  0  0  0  0
    2.6224   -3.7120    2.3600 H   0  0  0  0  0  0  0  0  0  0  0  0
    1.2845   -4.1513    0.7268 N   0  0  0  0  0  0  0  0  0  0  0  0
    1.2300   -5.1591    0.7833 H   0  0  0  0  0  0  0  0  0  0  0  0
    0.6304   -3.3493   -0.1819 C   0  0  0  0  0  0  0  0  0  0  0  0
   -0.0486   -3.6574   -0.9670 H   0  0  0  0  0  0  0  0  0  0  0  0
   -1.0414    1.2327   -0.4279 C   0  0  0  0  0  0  0  0  0  0  0  0
   -0.2278    1.8538   -1.1119 O   0  0  0  0  0  0  0  0  0  0  0  0
   -2.2817    1.6807   -0.2092 N   0  0  0  0  0  0  0  0  0  0  0  0
   -2.8487    1.1603    0.4507 H   0  0  0  0  0  0  0  0  0  0  0  0
   -2.8231    2.9294   -0.7406 C   0  0  0  0  0  0  0  0  0  0  0  0
   -2.4248    3.1155   -1.7413 H   0  0  0  0  0  0  0  0  0  0  0  0
   -3.9110    2.8685   -0.7950 H   0  0  0  0  0  0  0  0  0  0  0  0
   -2.5392    3.7573   -0.0889 H   0  0  0  0  0  0  0  0  0  0  0  0
  5  6  2  0  0  0  0
  5  7  1  0  0  0  0
  2  3  1  0  0  0  0
  2  4  1  0  0  0  0
  2  5  1  0  0  0  0
  1  2  1  0  0  0  0
 22 23  2  0  0  0  0
 22 24  1  0  0  0  0
 20 21  1  0  0  0  0
 18 19  1  0  0  0  0
 18 20  1  0  0  0  0
 16 17  1  0  0  0  0
 16 18  1  0  0  0  0
 15 16  2  0  0  0  0
 14 15  1  0  0  0  0
 14 20  2  0  0  0  0
 11 12  1  0  0  0  0
 11 13  1  0  0  0  0
 11 14  1  0  0  0  0
  9 10  1  0  0  0  0
  9 11  1  0  0  0  0
  9 22  1  0  0  0  0
  7  8  1  0  0  0  0
  7  9  1  0  0  0  0
 26 27  1  0  0  0  0
 26 28  1  0  0  0  0
 26 29  1  0  0  0  0
 24 25  1  0  0  0  0
 24 26  1  0  0  0  0
M  END
$$$$
default_name
  -OEChem-01062215323D

 29 29  0     1  0  0  0  0  0999 V2000
   -2.9561   -3.9186    1.3887 H   0  0  0  0  0  0  0  0  0  0  0  0
   -3.1191   -2.9346    0.9517 C   0  0  0  0  0  0  0  0  0  0  0  0
   -3.7811   -2.3546    1.5917 H   0  0  0  0  0  0  0  0  0  0  0  0
   -3.5591   -3.0406   -0.0383 H   0  0  0  0  0  0  0  0  0  0  0  0
   -1.7921   -2.2226    0.8327 C   0  0  0  0  0  0  0  0  0  0  0  0
   -0.7611   -2.7766    1.1927 O   0  0  0  0  0  0  0  0  0  0  0  0
   -1.8201   -0.9926    0.3247 N   0  0  0  0  0  0  0  0  0  0  0  0
   -2.7141   -0.5816    0.0927 H   0  0  0  0  0  0  0  0  0  0  0  0
   -0.6481   -0.1156    0.2017 C   0  0  1  0  0  0  0  0  0  0  0  0
   -0.2703    0.0905    1.2051 H   0  0  0  0  0  0  0  0  0  0  0  0
    0.4594   -0.8359   -0.5917 C   0  0  0  0  0  0  0  0  0  0  0  0
    0.0709   -1.1574   -1.5592 H   0  0  0  0  0  0  0  0  0  0  0  0
    1.2844   -0.1479   -0.7814 H   0  0  0  0  0  0  0  0  0  0  0  0
    0.9814   -2.0644    0.1128 C   0  0  0  0  0  0  0  0  0  0  0  0
    1.8341   -2.0729    1.2175 N   0  0  0  0  0  0  0  0  0  0  0  0
    2.0014   -3.3625    1.5449 C   0  0  0  0  0  0  0  0  0  0  0  0
    2.6224   -3.7120    2.3600 H   0  0  0  0  0  0  0  0  0  0  0  0
    1.2845   -4.1513    0.7268 N   0  0  0  0  0  0  0  0  0  0  0  0
    1.2300   -5.1591    0.7833 H   0  0  0  0  0  0  0  0  0  0  0  0
    0.6304   -3.3493   -0.1819 C   0  0  0  0  0  0  0  0  0  0  0  0
   -0.0486   -3.6574   -0.9670 H   0  0  0  0  0  0  0  0  0  0  0  0
   -1.0414    1.2327   -0.4279 C   0  0  0  0  0  0  0  0  0  0  0  0
   -0.3502    1.7197   -1.3227 O   0  0  0  0  0  0  0  0  0  0  0  0
   -2.1478    1.8298    0.0262 N   0  0  0  0  0  0  0  0  0  0  0  0
   -2.5959    1.4134    0.8348 H   0  0  0  0  0  0  0  0  0  0  0  0
   -2.6717    3.1013   -0.4670 C   0  0  0  0  0  0  0  0  0  0  0  0
   -2.4982    3.1868   -1.5428 H   0  0  0  0  0  0  0  0  0  0  0  0
   -3.7434    3.1614   -0.2724 H   0  0  0  0  0  0  0  0  0  0  0  0
   -2.1654    3.9255    0.0380 H   0  0  0  0  0  0  0  0  0  0  0  0
  5  6  2  0  0  0  0
  5  7  1  0  0  0  0
  2  3  1  0  0  0  0
  2  4  1  0  0  0  0
  2  5  1  0  0  0  0
  1  2  1  0  0  0  0
 22 23  2  0  0  0  0
 22 24  1  0  0  0  0
 20 21  1  0  0  0  0
 18 19  1  0  0  0  0
 18 20  1  0  0  0  0
 16 17  1  0  0  0  0
 16 18  1  0  0  0  0
 15 16  2  0  0  0  0
 14 15  1  0  0  0  0
 14 20  2  0  0  0  0
 11 12  1  0  0  0  0
 11 13  1  0  0  0  0
 11 14  1  0  0  0  0
  9 10  1  0  0  0  0
  9 11  1  0  0  0  0
  9 22  1  0  0  0  0
  7  8  1  0  0  0  0
  7  9  1  0  0  0  0
 26 27  1  0  0  0  0
 26 28  1  0  0  0  0
 26 29  1  0  0  0  0
 24 25  1  0  0  0  0
 24 26  1  0  0  0  0
M  END
$$$$
default_name
  -OEChem-01062215323D

 29 29  0     1  0  0  0  0  0999 V2000
   -2.9561   -3.9186    1.3887 H   0  0  0  0  0  0  0  0  0  0  0  0
   -3.1191   -2.9346    0.9517 C   0  0  0  0  0  0  0  0  0  0  0  0
   -3.7811   -2.3546    1.5917 H   0  0  0  0  0  0  0  0  0  0  0  0
   -3.5591   -3.0406   -0.0383 H   0  0  0  0  0  0  0  0  0  0  0  0
   -1.7921   -2.2226    0.8327 C   0  0  0  0  0  0  0  0  0  0  0  0
   -0.7611   -2.7766    1.1927 O   0  0  0  0  0  0  0  0  0  0  0  0
   -1.8201   -0.9926    0.3247 N   0  0  0  0  0  0  0  0  0  0  0  0
   -2.7141   -0.5816    0.0927 H   0  0  0  0  0  0  0  0  0  0  0  0
   -0.6481   -0.1156    0.2017 C   0  0  1  0  0  0  0  0  0  0  0  0
   -0.2703    0.0905    1.2051 H   0  0  0  0  0  0  0  0  0  0  0  0
    0.4594   -0.8359   -0.5917 C   0  0  0  0  0  0  0  0  0  0  0  0
    0.0709   -1.1574   -1.5592 H   0  0  0  0  0  0  0  0  0  0  0  0
    1.2844   -0.1479   -0.7814 H   0  0  0  0  0  0  0  0  0  0  0  0
    0.9814   -2.0644    0.1128 C   0  0  0  0  0  0  0  0  0  0  0  0
    1.8341   -2.0729    1.2175 N   0  0  0  0  0  0  0  0  0  0  0  0
    2.0014   -3.3625    1.5449 C   0  0  0  0  0  0  0  0  0  0  0  0
    2.6224   -3.7120    2.3600 H   0  0  0  0  0  0  0  0  0  0  0  0
    1.2845   -4.1513    0.7268 N   0  0  0  0  0  0  0  0  0  0  0  0
    1.2300   -5.1591    0.7833 H   0  0  0  0  0  0  0  0  0  0  0  0
    0.6304   -3.3493   -0.1819 C   0  0  0  0  0  0  0  0  0  0  0  0
   -0.0486   -3.6574   -0.9670 H   0  0  0  0  0  0  0  0  0  0  0  0
   -1.0414    1.2327   -0.4279 C   0  0  0  0  0  0  0  0  0  0  0  0
   -0.5304    1.5891   -1.4897 O   0  0  0  0  0  0  0  0  0  0  0  0
   -1.9493    1.9751    0.2135 N   0  0  0  0  0  0  0  0  0  0  0  0
   -2.2378    1.6565    1.1317 H   0  0  0  0  0  0  0  0  0  0  0  0
   -2.4452    3.2694   -0.2485 C   0  0  0  0  0  0  0  0  0  0  0  0
   -2.5166    3.2766   -1.3392 H   0  0  0  0  0  0  0  0  0  0  0  0
   -3.4320    3.4612    0.1751 H   0  0  0  0  0  0  0  0  0  0  0  0
   -1.7577    4.0569    0.0647 H   0  0  0  0  0  0  0  0  0  0  0  0
  5  6  2  0  0  0  0
  5  7  1  0  0  0  0
  2  3  1  0  0  0  0
  2  4  1  0  0  0  0
  2  5  1  0  0  0  0
  1  2  1  0  0  0  0
 22 23  2  0  0  0  0
 22 24  1  0  0  0  0
 20 21  1  0  0  0  0
 18 19  1  0  0  0  0
 18 20  1  0  0  0  0
 16 17  1  0  0  0  0
 16 18  1  0  0  0  0
 15 16  2  0  0  0  0
 14 15  1  0  0  0  0
 14 20  2  0  0  0  0
 11 12  1  0  0  0  0
 11 13  1  0  0  0  0
 11 14  1  0  0  0  0
  9 10  1  0  0  0  0
  9 11  1  0  0  0  0
  9 22  1  0  0  0  0
  7  8  1  0  0  0  0
  7  9  1  0  0  0  0
 26 27  1  0  0  0  0
 26 28  1  0  0  0  0
 26 29  1  0  0  0  0
 24 25  1  0  0  0  0
 24 26  1  0  0  0  0
M  END
$$$$
default_name
  -OEChem-01062215323D

 29 29  0     1  0  0  0  0  0999 V2000
   -2.9561   -3.9186    1.3887 H   0  0  0  0  0  0  0  0  0  0  0  0
   -3.1191   -2.9346    0.9517 C   0  0  0  0  0  0  0  0  0  0  0  0
   -3.7811   -2.3546    1.5917 H   0  0  0  0  0  0  0  0  0  0  0  0
   -3.5591   -3.0406   -0.0383 H   0  0  0  0  0  0  0  0  0  0  0  0
   -1.7921   -2.2226    0.8327 C   0  0  0  0  0  0  0  0  0  0  0  0
   -0.7611   -2.7766    1.1927 O   0  0  0  0  0  0  0  0  0  0  0  0
   -1.8201   -0.9926    0.3247 N   0  0  0  0  0  0  0  0  0  0  0  0
   -2.7141   -0.5816    0.0927 H   0  0  0  0  0  0  0  0  0  0  0  0
   -0.6481   -0.1156    0.2017 C   0  0  1  0  0  0  0  0  0  0  0  0
   -0.2703    0.0905    1.2051 H   0  0  0  0  0  0  0  0  0  0  0  0
    0.4594   -0.8359   -0.5917 C   0  0  0  0  0  0  0  0  0  0  0  0
    0.0709   -1.1574   -1.5592 H   0  0  0  0  0  0  0  0  0  0  0  0
    1.2844   -0.1479   -0.7814 H   0  0  0  0  0  0  0  0  0  0  0  0
    0.9814   -2.0644    0.1128 C   0  0  0  0  0  0  0  0  0  0  0  0
    1.8341   -2.0729    1.2175 N   0  0  0  0  0  0  0  0  0  0  0  0
    2.0014   -3.3625    1.5449 C   0  0  0  0  0  0  0  0  0  0  0  0
    2.6224   -3.7120    2.3600 H   0  0  0  0  0  0  0  0  0  0  0  0
    1.2845   -4.1513    0.7268 N   0  0  0  0  0  0  0  0  0  0  0  0
    1.2300   -5.1591    0.7833 H   0  0  0  0  0  0  0  0  0  0  0  0
    0.6304   -3.3493   -0.1819 C   0  0  0  0  0  0  0  0  0  0  0  0
   -0.0486   -3.6574   -0.9670 H   0  0  0  0  0  0  0  0  0  0  0  0
   -1.0414    1.2327   -0.4279 C   0  0  0  0  0  0  0  0  0  0  0  0
   -0.7562    1.4711   -1.6015 O   0  0  0  0  0  0  0  0  0  0  0  0
   -1.6997    2.1068    0.3398 N   0  0  0  0  0  0  0  0  0  0  0  0
   -1.7989    1.8730    1.3213 H   0  0  0  0  0  0  0  0  0  0  0  0
   -2.1590    3.4223   -0.0998 C   0  0  0  0  0  0  0  0  0  0  0  0
   -2.4786    3.3787   -1.1442 H   0  0  0  0  0  0  0  0  0  0  0  0
   -2.9981    3.7474    0.5170 H   0  0  0  0  0  0  0  0  0  0  0  0
   -1.3440    4.1424   -0.0107 H   0  0  0  0  0  0  0  0  0  0  0  0
  5  6  2  0  0  0  0
  5  7  1  0  0  0  0
  2  3  1  0  0  0  0
  2  4  1  0  0  0  0
  2  5  1  0  0  0  0
  1  2  1  0  0  0  0
 22 23  2  0  0  0  0
 22 24  1  0  0  0  0
 20 21  1  0  0  0  0
 18 19  1  0  0  0  0
 18 20  1  0  0  0  0
 16 17  1  0  0  0  0
 16 18  1  0  0  0  0
 15 16  2  0  0  0  0
 14 15  1  0  0  0  0
 14 20  2  0  0  0  0
 11 12  1  0  0  0  0
 11 13  1  0  0  0  0
 11 14  1  0  0  0  0
  9 10  1  0  0  0  0
  9 11  1  0  0  0  0
  9 22  1  0  0  0  0
  7  8  1  0  0  0  0
  7  9  1  0  0  0  0
 26 27  1  0  0  0  0
 26 28  1  0  0  0  0
 26 29  1  0  0  0  0
 24 25  1  0  0  0  0
 24 26  1  0  0  0  0
M  END
$$$$
default_name
  -OEChem-01062215323D

 29 29  0     1  0  0  0  0  0999 V2000
   -2.9561   -3.9186    1.3887 H   0  0  0  0  0  0  0  0  0  0  0  0
   -3.1191   -2.9346    0.9517 C   0  0  0  0  0  0  0  0  0  0  0  0
   -3.7811   -2.3546    1.5917 H   0  0  0  0  0  0  0  0  0  0  0  0
   -3.5591   -3.0406   -0.0383 H   0  0  0  0  0  0  0  0  0  0  0  0
   -1.7921   -2.2226    0.8327 C   0  0  0  0  0  0  0  0  0  0  0  0
   -0.7611   -2.7766    1.1927 O   0  0  0  0  0  0  0  0  0  0  0  0
   -1.8201   -0.9926    0.3247 N   0  0  0  0  0  0  0  0  0  0  0  0
   -2.7141   -0.5816    0.0927 H   0  0  0  0  0  0  0  0  0  0  0  0
   -0.6481   -0.1156    0.2017 C   0  0  1  0  0  0  0  0  0  0  0  0
   -0.2703    0.0905    1.2051 H   0  0  0  0  0  0  0  0  0  0  0  0
    0.4594   -0.8359   -0.5917 C   0  0  0  0  0  0  0  0  0  0  0  0
    0.0709   -1.1574   -1.5592 H   0  0  0  0  0  0  0  0  0  0  0  0
    1.2844   -0.1479   -0.7814 H   0  0  0  0  0  0  0  0  0  0  0  0
    0.9814   -2.0644    0.1128 C   0  0  0  0  0  0  0  0  0  0  0  0
    1.8341   -2.0729    1.2175 N   0  0  0  0  0  0  0  0  0  0  0  0
    2.0014   -3.3625    1.5449 C   0  0  0  0  0  0  0  0  0  0  0  0
    2.6224   -3.7120    2.3600 H   0  0  0  0  0  0  0  0  0  0  0  0
    1.2845   -4.1513    0.7268 N   0  0  0  0  0  0  0  0  0  0  0  0
    1.2300   -5.1591    0.7833 H   0  0  0  0  0  0  0  0  0  0  0  0
    0.6304   -3.3493   -0.1819 C   0  0  0  0  0  0  0  0  0  0  0  0
   -0.0486   -3.6574   -0.9670 H   0  0  0  0  0  0  0  0  0  0  0  0
   -1.0414    1.2327   -0.4279 C   0  0  0  0  0  0  0  0  0  0  0  0
   -1.0121    1.3736   -1.6505 O   0  0  0  0  0  0  0  0  0  0  0  0
   -1.4161    2.2160    0.3964 N   0  0  0  0  0  0  0  0  0  0  0  0
   -1.3091    2.0482    1.3906 H   0  0  0  0  0  0  0  0  0  0  0  0
   -1.8328    3.5495   -0.0313 C   0  0  0  0  0  0  0  0  0  0  0  0
   -2.3870    3.4862   -0.9712 H   0  0  0  0  0  0  0  0  0  0  0  0
   -2.4711    4.0005    0.7298 H   0  0  0  0  0  0  0  0  0  0  0  0
   -0.9524    4.1761   -0.1829 H   0  0  0  0  0  0  0  0  0  0  0  0
  5  6  2  0  0  0  0
  5  7  1  0  0  0  0
  2  3  1  0  0  0  0
  2  4  1  0  0  0  0
  2  5  1  0  0  0  0
  1  2  1  0  0  0  0
 22 23  2  0  0  0  0
 22 24  1  0  0  0  0
 20 21  1  0  0  0  0
 18 19  1  0  0  0  0
 18 20  1  0  0  0  0
 16 17  1  0  0  0  0
 16 18  1  0  0  0  0
 15 16  2  0  0  0  0
 14 15  1  0  0  0  0
 14 20  2  0  0  0  0
 11 12  1  0  0  0  0
 11 13  1  0  0  0  0
 11 14  1  0  0  0  0
  9 10  1  0  0  0  0
  9 11  1  0  0  0  0
  9 22  1  0  0  0  0
  7  8  1  0  0  0  0
  7  9  1  0  0  0  0
 26 27  1  0  0  0  0
 26 28  1  0  0  0  0
 26 29  1  0  0  0  0
 24 25  1  0  0  0  0
 24 26  1  0  0  0  0
M  END
$$$$
default_name
  -OEChem-01062215323D

 29 29  0     1  0  0  0  0  0999 V2000
   -2.9561   -3.9186    1.3887 H   0  0  0  0  0  0  0  0  0  0  0  0
   -3.1191   -2.9346    0.9517 C   0  0  0  0  0  0  0  0  0  0  0  0
   -3.7811   -2.3546    1.5917 H   0  0  0  0  0  0  0  0  0  0  0  0
   -3.5591   -3.0406   -0.0383 H   0  0  0  0  0  0  0  0  0  0  0  0
   -1.7921   -2.2226    0.8327 C   0  0  0  0  0  0  0  0  0  0  0  0
   -0.7611   -2.7766    1.1927 O   0  0  0  0  0  0  0  0  0  0  0  0
   -1.8201   -0.9926    0.3247 N   0  0  0  0  0  0  0  0  0  0  0  0
   -2.7141   -0.5816    0.0927 H   0  0  0  0  0  0  0  0  0  0  0  0
   -0.6481   -0.1156    0.2017 C   0  0  1  0  0  0  0  0  0  0  0  0
   -0.2703    0.0905    1.2051 H   0  0  0  0  0  0  0  0  0  0  0  0
    0.4594   -0.8359   -0.5917 C   0  0  0  0  0  0  0  0  0  0  0  0
    0.0709   -1.1574   -1.5592 H   0  0  0  0  0  0  0  0  0  0  0  0
    1.2844   -0.1479   -0.7814 H   0  0  0  0  0  0  0  0  0  0  0  0
    0.9814   -2.0644    0.1128 C   0  0  0  0  0  0  0  0  0  0  0  0
    1.8341   -2.0729    1.2175 N   0  0  0  0  0  0  0  0  0  0  0  0
    2.0014   -3.3625    1.5449 C   0  0  0  0  0  0  0  0  0  0  0  0
    2.6224   -3.7120    2.3600 H   0  0  0  0  0  0  0  0  0  0  0  0
    1.2845   -4.1513    0.7268 N   0  0  0  0  0  0  0  0  0  0  0  0
    1.2300   -5.1591    0.7833 H   0  0  0  0  0  0  0  0  0  0  0  0
    0.6304   -3.3493   -0.1819 C   0  0  0  0  0  0  0  0  0  0  0  0
   -0.0486   -3.6574   -0.9670 H   0  0  0  0  0  0  0  0  0  0  0  0
   -1.0414    1.2327   -0.4279 C   0  0  0  0  0  0  0  0  0  0  0  0
   -1.2808    1.3032   -1.6334 O   0  0  0  0  0  0  0  0  0  0  0  0
   -1.1177    2.2952    0.3796 N   0  0  0  0  0  0  0  0  0  0  0  0
   -0.8016    2.1702    1.3348 H   0  0  0  0  0  0  0  0  0  0  0  0
   -1.4886    3.6423   -0.0474 C   0  0  0  0  0  0  0  0  0  0  0  0
   -2.2478    3.5918   -0.8321 H   0  0  0  0  0  0  0  0  0  0  0  0
   -1.8870    4.2032    0.7992 H   0  0  0  0  0  0  0  0  0  0  0  0
   -0.6096    4.1559   -0.4403 H   0  0  0  0  0  0  0  0  0  0  0  0
  5  6  2  0  0  0  0
  5  7  1  0  0  0  0
  2  3  1  0  0  0  0
  2  4  1  0  0  0  0
  2  5  1  0  0  0  0
  1  2  1  0  0  0  0
 22 23  2  0  0  0  0
 22 24  1  0  0  0  0
 20 21  1  0  0  0  0
 18 19  1  0  0  0  0
 18 20  1  0  0  0  0
 16 17  1  0  0  0  0
 16 18  1  0  0  0  0
 15 16  2  0  0  0  0
 14 15  1  0  0  0  0
 14 20  2  0  0  0  0
 11 12  1  0  0  0  0
 11 13  1  0  0  0  0
 11 14  1  0  0  0  0
  9 10  1  0  0  0  0
  9 11  1  0  0  0  0
  9 22  1  0  0  0  0
  7  8  1  0  0  0  0
  7  9  1  0  0  0  0
 26 27  1  0  0  0  0
 26 28  1  0  0  0  0
 26 29  1  0  0  0  0
 24 25  1  0  0  0  0
 24 26  1  0  0  0  0
M  END
$$$$
default_name
  -OEChem-01062215323D

 29 29  0     1  0  0  0  0  0999 V2000
   -2.9561   -3.9186    1.3887 H   0  0  0  0  0  0  0  0  0  0  0  0
   -3.1191   -2.9346    0.9517 C   0  0  0  0  0  0  0  0  0  0  0  0
   -3.7811   -2.3546    1.5917 H   0  0  0  0  0  0  0  0  0  0  0  0
   -3.5591   -3.0406   -0.0383 H   0  0  0  0  0  0  0  0  0  0  0  0
   -1.7921   -2.2226    0.8327 C   0  0  0  0  0  0  0  0  0  0  0  0
   -0.7611   -2.7766    1.1927 O   0  0  0  0  0  0  0  0  0  0  0  0
   -1.8201   -0.9926    0.3247 N   0  0  0  0  0  0  0  0  0  0  0  0
   -2.7141   -0.5816    0.0927 H   0  0  0  0  0  0  0  0  0  0  0  0
   -0.6481   -0.1156    0.2017 C   0  0  1  0  0  0  0  0  0  0  0  0
   -0.2703    0.0905    1.2051 H   0  0  0  0  0  0  0  0  0  0  0  0
    0.4594   -0.8359   -0.5917 C   0  0  0  0  0  0  0  0  0  0  0  0
    0.0709   -1.1574   -1.5592 H   0  0  0  0  0  0  0  0  0  0  0  0
    1.2844   -0.1479   -0.7814 H   0  0  0  0  0  0  0  0  0  0  0  0
    0.9814   -2.0644    0.1128 C   0  0  0  0  0  0  0  0  0  0  0  0
    1.8341   -2.0729    1.2175 N   0  0  0  0  0  0  0  0  0  0  0  0
    2.0014   -3.3625    1.5449 C   0  0  0  0  0  0  0  0  0  0  0  0
    2.6224   -3.7120    2.3600 H   0  0  0  0  0  0  0  0  0  0  0  0
    1.2845   -4.1513    0.7268 N   0  0  0  0  0  0  0  0  0  0  0  0
    1.2300   -5.1591    0.7833 H   0  0  0  0  0  0  0  0  0  0  0  0
    0.6304   -3.3493   -0.1819 C   0  0  0  0  0  0  0  0  0  0  0  0
   -0.0486   -3.6574   -0.9670 H   0  0  0  0  0  0  0  0  0  0  0  0
   -1.0414    1.2327   -0.4279 C   0  0  0  0  0  0  0  0  0  0  0  0
   -1.5438    1.2648   -1.5513 O   0  0  0  0  0  0  0  0  0  0  0  0
   -0.8249    2.3390    0.2905 N   0  0  0  0  0  0  0  0  0  0  0  0
   -0.3112    2.2306    1.1579 H   0  0  0  0  0  0  0  0  0  0  0  0
   -1.1500    3.6945   -0.1472 C   0  0  0  0  0  0  0  0  0  0  0  0
   -2.0707    3.6882   -0.7362 H   0  0  0  0  0  0  0  0  0  0  0  0
   -1.2856    4.3418    0.7204 H   0  0  0  0  0  0  0  0  0  0  0  0
   -0.3390    4.0831   -0.7653 H   0  0  0  0  0  0  0  0  0  0  0  0
  5  6  2  0  0  0  0
  5  7  1  0  0  0  0
  2  3  1  0  0  0  0
  2  4  1  0  0  0  0
  2  5  1  0  0  0  0
  1  2  1  0  0  0  0
 22 23  2  0  0  0  0
 22 24  1  0  0  0  0
 20 21  1  0  0  0  0
 18 19  1  0  0  0  0
 18 20  1  0  0  0  0
 16 17  1  0  0  0  0
 16 18  1  0  0  0  0
 15 16  2  0  0  0  0
 14 15  1  0  0  0  0
 14 20  2  0  0  0  0
 11 12  1  0  0  0  0
 11 13  1  0  0  0  0
 11 14  1  0  0  0  0
  9 10  1  0  0  0  0
  9 11  1  0  0  0  0
  9 22  1  0  0  0  0
  7  8  1  0  0  0  0
  7  9  1  0  0  0  0
 26 27  1  0  0  0  0
 26 28  1  0  0  0  0
 26 29  1  0  0  0  0
 24 25  1  0  0  0  0
 24 26  1  0  0  0  0
M  END
$$$$
default_name
  -OEChem-01062215323D

 29 29  0     1  0  0  0  0  0999 V2000
   -2.9561   -3.9186    1.3887 H   0  0  0  0  0  0  0  0  0  0  0  0
   -3.1191   -2.9346    0.9517 C   0  0  0  0  0  0  0  0  0  0  0  0
   -3.7811   -2.3546    1.5917 H   0  0  0  0  0  0  0  0  0  0  0  0
   -3.5591   -3.0406   -0.0383 H   0  0  0  0  0  0  0  0  0  0  0  0
   -1.7921   -2.2226    0.8327 C   0  0  0  0  0  0  0  0  0  0  0  0
   -0.7611   -2.7766    1.1927 O   0  0  0  0  0  0  0  0  0  0  0  0
   -1.8201   -0.9926    0.3247 N   0  0  0  0  0  0  0  0  0  0  0  0
   -2.7141   -0.5816    0.0927 H   0  0  0  0  0  0  0  0  0  0  0  0
   -0.6481   -0.1156    0.2017 C   0  0  1  0  0  0  0  0  0  0  0  0
   -0.2703    0.0905    1.2051 H   0  0  0  0  0  0  0  0  0  0  0  0
    0.4594   -0.8359   -0.5917 C   0  0  0  0  0  0  0  0  0  0  0  0
    0.0709   -1.1574   -1.5592 H   0  0  0  0  0  0  0  0  0  0  0  0
    1.2844   -0.1479   -0.7814 H   0  0  0  0  0  0  0  0  0  0  0  0
    0.9814   -2.0644    0.1128 C   0  0  0  0  0  0  0  0  0  0  0  0
    1.8341   -2.0729    1.2175 N   0  0  0  0  0  0  0  0  0  0  0  0
    2.0014   -3.3625    1.5449 C   0  0  0  0  0  0  0  0  0  0  0  0
    2.6224   -3.7120    2.3600 H   0  0  0  0  0  0  0  0  0  0  0  0
    1.2845   -4.1513    0.7268 N   0  0  0  0  0  0  0  0  0  0  0  0
    1.2300   -5.1591    0.7833 H   0  0  0  0  0  0  0  0  0  0  0  0
    0.6304   -3.3493   -0.1819 C   0  0  0  0  0  0  0  0  0  0  0  0
   -0.0486   -3.6574   -0.9670 H   0  0  0  0  0  0  0  0  0  0  0  0
   -1.0414    1.2327   -0.4279 C   0  0  0  0  0  0  0  0  0  0  0  0
   -1.7834    1.2610   -1.4098 O   0  0  0  0  0  0  0  0  0  0  0  0
   -0.5577    2.3444    0.1352 N   0  0  0  0  0  0  0  0  0  0  0  0
    0.1288    2.2253    0.8718 H   0  0  0  0  0  0  0  0  0  0  0  0
   -0.8400    3.7024   -0.3237 C   0  0  0  0  0  0  0  0  0  0  0  0
   -1.8677    3.7689   -0.6901 H   0  0  0  0  0  0  0  0  0  0  0  0
   -0.7079    4.4068    0.4988 H   0  0  0  0  0  0  0  0  0  0  0  0
   -0.1590    3.9626   -1.1358 H   0  0  0  0  0  0  0  0  0  0  0  0
  5  6  2  0  0  0  0
  5  7  1  0  0  0  0
  2  3  1  0  0  0  0
  2  4  1  0  0  0  0
  2  5  1  0  0  0  0
  1  2  1  0  0  0  0
 22 23  2  0  0  0  0
 22 24  1  0  0  0  0
 20 21  1  0  0  0  0
 18 19  1  0  0  0  0
 18 20  1  0  0  0  0
 16 17  1  0  0  0  0
 16 18  1  0  0  0  0
 15 16  2  0  0  0  0
 14 15  1  0  0  0  0
 14 20  2  0  0  0  0
 11 12  1  0  0  0  0
 11 13  1  0  0  0  0
 11 14  1  0  0  0  0
  9 10  1  0  0  0  0
  9 11  1  0  0  0  0
  9 22  1  0  0  0  0
  7  8  1  0  0  0  0
  7  9  1  0  0  0  0
 26 27  1  0  0  0  0
 26 28  1  0  0  0  0
 26 29  1  0  0  0  0
 24 25  1  0  0  0  0
 24 26  1  0  0  0  0
M  END
$$$$
default_name
  -OEChem-01062215323D

 29 29  0     1  0  0  0  0  0999 V2000
   -2.9561   -3.9186    1.3887 H   0  0  0  0  0  0  0  0  0  0  0  0
   -3.1191   -2.9346    0.9517 C   0  0  0  0  0  0  0  0  0  0  0  0
   -3.7811   -2.3546    1.5917 H   0  0  0  0  0  0  0  0  0  0  0  0
   -3.5591   -3.0406   -0.0383 H   0  0  0  0  0  0  0  0  0  0  0  0
   -1.7921   -2.2226    0.8327 C   0  0  0  0  0  0  0  0  0  0  0  0
   -0.7611   -2.7766    1.1927 O   0  0  0  0  0  0  0  0  0  0  0  0
   -1.8201   -0.9926    0.3247 N   0  0  0  0  0  0  0  0  0  0  0  0
   -2.7141   -0.5816    0.0927 H   0  0  0  0  0  0  0  0  0  0  0  0
   -0.6481   -0.1156    0.2017 C   0  0  1  0  0  0  0  0  0  0  0  0
   -0.2703    0.0905    1.2051 H   0  0  0  0  0  0  0  0  0  0  0  0
    0.4594   -0.8359   -0.5917 C   0  0  0  0  0  0  0  0  0  0  0  0
    0.0709   -1.1574   -1.5592 H   0  0  0  0  0  0  0  0  0  0  0  0
    1.2844   -0.1479   -0.7814 H   0  0  0  0  0  0  0  0  0  0  0  0
    0.9814   -2.0644    0.1128 C   0  0  0  0  0  0  0  0  0  0  0  0
    1.8341   -2.0729    1.2175 N   0  0  0  0  0  0  0  0  0  0  0  0
    2.0014   -3.3625    1.5449 C   0  0  0  0  0  0  0  0  0  0  0  0
    2.6224   -3.7120    2.3600 H   0  0  0  0  0  0  0  0  0  0  0  0
    1.2845   -4.1513    0.7268 N   0  0  0  0  0  0  0  0  0  0  0  0
    1.2300   -5.1591    0.7833 H   0  0  0  0  0  0  0  0  0  0  0  0
    0.6304   -3.3493   -0.1819 C   0  0  0  0  0  0  0  0  0  0  0  0
   -0.0486   -3.6574   -0.9670 H   0  0  0  0  0  0  0  0  0  0  0  0
   -1.0414    1.2327   -0.4279 C   0  0  0  0  0  0  0  0  0  0  0  0
   -1.9831    1.2921   -1.2186 O   0  0  0  0  0  0  0  0  0  0  0  0
   -0.3342    2.3110   -0.0759 N   0  0  0  0  0  0  0  0  0  0  0  0
    0.4883    2.1547    0.4960 H   0  0  0  0  0  0  0  0  0  0  0  0
   -0.5798    3.6656   -0.5651 C   0  0  0  0  0  0  0  0  0  0  0  0
   -1.6525    3.8285   -0.6969 H   0  0  0  0  0  0  0  0  0  0  0  0
   -0.1933    4.3938    0.1494 H   0  0  0  0  0  0  0  0  0  0  0  0
   -0.0819    3.8026   -1.5264 H   0  0  0  0  0  0  0  0  0  0  0  0
  5  6  2  0  0  0  0
  5  7  1  0  0  0  0
  2  3  1  0  0  0  0
  2  4  1  0  0  0  0
  2  5  1  0  0  0  0
  1  2  1  0  0  0  0
 22 23  2  0  0  0  0
 22 24  1  0  0  0  0
 20 21  1  0  0  0  0
 18 19  1  0  0  0  0
 18 20  1  0  0  0  0
 16 17  1  0  0  0  0
 16 18  1  0  0  0  0
 15 16  2  0  0  0  0
 14 15  1  0  0  0  0
 14 20  2  0  0  0  0
 11 12  1  0  0  0  0
 11 13  1  0  0  0  0
 11 14  1  0  0  0  0
  9 10  1  0  0  0  0
  9 11  1  0  0  0  0
  9 22  1  0  0  0  0
  7  8  1  0  0  0  0
  7  9  1  0  0  0  0
 26 27  1  0  0  0  0
 26 28  1  0  0  0  0
 26 29  1  0  0  0  0
 24 25  1  0  0  0  0
 24 26  1  0  0  0  0
M  END
$$$$
default_name
  -OEChem-01062215323D

 29 29  0     1  0  0  0  0  0999 V2000
   -2.9561   -3.9186    1.3887 H   0  0  0  0  0  0  0  0  0  0  0  0
   -3.1191   -2.9346    0.9517 C   0  0  0  0  0  0  0  0  0  0  0  0
   -3.7811   -2.3546    1.5917 H   0  0  0  0  0  0  0  0  0  0  0  0
   -3.5591   -3.0406   -0.0383 H   0  0  0  0  0  0  0  0  0  0  0  0
   -1.7921   -2.2226    0.8327 C   0  0  0  0  0  0  0  0  0  0  0  0
   -0.7611   -2.7766    1.1927 O   0  0  0  0  0  0  0  0  0  0  0  0
   -1.8201   -0.9926    0.3247 N   0  0  0  0  0  0  0  0  0  0  0  0
   -2.7141   -0.5816    0.0927 H   0  0  0  0  0  0  0  0  0  0  0  0
   -0.6481   -0.1156    0.2017 C   0  0  1  0  0  0  0  0  0  0  0  0
   -0.2703    0.0905    1.2051 H   0  0  0  0  0  0  0  0  0  0  0  0
    0.4594   -0.8359   -0.5917 C   0  0  0  0  0  0  0  0  0  0  0  0
    0.0709   -1.1574   -1.5592 H   0  0  0  0  0  0  0  0  0  0  0  0
    1.2844   -0.1479   -0.7814 H   0  0  0  0  0  0  0  0  0  0  0  0
    0.9814   -2.0644    0.1128 C   0  0  0  0  0  0  0  0  0  0  0  0
    1.8341   -2.0729    1.2175 N   0  0  0  0  0  0  0  0  0  0  0  0
    2.0014   -3.3625    1.5449 C   0  0  0  0  0  0  0  0  0  0  0  0
    2.6224   -3.7120    2.3600 H   0  0  0  0  0  0  0  0  0  0  0  0
    1.2845   -4.1513    0.7268 N   0  0  0  0  0  0  0  0  0  0  0  0
    1.2300   -5.1591    0.7833 H   0  0  0  0  0  0  0  0  0  0  0  0
    0.6304   -3.3493   -0.1819 C   0  0  0  0  0  0  0  0  0  0  0  0
   -0.0486   -3.6574   -0.9670 H   0  0  0  0  0  0  0  0  0  0  0  0
   -1.0414    1.2327   -0.4279 C   0  0  0  0  0  0  0  0  0  0  0  0
   -2.1293    1.3559   -0.9906 O   0  0  0  0  0  0  0  0  0  0  0  0
   -0.1697    2.2412   -0.3281 N   0  0  0  0  0  0  0  0  0  0  0  0
    0.7429    2.0236    0.0562 H   0  0  0  0  0  0  0  0  0  0  0  0
   -0.3870    3.5865   -0.8548 C   0  0  0  0  0  0  0  0  0  0  0  0
   -1.4400    3.8628   -0.7562 H   0  0  0  0  0  0  0  0  0  0  0  0
    0.2232    4.3036   -0.3039 H   0  0  0  0  0  0  0  0  0  0  0  0
   -0.1130    3.6141   -1.9107 H   0  0  0  0  0  0  0  0  0  0  0  0
  5  6  2  0  0  0  0
  5  7  1  0  0  0  0
  2  3  1  0  0  0  0
  2  4  1  0  0  0  0
  2  5  1  0  0  0  0
  1  2  1  0  0  0  0
 22 23  2  0  0  0  0
 22 24  1  0  0  0  0
 20 21  1  0  0  0  0
 18 19  1  0  0  0  0
 18 20  1  0  0  0  0
 16 17  1  0  0  0  0
 16 18  1  0  0  0  0
 15 16  2  0  0  0  0
 14 15  1  0  0  0  0
 14 20  2  0  0  0  0
 11 12  1  0  0  0  0
 11 13  1  0  0  0  0
 11 14  1  0  0  0  0
  9 10  1  0  0  0  0
  9 11  1  0  0  0  0
  9 22  1  0  0  0  0
  7  8  1  0  0  0  0
  7  9  1  0  0  0  0
 26 27  1  0  0  0  0
 26 28  1  0  0  0  0
 26 29  1  0  0  0  0
 24 25  1  0  0  0  0
 24 26  1  0  0  0  0
M  END
$$$$
default_name
  -OEChem-01062215323D

 29 29  0     1  0  0  0  0  0999 V2000
   -2.9561   -3.9186    1.3887 H   0  0  0  0  0  0  0  0  0  0  0  0
   -3.1191   -2.9346    0.9517 C   0  0  0  0  0  0  0  0  0  0  0  0
   -3.7811   -2.3546    1.5917 H   0  0  0  0  0  0  0  0  0  0  0  0
   -3.5591   -3.0406   -0.0383 H   0  0  0  0  0  0  0  0  0  0  0  0
   -1.7921   -2.2226    0.8327 C   0  0  0  0  0  0  0  0  0  0  0  0
   -0.7611   -2.7766    1.1927 O   0  0  0  0  0  0  0  0  0  0  0  0
   -1.8201   -0.9926    0.3247 N   0  0  0  0  0  0  0  0  0  0  0  0
   -2.7141   -0.5816    0.0927 H   0  0  0  0  0  0  0  0  0  0  0  0
   -0.6481   -0.1156    0.2017 C   0  0  1  0  0  0  0  0  0  0  0  0
   -0.1144   -0.1250    1.1542 H   0  0  0  0  0  0  0  0  0  0  0  0
    0.2975   -0.6609   -0.8860 C   0  0  0  0  0  0  0  0  0  0  0  0
   -0.2455   -0.7718   -1.8257 H   0  0  0  0  0  0  0  0  0  0  0  0
    1.1096    0.0469   -1.0578 H   0  0  0  0  0  0  0  0  0  0  0  0
    0.8739   -2.0120   -0.5388 C   0  0  0  0  0  0  0  0  0  0  0  0
    1.8838   -2.2550    0.3930 N   0  0  0  0  0  0  0  0  0  0  0  0
    2.0500   -3.5854    0.4190 C   0  0  0  0  0  0  0  0  0  0  0  0
    2.7742   -4.1003    1.0376 H   0  0  0  0  0  0  0  0  0  0  0  0
    1.1876   -4.1826   -0.4205 N   0  0  0  0  0  0  0  0  0  0  0  0
    1.1041   -5.1798   -0.5637 H   0  0  0  0  0  0  0  0  0  0  0  0
    0.4336   -3.2055   -1.0316 C   0  0  0  0  0  0  0  0  0  0  0  0
   -0.3682   -3.3396   -1.7468 H   0  0  0  0  0  0  0  0  0  0  0  0
   -1.0813    1.3364   -0.0688 C   0  0  0  0  0  0  0  0  0  0  0  0
   -2.2771    1.6186   -0.1442 O   0  0  0  0  0  0  0  0  0  0  0  0
   -0.1197    2.2549   -0.2052 N   0  0  0  0  0  0  0  0  0  0  0  0
    0.8363    1.9187   -0.2350 H   0  0  0  0  0  0  0  0  0  0  0  0
   -0.3529    3.6762   -0.4507 C   0  0  0  0  0  0  0  0  0  0  0  0
   -1.2483    4.0072    0.0817 H   0  0  0  0  0  0  0  0  0  0  0  0
    0.5031    4.2575   -0.1053 H   0  0  0  0  0  0  0  0  0  0  0  0
   -0.4965    3.8435   -1.5194 H   0  0  0  0  0  0  0  0  0  0  0  0
  5  6  2  0  0  0  0
  5  7  1  0  0  0  0
  2  3  1  0  0  0  0
  2  4  1  0  0  0  0
  2  5  1  0  0  0  0
  1  2  1  0  0  0  0
 22 23  2  0  0  0  0
 22 24  1  0  0  0  0
 20 21  1  0  0  0  0
 18 19  1  0  0  0  0
 18 20  1  0  0  0  0
 16 17  1  0  0  0  0
 16 18  1  0  0  0  0
 15 16  2  0  0  0  0
 14 15  1  0  0  0  0
 14 20  2  0  0  0  0
 11 12  1  0  0  0  0
 11 13  1  0  0  0  0
 11 14  1  0  0  0  0
  9 10  1  0  0  0  0
  9 11  1  0  0  0  0
  9 22  1  0  0  0  0
  7  8  1  0  0  0  0
  7  9  1  0  0  0  0
 26 27  1  0  0  0  0
 26 28  1  0  0  0  0
 26 29  1  0  0  0  0
 24 25  1  0  0  0  0
 24 26  1  0  0  0  0
M  END
$$$$
default_name
  -OEChem-01062215323D

 29 29  0     1  0  0  0  0  0999 V2000
   -2.9561   -3.9186    1.3887 H   0  0  0  0  0  0  0  0  0  0  0  0
   -3.1191   -2.9346    0.9517 C   0  0  0  0  0  0  0  0  0  0  0  0
   -3.7811   -2.3546    1.5917 H   0  0  0  0  0  0  0  0  0  0  0  0
   -3.5591   -3.0406   -0.0383 H   0  0  0  0  0  0  0  0  0  0  0  0
   -1.7921   -2.2226    0.8327 C   0  0  0  0  0  0  0  0  0  0  0  0
   -0.7611   -2.7766    1.1927 O   0  0  0  0  0  0  0  0  0  0  0  0
   -1.8201   -0.9926    0.3247 N   0  0  0  0  0  0  0  0  0  0  0  0
   -2.7141   -0.5816    0.0927 H   0  0  0  0  0  0  0  0  0  0  0  0
   -0.6481   -0.1156    0.2017 C   0  0  1  0  0  0  0  0  0  0  0  0
   -0.1144   -0.1250    1.1542 H   0  0  0  0  0  0  0  0  0  0  0  0
    0.2975   -0.6609   -0.8860 C   0  0  0  0  0  0  0  0  0  0  0  0
   -0.2455   -0.7718   -1.8257 H   0  0  0  0  0  0  0  0  0  0  0  0
    1.1096    0.0469   -1.0578 H   0  0  0  0  0  0  0  0  0  0  0  0
    0.8739   -2.0120   -0.5388 C   0  0  0  0  0  0  0  0  0  0  0  0
    1.8838   -2.2550    0.3930 N   0  0  0  0  0  0  0  0  0  0  0  0
    2.0500   -3.5854    0.4190 C   0  0  0  0  0  0  0  0  0  0  0  0
    2.7742   -4.1003    1.0376 H   0  0  0  0  0  0  0  0  0  0  0  0
    1.1876   -4.1826   -0.4205 N   0  0  0  0  0  0  0  0  0  0  0  0
    1.1041   -5.1798   -0.5637 H   0  0  0  0  0  0  0  0  0  0  0  0
    0.4336   -3.2055   -1.0316 C   0  0  0  0  0  0  0  0  0  0  0  0
   -0.3682   -3.3396   -1.7468 H   0  0  0  0  0  0  0  0  0  0  0  0
   -1.0813    1.3364   -0.0688 C   0  0  0  0  0  0  0  0  0  0  0  0
   -2.2478    1.6777    0.1261 O   0  0  0  0  0  0  0  0  0  0  0  0
   -0.1500    2.1899   -0.5059 N   0  0  0  0  0  0  0  0  0  0  0  0
    0.7565    1.8008   -0.7401 H   0  0  0  0  0  0  0  0  0  0  0  0
   -0.3844    3.6020   -0.7983 C   0  0  0  0  0  0  0  0  0  0  0  0
   -1.1087    4.0164   -0.0924 H   0  0  0  0  0  0  0  0  0  0  0  0
    0.5509    4.1577   -0.7176 H   0  0  0  0  0  0  0  0  0  0  0  0
   -0.7801    3.7047   -1.8101 H   0  0  0  0  0  0  0  0  0  0  0  0
  5  6  2  0  0  0  0
  5  7  1  0  0  0  0
  2  3  1  0  0  0  0
  2  4  1  0  0  0  0
  2  5  1  0  0  0  0
  1  2  1  0  0  0  0
 22 23  2  0  0  0  0
 22 24  1  0  0  0  0
 20 21  1  0  0  0  0
 18 19  1  0  0  0  0
 18 20  1  0  0  0  0
 16 17  1  0  0  0  0
 16 18  1  0  0  0  0
 15 16  2  0  0  0  0
 14 15  1  0  0  0  0
 14 20  2  0  0  0  0
 11 12  1  0  0  0  0
 11 13  1  0  0  0  0
 11 14  1  0  0  0  0
  9 10  1  0  0  0  0
  9 11  1  0  0  0  0
  9 22  1  0  0  0  0
  7  8  1  0  0  0  0
  7  9  1  0  0  0  0
 26 27  1  0  0  0  0
 26 28  1  0  0  0  0
 26 29  1  0  0  0  0
 24 25  1  0  0  0  0
 24 26  1  0  0  0  0
M  END
$$$$
default_name
  -OEChem-01062215323D

 29 29  0     1  0  0  0  0  0999 V2000
   -2.9561   -3.9186    1.3887 H   0  0  0  0  0  0  0  0  0  0  0  0
   -3.1191   -2.9346    0.9517 C   0  0  0  0  0  0  0  0  0  0  0  0
   -3.7811   -2.3546    1.5917 H   0  0  0  0  0  0  0  0  0  0  0  0
   -3.5591   -3.0406   -0.0383 H   0  0  0  0  0  0  0  0  0  0  0  0
   -1.7921   -2.2226    0.8327 C   0  0  0  0  0  0  0  0  0  0  0  0
   -0.7611   -2.7766    1.1927 O   0  0  0  0  0  0  0  0  0  0  0  0
   -1.8201   -0.9926    0.3247 N   0  0  0  0  0  0  0  0  0  0  0  0
   -2.7141   -0.5816    0.0927 H   0  0  0  0  0  0  0  0  0  0  0  0
   -0.6481   -0.1156    0.2017 C   0  0  1  0  0  0  0  0  0  0  0  0
   -0.1144   -0.1250    1.1542 H   0  0  0  0  0  0  0  0  0  0  0  0
    0.2975   -0.6609   -0.8860 C   0  0  0  0  0  0  0  0  0  0  0  0
   -0.2455   -0.7718   -1.8257 H   0  0  0  0  0  0  0  0  0  0  0  0
    1.1096    0.0469   -1.0578 H   0  0  0  0  0  0  0  0  0  0  0  0
    0.8739   -2.0120   -0.5388 C   0  0  0  0  0  0  0  0  0  0  0  0
    1.8838   -2.2550    0.3930 N   0  0  0  0  0  0  0  0  0  0  0  0
    2.0500   -3.5854    0.4190 C   0  0  0  0  0  0  0  0  0  0  0  0
    2.7742   -4.1003    1.0376 H   0  0  0  0  0  0  0  0  0  0  0  0
    1.1876   -4.1826   -0.4205 N   0  0  0  0  0  0  0  0  0  0  0  0
    1.1041   -5.1798   -0.5637 H   0  0  0  0  0  0  0  0  0  0  0  0
    0.4336   -3.2055   -1.0316 C   0  0  0  0  0  0  0  0  0  0  0  0
   -0.3682   -3.3396   -1.7468 H   0  0  0  0  0  0  0  0  0  0  0  0
   -1.0813    1.3364   -0.0688 C   0  0  0  0  0  0  0  0  0  0  0  0
   -2.1509    1.7532    0.3758 O   0  0  0  0  0  0  0  0  0  0  0  0
   -0.2555    2.1065   -0.7843 N   0  0  0  0  0  0  0  0  0  0  0  0
    0.5507    1.6537   -1.2000 H   0  0  0  0  0  0  0  0  0  0  0  0
   -0.5030    3.5065   -1.1210 C   0  0  0  0  0  0  0  0  0  0  0  0
   -1.0160    4.0063   -0.2953 H   0  0  0  0  0  0  0  0  0  0  0  0
    0.4430    4.0145   -1.3133 H   0  0  0  0  0  0  0  0  0  0  0  0
   -1.1313    3.5624   -2.0115 H   0  0  0  0  0  0  0  0  0  0  0  0
  5  6  2  0  0  0  0
  5  7  1  0  0  0  0
  2  3  1  0  0  0  0
  2  4  1  0  0  0  0
  2  5  1  0  0  0  0
  1  2  1  0  0  0  0
 22 23  2  0  0  0  0
 22 24  1  0  0  0  0
 20 21  1  0  0  0  0
 18 19  1  0  0  0  0
 18 20  1  0  0  0  0
 16 17  1  0  0  0  0
 16 18  1  0  0  0  0
 15 16  2  0  0  0  0
 14 15  1  0  0  0  0
 14 20  2  0  0  0  0
 11 12  1  0  0  0  0
 11 13  1  0  0  0  0
 11 14  1  0  0  0  0
  9 10  1  0  0  0  0
  9 11  1  0  0  0  0
  9 22  1  0  0  0  0
  7  8  1  0  0  0  0
  7  9  1  0  0  0  0
 26 27  1  0  0  0  0
 26 28  1  0  0  0  0
 26 29  1  0  0  0  0
 24 25  1  0  0  0  0
 24 26  1  0  0  0  0
M  END
$$$$
default_name
  -OEChem-01062215323D

 29 29  0     1  0  0  0  0  0999 V2000
   -2.9561   -3.9186    1.3887 H   0  0  0  0  0  0  0  0  0  0  0  0
   -3.1191   -2.9346    0.9517 C   0  0  0  0  0  0  0  0  0  0  0  0
   -3.7811   -2.3546    1.5917 H   0  0  0  0  0  0  0  0  0  0  0  0
   -3.5591   -3.0406   -0.0383 H   0  0  0  0  0  0  0  0  0  0  0  0
   -1.7921   -2.2226    0.8327 C   0  0  0  0  0  0  0  0  0  0  0  0
   -0.7611   -2.7766    1.1927 O   0  0  0  0  0  0  0  0  0  0  0  0
   -1.8201   -0.9926    0.3247 N   0  0  0  0  0  0  0  0  0  0  0  0
   -2.7141   -0.5816    0.0927 H   0  0  0  0  0  0  0  0  0  0  0  0
   -0.6481   -0.1156    0.2017 C   0  0  1  0  0  0  0  0  0  0  0  0
   -0.1144   -0.1250    1.1542 H   0  0  0  0  0  0  0  0  0  0  0  0
    0.2975   -0.6609   -0.8860 C   0  0  0  0  0  0  0  0  0  0  0  0
   -0.2455   -0.7718   -1.8257 H   0  0  0  0  0  0  0  0  0  0  0  0
    1.1096    0.0469   -1.0578 H   0  0  0  0  0  0  0  0  0  0  0  0
    0.8739   -2.0120   -0.5388 C   0  0  0  0  0  0  0  0  0  0  0  0
    1.8838   -2.2550    0.3930 N   0  0  0  0  0  0  0  0  0  0  0  0
    2.0500   -3.5854    0.4190 C   0  0  0  0  0  0  0  0  0  0  0  0
    2.7742   -4.1003    1.0376 H   0  0  0  0  0  0  0  0  0  0  0  0
    1.1876   -4.1826   -0.4205 N   0  0  0  0  0  0  0  0  0  0  0  0
    1.1041   -5.1798   -0.5637 H   0  0  0  0  0  0  0  0  0  0  0  0
    0.4336   -3.2055   -1.0316 C   0  0  0  0  0  0  0  0  0  0  0  0
   -0.3682   -3.3396   -1.7468 H   0  0  0  0  0  0  0  0  0  0  0  0
   -1.0813    1.3364   -0.0688 C   0  0  0  0  0  0  0  0  0  0  0  0
   -1.9928    1.8398    0.5877 O   0  0  0  0  0  0  0  0  0  0  0  0
   -0.4292    2.0105   -1.0213 N   0  0  0  0  0  0  0  0  0  0  0  0
    0.2330    1.4875   -1.5833 H   0  0  0  0  0  0  0  0  0  0  0  0
   -0.7007    3.3961   -1.3968 C   0  0  0  0  0  0  0  0  0  0  0  0
   -0.9764    3.9775   -0.5132 H   0  0  0  0  0  0  0  0  0  0  0  0
    0.1869    3.8378   -1.8520 H   0  0  0  0  0  0  0  0  0  0  0  0
   -1.5262    3.4263   -2.1099 H   0  0  0  0  0  0  0  0  0  0  0  0
  5  6  2  0  0  0  0
  5  7  1  0  0  0  0
  2  3  1  0  0  0  0
  2  4  1  0  0  0  0
  2  5  1  0  0  0  0
  1  2  1  0  0  0  0
 22 23  2  0  0  0  0
 22 24  1  0  0  0  0
 20 21  1  0  0  0  0
 18 19  1  0  0  0  0
 18 20  1  0  0  0  0
 16 17  1  0  0  0  0
 16 18  1  0  0  0  0
 15 16  2  0  0  0  0
 14 15  1  0  0  0  0
 14 20  2  0  0  0  0
 11 12  1  0  0  0  0
 11 13  1  0  0  0  0
 11 14  1  0  0  0  0
  9 10  1  0  0  0  0
  9 11  1  0  0  0  0
  9 22  1  0  0  0  0
  7  8  1  0  0  0  0
  7  9  1  0  0  0  0
 26 27  1  0  0  0  0
 26 28  1  0  0  0  0
 26 29  1  0  0  0  0
 24 25  1  0  0  0  0
 24 26  1  0  0  0  0
M  END
$$$$
default_name
  -OEChem-01062215323D

 29 29  0     1  0  0  0  0  0999 V2000
   -2.9561   -3.9186    1.3887 H   0  0  0  0  0  0  0  0  0  0  0  0
   -3.1191   -2.9346    0.9517 C   0  0  0  0  0  0  0  0  0  0  0  0
   -3.7811   -2.3546    1.5917 H   0  0  0  0  0  0  0  0  0  0  0  0
   -3.5591   -3.0406   -0.0383 H   0  0  0  0  0  0  0  0  0  0  0  0
   -1.7921   -2.2226    0.8327 C   0  0  0  0  0  0  0  0  0  0  0  0
   -0.7611   -2.7766    1.1927 O   0  0  0  0  0  0  0  0  0  0  0  0
   -1.8201   -0.9926    0.3247 N   0  0  0  0  0  0  0  0  0  0  0  0
   -2.7141   -0.5816    0.0927 H   0  0  0  0  0  0  0  0  0  0  0  0
   -0.6481   -0.1156    0.2017 C   0  0  1  0  0  0  0  0  0  0  0  0
   -0.1144   -0.1250    1.1542 H   0  0  0  0  0  0  0  0  0  0  0  0
    0.2975   -0.6609   -0.8860 C   0  0  0  0  0  0  0  0  0  0  0  0
   -0.2455   -0.7718   -1.8257 H   0  0  0  0  0  0  0  0  0  0  0  0
    1.1096    0.0469   -1.0578 H   0  0  0  0  0  0  0  0  0  0  0  0
    0.8739   -2.0120   -0.5388 C   0  0  0  0  0  0  0  0  0  0  0  0
    1.8838   -2.2550    0.3930 N   0  0  0  0  0  0  0  0  0  0  0  0
    2.0500   -3.5854    0.4190 C   0  0  0  0  0  0  0  0  0  0  0  0
    2.7742   -4.1003    1.0376 H   0  0  0  0  0  0  0  0  0  0  0  0
    1.1876   -4.1826   -0.4205 N   0  0  0  0  0  0  0  0  0  0  0  0
    1.1041   -5.1798   -0.5637 H   0  0  0  0  0  0  0  0  0  0  0  0
    0.4336   -3.2055   -1.0316 C   0  0  0  0  0  0  0  0  0  0  0  0
   -0.3682   -3.3396   -1.7468 H   0  0  0  0  0  0  0  0  0  0  0  0
   -1.0813    1.3364   -0.0688 C   0  0  0  0  0  0  0  0  0  0  0  0
   -1.7844    1.9317    0.7475 O   0  0  0  0  0  0  0  0  0  0  0  0
   -0.6593    1.9085   -1.2009 N   0  0  0  0  0  0  0  0  0  0  0  0
   -0.1750    1.3135   -1.8638 H   0  0  0  0  0  0  0  0  0  0  0  0
   -0.9641    3.2784   -1.6069 C   0  0  0  0  0  0  0  0  0  0  0  0
   -0.9927    3.9320   -0.7312 H   0  0  0  0  0  0  0  0  0  0  0  0
   -0.2001    3.6394   -2.2969 H   0  0  0  0  0  0  0  0  0  0  0  0
   -1.9378    3.3056   -2.0987 H   0  0  0  0  0  0  0  0  0  0  0  0
  5  6  2  0  0  0  0
  5  7  1  0  0  0  0
  2  3  1  0  0  0  0
  2  4  1  0  0  0  0
  2  5  1  0  0  0  0
  1  2  1  0  0  0  0
 22 23  2  0  0  0  0
 22 24  1  0  0  0  0
 20 21  1  0  0  0  0
 18 19  1  0  0  0  0
 18 20  1  0  0  0  0
 16 17  1  0  0  0  0
 16 18  1  0  0  0  0
 15 16  2  0  0  0  0
 14 15  1  0  0  0  0
 14 20  2  0  0  0  0
 11 12  1  0  0  0  0
 11 13  1  0  0  0  0
 11 14  1  0  0  0  0
  9 10  1  0  0  0  0
  9 11  1  0  0  0  0
  9 22  1  0  0  0  0
  7  8  1  0  0  0  0
  7  9  1  0  0  0  0
 26 27  1  0  0  0  0
 26 28  1  0  0  0  0
 26 29  1  0  0  0  0
 24 25  1  0  0  0  0
 24 26  1  0  0  0  0
M  END
$$$$
default_name
  -OEChem-01062215323D

 29 29  0     1  0  0  0  0  0999 V2000
   -2.9561   -3.9186    1.3887 H   0  0  0  0  0  0  0  0  0  0  0  0
   -3.1191   -2.9346    0.9517 C   0  0  0  0  0  0  0  0  0  0  0  0
   -3.7811   -2.3546    1.5917 H   0  0  0  0  0  0  0  0  0  0  0  0
   -3.5591   -3.0406   -0.0383 H   0  0  0  0  0  0  0  0  0  0  0  0
   -1.7921   -2.2226    0.8327 C   0  0  0  0  0  0  0  0  0  0  0  0
   -0.7611   -2.7766    1.1927 O   0  0  0  0  0  0  0  0  0  0  0  0
   -1.8201   -0.9926    0.3247 N   0  0  0  0  0  0  0  0  0  0  0  0
   -2.7141   -0.5816    0.0927 H   0  0  0  0  0  0  0  0  0  0  0  0
   -0.6481   -0.1156    0.2017 C   0  0  1  0  0  0  0  0  0  0  0  0
   -0.1144   -0.1250    1.1542 H   0  0  0  0  0  0  0  0  0  0  0  0
    0.2975   -0.6609   -0.8860 C   0  0  0  0  0  0  0  0  0  0  0  0
   -0.2455   -0.7718   -1.8257 H   0  0  0  0  0  0  0  0  0  0  0  0
    1.1096    0.0469   -1.0578 H   0  0  0  0  0  0  0  0  0  0  0  0
    0.8739   -2.0120   -0.5388 C   0  0  0  0  0  0  0  0  0  0  0  0
    1.8838   -2.2550    0.3930 N   0  0  0  0  0  0  0  0  0  0  0  0
    2.0500   -3.5854    0.4190 C   0  0  0  0  0  0  0  0  0  0  0  0
    2.7742   -4.1003    1.0376 H   0  0  0  0  0  0  0  0  0  0  0  0
    1.1876   -4.1826   -0.4205 N   0  0  0  0  0  0  0  0  0  0  0  0
    1.1041   -5.1798   -0.5637 H   0  0  0  0  0  0  0  0  0  0  0  0
    0.4336   -3.2055   -1.0316 C   0  0  0  0  0  0  0  0  0  0  0  0
   -0.3682   -3.3396   -1.7468 H   0  0  0  0  0  0  0  0  0  0  0  0
   -1.0813    1.3364   -0.0688 C   0  0  0  0  0  0  0  0  0  0  0  0
   -1.5400    2.0227    0.8444 O   0  0  0  0  0  0  0  0  0  0  0  0
   -0.9300    1.8072   -1.3107 N   0  0  0  0  0  0  0  0  0  0  0  0
   -0.6456    1.1436   -2.0225 H   0  0  0  0  0  0  0  0  0  0  0  0
   -1.2751    3.1614   -1.7369 C   0  0  0  0  0  0  0  0  0  0  0  0
   -1.0637    3.8729   -0.9346 H   0  0  0  0  0  0  0  0  0  0  0  0
   -0.6916    3.4330   -2.6178 H   0  0  0  0  0  0  0  0  0  0  0  0
   -2.3382    3.2086   -1.9785 H   0  0  0  0  0  0  0  0  0  0  0  0
  5  6  2  0  0  0  0
  5  7  1  0  0  0  0
  2  3  1  0  0  0  0
  2  4  1  0  0  0  0
  2  5  1  0  0  0  0
  1  2  1  0  0  0  0
 22 23  2  0  0  0  0
 22 24  1  0  0  0  0
 20 21  1  0  0  0  0
 18 19  1  0  0  0  0
 18 20  1  0  0  0  0
 16 17  1  0  0  0  0
 16 18  1  0  0  0  0
 15 16  2  0  0  0  0
 14 15  1  0  0  0  0
 14 20  2  0  0  0  0
 11 12  1  0  0  0  0
 11 13  1  0  0  0  0
 11 14  1  0  0  0  0
  9 10  1  0  0  0  0
  9 11  1  0  0  0  0
  9 22  1  0  0  0  0
  7  8  1  0  0  0  0
  7  9  1  0  0  0  0
 26 27  1  0  0  0  0
 26 28  1  0  0  0  0
 26 29  1  0  0  0  0
 24 25  1  0  0  0  0
 24 26  1  0  0  0  0
M  END
$$$$
default_name
  -OEChem-01062215323D

 29 29  0     1  0  0  0  0  0999 V2000
   -2.9561   -3.9186    1.3887 H   0  0  0  0  0  0  0  0  0  0  0  0
   -3.1191   -2.9346    0.9517 C   0  0  0  0  0  0  0  0  0  0  0  0
   -3.7811   -2.3546    1.5917 H   0  0  0  0  0  0  0  0  0  0  0  0
   -3.5591   -3.0406   -0.0383 H   0  0  0  0  0  0  0  0  0  0  0  0
   -1.7921   -2.2226    0.8327 C   0  0  0  0  0  0  0  0  0  0  0  0
   -0.7611   -2.7766    1.1927 O   0  0  0  0  0  0  0  0  0  0  0  0
   -1.8201   -0.9926    0.3247 N   0  0  0  0  0  0  0  0  0  0  0  0
   -2.7141   -0.5816    0.0927 H   0  0  0  0  0  0  0  0  0  0  0  0
   -0.6481   -0.1156    0.2017 C   0  0  1  0  0  0  0  0  0  0  0  0
   -0.1144   -0.1250    1.1542 H   0  0  0  0  0  0  0  0  0  0  0  0
    0.2975   -0.6609   -0.8860 C   0  0  0  0  0  0  0  0  0  0  0  0
   -0.2455   -0.7718   -1.8257 H   0  0  0  0  0  0  0  0  0  0  0  0
    1.1096    0.0469   -1.0578 H   0  0  0  0  0  0  0  0  0  0  0  0
    0.8739   -2.0120   -0.5388 C   0  0  0  0  0  0  0  0  0  0  0  0
    1.8838   -2.2550    0.3930 N   0  0  0  0  0  0  0  0  0  0  0  0
    2.0500   -3.5854    0.4190 C   0  0  0  0  0  0  0  0  0  0  0  0
    2.7742   -4.1003    1.0376 H   0  0  0  0  0  0  0  0  0  0  0  0
    1.1876   -4.1826   -0.4205 N   0  0  0  0  0  0  0  0  0  0  0  0
    1.1041   -5.1798   -0.5637 H   0  0  0  0  0  0  0  0  0  0  0  0
    0.4336   -3.2055   -1.0316 C   0  0  0  0  0  0  0  0  0  0  0  0
   -0.3682   -3.3396   -1.7468 H   0  0  0  0  0  0  0  0  0  0  0  0
   -1.0813    1.3364   -0.0688 C   0  0  0  0  0  0  0  0  0  0  0  0
   -1.2761    2.1065    0.8716 O   0  0  0  0  0  0  0  0  0  0  0  0
   -1.2229    1.7138   -1.3433 N   0  0  0  0  0  0  0  0  0  0  0  0
   -1.1466    0.9893   -2.0485 H   0  0  0  0  0  0  0  0  0  0  0  0
   -1.6126    3.0531   -1.7781 C   0  0  0  0  0  0  0  0  0  0  0  0
   -1.1846    3.8043   -1.1093 H   0  0  0  0  0  0  0  0  0  0  0  0
   -1.2540    3.2327   -2.7926 H   0  0  0  0  0  0  0  0  0  0  0  0
   -2.7000    3.1418   -1.7576 H   0  0  0  0  0  0  0  0  0  0  0  0
  5  6  2  0  0  0  0
  5  7  1  0  0  0  0
  2  3  1  0  0  0  0
  2  4  1  0  0  0  0
  2  5  1  0  0  0  0
  1  2  1  0  0  0  0
 22 23  2  0  0  0  0
 22 24  1  0  0  0  0
 20 21  1  0  0  0  0
 18 19  1  0  0  0  0
 18 20  1  0  0  0  0
 16 17  1  0  0  0  0
 16 18  1  0  0  0  0
 15 16  2  0  0  0  0
 14 15  1  0  0  0  0
 14 20  2  0  0  0  0
 11 12  1  0  0  0  0
 11 13  1  0  0  0  0
 11 14  1  0  0  0  0
  9 10  1  0  0  0  0
  9 11  1  0  0  0  0
  9 22  1  0  0  0  0
  7  8  1  0  0  0  0
  7  9  1  0  0  0  0
 26 27  1  0  0  0  0
 26 28  1  0  0  0  0
 26 29  1  0  0  0  0
 24 25  1  0  0  0  0
 24 26  1  0  0  0  0
M  END
$$$$
default_name
  -OEChem-01062215323D

 29 29  0     1  0  0  0  0  0999 V2000
   -2.9561   -3.9186    1.3887 H   0  0  0  0  0  0  0  0  0  0  0  0
   -3.1191   -2.9346    0.9517 C   0  0  0  0  0  0  0  0  0  0  0  0
   -3.7811   -2.3546    1.5917 H   0  0  0  0  0  0  0  0  0  0  0  0
   -3.5591   -3.0406   -0.0383 H   0  0  0  0  0  0  0  0  0  0  0  0
   -1.7921   -2.2226    0.8327 C   0  0  0  0  0  0  0  0  0  0  0  0
   -0.7611   -2.7766    1.1927 O   0  0  0  0  0  0  0  0  0  0  0  0
   -1.8201   -0.9926    0.3247 N   0  0  0  0  0  0  0  0  0  0  0  0
   -2.7141   -0.5816    0.0927 H   0  0  0  0  0  0  0  0  0  0  0  0
   -0.6481   -0.1156    0.2017 C   0  0  1  0  0  0  0  0  0  0  0  0
   -0.1144   -0.1250    1.1542 H   0  0  0  0  0  0  0  0  0  0  0  0
    0.2975   -0.6609   -0.8860 C   0  0  0  0  0  0  0  0  0  0  0  0
   -0.2455   -0.7718   -1.8257 H   0  0  0  0  0  0  0  0  0  0  0  0
    1.1096    0.0469   -1.0578 H   0  0  0  0  0  0  0  0  0  0  0  0
    0.8739   -2.0120   -0.5388 C   0  0  0  0  0  0  0  0  0  0  0  0
    1.8838   -2.2550    0.3930 N   0  0  0  0  0  0  0  0  0  0  0  0
    2.0500   -3.5854    0.4190 C   0  0  0  0  0  0  0  0  0  0  0  0
    2.7742   -4.1003    1.0376 H   0  0  0  0  0  0  0  0  0  0  0  0
    1.1876   -4.1826   -0.4205 N   0  0  0  0  0  0  0  0  0  0  0  0
    1.1041   -5.1798   -0.5637 H   0  0  0  0  0  0  0  0  0  0  0  0
    0.4336   -3.2055   -1.0316 C   0  0  0  0  0  0  0  0  0  0  0  0
   -0.3682   -3.3396   -1.7468 H   0  0  0  0  0  0  0  0  0  0  0  0
   -1.0813    1.3364   -0.0688 C   0  0  0  0  0  0  0  0  0  0  0  0
   -1.0107    2.1774    0.8273 O   0  0  0  0  0  0  0  0  0  0  0  0
   -1.5180    1.6345   -1.2965 N   0  0  0  0  0  0  0  0  0  0  0  0
   -1.6438    0.8611   -1.9400 H   0  0  0  0  0  0  0  0  0  0  0  0
   -1.9536    2.9608   -1.7275 C   0  0  0  0  0  0  0  0  0  0  0  0
   -1.3472    3.7308   -1.2436 H   0  0  0  0  0  0  0  0  0  0  0  0
   -1.8491    3.0520   -2.8096 H   0  0  0  0  0  0  0  0  0  0  0  0
   -2.9986    3.1098   -1.4510 H   0  0  0  0  0  0  0  0  0  0  0  0
  5  6  2  0  0  0  0
  5  7  1  0  0  0  0
  2  3  1  0  0  0  0
  2  4  1  0  0  0  0
  2  5  1  0  0  0  0
  1  2  1  0  0  0  0
 22 23  2  0  0  0  0
 22 24  1  0  0  0  0
 20 21  1  0  0  0  0
 18 19  1  0  0  0  0
 18 20  1  0  0  0  0
 16 17  1  0  0  0  0
 16 18  1  0  0  0  0
 15 16  2  0  0  0  0
 14 15  1  0  0  0  0
 14 20  2  0  0  0  0
 11 12  1  0  0  0  0
 11 13  1  0  0  0  0
 11 14  1  0  0  0  0
  9 10  1  0  0  0  0
  9 11  1  0  0  0  0
  9 22  1  0  0  0  0
  7  8  1  0  0  0  0
  7  9  1  0  0  0  0
 26 27  1  0  0  0  0
 26 28  1  0  0  0  0
 26 29  1  0  0  0  0
 24 25  1  0  0  0  0
 24 26  1  0  0  0  0
M  END
$$$$
default_name
  -OEChem-01062215323D

 29 29  0     1  0  0  0  0  0999 V2000
   -2.9561   -3.9186    1.3887 H   0  0  0  0  0  0  0  0  0  0  0  0
   -3.1191   -2.9346    0.9517 C   0  0  0  0  0  0  0  0  0  0  0  0
   -3.7811   -2.3546    1.5917 H   0  0  0  0  0  0  0  0  0  0  0  0
   -3.5591   -3.0406   -0.0383 H   0  0  0  0  0  0  0  0  0  0  0  0
   -1.7921   -2.2226    0.8327 C   0  0  0  0  0  0  0  0  0  0  0  0
   -0.7611   -2.7766    1.1927 O   0  0  0  0  0  0  0  0  0  0  0  0
   -1.8201   -0.9926    0.3247 N   0  0  0  0  0  0  0  0  0  0  0  0
   -2.7141   -0.5816    0.0927 H   0  0  0  0  0  0  0  0  0  0  0  0
   -0.6481   -0.1156    0.2017 C   0  0  1  0  0  0  0  0  0  0  0  0
   -0.1144   -0.1250    1.1542 H   0  0  0  0  0  0  0  0  0  0  0  0
    0.2975   -0.6609   -0.8860 C   0  0  0  0  0  0  0  0  0  0  0  0
   -0.2455   -0.7718   -1.8257 H   0  0  0  0  0  0  0  0  0  0  0  0
    1.1096    0.0469   -1.0578 H   0  0  0  0  0  0  0  0  0  0  0  0
    0.8739   -2.0120   -0.5388 C   0  0  0  0  0  0  0  0  0  0  0  0
    1.8838   -2.2550    0.3930 N   0  0  0  0  0  0  0  0  0  0  0  0
    2.0500   -3.5854    0.4190 C   0  0  0  0  0  0  0  0  0  0  0  0
    2.7742   -4.1003    1.0376 H   0  0  0  0  0  0  0  0  0  0  0  0
    1.1876   -4.1826   -0.4205 N   0  0  0  0  0  0  0  0  0  0  0  0
    1.1041   -5.1798   -0.5637 H   0  0  0  0  0  0  0  0  0  0  0  0
    0.4336   -3.2055   -1.0316 C   0  0  0  0  0  0  0  0  0  0  0  0
   -0.3682   -3.3396   -1.7468 H   0  0  0  0  0  0  0  0  0  0  0  0
   -1.0813    1.3364   -0.0688 C   0  0  0  0  0  0  0  0  0  0  0  0
   -0.7619    2.2306    0.7146 O   0  0  0  0  0  0  0  0  0  0  0  0
   -1.7952    1.5747   -1.1735 N   0  0  0  0  0  0  0  0  0  0  0  0
   -2.1035    0.7679   -1.7045 H   0  0  0  0  0  0  0  0  0  0  0  0
   -2.2748    2.8908   -1.5888 C   0  0  0  0  0  0  0  0  0  0  0  0
   -1.5404    3.6574   -1.3282 H   0  0  0  0  0  0  0  0  0  0  0  0
   -2.4363    2.9033   -2.6676 H   0  0  0  0  0  0  0  0  0  0  0  0
   -3.2136    3.1149   -1.0797 H   0  0  0  0  0  0  0  0  0  0  0  0
  5  6  2  0  0  0  0
  5  7  1  0  0  0  0
  2  3  1  0  0  0  0
  2  4  1  0  0  0  0
  2  5  1  0  0  0  0
  1  2  1  0  0  0  0
 22 23  2  0  0  0  0
 22 24  1  0  0  0  0
 20 21  1  0  0  0  0
 18 19  1  0  0  0  0
 18 20  1  0  0  0  0
 16 17  1  0  0  0  0
 16 18  1  0  0  0  0
 15 16  2  0  0  0  0
 14 15  1  0  0  0  0
 14 20  2  0  0  0  0
 11 12  1  0  0  0  0
 11 13  1  0  0  0  0
 11 14  1  0  0  0  0
  9 10  1  0  0  0  0
  9 11  1  0  0  0  0
  9 22  1  0  0  0  0
  7  8  1  0  0  0  0
  7  9  1  0  0  0  0
 26 27  1  0  0  0  0
 26 28  1  0  0  0  0
 26 29  1  0  0  0  0
 24 25  1  0  0  0  0
 24 26  1  0  0  0  0
M  END
$$$$
default_name
  -OEChem-01062215323D

 29 29  0     1  0  0  0  0  0999 V2000
   -2.9561   -3.9186    1.3887 H   0  0  0  0  0  0  0  0  0  0  0  0
   -3.1191   -2.9346    0.9517 C   0  0  0  0  0  0  0  0  0  0  0  0
   -3.7811   -2.3546    1.5917 H   0  0  0  0  0  0  0  0  0  0  0  0
   -3.5591   -3.0406   -0.0383 H   0  0  0  0  0  0  0  0  0  0  0  0
   -1.7921   -2.2226    0.8327 C   0  0  0  0  0  0  0  0  0  0  0  0
   -0.7611   -2.7766    1.1927 O   0  0  0  0  0  0  0  0  0  0  0  0
   -1.8201   -0.9926    0.3247 N   0  0  0  0  0  0  0  0  0  0  0  0
   -2.7141   -0.5816    0.0927 H   0  0  0  0  0  0  0  0  0  0  0  0
   -0.6481   -0.1156    0.2017 C   0  0  1  0  0  0  0  0  0  0  0  0
   -0.1144   -0.1250    1.1542 H   0  0  0  0  0  0  0  0  0  0  0  0
    0.2975   -0.6609   -0.8860 C   0  0  0  0  0  0  0  0  0  0  0  0
   -0.2455   -0.7718   -1.8257 H   0  0  0  0  0  0  0  0  0  0  0  0
    1.1096    0.0469   -1.0578 H   0  0  0  0  0  0  0  0  0  0  0  0
    0.8739   -2.0120   -0.5388 C   0  0  0  0  0  0  0  0  0  0  0  0
    1.8838   -2.2550    0.3930 N   0  0  0  0  0  0  0  0  0  0  0  0
    2.0500   -3.5854    0.4190 C   0  0  0  0  0  0  0  0  0  0  0  0
    2.7742   -4.1003    1.0376 H   0  0  0  0  0  0  0  0  0  0  0  0
    1.1876   -4.1826   -0.4205 N   0  0  0  0  0  0  0  0  0  0  0  0
    1.1041   -5.1798   -0.5637 H   0  0  0  0  0  0  0  0  0  0  0  0
    0.4336   -3.2055   -1.0316 C   0  0  0  0  0  0  0  0  0  0  0  0
   -0.3682   -3.3396   -1.7468 H   0  0  0  0  0  0  0  0  0  0  0  0
   -1.0813    1.3364   -0.0688 C   0  0  0  0  0  0  0  0  0  0  0  0
   -0.5468    2.2625    0.5411 O   0  0  0  0  0  0  0  0  0  0  0  0
   -2.0357    1.5385   -0.9826 N   0  0  0  0  0  0  0  0  0  0  0  0
   -2.4943    0.7159   -1.3580 H   0  0  0  0  0  0  0  0  0  0  0  0
   -2.5543    2.8480   -1.3712 C   0  0  0  0  0  0  0  0  0  0  0  0
   -1.7510    3.5891   -1.3575 H   0  0  0  0  0  0  0  0  0  0  0  0
   -2.9756    2.7967   -2.3762 H   0  0  0  0  0  0  0  0  0  0  0  0
   -3.3304    3.1566   -0.6688 H   0  0  0  0  0  0  0  0  0  0  0  0
  5  6  2  0  0  0  0
  5  7  1  0  0  0  0
  2  3  1  0  0  0  0
  2  4  1  0  0  0  0
  2  5  1  0  0  0  0
  1  2  1  0  0  0  0
 22 23  2  0  0  0  0
 22 24  1  0  0  0  0
 20 21  1  0  0  0  0
 18 19  1  0  0  0  0
 18 20  1  0  0  0  0
 16 17  1  0  0  0  0
 16 18  1  0  0  0  0
 15 16  2  0  0  0  0
 14 15  1  0  0  0  0
 14 20  2  0  0  0  0
 11 12  1  0  0  0  0
 11 13  1  0  0  0  0
 11 14  1  0  0  0  0
  9 10  1  0  0  0  0
  9 11  1  0  0  0  0
  9 22  1  0  0  0  0
  7  8  1  0  0  0  0
  7  9  1  0  0  0  0
 26 27  1  0  0  0  0
 26 28  1  0  0  0  0
 26 29  1  0  0  0  0
 24 25  1  0  0  0  0
 24 26  1  0  0  0  0
M  END
$$$$
default_name
  -OEChem-01062215323D

 29 29  0     1  0  0  0  0  0999 V2000
   -2.9561   -3.9186    1.3887 H   0  0  0  0  0  0  0  0  0  0  0  0
   -3.1191   -2.9346    0.9517 C   0  0  0  0  0  0  0  0  0  0  0  0
   -3.7811   -2.3546    1.5917 H   0  0  0  0  0  0  0  0  0  0  0  0
   -3.5591   -3.0406   -0.0383 H   0  0  0  0  0  0  0  0  0  0  0  0
   -1.7921   -2.2226    0.8327 C   0  0  0  0  0  0  0  0  0  0  0  0
   -0.7611   -2.7766    1.1927 O   0  0  0  0  0  0  0  0  0  0  0  0
   -1.8201   -0.9926    0.3247 N   0  0  0  0  0  0  0  0  0  0  0  0
   -2.7141   -0.5816    0.0927 H   0  0  0  0  0  0  0  0  0  0  0  0
   -0.6481   -0.1156    0.2017 C   0  0  1  0  0  0  0  0  0  0  0  0
   -0.1144   -0.1250    1.1542 H   0  0  0  0  0  0  0  0  0  0  0  0
    0.2975   -0.6609   -0.8860 C   0  0  0  0  0  0  0  0  0  0  0  0
   -0.2455   -0.7718   -1.8257 H   0  0  0  0  0  0  0  0  0  0  0  0
    1.1096    0.0469   -1.0578 H   0  0  0  0  0  0  0  0  0  0  0  0
    0.8739   -2.0120   -0.5388 C   0  0  0  0  0  0  0  0  0  0  0  0
    1.8838   -2.2550    0.3930 N   0  0  0  0  0  0  0  0  0  0  0  0
    2.0500   -3.5854    0.4190 C   0  0  0  0  0  0  0  0  0  0  0  0
    2.7742   -4.1003    1.0376 H   0  0  0  0  0  0  0  0  0  0  0  0
    1.1876   -4.1826   -0.4205 N   0  0  0  0  0  0  0  0  0  0  0  0
    1.1041   -5.1798   -0.5637 H   0  0  0  0  0  0  0  0  0  0  0  0
    0.4336   -3.2055   -1.0316 C   0  0  0  0  0  0  0  0  0  0  0  0
   -0.3682   -3.3396   -1.7468 H   0  0  0  0  0  0  0  0  0  0  0  0
   -1.0813    1.3364   -0.0688 C   0  0  0  0  0  0  0  0  0  0  0  0
   -0.3798    2.2708    0.3187 O   0  0  0  0  0  0  0  0  0  0  0  0
   -2.2231    1.5284   -0.7369 N   0  0  0  0  0  0  0  0  0  0  0  0
   -2.7895    0.7087   -0.9241 H   0  0  0  0  0  0  0  0  0  0  0  0
   -2.7732    2.8351   -1.0896 C   0  0  0  0  0  0  0  0  0  0  0  0
   -1.9647    3.5306   -1.3293 H   0  0  0  0  0  0  0  0  0  0  0  0
   -3.4302    2.7395   -1.9553 H   0  0  0  0  0  0  0  0  0  0  0  0
   -3.3410    3.2321   -0.2465 H   0  0  0  0  0  0  0  0  0  0  0  0
  5  6  2  0  0  0  0
  5  7  1  0  0  0  0
  2  3  1  0  0  0  0
  2  4  1  0  0  0  0
  2  5  1  0  0  0  0
  1  2  1  0  0  0  0
 22 23  2  0  0  0  0
 22 24  1  0  0  0  0
 20 21  1  0  0  0  0
 18 19  1  0  0  0  0
 18 20  1  0  0  0  0
 16 17  1  0  0  0  0
 16 18  1  0  0  0  0
 15 16  2  0  0  0  0
 14 15  1  0  0  0  0
 14 20  2  0  0  0  0
 11 12  1  0  0  0  0
 11 13  1  0  0  0  0
 11 14  1  0  0  0  0
  9 10  1  0  0  0  0
  9 11  1  0  0  0  0
  9 22  1  0  0  0  0
  7  8  1  0  0  0  0
  7  9  1  0  0  0  0
 26 27  1  0  0  0  0
 26 28  1  0  0  0  0
 26 29  1  0  0  0  0
 24 25  1  0  0  0  0
 24 26  1  0  0  0  0
M  END
$$$$
default_name
  -OEChem-01062215323D

 29 29  0     1  0  0  0  0  0999 V2000
   -2.9561   -3.9186    1.3887 H   0  0  0  0  0  0  0  0  0  0  0  0
   -3.1191   -2.9346    0.9517 C   0  0  0  0  0  0  0  0  0  0  0  0
   -3.7811   -2.3546    1.5917 H   0  0  0  0  0  0  0  0  0  0  0  0
   -3.5591   -3.0406   -0.0383 H   0  0  0  0  0  0  0  0  0  0  0  0
   -1.7921   -2.2226    0.8327 C   0  0  0  0  0  0  0  0  0  0  0  0
   -0.7611   -2.7766    1.1927 O   0  0  0  0  0  0  0  0  0  0  0  0
   -1.8201   -0.9926    0.3247 N   0  0  0  0  0  0  0  0  0  0  0  0
   -2.7141   -0.5816    0.0927 H   0  0  0  0  0  0  0  0  0  0  0  0
   -0.6481   -0.1156    0.2017 C   0  0  1  0  0  0  0  0  0  0  0  0
   -0.1144   -0.1250    1.1542 H   0  0  0  0  0  0  0  0  0  0  0  0
    0.2975   -0.6609   -0.8860 C   0  0  0  0  0  0  0  0  0  0  0  0
   -0.2455   -0.7718   -1.8257 H   0  0  0  0  0  0  0  0  0  0  0  0
    1.1096    0.0469   -1.0578 H   0  0  0  0  0  0  0  0  0  0  0  0
    0.8739   -2.0120   -0.5388 C   0  0  0  0  0  0  0  0  0  0  0  0
    1.8838   -2.2550    0.3930 N   0  0  0  0  0  0  0  0  0  0  0  0
    2.0500   -3.5854    0.4190 C   0  0  0  0  0  0  0  0  0  0  0  0
    2.7742   -4.1003    1.0376 H   0  0  0  0  0  0  0  0  0  0  0  0
    1.1876   -4.1826   -0.4205 N   0  0  0  0  0  0  0  0  0  0  0  0
    1.1041   -5.1798   -0.5637 H   0  0  0  0  0  0  0  0  0  0  0  0
    0.4336   -3.2055   -1.0316 C   0  0  0  0  0  0  0  0  0  0  0  0
   -0.3682   -3.3396   -1.7468 H   0  0  0  0  0  0  0  0  0  0  0  0
   -1.0813    1.3364   -0.0688 C   0  0  0  0  0  0  0  0  0  0  0  0
   -0.2725    2.2551    0.0625 O   0  0  0  0  0  0  0  0  0  0  0  0
   -2.3445    1.5451   -0.4530 N   0  0  0  0  0  0  0  0  0  0  0  0
   -2.9691    0.7467   -0.4324 H   0  0  0  0  0  0  0  0  0  0  0  0
   -2.9164    2.8532   -0.7633 C   0  0  0  0  0  0  0  0  0  0  0  0
   -2.1669    3.4859   -1.2457 H   0  0  0  0  0  0  0  0  0  0  0  0
   -3.7691    2.7356   -1.4336 H   0  0  0  0  0  0  0  0  0  0  0  0
   -3.2447    3.3363    0.1585 H   0  0  0  0  0  0  0  0  0  0  0  0
  5  6  2  0  0  0  0
  5  7  1  0  0  0  0
  2  3  1  0  0  0  0
  2  4  1  0  0  0  0
  2  5  1  0  0  0  0
  1  2  1  0  0  0  0
 22 23  2  0  0  0  0
 22 24  1  0  0  0  0
 20 21  1  0  0  0  0
 18 19  1  0  0  0  0
 18 20  1  0  0  0  0
 16 17  1  0  0  0  0
 16 18  1  0  0  0  0
 15 16  2  0  0  0  0
 14 15  1  0  0  0  0
 14 20  2  0  0  0  0
 11 12  1  0  0  0  0
 11 13  1  0  0  0  0
 11 14  1  0  0  0  0
  9 10  1  0  0  0  0
  9 11  1  0  0  0  0
  9 22  1  0  0  0  0
  7  8  1  0  0  0  0
  7  9  1  0  0  0  0
 26 27  1  0  0  0  0
 26 28  1  0  0  0  0
 26 29  1  0  0  0  0
 24 25  1  0  0  0  0
 24 26  1  0  0  0  0
M  END
$$$$
default_name
  -OEChem-01062215323D

 29 29  0     1  0  0  0  0  0999 V2000
   -2.9561   -3.9186    1.3887 H   0  0  0  0  0  0  0  0  0  0  0  0
   -3.1191   -2.9346    0.9517 C   0  0  0  0  0  0  0  0  0  0  0  0
   -3.7811   -2.3546    1.5917 H   0  0  0  0  0  0  0  0  0  0  0  0
   -3.5591   -3.0406   -0.0383 H   0  0  0  0  0  0  0  0  0  0  0  0
   -1.7921   -2.2226    0.8327 C   0  0  0  0  0  0  0  0  0  0  0  0
   -0.7611   -2.7766    1.1927 O   0  0  0  0  0  0  0  0  0  0  0  0
   -1.8201   -0.9926    0.3247 N   0  0  0  0  0  0  0  0  0  0  0  0
   -2.7141   -0.5816    0.0927 H   0  0  0  0  0  0  0  0  0  0  0  0
   -0.6481   -0.1156    0.2017 C   0  0  1  0  0  0  0  0  0  0  0  0
   -0.1144   -0.1250    1.1542 H   0  0  0  0  0  0  0  0  0  0  0  0
    0.2975   -0.6609   -0.8860 C   0  0  0  0  0  0  0  0  0  0  0  0
   -0.2455   -0.7718   -1.8257 H   0  0  0  0  0  0  0  0  0  0  0  0
    1.1096    0.0469   -1.0578 H   0  0  0  0  0  0  0  0  0  0  0  0
    0.8739   -2.0120   -0.5388 C   0  0  0  0  0  0  0  0  0  0  0  0
    1.8838   -2.2550    0.3930 N   0  0  0  0  0  0  0  0  0  0  0  0
    2.0500   -3.5854    0.4190 C   0  0  0  0  0  0  0  0  0  0  0  0
    2.7742   -4.1003    1.0376 H   0  0  0  0  0  0  0  0  0  0  0  0
    1.1876   -4.1826   -0.4205 N   0  0  0  0  0  0  0  0  0  0  0  0
    1.1041   -5.1798   -0.5637 H   0  0  0  0  0  0  0  0  0  0  0  0
    0.4336   -3.2055   -1.0316 C   0  0  0  0  0  0  0  0  0  0  0  0
   -0.3682   -3.3396   -1.7468 H   0  0  0  0  0  0  0  0  0  0  0  0
   -1.0813    1.3364   -0.0688 C   0  0  0  0  0  0  0  0  0  0  0  0
   -0.2321    2.2164   -0.2101 O   0  0  0  0  0  0  0  0  0  0  0  0
   -2.3917    1.5874   -0.1504 N   0  0  0  0  0  0  0  0  0  0  0  0
   -3.0207    0.8275    0.0836 H   0  0  0  0  0  0  0  0  0  0  0  0
   -2.9743    2.9010   -0.4144 C   0  0  0  0  0  0  0  0  0  0  0  0
   -2.3438    3.4580   -1.1123 H   0  0  0  0  0  0  0  0  0  0  0  0
   -3.9693    2.7853   -0.8466 H   0  0  0  0  0  0  0  0  0  0  0  0
   -3.0480    3.4621    0.5186 H   0  0  0  0  0  0  0  0  0  0  0  0
  5  6  2  0  0  0  0
  5  7  1  0  0  0  0
  2  3  1  0  0  0  0
  2  4  1  0  0  0  0
  2  5  1  0  0  0  0
  1  2  1  0  0  0  0
 22 23  2  0  0  0  0
 22 24  1  0  0  0  0
 20 21  1  0  0  0  0
 18 19  1  0  0  0  0
 18 20  1  0  0  0  0
 16 17  1  0  0  0  0
 16 18  1  0  0  0  0
 15 16  2  0  0  0  0
 14 15  1  0  0  0  0
 14 20  2  0  0  0  0
 11 12  1  0  0  0  0
 11 13  1  0  0  0  0
 11 14  1  0  0  0  0
  9 10  1  0  0  0  0
  9 11  1  0  0  0  0
  9 22  1  0  0  0  0
  7  8  1  0  0  0  0
  7  9  1  0  0  0  0
 26 27  1  0  0  0  0
 26 28  1  0  0  0  0
 26 29  1  0  0  0  0
 24 25  1  0  0  0  0
 24 26  1  0  0  0  0
M  END
$$$$
default_name
  -OEChem-01062215323D

 29 29  0     1  0  0  0  0  0999 V2000
   -2.9561   -3.9186    1.3887 H   0  0  0  0  0  0  0  0  0  0  0  0
   -3.1191   -2.9346    0.9517 C   0  0  0  0  0  0  0  0  0  0  0  0
   -3.7811   -2.3546    1.5917 H   0  0  0  0  0  0  0  0  0  0  0  0
   -3.5591   -3.0406   -0.0383 H   0  0  0  0  0  0  0  0  0  0  0  0
   -1.7921   -2.2226    0.8327 C   0  0  0  0  0  0  0  0  0  0  0  0
   -0.7611   -2.7766    1.1927 O   0  0  0  0  0  0  0  0  0  0  0  0
   -1.8201   -0.9926    0.3247 N   0  0  0  0  0  0  0  0  0  0  0  0
   -2.7141   -0.5816    0.0927 H   0  0  0  0  0  0  0  0  0  0  0  0
   -0.6481   -0.1156    0.2017 C   0  0  1  0  0  0  0  0  0  0  0  0
   -0.1144   -0.1250    1.1542 H   0  0  0  0  0  0  0  0  0  0  0  0
    0.2975   -0.6609   -0.8860 C   0  0  0  0  0  0  0  0  0  0  0  0
   -0.2455   -0.7718   -1.8257 H   0  0  0  0  0  0  0  0  0  0  0  0
    1.1096    0.0469   -1.0578 H   0  0  0  0  0  0  0  0  0  0  0  0
    0.8739   -2.0120   -0.5388 C   0  0  0  0  0  0  0  0  0  0  0  0
    1.8838   -2.2550    0.3930 N   0  0  0  0  0  0  0  0  0  0  0  0
    2.0500   -3.5854    0.4190 C   0  0  0  0  0  0  0  0  0  0  0  0
    2.7742   -4.1003    1.0376 H   0  0  0  0  0  0  0  0  0  0  0  0
    1.1876   -4.1826   -0.4205 N   0  0  0  0  0  0  0  0  0  0  0  0
    1.1041   -5.1798   -0.5637 H   0  0  0  0  0  0  0  0  0  0  0  0
    0.4336   -3.2055   -1.0316 C   0  0  0  0  0  0  0  0  0  0  0  0
   -0.3682   -3.3396   -1.7468 H   0  0  0  0  0  0  0  0  0  0  0  0
   -1.0813    1.3364   -0.0688 C   0  0  0  0  0  0  0  0  0  0  0  0
   -0.2614    2.1573   -0.4804 O   0  0  0  0  0  0  0  0  0  0  0  0
   -2.3615    1.6524    0.1503 N   0  0  0  0  0  0  0  0  0  0  0  0
   -2.9409    0.9454    0.5888 H   0  0  0  0  0  0  0  0  0  0  0  0
   -2.9428    2.9751   -0.0668 C   0  0  0  0  0  0  0  0  0  0  0  0
   -2.4834    3.4488   -0.9382 H   0  0  0  0  0  0  0  0  0  0  0  0
   -4.0171    2.8851   -0.2344 H   0  0  0  0  0  0  0  0  0  0  0  0
   -2.7644    3.6008    0.8092 H   0  0  0  0  0  0  0  0  0  0  0  0
  5  6  2  0  0  0  0
  5  7  1  0  0  0  0
  2  3  1  0  0  0  0
  2  4  1  0  0  0  0
  2  5  1  0  0  0  0
  1  2  1  0  0  0  0
 22 23  2  0  0  0  0
 22 24  1  0  0  0  0
 20 21  1  0  0  0  0
 18 19  1  0  0  0  0
 18 20  1  0  0  0  0
 16 17  1  0  0  0  0
 16 18  1  0  0  0  0
 15 16  2  0  0  0  0
 14 15  1  0  0  0  0
 14 20  2  0  0  0  0
 11 12  1  0  0  0  0
 11 13  1  0  0  0  0
 11 14  1  0  0  0  0
  9 10  1  0  0  0  0
  9 11  1  0  0  0  0
  9 22  1  0  0  0  0
  7  8  1  0  0  0  0
  7  9  1  0  0  0  0
 26 27  1  0  0  0  0
 26 28  1  0  0  0  0
 26 29  1  0  0  0  0
 24 25  1  0  0  0  0
 24 26  1  0  0  0  0
M  END
$$$$
default_name
  -OEChem-01062215323D

 29 29  0     1  0  0  0  0  0999 V2000
   -2.9561   -3.9186    1.3887 H   0  0  0  0  0  0  0  0  0  0  0  0
   -3.1191   -2.9346    0.9517 C   0  0  0  0  0  0  0  0  0  0  0  0
   -3.7811   -2.3546    1.5917 H   0  0  0  0  0  0  0  0  0  0  0  0
   -3.5591   -3.0406   -0.0383 H   0  0  0  0  0  0  0  0  0  0  0  0
   -1.7921   -2.2226    0.8327 C   0  0  0  0  0  0  0  0  0  0  0  0
   -0.7611   -2.7766    1.1927 O   0  0  0  0  0  0  0  0  0  0  0  0
   -1.8201   -0.9926    0.3247 N   0  0  0  0  0  0  0  0  0  0  0  0
   -2.7141   -0.5816    0.0927 H   0  0  0  0  0  0  0  0  0  0  0  0
   -0.6481   -0.1156    0.2017 C   0  0  1  0  0  0  0  0  0  0  0  0
   -0.1144   -0.1250    1.1542 H   0  0  0  0  0  0  0  0  0  0  0  0
    0.2975   -0.6609   -0.8860 C   0  0  0  0  0  0  0  0  0  0  0  0
   -0.2455   -0.7718   -1.8257 H   0  0  0  0  0  0  0  0  0  0  0  0
    1.1096    0.0469   -1.0578 H   0  0  0  0  0  0  0  0  0  0  0  0
    0.8739   -2.0120   -0.5388 C   0  0  0  0  0  0  0  0  0  0  0  0
    1.8838   -2.2550    0.3930 N   0  0  0  0  0  0  0  0  0  0  0  0
    2.0500   -3.5854    0.4190 C   0  0  0  0  0  0  0  0  0  0  0  0
    2.7742   -4.1003    1.0376 H   0  0  0  0  0  0  0  0  0  0  0  0
    1.1876   -4.1826   -0.4205 N   0  0  0  0  0  0  0  0  0  0  0  0
    1.1041   -5.1798   -0.5637 H   0  0  0  0  0  0  0  0  0  0  0  0
    0.4336   -3.2055   -1.0316 C   0  0  0  0  0  0  0  0  0  0  0  0
   -0.3682   -3.3396   -1.7468 H   0  0  0  0  0  0  0  0  0  0  0  0
   -1.0813    1.3364   -0.0688 C   0  0  0  0  0  0  0  0  0  0  0  0
   -0.3584    2.0818   -0.7300 O   0  0  0  0  0  0  0  0  0  0  0  0
   -2.2559    1.7358    0.4287 N   0  0  0  0  0  0  0  0  0  0  0  0
   -2.7352    1.0925    1.0487 H   0  0  0  0  0  0  0  0  0  0  0  0
   -2.8242    3.0706    0.2559 C   0  0  0  0  0  0  0  0  0  0  0  0
   -2.5762    3.4589   -0.7353 H   0  0  0  0  0  0  0  0  0  0  0  0
   -3.9092    3.0283    0.3614 H   0  0  0  0  0  0  0  0  0  0  0  0
   -2.4132    3.7431    1.0106 H   0  0  0  0  0  0  0  0  0  0  0  0
  5  6  2  0  0  0  0
  5  7  1  0  0  0  0
  2  3  1  0  0  0  0
  2  4  1  0  0  0  0
  2  5  1  0  0  0  0
  1  2  1  0  0  0  0
 22 23  2  0  0  0  0
 22 24  1  0  0  0  0
 20 21  1  0  0  0  0
 18 19  1  0  0  0  0
 18 20  1  0  0  0  0
 16 17  1  0  0  0  0
 16 18  1  0  0  0  0
 15 16  2  0  0  0  0
 14 15  1  0  0  0  0
 14 20  2  0  0  0  0
 11 12  1  0  0  0  0
 11 13  1  0  0  0  0
 11 14  1  0  0  0  0
  9 10  1  0  0  0  0
  9 11  1  0  0  0  0
  9 22  1  0  0  0  0
  7  8  1  0  0  0  0
  7  9  1  0  0  0  0
 26 27  1  0  0  0  0
 26 28  1  0  0  0  0
 26 29  1  0  0  0  0
 24 25  1  0  0  0  0
 24 26  1  0  0  0  0
M  END
$$$$
default_name
  -OEChem-01062215323D

 29 29  0     1  0  0  0  0  0999 V2000
   -2.9561   -3.9186    1.3887 H   0  0  0  0  0  0  0  0  0  0  0  0
   -3.1191   -2.9346    0.9517 C   0  0  0  0  0  0  0  0  0  0  0  0
   -3.7811   -2.3546    1.5917 H   0  0  0  0  0  0  0  0  0  0  0  0
   -3.5591   -3.0406   -0.0383 H   0  0  0  0  0  0  0  0  0  0  0  0
   -1.7921   -2.2226    0.8327 C   0  0  0  0  0  0  0  0  0  0  0  0
   -0.7611   -2.7766    1.1927 O   0  0  0  0  0  0  0  0  0  0  0  0
   -1.8201   -0.9926    0.3247 N   0  0  0  0  0  0  0  0  0  0  0  0
   -2.7141   -0.5816    0.0927 H   0  0  0  0  0  0  0  0  0  0  0  0
   -0.6481   -0.1156    0.2017 C   0  0  1  0  0  0  0  0  0  0  0  0
   -0.1144   -0.1250    1.1542 H   0  0  0  0  0  0  0  0  0  0  0  0
    0.2975   -0.6609   -0.8860 C   0  0  0  0  0  0  0  0  0  0  0  0
   -0.2455   -0.7718   -1.8257 H   0  0  0  0  0  0  0  0  0  0  0  0
    1.1096    0.0469   -1.0578 H   0  0  0  0  0  0  0  0  0  0  0  0
    0.8739   -2.0120   -0.5388 C   0  0  0  0  0  0  0  0  0  0  0  0
    1.8838   -2.2550    0.3930 N   0  0  0  0  0  0  0  0  0  0  0  0
    2.0500   -3.5854    0.4190 C   0  0  0  0  0  0  0  0  0  0  0  0
    2.7742   -4.1003    1.0376 H   0  0  0  0  0  0  0  0  0  0  0  0
    1.1876   -4.1826   -0.4205 N   0  0  0  0  0  0  0  0  0  0  0  0
    1.1041   -5.1798   -0.5637 H   0  0  0  0  0  0  0  0  0  0  0  0
    0.4336   -3.2055   -1.0316 C   0  0  0  0  0  0  0  0  0  0  0  0
   -0.3682   -3.3396   -1.7468 H   0  0  0  0  0  0  0  0  0  0  0  0
   -1.0813    1.3364   -0.0688 C   0  0  0  0  0  0  0  0  0  0  0  0
   -0.5164    1.9952   -0.9420 O   0  0  0  0  0  0  0  0  0  0  0  0
   -2.0822    1.8318    0.6657 N   0  0  0  0  0  0  0  0  0  0  0  0
   -2.4174    1.2586    1.4319 H   0  0  0  0  0  0  0  0  0  0  0  0
   -2.6265    3.1810    0.5317 C   0  0  0  0  0  0  0  0  0  0  0  0
   -2.6157    3.4877   -0.5174 H   0  0  0  0  0  0  0  0  0  0  0  0
   -3.6530    3.2051    0.9001 H   0  0  0  0  0  0  0  0  0  0  0  0
   -2.0183    3.8792    1.1091 H   0  0  0  0  0  0  0  0  0  0  0  0
  5  6  2  0  0  0  0
  5  7  1  0  0  0  0
  2  3  1  0  0  0  0
  2  4  1  0  0  0  0
  2  5  1  0  0  0  0
  1  2  1  0  0  0  0
 22 23  2  0  0  0  0
 22 24  1  0  0  0  0
 20 21  1  0  0  0  0
 18 19  1  0  0  0  0
 18 20  1  0  0  0  0
 16 17  1  0  0  0  0
 16 18  1  0  0  0  0
 15 16  2  0  0  0  0
 14 15  1  0  0  0  0
 14 20  2  0  0  0  0
 11 12  1  0  0  0  0
 11 13  1  0  0  0  0
 11 14  1  0  0  0  0
  9 10  1  0  0  0  0
  9 11  1  0  0  0  0
  9 22  1  0  0  0  0
  7  8  1  0  0  0  0
  7  9  1  0  0  0  0
 26 27  1  0  0  0  0
 26 28  1  0  0  0  0
 26 29  1  0  0  0  0
 24 25  1  0  0  0  0
 24 26  1  0  0  0  0
M  END
$$$$
default_name
  -OEChem-01062215323D

 29 29  0     1  0  0  0  0  0999 V2000
   -2.9561   -3.9186    1.3887 H   0  0  0  0  0  0  0  0  0  0  0  0
   -3.1191   -2.9346    0.9517 C   0  0  0  0  0  0  0  0  0  0  0  0
   -3.7811   -2.3546    1.5917 H   0  0  0  0  0  0  0  0  0  0  0  0
   -3.5591   -3.0406   -0.0383 H   0  0  0  0  0  0  0  0  0  0  0  0
   -1.7921   -2.2226    0.8327 C   0  0  0  0  0  0  0  0  0  0  0  0
   -0.7611   -2.7766    1.1927 O   0  0  0  0  0  0  0  0  0  0  0  0
   -1.8201   -0.9926    0.3247 N   0  0  0  0  0  0  0  0  0  0  0  0
   -2.7141   -0.5816    0.0927 H   0  0  0  0  0  0  0  0  0  0  0  0
   -0.6481   -0.1156    0.2017 C   0  0  1  0  0  0  0  0  0  0  0  0
   -0.1144   -0.1250    1.1542 H   0  0  0  0  0  0  0  0  0  0  0  0
    0.2975   -0.6609   -0.8860 C   0  0  0  0  0  0  0  0  0  0  0  0
   -0.2455   -0.7718   -1.8257 H   0  0  0  0  0  0  0  0  0  0  0  0
    1.1096    0.0469   -1.0578 H   0  0  0  0  0  0  0  0  0  0  0  0
    0.8739   -2.0120   -0.5388 C   0  0  0  0  0  0  0  0  0  0  0  0
    1.8838   -2.2550    0.3930 N   0  0  0  0  0  0  0  0  0  0  0  0
    2.0500   -3.5854    0.4190 C   0  0  0  0  0  0  0  0  0  0  0  0
    2.7742   -4.1003    1.0376 H   0  0  0  0  0  0  0  0  0  0  0  0
    1.1876   -4.1826   -0.4205 N   0  0  0  0  0  0  0  0  0  0  0  0
    1.1041   -5.1798   -0.5637 H   0  0  0  0  0  0  0  0  0  0  0  0
    0.4336   -3.2055   -1.0316 C   0  0  0  0  0  0  0  0  0  0  0  0
   -0.3682   -3.3396   -1.7468 H   0  0  0  0  0  0  0  0  0  0  0  0
   -1.0813    1.3364   -0.0688 C   0  0  0  0  0  0  0  0  0  0  0  0
   -0.7248    1.9033   -1.1018 O   0  0  0  0  0  0  0  0  0  0  0  0
   -1.8521    1.9339    0.8453 N   0  0  0  0  0  0  0  0  0  0  0  0
   -2.0094    1.4326    1.7124 H   0  0  0  0  0  0  0  0  0  0  0  0
   -2.3631    3.2987    0.7417 C   0  0  0  0  0  0  0  0  0  0  0  0
   -2.5995    3.5332   -0.2994 H   0  0  0  0  0  0  0  0  0  0  0  0
   -3.2660    3.4034    1.3450 H   0  0  0  0  0  0  0  0  0  0  0  0
   -1.6067    3.9999    1.0978 H   0  0  0  0  0  0  0  0  0  0  0  0
  5  6  2  0  0  0  0
  5  7  1  0  0  0  0
  2  3  1  0  0  0  0
  2  4  1  0  0  0  0
  2  5  1  0  0  0  0
  1  2  1  0  0  0  0
 22 23  2  0  0  0  0
 22 24  1  0  0  0  0
 20 21  1  0  0  0  0
 18 19  1  0  0  0  0
 18 20  1  0  0  0  0
 16 17  1  0  0  0  0
 16 18  1  0  0  0  0
 15 16  2  0  0  0  0
 14 15  1  0  0  0  0
 14 20  2  0  0  0  0
 11 12  1  0  0  0  0
 11 13  1  0  0  0  0
 11 14  1  0  0  0  0
  9 10  1  0  0  0  0
  9 11  1  0  0  0  0
  9 22  1  0  0  0  0
  7  8  1  0  0  0  0
  7  9  1  0  0  0  0
 26 27  1  0  0  0  0
 26 28  1  0  0  0  0
 26 29  1  0  0  0  0
 24 25  1  0  0  0  0
 24 26  1  0  0  0  0
M  END
$$$$
default_name
  -OEChem-01062215323D

 29 29  0     1  0  0  0  0  0999 V2000
   -2.9561   -3.9186    1.3887 H   0  0  0  0  0  0  0  0  0  0  0  0
   -3.1191   -2.9346    0.9517 C   0  0  0  0  0  0  0  0  0  0  0  0
   -3.7811   -2.3546    1.5917 H   0  0  0  0  0  0  0  0  0  0  0  0
   -3.5591   -3.0406   -0.0383 H   0  0  0  0  0  0  0  0  0  0  0  0
   -1.7921   -2.2226    0.8327 C   0  0  0  0  0  0  0  0  0  0  0  0
   -0.7611   -2.7766    1.1927 O   0  0  0  0  0  0  0  0  0  0  0  0
   -1.8201   -0.9926    0.3247 N   0  0  0  0  0  0  0  0  0  0  0  0
   -2.7141   -0.5816    0.0927 H   0  0  0  0  0  0  0  0  0  0  0  0
   -0.6481   -0.1156    0.2017 C   0  0  1  0  0  0  0  0  0  0  0  0
   -0.1144   -0.1250    1.1542 H   0  0  0  0  0  0  0  0  0  0  0  0
    0.2975   -0.6609   -0.8860 C   0  0  0  0  0  0  0  0  0  0  0  0
   -0.2455   -0.7718   -1.8257 H   0  0  0  0  0  0  0  0  0  0  0  0
    1.1096    0.0469   -1.0578 H   0  0  0  0  0  0  0  0  0  0  0  0
    0.8739   -2.0120   -0.5388 C   0  0  0  0  0  0  0  0  0  0  0  0
    1.8838   -2.2550    0.3930 N   0  0  0  0  0  0  0  0  0  0  0  0
    2.0500   -3.5854    0.4190 C   0  0  0  0  0  0  0  0  0  0  0  0
    2.7742   -4.1003    1.0376 H   0  0  0  0  0  0  0  0  0  0  0  0
    1.1876   -4.1826   -0.4205 N   0  0  0  0  0  0  0  0  0  0  0  0
    1.1041   -5.1798   -0.5637 H   0  0  0  0  0  0  0  0  0  0  0  0
    0.4336   -3.2055   -1.0316 C   0  0  0  0  0  0  0  0  0  0  0  0
   -0.3682   -3.3396   -1.7468 H   0  0  0  0  0  0  0  0  0  0  0  0
   -1.0813    1.3364   -0.0688 C   0  0  0  0  0  0  0  0  0  0  0  0
   -0.9693    1.8123   -1.1986 O   0  0  0  0  0  0  0  0  0  0  0  0
   -1.5814    2.0351    0.9551 N   0  0  0  0  0  0  0  0  0  0  0  0
   -1.5388    1.6026    1.8711 H   0  0  0  0  0  0  0  0  0  0  0  0
   -2.0521    3.4157    0.8718 C   0  0  0  0  0  0  0  0  0  0  0  0
   -2.5284    3.5922   -0.0960 H   0  0  0  0  0  0  0  0  0  0  0  0
   -2.7745    3.6098    1.6659 H   0  0  0  0  0  0  0  0  0  0  0  0
   -1.2063    4.0970    0.9776 H   0  0  0  0  0  0  0  0  0  0  0  0
  5  6  2  0  0  0  0
  5  7  1  0  0  0  0
  2  3  1  0  0  0  0
  2  4  1  0  0  0  0
  2  5  1  0  0  0  0
  1  2  1  0  0  0  0
 22 23  2  0  0  0  0
 22 24  1  0  0  0  0
 20 21  1  0  0  0  0
 18 19  1  0  0  0  0
 18 20  1  0  0  0  0
 16 17  1  0  0  0  0
 16 18  1  0  0  0  0
 15 16  2  0  0  0  0
 14 15  1  0  0  0  0
 14 20  2  0  0  0  0
 11 12  1  0  0  0  0
 11 13  1  0  0  0  0
 11 14  1  0  0  0  0
  9 10  1  0  0  0  0
  9 11  1  0  0  0  0
  9 22  1  0  0  0  0
  7  8  1  0  0  0  0
  7  9  1  0  0  0  0
 26 27  1  0  0  0  0
 26 28  1  0  0  0  0
 26 29  1  0  0  0  0
 24 25  1  0  0  0  0
 24 26  1  0  0  0  0
M  END
$$$$
default_name
  -OEChem-01062215323D

 29 29  0     1  0  0  0  0  0999 V2000
   -2.9561   -3.9186    1.3887 H   0  0  0  0  0  0  0  0  0  0  0  0
   -3.1191   -2.9346    0.9517 C   0  0  0  0  0  0  0  0  0  0  0  0
   -3.7811   -2.3546    1.5917 H   0  0  0  0  0  0  0  0  0  0  0  0
   -3.5591   -3.0406   -0.0383 H   0  0  0  0  0  0  0  0  0  0  0  0
   -1.7921   -2.2226    0.8327 C   0  0  0  0  0  0  0  0  0  0  0  0
   -0.7611   -2.7766    1.1927 O   0  0  0  0  0  0  0  0  0  0  0  0
   -1.8201   -0.9926    0.3247 N   0  0  0  0  0  0  0  0  0  0  0  0
   -2.7141   -0.5816    0.0927 H   0  0  0  0  0  0  0  0  0  0  0  0
   -0.6481   -0.1156    0.2017 C   0  0  1  0  0  0  0  0  0  0  0  0
   -0.1144   -0.1250    1.1542 H   0  0  0  0  0  0  0  0  0  0  0  0
    0.2975   -0.6609   -0.8860 C   0  0  0  0  0  0  0  0  0  0  0  0
   -0.2455   -0.7718   -1.8257 H   0  0  0  0  0  0  0  0  0  0  0  0
    1.1096    0.0469   -1.0578 H   0  0  0  0  0  0  0  0  0  0  0  0
    0.8739   -2.0120   -0.5388 C   0  0  0  0  0  0  0  0  0  0  0  0
    1.8838   -2.2550    0.3930 N   0  0  0  0  0  0  0  0  0  0  0  0
    2.0500   -3.5854    0.4190 C   0  0  0  0  0  0  0  0  0  0  0  0
    2.7742   -4.1003    1.0376 H   0  0  0  0  0  0  0  0  0  0  0  0
    1.1876   -4.1826   -0.4205 N   0  0  0  0  0  0  0  0  0  0  0  0
    1.1041   -5.1798   -0.5637 H   0  0  0  0  0  0  0  0  0  0  0  0
    0.4336   -3.2055   -1.0316 C   0  0  0  0  0  0  0  0  0  0  0  0
   -0.3682   -3.3396   -1.7468 H   0  0  0  0  0  0  0  0  0  0  0  0
   -1.0813    1.3364   -0.0688 C   0  0  0  0  0  0  0  0  0  0  0  0
   -1.2332    1.7285   -1.2258 O   0  0  0  0  0  0  0  0  0  0  0  0
   -1.2886    2.1285    0.9877 N   0  0  0  0  0  0  0  0  0  0  0  0
   -1.0379    1.7569    1.8971 H   0  0  0  0  0  0  0  0  0  0  0  0
   -1.7146    3.5240    0.9129 C   0  0  0  0  0  0  0  0  0  0  0  0
   -2.4075    3.6609    0.0787 H   0  0  0  0  0  0  0  0  0  0  0  0
   -2.2121    3.8102    1.8407 H   0  0  0  0  0  0  0  0  0  0  0  0
   -0.8445    4.1638    0.7567 H   0  0  0  0  0  0  0  0  0  0  0  0
  5  6  2  0  0  0  0
  5  7  1  0  0  0  0
  2  3  1  0  0  0  0
  2  4  1  0  0  0  0
  2  5  1  0  0  0  0
  1  2  1  0  0  0  0
 22 23  2  0  0  0  0
 22 24  1  0  0  0  0
 20 21  1  0  0  0  0
 18 19  1  0  0  0  0
 18 20  1  0  0  0  0
 16 17  1  0  0  0  0
 16 18  1  0  0  0  0
 15 16  2  0  0  0  0
 14 15  1  0  0  0  0
 14 20  2  0  0  0  0
 11 12  1  0  0  0  0
 11 13  1  0  0  0  0
 11 14  1  0  0  0  0
  9 10  1  0  0  0  0
  9 11  1  0  0  0  0
  9 22  1  0  0  0  0
  7  8  1  0  0  0  0
  7  9  1  0  0  0  0
 26 27  1  0  0  0  0
 26 28  1  0  0  0  0
 26 29  1  0  0  0  0
 24 25  1  0  0  0  0
 24 26  1  0  0  0  0
M  END
$$$$
default_name
  -OEChem-01062215323D

 29 29  0     1  0  0  0  0  0999 V2000
   -2.9561   -3.9186    1.3887 H   0  0  0  0  0  0  0  0  0  0  0  0
   -3.1191   -2.9346    0.9517 C   0  0  0  0  0  0  0  0  0  0  0  0
   -3.7811   -2.3546    1.5917 H   0  0  0  0  0  0  0  0  0  0  0  0
   -3.5591   -3.0406   -0.0383 H   0  0  0  0  0  0  0  0  0  0  0  0
   -1.7921   -2.2226    0.8327 C   0  0  0  0  0  0  0  0  0  0  0  0
   -0.7611   -2.7766    1.1927 O   0  0  0  0  0  0  0  0  0  0  0  0
   -1.8201   -0.9926    0.3247 N   0  0  0  0  0  0  0  0  0  0  0  0
   -2.7141   -0.5816    0.0927 H   0  0  0  0  0  0  0  0  0  0  0  0
   -0.6481   -0.1156    0.2017 C   0  0  1  0  0  0  0  0  0  0  0  0
   -0.1144   -0.1250    1.1542 H   0  0  0  0  0  0  0  0  0  0  0  0
    0.2975   -0.6609   -0.8860 C   0  0  0  0  0  0  0  0  0  0  0  0
   -0.2455   -0.7718   -1.8257 H   0  0  0  0  0  0  0  0  0  0  0  0
    1.1096    0.0469   -1.0578 H   0  0  0  0  0  0  0  0  0  0  0  0
    0.8739   -2.0120   -0.5388 C   0  0  0  0  0  0  0  0  0  0  0  0
    1.8838   -2.2550    0.3930 N   0  0  0  0  0  0  0  0  0  0  0  0
    2.0500   -3.5854    0.4190 C   0  0  0  0  0  0  0  0  0  0  0  0
    2.7742   -4.1003    1.0376 H   0  0  0  0  0  0  0  0  0  0  0  0
    1.1876   -4.1826   -0.4205 N   0  0  0  0  0  0  0  0  0  0  0  0
    1.1041   -5.1798   -0.5637 H   0  0  0  0  0  0  0  0  0  0  0  0
    0.4336   -3.2055   -1.0316 C   0  0  0  0  0  0  0  0  0  0  0  0
   -0.3682   -3.3396   -1.7468 H   0  0  0  0  0  0  0  0  0  0  0  0
   -1.0813    1.3364   -0.0688 C   0  0  0  0  0  0  0  0  0  0  0  0
   -1.4985    1.6576   -1.1815 O   0  0  0  0  0  0  0  0  0  0  0  0
   -0.9934    2.2078    0.9409 N   0  0  0  0  0  0  0  0  0  0  0  0
   -0.5406    1.8850    1.7887 H   0  0  0  0  0  0  0  0  0  0  0  0
   -1.3737    3.6163    0.8624 C   0  0  0  0  0  0  0  0  0  0  0  0
   -2.2449    3.7344    0.2130 H   0  0  0  0  0  0  0  0  0  0  0  0
   -1.6170    3.9908    1.8577 H   0  0  0  0  0  0  0  0  0  0  0  0
   -0.5459    4.1957    0.4502 H   0  0  0  0  0  0  0  0  0  0  0  0
  5  6  2  0  0  0  0
  5  7  1  0  0  0  0
  2  3  1  0  0  0  0
  2  4  1  0  0  0  0
  2  5  1  0  0  0  0
  1  2  1  0  0  0  0
 22 23  2  0  0  0  0
 22 24  1  0  0  0  0
 20 21  1  0  0  0  0
 18 19  1  0  0  0  0
 18 20  1  0  0  0  0
 16 17  1  0  0  0  0
 16 18  1  0  0  0  0
 15 16  2  0  0  0  0
 14 15  1  0  0  0  0
 14 20  2  0  0  0  0
 11 12  1  0  0  0  0
 11 13  1  0  0  0  0
 11 14  1  0  0  0  0
  9 10  1  0  0  0  0
  9 11  1  0  0  0  0
  9 22  1  0  0  0  0
  7  8  1  0  0  0  0
  7  9  1  0  0  0  0
 26 27  1  0  0  0  0
 26 28  1  0  0  0  0
 26 29  1  0  0  0  0
 24 25  1  0  0  0  0
 24 26  1  0  0  0  0
M  END
$$$$
default_name
  -OEChem-01062215323D

 29 29  0     1  0  0  0  0  0999 V2000
   -2.9561   -3.9186    1.3887 H   0  0  0  0  0  0  0  0  0  0  0  0
   -3.1191   -2.9346    0.9517 C   0  0  0  0  0  0  0  0  0  0  0  0
   -3.7811   -2.3546    1.5917 H   0  0  0  0  0  0  0  0  0  0  0  0
   -3.5591   -3.0406   -0.0383 H   0  0  0  0  0  0  0  0  0  0  0  0
   -1.7921   -2.2226    0.8327 C   0  0  0  0  0  0  0  0  0  0  0  0
   -0.7611   -2.7766    1.1927 O   0  0  0  0  0  0  0  0  0  0  0  0
   -1.8201   -0.9926    0.3247 N   0  0  0  0  0  0  0  0  0  0  0  0
   -2.7141   -0.5816    0.0927 H   0  0  0  0  0  0  0  0  0  0  0  0
   -0.6481   -0.1156    0.2017 C   0  0  1  0  0  0  0  0  0  0  0  0
   -0.1144   -0.1250    1.1542 H   0  0  0  0  0  0  0  0  0  0  0  0
    0.2975   -0.6609   -0.8860 C   0  0  0  0  0  0  0  0  0  0  0  0
   -0.2455   -0.7718   -1.8257 H   0  0  0  0  0  0  0  0  0  0  0  0
    1.1096    0.0469   -1.0578 H   0  0  0  0  0  0  0  0  0  0  0  0
    0.8739   -2.0120   -0.5388 C   0  0  0  0  0  0  0  0  0  0  0  0
    1.8838   -2.2550    0.3930 N   0  0  0  0  0  0  0  0  0  0  0  0
    2.0500   -3.5854    0.4190 C   0  0  0  0  0  0  0  0  0  0  0  0
    2.7742   -4.1003    1.0376 H   0  0  0  0  0  0  0  0  0  0  0  0
    1.1876   -4.1826   -0.4205 N   0  0  0  0  0  0  0  0  0  0  0  0
    1.1041   -5.1798   -0.5637 H   0  0  0  0  0  0  0  0  0  0  0  0
    0.4336   -3.2055   -1.0316 C   0  0  0  0  0  0  0  0  0  0  0  0
   -0.3682   -3.3396   -1.7468 H   0  0  0  0  0  0  0  0  0  0  0  0
   -1.0813    1.3364   -0.0688 C   0  0  0  0  0  0  0  0  0  0  0  0
   -1.7473    1.6044   -1.0688 O   0  0  0  0  0  0  0  0  0  0  0  0
   -0.7162    2.2676    0.8179 N   0  0  0  0  0  0  0  0  0  0  0  0
   -0.0809    1.9782    1.5532 H   0  0  0  0  0  0  0  0  0  0  0  0
   -1.0525    3.6863    0.7236 C   0  0  0  0  0  0  0  0  0  0  0  0
   -2.0517    3.8078    0.2976 H   0  0  0  0  0  0  0  0  0  0  0  0
   -1.0298    4.1395    1.7157 H   0  0  0  0  0  0  0  0  0  0  0  0
   -0.3309    4.1907    0.0788 H   0  0  0  0  0  0  0  0  0  0  0  0
  5  6  2  0  0  0  0
  5  7  1  0  0  0  0
  2  3  1  0  0  0  0
  2  4  1  0  0  0  0
  2  5  1  0  0  0  0
  1  2  1  0  0  0  0
 22 23  2  0  0  0  0
 22 24  1  0  0  0  0
 20 21  1  0  0  0  0
 18 19  1  0  0  0  0
 18 20  1  0  0  0  0
 16 17  1  0  0  0  0
 16 18  1  0  0  0  0
 15 16  2  0  0  0  0
 14 15  1  0  0  0  0
 14 20  2  0  0  0  0
 11 12  1  0  0  0  0
 11 13  1  0  0  0  0
 11 14  1  0  0  0  0
  9 10  1  0  0  0  0
  9 11  1  0  0  0  0
  9 22  1  0  0  0  0
  7  8  1  0  0  0  0
  7  9  1  0  0  0  0
 26 27  1  0  0  0  0
 26 28  1  0  0  0  0
 26 29  1  0  0  0  0
 24 25  1  0  0  0  0
 24 26  1  0  0  0  0
M  END
$$$$
default_name
  -OEChem-01062215323D

 29 29  0     1  0  0  0  0  0999 V2000
   -2.9561   -3.9186    1.3887 H   0  0  0  0  0  0  0  0  0  0  0  0
   -3.1191   -2.9346    0.9517 C   0  0  0  0  0  0  0  0  0  0  0  0
   -3.7811   -2.3546    1.5917 H   0  0  0  0  0  0  0  0  0  0  0  0
   -3.5591   -3.0406   -0.0383 H   0  0  0  0  0  0  0  0  0  0  0  0
   -1.7921   -2.2226    0.8327 C   0  0  0  0  0  0  0  0  0  0  0  0
   -0.7611   -2.7766    1.1927 O   0  0  0  0  0  0  0  0  0  0  0  0
   -1.8201   -0.9926    0.3247 N   0  0  0  0  0  0  0  0  0  0  0  0
   -2.7141   -0.5816    0.0927 H   0  0  0  0  0  0  0  0  0  0  0  0
   -0.6481   -0.1156    0.2017 C   0  0  1  0  0  0  0  0  0  0  0  0
   -0.1144   -0.1250    1.1542 H   0  0  0  0  0  0  0  0  0  0  0  0
    0.2975   -0.6609   -0.8860 C   0  0  0  0  0  0  0  0  0  0  0  0
   -0.2455   -0.7718   -1.8257 H   0  0  0  0  0  0  0  0  0  0  0  0
    1.1096    0.0469   -1.0578 H   0  0  0  0  0  0  0  0  0  0  0  0
    0.8739   -2.0120   -0.5388 C   0  0  0  0  0  0  0  0  0  0  0  0
    1.8838   -2.2550    0.3930 N   0  0  0  0  0  0  0  0  0  0  0  0
    2.0500   -3.5854    0.4190 C   0  0  0  0  0  0  0  0  0  0  0  0
    2.7742   -4.1003    1.0376 H   0  0  0  0  0  0  0  0  0  0  0  0
    1.1876   -4.1826   -0.4205 N   0  0  0  0  0  0  0  0  0  0  0  0
    1.1041   -5.1798   -0.5637 H   0  0  0  0  0  0  0  0  0  0  0  0
    0.4336   -3.2055   -1.0316 C   0  0  0  0  0  0  0  0  0  0  0  0
   -0.3682   -3.3396   -1.7468 H   0  0  0  0  0  0  0  0  0  0  0  0
   -1.0813    1.3364   -0.0688 C   0  0  0  0  0  0  0  0  0  0  0  0
   -1.9625    1.5725   -0.8954 O   0  0  0  0  0  0  0  0  0  0  0  0
   -0.4757    2.3038    0.6270 N   0  0  0  0  0  0  0  0  0  0  0  0
    0.3099    2.0302    1.2067 H   0  0  0  0  0  0  0  0  0  0  0  0
   -0.7729    3.7291    0.5060 C   0  0  0  0  0  0  0  0  0  0  0  0
   -1.8411    3.8761    0.3269 H   0  0  0  0  0  0  0  0  0  0  0  0
   -0.4906    4.2461    1.4243 H   0  0  0  0  0  0  0  0  0  0  0  0
   -0.2141    4.1489   -0.3320 H   0  0  0  0  0  0  0  0  0  0  0  0
  5  6  2  0  0  0  0
  5  7  1  0  0  0  0
  2  3  1  0  0  0  0
  2  4  1  0  0  0  0
  2  5  1  0  0  0  0
  1  2  1  0  0  0  0
 22 23  2  0  0  0  0
 22 24  1  0  0  0  0
 20 21  1  0  0  0  0
 18 19  1  0  0  0  0
 18 20  1  0  0  0  0
 16 17  1  0  0  0  0
 16 18  1  0  0  0  0
 15 16  2  0  0  0  0
 14 15  1  0  0  0  0
 14 20  2  0  0  0  0
 11 12  1  0  0  0  0
 11 13  1  0  0  0  0
 11 14  1  0  0  0  0
  9 10  1  0  0  0  0
  9 11  1  0  0  0  0
  9 22  1  0  0  0  0
  7  8  1  0  0  0  0
  7  9  1  0  0  0  0
 26 27  1  0  0  0  0
 26 28  1  0  0  0  0
 26 29  1  0  0  0  0
 24 25  1  0  0  0  0
 24 26  1  0  0  0  0
M  END
$$$$
default_name
  -OEChem-01062215323D

 29 29  0     1  0  0  0  0  0999 V2000
   -2.9561   -3.9186    1.3887 H   0  0  0  0  0  0  0  0  0  0  0  0
   -3.1191   -2.9346    0.9517 C   0  0  0  0  0  0  0  0  0  0  0  0
   -3.7811   -2.3546    1.5917 H   0  0  0  0  0  0  0  0  0  0  0  0
   -3.5591   -3.0406   -0.0383 H   0  0  0  0  0  0  0  0  0  0  0  0
   -1.7921   -2.2226    0.8327 C   0  0  0  0  0  0  0  0  0  0  0  0
   -0.7611   -2.7766    1.1927 O   0  0  0  0  0  0  0  0  0  0  0  0
   -1.8201   -0.9926    0.3247 N   0  0  0  0  0  0  0  0  0  0  0  0
   -2.7141   -0.5816    0.0927 H   0  0  0  0  0  0  0  0  0  0  0  0
   -0.6481   -0.1156    0.2017 C   0  0  1  0  0  0  0  0  0  0  0  0
   -0.1144   -0.1250    1.1542 H   0  0  0  0  0  0  0  0  0  0  0  0
    0.2975   -0.6609   -0.8860 C   0  0  0  0  0  0  0  0  0  0  0  0
   -0.2455   -0.7718   -1.8257 H   0  0  0  0  0  0  0  0  0  0  0  0
    1.1096    0.0469   -1.0578 H   0  0  0  0  0  0  0  0  0  0  0  0
    0.8739   -2.0120   -0.5388 C   0  0  0  0  0  0  0  0  0  0  0  0
    1.8838   -2.2550    0.3930 N   0  0  0  0  0  0  0  0  0  0  0  0
    2.0500   -3.5854    0.4190 C   0  0  0  0  0  0  0  0  0  0  0  0
    2.7742   -4.1003    1.0376 H   0  0  0  0  0  0  0  0  0  0  0  0
    1.1876   -4.1826   -0.4205 N   0  0  0  0  0  0  0  0  0  0  0  0
    1.1041   -5.1798   -0.5637 H   0  0  0  0  0  0  0  0  0  0  0  0
    0.4336   -3.2055   -1.0316 C   0  0  0  0  0  0  0  0  0  0  0  0
   -0.3682   -3.3396   -1.7468 H   0  0  0  0  0  0  0  0  0  0  0  0
   -1.0813    1.3364   -0.0688 C   0  0  0  0  0  0  0  0  0  0  0  0
   -2.1294    1.5642   -0.6729 O   0  0  0  0  0  0  0  0  0  0  0  0
   -0.2884    2.3139    0.3813 N   0  0  0  0  0  0  0  0  0  0  0  0
    0.6051    2.0375    0.7728 H   0  0  0  0  0  0  0  0  0  0  0  0
   -0.5540    3.7420    0.2245 C   0  0  0  0  0  0  0  0  0  0  0  0
   -1.6274    3.9346    0.2987 H   0  0  0  0  0  0  0  0  0  0  0  0
   -0.0360    4.3033    1.0034 H   0  0  0  0  0  0  0  0  0  0  0  0
   -0.2035    4.0734   -0.7543 H   0  0  0  0  0  0  0  0  0  0  0  0
  5  6  2  0  0  0  0
  5  7  1  0  0  0  0
  2  3  1  0  0  0  0
  2  4  1  0  0  0  0
  2  5  1  0  0  0  0
  1  2  1  0  0  0  0
 22 23  2  0  0  0  0
 22 24  1  0  0  0  0
 20 21  1  0  0  0  0
 18 19  1  0  0  0  0
 18 20  1  0  0  0  0
 16 17  1  0  0  0  0
 16 18  1  0  0  0  0
 15 16  2  0  0  0  0
 14 15  1  0  0  0  0
 14 20  2  0  0  0  0
 11 12  1  0  0  0  0
 11 13  1  0  0  0  0
 11 14  1  0  0  0  0
  9 10  1  0  0  0  0
  9 11  1  0  0  0  0
  9 22  1  0  0  0  0
  7  8  1  0  0  0  0
  7  9  1  0  0  0  0
 26 27  1  0  0  0  0
 26 28  1  0  0  0  0
 26 29  1  0  0  0  0
 24 25  1  0  0  0  0
 24 26  1  0  0  0  0
M  END
$$$$
default_name
  -OEChem-01062215323D

 29 29  0     1  0  0  0  0  0999 V2000
   -2.9561   -3.9186    1.3887 H   0  0  0  0  0  0  0  0  0  0  0  0
   -3.1191   -2.9346    0.9517 C   0  0  0  0  0  0  0  0  0  0  0  0
   -3.7811   -2.3546    1.5917 H   0  0  0  0  0  0  0  0  0  0  0  0
   -3.5591   -3.0406   -0.0383 H   0  0  0  0  0  0  0  0  0  0  0  0
   -1.7921   -2.2226    0.8327 C   0  0  0  0  0  0  0  0  0  0  0  0
   -0.7611   -2.7766    1.1927 O   0  0  0  0  0  0  0  0  0  0  0  0
   -1.8201   -0.9926    0.3247 N   0  0  0  0  0  0  0  0  0  0  0  0
   -2.7141   -0.5816    0.0927 H   0  0  0  0  0  0  0  0  0  0  0  0
   -0.6481   -0.1156    0.2017 C   0  0  1  0  0  0  0  0  0  0  0  0
   -0.1144   -0.1250    1.1542 H   0  0  0  0  0  0  0  0  0  0  0  0
    0.2975   -0.6609   -0.8860 C   0  0  0  0  0  0  0  0  0  0  0  0
   -0.2455   -0.7718   -1.8257 H   0  0  0  0  0  0  0  0  0  0  0  0
    1.1096    0.0469   -1.0578 H   0  0  0  0  0  0  0  0  0  0  0  0
    0.8739   -2.0120   -0.5388 C   0  0  0  0  0  0  0  0  0  0  0  0
    1.8838   -2.2550    0.3930 N   0  0  0  0  0  0  0  0  0  0  0  0
    2.0500   -3.5854    0.4190 C   0  0  0  0  0  0  0  0  0  0  0  0
    2.7742   -4.1003    1.0376 H   0  0  0  0  0  0  0  0  0  0  0  0
    1.1876   -4.1826   -0.4205 N   0  0  0  0  0  0  0  0  0  0  0  0
    1.1041   -5.1798   -0.5637 H   0  0  0  0  0  0  0  0  0  0  0  0
    0.4336   -3.2055   -1.0316 C   0  0  0  0  0  0  0  0  0  0  0  0
   -0.3682   -3.3396   -1.7468 H   0  0  0  0  0  0  0  0  0  0  0  0
   -1.0813    1.3364   -0.0688 C   0  0  0  0  0  0  0  0  0  0  0  0
   -2.2367    1.5799   -0.4167 O   0  0  0  0  0  0  0  0  0  0  0  0
   -0.1670    2.2972    0.0974 N   0  0  0  0  0  0  0  0  0  0  0  0
    0.7846    1.9994    0.2811 H   0  0  0  0  0  0  0  0  0  0  0  0
   -0.4108    3.7239   -0.1018 C   0  0  0  0  0  0  0  0  0  0  0  0
   -1.4252    3.9793    0.2151 H   0  0  0  0  0  0  0  0  0  0  0  0
    0.3029    4.3072    0.4816 H   0  0  0  0  0  0  0  0  0  0  0  0
   -0.2998    3.9692   -1.1593 H   0  0  0  0  0  0  0  0  0  0  0  0
  5  6  2  0  0  0  0
  5  7  1  0  0  0  0
  2  3  1  0  0  0  0
  2  4  1  0  0  0  0
  2  5  1  0  0  0  0
  1  2  1  0  0  0  0
 22 23  2  0  0  0  0
 22 24  1  0  0  0  0
 20 21  1  0  0  0  0
 18 19  1  0  0  0  0
 18 20  1  0  0  0  0
 16 17  1  0  0  0  0
 16 18  1  0  0  0  0
 15 16  2  0  0  0  0
 14 15  1  0  0  0  0
 14 20  2  0  0  0  0
 11 12  1  0  0  0  0
 11 13  1  0  0  0  0
 11 14  1  0  0  0  0
  9 10  1  0  0  0  0
  9 11  1  0  0  0  0
  9 22  1  0  0  0  0
  7  8  1  0  0  0  0
  7  9  1  0  0  0  0
 26 27  1  0  0  0  0
 26 28  1  0  0  0  0
 26 29  1  0  0  0  0
 24 25  1  0  0  0  0
 24 26  1  0  0  0  0
M  END
$$$$
default_name
  -OEChem-01062215323D

 29 29  0     1  0  0  0  0  0999 V2000
   -2.9561   -3.9186    1.3887 H   0  0  0  0  0  0  0  0  0  0  0  0
   -3.1191   -2.9346    0.9517 C   0  0  0  0  0  0  0  0  0  0  0  0
   -3.7811   -2.3546    1.5917 H   0  0  0  0  0  0  0  0  0  0  0  0
   -3.5591   -3.0406   -0.0383 H   0  0  0  0  0  0  0  0  0  0  0  0
   -1.7921   -2.2226    0.8327 C   0  0  0  0  0  0  0  0  0  0  0  0
   -0.7611   -2.7766    1.1927 O   0  0  0  0  0  0  0  0  0  0  0  0
   -1.8201   -0.9926    0.3247 N   0  0  0  0  0  0  0  0  0  0  0  0
   -2.7141   -0.5816    0.0927 H   0  0  0  0  0  0  0  0  0  0  0  0
   -0.6481   -0.1156    0.2017 C   0  0  1  0  0  0  0  0  0  0  0  0
    0.0237   -0.3260    1.0363 H   0  0  0  0  0  0  0  0  0  0  0  0
    0.0996   -0.4277   -1.1092 C   0  0  0  0  0  0  0  0  0  0  0  0
   -0.5840   -0.3375   -1.9546 H   0  0  0  0  0  0  0  0  0  0  0  0
    0.9022    0.2960   -1.2575 H   0  0  0  0  0  0  0  0  0  0  0  0
    0.6704   -1.8245   -1.1407 C   0  0  0  0  0  0  0  0  0  0  0  0
    1.8005   -2.2617   -0.4486 N   0  0  0  0  0  0  0  0  0  0  0  0
    1.9182   -3.5692   -0.7220 C   0  0  0  0  0  0  0  0  0  0  0  0
    2.7081   -4.2056   -0.3433 H   0  0  0  0  0  0  0  0  0  0  0  0
    0.9160   -3.9739   -1.5202 N   0  0  0  0  0  0  0  0  0  0  0  0
    0.7740   -4.9189   -1.8497 H   0  0  0  0  0  0  0  0  0  0  0  0
    0.1153   -2.8869   -1.7923 C   0  0  0  0  0  0  0  0  0  0  0  0
   -0.7905   -2.8648   -2.3851 H   0  0  0  0  0  0  0  0  0  0  0  0
   -1.0621    1.3632    0.3056 C   0  0  0  0  0  0  0  0  0  0  0  0
   -2.2439    1.6615    0.4781 O   0  0  0  0  0  0  0  0  0  0  0  0
   -0.0984    2.2848    0.2112 N   0  0  0  0  0  0  0  0  0  0  0  0
    0.8285    1.9569   -0.0363 H   0  0  0  0  0  0  0  0  0  0  0  0
   -0.3122    3.7272    0.3016 C   0  0  0  0  0  0  0  0  0  0  0  0
   -1.1029    3.9451    1.0242 H   0  0  0  0  0  0  0  0  0  0  0  0
    0.6079    4.2193    0.6201 H   0  0  0  0  0  0  0  0  0  0  0  0
   -0.6103    4.1142   -0.6742 H   0  0  0  0  0  0  0  0  0  0  0  0
  5  6  2  0  0  0  0
  5  7  1  0  0  0  0
  2  3  1  0  0  0  0
  2  4  1  0  0  0  0
  2  5  1  0  0  0  0
  1  2  1  0  0  0  0
 22 23  2  0  0  0  0
 22 24  1  0  0  0  0
 20 21  1  0  0  0  0
 18 19  1  0  0  0  0
 18 20  1  0  0  0  0
 16 17  1  0  0  0  0
 16 18  1  0  0  0  0
 15 16  2  0  0  0  0
 14 15  1  0  0  0  0
 14 20  2  0  0  0  0
 11 12  1  0  0  0  0
 11 13  1  0  0  0  0
 11 14  1  0  0  0  0
  9 10  1  0  0  0  0
  9 11  1  0  0  0  0
  9 22  1  0  0  0  0
  7  8  1  0  0  0  0
  7  9  1  0  0  0  0
 26 27  1  0  0  0  0
 26 28  1  0  0  0  0
 26 29  1  0  0  0  0
 24 25  1  0  0  0  0
 24 26  1  0  0  0  0
M  END
$$$$
default_name
  -OEChem-01062215323D

 29 29  0     1  0  0  0  0  0999 V2000
   -2.9561   -3.9186    1.3887 H   0  0  0  0  0  0  0  0  0  0  0  0
   -3.1191   -2.9346    0.9517 C   0  0  0  0  0  0  0  0  0  0  0  0
   -3.7811   -2.3546    1.5917 H   0  0  0  0  0  0  0  0  0  0  0  0
   -3.5591   -3.0406   -0.0383 H   0  0  0  0  0  0  0  0  0  0  0  0
   -1.7921   -2.2226    0.8327 C   0  0  0  0  0  0  0  0  0  0  0  0
   -0.7611   -2.7766    1.1927 O   0  0  0  0  0  0  0  0  0  0  0  0
   -1.8201   -0.9926    0.3247 N   0  0  0  0  0  0  0  0  0  0  0  0
   -2.7141   -0.5816    0.0927 H   0  0  0  0  0  0  0  0  0  0  0  0
   -0.6481   -0.1156    0.2017 C   0  0  1  0  0  0  0  0  0  0  0  0
    0.0237   -0.3260    1.0363 H   0  0  0  0  0  0  0  0  0  0  0  0
    0.0996   -0.4277   -1.1092 C   0  0  0  0  0  0  0  0  0  0  0  0
   -0.5840   -0.3375   -1.9546 H   0  0  0  0  0  0  0  0  0  0  0  0
    0.9022    0.2960   -1.2575 H   0  0  0  0  0  0  0  0  0  0  0  0
    0.6704   -1.8245   -1.1407 C   0  0  0  0  0  0  0  0  0  0  0  0
    1.8005   -2.2617   -0.4486 N   0  0  0  0  0  0  0  0  0  0  0  0
    1.9182   -3.5692   -0.7220 C   0  0  0  0  0  0  0  0  0  0  0  0
    2.7081   -4.2056   -0.3433 H   0  0  0  0  0  0  0  0  0  0  0  0
    0.9160   -3.9739   -1.5202 N   0  0  0  0  0  0  0  0  0  0  0  0
    0.7740   -4.9189   -1.8497 H   0  0  0  0  0  0  0  0  0  0  0  0
    0.1153   -2.8869   -1.7923 C   0  0  0  0  0  0  0  0  0  0  0  0
   -0.7905   -2.8648   -2.3851 H   0  0  0  0  0  0  0  0  0  0  0  0
   -1.0621    1.3632    0.3056 C   0  0  0  0  0  0  0  0  0  0  0  0
   -2.1716    1.6628    0.7468 O   0  0  0  0  0  0  0  0  0  0  0  0
   -0.1765    2.2839   -0.0879 N   0  0  0  0  0  0  0  0  0  0  0  0
    0.6684    1.9472   -0.5360 H   0  0  0  0  0  0  0  0  0  0  0  0
   -0.3990    3.7273   -0.0445 C   0  0  0  0  0  0  0  0  0  0  0  0
   -0.9912    3.9895    0.8360 H   0  0  0  0  0  0  0  0  0  0  0  0
    0.5581    4.2489    0.0007 H   0  0  0  0  0  0  0  0  0  0  0  0
   -0.9399    4.0405   -0.9390 H   0  0  0  0  0  0  0  0  0  0  0  0
  5  6  2  0  0  0  0
  5  7  1  0  0  0  0
  2  3  1  0  0  0  0
  2  4  1  0  0  0  0
  2  5  1  0  0  0  0
  1  2  1  0  0  0  0
 22 23  2  0  0  0  0
 22 24  1  0  0  0  0
 20 21  1  0  0  0  0
 18 19  1  0  0  0  0
 18 20  1  0  0  0  0
 16 17  1  0  0  0  0
 16 18  1  0  0  0  0
 15 16  2  0  0  0  0
 14 15  1  0  0  0  0
 14 20  2  0  0  0  0
 11 12  1  0  0  0  0
 11 13  1  0  0  0  0
 11 14  1  0  0  0  0
  9 10  1  0  0  0  0
  9 11  1  0  0  0  0
  9 22  1  0  0  0  0
  7  8  1  0  0  0  0
  7  9  1  0  0  0  0
 26 27  1  0  0  0  0
 26 28  1  0  0  0  0
 26 29  1  0  0  0  0
 24 25  1  0  0  0  0
 24 26  1  0  0  0  0
M  END
$$$$
default_name
  -OEChem-01062215323D

 29 29  0     1  0  0  0  0  0999 V2000
   -2.9561   -3.9186    1.3887 H   0  0  0  0  0  0  0  0  0  0  0  0
   -3.1191   -2.9346    0.9517 C   0  0  0  0  0  0  0  0  0  0  0  0
   -3.7811   -2.3546    1.5917 H   0  0  0  0  0  0  0  0  0  0  0  0
   -3.5591   -3.0406   -0.0383 H   0  0  0  0  0  0  0  0  0  0  0  0
   -1.7921   -2.2226    0.8327 C   0  0  0  0  0  0  0  0  0  0  0  0
   -0.7611   -2.7766    1.1927 O   0  0  0  0  0  0  0  0  0  0  0  0
   -1.8201   -0.9926    0.3247 N   0  0  0  0  0  0  0  0  0  0  0  0
   -2.7141   -0.5816    0.0927 H   0  0  0  0  0  0  0  0  0  0  0  0
   -0.6481   -0.1156    0.2017 C   0  0  1  0  0  0  0  0  0  0  0  0
    0.0237   -0.3260    1.0363 H   0  0  0  0  0  0  0  0  0  0  0  0
    0.0996   -0.4277   -1.1092 C   0  0  0  0  0  0  0  0  0  0  0  0
   -0.5840   -0.3375   -1.9546 H   0  0  0  0  0  0  0  0  0  0  0  0
    0.9022    0.2960   -1.2575 H   0  0  0  0  0  0  0  0  0  0  0  0
    0.6704   -1.8245   -1.1407 C   0  0  0  0  0  0  0  0  0  0  0  0
    1.8005   -2.2617   -0.4486 N   0  0  0  0  0  0  0  0  0  0  0  0
    1.9182   -3.5692   -0.7220 C   0  0  0  0  0  0  0  0  0  0  0  0
    2.7081   -4.2056   -0.3433 H   0  0  0  0  0  0  0  0  0  0  0  0
    0.9160   -3.9739   -1.5202 N   0  0  0  0  0  0  0  0  0  0  0  0
    0.7740   -4.9189   -1.8497 H   0  0  0  0  0  0  0  0  0  0  0  0
    0.1153   -2.8869   -1.7923 C   0  0  0  0  0  0  0  0  0  0  0  0
   -0.7905   -2.8648   -2.3851 H   0  0  0  0  0  0  0  0  0  0  0  0
   -1.0621    1.3632    0.3056 C   0  0  0  0  0  0  0  0  0  0  0  0
   -2.0349    1.6841    0.9882 O   0  0  0  0  0  0  0  0  0  0  0  0
   -0.3263    2.2609   -0.3574 N   0  0  0  0  0  0  0  0  0  0  0  0
    0.3896    1.9002   -0.9782 H   0  0  0  0  0  0  0  0  0  0  0  0
   -0.5689    3.7017   -0.3573 C   0  0  0  0  0  0  0  0  0  0  0  0
   -0.9309    4.0214    0.6233 H   0  0  0  0  0  0  0  0  0  0  0  0
    0.3554    4.2335   -0.5873 H   0  0  0  0  0  0  0  0  0  0  0  0
   -1.3228    3.9452   -1.1076 H   0  0  0  0  0  0  0  0  0  0  0  0
  5  6  2  0  0  0  0
  5  7  1  0  0  0  0
  2  3  1  0  0  0  0
  2  4  1  0  0  0  0
  2  5  1  0  0  0  0
  1  2  1  0  0  0  0
 22 23  2  0  0  0  0
 22 24  1  0  0  0  0
 20 21  1  0  0  0  0
 18 19  1  0  0  0  0
 18 20  1  0  0  0  0
 16 17  1  0  0  0  0
 16 18  1  0  0  0  0
 15 16  2  0  0  0  0
 14 15  1  0  0  0  0
 14 20  2  0  0  0  0
 11 12  1  0  0  0  0
 11 13  1  0  0  0  0
 11 14  1  0  0  0  0
  9 10  1  0  0  0  0
  9 11  1  0  0  0  0
  9 22  1  0  0  0  0
  7  8  1  0  0  0  0
  7  9  1  0  0  0  0
 26 27  1  0  0  0  0
 26 28  1  0  0  0  0
 26 29  1  0  0  0  0
 24 25  1  0  0  0  0
 24 26  1  0  0  0  0
M  END
$$$$
default_name
  -OEChem-01062215323D

 29 29  0     1  0  0  0  0  0999 V2000
   -2.9561   -3.9186    1.3887 H   0  0  0  0  0  0  0  0  0  0  0  0
   -3.1191   -2.9346    0.9517 C   0  0  0  0  0  0  0  0  0  0  0  0
   -3.7811   -2.3546    1.5917 H   0  0  0  0  0  0  0  0  0  0  0  0
   -3.5591   -3.0406   -0.0383 H   0  0  0  0  0  0  0  0  0  0  0  0
   -1.7921   -2.2226    0.8327 C   0  0  0  0  0  0  0  0  0  0  0  0
   -0.7611   -2.7766    1.1927 O   0  0  0  0  0  0  0  0  0  0  0  0
   -1.8201   -0.9926    0.3247 N   0  0  0  0  0  0  0  0  0  0  0  0
   -2.7141   -0.5816    0.0927 H   0  0  0  0  0  0  0  0  0  0  0  0
   -0.6481   -0.1156    0.2017 C   0  0  1  0  0  0  0  0  0  0  0  0
    0.0237   -0.3260    1.0363 H   0  0  0  0  0  0  0  0  0  0  0  0
    0.0996   -0.4277   -1.1092 C   0  0  0  0  0  0  0  0  0  0  0  0
   -0.5840   -0.3375   -1.9546 H   0  0  0  0  0  0  0  0  0  0  0  0
    0.9022    0.2960   -1.2575 H   0  0  0  0  0  0  0  0  0  0  0  0
    0.6704   -1.8245   -1.1407 C   0  0  0  0  0  0  0  0  0  0  0  0
    1.8005   -2.2617   -0.4486 N   0  0  0  0  0  0  0  0  0  0  0  0
    1.9182   -3.5692   -0.7220 C   0  0  0  0  0  0  0  0  0  0  0  0
    2.7081   -4.2056   -0.3433 H   0  0  0  0  0  0  0  0  0  0  0  0
    0.9160   -3.9739   -1.5202 N   0  0  0  0  0  0  0  0  0  0  0  0
    0.7740   -4.9189   -1.8497 H   0  0  0  0  0  0  0  0  0  0  0  0
    0.1153   -2.8869   -1.7923 C   0  0  0  0  0  0  0  0  0  0  0  0
   -0.7905   -2.8648   -2.3851 H   0  0  0  0  0  0  0  0  0  0  0  0
   -1.0621    1.3632    0.3056 C   0  0  0  0  0  0  0  0  0  0  0  0
   -1.8433    1.7239    1.1859 O   0  0  0  0  0  0  0  0  0  0  0  0
   -0.5376    2.2174   -0.5788 N   0  0  0  0  0  0  0  0  0  0  0  0
    0.0111    1.8192   -1.3327 H   0  0  0  0  0  0  0  0  0  0  0  0
   -0.8103    3.6522   -0.6153 C   0  0  0  0  0  0  0  0  0  0  0  0
   -0.9260    4.0384    0.4007 H   0  0  0  0  0  0  0  0  0  0  0  0
    0.0137    4.1741   -1.1038 H   0  0  0  0  0  0  0  0  0  0  0  0
   -1.7330    3.8347   -1.1687 H   0  0  0  0  0  0  0  0  0  0  0  0
  5  6  2  0  0  0  0
  5  7  1  0  0  0  0
  2  3  1  0  0  0  0
  2  4  1  0  0  0  0
  2  5  1  0  0  0  0
  1  2  1  0  0  0  0
 22 23  2  0  0  0  0
 22 24  1  0  0  0  0
 20 21  1  0  0  0  0
 18 19  1  0  0  0  0
 18 20  1  0  0  0  0
 16 17  1  0  0  0  0
 16 18  1  0  0  0  0
 15 16  2  0  0  0  0
 14 15  1  0  0  0  0
 14 20  2  0  0  0  0
 11 12  1  0  0  0  0
 11 13  1  0  0  0  0
 11 14  1  0  0  0  0
  9 10  1  0  0  0  0
  9 11  1  0  0  0  0
  9 22  1  0  0  0  0
  7  8  1  0  0  0  0
  7  9  1  0  0  0  0
 26 27  1  0  0  0  0
 26 28  1  0  0  0  0
 26 29  1  0  0  0  0
 24 25  1  0  0  0  0
 24 26  1  0  0  0  0
M  END
$$$$
default_name
  -OEChem-01062215323D

 29 29  0     1  0  0  0  0  0999 V2000
   -2.9561   -3.9186    1.3887 H   0  0  0  0  0  0  0  0  0  0  0  0
   -3.1191   -2.9346    0.9517 C   0  0  0  0  0  0  0  0  0  0  0  0
   -3.7811   -2.3546    1.5917 H   0  0  0  0  0  0  0  0  0  0  0  0
   -3.5591   -3.0406   -0.0383 H   0  0  0  0  0  0  0  0  0  0  0  0
   -1.7921   -2.2226    0.8327 C   0  0  0  0  0  0  0  0  0  0  0  0
   -0.7611   -2.7766    1.1927 O   0  0  0  0  0  0  0  0  0  0  0  0
   -1.8201   -0.9926    0.3247 N   0  0  0  0  0  0  0  0  0  0  0  0
   -2.7141   -0.5816    0.0927 H   0  0  0  0  0  0  0  0  0  0  0  0
   -0.6481   -0.1156    0.2017 C   0  0  1  0  0  0  0  0  0  0  0  0
    0.0237   -0.3260    1.0363 H   0  0  0  0  0  0  0  0  0  0  0  0
    0.0996   -0.4277   -1.1092 C   0  0  0  0  0  0  0  0  0  0  0  0
   -0.5840   -0.3375   -1.9546 H   0  0  0  0  0  0  0  0  0  0  0  0
    0.9022    0.2960   -1.2575 H   0  0  0  0  0  0  0  0  0  0  0  0
    0.6704   -1.8245   -1.1407 C   0  0  0  0  0  0  0  0  0  0  0  0
    1.8005   -2.2617   -0.4486 N   0  0  0  0  0  0  0  0  0  0  0  0
    1.9182   -3.5692   -0.7220 C   0  0  0  0  0  0  0  0  0  0  0  0
    2.7081   -4.2056   -0.3433 H   0  0  0  0  0  0  0  0  0  0  0  0
    0.9160   -3.9739   -1.5202 N   0  0  0  0  0  0  0  0  0  0  0  0
    0.7740   -4.9189   -1.8497 H   0  0  0  0  0  0  0  0  0  0  0  0
    0.1153   -2.8869   -1.7923 C   0  0  0  0  0  0  0  0  0  0  0  0
   -0.7905   -2.8648   -2.3851 H   0  0  0  0  0  0  0  0  0  0  0  0
   -1.0621    1.3632    0.3056 C   0  0  0  0  0  0  0  0  0  0  0  0
   -1.6097    1.7794    1.3265 O   0  0  0  0  0  0  0  0  0  0  0  0
   -0.7960    2.1562   -0.7372 N   0  0  0  0  0  0  0  0  0  0  0  0
   -0.4412    1.7096   -1.5754 H   0  0  0  0  0  0  0  0  0  0  0  0
   -1.1069    3.5823   -0.8011 C   0  0  0  0  0  0  0  0  0  0  0  0
   -0.9770    4.0394    0.1833 H   0  0  0  0  0  0  0  0  0  0  0  0
   -0.4438    4.0748   -1.5137 H   0  0  0  0  0  0  0  0  0  0  0  0
   -2.1424    3.7165   -1.1180 H   0  0  0  0  0  0  0  0  0  0  0  0
  5  6  2  0  0  0  0
  5  7  1  0  0  0  0
  2  3  1  0  0  0  0
  2  4  1  0  0  0  0
  2  5  1  0  0  0  0
  1  2  1  0  0  0  0
 22 23  2  0  0  0  0
 22 24  1  0  0  0  0
 20 21  1  0  0  0  0
 18 19  1  0  0  0  0
 18 20  1  0  0  0  0
 16 17  1  0  0  0  0
 16 18  1  0  0  0  0
 15 16  2  0  0  0  0
 14 15  1  0  0  0  0
 14 20  2  0  0  0  0
 11 12  1  0  0  0  0
 11 13  1  0  0  0  0
 11 14  1  0  0  0  0
  9 10  1  0  0  0  0
  9 11  1  0  0  0  0
  9 22  1  0  0  0  0
  7  8  1  0  0  0  0
  7  9  1  0  0  0  0
 26 27  1  0  0  0  0
 26 28  1  0  0  0  0
 26 29  1  0  0  0  0
 24 25  1  0  0  0  0
 24 26  1  0  0  0  0
M  END
$$$$
default_name
  -OEChem-01062215323D

 29 29  0     1  0  0  0  0  0999 V2000
   -2.9561   -3.9186    1.3887 H   0  0  0  0  0  0  0  0  0  0  0  0
   -3.1191   -2.9346    0.9517 C   0  0  0  0  0  0  0  0  0  0  0  0
   -3.7811   -2.3546    1.5917 H   0  0  0  0  0  0  0  0  0  0  0  0
   -3.5591   -3.0406   -0.0383 H   0  0  0  0  0  0  0  0  0  0  0  0
   -1.7921   -2.2226    0.8327 C   0  0  0  0  0  0  0  0  0  0  0  0
   -0.7611   -2.7766    1.1927 O   0  0  0  0  0  0  0  0  0  0  0  0
   -1.8201   -0.9926    0.3247 N   0  0  0  0  0  0  0  0  0  0  0  0
   -2.7141   -0.5816    0.0927 H   0  0  0  0  0  0  0  0  0  0  0  0
   -0.6481   -0.1156    0.2017 C   0  0  1  0  0  0  0  0  0  0  0  0
    0.0237   -0.3260    1.0363 H   0  0  0  0  0  0  0  0  0  0  0  0
    0.0996   -0.4277   -1.1092 C   0  0  0  0  0  0  0  0  0  0  0  0
   -0.5840   -0.3375   -1.9546 H   0  0  0  0  0  0  0  0  0  0  0  0
    0.9022    0.2960   -1.2575 H   0  0  0  0  0  0  0  0  0  0  0  0
    0.6704   -1.8245   -1.1407 C   0  0  0  0  0  0  0  0  0  0  0  0
    1.8005   -2.2617   -0.4486 N   0  0  0  0  0  0  0  0  0  0  0  0
    1.9182   -3.5692   -0.7220 C   0  0  0  0  0  0  0  0  0  0  0  0
    2.7081   -4.2056   -0.3433 H   0  0  0  0  0  0  0  0  0  0  0  0
    0.9160   -3.9739   -1.5202 N   0  0  0  0  0  0  0  0  0  0  0  0
    0.7740   -4.9189   -1.8497 H   0  0  0  0  0  0  0  0  0  0  0  0
    0.1153   -2.8869   -1.7923 C   0  0  0  0  0  0  0  0  0  0  0  0
   -0.7905   -2.8648   -2.3851 H   0  0  0  0  0  0  0  0  0  0  0  0
   -1.0621    1.3632    0.3056 C   0  0  0  0  0  0  0  0  0  0  0  0
   -1.3500    1.8469    1.4004 O   0  0  0  0  0  0  0  0  0  0  0  0
   -1.0839    2.0815   -0.8216 N   0  0  0  0  0  0  0  0  0  0  0  0
   -0.9365    1.5790   -1.6898 H   0  0  0  0  0  0  0  0  0  0  0  0
   -1.4383    3.4966   -0.9019 C   0  0  0  0  0  0  0  0  0  0  0  0
   -1.0804    4.0243   -0.0141 H   0  0  0  0  0  0  0  0  0  0  0  0
   -0.9858    3.9425   -1.7888 H   0  0  0  0  0  0  0  0  0  0  0  0
   -2.5232    3.5988   -0.9590 H   0  0  0  0  0  0  0  0  0  0  0  0
  5  6  2  0  0  0  0
  5  7  1  0  0  0  0
  2  3  1  0  0  0  0
  2  4  1  0  0  0  0
  2  5  1  0  0  0  0
  1  2  1  0  0  0  0
 22 23  2  0  0  0  0
 22 24  1  0  0  0  0
 20 21  1  0  0  0  0
 18 19  1  0  0  0  0
 18 20  1  0  0  0  0
 16 17  1  0  0  0  0
 16 18  1  0  0  0  0
 15 16  2  0  0  0  0
 14 15  1  0  0  0  0
 14 20  2  0  0  0  0
 11 12  1  0  0  0  0
 11 13  1  0  0  0  0
 11 14  1  0  0  0  0
  9 10  1  0  0  0  0
  9 11  1  0  0  0  0
  9 22  1  0  0  0  0
  7  8  1  0  0  0  0
  7  9  1  0  0  0  0
 26 27  1  0  0  0  0
 26 28  1  0  0  0  0
 26 29  1  0  0  0  0
 24 25  1  0  0  0  0
 24 26  1  0  0  0  0
M  END
$$$$
default_name
  -OEChem-01062215323D

 29 29  0     1  0  0  0  0  0999 V2000
   -2.9561   -3.9186    1.3887 H   0  0  0  0  0  0  0  0  0  0  0  0
   -3.1191   -2.9346    0.9517 C   0  0  0  0  0  0  0  0  0  0  0  0
   -3.7811   -2.3546    1.5917 H   0  0  0  0  0  0  0  0  0  0  0  0
   -3.5591   -3.0406   -0.0383 H   0  0  0  0  0  0  0  0  0  0  0  0
   -1.7921   -2.2226    0.8327 C   0  0  0  0  0  0  0  0  0  0  0  0
   -0.7611   -2.7766    1.1927 O   0  0  0  0  0  0  0  0  0  0  0  0
   -1.8201   -0.9926    0.3247 N   0  0  0  0  0  0  0  0  0  0  0  0
   -2.7141   -0.5816    0.0927 H   0  0  0  0  0  0  0  0  0  0  0  0
   -0.6481   -0.1156    0.2017 C   0  0  1  0  0  0  0  0  0  0  0  0
    0.0237   -0.3260    1.0363 H   0  0  0  0  0  0  0  0  0  0  0  0
    0.0996   -0.4277   -1.1092 C   0  0  0  0  0  0  0  0  0  0  0  0
   -0.5840   -0.3375   -1.9546 H   0  0  0  0  0  0  0  0  0  0  0  0
    0.9022    0.2960   -1.2575 H   0  0  0  0  0  0  0  0  0  0  0  0
    0.6704   -1.8245   -1.1407 C   0  0  0  0  0  0  0  0  0  0  0  0
    1.8005   -2.2617   -0.4486 N   0  0  0  0  0  0  0  0  0  0  0  0
    1.9182   -3.5692   -0.7220 C   0  0  0  0  0  0  0  0  0  0  0  0
    2.7081   -4.2056   -0.3433 H   0  0  0  0  0  0  0  0  0  0  0  0
    0.9160   -3.9739   -1.5202 N   0  0  0  0  0  0  0  0  0  0  0  0
    0.7740   -4.9189   -1.8497 H   0  0  0  0  0  0  0  0  0  0  0  0
    0.1153   -2.8869   -1.7923 C   0  0  0  0  0  0  0  0  0  0  0  0
   -0.7905   -2.8648   -2.3851 H   0  0  0  0  0  0  0  0  0  0  0  0
   -1.0621    1.3632    0.3056 C   0  0  0  0  0  0  0  0  0  0  0  0
   -1.0821    1.9217    1.4024 O   0  0  0  0  0  0  0  0  0  0  0  0
   -1.3816    1.9985   -0.8263 N   0  0  0  0  0  0  0  0  0  0  0  0
   -1.4411    1.4363   -1.6679 H   0  0  0  0  0  0  0  0  0  0  0  0
   -1.7820    3.4010   -0.9110 C   0  0  0  0  0  0  0  0  0  0  0  0
   -1.2290    3.9942   -0.1781 H   0  0  0  0  0  0  0  0  0  0  0  0
   -1.5755    3.7860   -1.9106 H   0  0  0  0  0  0  0  0  0  0  0  0
   -2.8494    3.4894   -0.7025 H   0  0  0  0  0  0  0  0  0  0  0  0
  5  6  2  0  0  0  0
  5  7  1  0  0  0  0
  2  3  1  0  0  0  0
  2  4  1  0  0  0  0
  2  5  1  0  0  0  0
  1  2  1  0  0  0  0
 22 23  2  0  0  0  0
 22 24  1  0  0  0  0
 20 21  1  0  0  0  0
 18 19  1  0  0  0  0
 18 20  1  0  0  0  0
 16 17  1  0  0  0  0
 16 18  1  0  0  0  0
 15 16  2  0  0  0  0
 14 15  1  0  0  0  0
 14 20  2  0  0  0  0
 11 12  1  0  0  0  0
 11 13  1  0  0  0  0
 11 14  1  0  0  0  0
  9 10  1  0  0  0  0
  9 11  1  0  0  0  0
  9 22  1  0  0  0  0
  7  8  1  0  0  0  0
  7  9  1  0  0  0  0
 26 27  1  0  0  0  0
 26 28  1  0  0  0  0
 26 29  1  0  0  0  0
 24 25  1  0  0  0  0
 24 26  1  0  0  0  0
M  END
$$$$
default_name
  -OEChem-01062215323D

 29 29  0     1  0  0  0  0  0999 V2000
   -2.9561   -3.9186    1.3887 H   0  0  0  0  0  0  0  0  0  0  0  0
   -3.1191   -2.9346    0.9517 C   0  0  0  0  0  0  0  0  0  0  0  0
   -3.7811   -2.3546    1.5917 H   0  0  0  0  0  0  0  0  0  0  0  0
   -3.5591   -3.0406   -0.0383 H   0  0  0  0  0  0  0  0  0  0  0  0
   -1.7921   -2.2226    0.8327 C   0  0  0  0  0  0  0  0  0  0  0  0
   -0.7611   -2.7766    1.1927 O   0  0  0  0  0  0  0  0  0  0  0  0
   -1.8201   -0.9926    0.3247 N   0  0  0  0  0  0  0  0  0  0  0  0
   -2.7141   -0.5816    0.0927 H   0  0  0  0  0  0  0  0  0  0  0  0
   -0.6481   -0.1156    0.2017 C   0  0  1  0  0  0  0  0  0  0  0  0
    0.0237   -0.3260    1.0363 H   0  0  0  0  0  0  0  0  0  0  0  0
    0.0996   -0.4277   -1.1092 C   0  0  0  0  0  0  0  0  0  0  0  0
   -0.5840   -0.3375   -1.9546 H   0  0  0  0  0  0  0  0  0  0  0  0
    0.9022    0.2960   -1.2575 H   0  0  0  0  0  0  0  0  0  0  0  0
    0.6704   -1.8245   -1.1407 C   0  0  0  0  0  0  0  0  0  0  0  0
    1.8005   -2.2617   -0.4486 N   0  0  0  0  0  0  0  0  0  0  0  0
    1.9182   -3.5692   -0.7220 C   0  0  0  0  0  0  0  0  0  0  0  0
    2.7081   -4.2056   -0.3433 H   0  0  0  0  0  0  0  0  0  0  0  0
    0.9160   -3.9739   -1.5202 N   0  0  0  0  0  0  0  0  0  0  0  0
    0.7740   -4.9189   -1.8497 H   0  0  0  0  0  0  0  0  0  0  0  0
    0.1153   -2.8869   -1.7923 C   0  0  0  0  0  0  0  0  0  0  0  0
   -0.7905   -2.8648   -2.3851 H   0  0  0  0  0  0  0  0  0  0  0  0
   -1.0621    1.3632    0.3056 C   0  0  0  0  0  0  0  0  0  0  0  0
   -0.8240    1.9988    1.3326 O   0  0  0  0  0  0  0  0  0  0  0  0
   -1.6690    1.9128   -0.7511 N   0  0  0  0  0  0  0  0  0  0  0  0
   -1.9206    1.2911   -1.5114 H   0  0  0  0  0  0  0  0  0  0  0  0
   -2.1145    3.3021   -0.8276 C   0  0  0  0  0  0  0  0  0  0  0  0
   -1.4128    3.9511   -0.2974 H   0  0  0  0  0  0  0  0  0  0  0  0
   -2.1727    3.6160   -1.8707 H   0  0  0  0  0  0  0  0  0  0  0  0
   -3.0988    3.3960   -0.3660 H   0  0  0  0  0  0  0  0  0  0  0  0
  5  6  2  0  0  0  0
  5  7  1  0  0  0  0
  2  3  1  0  0  0  0
  2  4  1  0  0  0  0
  2  5  1  0  0  0  0
  1  2  1  0  0  0  0
 22 23  2  0  0  0  0
 22 24  1  0  0  0  0
 20 21  1  0  0  0  0
 18 19  1  0  0  0  0
 18 20  1  0  0  0  0
 16 17  1  0  0  0  0
 16 18  1  0  0  0  0
 15 16  2  0  0  0  0
 14 15  1  0  0  0  0
 14 20  2  0  0  0  0
 11 12  1  0  0  0  0
 11 13  1  0  0  0  0
 11 14  1  0  0  0  0
  9 10  1  0  0  0  0
  9 11  1  0  0  0  0
  9 22  1  0  0  0  0
  7  8  1  0  0  0  0
  7  9  1  0  0  0  0
 26 27  1  0  0  0  0
 26 28  1  0  0  0  0
 26 29  1  0  0  0  0
 24 25  1  0  0  0  0
 24 26  1  0  0  0  0
M  END
$$$$
default_name
  -OEChem-01062215323D

 29 29  0     1  0  0  0  0  0999 V2000
   -2.9561   -3.9186    1.3887 H   0  0  0  0  0  0  0  0  0  0  0  0
   -3.1191   -2.9346    0.9517 C   0  0  0  0  0  0  0  0  0  0  0  0
   -3.7811   -2.3546    1.5917 H   0  0  0  0  0  0  0  0  0  0  0  0
   -3.5591   -3.0406   -0.0383 H   0  0  0  0  0  0  0  0  0  0  0  0
   -1.7921   -2.2226    0.8327 C   0  0  0  0  0  0  0  0  0  0  0  0
   -0.7611   -2.7766    1.1927 O   0  0  0  0  0  0  0  0  0  0  0  0
   -1.8201   -0.9926    0.3247 N   0  0  0  0  0  0  0  0  0  0  0  0
   -2.7141   -0.5816    0.0927 H   0  0  0  0  0  0  0  0  0  0  0  0
   -0.6481   -0.1156    0.2017 C   0  0  1  0  0  0  0  0  0  0  0  0
    0.0237   -0.3260    1.0363 H   0  0  0  0  0  0  0  0  0  0  0  0
    0.0996   -0.4277   -1.1092 C   0  0  0  0  0  0  0  0  0  0  0  0
   -0.5840   -0.3375   -1.9546 H   0  0  0  0  0  0  0  0  0  0  0  0
    0.9022    0.2960   -1.2575 H   0  0  0  0  0  0  0  0  0  0  0  0
    0.6704   -1.8245   -1.1407 C   0  0  0  0  0  0  0  0  0  0  0  0
    1.8005   -2.2617   -0.4486 N   0  0  0  0  0  0  0  0  0  0  0  0
    1.9182   -3.5692   -0.7220 C   0  0  0  0  0  0  0  0  0  0  0  0
    2.7081   -4.2056   -0.3433 H   0  0  0  0  0  0  0  0  0  0  0  0
    0.9160   -3.9739   -1.5202 N   0  0  0  0  0  0  0  0  0  0  0  0
    0.7740   -4.9189   -1.8497 H   0  0  0  0  0  0  0  0  0  0  0  0
    0.1153   -2.8869   -1.7923 C   0  0  0  0  0  0  0  0  0  0  0  0
   -0.7905   -2.8648   -2.3851 H   0  0  0  0  0  0  0  0  0  0  0  0
   -1.0621    1.3632    0.3056 C   0  0  0  0  0  0  0  0  0  0  0  0
   -0.5935    2.0730    1.1956 O   0  0  0  0  0  0  0  0  0  0  0  0
   -1.9263    1.8302   -0.6010 N   0  0  0  0  0  0  0  0  0  0  0  0
   -2.3422    1.1533   -1.2309 H   0  0  0  0  0  0  0  0  0  0  0  0
   -2.4133    3.2065   -0.6574 C   0  0  0  0  0  0  0  0  0  0  0  0
   -1.6193    3.8980   -0.3639 H   0  0  0  0  0  0  0  0  0  0  0  0
   -2.7366    3.4442   -1.6719 H   0  0  0  0  0  0  0  0  0  0  0  0
   -3.2545    3.3248    0.0275 H   0  0  0  0  0  0  0  0  0  0  0  0
  5  6  2  0  0  0  0
  5  7  1  0  0  0  0
  2  3  1  0  0  0  0
  2  4  1  0  0  0  0
  2  5  1  0  0  0  0
  1  2  1  0  0  0  0
 22 23  2  0  0  0  0
 22 24  1  0  0  0  0
 20 21  1  0  0  0  0
 18 19  1  0  0  0  0
 18 20  1  0  0  0  0
 16 17  1  0  0  0  0
 16 18  1  0  0  0  0
 15 16  2  0  0  0  0
 14 15  1  0  0  0  0
 14 20  2  0  0  0  0
 11 12  1  0  0  0  0
 11 13  1  0  0  0  0
 11 14  1  0  0  0  0
  9 10  1  0  0  0  0
  9 11  1  0  0  0  0
  9 22  1  0  0  0  0
  7  8  1  0  0  0  0
  7  9  1  0  0  0  0
 26 27  1  0  0  0  0
 26 28  1  0  0  0  0
 26 29  1  0  0  0  0
 24 25  1  0  0  0  0
 24 26  1  0  0  0  0
M  END
$$$$
default_name
  -OEChem-01062215323D

 29 29  0     1  0  0  0  0  0999 V2000
   -2.9561   -3.9186    1.3887 H   0  0  0  0  0  0  0  0  0  0  0  0
   -3.1191   -2.9346    0.9517 C   0  0  0  0  0  0  0  0  0  0  0  0
   -3.7811   -2.3546    1.5917 H   0  0  0  0  0  0  0  0  0  0  0  0
   -3.5591   -3.0406   -0.0383 H   0  0  0  0  0  0  0  0  0  0  0  0
   -1.7921   -2.2226    0.8327 C   0  0  0  0  0  0  0  0  0  0  0  0
   -0.7611   -2.7766    1.1927 O   0  0  0  0  0  0  0  0  0  0  0  0
   -1.8201   -0.9926    0.3247 N   0  0  0  0  0  0  0  0  0  0  0  0
   -2.7141   -0.5816    0.0927 H   0  0  0  0  0  0  0  0  0  0  0  0
   -0.6481   -0.1156    0.2017 C   0  0  1  0  0  0  0  0  0  0  0  0
    0.0237   -0.3260    1.0363 H   0  0  0  0  0  0  0  0  0  0  0  0
    0.0996   -0.4277   -1.1092 C   0  0  0  0  0  0  0  0  0  0  0  0
   -0.5840   -0.3375   -1.9546 H   0  0  0  0  0  0  0  0  0  0  0  0
    0.9022    0.2960   -1.2575 H   0  0  0  0  0  0  0  0  0  0  0  0
    0.6704   -1.8245   -1.1407 C   0  0  0  0  0  0  0  0  0  0  0  0
    1.8005   -2.2617   -0.4486 N   0  0  0  0  0  0  0  0  0  0  0  0
    1.9182   -3.5692   -0.7220 C   0  0  0  0  0  0  0  0  0  0  0  0
    2.7081   -4.2056   -0.3433 H   0  0  0  0  0  0  0  0  0  0  0  0
    0.9160   -3.9739   -1.5202 N   0  0  0  0  0  0  0  0  0  0  0  0
    0.7740   -4.9189   -1.8497 H   0  0  0  0  0  0  0  0  0  0  0  0
    0.1153   -2.8869   -1.7923 C   0  0  0  0  0  0  0  0  0  0  0  0
   -0.7905   -2.8648   -2.3851 H   0  0  0  0  0  0  0  0  0  0  0  0
   -1.0621    1.3632    0.3056 C   0  0  0  0  0  0  0  0  0  0  0  0
   -0.4062    2.1391    1.0007 O   0  0  0  0  0  0  0  0  0  0  0  0
   -2.1362    1.7564   -0.3862 N   0  0  0  0  0  0  0  0  0  0  0  0
   -2.6774    1.0324   -0.8455 H   0  0  0  0  0  0  0  0  0  0  0  0
   -2.6579    3.1208   -0.4122 C   0  0  0  0  0  0  0  0  0  0  0  0
   -1.8343    3.8385   -0.3731 H   0  0  0  0  0  0  0  0  0  0  0  0
   -3.2288    3.2822   -1.3276 H   0  0  0  0  0  0  0  0  0  0  0  0
   -3.3057    3.2807    0.4513 H   0  0  0  0  0  0  0  0  0  0  0  0
  5  6  2  0  0  0  0
  5  7  1  0  0  0  0
  2  3  1  0  0  0  0
  2  4  1  0  0  0  0
  2  5  1  0  0  0  0
  1  2  1  0  0  0  0
 22 23  2  0  0  0  0
 22 24  1  0  0  0  0
 20 21  1  0  0  0  0
 18 19  1  0  0  0  0
 18 20  1  0  0  0  0
 16 17  1  0  0  0  0
 16 18  1  0  0  0  0
 15 16  2  0  0  0  0
 14 15  1  0  0  0  0
 14 20  2  0  0  0  0
 11 12  1  0  0  0  0
 11 13  1  0  0  0  0
 11 14  1  0  0  0  0
  9 10  1  0  0  0  0
  9 11  1  0  0  0  0
  9 22  1  0  0  0  0
  7  8  1  0  0  0  0
  7  9  1  0  0  0  0
 26 27  1  0  0  0  0
 26 28  1  0  0  0  0
 26 29  1  0  0  0  0
 24 25  1  0  0  0  0
 24 26  1  0  0  0  0
M  END
$$$$
default_name
  -OEChem-01062215323D

 29 29  0     1  0  0  0  0  0999 V2000
   -2.9561   -3.9186    1.3887 H   0  0  0  0  0  0  0  0  0  0  0  0
   -3.1191   -2.9346    0.9517 C   0  0  0  0  0  0  0  0  0  0  0  0
   -3.7811   -2.3546    1.5917 H   0  0  0  0  0  0  0  0  0  0  0  0
   -3.5591   -3.0406   -0.0383 H   0  0  0  0  0  0  0  0  0  0  0  0
   -1.7921   -2.2226    0.8327 C   0  0  0  0  0  0  0  0  0  0  0  0
   -0.7611   -2.7766    1.1927 O   0  0  0  0  0  0  0  0  0  0  0  0
   -1.8201   -0.9926    0.3247 N   0  0  0  0  0  0  0  0  0  0  0  0
   -2.7141   -0.5816    0.0927 H   0  0  0  0  0  0  0  0  0  0  0  0
   -0.6481   -0.1156    0.2017 C   0  0  1  0  0  0  0  0  0  0  0  0
    0.0237   -0.3260    1.0363 H   0  0  0  0  0  0  0  0  0  0  0  0
    0.0996   -0.4277   -1.1092 C   0  0  0  0  0  0  0  0  0  0  0  0
   -0.5840   -0.3375   -1.9546 H   0  0  0  0  0  0  0  0  0  0  0  0
    0.9022    0.2960   -1.2575 H   0  0  0  0  0  0  0  0  0  0  0  0
    0.6704   -1.8245   -1.1407 C   0  0  0  0  0  0  0  0  0  0  0  0
    1.8005   -2.2617   -0.4486 N   0  0  0  0  0  0  0  0  0  0  0  0
    1.9182   -3.5692   -0.7220 C   0  0  0  0  0  0  0  0  0  0  0  0
    2.7081   -4.2056   -0.3433 H   0  0  0  0  0  0  0  0  0  0  0  0
    0.9160   -3.9739   -1.5202 N   0  0  0  0  0  0  0  0  0  0  0  0
    0.7740   -4.9189   -1.8497 H   0  0  0  0  0  0  0  0  0  0  0  0
    0.1153   -2.8869   -1.7923 C   0  0  0  0  0  0  0  0  0  0  0  0
   -0.7905   -2.8648   -2.3851 H   0  0  0  0  0  0  0  0  0  0  0  0
   -1.0621    1.3632    0.3056 C   0  0  0  0  0  0  0  0  0  0  0  0
   -0.2749    2.1927    0.7614 O   0  0  0  0  0  0  0  0  0  0  0  0
   -2.2841    1.6964   -0.1215 N   0  0  0  0  0  0  0  0  0  0  0  0
   -2.9032    0.9366   -0.3815 H   0  0  0  0  0  0  0  0  0  0  0  0
   -2.8316    3.0509   -0.1084 C   0  0  0  0  0  0  0  0  0  0  0  0
   -2.0433    3.7766   -0.3244 H   0  0  0  0  0  0  0  0  0  0  0  0
   -3.6159    3.1411   -0.8614 H   0  0  0  0  0  0  0  0  0  0  0  0
   -3.2490    3.2667    0.8764 H   0  0  0  0  0  0  0  0  0  0  0  0
  5  6  2  0  0  0  0
  5  7  1  0  0  0  0
  2  3  1  0  0  0  0
  2  4  1  0  0  0  0
  2  5  1  0  0  0  0
  1  2  1  0  0  0  0
 22 23  2  0  0  0  0
 22 24  1  0  0  0  0
 20 21  1  0  0  0  0
 18 19  1  0  0  0  0
 18 20  1  0  0  0  0
 16 17  1  0  0  0  0
 16 18  1  0  0  0  0
 15 16  2  0  0  0  0
 14 15  1  0  0  0  0
 14 20  2  0  0  0  0
 11 12  1  0  0  0  0
 11 13  1  0  0  0  0
 11 14  1  0  0  0  0
  9 10  1  0  0  0  0
  9 11  1  0  0  0  0
  9 22  1  0  0  0  0
  7  8  1  0  0  0  0
  7  9  1  0  0  0  0
 26 27  1  0  0  0  0
 26 28  1  0  0  0  0
 26 29  1  0  0  0  0
 24 25  1  0  0  0  0
 24 26  1  0  0  0  0
M  END
$$$$
default_name
  -OEChem-01062215323D

 29 29  0     1  0  0  0  0  0999 V2000
   -2.9561   -3.9186    1.3887 H   0  0  0  0  0  0  0  0  0  0  0  0
   -3.1191   -2.9346    0.9517 C   0  0  0  0  0  0  0  0  0  0  0  0
   -3.7811   -2.3546    1.5917 H   0  0  0  0  0  0  0  0  0  0  0  0
   -3.5591   -3.0406   -0.0383 H   0  0  0  0  0  0  0  0  0  0  0  0
   -1.7921   -2.2226    0.8327 C   0  0  0  0  0  0  0  0  0  0  0  0
   -0.7611   -2.7766    1.1927 O   0  0  0  0  0  0  0  0  0  0  0  0
   -1.8201   -0.9926    0.3247 N   0  0  0  0  0  0  0  0  0  0  0  0
   -2.7141   -0.5816    0.0927 H   0  0  0  0  0  0  0  0  0  0  0  0
   -0.6481   -0.1156    0.2017 C   0  0  1  0  0  0  0  0  0  0  0  0
    0.0237   -0.3260    1.0363 H   0  0  0  0  0  0  0  0  0  0  0  0
    0.0996   -0.4277   -1.1092 C   0  0  0  0  0  0  0  0  0  0  0  0
   -0.5840   -0.3375   -1.9546 H   0  0  0  0  0  0  0  0  0  0  0  0
    0.9022    0.2960   -1.2575 H   0  0  0  0  0  0  0  0  0  0  0  0
    0.6704   -1.8245   -1.1407 C   0  0  0  0  0  0  0  0  0  0  0  0
    1.8005   -2.2617   -0.4486 N   0  0  0  0  0  0  0  0  0  0  0  0
    1.9182   -3.5692   -0.7220 C   0  0  0  0  0  0  0  0  0  0  0  0
    2.7081   -4.2056   -0.3433 H   0  0  0  0  0  0  0  0  0  0  0  0
    0.9160   -3.9739   -1.5202 N   0  0  0  0  0  0  0  0  0  0  0  0
    0.7740   -4.9189   -1.8497 H   0  0  0  0  0  0  0  0  0  0  0  0
    0.1153   -2.8869   -1.7923 C   0  0  0  0  0  0  0  0  0  0  0  0
   -0.7905   -2.8648   -2.3851 H   0  0  0  0  0  0  0  0  0  0  0  0
   -1.0621    1.3632    0.3056 C   0  0  0  0  0  0  0  0  0  0  0  0
   -0.2085    2.2301    0.4938 O   0  0  0  0  0  0  0  0  0  0  0  0
   -2.3602    1.6542    0.1752 N   0  0  0  0  0  0  0  0  0  0  0  0
   -3.0042    0.8725    0.1295 H   0  0  0  0  0  0  0  0  0  0  0  0
   -2.9227    3.0014    0.2330 C   0  0  0  0  0  0  0  0  0  0  0  0
   -2.2320    3.7165   -0.2210 H   0  0  0  0  0  0  0  0  0  0  0  0
   -3.8713    3.0306   -0.3050 H   0  0  0  0  0  0  0  0  0  0  0  0
   -3.0883    3.2837    1.2740 H   0  0  0  0  0  0  0  0  0  0  0  0
  5  6  2  0  0  0  0
  5  7  1  0  0  0  0
  2  3  1  0  0  0  0
  2  4  1  0  0  0  0
  2  5  1  0  0  0  0
  1  2  1  0  0  0  0
 22 23  2  0  0  0  0
 22 24  1  0  0  0  0
 20 21  1  0  0  0  0
 18 19  1  0  0  0  0
 18 20  1  0  0  0  0
 16 17  1  0  0  0  0
 16 18  1  0  0  0  0
 15 16  2  0  0  0  0
 14 15  1  0  0  0  0
 14 20  2  0  0  0  0
 11 12  1  0  0  0  0
 11 13  1  0  0  0  0
 11 14  1  0  0  0  0
  9 10  1  0  0  0  0
  9 11  1  0  0  0  0
  9 22  1  0  0  0  0
  7  8  1  0  0  0  0
  7  9  1  0  0  0  0
 26 27  1  0  0  0  0
 26 28  1  0  0  0  0
 26 29  1  0  0  0  0
 24 25  1  0  0  0  0
 24 26  1  0  0  0  0
M  END
$$$$
default_name
  -OEChem-01062215323D

 29 29  0     1  0  0  0  0  0999 V2000
   -2.9561   -3.9186    1.3887 H   0  0  0  0  0  0  0  0  0  0  0  0
   -3.1191   -2.9346    0.9517 C   0  0  0  0  0  0  0  0  0  0  0  0
   -3.7811   -2.3546    1.5917 H   0  0  0  0  0  0  0  0  0  0  0  0
   -3.5591   -3.0406   -0.0383 H   0  0  0  0  0  0  0  0  0  0  0  0
   -1.7921   -2.2226    0.8327 C   0  0  0  0  0  0  0  0  0  0  0  0
   -0.7611   -2.7766    1.1927 O   0  0  0  0  0  0  0  0  0  0  0  0
   -1.8201   -0.9926    0.3247 N   0  0  0  0  0  0  0  0  0  0  0  0
   -2.7141   -0.5816    0.0927 H   0  0  0  0  0  0  0  0  0  0  0  0
   -0.6481   -0.1156    0.2017 C   0  0  1  0  0  0  0  0  0  0  0  0
    0.0237   -0.3260    1.0363 H   0  0  0  0  0  0  0  0  0  0  0  0
    0.0996   -0.4277   -1.1092 C   0  0  0  0  0  0  0  0  0  0  0  0
   -0.5840   -0.3375   -1.9546 H   0  0  0  0  0  0  0  0  0  0  0  0
    0.9022    0.2960   -1.2575 H   0  0  0  0  0  0  0  0  0  0  0  0
    0.6704   -1.8245   -1.1407 C   0  0  0  0  0  0  0  0  0  0  0  0
    1.8005   -2.2617   -0.4486 N   0  0  0  0  0  0  0  0  0  0  0  0
    1.9182   -3.5692   -0.7220 C   0  0  0  0  0  0  0  0  0  0  0  0
    2.7081   -4.2056   -0.3433 H   0  0  0  0  0  0  0  0  0  0  0  0
    0.9160   -3.9739   -1.5202 N   0  0  0  0  0  0  0  0  0  0  0  0
    0.7740   -4.9189   -1.8497 H   0  0  0  0  0  0  0  0  0  0  0  0
    0.1153   -2.8869   -1.7923 C   0  0  0  0  0  0  0  0  0  0  0  0
   -0.7905   -2.8648   -2.3851 H   0  0  0  0  0  0  0  0  0  0  0  0
   -1.0621    1.3632    0.3056 C   0  0  0  0  0  0  0  0  0  0  0  0
   -0.2116    2.2487    0.2162 O   0  0  0  0  0  0  0  0  0  0  0  0
   -2.3591    1.6329    0.4836 N   0  0  0  0  0  0  0  0  0  0  0  0
   -2.9736    0.8443    0.6527 H   0  0  0  0  0  0  0  0  0  0  0  0
   -2.9250    2.9757    0.5889 C   0  0  0  0  0  0  0  0  0  0  0  0
   -2.3874    3.6624   -0.0701 H   0  0  0  0  0  0  0  0  0  0  0  0
   -3.9778    2.9580    0.3037 H   0  0  0  0  0  0  0  0  0  0  0  0
   -2.8345    3.3307    1.6168 H   0  0  0  0  0  0  0  0  0  0  0  0
  5  6  2  0  0  0  0
  5  7  1  0  0  0  0
  2  3  1  0  0  0  0
  2  4  1  0  0  0  0
  2  5  1  0  0  0  0
  1  2  1  0  0  0  0
 22 23  2  0  0  0  0
 22 24  1  0  0  0  0
 20 21  1  0  0  0  0
 18 19  1  0  0  0  0
 18 20  1  0  0  0  0
 16 17  1  0  0  0  0
 16 18  1  0  0  0  0
 15 16  2  0  0  0  0
 14 15  1  0  0  0  0
 14 20  2  0  0  0  0
 11 12  1  0  0  0  0
 11 13  1  0  0  0  0
 11 14  1  0  0  0  0
  9 10  1  0  0  0  0
  9 11  1  0  0  0  0
  9 22  1  0  0  0  0
  7  8  1  0  0  0  0
  7  9  1  0  0  0  0
 26 27  1  0  0  0  0
 26 28  1  0  0  0  0
 26 29  1  0  0  0  0
 24 25  1  0  0  0  0
 24 26  1  0  0  0  0
M  END
$$$$
default_name
  -OEChem-01062215323D

 29 29  0     1  0  0  0  0  0999 V2000
   -2.9561   -3.9186    1.3887 H   0  0  0  0  0  0  0  0  0  0  0  0
   -3.1191   -2.9346    0.9517 C   0  0  0  0  0  0  0  0  0  0  0  0
   -3.7811   -2.3546    1.5917 H   0  0  0  0  0  0  0  0  0  0  0  0
   -3.5591   -3.0406   -0.0383 H   0  0  0  0  0  0  0  0  0  0  0  0
   -1.7921   -2.2226    0.8327 C   0  0  0  0  0  0  0  0  0  0  0  0
   -0.7611   -2.7766    1.1927 O   0  0  0  0  0  0  0  0  0  0  0  0
   -1.8201   -0.9926    0.3247 N   0  0  0  0  0  0  0  0  0  0  0  0
   -2.7141   -0.5816    0.0927 H   0  0  0  0  0  0  0  0  0  0  0  0
   -0.6481   -0.1156    0.2017 C   0  0  1  0  0  0  0  0  0  0  0  0
    0.0237   -0.3260    1.0363 H   0  0  0  0  0  0  0  0  0  0  0  0
    0.0996   -0.4277   -1.1092 C   0  0  0  0  0  0  0  0  0  0  0  0
   -0.5840   -0.3375   -1.9546 H   0  0  0  0  0  0  0  0  0  0  0  0
    0.9022    0.2960   -1.2575 H   0  0  0  0  0  0  0  0  0  0  0  0
    0.6704   -1.8245   -1.1407 C   0  0  0  0  0  0  0  0  0  0  0  0
    1.8005   -2.2617   -0.4486 N   0  0  0  0  0  0  0  0  0  0  0  0
    1.9182   -3.5692   -0.7220 C   0  0  0  0  0  0  0  0  0  0  0  0
    2.7081   -4.2056   -0.3433 H   0  0  0  0  0  0  0  0  0  0  0  0
    0.9160   -3.9739   -1.5202 N   0  0  0  0  0  0  0  0  0  0  0  0
    0.7740   -4.9189   -1.8497 H   0  0  0  0  0  0  0  0  0  0  0  0
    0.1153   -2.8869   -1.7923 C   0  0  0  0  0  0  0  0  0  0  0  0
   -0.7905   -2.8648   -2.3851 H   0  0  0  0  0  0  0  0  0  0  0  0
   -1.0621    1.3632    0.3056 C   0  0  0  0  0  0  0  0  0  0  0  0
   -0.2839    2.2473   -0.0525 O   0  0  0  0  0  0  0  0  0  0  0  0
   -2.2811    1.6337    0.7828 N   0  0  0  0  0  0  0  0  0  0  0  0
   -2.8134    0.8540    1.1524 H   0  0  0  0  0  0  0  0  0  0  0  0
   -2.8382    2.9757    0.9350 C   0  0  0  0  0  0  0  0  0  0  0  0
   -2.4991    3.6179    0.1181 H   0  0  0  0  0  0  0  0  0  0  0  0
   -3.9280    2.9284    0.9231 H   0  0  0  0  0  0  0  0  0  0  0  0
   -2.5049    3.4043    1.8816 H   0  0  0  0  0  0  0  0  0  0  0  0
  5  6  2  0  0  0  0
  5  7  1  0  0  0  0
  2  3  1  0  0  0  0
  2  4  1  0  0  0  0
  2  5  1  0  0  0  0
  1  2  1  0  0  0  0
 22 23  2  0  0  0  0
 22 24  1  0  0  0  0
 20 21  1  0  0  0  0
 18 19  1  0  0  0  0
 18 20  1  0  0  0  0
 16 17  1  0  0  0  0
 16 18  1  0  0  0  0
 15 16  2  0  0  0  0
 14 15  1  0  0  0  0
 14 20  2  0  0  0  0
 11 12  1  0  0  0  0
 11 13  1  0  0  0  0
 11 14  1  0  0  0  0
  9 10  1  0  0  0  0
  9 11  1  0  0  0  0
  9 22  1  0  0  0  0
  7  8  1  0  0  0  0
  7  9  1  0  0  0  0
 26 27  1  0  0  0  0
 26 28  1  0  0  0  0
 26 29  1  0  0  0  0
 24 25  1  0  0  0  0
 24 26  1  0  0  0  0
M  END
$$$$
default_name
  -OEChem-01062215323D

 29 29  0     1  0  0  0  0  0999 V2000
   -2.9561   -3.9186    1.3887 H   0  0  0  0  0  0  0  0  0  0  0  0
   -3.1191   -2.9346    0.9517 C   0  0  0  0  0  0  0  0  0  0  0  0
   -3.7811   -2.3546    1.5917 H   0  0  0  0  0  0  0  0  0  0  0  0
   -3.5591   -3.0406   -0.0383 H   0  0  0  0  0  0  0  0  0  0  0  0
   -1.7921   -2.2226    0.8327 C   0  0  0  0  0  0  0  0  0  0  0  0
   -0.7611   -2.7766    1.1927 O   0  0  0  0  0  0  0  0  0  0  0  0
   -1.8201   -0.9926    0.3247 N   0  0  0  0  0  0  0  0  0  0  0  0
   -2.7141   -0.5816    0.0927 H   0  0  0  0  0  0  0  0  0  0  0  0
   -0.6481   -0.1156    0.2017 C   0  0  1  0  0  0  0  0  0  0  0  0
    0.0237   -0.3260    1.0363 H   0  0  0  0  0  0  0  0  0  0  0  0
    0.0996   -0.4277   -1.1092 C   0  0  0  0  0  0  0  0  0  0  0  0
   -0.5840   -0.3375   -1.9546 H   0  0  0  0  0  0  0  0  0  0  0  0
    0.9022    0.2960   -1.2575 H   0  0  0  0  0  0  0  0  0  0  0  0
    0.6704   -1.8245   -1.1407 C   0  0  0  0  0  0  0  0  0  0  0  0
    1.8005   -2.2617   -0.4486 N   0  0  0  0  0  0  0  0  0  0  0  0
    1.9182   -3.5692   -0.7220 C   0  0  0  0  0  0  0  0  0  0  0  0
    2.7081   -4.2056   -0.3433 H   0  0  0  0  0  0  0  0  0  0  0  0
    0.9160   -3.9739   -1.5202 N   0  0  0  0  0  0  0  0  0  0  0  0
    0.7740   -4.9189   -1.8497 H   0  0  0  0  0  0  0  0  0  0  0  0
    0.1153   -2.8869   -1.7923 C   0  0  0  0  0  0  0  0  0  0  0  0
   -0.7905   -2.8648   -2.3851 H   0  0  0  0  0  0  0  0  0  0  0  0
   -1.0621    1.3632    0.3056 C   0  0  0  0  0  0  0  0  0  0  0  0
   -0.4205    2.2261   -0.2939 O   0  0  0  0  0  0  0  0  0  0  0  0
   -2.1313    1.6567    1.0522 N   0  0  0  0  0  0  0  0  0  0  0  0
   -2.5346    0.9010    1.5946 H   0  0  0  0  0  0  0  0  0  0  0  0
   -2.6682    3.0013    1.2478 C   0  0  0  0  0  0  0  0  0  0  0  0
   -2.5594    3.5861    0.3307 H   0  0  0  0  0  0  0  0  0  0  0  0
   -3.7253    2.9438    1.5112 H   0  0  0  0  0  0  0  0  0  0  0  0
   -2.1220    3.4997    2.0502 H   0  0  0  0  0  0  0  0  0  0  0  0
  5  6  2  0  0  0  0
  5  7  1  0  0  0  0
  2  3  1  0  0  0  0
  2  4  1  0  0  0  0
  2  5  1  0  0  0  0
  1  2  1  0  0  0  0
 22 23  2  0  0  0  0
 22 24  1  0  0  0  0
 20 21  1  0  0  0  0
 18 19  1  0  0  0  0
 18 20  1  0  0  0  0
 16 17  1  0  0  0  0
 16 18  1  0  0  0  0
 15 16  2  0  0  0  0
 14 15  1  0  0  0  0
 14 20  2  0  0  0  0
 11 12  1  0  0  0  0
 11 13  1  0  0  0  0
 11 14  1  0  0  0  0
  9 10  1  0  0  0  0
  9 11  1  0  0  0  0
  9 22  1  0  0  0  0
  7  8  1  0  0  0  0
  7  9  1  0  0  0  0
 26 27  1  0  0  0  0
 26 28  1  0  0  0  0
 26 29  1  0  0  0  0
 24 25  1  0  0  0  0
 24 26  1  0  0  0  0
M  END
$$$$
default_name
  -OEChem-01062215323D

 29 29  0     1  0  0  0  0  0999 V2000
   -2.9561   -3.9186    1.3887 H   0  0  0  0  0  0  0  0  0  0  0  0
   -3.1191   -2.9346    0.9517 C   0  0  0  0  0  0  0  0  0  0  0  0
   -3.7811   -2.3546    1.5917 H   0  0  0  0  0  0  0  0  0  0  0  0
   -3.5591   -3.0406   -0.0383 H   0  0  0  0  0  0  0  0  0  0  0  0
   -1.7921   -2.2226    0.8327 C   0  0  0  0  0  0  0  0  0  0  0  0
   -0.7611   -2.7766    1.1927 O   0  0  0  0  0  0  0  0  0  0  0  0
   -1.8201   -0.9926    0.3247 N   0  0  0  0  0  0  0  0  0  0  0  0
   -2.7141   -0.5816    0.0927 H   0  0  0  0  0  0  0  0  0  0  0  0
   -0.6481   -0.1156    0.2017 C   0  0  1  0  0  0  0  0  0  0  0  0
    0.0237   -0.3260    1.0363 H   0  0  0  0  0  0  0  0  0  0  0  0
    0.0996   -0.4277   -1.1092 C   0  0  0  0  0  0  0  0  0  0  0  0
   -0.5840   -0.3375   -1.9546 H   0  0  0  0  0  0  0  0  0  0  0  0
    0.9022    0.2960   -1.2575 H   0  0  0  0  0  0  0  0  0  0  0  0
    0.6704   -1.8245   -1.1407 C   0  0  0  0  0  0  0  0  0  0  0  0
    1.8005   -2.2617   -0.4486 N   0  0  0  0  0  0  0  0  0  0  0  0
    1.9182   -3.5692   -0.7220 C   0  0  0  0  0  0  0  0  0  0  0  0
    2.7081   -4.2056   -0.3433 H   0  0  0  0  0  0  0  0  0  0  0  0
    0.9160   -3.9739   -1.5202 N   0  0  0  0  0  0  0  0  0  0  0  0
    0.7740   -4.9189   -1.8497 H   0  0  0  0  0  0  0  0  0  0  0  0
    0.1153   -2.8869   -1.7923 C   0  0  0  0  0  0  0  0  0  0  0  0
   -0.7905   -2.8648   -2.3851 H   0  0  0  0  0  0  0  0  0  0  0  0
   -1.0621    1.3632    0.3056 C   0  0  0  0  0  0  0  0  0  0  0  0
   -0.6122    2.1863   -0.4916 O   0  0  0  0  0  0  0  0  0  0  0  0
   -1.9200    1.7003    1.2737 N   0  0  0  0  0  0  0  0  0  0  0  0
   -2.1561    0.9820    1.9491 H   0  0  0  0  0  0  0  0  0  0  0  0
   -2.4268    3.0508    1.5058 C   0  0  0  0  0  0  0  0  0  0  0  0
   -2.5643    3.5691    0.5534 H   0  0  0  0  0  0  0  0  0  0  0  0
   -3.3836    3.0032    2.0277 H   0  0  0  0  0  0  0  0  0  0  0  0
   -1.7118    3.6102    2.1113 H   0  0  0  0  0  0  0  0  0  0  0  0
  5  6  2  0  0  0  0
  5  7  1  0  0  0  0
  2  3  1  0  0  0  0
  2  4  1  0  0  0  0
  2  5  1  0  0  0  0
  1  2  1  0  0  0  0
 22 23  2  0  0  0  0
 22 24  1  0  0  0  0
 20 21  1  0  0  0  0
 18 19  1  0  0  0  0
 18 20  1  0  0  0  0
 16 17  1  0  0  0  0
 16 18  1  0  0  0  0
 15 16  2  0  0  0  0
 14 15  1  0  0  0  0
 14 20  2  0  0  0  0
 11 12  1  0  0  0  0
 11 13  1  0  0  0  0
 11 14  1  0  0  0  0
  9 10  1  0  0  0  0
  9 11  1  0  0  0  0
  9 22  1  0  0  0  0
  7  8  1  0  0  0  0
  7  9  1  0  0  0  0
 26 27  1  0  0  0  0
 26 28  1  0  0  0  0
 26 29  1  0  0  0  0
 24 25  1  0  0  0  0
 24 26  1  0  0  0  0
M  END
$$$$
default_name
  -OEChem-01062215323D

 29 29  0     1  0  0  0  0  0999 V2000
   -2.9561   -3.9186    1.3887 H   0  0  0  0  0  0  0  0  0  0  0  0
   -3.1191   -2.9346    0.9517 C   0  0  0  0  0  0  0  0  0  0  0  0
   -3.7811   -2.3546    1.5917 H   0  0  0  0  0  0  0  0  0  0  0  0
   -3.5591   -3.0406   -0.0383 H   0  0  0  0  0  0  0  0  0  0  0  0
   -1.7921   -2.2226    0.8327 C   0  0  0  0  0  0  0  0  0  0  0  0
   -0.7611   -2.7766    1.1927 O   0  0  0  0  0  0  0  0  0  0  0  0
   -1.8201   -0.9926    0.3247 N   0  0  0  0  0  0  0  0  0  0  0  0
   -2.7141   -0.5816    0.0927 H   0  0  0  0  0  0  0  0  0  0  0  0
   -0.6481   -0.1156    0.2017 C   0  0  1  0  0  0  0  0  0  0  0  0
    0.0237   -0.3260    1.0363 H   0  0  0  0  0  0  0  0  0  0  0  0
    0.0996   -0.4277   -1.1092 C   0  0  0  0  0  0  0  0  0  0  0  0
   -0.5840   -0.3375   -1.9546 H   0  0  0  0  0  0  0  0  0  0  0  0
    0.9022    0.2960   -1.2575 H   0  0  0  0  0  0  0  0  0  0  0  0
    0.6704   -1.8245   -1.1407 C   0  0  0  0  0  0  0  0  0  0  0  0
    1.8005   -2.2617   -0.4486 N   0  0  0  0  0  0  0  0  0  0  0  0
    1.9182   -3.5692   -0.7220 C   0  0  0  0  0  0  0  0  0  0  0  0
    2.7081   -4.2056   -0.3433 H   0  0  0  0  0  0  0  0  0  0  0  0
    0.9160   -3.9739   -1.5202 N   0  0  0  0  0  0  0  0  0  0  0  0
    0.7740   -4.9189   -1.8497 H   0  0  0  0  0  0  0  0  0  0  0  0
    0.1153   -2.8869   -1.7923 C   0  0  0  0  0  0  0  0  0  0  0  0
   -0.7905   -2.8648   -2.3851 H   0  0  0  0  0  0  0  0  0  0  0  0
   -1.0621    1.3632    0.3056 C   0  0  0  0  0  0  0  0  0  0  0  0
   -0.8458    2.1308   -0.6322 O   0  0  0  0  0  0  0  0  0  0  0  0
   -1.6616    1.7615    1.4320 N   0  0  0  0  0  0  0  0  0  0  0  0
   -1.7038    1.0916    2.1918 H   0  0  0  0  0  0  0  0  0  0  0  0
   -2.1303    3.1207    1.6916 C   0  0  0  0  0  0  0  0  0  0  0  0
   -2.5133    3.5681    0.7708 H   0  0  0  0  0  0  0  0  0  0  0  0
   -2.9262    3.1025    2.4375 H   0  0  0  0  0  0  0  0  0  0  0  0
   -1.3024    3.7283    2.0606 H   0  0  0  0  0  0  0  0  0  0  0  0
  5  6  2  0  0  0  0
  5  7  1  0  0  0  0
  2  3  1  0  0  0  0
  2  4  1  0  0  0  0
  2  5  1  0  0  0  0
  1  2  1  0  0  0  0
 22 23  2  0  0  0  0
 22 24  1  0  0  0  0
 20 21  1  0  0  0  0
 18 19  1  0  0  0  0
 18 20  1  0  0  0  0
 16 17  1  0  0  0  0
 16 18  1  0  0  0  0
 15 16  2  0  0  0  0
 14 15  1  0  0  0  0
 14 20  2  0  0  0  0
 11 12  1  0  0  0  0
 11 13  1  0  0  0  0
 11 14  1  0  0  0  0
  9 10  1  0  0  0  0
  9 11  1  0  0  0  0
  9 22  1  0  0  0  0
  7  8  1  0  0  0  0
  7  9  1  0  0  0  0
 26 27  1  0  0  0  0
 26 28  1  0  0  0  0
 26 29  1  0  0  0  0
 24 25  1  0  0  0  0
 24 26  1  0  0  0  0
M  END
$$$$
default_name
  -OEChem-01062215323D

 29 29  0     1  0  0  0  0  0999 V2000
   -2.9561   -3.9186    1.3887 H   0  0  0  0  0  0  0  0  0  0  0  0
   -3.1191   -2.9346    0.9517 C   0  0  0  0  0  0  0  0  0  0  0  0
   -3.7811   -2.3546    1.5917 H   0  0  0  0  0  0  0  0  0  0  0  0
   -3.5591   -3.0406   -0.0383 H   0  0  0  0  0  0  0  0  0  0  0  0
   -1.7921   -2.2226    0.8327 C   0  0  0  0  0  0  0  0  0  0  0  0
   -0.7611   -2.7766    1.1927 O   0  0  0  0  0  0  0  0  0  0  0  0
   -1.8201   -0.9926    0.3247 N   0  0  0  0  0  0  0  0  0  0  0  0
   -2.7141   -0.5816    0.0927 H   0  0  0  0  0  0  0  0  0  0  0  0
   -0.6481   -0.1156    0.2017 C   0  0  1  0  0  0  0  0  0  0  0  0
    0.0237   -0.3260    1.0363 H   0  0  0  0  0  0  0  0  0  0  0  0
    0.0996   -0.4277   -1.1092 C   0  0  0  0  0  0  0  0  0  0  0  0
   -0.5840   -0.3375   -1.9546 H   0  0  0  0  0  0  0  0  0  0  0  0
    0.9022    0.2960   -1.2575 H   0  0  0  0  0  0  0  0  0  0  0  0
    0.6704   -1.8245   -1.1407 C   0  0  0  0  0  0  0  0  0  0  0  0
    1.8005   -2.2617   -0.4486 N   0  0  0  0  0  0  0  0  0  0  0  0
    1.9182   -3.5692   -0.7220 C   0  0  0  0  0  0  0  0  0  0  0  0
    2.7081   -4.2056   -0.3433 H   0  0  0  0  0  0  0  0  0  0  0  0
    0.9160   -3.9739   -1.5202 N   0  0  0  0  0  0  0  0  0  0  0  0
    0.7740   -4.9189   -1.8497 H   0  0  0  0  0  0  0  0  0  0  0  0
    0.1153   -2.8869   -1.7923 C   0  0  0  0  0  0  0  0  0  0  0  0
   -0.7905   -2.8648   -2.3851 H   0  0  0  0  0  0  0  0  0  0  0  0
   -1.0621    1.3632    0.3056 C   0  0  0  0  0  0  0  0  0  0  0  0
   -1.1054    2.0633   -0.7061 O   0  0  0  0  0  0  0  0  0  0  0  0
   -1.3737    1.8361    1.5164 N   0  0  0  0  0  0  0  0  0  0  0  0
   -1.2085    1.2222    2.3062 H   0  0  0  0  0  0  0  0  0  0  0  0
   -1.7989    3.2064    1.7924 C   0  0  0  0  0  0  0  0  0  0  0  0
   -2.4099    3.5831    0.9682 H   0  0  0  0  0  0  0  0  0  0  0  0
   -2.3841    3.2348    2.7127 H   0  0  0  0  0  0  0  0  0  0  0  0
   -0.9216    3.8461    1.9016 H   0  0  0  0  0  0  0  0  0  0  0  0
  5  6  2  0  0  0  0
  5  7  1  0  0  0  0
  2  3  1  0  0  0  0
  2  4  1  0  0  0  0
  2  5  1  0  0  0  0
  1  2  1  0  0  0  0
 22 23  2  0  0  0  0
 22 24  1  0  0  0  0
 20 21  1  0  0  0  0
 18 19  1  0  0  0  0
 18 20  1  0  0  0  0
 16 17  1  0  0  0  0
 16 18  1  0  0  0  0
 15 16  2  0  0  0  0
 14 15  1  0  0  0  0
 14 20  2  0  0  0  0
 11 12  1  0  0  0  0
 11 13  1  0  0  0  0
 11 14  1  0  0  0  0
  9 10  1  0  0  0  0
  9 11  1  0  0  0  0
  9 22  1  0  0  0  0
  7  8  1  0  0  0  0
  7  9  1  0  0  0  0
 26 27  1  0  0  0  0
 26 28  1  0  0  0  0
 26 29  1  0  0  0  0
 24 25  1  0  0  0  0
 24 26  1  0  0  0  0
M  END
$$$$
default_name
  -OEChem-01062215323D

 29 29  0     1  0  0  0  0  0999 V2000
   -2.9561   -3.9186    1.3887 H   0  0  0  0  0  0  0  0  0  0  0  0
   -3.1191   -2.9346    0.9517 C   0  0  0  0  0  0  0  0  0  0  0  0
   -3.7811   -2.3546    1.5917 H   0  0  0  0  0  0  0  0  0  0  0  0
   -3.5591   -3.0406   -0.0383 H   0  0  0  0  0  0  0  0  0  0  0  0
   -1.7921   -2.2226    0.8327 C   0  0  0  0  0  0  0  0  0  0  0  0
   -0.7611   -2.7766    1.1927 O   0  0  0  0  0  0  0  0  0  0  0  0
   -1.8201   -0.9926    0.3247 N   0  0  0  0  0  0  0  0  0  0  0  0
   -2.7141   -0.5816    0.0927 H   0  0  0  0  0  0  0  0  0  0  0  0
   -0.6481   -0.1156    0.2017 C   0  0  1  0  0  0  0  0  0  0  0  0
    0.0237   -0.3260    1.0363 H   0  0  0  0  0  0  0  0  0  0  0  0
    0.0996   -0.4277   -1.1092 C   0  0  0  0  0  0  0  0  0  0  0  0
   -0.5840   -0.3375   -1.9546 H   0  0  0  0  0  0  0  0  0  0  0  0
    0.9022    0.2960   -1.2575 H   0  0  0  0  0  0  0  0  0  0  0  0
    0.6704   -1.8245   -1.1407 C   0  0  0  0  0  0  0  0  0  0  0  0
    1.8005   -2.2617   -0.4486 N   0  0  0  0  0  0  0  0  0  0  0  0
    1.9182   -3.5692   -0.7220 C   0  0  0  0  0  0  0  0  0  0  0  0
    2.7081   -4.2056   -0.3433 H   0  0  0  0  0  0  0  0  0  0  0  0
    0.9160   -3.9739   -1.5202 N   0  0  0  0  0  0  0  0  0  0  0  0
    0.7740   -4.9189   -1.8497 H   0  0  0  0  0  0  0  0  0  0  0  0
    0.1153   -2.8869   -1.7923 C   0  0  0  0  0  0  0  0  0  0  0  0
   -0.7905   -2.8648   -2.3851 H   0  0  0  0  0  0  0  0  0  0  0  0
   -1.0621    1.3632    0.3056 C   0  0  0  0  0  0  0  0  0  0  0  0
   -1.3734    1.9885   -0.7081 O   0  0  0  0  0  0  0  0  0  0  0  0
   -1.0759    1.9191    1.5211 N   0  0  0  0  0  0  0  0  0  0  0  0
   -0.7039    1.3649    2.2843 H   0  0  0  0  0  0  0  0  0  0  0  0
   -1.4552    3.3019    1.8015 C   0  0  0  0  0  0  0  0  0  0  0  0
   -2.2613    3.6132    1.1321 H   0  0  0  0  0  0  0  0  0  0  0  0
   -1.7944    3.3913    2.8345 H   0  0  0  0  0  0  0  0  0  0  0  0
   -0.5954    3.9554    1.6451 H   0  0  0  0  0  0  0  0  0  0  0  0
  5  6  2  0  0  0  0
  5  7  1  0  0  0  0
  2  3  1  0  0  0  0
  2  4  1  0  0  0  0
  2  5  1  0  0  0  0
  1  2  1  0  0  0  0
 22 23  2  0  0  0  0
 22 24  1  0  0  0  0
 20 21  1  0  0  0  0
 18 19  1  0  0  0  0
 18 20  1  0  0  0  0
 16 17  1  0  0  0  0
 16 18  1  0  0  0  0
 15 16  2  0  0  0  0
 14 15  1  0  0  0  0
 14 20  2  0  0  0  0
 11 12  1  0  0  0  0
 11 13  1  0  0  0  0
 11 14  1  0  0  0  0
  9 10  1  0  0  0  0
  9 11  1  0  0  0  0
  9 22  1  0  0  0  0
  7  8  1  0  0  0  0
  7  9  1  0  0  0  0
 26 27  1  0  0  0  0
 26 28  1  0  0  0  0
 26 29  1  0  0  0  0
 24 25  1  0  0  0  0
 24 26  1  0  0  0  0
M  END
$$$$
default_name
  -OEChem-01062215323D

 29 29  0     1  0  0  0  0  0999 V2000
   -2.9561   -3.9186    1.3887 H   0  0  0  0  0  0  0  0  0  0  0  0
   -3.1191   -2.9346    0.9517 C   0  0  0  0  0  0  0  0  0  0  0  0
   -3.7811   -2.3546    1.5917 H   0  0  0  0  0  0  0  0  0  0  0  0
   -3.5591   -3.0406   -0.0383 H   0  0  0  0  0  0  0  0  0  0  0  0
   -1.7921   -2.2226    0.8327 C   0  0  0  0  0  0  0  0  0  0  0  0
   -0.7611   -2.7766    1.1927 O   0  0  0  0  0  0  0  0  0  0  0  0
   -1.8201   -0.9926    0.3247 N   0  0  0  0  0  0  0  0  0  0  0  0
   -2.7141   -0.5816    0.0927 H   0  0  0  0  0  0  0  0  0  0  0  0
   -0.6481   -0.1156    0.2017 C   0  0  1  0  0  0  0  0  0  0  0  0
    0.0237   -0.3260    1.0363 H   0  0  0  0  0  0  0  0  0  0  0  0
    0.0996   -0.4277   -1.1092 C   0  0  0  0  0  0  0  0  0  0  0  0
   -0.5840   -0.3375   -1.9546 H   0  0  0  0  0  0  0  0  0  0  0  0
    0.9022    0.2960   -1.2575 H   0  0  0  0  0  0  0  0  0  0  0  0
    0.6704   -1.8245   -1.1407 C   0  0  0  0  0  0  0  0  0  0  0  0
    1.8005   -2.2617   -0.4486 N   0  0  0  0  0  0  0  0  0  0  0  0
    1.9182   -3.5692   -0.7220 C   0  0  0  0  0  0  0  0  0  0  0  0
    2.7081   -4.2056   -0.3433 H   0  0  0  0  0  0  0  0  0  0  0  0
    0.9160   -3.9739   -1.5202 N   0  0  0  0  0  0  0  0  0  0  0  0
    0.7740   -4.9189   -1.8497 H   0  0  0  0  0  0  0  0  0  0  0  0
    0.1153   -2.8869   -1.7923 C   0  0  0  0  0  0  0  0  0  0  0  0
   -0.7905   -2.8648   -2.3851 H   0  0  0  0  0  0  0  0  0  0  0  0
   -1.0621    1.3632    0.3056 C   0  0  0  0  0  0  0  0  0  0  0  0
   -1.6314    1.9113   -0.6383 O   0  0  0  0  0  0  0  0  0  0  0  0
   -0.7885    2.0049    1.4459 N   0  0  0  0  0  0  0  0  0  0  0  0
   -0.2245    1.5101    2.1278 H   0  0  0  0  0  0  0  0  0  0  0  0
   -1.1226    3.4009    1.7181 C   0  0  0  0  0  0  0  0  0  0  0  0
   -2.0775    3.6563    1.2514 H   0  0  0  0  0  0  0  0  0  0  0  0
   -1.1972    3.5613    2.7946 H   0  0  0  0  0  0  0  0  0  0  0  0
   -0.3460    4.0489    1.3087 H   0  0  0  0  0  0  0  0  0  0  0  0
  5  6  2  0  0  0  0
  5  7  1  0  0  0  0
  2  3  1  0  0  0  0
  2  4  1  0  0  0  0
  2  5  1  0  0  0  0
  1  2  1  0  0  0  0
 22 23  2  0  0  0  0
 22 24  1  0  0  0  0
 20 21  1  0  0  0  0
 18 19  1  0  0  0  0
 18 20  1  0  0  0  0
 16 17  1  0  0  0  0
 16 18  1  0  0  0  0
 15 16  2  0  0  0  0
 14 15  1  0  0  0  0
 14 20  2  0  0  0  0
 11 12  1  0  0  0  0
 11 13  1  0  0  0  0
 11 14  1  0  0  0  0
  9 10  1  0  0  0  0
  9 11  1  0  0  0  0
  9 22  1  0  0  0  0
  7  8  1  0  0  0  0
  7  9  1  0  0  0  0
 26 27  1  0  0  0  0
 26 28  1  0  0  0  0
 26 29  1  0  0  0  0
 24 25  1  0  0  0  0
 24 26  1  0  0  0  0
M  END
$$$$
default_name
  -OEChem-01062215323D

 29 29  0     1  0  0  0  0  0999 V2000
   -2.9561   -3.9186    1.3887 H   0  0  0  0  0  0  0  0  0  0  0  0
   -3.1191   -2.9346    0.9517 C   0  0  0  0  0  0  0  0  0  0  0  0
   -3.7811   -2.3546    1.5917 H   0  0  0  0  0  0  0  0  0  0  0  0
   -3.5591   -3.0406   -0.0383 H   0  0  0  0  0  0  0  0  0  0  0  0
   -1.7921   -2.2226    0.8327 C   0  0  0  0  0  0  0  0  0  0  0  0
   -0.7611   -2.7766    1.1927 O   0  0  0  0  0  0  0  0  0  0  0  0
   -1.8201   -0.9926    0.3247 N   0  0  0  0  0  0  0  0  0  0  0  0
   -2.7141   -0.5816    0.0927 H   0  0  0  0  0  0  0  0  0  0  0  0
   -0.6481   -0.1156    0.2017 C   0  0  1  0  0  0  0  0  0  0  0  0
    0.0237   -0.3260    1.0363 H   0  0  0  0  0  0  0  0  0  0  0  0
    0.0996   -0.4277   -1.1092 C   0  0  0  0  0  0  0  0  0  0  0  0
   -0.5840   -0.3375   -1.9546 H   0  0  0  0  0  0  0  0  0  0  0  0
    0.9022    0.2960   -1.2575 H   0  0  0  0  0  0  0  0  0  0  0  0
    0.6704   -1.8245   -1.1407 C   0  0  0  0  0  0  0  0  0  0  0  0
    1.8005   -2.2617   -0.4486 N   0  0  0  0  0  0  0  0  0  0  0  0
    1.9182   -3.5692   -0.7220 C   0  0  0  0  0  0  0  0  0  0  0  0
    2.7081   -4.2056   -0.3433 H   0  0  0  0  0  0  0  0  0  0  0  0
    0.9160   -3.9739   -1.5202 N   0  0  0  0  0  0  0  0  0  0  0  0
    0.7740   -4.9189   -1.8497 H   0  0  0  0  0  0  0  0  0  0  0  0
    0.1153   -2.8869   -1.7923 C   0  0  0  0  0  0  0  0  0  0  0  0
   -0.7905   -2.8648   -2.3851 H   0  0  0  0  0  0  0  0  0  0  0  0
   -1.0621    1.3632    0.3056 C   0  0  0  0  0  0  0  0  0  0  0  0
   -1.8619    1.8372   -0.5013 O   0  0  0  0  0  0  0  0  0  0  0  0
   -0.5312    2.0874    1.2958 N   0  0  0  0  0  0  0  0  0  0  0  0
    0.1972    1.6479    1.8473 H   0  0  0  0  0  0  0  0  0  0  0  0
   -0.8239    3.4965    1.5479 C   0  0  0  0  0  0  0  0  0  0  0  0
   -1.8710    3.7094    1.3179 H   0  0  0  0  0  0  0  0  0  0  0  0
   -0.6333    3.7331    2.5957 H   0  0  0  0  0  0  0  0  0  0  0  0
   -0.1903    4.1201    0.9151 H   0  0  0  0  0  0  0  0  0  0  0  0
  5  6  2  0  0  0  0
  5  7  1  0  0  0  0
  2  3  1  0  0  0  0
  2  4  1  0  0  0  0
  2  5  1  0  0  0  0
  1  2  1  0  0  0  0
 22 23  2  0  0  0  0
 22 24  1  0  0  0  0
 20 21  1  0  0  0  0
 18 19  1  0  0  0  0
 18 20  1  0  0  0  0
 16 17  1  0  0  0  0
 16 18  1  0  0  0  0
 15 16  2  0  0  0  0
 14 15  1  0  0  0  0
 14 20  2  0  0  0  0
 11 12  1  0  0  0  0
 11 13  1  0  0  0  0
 11 14  1  0  0  0  0
  9 10  1  0  0  0  0
  9 11  1  0  0  0  0
  9 22  1  0  0  0  0
  7  8  1  0  0  0  0
  7  9  1  0  0  0  0
 26 27  1  0  0  0  0
 26 28  1  0  0  0  0
 26 29  1  0  0  0  0
 24 25  1  0  0  0  0
 24 26  1  0  0  0  0
M  END
$$$$
default_name
  -OEChem-01062215323D

 29 29  0     1  0  0  0  0  0999 V2000
   -2.9561   -3.9186    1.3887 H   0  0  0  0  0  0  0  0  0  0  0  0
   -3.1191   -2.9346    0.9517 C   0  0  0  0  0  0  0  0  0  0  0  0
   -3.7811   -2.3546    1.5917 H   0  0  0  0  0  0  0  0  0  0  0  0
   -3.5591   -3.0406   -0.0383 H   0  0  0  0  0  0  0  0  0  0  0  0
   -1.7921   -2.2226    0.8327 C   0  0  0  0  0  0  0  0  0  0  0  0
   -0.7611   -2.7766    1.1927 O   0  0  0  0  0  0  0  0  0  0  0  0
   -1.8201   -0.9926    0.3247 N   0  0  0  0  0  0  0  0  0  0  0  0
   -2.7141   -0.5816    0.0927 H   0  0  0  0  0  0  0  0  0  0  0  0
   -0.6481   -0.1156    0.2017 C   0  0  1  0  0  0  0  0  0  0  0  0
    0.0237   -0.3260    1.0363 H   0  0  0  0  0  0  0  0  0  0  0  0
    0.0996   -0.4277   -1.1092 C   0  0  0  0  0  0  0  0  0  0  0  0
   -0.5840   -0.3375   -1.9546 H   0  0  0  0  0  0  0  0  0  0  0  0
    0.9022    0.2960   -1.2575 H   0  0  0  0  0  0  0  0  0  0  0  0
    0.6704   -1.8245   -1.1407 C   0  0  0  0  0  0  0  0  0  0  0  0
    1.8005   -2.2617   -0.4486 N   0  0  0  0  0  0  0  0  0  0  0  0
    1.9182   -3.5692   -0.7220 C   0  0  0  0  0  0  0  0  0  0  0  0
    2.7081   -4.2056   -0.3433 H   0  0  0  0  0  0  0  0  0  0  0  0
    0.9160   -3.9739   -1.5202 N   0  0  0  0  0  0  0  0  0  0  0  0
    0.7740   -4.9189   -1.8497 H   0  0  0  0  0  0  0  0  0  0  0  0
    0.1153   -2.8869   -1.7923 C   0  0  0  0  0  0  0  0  0  0  0  0
   -0.7905   -2.8648   -2.3851 H   0  0  0  0  0  0  0  0  0  0  0  0
   -1.0621    1.3632    0.3056 C   0  0  0  0  0  0  0  0  0  0  0  0
   -2.0492    1.7711   -0.3064 O   0  0  0  0  0  0  0  0  0  0  0  0
   -0.3214    2.1613    1.0811 N   0  0  0  0  0  0  0  0  0  0  0  0
    0.5323    1.7687    1.4619 H   0  0  0  0  0  0  0  0  0  0  0  0
   -0.5793    3.5821    1.3027 C   0  0  0  0  0  0  0  0  0  0  0  0
   -1.6560    3.7690    1.3271 H   0  0  0  0  0  0  0  0  0  0  0  0
   -0.1411    3.8951    2.2514 H   0  0  0  0  0  0  0  0  0  0  0  0
   -0.1391    4.1642    0.4913 H   0  0  0  0  0  0  0  0  0  0  0  0
  5  6  2  0  0  0  0
  5  7  1  0  0  0  0
  2  3  1  0  0  0  0
  2  4  1  0  0  0  0
  2  5  1  0  0  0  0
  1  2  1  0  0  0  0
 22 23  2  0  0  0  0
 22 24  1  0  0  0  0
 20 21  1  0  0  0  0
 18 19  1  0  0  0  0
 18 20  1  0  0  0  0
 16 17  1  0  0  0  0
 16 18  1  0  0  0  0
 15 16  2  0  0  0  0
 14 15  1  0  0  0  0
 14 20  2  0  0  0  0
 11 12  1  0  0  0  0
 11 13  1  0  0  0  0
 11 14  1  0  0  0  0
  9 10  1  0  0  0  0
  9 11  1  0  0  0  0
  9 22  1  0  0  0  0
  7  8  1  0  0  0  0
  7  9  1  0  0  0  0
 26 27  1  0  0  0  0
 26 28  1  0  0  0  0
 26 29  1  0  0  0  0
 24 25  1  0  0  0  0
 24 26  1  0  0  0  0
M  END
$$$$
default_name
  -OEChem-01062215323D

 29 29  0     1  0  0  0  0  0999 V2000
   -2.9561   -3.9186    1.3887 H   0  0  0  0  0  0  0  0  0  0  0  0
   -3.1191   -2.9346    0.9517 C   0  0  0  0  0  0  0  0  0  0  0  0
   -3.7811   -2.3546    1.5917 H   0  0  0  0  0  0  0  0  0  0  0  0
   -3.5591   -3.0406   -0.0383 H   0  0  0  0  0  0  0  0  0  0  0  0
   -1.7921   -2.2226    0.8327 C   0  0  0  0  0  0  0  0  0  0  0  0
   -0.7611   -2.7766    1.1927 O   0  0  0  0  0  0  0  0  0  0  0  0
   -1.8201   -0.9926    0.3247 N   0  0  0  0  0  0  0  0  0  0  0  0
   -2.7141   -0.5816    0.0927 H   0  0  0  0  0  0  0  0  0  0  0  0
   -0.6481   -0.1156    0.2017 C   0  0  1  0  0  0  0  0  0  0  0  0
    0.0237   -0.3260    1.0363 H   0  0  0  0  0  0  0  0  0  0  0  0
    0.0996   -0.4277   -1.1092 C   0  0  0  0  0  0  0  0  0  0  0  0
   -0.5840   -0.3375   -1.9546 H   0  0  0  0  0  0  0  0  0  0  0  0
    0.9022    0.2960   -1.2575 H   0  0  0  0  0  0  0  0  0  0  0  0
    0.6704   -1.8245   -1.1407 C   0  0  0  0  0  0  0  0  0  0  0  0
    1.8005   -2.2617   -0.4486 N   0  0  0  0  0  0  0  0  0  0  0  0
    1.9182   -3.5692   -0.7220 C   0  0  0  0  0  0  0  0  0  0  0  0
    2.7081   -4.2056   -0.3433 H   0  0  0  0  0  0  0  0  0  0  0  0
    0.9160   -3.9739   -1.5202 N   0  0  0  0  0  0  0  0  0  0  0  0
    0.7740   -4.9189   -1.8497 H   0  0  0  0  0  0  0  0  0  0  0  0
    0.1153   -2.8869   -1.7923 C   0  0  0  0  0  0  0  0  0  0  0  0
   -0.7905   -2.8648   -2.3851 H   0  0  0  0  0  0  0  0  0  0  0  0
   -1.0621    1.3632    0.3056 C   0  0  0  0  0  0  0  0  0  0  0  0
   -2.1806    1.7175   -0.0671 O   0  0  0  0  0  0  0  0  0  0  0  0
   -0.1734    2.2213    0.8163 N   0  0  0  0  0  0  0  0  0  0  0  0
    0.7581    1.8645    0.9979 H   0  0  0  0  0  0  0  0  0  0  0  0
   -0.4055    3.6521    0.9990 C   0  0  0  0  0  0  0  0  0  0  0  0
   -1.4470    3.8309    1.2784 H   0  0  0  0  0  0  0  0  0  0  0  0
    0.2460    4.0362    1.7852 H   0  0  0  0  0  0  0  0  0  0  0  0
   -0.1958    4.1782    0.0662 H   0  0  0  0  0  0  0  0  0  0  0  0
  5  6  2  0  0  0  0
  5  7  1  0  0  0  0
  2  3  1  0  0  0  0
  2  4  1  0  0  0  0
  2  5  1  0  0  0  0
  1  2  1  0  0  0  0
 22 23  2  0  0  0  0
 22 24  1  0  0  0  0
 20 21  1  0  0  0  0
 18 19  1  0  0  0  0
 18 20  1  0  0  0  0
 16 17  1  0  0  0  0
 16 18  1  0  0  0  0
 15 16  2  0  0  0  0
 14 15  1  0  0  0  0
 14 20  2  0  0  0  0
 11 12  1  0  0  0  0
 11 13  1  0  0  0  0
 11 14  1  0  0  0  0
  9 10  1  0  0  0  0
  9 11  1  0  0  0  0
  9 22  1  0  0  0  0
  7  8  1  0  0  0  0
  7  9  1  0  0  0  0
 26 27  1  0  0  0  0
 26 28  1  0  0  0  0
 26 29  1  0  0  0  0
 24 25  1  0  0  0  0
 24 26  1  0  0  0  0
M  END
$$$$
default_name
  -OEChem-01062215323D

 29 29  0     1  0  0  0  0  0999 V2000
   -2.9561   -3.9186    1.3887 H   0  0  0  0  0  0  0  0  0  0  0  0
   -3.1191   -2.9346    0.9517 C   0  0  0  0  0  0  0  0  0  0  0  0
   -3.7811   -2.3546    1.5917 H   0  0  0  0  0  0  0  0  0  0  0  0
   -3.5591   -3.0406   -0.0383 H   0  0  0  0  0  0  0  0  0  0  0  0
   -1.7921   -2.2226    0.8327 C   0  0  0  0  0  0  0  0  0  0  0  0
   -0.7611   -2.7766    1.1927 O   0  0  0  0  0  0  0  0  0  0  0  0
   -1.8201   -0.9926    0.3247 N   0  0  0  0  0  0  0  0  0  0  0  0
   -2.7141   -0.5816    0.0927 H   0  0  0  0  0  0  0  0  0  0  0  0
   -0.6481   -0.1156    0.2017 C   0  0  1  0  0  0  0  0  0  0  0  0
    0.0237   -0.3260    1.0363 H   0  0  0  0  0  0  0  0  0  0  0  0
    0.0996   -0.4277   -1.1092 C   0  0  0  0  0  0  0  0  0  0  0  0
   -0.5840   -0.3375   -1.9546 H   0  0  0  0  0  0  0  0  0  0  0  0
    0.9022    0.2960   -1.2575 H   0  0  0  0  0  0  0  0  0  0  0  0
    0.6704   -1.8245   -1.1407 C   0  0  0  0  0  0  0  0  0  0  0  0
    1.8005   -2.2617   -0.4486 N   0  0  0  0  0  0  0  0  0  0  0  0
    1.9182   -3.5692   -0.7220 C   0  0  0  0  0  0  0  0  0  0  0  0
    2.7081   -4.2056   -0.3433 H   0  0  0  0  0  0  0  0  0  0  0  0
    0.9160   -3.9739   -1.5202 N   0  0  0  0  0  0  0  0  0  0  0  0
    0.7740   -4.9189   -1.8497 H   0  0  0  0  0  0  0  0  0  0  0  0
    0.1153   -2.8869   -1.7923 C   0  0  0  0  0  0  0  0  0  0  0  0
   -0.7905   -2.8648   -2.3851 H   0  0  0  0  0  0  0  0  0  0  0  0
   -1.0621    1.3632    0.3056 C   0  0  0  0  0  0  0  0  0  0  0  0
   -2.2469    1.6801    0.2005 O   0  0  0  0  0  0  0  0  0  0  0  0
   -0.0973    2.2634    0.5196 N   0  0  0  0  0  0  0  0  0  0  0  0
    0.8591    1.9287    0.4869 H   0  0  0  0  0  0  0  0  0  0  0  0
   -0.3144    3.7016    0.6575 C   0  0  0  0  0  0  0  0  0  0  0  0
   -1.2584    3.8909    1.1751 H   0  0  0  0  0  0  0  0  0  0  0  0
    0.5014    4.1467    1.2288 H   0  0  0  0  0  0  0  0  0  0  0  0
   -0.3565    4.1611   -0.3313 H   0  0  0  0  0  0  0  0  0  0  0  0
  5  6  2  0  0  0  0
  5  7  1  0  0  0  0
  2  3  1  0  0  0  0
  2  4  1  0  0  0  0
  2  5  1  0  0  0  0
  1  2  1  0  0  0  0
 22 23  2  0  0  0  0
 22 24  1  0  0  0  0
 20 21  1  0  0  0  0
 18 19  1  0  0  0  0
 18 20  1  0  0  0  0
 16 17  1  0  0  0  0
 16 18  1  0  0  0  0
 15 16  2  0  0  0  0
 14 15  1  0  0  0  0
 14 20  2  0  0  0  0
 11 12  1  0  0  0  0
 11 13  1  0  0  0  0
 11 14  1  0  0  0  0
  9 10  1  0  0  0  0
  9 11  1  0  0  0  0
  9 22  1  0  0  0  0
  7  8  1  0  0  0  0
  7  9  1  0  0  0  0
 26 27  1  0  0  0  0
 26 28  1  0  0  0  0
 26 29  1  0  0  0  0
 24 25  1  0  0  0  0
 24 26  1  0  0  0  0
M  END
$$$$
default_name
  -OEChem-01062215323D

 29 29  0     1  0  0  0  0  0999 V2000
   -2.9561   -3.9186    1.3887 H   0  0  0  0  0  0  0  0  0  0  0  0
   -3.1191   -2.9346    0.9517 C   0  0  0  0  0  0  0  0  0  0  0  0
   -3.7811   -2.3546    1.5917 H   0  0  0  0  0  0  0  0  0  0  0  0
   -3.5591   -3.0406   -0.0383 H   0  0  0  0  0  0  0  0  0  0  0  0
   -1.7921   -2.2226    0.8327 C   0  0  0  0  0  0  0  0  0  0  0  0
   -0.7611   -2.7766    1.1927 O   0  0  0  0  0  0  0  0  0  0  0  0
   -1.8201   -0.9926    0.3247 N   0  0  0  0  0  0  0  0  0  0  0  0
   -2.7141   -0.5816    0.0927 H   0  0  0  0  0  0  0  0  0  0  0  0
   -0.6481   -0.1156    0.2017 C   0  0  1  0  0  0  0  0  0  0  0  0
    0.1344   -0.4988    0.8597 H   0  0  0  0  0  0  0  0  0  0  0  0
   -0.1211   -0.1520   -1.2460 C   0  0  0  0  0  0  0  0  0  0  0  0
   -0.9215    0.1160   -1.9372 H   0  0  0  0  0  0  0  0  0  0  0  0
    0.6765    0.5824   -1.3669 H   0  0  0  0  0  0  0  0  0  0  0  0
    0.3849   -1.5147   -1.6520 C   0  0  0  0  0  0  0  0  0  0  0  0
    1.5899   -2.0926   -1.2500 N   0  0  0  0  0  0  0  0  0  0  0  0
    1.6149   -3.3152   -1.8004 C   0  0  0  0  0  0  0  0  0  0  0  0
    2.4285   -4.0207   -1.6887 H   0  0  0  0  0  0  0  0  0  0  0  0
    0.4882   -3.5393   -2.4973 N   0  0  0  0  0  0  0  0  0  0  0  0
    0.2620   -4.3942   -2.9869 H   0  0  0  0  0  0  0  0  0  0  0  0
   -0.3028   -2.4151   -2.4121 C   0  0  0  0  0  0  0  0  0  0  0  0
   -1.2867   -2.2651   -2.8382 H   0  0  0  0  0  0  0  0  0  0  0  0
   -0.9851    1.3114    0.6698 C   0  0  0  0  0  0  0  0  0  0  0  0
   -2.1147    1.5736    1.0829 O   0  0  0  0  0  0  0  0  0  0  0  0
   -0.0128    2.2272    0.6163 N   0  0  0  0  0  0  0  0  0  0  0  0
    0.8526    1.9530    0.1646 H   0  0  0  0  0  0  0  0  0  0  0  0
   -0.1555    3.6203    1.0325 C   0  0  0  0  0  0  0  0  0  0  0  0
   -0.8181    3.6872    1.8992 H   0  0  0  0  0  0  0  0  0  0  0  0
    0.8203    4.0303    1.2968 H   0  0  0  0  0  0  0  0  0  0  0  0
   -0.5838    4.2036    0.2158 H   0  0  0  0  0  0  0  0  0  0  0  0
  5  6  2  0  0  0  0
  5  7  1  0  0  0  0
  2  3  1  0  0  0  0
  2  4  1  0  0  0  0
  2  5  1  0  0  0  0
  1  2  1  0  0  0  0
 22 23  2  0  0  0  0
 22 24  1  0  0  0  0
 20 21  1  0  0  0  0
 18 19  1  0  0  0  0
 18 20  1  0  0  0  0
 16 17  1  0  0  0  0
 16 18  1  0  0  0  0
 15 16  2  0  0  0  0
 14 15  1  0  0  0  0
 14 20  2  0  0  0  0
 11 12  1  0  0  0  0
 11 13  1  0  0  0  0
 11 14  1  0  0  0  0
  9 10  1  0  0  0  0
  9 11  1  0  0  0  0
  9 22  1  0  0  0  0
  7  8  1  0  0  0  0
  7  9  1  0  0  0  0
 26 27  1  0  0  0  0
 26 28  1  0  0  0  0
 26 29  1  0  0  0  0
 24 25  1  0  0  0  0
 24 26  1  0  0  0  0
M  END
$$$$
default_name
  -OEChem-01062215323D

 29 29  0     1  0  0  0  0  0999 V2000
   -2.9561   -3.9186    1.3887 H   0  0  0  0  0  0  0  0  0  0  0  0
   -3.1191   -2.9346    0.9517 C   0  0  0  0  0  0  0  0  0  0  0  0
   -3.7811   -2.3546    1.5917 H   0  0  0  0  0  0  0  0  0  0  0  0
   -3.5591   -3.0406   -0.0383 H   0  0  0  0  0  0  0  0  0  0  0  0
   -1.7921   -2.2226    0.8327 C   0  0  0  0  0  0  0  0  0  0  0  0
   -0.7611   -2.7766    1.1927 O   0  0  0  0  0  0  0  0  0  0  0  0
   -1.8201   -0.9926    0.3247 N   0  0  0  0  0  0  0  0  0  0  0  0
   -2.7141   -0.5816    0.0927 H   0  0  0  0  0  0  0  0  0  0  0  0
   -0.6481   -0.1156    0.2017 C   0  0  1  0  0  0  0  0  0  0  0  0
    0.1344   -0.4988    0.8597 H   0  0  0  0  0  0  0  0  0  0  0  0
   -0.1211   -0.1520   -1.2460 C   0  0  0  0  0  0  0  0  0  0  0  0
   -0.9215    0.1160   -1.9372 H   0  0  0  0  0  0  0  0  0  0  0  0
    0.6765    0.5824   -1.3669 H   0  0  0  0  0  0  0  0  0  0  0  0
    0.3849   -1.5147   -1.6520 C   0  0  0  0  0  0  0  0  0  0  0  0
    1.5899   -2.0926   -1.2500 N   0  0  0  0  0  0  0  0  0  0  0  0
    1.6149   -3.3152   -1.8004 C   0  0  0  0  0  0  0  0  0  0  0  0
    2.4285   -4.0207   -1.6887 H   0  0  0  0  0  0  0  0  0  0  0  0
    0.4882   -3.5393   -2.4973 N   0  0  0  0  0  0  0  0  0  0  0  0
    0.2620   -4.3942   -2.9869 H   0  0  0  0  0  0  0  0  0  0  0  0
   -0.3028   -2.4151   -2.4121 C   0  0  0  0  0  0  0  0  0  0  0  0
   -1.2867   -2.2651   -2.8382 H   0  0  0  0  0  0  0  0  0  0  0  0
   -0.9851    1.3114    0.6698 C   0  0  0  0  0  0  0  0  0  0  0  0
   -2.0023    1.5186    1.3314 O   0  0  0  0  0  0  0  0  0  0  0  0
   -0.1355    2.2891    0.3393 N   0  0  0  0  0  0  0  0  0  0  0  0
    0.6179    2.0484   -0.2951 H   0  0  0  0  0  0  0  0  0  0  0  0
   -0.2939    3.6929    0.7117 C   0  0  0  0  0  0  0  0  0  0  0  0
   -0.7348    3.7693    1.7090 H   0  0  0  0  0  0  0  0  0  0  0  0
    0.6780    4.1885    0.7122 H   0  0  0  0  0  0  0  0  0  0  0  0
   -0.9524    4.1885   -0.0035 H   0  0  0  0  0  0  0  0  0  0  0  0
  5  6  2  0  0  0  0
  5  7  1  0  0  0  0
  2  3  1  0  0  0  0
  2  4  1  0  0  0  0
  2  5  1  0  0  0  0
  1  2  1  0  0  0  0
 22 23  2  0  0  0  0
 22 24  1  0  0  0  0
 20 21  1  0  0  0  0
 18 19  1  0  0  0  0
 18 20  1  0  0  0  0
 16 17  1  0  0  0  0
 16 18  1  0  0  0  0
 15 16  2  0  0  0  0
 14 15  1  0  0  0  0
 14 20  2  0  0  0  0
 11 12  1  0  0  0  0
 11 13  1  0  0  0  0
 11 14  1  0  0  0  0
  9 10  1  0  0  0  0
  9 11  1  0  0  0  0
  9 22  1  0  0  0  0
  7  8  1  0  0  0  0
  7  9  1  0  0  0  0
 26 27  1  0  0  0  0
 26 28  1  0  0  0  0
 26 29  1  0  0  0  0
 24 25  1  0  0  0  0
 24 26  1  0  0  0  0
M  END
$$$$
default_name
  -OEChem-01062215323D

 29 29  0     1  0  0  0  0  0999 V2000
   -2.9561   -3.9186    1.3887 H   0  0  0  0  0  0  0  0  0  0  0  0
   -3.1191   -2.9346    0.9517 C   0  0  0  0  0  0  0  0  0  0  0  0
   -3.7811   -2.3546    1.5917 H   0  0  0  0  0  0  0  0  0  0  0  0
   -3.5591   -3.0406   -0.0383 H   0  0  0  0  0  0  0  0  0  0  0  0
   -1.7921   -2.2226    0.8327 C   0  0  0  0  0  0  0  0  0  0  0  0
   -0.7611   -2.7766    1.1927 O   0  0  0  0  0  0  0  0  0  0  0  0
   -1.8201   -0.9926    0.3247 N   0  0  0  0  0  0  0  0  0  0  0  0
   -2.7141   -0.5816    0.0927 H   0  0  0  0  0  0  0  0  0  0  0  0
   -0.6481   -0.1156    0.2017 C   0  0  1  0  0  0  0  0  0  0  0  0
    0.1344   -0.4988    0.8597 H   0  0  0  0  0  0  0  0  0  0  0  0
   -0.1211   -0.1520   -1.2460 C   0  0  0  0  0  0  0  0  0  0  0  0
   -0.9215    0.1160   -1.9372 H   0  0  0  0  0  0  0  0  0  0  0  0
    0.6765    0.5824   -1.3669 H   0  0  0  0  0  0  0  0  0  0  0  0
    0.3849   -1.5147   -1.6520 C   0  0  0  0  0  0  0  0  0  0  0  0
    1.5899   -2.0926   -1.2500 N   0  0  0  0  0  0  0  0  0  0  0  0
    1.6149   -3.3152   -1.8004 C   0  0  0  0  0  0  0  0  0  0  0  0
    2.4285   -4.0207   -1.6887 H   0  0  0  0  0  0  0  0  0  0  0  0
    0.4882   -3.5393   -2.4973 N   0  0  0  0  0  0  0  0  0  0  0  0
    0.2620   -4.3942   -2.9869 H   0  0  0  0  0  0  0  0  0  0  0  0
   -0.3028   -2.4151   -2.4121 C   0  0  0  0  0  0  0  0  0  0  0  0
   -1.2867   -2.2651   -2.8382 H   0  0  0  0  0  0  0  0  0  0  0  0
   -0.9851    1.3114    0.6698 C   0  0  0  0  0  0  0  0  0  0  0  0
   -1.8298    1.4884    1.5476 O   0  0  0  0  0  0  0  0  0  0  0  0
   -0.3253    2.3235    0.0977 N   0  0  0  0  0  0  0  0  0  0  0  0
    0.2735    2.0960   -0.6882 H   0  0  0  0  0  0  0  0  0  0  0  0
   -0.5103    3.7339    0.4310 C   0  0  0  0  0  0  0  0  0  0  0  0
   -0.7064    3.8444    1.5006 H   0  0  0  0  0  0  0  0  0  0  0  0
    0.3877    4.2969    0.1727 H   0  0  0  0  0  0  0  0  0  0  0  0
   -1.3599    4.1324   -0.1259 H   0  0  0  0  0  0  0  0  0  0  0  0
  5  6  2  0  0  0  0
  5  7  1  0  0  0  0
  2  3  1  0  0  0  0
  2  4  1  0  0  0  0
  2  5  1  0  0  0  0
  1  2  1  0  0  0  0
 22 23  2  0  0  0  0
 22 24  1  0  0  0  0
 20 21  1  0  0  0  0
 18 19  1  0  0  0  0
 18 20  1  0  0  0  0
 16 17  1  0  0  0  0
 16 18  1  0  0  0  0
 15 16  2  0  0  0  0
 14 15  1  0  0  0  0
 14 20  2  0  0  0  0
 11 12  1  0  0  0  0
 11 13  1  0  0  0  0
 11 14  1  0  0  0  0
  9 10  1  0  0  0  0
  9 11  1  0  0  0  0
  9 22  1  0  0  0  0
  7  8  1  0  0  0  0
  7  9  1  0  0  0  0
 26 27  1  0  0  0  0
 26 28  1  0  0  0  0
 26 29  1  0  0  0  0
 24 25  1  0  0  0  0
 24 26  1  0  0  0  0
M  END
$$$$
default_name
  -OEChem-01062215323D

 29 29  0     1  0  0  0  0  0999 V2000
   -2.9561   -3.9186    1.3887 H   0  0  0  0  0  0  0  0  0  0  0  0
   -3.1191   -2.9346    0.9517 C   0  0  0  0  0  0  0  0  0  0  0  0
   -3.7811   -2.3546    1.5917 H   0  0  0  0  0  0  0  0  0  0  0  0
   -3.5591   -3.0406   -0.0383 H   0  0  0  0  0  0  0  0  0  0  0  0
   -1.7921   -2.2226    0.8327 C   0  0  0  0  0  0  0  0  0  0  0  0
   -0.7611   -2.7766    1.1927 O   0  0  0  0  0  0  0  0  0  0  0  0
   -1.8201   -0.9926    0.3247 N   0  0  0  0  0  0  0  0  0  0  0  0
   -2.7141   -0.5816    0.0927 H   0  0  0  0  0  0  0  0  0  0  0  0
   -0.6481   -0.1156    0.2017 C   0  0  1  0  0  0  0  0  0  0  0  0
    0.1344   -0.4988    0.8597 H   0  0  0  0  0  0  0  0  0  0  0  0
   -0.1211   -0.1520   -1.2460 C   0  0  0  0  0  0  0  0  0  0  0  0
   -0.9215    0.1160   -1.9372 H   0  0  0  0  0  0  0  0  0  0  0  0
    0.6765    0.5824   -1.3669 H   0  0  0  0  0  0  0  0  0  0  0  0
    0.3849   -1.5147   -1.6520 C   0  0  0  0  0  0  0  0  0  0  0  0
    1.5899   -2.0926   -1.2500 N   0  0  0  0  0  0  0  0  0  0  0  0
    1.6149   -3.3152   -1.8004 C   0  0  0  0  0  0  0  0  0  0  0  0
    2.4285   -4.0207   -1.6887 H   0  0  0  0  0  0  0  0  0  0  0  0
    0.4882   -3.5393   -2.4973 N   0  0  0  0  0  0  0  0  0  0  0  0
    0.2620   -4.3942   -2.9869 H   0  0  0  0  0  0  0  0  0  0  0  0
   -0.3028   -2.4151   -2.4121 C   0  0  0  0  0  0  0  0  0  0  0  0
   -1.2867   -2.2651   -2.8382 H   0  0  0  0  0  0  0  0  0  0  0  0
   -0.9851    1.3114    0.6698 C   0  0  0  0  0  0  0  0  0  0  0  0
   -1.6089    1.4851    1.7167 O   0  0  0  0  0  0  0  0  0  0  0  0
   -0.5693    2.3281   -0.0920 N   0  0  0  0  0  0  0  0  0  0  0  0
   -0.1573    2.0926   -0.9880 H   0  0  0  0  0  0  0  0  0  0  0  0
   -0.7899    3.7406    0.2094 C   0  0  0  0  0  0  0  0  0  0  0  0
   -0.7348    3.9073    1.2882 H   0  0  0  0  0  0  0  0  0  0  0  0
   -0.0307    4.3482   -0.2849 H   0  0  0  0  0  0  0  0  0  0  0  0
   -1.7785    4.0393   -0.1432 H   0  0  0  0  0  0  0  0  0  0  0  0
  5  6  2  0  0  0  0
  5  7  1  0  0  0  0
  2  3  1  0  0  0  0
  2  4  1  0  0  0  0
  2  5  1  0  0  0  0
  1  2  1  0  0  0  0
 22 23  2  0  0  0  0
 22 24  1  0  0  0  0
 20 21  1  0  0  0  0
 18 19  1  0  0  0  0
 18 20  1  0  0  0  0
 16 17  1  0  0  0  0
 16 18  1  0  0  0  0
 15 16  2  0  0  0  0
 14 15  1  0  0  0  0
 14 20  2  0  0  0  0
 11 12  1  0  0  0  0
 11 13  1  0  0  0  0
 11 14  1  0  0  0  0
  9 10  1  0  0  0  0
  9 11  1  0  0  0  0
  9 22  1  0  0  0  0
  7  8  1  0  0  0  0
  7  9  1  0  0  0  0
 26 27  1  0  0  0  0
 26 28  1  0  0  0  0
 26 29  1  0  0  0  0
 24 25  1  0  0  0  0
 24 26  1  0  0  0  0
M  END
$$$$
default_name
  -OEChem-01062215323D

 29 29  0     1  0  0  0  0  0999 V2000
   -2.9561   -3.9186    1.3887 H   0  0  0  0  0  0  0  0  0  0  0  0
   -3.1191   -2.9346    0.9517 C   0  0  0  0  0  0  0  0  0  0  0  0
   -3.7811   -2.3546    1.5917 H   0  0  0  0  0  0  0  0  0  0  0  0
   -3.5591   -3.0406   -0.0383 H   0  0  0  0  0  0  0  0  0  0  0  0
   -1.7921   -2.2226    0.8327 C   0  0  0  0  0  0  0  0  0  0  0  0
   -0.7611   -2.7766    1.1927 O   0  0  0  0  0  0  0  0  0  0  0  0
   -1.8201   -0.9926    0.3247 N   0  0  0  0  0  0  0  0  0  0  0  0
   -2.7141   -0.5816    0.0927 H   0  0  0  0  0  0  0  0  0  0  0  0
   -0.6481   -0.1156    0.2017 C   0  0  1  0  0  0  0  0  0  0  0  0
    0.1344   -0.4988    0.8597 H   0  0  0  0  0  0  0  0  0  0  0  0
   -0.1211   -0.1520   -1.2460 C   0  0  0  0  0  0  0  0  0  0  0  0
   -0.9215    0.1160   -1.9372 H   0  0  0  0  0  0  0  0  0  0  0  0
    0.6765    0.5824   -1.3669 H   0  0  0  0  0  0  0  0  0  0  0  0
    0.3849   -1.5147   -1.6520 C   0  0  0  0  0  0  0  0  0  0  0  0
    1.5899   -2.0926   -1.2500 N   0  0  0  0  0  0  0  0  0  0  0  0
    1.6149   -3.3152   -1.8004 C   0  0  0  0  0  0  0  0  0  0  0  0
    2.4285   -4.0207   -1.6887 H   0  0  0  0  0  0  0  0  0  0  0  0
    0.4882   -3.5393   -2.4973 N   0  0  0  0  0  0  0  0  0  0  0  0
    0.2620   -4.3942   -2.9869 H   0  0  0  0  0  0  0  0  0  0  0  0
   -0.3028   -2.4151   -2.4121 C   0  0  0  0  0  0  0  0  0  0  0  0
   -1.2867   -2.2651   -2.8382 H   0  0  0  0  0  0  0  0  0  0  0  0
   -0.9851    1.3114    0.6698 C   0  0  0  0  0  0  0  0  0  0  0  0
   -1.3547    1.5089    1.8273 O   0  0  0  0  0  0  0  0  0  0  0  0
   -0.8510    2.3026   -0.2170 N   0  0  0  0  0  0  0  0  0  0  0  0
   -0.6451    2.0385   -1.1740 H   0  0  0  0  0  0  0  0  0  0  0  0
   -1.1137    3.7125    0.0621 C   0  0  0  0  0  0  0  0  0  0  0  0
   -0.8183    3.9539    1.0864 H   0  0  0  0  0  0  0  0  0  0  0  0
   -0.5486    4.3390   -0.6295 H   0  0  0  0  0  0  0  0  0  0  0  0
   -2.1796    3.9154   -0.0542 H   0  0  0  0  0  0  0  0  0  0  0  0
  5  6  2  0  0  0  0
  5  7  1  0  0  0  0
  2  3  1  0  0  0  0
  2  4  1  0  0  0  0
  2  5  1  0  0  0  0
  1  2  1  0  0  0  0
 22 23  2  0  0  0  0
 22 24  1  0  0  0  0
 20 21  1  0  0  0  0
 18 19  1  0  0  0  0
 18 20  1  0  0  0  0
 16 17  1  0  0  0  0
 16 18  1  0  0  0  0
 15 16  2  0  0  0  0
 14 15  1  0  0  0  0
 14 20  2  0  0  0  0
 11 12  1  0  0  0  0
 11 13  1  0  0  0  0
 11 14  1  0  0  0  0
  9 10  1  0  0  0  0
  9 11  1  0  0  0  0
  9 22  1  0  0  0  0
  7  8  1  0  0  0  0
  7  9  1  0  0  0  0
 26 27  1  0  0  0  0
 26 28  1  0  0  0  0
 26 29  1  0  0  0  0
 24 25  1  0  0  0  0
 24 26  1  0  0  0  0
M  END
$$$$
default_name
  -OEChem-01062215323D

 29 29  0     1  0  0  0  0  0999 V2000
   -2.9561   -3.9186    1.3887 H   0  0  0  0  0  0  0  0  0  0  0  0
   -3.1191   -2.9346    0.9517 C   0  0  0  0  0  0  0  0  0  0  0  0
   -3.7811   -2.3546    1.5917 H   0  0  0  0  0  0  0  0  0  0  0  0
   -3.5591   -3.0406   -0.0383 H   0  0  0  0  0  0  0  0  0  0  0  0
   -1.7921   -2.2226    0.8327 C   0  0  0  0  0  0  0  0  0  0  0  0
   -0.7611   -2.7766    1.1927 O   0  0  0  0  0  0  0  0  0  0  0  0
   -1.8201   -0.9926    0.3247 N   0  0  0  0  0  0  0  0  0  0  0  0
   -2.7141   -0.5816    0.0927 H   0  0  0  0  0  0  0  0  0  0  0  0
   -0.6481   -0.1156    0.2017 C   0  0  1  0  0  0  0  0  0  0  0  0
    0.1344   -0.4988    0.8597 H   0  0  0  0  0  0  0  0  0  0  0  0
   -0.1211   -0.1520   -1.2460 C   0  0  0  0  0  0  0  0  0  0  0  0
   -0.9215    0.1160   -1.9372 H   0  0  0  0  0  0  0  0  0  0  0  0
    0.6765    0.5824   -1.3669 H   0  0  0  0  0  0  0  0  0  0  0  0
    0.3849   -1.5147   -1.6520 C   0  0  0  0  0  0  0  0  0  0  0  0
    1.5899   -2.0926   -1.2500 N   0  0  0  0  0  0  0  0  0  0  0  0
    1.6149   -3.3152   -1.8004 C   0  0  0  0  0  0  0  0  0  0  0  0
    2.4285   -4.0207   -1.6887 H   0  0  0  0  0  0  0  0  0  0  0  0
    0.4882   -3.5393   -2.4973 N   0  0  0  0  0  0  0  0  0  0  0  0
    0.2620   -4.3942   -2.9869 H   0  0  0  0  0  0  0  0  0  0  0  0
   -0.3028   -2.4151   -2.4121 C   0  0  0  0  0  0  0  0  0  0  0  0
   -1.2867   -2.2651   -2.8382 H   0  0  0  0  0  0  0  0  0  0  0  0
   -0.9851    1.3114    0.6698 C   0  0  0  0  0  0  0  0  0  0  0  0
   -1.0845    1.5581    1.8718 O   0  0  0  0  0  0  0  0  0  0  0  0
   -1.1510    2.2487   -0.2687 N   0  0  0  0  0  0  0  0  0  0  0  0
   -1.1567    1.9372   -1.2335 H   0  0  0  0  0  0  0  0  0  0  0  0
   -1.4596    3.6515   -0.0009 C   0  0  0  0  0  0  0  0  0  0  0  0
   -0.9510    3.9808    0.9088 H   0  0  0  0  0  0  0  0  0  0  0  0
   -1.1309    4.2697   -0.8375 H   0  0  0  0  0  0  0  0  0  0  0  0
   -2.5359    3.7692    0.1350 H   0  0  0  0  0  0  0  0  0  0  0  0
  5  6  2  0  0  0  0
  5  7  1  0  0  0  0
  2  3  1  0  0  0  0
  2  4  1  0  0  0  0
  2  5  1  0  0  0  0
  1  2  1  0  0  0  0
 22 23  2  0  0  0  0
 22 24  1  0  0  0  0
 20 21  1  0  0  0  0
 18 19  1  0  0  0  0
 18 20  1  0  0  0  0
 16 17  1  0  0  0  0
 16 18  1  0  0  0  0
 15 16  2  0  0  0  0
 14 15  1  0  0  0  0
 14 20  2  0  0  0  0
 11 12  1  0  0  0  0
 11 13  1  0  0  0  0
 11 14  1  0  0  0  0
  9 10  1  0  0  0  0
  9 11  1  0  0  0  0
  9 22  1  0  0  0  0
  7  8  1  0  0  0  0
  7  9  1  0  0  0  0
 26 27  1  0  0  0  0
 26 28  1  0  0  0  0
 26 29  1  0  0  0  0
 24 25  1  0  0  0  0
 24 26  1  0  0  0  0
M  END
$$$$
default_name
  -OEChem-01062215323D

 29 29  0     1  0  0  0  0  0999 V2000
   -2.9561   -3.9186    1.3887 H   0  0  0  0  0  0  0  0  0  0  0  0
   -3.1191   -2.9346    0.9517 C   0  0  0  0  0  0  0  0  0  0  0  0
   -3.7811   -2.3546    1.5917 H   0  0  0  0  0  0  0  0  0  0  0  0
   -3.5591   -3.0406   -0.0383 H   0  0  0  0  0  0  0  0  0  0  0  0
   -1.7921   -2.2226    0.8327 C   0  0  0  0  0  0  0  0  0  0  0  0
   -0.7611   -2.7766    1.1927 O   0  0  0  0  0  0  0  0  0  0  0  0
   -1.8201   -0.9926    0.3247 N   0  0  0  0  0  0  0  0  0  0  0  0
   -2.7141   -0.5816    0.0927 H   0  0  0  0  0  0  0  0  0  0  0  0
   -0.6481   -0.1156    0.2017 C   0  0  1  0  0  0  0  0  0  0  0  0
    0.1344   -0.4988    0.8597 H   0  0  0  0  0  0  0  0  0  0  0  0
   -0.1211   -0.1520   -1.2460 C   0  0  0  0  0  0  0  0  0  0  0  0
   -0.9215    0.1160   -1.9372 H   0  0  0  0  0  0  0  0  0  0  0  0
    0.6765    0.5824   -1.3669 H   0  0  0  0  0  0  0  0  0  0  0  0
    0.3849   -1.5147   -1.6520 C   0  0  0  0  0  0  0  0  0  0  0  0
    1.5899   -2.0926   -1.2500 N   0  0  0  0  0  0  0  0  0  0  0  0
    1.6149   -3.3152   -1.8004 C   0  0  0  0  0  0  0  0  0  0  0  0
    2.4285   -4.0207   -1.6887 H   0  0  0  0  0  0  0  0  0  0  0  0
    0.4882   -3.5393   -2.4973 N   0  0  0  0  0  0  0  0  0  0  0  0
    0.2620   -4.3942   -2.9869 H   0  0  0  0  0  0  0  0  0  0  0  0
   -0.3028   -2.4151   -2.4121 C   0  0  0  0  0  0  0  0  0  0  0  0
   -1.2867   -2.2651   -2.8382 H   0  0  0  0  0  0  0  0  0  0  0  0
   -0.9851    1.3114    0.6698 C   0  0  0  0  0  0  0  0  0  0  0  0
   -0.8167    1.6294    1.8471 O   0  0  0  0  0  0  0  0  0  0  0  0
   -1.4489    2.1701   -0.2436 N   0  0  0  0  0  0  0  0  0  0  0  0
   -1.6571    1.7958   -1.1625 H   0  0  0  0  0  0  0  0  0  0  0  0
   -1.8040    3.5617    0.0246 C   0  0  0  0  0  0  0  0  0  0  0  0
   -1.1239    3.9863    0.7675 H   0  0  0  0  0  0  0  0  0  0  0  0
   -1.7377    4.1452   -0.8947 H   0  0  0  0  0  0  0  0  0  0  0  0
   -2.8232    3.6106    0.4115 H   0  0  0  0  0  0  0  0  0  0  0  0
  5  6  2  0  0  0  0
  5  7  1  0  0  0  0
  2  3  1  0  0  0  0
  2  4  1  0  0  0  0
  2  5  1  0  0  0  0
  1  2  1  0  0  0  0
 22 23  2  0  0  0  0
 22 24  1  0  0  0  0
 20 21  1  0  0  0  0
 18 19  1  0  0  0  0
 18 20  1  0  0  0  0
 16 17  1  0  0  0  0
 16 18  1  0  0  0  0
 15 16  2  0  0  0  0
 14 15  1  0  0  0  0
 14 20  2  0  0  0  0
 11 12  1  0  0  0  0
 11 13  1  0  0  0  0
 11 14  1  0  0  0  0
  9 10  1  0  0  0  0
  9 11  1  0  0  0  0
  9 22  1  0  0  0  0
  7  8  1  0  0  0  0
  7  9  1  0  0  0  0
 26 27  1  0  0  0  0
 26 28  1  0  0  0  0
 26 29  1  0  0  0  0
 24 25  1  0  0  0  0
 24 26  1  0  0  0  0
M  END
$$$$
default_name
  -OEChem-01062215323D

 29 29  0     1  0  0  0  0  0999 V2000
   -2.9561   -3.9186    1.3887 H   0  0  0  0  0  0  0  0  0  0  0  0
   -3.1191   -2.9346    0.9517 C   0  0  0  0  0  0  0  0  0  0  0  0
   -3.7811   -2.3546    1.5917 H   0  0  0  0  0  0  0  0  0  0  0  0
   -3.5591   -3.0406   -0.0383 H   0  0  0  0  0  0  0  0  0  0  0  0
   -1.7921   -2.2226    0.8327 C   0  0  0  0  0  0  0  0  0  0  0  0
   -0.7611   -2.7766    1.1927 O   0  0  0  0  0  0  0  0  0  0  0  0
   -1.8201   -0.9926    0.3247 N   0  0  0  0  0  0  0  0  0  0  0  0
   -2.7141   -0.5816    0.0927 H   0  0  0  0  0  0  0  0  0  0  0  0
   -0.6481   -0.1156    0.2017 C   0  0  1  0  0  0  0  0  0  0  0  0
    0.1344   -0.4988    0.8597 H   0  0  0  0  0  0  0  0  0  0  0  0
   -0.1211   -0.1520   -1.2460 C   0  0  0  0  0  0  0  0  0  0  0  0
   -0.9215    0.1160   -1.9372 H   0  0  0  0  0  0  0  0  0  0  0  0
    0.6765    0.5824   -1.3669 H   0  0  0  0  0  0  0  0  0  0  0  0
    0.3849   -1.5147   -1.6520 C   0  0  0  0  0  0  0  0  0  0  0  0
    1.5899   -2.0926   -1.2500 N   0  0  0  0  0  0  0  0  0  0  0  0
    1.6149   -3.3152   -1.8004 C   0  0  0  0  0  0  0  0  0  0  0  0
    2.4285   -4.0207   -1.6887 H   0  0  0  0  0  0  0  0  0  0  0  0
    0.4882   -3.5393   -2.4973 N   0  0  0  0  0  0  0  0  0  0  0  0
    0.2620   -4.3942   -2.9869 H   0  0  0  0  0  0  0  0  0  0  0  0
   -0.3028   -2.4151   -2.4121 C   0  0  0  0  0  0  0  0  0  0  0  0
   -1.2867   -2.2651   -2.8382 H   0  0  0  0  0  0  0  0  0  0  0  0
   -0.9851    1.3114    0.6698 C   0  0  0  0  0  0  0  0  0  0  0  0
   -0.5696    1.7180    1.7549 O   0  0  0  0  0  0  0  0  0  0  0  0
   -1.7245    2.0722   -0.1434 N   0  0  0  0  0  0  0  0  0  0  0  0
   -2.1123    1.6238   -0.9659 H   0  0  0  0  0  0  0  0  0  0  0  0
   -2.1235    3.4494    0.1371 C   0  0  0  0  0  0  0  0  0  0  0  0
   -1.3252    3.9700    0.6723 H   0  0  0  0  0  0  0  0  0  0  0  0
   -2.3279    3.9740   -0.7974 H   0  0  0  0  0  0  0  0  0  0  0  0
   -3.0218    3.4505    0.7566 H   0  0  0  0  0  0  0  0  0  0  0  0
  5  6  2  0  0  0  0
  5  7  1  0  0  0  0
  2  3  1  0  0  0  0
  2  4  1  0  0  0  0
  2  5  1  0  0  0  0
  1  2  1  0  0  0  0
 22 23  2  0  0  0  0
 22 24  1  0  0  0  0
 20 21  1  0  0  0  0
 18 19  1  0  0  0  0
 18 20  1  0  0  0  0
 16 17  1  0  0  0  0
 16 18  1  0  0  0  0
 15 16  2  0  0  0  0
 14 15  1  0  0  0  0
 14 20  2  0  0  0  0
 11 12  1  0  0  0  0
 11 13  1  0  0  0  0
 11 14  1  0  0  0  0
  9 10  1  0  0  0  0
  9 11  1  0  0  0  0
  9 22  1  0  0  0  0
  7  8  1  0  0  0  0
  7  9  1  0  0  0  0
 26 27  1  0  0  0  0
 26 28  1  0  0  0  0
 26 29  1  0  0  0  0
 24 25  1  0  0  0  0
 24 26  1  0  0  0  0
M  END
$$$$
default_name
  -OEChem-01062215323D

 29 29  0     1  0  0  0  0  0999 V2000
   -2.9561   -3.9186    1.3887 H   0  0  0  0  0  0  0  0  0  0  0  0
   -3.1191   -2.9346    0.9517 C   0  0  0  0  0  0  0  0  0  0  0  0
   -3.7811   -2.3546    1.5917 H   0  0  0  0  0  0  0  0  0  0  0  0
   -3.5591   -3.0406   -0.0383 H   0  0  0  0  0  0  0  0  0  0  0  0
   -1.7921   -2.2226    0.8327 C   0  0  0  0  0  0  0  0  0  0  0  0
   -0.7611   -2.7766    1.1927 O   0  0  0  0  0  0  0  0  0  0  0  0
   -1.8201   -0.9926    0.3247 N   0  0  0  0  0  0  0  0  0  0  0  0
   -2.7141   -0.5816    0.0927 H   0  0  0  0  0  0  0  0  0  0  0  0
   -0.6481   -0.1156    0.2017 C   0  0  1  0  0  0  0  0  0  0  0  0
    0.1344   -0.4988    0.8597 H   0  0  0  0  0  0  0  0  0  0  0  0
   -0.1211   -0.1520   -1.2460 C   0  0  0  0  0  0  0  0  0  0  0  0
   -0.9215    0.1160   -1.9372 H   0  0  0  0  0  0  0  0  0  0  0  0
    0.6765    0.5824   -1.3669 H   0  0  0  0  0  0  0  0  0  0  0  0
    0.3849   -1.5147   -1.6520 C   0  0  0  0  0  0  0  0  0  0  0  0
    1.5899   -2.0926   -1.2500 N   0  0  0  0  0  0  0  0  0  0  0  0
    1.6149   -3.3152   -1.8004 C   0  0  0  0  0  0  0  0  0  0  0  0
    2.4285   -4.0207   -1.6887 H   0  0  0  0  0  0  0  0  0  0  0  0
    0.4882   -3.5393   -2.4973 N   0  0  0  0  0  0  0  0  0  0  0  0
    0.2620   -4.3942   -2.9869 H   0  0  0  0  0  0  0  0  0  0  0  0
   -0.3028   -2.4151   -2.4121 C   0  0  0  0  0  0  0  0  0  0  0  0
   -1.2867   -2.2651   -2.8382 H   0  0  0  0  0  0  0  0  0  0  0  0
   -0.9851    1.3114    0.6698 C   0  0  0  0  0  0  0  0  0  0  0  0
   -0.3599    1.8178    1.6016 O   0  0  0  0  0  0  0  0  0  0  0  0
   -1.9590    1.9616    0.0251 N   0  0  0  0  0  0  0  0  0  0  0  0
   -2.4913    1.4330   -0.6569 H   0  0  0  0  0  0  0  0  0  0  0  0
   -2.3963    3.3221    0.3287 C   0  0  0  0  0  0  0  0  0  0  0  0
   -1.5412    3.9330    0.6295 H   0  0  0  0  0  0  0  0  0  0  0  0
   -2.8610    3.7676   -0.5520 H   0  0  0  0  0  0  0  0  0  0  0  0
   -3.1183    3.2998    1.1466 H   0  0  0  0  0  0  0  0  0  0  0  0
  5  6  2  0  0  0  0
  5  7  1  0  0  0  0
  2  3  1  0  0  0  0
  2  4  1  0  0  0  0
  2  5  1  0  0  0  0
  1  2  1  0  0  0  0
 22 23  2  0  0  0  0
 22 24  1  0  0  0  0
 20 21  1  0  0  0  0
 18 19  1  0  0  0  0
 18 20  1  0  0  0  0
 16 17  1  0  0  0  0
 16 18  1  0  0  0  0
 15 16  2  0  0  0  0
 14 15  1  0  0  0  0
 14 20  2  0  0  0  0
 11 12  1  0  0  0  0
 11 13  1  0  0  0  0
 11 14  1  0  0  0  0
  9 10  1  0  0  0  0
  9 11  1  0  0  0  0
  9 22  1  0  0  0  0
  7  8  1  0  0  0  0
  7  9  1  0  0  0  0
 26 27  1  0  0  0  0
 26 28  1  0  0  0  0
 26 29  1  0  0  0  0
 24 25  1  0  0  0  0
 24 26  1  0  0  0  0
M  END
$$$$
default_name
  -OEChem-01062215323D

 29 29  0     1  0  0  0  0  0999 V2000
   -2.9561   -3.9186    1.3887 H   0  0  0  0  0  0  0  0  0  0  0  0
   -3.1191   -2.9346    0.9517 C   0  0  0  0  0  0  0  0  0  0  0  0
   -3.7811   -2.3546    1.5917 H   0  0  0  0  0  0  0  0  0  0  0  0
   -3.5591   -3.0406   -0.0383 H   0  0  0  0  0  0  0  0  0  0  0  0
   -1.7921   -2.2226    0.8327 C   0  0  0  0  0  0  0  0  0  0  0  0
   -0.7611   -2.7766    1.1927 O   0  0  0  0  0  0  0  0  0  0  0  0
   -1.8201   -0.9926    0.3247 N   0  0  0  0  0  0  0  0  0  0  0  0
   -2.7141   -0.5816    0.0927 H   0  0  0  0  0  0  0  0  0  0  0  0
   -0.6481   -0.1156    0.2017 C   0  0  1  0  0  0  0  0  0  0  0  0
    0.1344   -0.4988    0.8597 H   0  0  0  0  0  0  0  0  0  0  0  0
   -0.1211   -0.1520   -1.2460 C   0  0  0  0  0  0  0  0  0  0  0  0
   -0.9215    0.1160   -1.9372 H   0  0  0  0  0  0  0  0  0  0  0  0
    0.6765    0.5824   -1.3669 H   0  0  0  0  0  0  0  0  0  0  0  0
    0.3849   -1.5147   -1.6520 C   0  0  0  0  0  0  0  0  0  0  0  0
    1.5899   -2.0926   -1.2500 N   0  0  0  0  0  0  0  0  0  0  0  0
    1.6149   -3.3152   -1.8004 C   0  0  0  0  0  0  0  0  0  0  0  0
    2.4285   -4.0207   -1.6887 H   0  0  0  0  0  0  0  0  0  0  0  0
    0.4882   -3.5393   -2.4973 N   0  0  0  0  0  0  0  0  0  0  0  0
    0.2620   -4.3942   -2.9869 H   0  0  0  0  0  0  0  0  0  0  0  0
   -0.3028   -2.4151   -2.4121 C   0  0  0  0  0  0  0  0  0  0  0  0
   -1.2867   -2.2651   -2.8382 H   0  0  0  0  0  0  0  0  0  0  0  0
   -0.9851    1.3114    0.6698 C   0  0  0  0  0  0  0  0  0  0  0  0
   -0.2021    1.9220    1.3975 O   0  0  0  0  0  0  0  0  0  0  0  0
   -2.1363    1.8458    0.2504 N   0  0  0  0  0  0  0  0  0  0  0  0
   -2.7682    1.2363   -0.2568 H   0  0  0  0  0  0  0  0  0  0  0  0
   -2.6038    3.1886    0.5865 C   0  0  0  0  0  0  0  0  0  0  0  0
   -1.7573    3.8779    0.6421 H   0  0  0  0  0  0  0  0  0  0  0  0
   -3.3009    3.5402   -0.1754 H   0  0  0  0  0  0  0  0  0  0  0  0
   -3.1060    3.1687    1.5551 H   0  0  0  0  0  0  0  0  0  0  0  0
  5  6  2  0  0  0  0
  5  7  1  0  0  0  0
  2  3  1  0  0  0  0
  2  4  1  0  0  0  0
  2  5  1  0  0  0  0
  1  2  1  0  0  0  0
 22 23  2  0  0  0  0
 22 24  1  0  0  0  0
 20 21  1  0  0  0  0
 18 19  1  0  0  0  0
 18 20  1  0  0  0  0
 16 17  1  0  0  0  0
 16 18  1  0  0  0  0
 15 16  2  0  0  0  0
 14 15  1  0  0  0  0
 14 20  2  0  0  0  0
 11 12  1  0  0  0  0
 11 13  1  0  0  0  0
 11 14  1  0  0  0  0
  9 10  1  0  0  0  0
  9 11  1  0  0  0  0
  9 22  1  0  0  0  0
  7  8  1  0  0  0  0
  7  9  1  0  0  0  0
 26 27  1  0  0  0  0
 26 28  1  0  0  0  0
 26 29  1  0  0  0  0
 24 25  1  0  0  0  0
 24 26  1  0  0  0  0
M  END
$$$$
default_name
  -OEChem-01062215323D

 29 29  0     1  0  0  0  0  0999 V2000
   -2.9561   -3.9186    1.3887 H   0  0  0  0  0  0  0  0  0  0  0  0
   -3.1191   -2.9346    0.9517 C   0  0  0  0  0  0  0  0  0  0  0  0
   -3.7811   -2.3546    1.5917 H   0  0  0  0  0  0  0  0  0  0  0  0
   -3.5591   -3.0406   -0.0383 H   0  0  0  0  0  0  0  0  0  0  0  0
   -1.7921   -2.2226    0.8327 C   0  0  0  0  0  0  0  0  0  0  0  0
   -0.7611   -2.7766    1.1927 O   0  0  0  0  0  0  0  0  0  0  0  0
   -1.8201   -0.9926    0.3247 N   0  0  0  0  0  0  0  0  0  0  0  0
   -2.7141   -0.5816    0.0927 H   0  0  0  0  0  0  0  0  0  0  0  0
   -0.6481   -0.1156    0.2017 C   0  0  1  0  0  0  0  0  0  0  0  0
    0.1344   -0.4988    0.8597 H   0  0  0  0  0  0  0  0  0  0  0  0
   -0.1211   -0.1520   -1.2460 C   0  0  0  0  0  0  0  0  0  0  0  0
   -0.9215    0.1160   -1.9372 H   0  0  0  0  0  0  0  0  0  0  0  0
    0.6765    0.5824   -1.3669 H   0  0  0  0  0  0  0  0  0  0  0  0
    0.3849   -1.5147   -1.6520 C   0  0  0  0  0  0  0  0  0  0  0  0
    1.5899   -2.0926   -1.2500 N   0  0  0  0  0  0  0  0  0  0  0  0
    1.6149   -3.3152   -1.8004 C   0  0  0  0  0  0  0  0  0  0  0  0
    2.4285   -4.0207   -1.6887 H   0  0  0  0  0  0  0  0  0  0  0  0
    0.4882   -3.5393   -2.4973 N   0  0  0  0  0  0  0  0  0  0  0  0
    0.2620   -4.3942   -2.9869 H   0  0  0  0  0  0  0  0  0  0  0  0
   -0.3028   -2.4151   -2.4121 C   0  0  0  0  0  0  0  0  0  0  0  0
   -1.2867   -2.2651   -2.8382 H   0  0  0  0  0  0  0  0  0  0  0  0
   -0.9851    1.3114    0.6698 C   0  0  0  0  0  0  0  0  0  0  0  0
   -0.1068    2.0235    1.1566 O   0  0  0  0  0  0  0  0  0  0  0  0
   -2.2444    1.7328    0.5170 N   0  0  0  0  0  0  0  0  0  0  0  0
   -2.9241    1.0473    0.2073 H   0  0  0  0  0  0  0  0  0  0  0  0
   -2.7318    3.0579    0.8929 C   0  0  0  0  0  0  0  0  0  0  0  0
   -1.9586    3.8083    0.7093 H   0  0  0  0  0  0  0  0  0  0  0  0
   -3.6175    3.3072    0.3069 H   0  0  0  0  0  0  0  0  0  0  0  0
   -2.9859    3.0662    1.9541 H   0  0  0  0  0  0  0  0  0  0  0  0
  5  6  2  0  0  0  0
  5  7  1  0  0  0  0
  2  3  1  0  0  0  0
  2  4  1  0  0  0  0
  2  5  1  0  0  0  0
  1  2  1  0  0  0  0
 22 23  2  0  0  0  0
 22 24  1  0  0  0  0
 20 21  1  0  0  0  0
 18 19  1  0  0  0  0
 18 20  1  0  0  0  0
 16 17  1  0  0  0  0
 16 18  1  0  0  0  0
 15 16  2  0  0  0  0
 14 15  1  0  0  0  0
 14 20  2  0  0  0  0
 11 12  1  0  0  0  0
 11 13  1  0  0  0  0
 11 14  1  0  0  0  0
  9 10  1  0  0  0  0
  9 11  1  0  0  0  0
  9 22  1  0  0  0  0
  7  8  1  0  0  0  0
  7  9  1  0  0  0  0
 26 27  1  0  0  0  0
 26 28  1  0  0  0  0
 26 29  1  0  0  0  0
 24 25  1  0  0  0  0
 24 26  1  0  0  0  0
M  END
$$$$
default_name
  -OEChem-01062215323D

 29 29  0     1  0  0  0  0  0999 V2000
   -2.9561   -3.9186    1.3887 H   0  0  0  0  0  0  0  0  0  0  0  0
   -3.1191   -2.9346    0.9517 C   0  0  0  0  0  0  0  0  0  0  0  0
   -3.7811   -2.3546    1.5917 H   0  0  0  0  0  0  0  0  0  0  0  0
   -3.5591   -3.0406   -0.0383 H   0  0  0  0  0  0  0  0  0  0  0  0
   -1.7921   -2.2226    0.8327 C   0  0  0  0  0  0  0  0  0  0  0  0
   -0.7611   -2.7766    1.1927 O   0  0  0  0  0  0  0  0  0  0  0  0
   -1.8201   -0.9926    0.3247 N   0  0  0  0  0  0  0  0  0  0  0  0
   -2.7141   -0.5816    0.0927 H   0  0  0  0  0  0  0  0  0  0  0  0
   -0.6481   -0.1156    0.2017 C   0  0  1  0  0  0  0  0  0  0  0  0
    0.1344   -0.4988    0.8597 H   0  0  0  0  0  0  0  0  0  0  0  0
   -0.1211   -0.1520   -1.2460 C   0  0  0  0  0  0  0  0  0  0  0  0
   -0.9215    0.1160   -1.9372 H   0  0  0  0  0  0  0  0  0  0  0  0
    0.6765    0.5824   -1.3669 H   0  0  0  0  0  0  0  0  0  0  0  0
    0.3849   -1.5147   -1.6520 C   0  0  0  0  0  0  0  0  0  0  0  0
    1.5899   -2.0926   -1.2500 N   0  0  0  0  0  0  0  0  0  0  0  0
    1.6149   -3.3152   -1.8004 C   0  0  0  0  0  0  0  0  0  0  0  0
    2.4285   -4.0207   -1.6887 H   0  0  0  0  0  0  0  0  0  0  0  0
    0.4882   -3.5393   -2.4973 N   0  0  0  0  0  0  0  0  0  0  0  0
    0.2620   -4.3942   -2.9869 H   0  0  0  0  0  0  0  0  0  0  0  0
   -0.3028   -2.4151   -2.4121 C   0  0  0  0  0  0  0  0  0  0  0  0
   -1.2867   -2.2651   -2.8382 H   0  0  0  0  0  0  0  0  0  0  0  0
   -0.9851    1.3114    0.6698 C   0  0  0  0  0  0  0  0  0  0  0  0
   -0.0806    2.1154    0.8953 O   0  0  0  0  0  0  0  0  0  0  0  0
   -2.2759    1.6302    0.8070 N   0  0  0  0  0  0  0  0  0  0  0  0
   -2.9485    0.8786    0.7037 H   0  0  0  0  0  0  0  0  0  0  0  0
   -2.7717    2.9389    1.2269 C   0  0  0  0  0  0  0  0  0  0  0  0
   -2.1314    3.7291    0.8264 H   0  0  0  0  0  0  0  0  0  0  0  0
   -3.7893    3.0846    0.8619 H   0  0  0  0  0  0  0  0  0  0  0  0
   -2.7660    2.9992    2.3165 H   0  0  0  0  0  0  0  0  0  0  0  0
  5  6  2  0  0  0  0
  5  7  1  0  0  0  0
  2  3  1  0  0  0  0
  2  4  1  0  0  0  0
  2  5  1  0  0  0  0
  1  2  1  0  0  0  0
 22 23  2  0  0  0  0
 22 24  1  0  0  0  0
 20 21  1  0  0  0  0
 18 19  1  0  0  0  0
 18 20  1  0  0  0  0
 16 17  1  0  0  0  0
 16 18  1  0  0  0  0
 15 16  2  0  0  0  0
 14 15  1  0  0  0  0
 14 20  2  0  0  0  0
 11 12  1  0  0  0  0
 11 13  1  0  0  0  0
 11 14  1  0  0  0  0
  9 10  1  0  0  0  0
  9 11  1  0  0  0  0
  9 22  1  0  0  0  0
  7  8  1  0  0  0  0
  7  9  1  0  0  0  0
 26 27  1  0  0  0  0
 26 28  1  0  0  0  0
 26 29  1  0  0  0  0
 24 25  1  0  0  0  0
 24 26  1  0  0  0  0
M  END
$$$$
default_name
  -OEChem-01062215323D

 29 29  0     1  0  0  0  0  0999 V2000
   -2.9561   -3.9186    1.3887 H   0  0  0  0  0  0  0  0  0  0  0  0
   -3.1191   -2.9346    0.9517 C   0  0  0  0  0  0  0  0  0  0  0  0
   -3.7811   -2.3546    1.5917 H   0  0  0  0  0  0  0  0  0  0  0  0
   -3.5591   -3.0406   -0.0383 H   0  0  0  0  0  0  0  0  0  0  0  0
   -1.7921   -2.2226    0.8327 C   0  0  0  0  0  0  0  0  0  0  0  0
   -0.7611   -2.7766    1.1927 O   0  0  0  0  0  0  0  0  0  0  0  0
   -1.8201   -0.9926    0.3247 N   0  0  0  0  0  0  0  0  0  0  0  0
   -2.7141   -0.5816    0.0927 H   0  0  0  0  0  0  0  0  0  0  0  0
   -0.6481   -0.1156    0.2017 C   0  0  1  0  0  0  0  0  0  0  0  0
    0.1344   -0.4988    0.8597 H   0  0  0  0  0  0  0  0  0  0  0  0
   -0.1211   -0.1520   -1.2460 C   0  0  0  0  0  0  0  0  0  0  0  0
   -0.9215    0.1160   -1.9372 H   0  0  0  0  0  0  0  0  0  0  0  0
    0.6765    0.5824   -1.3669 H   0  0  0  0  0  0  0  0  0  0  0  0
    0.3849   -1.5147   -1.6520 C   0  0  0  0  0  0  0  0  0  0  0  0
    1.5899   -2.0926   -1.2500 N   0  0  0  0  0  0  0  0  0  0  0  0
    1.6149   -3.3152   -1.8004 C   0  0  0  0  0  0  0  0  0  0  0  0
    2.4285   -4.0207   -1.6887 H   0  0  0  0  0  0  0  0  0  0  0  0
    0.4882   -3.5393   -2.4973 N   0  0  0  0  0  0  0  0  0  0  0  0
    0.2620   -4.3942   -2.9869 H   0  0  0  0  0  0  0  0  0  0  0  0
   -0.3028   -2.4151   -2.4121 C   0  0  0  0  0  0  0  0  0  0  0  0
   -1.2867   -2.2651   -2.8382 H   0  0  0  0  0  0  0  0  0  0  0  0
   -0.9851    1.3114    0.6698 C   0  0  0  0  0  0  0  0  0  0  0  0
   -0.1252    2.1915    0.6315 O   0  0  0  0  0  0  0  0  0  0  0  0
   -2.2288    1.5451    1.1004 N   0  0  0  0  0  0  0  0  0  0  0  0
   -2.8397    0.7420    1.1987 H   0  0  0  0  0  0  0  0  0  0  0  0
   -2.7206    2.8397    1.5659 C   0  0  0  0  0  0  0  0  0  0  0  0
   -2.2641    3.6456    0.9855 H   0  0  0  0  0  0  0  0  0  0  0  0
   -3.8045    2.8875    1.4518 H   0  0  0  0  0  0  0  0  0  0  0  0
   -2.4613    2.9724    2.6175 H   0  0  0  0  0  0  0  0  0  0  0  0
  5  6  2  0  0  0  0
  5  7  1  0  0  0  0
  2  3  1  0  0  0  0
  2  4  1  0  0  0  0
  2  5  1  0  0  0  0
  1  2  1  0  0  0  0
 22 23  2  0  0  0  0
 22 24  1  0  0  0  0
 20 21  1  0  0  0  0
 18 19  1  0  0  0  0
 18 20  1  0  0  0  0
 16 17  1  0  0  0  0
 16 18  1  0  0  0  0
 15 16  2  0  0  0  0
 14 15  1  0  0  0  0
 14 20  2  0  0  0  0
 11 12  1  0  0  0  0
 11 13  1  0  0  0  0
 11 14  1  0  0  0  0
  9 10  1  0  0  0  0
  9 11  1  0  0  0  0
  9 22  1  0  0  0  0
  7  8  1  0  0  0  0
  7  9  1  0  0  0  0
 26 27  1  0  0  0  0
 26 28  1  0  0  0  0
 26 29  1  0  0  0  0
 24 25  1  0  0  0  0
 24 26  1  0  0  0  0
M  END
$$$$
default_name
  -OEChem-01062215323D

 29 29  0     1  0  0  0  0  0999 V2000
   -2.9561   -3.9186    1.3887 H   0  0  0  0  0  0  0  0  0  0  0  0
   -3.1191   -2.9346    0.9517 C   0  0  0  0  0  0  0  0  0  0  0  0
   -3.7811   -2.3546    1.5917 H   0  0  0  0  0  0  0  0  0  0  0  0
   -3.5591   -3.0406   -0.0383 H   0  0  0  0  0  0  0  0  0  0  0  0
   -1.7921   -2.2226    0.8327 C   0  0  0  0  0  0  0  0  0  0  0  0
   -0.7611   -2.7766    1.1927 O   0  0  0  0  0  0  0  0  0  0  0  0
   -1.8201   -0.9926    0.3247 N   0  0  0  0  0  0  0  0  0  0  0  0
   -2.7141   -0.5816    0.0927 H   0  0  0  0  0  0  0  0  0  0  0  0
   -0.6481   -0.1156    0.2017 C   0  0  1  0  0  0  0  0  0  0  0  0
    0.1344   -0.4988    0.8597 H   0  0  0  0  0  0  0  0  0  0  0  0
   -0.1211   -0.1520   -1.2460 C   0  0  0  0  0  0  0  0  0  0  0  0
   -0.9215    0.1160   -1.9372 H   0  0  0  0  0  0  0  0  0  0  0  0
    0.6765    0.5824   -1.3669 H   0  0  0  0  0  0  0  0  0  0  0  0
    0.3849   -1.5147   -1.6520 C   0  0  0  0  0  0  0  0  0  0  0  0
    1.5899   -2.0926   -1.2500 N   0  0  0  0  0  0  0  0  0  0  0  0
    1.6149   -3.3152   -1.8004 C   0  0  0  0  0  0  0  0  0  0  0  0
    2.4285   -4.0207   -1.6887 H   0  0  0  0  0  0  0  0  0  0  0  0
    0.4882   -3.5393   -2.4973 N   0  0  0  0  0  0  0  0  0  0  0  0
    0.2620   -4.3942   -2.9869 H   0  0  0  0  0  0  0  0  0  0  0  0
   -0.3028   -2.4151   -2.4121 C   0  0  0  0  0  0  0  0  0  0  0  0
   -1.2867   -2.2651   -2.8382 H   0  0  0  0  0  0  0  0  0  0  0  0
   -0.9851    1.3114    0.6698 C   0  0  0  0  0  0  0  0  0  0  0  0
   -0.2375    2.2465    0.3829 O   0  0  0  0  0  0  0  0  0  0  0  0
   -2.1061    1.4832    1.3774 N   0  0  0  0  0  0  0  0  0  0  0  0
   -2.6051    0.6466    1.6584 H   0  0  0  0  0  0  0  0  0  0  0  0
   -2.5822    2.7672    1.8867 C   0  0  0  0  0  0  0  0  0  0  0  0
   -2.3474    3.5635    1.1757 H   0  0  0  0  0  0  0  0  0  0  0  0
   -3.6622    2.7293    2.0364 H   0  0  0  0  0  0  0  0  0  0  0  0
   -2.0927    2.9875    2.8367 H   0  0  0  0  0  0  0  0  0  0  0  0
  5  6  2  0  0  0  0
  5  7  1  0  0  0  0
  2  3  1  0  0  0  0
  2  4  1  0  0  0  0
  2  5  1  0  0  0  0
  1  2  1  0  0  0  0
 22 23  2  0  0  0  0
 22 24  1  0  0  0  0
 20 21  1  0  0  0  0
 18 19  1  0  0  0  0
 18 20  1  0  0  0  0
 16 17  1  0  0  0  0
 16 18  1  0  0  0  0
 15 16  2  0  0  0  0
 14 15  1  0  0  0  0
 14 20  2  0  0  0  0
 11 12  1  0  0  0  0
 11 13  1  0  0  0  0
 11 14  1  0  0  0  0
  9 10  1  0  0  0  0
  9 11  1  0  0  0  0
  9 22  1  0  0  0  0
  7  8  1  0  0  0  0
  7  9  1  0  0  0  0
 26 27  1  0  0  0  0
 26 28  1  0  0  0  0
 26 29  1  0  0  0  0
 24 25  1  0  0  0  0
 24 26  1  0  0  0  0
M  END
$$$$
default_name
  -OEChem-01062215323D

 29 29  0     1  0  0  0  0  0999 V2000
   -2.9561   -3.9186    1.3887 H   0  0  0  0  0  0  0  0  0  0  0  0
   -3.1191   -2.9346    0.9517 C   0  0  0  0  0  0  0  0  0  0  0  0
   -3.7811   -2.3546    1.5917 H   0  0  0  0  0  0  0  0  0  0  0  0
   -3.5591   -3.0406   -0.0383 H   0  0  0  0  0  0  0  0  0  0  0  0
   -1.7921   -2.2226    0.8327 C   0  0  0  0  0  0  0  0  0  0  0  0
   -0.7611   -2.7766    1.1927 O   0  0  0  0  0  0  0  0  0  0  0  0
   -1.8201   -0.9926    0.3247 N   0  0  0  0  0  0  0  0  0  0  0  0
   -2.7141   -0.5816    0.0927 H   0  0  0  0  0  0  0  0  0  0  0  0
   -0.6481   -0.1156    0.2017 C   0  0  1  0  0  0  0  0  0  0  0  0
    0.1344   -0.4988    0.8597 H   0  0  0  0  0  0  0  0  0  0  0  0
   -0.1211   -0.1520   -1.2460 C   0  0  0  0  0  0  0  0  0  0  0  0
   -0.9215    0.1160   -1.9372 H   0  0  0  0  0  0  0  0  0  0  0  0
    0.6765    0.5824   -1.3669 H   0  0  0  0  0  0  0  0  0  0  0  0
    0.3849   -1.5147   -1.6520 C   0  0  0  0  0  0  0  0  0  0  0  0
    1.5899   -2.0926   -1.2500 N   0  0  0  0  0  0  0  0  0  0  0  0
    1.6149   -3.3152   -1.8004 C   0  0  0  0  0  0  0  0  0  0  0  0
    2.4285   -4.0207   -1.6887 H   0  0  0  0  0  0  0  0  0  0  0  0
    0.4882   -3.5393   -2.4973 N   0  0  0  0  0  0  0  0  0  0  0  0
    0.2620   -4.3942   -2.9869 H   0  0  0  0  0  0  0  0  0  0  0  0
   -0.3028   -2.4151   -2.4121 C   0  0  0  0  0  0  0  0  0  0  0  0
   -1.2867   -2.2651   -2.8382 H   0  0  0  0  0  0  0  0  0  0  0  0
   -0.9851    1.3114    0.6698 C   0  0  0  0  0  0  0  0  0  0  0  0
   -0.4100    2.2766    0.1667 O   0  0  0  0  0  0  0  0  0  0  0  0
   -1.9162    1.4488    1.6190 N   0  0  0  0  0  0  0  0  0  0  0  0
   -2.2606    0.5989    2.0515 H   0  0  0  0  0  0  0  0  0  0  0  0
   -2.3658    2.7262    2.1674 C   0  0  0  0  0  0  0  0  0  0  0  0
   -2.3758    3.4884    1.3841 H   0  0  0  0  0  0  0  0  0  0  0  0
   -3.3719    2.6209    2.5759 H   0  0  0  0  0  0  0  0  0  0  0  0
   -1.6852    3.0435    2.9592 H   0  0  0  0  0  0  0  0  0  0  0  0
  5  6  2  0  0  0  0
  5  7  1  0  0  0  0
  2  3  1  0  0  0  0
  2  4  1  0  0  0  0
  2  5  1  0  0  0  0
  1  2  1  0  0  0  0
 22 23  2  0  0  0  0
 22 24  1  0  0  0  0
 20 21  1  0  0  0  0
 18 19  1  0  0  0  0
 18 20  1  0  0  0  0
 16 17  1  0  0  0  0
 16 18  1  0  0  0  0
 15 16  2  0  0  0  0
 14 15  1  0  0  0  0
 14 20  2  0  0  0  0
 11 12  1  0  0  0  0
 11 13  1  0  0  0  0
 11 14  1  0  0  0  0
  9 10  1  0  0  0  0
  9 11  1  0  0  0  0
  9 22  1  0  0  0  0
  7  8  1  0  0  0  0
  7  9  1  0  0  0  0
 26 27  1  0  0  0  0
 26 28  1  0  0  0  0
 26 29  1  0  0  0  0
 24 25  1  0  0  0  0
 24 26  1  0  0  0  0
M  END
$$$$
default_name
  -OEChem-01062215323D

 29 29  0     1  0  0  0  0  0999 V2000
   -2.9561   -3.9186    1.3887 H   0  0  0  0  0  0  0  0  0  0  0  0
   -3.1191   -2.9346    0.9517 C   0  0  0  0  0  0  0  0  0  0  0  0
   -3.7811   -2.3546    1.5917 H   0  0  0  0  0  0  0  0  0  0  0  0
   -3.5591   -3.0406   -0.0383 H   0  0  0  0  0  0  0  0  0  0  0  0
   -1.7921   -2.2226    0.8327 C   0  0  0  0  0  0  0  0  0  0  0  0
   -0.7611   -2.7766    1.1927 O   0  0  0  0  0  0  0  0  0  0  0  0
   -1.8201   -0.9926    0.3247 N   0  0  0  0  0  0  0  0  0  0  0  0
   -2.7141   -0.5816    0.0927 H   0  0  0  0  0  0  0  0  0  0  0  0
   -0.6481   -0.1156    0.2017 C   0  0  1  0  0  0  0  0  0  0  0  0
    0.1344   -0.4988    0.8597 H   0  0  0  0  0  0  0  0  0  0  0  0
   -0.1211   -0.1520   -1.2460 C   0  0  0  0  0  0  0  0  0  0  0  0
   -0.9215    0.1160   -1.9372 H   0  0  0  0  0  0  0  0  0  0  0  0
    0.6765    0.5824   -1.3669 H   0  0  0  0  0  0  0  0  0  0  0  0
    0.3849   -1.5147   -1.6520 C   0  0  0  0  0  0  0  0  0  0  0  0
    1.5899   -2.0926   -1.2500 N   0  0  0  0  0  0  0  0  0  0  0  0
    1.6149   -3.3152   -1.8004 C   0  0  0  0  0  0  0  0  0  0  0  0
    2.4285   -4.0207   -1.6887 H   0  0  0  0  0  0  0  0  0  0  0  0
    0.4882   -3.5393   -2.4973 N   0  0  0  0  0  0  0  0  0  0  0  0
    0.2620   -4.3942   -2.9869 H   0  0  0  0  0  0  0  0  0  0  0  0
   -0.3028   -2.4151   -2.4121 C   0  0  0  0  0  0  0  0  0  0  0  0
   -1.2867   -2.2651   -2.8382 H   0  0  0  0  0  0  0  0  0  0  0  0
   -0.9851    1.3114    0.6698 C   0  0  0  0  0  0  0  0  0  0  0  0
   -0.6309    2.2800   -0.0024 O   0  0  0  0  0  0  0  0  0  0  0  0
   -1.6722    1.4442    1.8087 N   0  0  0  0  0  0  0  0  0  0  0  0
   -1.8298    0.6023    2.3513 H   0  0  0  0  0  0  0  0  0  0  0  0
   -2.0862    2.7195    2.3890 C   0  0  0  0  0  0  0  0  0  0  0  0
   -2.3473    3.4255    1.5965 H   0  0  0  0  0  0  0  0  0  0  0  0
   -2.9535    2.5695    3.0335 H   0  0  0  0  0  0  0  0  0  0  0  0
   -1.2667    3.1367    2.9765 H   0  0  0  0  0  0  0  0  0  0  0  0
  5  6  2  0  0  0  0
  5  7  1  0  0  0  0
  2  3  1  0  0  0  0
  2  4  1  0  0  0  0
  2  5  1  0  0  0  0
  1  2  1  0  0  0  0
 22 23  2  0  0  0  0
 22 24  1  0  0  0  0
 20 21  1  0  0  0  0
 18 19  1  0  0  0  0
 18 20  1  0  0  0  0
 16 17  1  0  0  0  0
 16 18  1  0  0  0  0
 15 16  2  0  0  0  0
 14 15  1  0  0  0  0
 14 20  2  0  0  0  0
 11 12  1  0  0  0  0
 11 13  1  0  0  0  0
 11 14  1  0  0  0  0
  9 10  1  0  0  0  0
  9 11  1  0  0  0  0
  9 22  1  0  0  0  0
  7  8  1  0  0  0  0
  7  9  1  0  0  0  0
 26 27  1  0  0  0  0
 26 28  1  0  0  0  0
 26 29  1  0  0  0  0
 24 25  1  0  0  0  0
 24 26  1  0  0  0  0
M  END
$$$$
default_name
  -OEChem-01062215323D

 29 29  0     1  0  0  0  0  0999 V2000
   -2.9561   -3.9186    1.3887 H   0  0  0  0  0  0  0  0  0  0  0  0
   -3.1191   -2.9346    0.9517 C   0  0  0  0  0  0  0  0  0  0  0  0
   -3.7811   -2.3546    1.5917 H   0  0  0  0  0  0  0  0  0  0  0  0
   -3.5591   -3.0406   -0.0383 H   0  0  0  0  0  0  0  0  0  0  0  0
   -1.7921   -2.2226    0.8327 C   0  0  0  0  0  0  0  0  0  0  0  0
   -0.7611   -2.7766    1.1927 O   0  0  0  0  0  0  0  0  0  0  0  0
   -1.8201   -0.9926    0.3247 N   0  0  0  0  0  0  0  0  0  0  0  0
   -2.7141   -0.5816    0.0927 H   0  0  0  0  0  0  0  0  0  0  0  0
   -0.6481   -0.1156    0.2017 C   0  0  1  0  0  0  0  0  0  0  0  0
    0.1344   -0.4988    0.8597 H   0  0  0  0  0  0  0  0  0  0  0  0
   -0.1211   -0.1520   -1.2460 C   0  0  0  0  0  0  0  0  0  0  0  0
   -0.9215    0.1160   -1.9372 H   0  0  0  0  0  0  0  0  0  0  0  0
    0.6765    0.5824   -1.3669 H   0  0  0  0  0  0  0  0  0  0  0  0
    0.3849   -1.5147   -1.6520 C   0  0  0  0  0  0  0  0  0  0  0  0
    1.5899   -2.0926   -1.2500 N   0  0  0  0  0  0  0  0  0  0  0  0
    1.6149   -3.3152   -1.8004 C   0  0  0  0  0  0  0  0  0  0  0  0
    2.4285   -4.0207   -1.6887 H   0  0  0  0  0  0  0  0  0  0  0  0
    0.4882   -3.5393   -2.4973 N   0  0  0  0  0  0  0  0  0  0  0  0
    0.2620   -4.3942   -2.9869 H   0  0  0  0  0  0  0  0  0  0  0  0
   -0.3028   -2.4151   -2.4121 C   0  0  0  0  0  0  0  0  0  0  0  0
   -1.2867   -2.2651   -2.8382 H   0  0  0  0  0  0  0  0  0  0  0  0
   -0.9851    1.3114    0.6698 C   0  0  0  0  0  0  0  0  0  0  0  0
   -0.8851    2.2562   -0.1130 O   0  0  0  0  0  0  0  0  0  0  0  0
   -1.3906    1.4697    1.9337 N   0  0  0  0  0  0  0  0  0  0  0  0
   -1.3420    0.6565    2.5372 H   0  0  0  0  0  0  0  0  0  0  0  0
   -1.7624    2.7476    2.5364 C   0  0  0  0  0  0  0  0  0  0  0  0
   -2.2639    3.3790    1.7984 H   0  0  0  0  0  0  0  0  0  0  0  0
   -2.4356    2.5788    3.3781 H   0  0  0  0  0  0  0  0  0  0  0  0
   -0.8656    3.2606    2.8875 H   0  0  0  0  0  0  0  0  0  0  0  0
  5  6  2  0  0  0  0
  5  7  1  0  0  0  0
  2  3  1  0  0  0  0
  2  4  1  0  0  0  0
  2  5  1  0  0  0  0
  1  2  1  0  0  0  0
 22 23  2  0  0  0  0
 22 24  1  0  0  0  0
 20 21  1  0  0  0  0
 18 19  1  0  0  0  0
 18 20  1  0  0  0  0
 16 17  1  0  0  0  0
 16 18  1  0  0  0  0
 15 16  2  0  0  0  0
 14 15  1  0  0  0  0
 14 20  2  0  0  0  0
 11 12  1  0  0  0  0
 11 13  1  0  0  0  0
 11 14  1  0  0  0  0
  9 10  1  0  0  0  0
  9 11  1  0  0  0  0
  9 22  1  0  0  0  0
  7  8  1  0  0  0  0
  7  9  1  0  0  0  0
 26 27  1  0  0  0  0
 26 28  1  0  0  0  0
 26 29  1  0  0  0  0
 24 25  1  0  0  0  0
 24 26  1  0  0  0  0
M  END
$$$$
default_name
  -OEChem-01062215323D

 29 29  0     1  0  0  0  0  0999 V2000
   -2.9561   -3.9186    1.3887 H   0  0  0  0  0  0  0  0  0  0  0  0
   -3.1191   -2.9346    0.9517 C   0  0  0  0  0  0  0  0  0  0  0  0
   -3.7811   -2.3546    1.5917 H   0  0  0  0  0  0  0  0  0  0  0  0
   -3.5591   -3.0406   -0.0383 H   0  0  0  0  0  0  0  0  0  0  0  0
   -1.7921   -2.2226    0.8327 C   0  0  0  0  0  0  0  0  0  0  0  0
   -0.7611   -2.7766    1.1927 O   0  0  0  0  0  0  0  0  0  0  0  0
   -1.8201   -0.9926    0.3247 N   0  0  0  0  0  0  0  0  0  0  0  0
   -2.7141   -0.5816    0.0927 H   0  0  0  0  0  0  0  0  0  0  0  0
   -0.6481   -0.1156    0.2017 C   0  0  1  0  0  0  0  0  0  0  0  0
    0.1344   -0.4988    0.8597 H   0  0  0  0  0  0  0  0  0  0  0  0
   -0.1211   -0.1520   -1.2460 C   0  0  0  0  0  0  0  0  0  0  0  0
   -0.9215    0.1160   -1.9372 H   0  0  0  0  0  0  0  0  0  0  0  0
    0.6765    0.5824   -1.3669 H   0  0  0  0  0  0  0  0  0  0  0  0
    0.3849   -1.5147   -1.6520 C   0  0  0  0  0  0  0  0  0  0  0  0
    1.5899   -2.0926   -1.2500 N   0  0  0  0  0  0  0  0  0  0  0  0
    1.6149   -3.3152   -1.8004 C   0  0  0  0  0  0  0  0  0  0  0  0
    2.4285   -4.0207   -1.6887 H   0  0  0  0  0  0  0  0  0  0  0  0
    0.4882   -3.5393   -2.4973 N   0  0  0  0  0  0  0  0  0  0  0  0
    0.2620   -4.3942   -2.9869 H   0  0  0  0  0  0  0  0  0  0  0  0
   -0.3028   -2.4151   -2.4121 C   0  0  0  0  0  0  0  0  0  0  0  0
   -1.2867   -2.2651   -2.8382 H   0  0  0  0  0  0  0  0  0  0  0  0
   -0.9851    1.3114    0.6698 C   0  0  0  0  0  0  0  0  0  0  0  0
   -1.1553    2.2070   -0.1574 O   0  0  0  0  0  0  0  0  0  0  0  0
   -1.0906    1.5236    1.9854 N   0  0  0  0  0  0  0  0  0  0  0  0
   -0.8305    0.7577    2.5968 H   0  0  0  0  0  0  0  0  0  0  0  0
   -1.4165    2.8086    2.5994 C   0  0  0  0  0  0  0  0  0  0  0  0
   -2.1312    3.3520    1.9760 H   0  0  0  0  0  0  0  0  0  0  0  0
   -1.8533    2.6480    3.5860 H   0  0  0  0  0  0  0  0  0  0  0  0
   -0.5093    3.4068    2.6983 H   0  0  0  0  0  0  0  0  0  0  0  0
  5  6  2  0  0  0  0
  5  7  1  0  0  0  0
  2  3  1  0  0  0  0
  2  4  1  0  0  0  0
  2  5  1  0  0  0  0
  1  2  1  0  0  0  0
 22 23  2  0  0  0  0
 22 24  1  0  0  0  0
 20 21  1  0  0  0  0
 18 19  1  0  0  0  0
 18 20  1  0  0  0  0
 16 17  1  0  0  0  0
 16 18  1  0  0  0  0
 15 16  2  0  0  0  0
 14 15  1  0  0  0  0
 14 20  2  0  0  0  0
 11 12  1  0  0  0  0
 11 13  1  0  0  0  0
 11 14  1  0  0  0  0
  9 10  1  0  0  0  0
  9 11  1  0  0  0  0
  9 22  1  0  0  0  0
  7  8  1  0  0  0  0
  7  9  1  0  0  0  0
 26 27  1  0  0  0  0
 26 28  1  0  0  0  0
 26 29  1  0  0  0  0
 24 25  1  0  0  0  0
 24 26  1  0  0  0  0
M  END
$$$$
default_name
  -OEChem-01062215323D

 29 29  0     1  0  0  0  0  0999 V2000
   -2.9561   -3.9186    1.3887 H   0  0  0  0  0  0  0  0  0  0  0  0
   -3.1191   -2.9346    0.9517 C   0  0  0  0  0  0  0  0  0  0  0  0
   -3.7811   -2.3546    1.5917 H   0  0  0  0  0  0  0  0  0  0  0  0
   -3.5591   -3.0406   -0.0383 H   0  0  0  0  0  0  0  0  0  0  0  0
   -1.7921   -2.2226    0.8327 C   0  0  0  0  0  0  0  0  0  0  0  0
   -0.7611   -2.7766    1.1927 O   0  0  0  0  0  0  0  0  0  0  0  0
   -1.8201   -0.9926    0.3247 N   0  0  0  0  0  0  0  0  0  0  0  0
   -2.7141   -0.5816    0.0927 H   0  0  0  0  0  0  0  0  0  0  0  0
   -0.6481   -0.1156    0.2017 C   0  0  1  0  0  0  0  0  0  0  0  0
    0.1344   -0.4988    0.8597 H   0  0  0  0  0  0  0  0  0  0  0  0
   -0.1211   -0.1520   -1.2460 C   0  0  0  0  0  0  0  0  0  0  0  0
   -0.9215    0.1160   -1.9372 H   0  0  0  0  0  0  0  0  0  0  0  0
    0.6765    0.5824   -1.3669 H   0  0  0  0  0  0  0  0  0  0  0  0
    0.3849   -1.5147   -1.6520 C   0  0  0  0  0  0  0  0  0  0  0  0
    1.5899   -2.0926   -1.2500 N   0  0  0  0  0  0  0  0  0  0  0  0
    1.6149   -3.3152   -1.8004 C   0  0  0  0  0  0  0  0  0  0  0  0
    2.4285   -4.0207   -1.6887 H   0  0  0  0  0  0  0  0  0  0  0  0
    0.4882   -3.5393   -2.4973 N   0  0  0  0  0  0  0  0  0  0  0  0
    0.2620   -4.3942   -2.9869 H   0  0  0  0  0  0  0  0  0  0  0  0
   -0.3028   -2.4151   -2.4121 C   0  0  0  0  0  0  0  0  0  0  0  0
   -1.2867   -2.2651   -2.8382 H   0  0  0  0  0  0  0  0  0  0  0  0
   -0.9851    1.3114    0.6698 C   0  0  0  0  0  0  0  0  0  0  0  0
   -1.4231    2.1357   -0.1327 O   0  0  0  0  0  0  0  0  0  0  0  0
   -0.7926    1.6021    1.9603 N   0  0  0  0  0  0  0  0  0  0  0  0
   -0.3301    0.8992    2.5258 H   0  0  0  0  0  0  0  0  0  0  0  0
   -1.0721    2.8983    2.5738 C   0  0  0  0  0  0  0  0  0  0  0  0
   -1.9583    3.3465    2.1172 H   0  0  0  0  0  0  0  0  0  0  0  0
   -1.2465    2.7725    3.6433 H   0  0  0  0  0  0  0  0  0  0  0  0
   -0.2220    3.5653    2.4217 H   0  0  0  0  0  0  0  0  0  0  0  0
  5  6  2  0  0  0  0
  5  7  1  0  0  0  0
  2  3  1  0  0  0  0
  2  4  1  0  0  0  0
  2  5  1  0  0  0  0
  1  2  1  0  0  0  0
 22 23  2  0  0  0  0
 22 24  1  0  0  0  0
 20 21  1  0  0  0  0
 18 19  1  0  0  0  0
 18 20  1  0  0  0  0
 16 17  1  0  0  0  0
 16 18  1  0  0  0  0
 15 16  2  0  0  0  0
 14 15  1  0  0  0  0
 14 20  2  0  0  0  0
 11 12  1  0  0  0  0
 11 13  1  0  0  0  0
 11 14  1  0  0  0  0
  9 10  1  0  0  0  0
  9 11  1  0  0  0  0
  9 22  1  0  0  0  0
  7  8  1  0  0  0  0
  7  9  1  0  0  0  0
 26 27  1  0  0  0  0
 26 28  1  0  0  0  0
 26 29  1  0  0  0  0
 24 25  1  0  0  0  0
 24 26  1  0  0  0  0
M  END
$$$$
default_name
  -OEChem-01062215323D

 29 29  0     1  0  0  0  0  0999 V2000
   -2.9561   -3.9186    1.3887 H   0  0  0  0  0  0  0  0  0  0  0  0
   -3.1191   -2.9346    0.9517 C   0  0  0  0  0  0  0  0  0  0  0  0
   -3.7811   -2.3546    1.5917 H   0  0  0  0  0  0  0  0  0  0  0  0
   -3.5591   -3.0406   -0.0383 H   0  0  0  0  0  0  0  0  0  0  0  0
   -1.7921   -2.2226    0.8327 C   0  0  0  0  0  0  0  0  0  0  0  0
   -0.7611   -2.7766    1.1927 O   0  0  0  0  0  0  0  0  0  0  0  0
   -1.8201   -0.9926    0.3247 N   0  0  0  0  0  0  0  0  0  0  0  0
   -2.7141   -0.5816    0.0927 H   0  0  0  0  0  0  0  0  0  0  0  0
   -0.6481   -0.1156    0.2017 C   0  0  1  0  0  0  0  0  0  0  0  0
    0.1344   -0.4988    0.8597 H   0  0  0  0  0  0  0  0  0  0  0  0
   -0.1211   -0.1520   -1.2460 C   0  0  0  0  0  0  0  0  0  0  0  0
   -0.9215    0.1160   -1.9372 H   0  0  0  0  0  0  0  0  0  0  0  0
    0.6765    0.5824   -1.3669 H   0  0  0  0  0  0  0  0  0  0  0  0
    0.3849   -1.5147   -1.6520 C   0  0  0  0  0  0  0  0  0  0  0  0
    1.5899   -2.0926   -1.2500 N   0  0  0  0  0  0  0  0  0  0  0  0
    1.6149   -3.3152   -1.8004 C   0  0  0  0  0  0  0  0  0  0  0  0
    2.4285   -4.0207   -1.6887 H   0  0  0  0  0  0  0  0  0  0  0  0
    0.4882   -3.5393   -2.4973 N   0  0  0  0  0  0  0  0  0  0  0  0
    0.2620   -4.3942   -2.9869 H   0  0  0  0  0  0  0  0  0  0  0  0
   -0.3028   -2.4151   -2.4121 C   0  0  0  0  0  0  0  0  0  0  0  0
   -1.2867   -2.2651   -2.8382 H   0  0  0  0  0  0  0  0  0  0  0  0
   -0.9851    1.3114    0.6698 C   0  0  0  0  0  0  0  0  0  0  0  0
   -1.6703    2.0471   -0.0406 O   0  0  0  0  0  0  0  0  0  0  0  0
   -0.5170    1.7001    1.8601 N   0  0  0  0  0  0  0  0  0  0  0  0
    0.1251    1.0712    2.3292 H   0  0  0  0  0  0  0  0  0  0  0  0
   -0.7526    3.0106    2.4613 C   0  0  0  0  0  0  0  0  0  0  0  0
   -1.7570    3.3628    2.2125 H   0  0  0  0  0  0  0  0  0  0  0  0
   -0.6563    2.9438    3.5459 H   0  0  0  0  0  0  0  0  0  0  0  0
   -0.0233    3.7254    2.0767 H   0  0  0  0  0  0  0  0  0  0  0  0
  5  6  2  0  0  0  0
  5  7  1  0  0  0  0
  2  3  1  0  0  0  0
  2  4  1  0  0  0  0
  2  5  1  0  0  0  0
  1  2  1  0  0  0  0
 22 23  2  0  0  0  0
 22 24  1  0  0  0  0
 20 21  1  0  0  0  0
 18 19  1  0  0  0  0
 18 20  1  0  0  0  0
 16 17  1  0  0  0  0
 16 18  1  0  0  0  0
 15 16  2  0  0  0  0
 14 15  1  0  0  0  0
 14 20  2  0  0  0  0
 11 12  1  0  0  0  0
 11 13  1  0  0  0  0
 11 14  1  0  0  0  0
  9 10  1  0  0  0  0
  9 11  1  0  0  0  0
  9 22  1  0  0  0  0
  7  8  1  0  0  0  0
  7  9  1  0  0  0  0
 26 27  1  0  0  0  0
 26 28  1  0  0  0  0
 26 29  1  0  0  0  0
 24 25  1  0  0  0  0
 24 26  1  0  0  0  0
M  END
$$$$
default_name
  -OEChem-01062215323D

 29 29  0     1  0  0  0  0  0999 V2000
   -2.9561   -3.9186    1.3887 H   0  0  0  0  0  0  0  0  0  0  0  0
   -3.1191   -2.9346    0.9517 C   0  0  0  0  0  0  0  0  0  0  0  0
   -3.7811   -2.3546    1.5917 H   0  0  0  0  0  0  0  0  0  0  0  0
   -3.5591   -3.0406   -0.0383 H   0  0  0  0  0  0  0  0  0  0  0  0
   -1.7921   -2.2226    0.8327 C   0  0  0  0  0  0  0  0  0  0  0  0
   -0.7611   -2.7766    1.1927 O   0  0  0  0  0  0  0  0  0  0  0  0
   -1.8201   -0.9926    0.3247 N   0  0  0  0  0  0  0  0  0  0  0  0
   -2.7141   -0.5816    0.0927 H   0  0  0  0  0  0  0  0  0  0  0  0
   -0.6481   -0.1156    0.2017 C   0  0  1  0  0  0  0  0  0  0  0  0
    0.1344   -0.4988    0.8597 H   0  0  0  0  0  0  0  0  0  0  0  0
   -0.1211   -0.1520   -1.2460 C   0  0  0  0  0  0  0  0  0  0  0  0
   -0.9215    0.1160   -1.9372 H   0  0  0  0  0  0  0  0  0  0  0  0
    0.6765    0.5824   -1.3669 H   0  0  0  0  0  0  0  0  0  0  0  0
    0.3849   -1.5147   -1.6520 C   0  0  0  0  0  0  0  0  0  0  0  0
    1.5899   -2.0926   -1.2500 N   0  0  0  0  0  0  0  0  0  0  0  0
    1.6149   -3.3152   -1.8004 C   0  0  0  0  0  0  0  0  0  0  0  0
    2.4285   -4.0207   -1.6887 H   0  0  0  0  0  0  0  0  0  0  0  0
    0.4882   -3.5393   -2.4973 N   0  0  0  0  0  0  0  0  0  0  0  0
    0.2620   -4.3942   -2.9869 H   0  0  0  0  0  0  0  0  0  0  0  0
   -0.3028   -2.4151   -2.4121 C   0  0  0  0  0  0  0  0  0  0  0  0
   -1.2867   -2.2651   -2.8382 H   0  0  0  0  0  0  0  0  0  0  0  0
   -0.9851    1.3114    0.6698 C   0  0  0  0  0  0  0  0  0  0  0  0
   -1.8799    1.9473    0.1128 O   0  0  0  0  0  0  0  0  0  0  0  0
   -0.2826    1.8107    1.6916 N   0  0  0  0  0  0  0  0  0  0  0  0
    0.5041    1.2620    2.0202 H   0  0  0  0  0  0  0  0  0  0  0  0
   -0.4798    3.1379    2.2697 C   0  0  0  0  0  0  0  0  0  0  0  0
   -1.5409    3.3998    2.2552 H   0  0  0  0  0  0  0  0  0  0  0  0
   -0.1232    3.1502    3.3006 H   0  0  0  0  0  0  0  0  0  0  0  0
    0.0732    3.8762    1.6866 H   0  0  0  0  0  0  0  0  0  0  0  0
  5  6  2  0  0  0  0
  5  7  1  0  0  0  0
  2  3  1  0  0  0  0
  2  4  1  0  0  0  0
  2  5  1  0  0  0  0
  1  2  1  0  0  0  0
 22 23  2  0  0  0  0
 22 24  1  0  0  0  0
 20 21  1  0  0  0  0
 18 19  1  0  0  0  0
 18 20  1  0  0  0  0
 16 17  1  0  0  0  0
 16 18  1  0  0  0  0
 15 16  2  0  0  0  0
 14 15  1  0  0  0  0
 14 20  2  0  0  0  0
 11 12  1  0  0  0  0
 11 13  1  0  0  0  0
 11 14  1  0  0  0  0
  9 10  1  0  0  0  0
  9 11  1  0  0  0  0
  9 22  1  0  0  0  0
  7  8  1  0  0  0  0
  7  9  1  0  0  0  0
 26 27  1  0  0  0  0
 26 28  1  0  0  0  0
 26 29  1  0  0  0  0
 24 25  1  0  0  0  0
 24 26  1  0  0  0  0
M  END
$$$$
default_name
  -OEChem-01062215323D

 29 29  0     1  0  0  0  0  0999 V2000
   -2.9561   -3.9186    1.3887 H   0  0  0  0  0  0  0  0  0  0  0  0
   -3.1191   -2.9346    0.9517 C   0  0  0  0  0  0  0  0  0  0  0  0
   -3.7811   -2.3546    1.5917 H   0  0  0  0  0  0  0  0  0  0  0  0
   -3.5591   -3.0406   -0.0383 H   0  0  0  0  0  0  0  0  0  0  0  0
   -1.7921   -2.2226    0.8327 C   0  0  0  0  0  0  0  0  0  0  0  0
   -0.7611   -2.7766    1.1927 O   0  0  0  0  0  0  0  0  0  0  0  0
   -1.8201   -0.9926    0.3247 N   0  0  0  0  0  0  0  0  0  0  0  0
   -2.7141   -0.5816    0.0927 H   0  0  0  0  0  0  0  0  0  0  0  0
   -0.6481   -0.1156    0.2017 C   0  0  1  0  0  0  0  0  0  0  0  0
    0.1344   -0.4988    0.8597 H   0  0  0  0  0  0  0  0  0  0  0  0
   -0.1211   -0.1520   -1.2460 C   0  0  0  0  0  0  0  0  0  0  0  0
   -0.9215    0.1160   -1.9372 H   0  0  0  0  0  0  0  0  0  0  0  0
    0.6765    0.5824   -1.3669 H   0  0  0  0  0  0  0  0  0  0  0  0
    0.3849   -1.5147   -1.6520 C   0  0  0  0  0  0  0  0  0  0  0  0
    1.5899   -2.0926   -1.2500 N   0  0  0  0  0  0  0  0  0  0  0  0
    1.6149   -3.3152   -1.8004 C   0  0  0  0  0  0  0  0  0  0  0  0
    2.4285   -4.0207   -1.6887 H   0  0  0  0  0  0  0  0  0  0  0  0
    0.4882   -3.5393   -2.4973 N   0  0  0  0  0  0  0  0  0  0  0  0
    0.2620   -4.3942   -2.9869 H   0  0  0  0  0  0  0  0  0  0  0  0
   -0.3028   -2.4151   -2.4121 C   0  0  0  0  0  0  0  0  0  0  0  0
   -1.2867   -2.2651   -2.8382 H   0  0  0  0  0  0  0  0  0  0  0  0
   -0.9851    1.3114    0.6698 C   0  0  0  0  0  0  0  0  0  0  0  0
   -2.0377    1.8431    0.3168 O   0  0  0  0  0  0  0  0  0  0  0  0
   -0.1052    1.9265    1.4663 N   0  0  0  0  0  0  0  0  0  0  0  0
    0.7810    1.4586    1.6201 H   0  0  0  0  0  0  0  0  0  0  0  0
   -0.2724    3.2715    2.0119 C   0  0  0  0  0  0  0  0  0  0  0  0
   -1.3249    3.4549    2.2426 H   0  0  0  0  0  0  0  0  0  0  0  0
    0.3167    3.3776    2.9239 H   0  0  0  0  0  0  0  0  0  0  0  0
    0.0609    4.0073    1.2782 H   0  0  0  0  0  0  0  0  0  0  0  0
  5  6  2  0  0  0  0
  5  7  1  0  0  0  0
  2  3  1  0  0  0  0
  2  4  1  0  0  0  0
  2  5  1  0  0  0  0
  1  2  1  0  0  0  0
 22 23  2  0  0  0  0
 22 24  1  0  0  0  0
 20 21  1  0  0  0  0
 18 19  1  0  0  0  0
 18 20  1  0  0  0  0
 16 17  1  0  0  0  0
 16 18  1  0  0  0  0
 15 16  2  0  0  0  0
 14 15  1  0  0  0  0
 14 20  2  0  0  0  0
 11 12  1  0  0  0  0
 11 13  1  0  0  0  0
 11 14  1  0  0  0  0
  9 10  1  0  0  0  0
  9 11  1  0  0  0  0
  9 22  1  0  0  0  0
  7  8  1  0  0  0  0
  7  9  1  0  0  0  0
 26 27  1  0  0  0  0
 26 28  1  0  0  0  0
 26 29  1  0  0  0  0
 24 25  1  0  0  0  0
 24 26  1  0  0  0  0
M  END
$$$$
default_name
  -OEChem-01062215323D

 29 29  0     1  0  0  0  0  0999 V2000
   -2.9561   -3.9186    1.3887 H   0  0  0  0  0  0  0  0  0  0  0  0
   -3.1191   -2.9346    0.9517 C   0  0  0  0  0  0  0  0  0  0  0  0
   -3.7811   -2.3546    1.5917 H   0  0  0  0  0  0  0  0  0  0  0  0
   -3.5591   -3.0406   -0.0383 H   0  0  0  0  0  0  0  0  0  0  0  0
   -1.7921   -2.2226    0.8327 C   0  0  0  0  0  0  0  0  0  0  0  0
   -0.7611   -2.7766    1.1927 O   0  0  0  0  0  0  0  0  0  0  0  0
   -1.8201   -0.9926    0.3247 N   0  0  0  0  0  0  0  0  0  0  0  0
   -2.7141   -0.5816    0.0927 H   0  0  0  0  0  0  0  0  0  0  0  0
   -0.6481   -0.1156    0.2017 C   0  0  1  0  0  0  0  0  0  0  0  0
    0.1344   -0.4988    0.8597 H   0  0  0  0  0  0  0  0  0  0  0  0
   -0.1211   -0.1520   -1.2460 C   0  0  0  0  0  0  0  0  0  0  0  0
   -0.9215    0.1160   -1.9372 H   0  0  0  0  0  0  0  0  0  0  0  0
    0.6765    0.5824   -1.3669 H   0  0  0  0  0  0  0  0  0  0  0  0
    0.3849   -1.5147   -1.6520 C   0  0  0  0  0  0  0  0  0  0  0  0
    1.5899   -2.0926   -1.2500 N   0  0  0  0  0  0  0  0  0  0  0  0
    1.6149   -3.3152   -1.8004 C   0  0  0  0  0  0  0  0  0  0  0  0
    2.4285   -4.0207   -1.6887 H   0  0  0  0  0  0  0  0  0  0  0  0
    0.4882   -3.5393   -2.4973 N   0  0  0  0  0  0  0  0  0  0  0  0
    0.2620   -4.3942   -2.9869 H   0  0  0  0  0  0  0  0  0  0  0  0
   -0.3028   -2.4151   -2.4121 C   0  0  0  0  0  0  0  0  0  0  0  0
   -1.2867   -2.2651   -2.8382 H   0  0  0  0  0  0  0  0  0  0  0  0
   -0.9851    1.3114    0.6698 C   0  0  0  0  0  0  0  0  0  0  0  0
   -2.1330    1.7416    0.5577 O   0  0  0  0  0  0  0  0  0  0  0  0
    0.0029    2.0395    1.1997 N   0  0  0  0  0  0  0  0  0  0  0  0
    0.9370    1.6477    1.1560 H   0  0  0  0  0  0  0  0  0  0  0  0
   -0.1443    3.4022    1.7055 C   0  0  0  0  0  0  0  0  0  0  0  0
   -1.1236    3.5245    2.1754 H   0  0  0  0  0  0  0  0  0  0  0  0
    0.6333    3.6106    2.4417 H   0  0  0  0  0  0  0  0  0  0  0  0
   -0.0593    4.1098    0.8792 H   0  0  0  0  0  0  0  0  0  0  0  0
  5  6  2  0  0  0  0
  5  7  1  0  0  0  0
  2  3  1  0  0  0  0
  2  4  1  0  0  0  0
  2  5  1  0  0  0  0
  1  2  1  0  0  0  0
 22 23  2  0  0  0  0
 22 24  1  0  0  0  0
 20 21  1  0  0  0  0
 18 19  1  0  0  0  0
 18 20  1  0  0  0  0
 16 17  1  0  0  0  0
 16 18  1  0  0  0  0
 15 16  2  0  0  0  0
 14 15  1  0  0  0  0
 14 20  2  0  0  0  0
 11 12  1  0  0  0  0
 11 13  1  0  0  0  0
 11 14  1  0  0  0  0
  9 10  1  0  0  0  0
  9 11  1  0  0  0  0
  9 22  1  0  0  0  0
  7  8  1  0  0  0  0
  7  9  1  0  0  0  0
 26 27  1  0  0  0  0
 26 28  1  0  0  0  0
 26 29  1  0  0  0  0
 24 25  1  0  0  0  0
 24 26  1  0  0  0  0
M  END
$$$$
default_name
  -OEChem-01062215323D

 29 29  0     1  0  0  0  0  0999 V2000
   -2.9561   -3.9186    1.3887 H   0  0  0  0  0  0  0  0  0  0  0  0
   -3.1191   -2.9346    0.9517 C   0  0  0  0  0  0  0  0  0  0  0  0
   -3.7811   -2.3546    1.5917 H   0  0  0  0  0  0  0  0  0  0  0  0
   -3.5591   -3.0406   -0.0383 H   0  0  0  0  0  0  0  0  0  0  0  0
   -1.7921   -2.2226    0.8327 C   0  0  0  0  0  0  0  0  0  0  0  0
   -0.7611   -2.7766    1.1927 O   0  0  0  0  0  0  0  0  0  0  0  0
   -1.8201   -0.9926    0.3247 N   0  0  0  0  0  0  0  0  0  0  0  0
   -2.7141   -0.5816    0.0927 H   0  0  0  0  0  0  0  0  0  0  0  0
   -0.6481   -0.1156    0.2017 C   0  0  1  0  0  0  0  0  0  0  0  0
    0.1344   -0.4988    0.8597 H   0  0  0  0  0  0  0  0  0  0  0  0
   -0.1211   -0.1520   -1.2460 C   0  0  0  0  0  0  0  0  0  0  0  0
   -0.9215    0.1160   -1.9372 H   0  0  0  0  0  0  0  0  0  0  0  0
    0.6765    0.5824   -1.3669 H   0  0  0  0  0  0  0  0  0  0  0  0
    0.3849   -1.5147   -1.6520 C   0  0  0  0  0  0  0  0  0  0  0  0
    1.5899   -2.0926   -1.2500 N   0  0  0  0  0  0  0  0  0  0  0  0
    1.6149   -3.3152   -1.8004 C   0  0  0  0  0  0  0  0  0  0  0  0
    2.4285   -4.0207   -1.6887 H   0  0  0  0  0  0  0  0  0  0  0  0
    0.4882   -3.5393   -2.4973 N   0  0  0  0  0  0  0  0  0  0  0  0
    0.2620   -4.3942   -2.9869 H   0  0  0  0  0  0  0  0  0  0  0  0
   -0.3028   -2.4151   -2.4121 C   0  0  0  0  0  0  0  0  0  0  0  0
   -1.2867   -2.2651   -2.8382 H   0  0  0  0  0  0  0  0  0  0  0  0
   -0.9851    1.3114    0.6698 C   0  0  0  0  0  0  0  0  0  0  0  0
   -2.1593    1.6497    0.8190 O   0  0  0  0  0  0  0  0  0  0  0  0
    0.0344    2.1420    0.9097 N   0  0  0  0  0  0  0  0  0  0  0  0
    0.9614    1.8163    0.6595 H   0  0  0  0  0  0  0  0  0  0  0  0
   -0.1045    3.5212    1.3715 C   0  0  0  0  0  0  0  0  0  0  0  0
   -0.9507    3.6037    2.0583 H   0  0  0  0  0  0  0  0  0  0  0  0
    0.8051    3.8332    1.8867 H   0  0  0  0  0  0  0  0  0  0  0  0
   -0.2792    4.1767    0.5168 H   0  0  0  0  0  0  0  0  0  0  0  0
  5  6  2  0  0  0  0
  5  7  1  0  0  0  0
  2  3  1  0  0  0  0
  2  4  1  0  0  0  0
  2  5  1  0  0  0  0
  1  2  1  0  0  0  0
 22 23  2  0  0  0  0
 22 24  1  0  0  0  0
 20 21  1  0  0  0  0
 18 19  1  0  0  0  0
 18 20  1  0  0  0  0
 16 17  1  0  0  0  0
 16 18  1  0  0  0  0
 15 16  2  0  0  0  0
 14 15  1  0  0  0  0
 14 20  2  0  0  0  0
 11 12  1  0  0  0  0
 11 13  1  0  0  0  0
 11 14  1  0  0  0  0
  9 10  1  0  0  0  0
  9 11  1  0  0  0  0
  9 22  1  0  0  0  0
  7  8  1  0  0  0  0
  7  9  1  0  0  0  0
 26 27  1  0  0  0  0
 26 28  1  0  0  0  0
 26 29  1  0  0  0  0
 24 25  1  0  0  0  0
 24 26  1  0  0  0  0
M  END
$$$$
default_name
  -OEChem-01062215323D

 29 29  0     1  0  0  0  0  0999 V2000
   -2.9561   -3.9186    1.3887 H   0  0  0  0  0  0  0  0  0  0  0  0
   -3.1191   -2.9346    0.9517 C   0  0  0  0  0  0  0  0  0  0  0  0
   -3.7811   -2.3546    1.5917 H   0  0  0  0  0  0  0  0  0  0  0  0
   -3.5591   -3.0406   -0.0383 H   0  0  0  0  0  0  0  0  0  0  0  0
   -1.7921   -2.2226    0.8327 C   0  0  0  0  0  0  0  0  0  0  0  0
   -0.7611   -2.7766    1.1927 O   0  0  0  0  0  0  0  0  0  0  0  0
   -1.8201   -0.9926    0.3247 N   0  0  0  0  0  0  0  0  0  0  0  0
   -2.7141   -0.5816    0.0927 H   0  0  0  0  0  0  0  0  0  0  0  0
   -0.6481   -0.1156    0.2017 C   0  0  1  0  0  0  0  0  0  0  0  0
    0.2104   -0.6316    0.6362 H   0  0  0  0  0  0  0  0  0  0  0  0
   -0.3494    0.1474   -1.2871 C   0  0  0  0  0  0  0  0  0  0  0  0
   -1.2350    0.5577   -1.7745 H   0  0  0  0  0  0  0  0  0  0  0  0
    0.4477    0.8864   -1.3786 H   0  0  0  0  0  0  0  0  0  0  0  0
    0.0369   -1.1037   -2.0378 C   0  0  0  0  0  0  0  0  0  0  0  0
    1.2662   -1.7591   -1.9567 N   0  0  0  0  0  0  0  0  0  0  0  0
    1.1608   -2.8405   -2.7427 C   0  0  0  0  0  0  0  0  0  0  0  0
    1.9546   -3.5582   -2.9069 H   0  0  0  0  0  0  0  0  0  0  0  0
   -0.0665   -2.9084   -3.2853 N   0  0  0  0  0  0  0  0  0  0  0  0
   -0.3969   -3.6415   -3.8980 H   0  0  0  0  0  0  0  0  0  0  0  0
   -0.7921   -1.8224   -2.8487 C   0  0  0  0  0  0  0  0  0  0  0  0
   -1.8231   -1.5816   -3.0755 H   0  0  0  0  0  0  0  0  0  0  0  0
   -0.8555    1.1845    0.9990 C   0  0  0  0  0  0  0  0  0  0  0  0
   -1.8983    1.3611    1.6290 O   0  0  0  0  0  0  0  0  0  0  0  0
    0.1313    2.0860    0.9824 N   0  0  0  0  0  0  0  0  0  0  0  0
    0.9067    1.9072    0.3542 H   0  0  0  0  0  0  0  0  0  0  0  0
    0.1065    3.3627    1.6923 C   0  0  0  0  0  0  0  0  0  0  0  0
   -0.4134    3.2514    2.6472 H   0  0  0  0  0  0  0  0  0  0  0  0
    1.1260    3.7034    1.8785 H   0  0  0  0  0  0  0  0  0  0  0  0
   -0.4188    4.1056    1.0897 H   0  0  0  0  0  0  0  0  0  0  0  0
  5  6  2  0  0  0  0
  5  7  1  0  0  0  0
  2  3  1  0  0  0  0
  2  4  1  0  0  0  0
  2  5  1  0  0  0  0
  1  2  1  0  0  0  0
 22 23  2  0  0  0  0
 22 24  1  0  0  0  0
 20 21  1  0  0  0  0
 18 19  1  0  0  0  0
 18 20  1  0  0  0  0
 16 17  1  0  0  0  0
 16 18  1  0  0  0  0
 15 16  2  0  0  0  0
 14 15  1  0  0  0  0
 14 20  2  0  0  0  0
 11 12  1  0  0  0  0
 11 13  1  0  0  0  0
 11 14  1  0  0  0  0
  9 10  1  0  0  0  0
  9 11  1  0  0  0  0
  9 22  1  0  0  0  0
  7  8  1  0  0  0  0
  7  9  1  0  0  0  0
 26 27  1  0  0  0  0
 26 28  1  0  0  0  0
 26 29  1  0  0  0  0
 24 25  1  0  0  0  0
 24 26  1  0  0  0  0
M  END
$$$$
default_name
  -OEChem-01062215323D

 29 29  0     1  0  0  0  0  0999 V2000
   -2.9561   -3.9186    1.3887 H   0  0  0  0  0  0  0  0  0  0  0  0
   -3.1191   -2.9346    0.9517 C   0  0  0  0  0  0  0  0  0  0  0  0
   -3.7811   -2.3546    1.5917 H   0  0  0  0  0  0  0  0  0  0  0  0
   -3.5591   -3.0406   -0.0383 H   0  0  0  0  0  0  0  0  0  0  0  0
   -1.7921   -2.2226    0.8327 C   0  0  0  0  0  0  0  0  0  0  0  0
   -0.7611   -2.7766    1.1927 O   0  0  0  0  0  0  0  0  0  0  0  0
   -1.8201   -0.9926    0.3247 N   0  0  0  0  0  0  0  0  0  0  0  0
   -2.7141   -0.5816    0.0927 H   0  0  0  0  0  0  0  0  0  0  0  0
   -0.6481   -0.1156    0.2017 C   0  0  1  0  0  0  0  0  0  0  0  0
    0.2104   -0.6316    0.6362 H   0  0  0  0  0  0  0  0  0  0  0  0
   -0.3494    0.1474   -1.2871 C   0  0  0  0  0  0  0  0  0  0  0  0
   -1.2350    0.5577   -1.7745 H   0  0  0  0  0  0  0  0  0  0  0  0
    0.4477    0.8864   -1.3786 H   0  0  0  0  0  0  0  0  0  0  0  0
    0.0369   -1.1037   -2.0378 C   0  0  0  0  0  0  0  0  0  0  0  0
    1.2662   -1.7591   -1.9567 N   0  0  0  0  0  0  0  0  0  0  0  0
    1.1608   -2.8405   -2.7427 C   0  0  0  0  0  0  0  0  0  0  0  0
    1.9546   -3.5582   -2.9069 H   0  0  0  0  0  0  0  0  0  0  0  0
   -0.0665   -2.9084   -3.2853 N   0  0  0  0  0  0  0  0  0  0  0  0
   -0.3969   -3.6415   -3.8980 H   0  0  0  0  0  0  0  0  0  0  0  0
   -0.7921   -1.8224   -2.8487 C   0  0  0  0  0  0  0  0  0  0  0  0
   -1.8231   -1.5816   -3.0755 H   0  0  0  0  0  0  0  0  0  0  0  0
   -0.8555    1.1845    0.9990 C   0  0  0  0  0  0  0  0  0  0  0  0
   -1.7516    1.2550    1.8402 O   0  0  0  0  0  0  0  0  0  0  0  0
   -0.0297    2.2049    0.7467 N   0  0  0  0  0  0  0  0  0  0  0  0
    0.6086    2.0975   -0.0336 H   0  0  0  0  0  0  0  0  0  0  0  0
   -0.0763    3.5013    1.4189 C   0  0  0  0  0  0  0  0  0  0  0  0
   -0.3570    3.3708    2.4672 H   0  0  0  0  0  0  0  0  0  0  0  0
    0.9024    3.9806    1.3684 H   0  0  0  0  0  0  0  0  0  0  0  0
   -0.8168    4.1384    0.9326 H   0  0  0  0  0  0  0  0  0  0  0  0
  5  6  2  0  0  0  0
  5  7  1  0  0  0  0
  2  3  1  0  0  0  0
  2  4  1  0  0  0  0
  2  5  1  0  0  0  0
  1  2  1  0  0  0  0
 22 23  2  0  0  0  0
 22 24  1  0  0  0  0
 20 21  1  0  0  0  0
 18 19  1  0  0  0  0
 18 20  1  0  0  0  0
 16 17  1  0  0  0  0
 16 18  1  0  0  0  0
 15 16  2  0  0  0  0
 14 15  1  0  0  0  0
 14 20  2  0  0  0  0
 11 12  1  0  0  0  0
 11 13  1  0  0  0  0
 11 14  1  0  0  0  0
  9 10  1  0  0  0  0
  9 11  1  0  0  0  0
  9 22  1  0  0  0  0
  7  8  1  0  0  0  0
  7  9  1  0  0  0  0
 26 27  1  0  0  0  0
 26 28  1  0  0  0  0
 26 29  1  0  0  0  0
 24 25  1  0  0  0  0
 24 26  1  0  0  0  0
M  END
$$$$
default_name
  -OEChem-01062215323D

 29 29  0     1  0  0  0  0  0999 V2000
   -2.9561   -3.9186    1.3887 H   0  0  0  0  0  0  0  0  0  0  0  0
   -3.1191   -2.9346    0.9517 C   0  0  0  0  0  0  0  0  0  0  0  0
   -3.7811   -2.3546    1.5917 H   0  0  0  0  0  0  0  0  0  0  0  0
   -3.5591   -3.0406   -0.0383 H   0  0  0  0  0  0  0  0  0  0  0  0
   -1.7921   -2.2226    0.8327 C   0  0  0  0  0  0  0  0  0  0  0  0
   -0.7611   -2.7766    1.1927 O   0  0  0  0  0  0  0  0  0  0  0  0
   -1.8201   -0.9926    0.3247 N   0  0  0  0  0  0  0  0  0  0  0  0
   -2.7141   -0.5816    0.0927 H   0  0  0  0  0  0  0  0  0  0  0  0
   -0.6481   -0.1156    0.2017 C   0  0  1  0  0  0  0  0  0  0  0  0
    0.2104   -0.6316    0.6362 H   0  0  0  0  0  0  0  0  0  0  0  0
   -0.3494    0.1474   -1.2871 C   0  0  0  0  0  0  0  0  0  0  0  0
   -1.2350    0.5577   -1.7745 H   0  0  0  0  0  0  0  0  0  0  0  0
    0.4477    0.8864   -1.3786 H   0  0  0  0  0  0  0  0  0  0  0  0
    0.0369   -1.1037   -2.0378 C   0  0  0  0  0  0  0  0  0  0  0  0
    1.2662   -1.7591   -1.9567 N   0  0  0  0  0  0  0  0  0  0  0  0
    1.1608   -2.8405   -2.7427 C   0  0  0  0  0  0  0  0  0  0  0  0
    1.9546   -3.5582   -2.9069 H   0  0  0  0  0  0  0  0  0  0  0  0
   -0.0665   -2.9084   -3.2853 N   0  0  0  0  0  0  0  0  0  0  0  0
   -0.3969   -3.6415   -3.8980 H   0  0  0  0  0  0  0  0  0  0  0  0
   -0.7921   -1.8224   -2.8487 C   0  0  0  0  0  0  0  0  0  0  0  0
   -1.8231   -1.5816   -3.0755 H   0  0  0  0  0  0  0  0  0  0  0  0
   -0.8555    1.1845    0.9990 C   0  0  0  0  0  0  0  0  0  0  0  0
   -1.5494    1.1795    2.0158 O   0  0  0  0  0  0  0  0  0  0  0  0
   -0.2527    2.2899    0.5501 N   0  0  0  0  0  0  0  0  0  0  0  0
    0.2104    2.2278   -0.3497 H   0  0  0  0  0  0  0  0  0  0  0  0
   -0.3312    3.6010    1.1900 C   0  0  0  0  0  0  0  0  0  0  0  0
   -0.3578    3.4875    2.2768 H   0  0  0  0  0  0  0  0  0  0  0  0
    0.5377    4.2005    0.9149 H   0  0  0  0  0  0  0  0  0  0  0  0
   -1.2400    4.1113    0.8667 H   0  0  0  0  0  0  0  0  0  0  0  0
  5  6  2  0  0  0  0
  5  7  1  0  0  0  0
  2  3  1  0  0  0  0
  2  4  1  0  0  0  0
  2  5  1  0  0  0  0
  1  2  1  0  0  0  0
 22 23  2  0  0  0  0
 22 24  1  0  0  0  0
 20 21  1  0  0  0  0
 18 19  1  0  0  0  0
 18 20  1  0  0  0  0
 16 17  1  0  0  0  0
 16 18  1  0  0  0  0
 15 16  2  0  0  0  0
 14 15  1  0  0  0  0
 14 20  2  0  0  0  0
 11 12  1  0  0  0  0
 11 13  1  0  0  0  0
 11 14  1  0  0  0  0
  9 10  1  0  0  0  0
  9 11  1  0  0  0  0
  9 22  1  0  0  0  0
  7  8  1  0  0  0  0
  7  9  1  0  0  0  0
 26 27  1  0  0  0  0
 26 28  1  0  0  0  0
 26 29  1  0  0  0  0
 24 25  1  0  0  0  0
 24 26  1  0  0  0  0
M  END
$$$$
default_name
  -OEChem-01062215323D

 29 29  0     1  0  0  0  0  0999 V2000
   -2.9561   -3.9186    1.3887 H   0  0  0  0  0  0  0  0  0  0  0  0
   -3.1191   -2.9346    0.9517 C   0  0  0  0  0  0  0  0  0  0  0  0
   -3.7811   -2.3546    1.5917 H   0  0  0  0  0  0  0  0  0  0  0  0
   -3.5591   -3.0406   -0.0383 H   0  0  0  0  0  0  0  0  0  0  0  0
   -1.7921   -2.2226    0.8327 C   0  0  0  0  0  0  0  0  0  0  0  0
   -0.7611   -2.7766    1.1927 O   0  0  0  0  0  0  0  0  0  0  0  0
   -1.8201   -0.9926    0.3247 N   0  0  0  0  0  0  0  0  0  0  0  0
   -2.7141   -0.5816    0.0927 H   0  0  0  0  0  0  0  0  0  0  0  0
   -0.6481   -0.1156    0.2017 C   0  0  1  0  0  0  0  0  0  0  0  0
    0.2104   -0.6316    0.6362 H   0  0  0  0  0  0  0  0  0  0  0  0
   -0.3494    0.1474   -1.2871 C   0  0  0  0  0  0  0  0  0  0  0  0
   -1.2350    0.5577   -1.7745 H   0  0  0  0  0  0  0  0  0  0  0  0
    0.4477    0.8864   -1.3786 H   0  0  0  0  0  0  0  0  0  0  0  0
    0.0369   -1.1037   -2.0378 C   0  0  0  0  0  0  0  0  0  0  0  0
    1.2662   -1.7591   -1.9567 N   0  0  0  0  0  0  0  0  0  0  0  0
    1.1608   -2.8405   -2.7427 C   0  0  0  0  0  0  0  0  0  0  0  0
    1.9546   -3.5582   -2.9069 H   0  0  0  0  0  0  0  0  0  0  0  0
   -0.0665   -2.9084   -3.2853 N   0  0  0  0  0  0  0  0  0  0  0  0
   -0.3969   -3.6415   -3.8980 H   0  0  0  0  0  0  0  0  0  0  0  0
   -0.7921   -1.8224   -2.8487 C   0  0  0  0  0  0  0  0  0  0  0  0
   -1.8231   -1.5816   -3.0755 H   0  0  0  0  0  0  0  0  0  0  0  0
   -0.8555    1.1845    0.9990 C   0  0  0  0  0  0  0  0  0  0  0  0
   -1.3057    1.1398    2.1439 O   0  0  0  0  0  0  0  0  0  0  0  0
   -0.5224    2.3352    0.4060 N   0  0  0  0  0  0  0  0  0  0  0  0
   -0.2608    2.2892   -0.5724 H   0  0  0  0  0  0  0  0  0  0  0  0
   -0.6408    3.6552    1.0211 C   0  0  0  0  0  0  0  0  0  0  0  0
   -0.4159    3.5934    2.0889 H   0  0  0  0  0  0  0  0  0  0  0  0
    0.0568    4.3483    0.5489 H   0  0  0  0  0  0  0  0  0  0  0  0
   -1.6595    4.0261    0.8966 H   0  0  0  0  0  0  0  0  0  0  0  0
  5  6  2  0  0  0  0
  5  7  1  0  0  0  0
  2  3  1  0  0  0  0
  2  4  1  0  0  0  0
  2  5  1  0  0  0  0
  1  2  1  0  0  0  0
 22 23  2  0  0  0  0
 22 24  1  0  0  0  0
 20 21  1  0  0  0  0
 18 19  1  0  0  0  0
 18 20  1  0  0  0  0
 16 17  1  0  0  0  0
 16 18  1  0  0  0  0
 15 16  2  0  0  0  0
 14 15  1  0  0  0  0
 14 20  2  0  0  0  0
 11 12  1  0  0  0  0
 11 13  1  0  0  0  0
 11 14  1  0  0  0  0
  9 10  1  0  0  0  0
  9 11  1  0  0  0  0
  9 22  1  0  0  0  0
  7  8  1  0  0  0  0
  7  9  1  0  0  0  0
 26 27  1  0  0  0  0
 26 28  1  0  0  0  0
 26 29  1  0  0  0  0
 24 25  1  0  0  0  0
 24 26  1  0  0  0  0
M  END
$$$$
default_name
  -OEChem-01062215323D

 29 29  0     1  0  0  0  0  0999 V2000
   -2.9561   -3.9186    1.3887 H   0  0  0  0  0  0  0  0  0  0  0  0
   -3.1191   -2.9346    0.9517 C   0  0  0  0  0  0  0  0  0  0  0  0
   -3.7811   -2.3546    1.5917 H   0  0  0  0  0  0  0  0  0  0  0  0
   -3.5591   -3.0406   -0.0383 H   0  0  0  0  0  0  0  0  0  0  0  0
   -1.7921   -2.2226    0.8327 C   0  0  0  0  0  0  0  0  0  0  0  0
   -0.7611   -2.7766    1.1927 O   0  0  0  0  0  0  0  0  0  0  0  0
   -1.8201   -0.9926    0.3247 N   0  0  0  0  0  0  0  0  0  0  0  0
   -2.7141   -0.5816    0.0927 H   0  0  0  0  0  0  0  0  0  0  0  0
   -0.6481   -0.1156    0.2017 C   0  0  1  0  0  0  0  0  0  0  0  0
    0.2104   -0.6316    0.6362 H   0  0  0  0  0  0  0  0  0  0  0  0
   -0.3494    0.1474   -1.2871 C   0  0  0  0  0  0  0  0  0  0  0  0
   -1.2350    0.5577   -1.7745 H   0  0  0  0  0  0  0  0  0  0  0  0
    0.4477    0.8864   -1.3786 H   0  0  0  0  0  0  0  0  0  0  0  0
    0.0369   -1.1037   -2.0378 C   0  0  0  0  0  0  0  0  0  0  0  0
    1.2662   -1.7591   -1.9567 N   0  0  0  0  0  0  0  0  0  0  0  0
    1.1608   -2.8405   -2.7427 C   0  0  0  0  0  0  0  0  0  0  0  0
    1.9546   -3.5582   -2.9069 H   0  0  0  0  0  0  0  0  0  0  0  0
   -0.0665   -2.9084   -3.2853 N   0  0  0  0  0  0  0  0  0  0  0  0
   -0.3969   -3.6415   -3.8980 H   0  0  0  0  0  0  0  0  0  0  0  0
   -0.7921   -1.8224   -2.8487 C   0  0  0  0  0  0  0  0  0  0  0  0
   -1.8231   -1.5816   -3.0755 H   0  0  0  0  0  0  0  0  0  0  0  0
   -0.8555    1.1845    0.9990 C   0  0  0  0  0  0  0  0  0  0  0  0
   -1.0369    1.1386    2.2158 O   0  0  0  0  0  0  0  0  0  0  0  0
   -0.8205    2.3378    0.3242 N   0  0  0  0  0  0  0  0  0  0  0  0
   -0.7730    2.2776   -0.6867 H   0  0  0  0  0  0  0  0  0  0  0  0
   -0.9841    3.6601    0.9237 C   0  0  0  0  0  0  0  0  0  0  0  0
   -0.5272    3.6814    1.9165 H   0  0  0  0  0  0  0  0  0  0  0  0
   -0.5075    4.4138    0.2953 H   0  0  0  0  0  0  0  0  0  0  0  0
   -2.0468    3.8886    1.0201 H   0  0  0  0  0  0  0  0  0  0  0  0
  5  6  2  0  0  0  0
  5  7  1  0  0  0  0
  2  3  1  0  0  0  0
  2  4  1  0  0  0  0
  2  5  1  0  0  0  0
  1  2  1  0  0  0  0
 22 23  2  0  0  0  0
 22 24  1  0  0  0  0
 20 21  1  0  0  0  0
 18 19  1  0  0  0  0
 18 20  1  0  0  0  0
 16 17  1  0  0  0  0
 16 18  1  0  0  0  0
 15 16  2  0  0  0  0
 14 15  1  0  0  0  0
 14 20  2  0  0  0  0
 11 12  1  0  0  0  0
 11 13  1  0  0  0  0
 11 14  1  0  0  0  0
  9 10  1  0  0  0  0
  9 11  1  0  0  0  0
  9 22  1  0  0  0  0
  7  8  1  0  0  0  0
  7  9  1  0  0  0  0
 26 27  1  0  0  0  0
 26 28  1  0  0  0  0
 26 29  1  0  0  0  0
 24 25  1  0  0  0  0
 24 26  1  0  0  0  0
M  END
$$$$
default_name
  -OEChem-01062215323D

 29 29  0     1  0  0  0  0  0999 V2000
   -2.9561   -3.9186    1.3887 H   0  0  0  0  0  0  0  0  0  0  0  0
   -3.1191   -2.9346    0.9517 C   0  0  0  0  0  0  0  0  0  0  0  0
   -3.7811   -2.3546    1.5917 H   0  0  0  0  0  0  0  0  0  0  0  0
   -3.5591   -3.0406   -0.0383 H   0  0  0  0  0  0  0  0  0  0  0  0
   -1.7921   -2.2226    0.8327 C   0  0  0  0  0  0  0  0  0  0  0  0
   -0.7611   -2.7766    1.1927 O   0  0  0  0  0  0  0  0  0  0  0  0
   -1.8201   -0.9926    0.3247 N   0  0  0  0  0  0  0  0  0  0  0  0
   -2.7141   -0.5816    0.0927 H   0  0  0  0  0  0  0  0  0  0  0  0
   -0.6481   -0.1156    0.2017 C   0  0  1  0  0  0  0  0  0  0  0  0
    0.2104   -0.6316    0.6362 H   0  0  0  0  0  0  0  0  0  0  0  0
   -0.3494    0.1474   -1.2871 C   0  0  0  0  0  0  0  0  0  0  0  0
   -1.2350    0.5577   -1.7745 H   0  0  0  0  0  0  0  0  0  0  0  0
    0.4477    0.8864   -1.3786 H   0  0  0  0  0  0  0  0  0  0  0  0
    0.0369   -1.1037   -2.0378 C   0  0  0  0  0  0  0  0  0  0  0  0
    1.2662   -1.7591   -1.9567 N   0  0  0  0  0  0  0  0  0  0  0  0
    1.1608   -2.8405   -2.7427 C   0  0  0  0  0  0  0  0  0  0  0  0
    1.9546   -3.5582   -2.9069 H   0  0  0  0  0  0  0  0  0  0  0  0
   -0.0665   -2.9084   -3.2853 N   0  0  0  0  0  0  0  0  0  0  0  0
   -0.3969   -3.6415   -3.8980 H   0  0  0  0  0  0  0  0  0  0  0  0
   -0.7921   -1.8224   -2.8487 C   0  0  0  0  0  0  0  0  0  0  0  0
   -1.8231   -1.5816   -3.0755 H   0  0  0  0  0  0  0  0  0  0  0  0
   -0.8555    1.1845    0.9990 C   0  0  0  0  0  0  0  0  0  0  0  0
   -0.7614    1.1760    2.2264 O   0  0  0  0  0  0  0  0  0  0  0  0
   -1.1267    2.2975    0.3103 N   0  0  0  0  0  0  0  0  0  0  0  0
   -1.2911    2.1938   -0.6848 H   0  0  0  0  0  0  0  0  0  0  0  0
   -1.3376    3.6155    0.9046 C   0  0  0  0  0  0  0  0  0  0  0  0
   -0.6843    3.7454    1.7712 H   0  0  0  0  0  0  0  0  0  0  0  0
   -1.1169    4.3925    0.1715 H   0  0  0  0  0  0  0  0  0  0  0  0
   -2.3754    3.7081    1.2288 H   0  0  0  0  0  0  0  0  0  0  0  0
  5  6  2  0  0  0  0
  5  7  1  0  0  0  0
  2  3  1  0  0  0  0
  2  4  1  0  0  0  0
  2  5  1  0  0  0  0
  1  2  1  0  0  0  0
 22 23  2  0  0  0  0
 22 24  1  0  0  0  0
 20 21  1  0  0  0  0
 18 19  1  0  0  0  0
 18 20  1  0  0  0  0
 16 17  1  0  0  0  0
 16 18  1  0  0  0  0
 15 16  2  0  0  0  0
 14 15  1  0  0  0  0
 14 20  2  0  0  0  0
 11 12  1  0  0  0  0
 11 13  1  0  0  0  0
 11 14  1  0  0  0  0
  9 10  1  0  0  0  0
  9 11  1  0  0  0  0
  9 22  1  0  0  0  0
  7  8  1  0  0  0  0
  7  9  1  0  0  0  0
 26 27  1  0  0  0  0
 26 28  1  0  0  0  0
 26 29  1  0  0  0  0
 24 25  1  0  0  0  0
 24 26  1  0  0  0  0
M  END
$$$$
default_name
  -OEChem-01062215323D

 29 29  0     1  0  0  0  0  0999 V2000
   -2.9561   -3.9186    1.3887 H   0  0  0  0  0  0  0  0  0  0  0  0
   -3.1191   -2.9346    0.9517 C   0  0  0  0  0  0  0  0  0  0  0  0
   -3.7811   -2.3546    1.5917 H   0  0  0  0  0  0  0  0  0  0  0  0
   -3.5591   -3.0406   -0.0383 H   0  0  0  0  0  0  0  0  0  0  0  0
   -1.7921   -2.2226    0.8327 C   0  0  0  0  0  0  0  0  0  0  0  0
   -0.7611   -2.7766    1.1927 O   0  0  0  0  0  0  0  0  0  0  0  0
   -1.8201   -0.9926    0.3247 N   0  0  0  0  0  0  0  0  0  0  0  0
   -2.7141   -0.5816    0.0927 H   0  0  0  0  0  0  0  0  0  0  0  0
   -0.6481   -0.1156    0.2017 C   0  0  1  0  0  0  0  0  0  0  0  0
    0.2104   -0.6316    0.6362 H   0  0  0  0  0  0  0  0  0  0  0  0
   -0.3494    0.1474   -1.2871 C   0  0  0  0  0  0  0  0  0  0  0  0
   -1.2350    0.5577   -1.7745 H   0  0  0  0  0  0  0  0  0  0  0  0
    0.4477    0.8864   -1.3786 H   0  0  0  0  0  0  0  0  0  0  0  0
    0.0369   -1.1037   -2.0378 C   0  0  0  0  0  0  0  0  0  0  0  0
    1.2662   -1.7591   -1.9567 N   0  0  0  0  0  0  0  0  0  0  0  0
    1.1608   -2.8405   -2.7427 C   0  0  0  0  0  0  0  0  0  0  0  0
    1.9546   -3.5582   -2.9069 H   0  0  0  0  0  0  0  0  0  0  0  0
   -0.0665   -2.9084   -3.2853 N   0  0  0  0  0  0  0  0  0  0  0  0
   -0.3969   -3.6415   -3.8980 H   0  0  0  0  0  0  0  0  0  0  0  0
   -0.7921   -1.8224   -2.8487 C   0  0  0  0  0  0  0  0  0  0  0  0
   -1.8231   -1.5816   -3.0755 H   0  0  0  0  0  0  0  0  0  0  0  0
   -0.8555    1.1845    0.9990 C   0  0  0  0  0  0  0  0  0  0  0  0
   -0.4980    1.2495    2.1752 O   0  0  0  0  0  0  0  0  0  0  0  0
   -1.4202    2.2171    0.3652 N   0  0  0  0  0  0  0  0  0  0  0  0
   -1.7798    2.0434   -0.5667 H   0  0  0  0  0  0  0  0  0  0  0  0
   -1.6773    3.5242    0.9650 C   0  0  0  0  0  0  0  0  0  0  0  0
   -0.8764    3.7811    1.6630 H   0  0  0  0  0  0  0  0  0  0  0  0
   -1.7297    4.2860    0.1858 H   0  0  0  0  0  0  0  0  0  0  0  0
   -2.6231    3.4970    1.5086 H   0  0  0  0  0  0  0  0  0  0  0  0
  5  6  2  0  0  0  0
  5  7  1  0  0  0  0
  2  3  1  0  0  0  0
  2  4  1  0  0  0  0
  2  5  1  0  0  0  0
  1  2  1  0  0  0  0
 22 23  2  0  0  0  0
 22 24  1  0  0  0  0
 20 21  1  0  0  0  0
 18 19  1  0  0  0  0
 18 20  1  0  0  0  0
 16 17  1  0  0  0  0
 16 18  1  0  0  0  0
 15 16  2  0  0  0  0
 14 15  1  0  0  0  0
 14 20  2  0  0  0  0
 11 12  1  0  0  0  0
 11 13  1  0  0  0  0
 11 14  1  0  0  0  0
  9 10  1  0  0  0  0
  9 11  1  0  0  0  0
  9 22  1  0  0  0  0
  7  8  1  0  0  0  0
  7  9  1  0  0  0  0
 26 27  1  0  0  0  0
 26 28  1  0  0  0  0
 26 29  1  0  0  0  0
 24 25  1  0  0  0  0
 24 26  1  0  0  0  0
M  END
$$$$
default_name
  -OEChem-01062215323D

 29 29  0     1  0  0  0  0  0999 V2000
   -2.9561   -3.9186    1.3887 H   0  0  0  0  0  0  0  0  0  0  0  0
   -3.1191   -2.9346    0.9517 C   0  0  0  0  0  0  0  0  0  0  0  0
   -3.7811   -2.3546    1.5917 H   0  0  0  0  0  0  0  0  0  0  0  0
   -3.5591   -3.0406   -0.0383 H   0  0  0  0  0  0  0  0  0  0  0  0
   -1.7921   -2.2226    0.8327 C   0  0  0  0  0  0  0  0  0  0  0  0
   -0.7611   -2.7766    1.1927 O   0  0  0  0  0  0  0  0  0  0  0  0
   -1.8201   -0.9926    0.3247 N   0  0  0  0  0  0  0  0  0  0  0  0
   -2.7141   -0.5816    0.0927 H   0  0  0  0  0  0  0  0  0  0  0  0
   -0.6481   -0.1156    0.2017 C   0  0  1  0  0  0  0  0  0  0  0  0
    0.2104   -0.6316    0.6362 H   0  0  0  0  0  0  0  0  0  0  0  0
   -0.3494    0.1474   -1.2871 C   0  0  0  0  0  0  0  0  0  0  0  0
   -1.2350    0.5577   -1.7745 H   0  0  0  0  0  0  0  0  0  0  0  0
    0.4477    0.8864   -1.3786 H   0  0  0  0  0  0  0  0  0  0  0  0
    0.0369   -1.1037   -2.0378 C   0  0  0  0  0  0  0  0  0  0  0  0
    1.2662   -1.7591   -1.9567 N   0  0  0  0  0  0  0  0  0  0  0  0
    1.1608   -2.8405   -2.7427 C   0  0  0  0  0  0  0  0  0  0  0  0
    1.9546   -3.5582   -2.9069 H   0  0  0  0  0  0  0  0  0  0  0  0
   -0.0665   -2.9084   -3.2853 N   0  0  0  0  0  0  0  0  0  0  0  0
   -0.3969   -3.6415   -3.8980 H   0  0  0  0  0  0  0  0  0  0  0  0
   -0.7921   -1.8224   -2.8487 C   0  0  0  0  0  0  0  0  0  0  0  0
   -1.8231   -1.5816   -3.0755 H   0  0  0  0  0  0  0  0  0  0  0  0
   -0.8555    1.1845    0.9990 C   0  0  0  0  0  0  0  0  0  0  0  0
   -0.2646    1.3540    2.0655 O   0  0  0  0  0  0  0  0  0  0  0  0
   -1.6808    2.1019    0.4851 N   0  0  0  0  0  0  0  0  0  0  0  0
   -2.2060    1.8367   -0.3406 H   0  0  0  0  0  0  0  0  0  0  0  0
   -1.9799    3.3927    1.1007 C   0  0  0  0  0  0  0  0  0  0  0  0
   -1.0903    3.7861    1.5992 H   0  0  0  0  0  0  0  0  0  0  0  0
   -2.3042    4.1014    0.3373 H   0  0  0  0  0  0  0  0  0  0  0  0
   -2.7728    3.2697    1.8403 H   0  0  0  0  0  0  0  0  0  0  0  0
  5  6  2  0  0  0  0
  5  7  1  0  0  0  0
  2  3  1  0  0  0  0
  2  4  1  0  0  0  0
  2  5  1  0  0  0  0
  1  2  1  0  0  0  0
 22 23  2  0  0  0  0
 22 24  1  0  0  0  0
 20 21  1  0  0  0  0
 18 19  1  0  0  0  0
 18 20  1  0  0  0  0
 16 17  1  0  0  0  0
 16 18  1  0  0  0  0
 15 16  2  0  0  0  0
 14 15  1  0  0  0  0
 14 20  2  0  0  0  0
 11 12  1  0  0  0  0
 11 13  1  0  0  0  0
 11 14  1  0  0  0  0
  9 10  1  0  0  0  0
  9 11  1  0  0  0  0
  9 22  1  0  0  0  0
  7  8  1  0  0  0  0
  7  9  1  0  0  0  0
 26 27  1  0  0  0  0
 26 28  1  0  0  0  0
 26 29  1  0  0  0  0
 24 25  1  0  0  0  0
 24 26  1  0  0  0  0
M  END
$$$$
default_name
  -OEChem-01062215323D

 29 29  0     1  0  0  0  0  0999 V2000
   -2.9561   -3.9186    1.3887 H   0  0  0  0  0  0  0  0  0  0  0  0
   -3.1191   -2.9346    0.9517 C   0  0  0  0  0  0  0  0  0  0  0  0
   -3.7811   -2.3546    1.5917 H   0  0  0  0  0  0  0  0  0  0  0  0
   -3.5591   -3.0406   -0.0383 H   0  0  0  0  0  0  0  0  0  0  0  0
   -1.7921   -2.2226    0.8327 C   0  0  0  0  0  0  0  0  0  0  0  0
   -0.7611   -2.7766    1.1927 O   0  0  0  0  0  0  0  0  0  0  0  0
   -1.8201   -0.9926    0.3247 N   0  0  0  0  0  0  0  0  0  0  0  0
   -2.7141   -0.5816    0.0927 H   0  0  0  0  0  0  0  0  0  0  0  0
   -0.6481   -0.1156    0.2017 C   0  0  1  0  0  0  0  0  0  0  0  0
    0.2104   -0.6316    0.6362 H   0  0  0  0  0  0  0  0  0  0  0  0
   -0.3494    0.1474   -1.2871 C   0  0  0  0  0  0  0  0  0  0  0  0
   -1.2350    0.5577   -1.7745 H   0  0  0  0  0  0  0  0  0  0  0  0
    0.4477    0.8864   -1.3786 H   0  0  0  0  0  0  0  0  0  0  0  0
    0.0369   -1.1037   -2.0378 C   0  0  0  0  0  0  0  0  0  0  0  0
    1.2662   -1.7591   -1.9567 N   0  0  0  0  0  0  0  0  0  0  0  0
    1.1608   -2.8405   -2.7427 C   0  0  0  0  0  0  0  0  0  0  0  0
    1.9546   -3.5582   -2.9069 H   0  0  0  0  0  0  0  0  0  0  0  0
   -0.0665   -2.9084   -3.2853 N   0  0  0  0  0  0  0  0  0  0  0  0
   -0.3969   -3.6415   -3.8980 H   0  0  0  0  0  0  0  0  0  0  0  0
   -0.7921   -1.8224   -2.8487 C   0  0  0  0  0  0  0  0  0  0  0  0
   -1.8231   -1.5816   -3.0755 H   0  0  0  0  0  0  0  0  0  0  0  0
   -0.8555    1.1845    0.9990 C   0  0  0  0  0  0  0  0  0  0  0  0
   -0.0771    1.4824    1.9050 O   0  0  0  0  0  0  0  0  0  0  0  0
   -1.8909    1.9599    0.6620 N   0  0  0  0  0  0  0  0  0  0  0  0
   -2.5405    1.5878   -0.0218 H   0  0  0  0  0  0  0  0  0  0  0  0
   -2.2250    3.2298    1.3026 C   0  0  0  0  0  0  0  0  0  0  0  0
   -1.3116    3.7601    1.5842 H   0  0  0  0  0  0  0  0  0  0  0  0
   -2.8012    3.8514    0.6157 H   0  0  0  0  0  0  0  0  0  0  0  0
   -2.8144    3.0416    2.2014 H   0  0  0  0  0  0  0  0  0  0  0  0
  5  6  2  0  0  0  0
  5  7  1  0  0  0  0
  2  3  1  0  0  0  0
  2  4  1  0  0  0  0
  2  5  1  0  0  0  0
  1  2  1  0  0  0  0
 22 23  2  0  0  0  0
 22 24  1  0  0  0  0
 20 21  1  0  0  0  0
 18 19  1  0  0  0  0
 18 20  1  0  0  0  0
 16 17  1  0  0  0  0
 16 18  1  0  0  0  0
 15 16  2  0  0  0  0
 14 15  1  0  0  0  0
 14 20  2  0  0  0  0
 11 12  1  0  0  0  0
 11 13  1  0  0  0  0
 11 14  1  0  0  0  0
  9 10  1  0  0  0  0
  9 11  1  0  0  0  0
  9 22  1  0  0  0  0
  7  8  1  0  0  0  0
  7  9  1  0  0  0  0
 26 27  1  0  0  0  0
 26 28  1  0  0  0  0
 26 29  1  0  0  0  0
 24 25  1  0  0  0  0
 24 26  1  0  0  0  0
M  END
$$$$
default_name
  -OEChem-01062215323D

 29 29  0     1  0  0  0  0  0999 V2000
   -2.9561   -3.9186    1.3887 H   0  0  0  0  0  0  0  0  0  0  0  0
   -3.1191   -2.9346    0.9517 C   0  0  0  0  0  0  0  0  0  0  0  0
   -3.7811   -2.3546    1.5917 H   0  0  0  0  0  0  0  0  0  0  0  0
   -3.5591   -3.0406   -0.0383 H   0  0  0  0  0  0  0  0  0  0  0  0
   -1.7921   -2.2226    0.8327 C   0  0  0  0  0  0  0  0  0  0  0  0
   -0.7611   -2.7766    1.1927 O   0  0  0  0  0  0  0  0  0  0  0  0
   -1.8201   -0.9926    0.3247 N   0  0  0  0  0  0  0  0  0  0  0  0
   -2.7141   -0.5816    0.0927 H   0  0  0  0  0  0  0  0  0  0  0  0
   -0.6481   -0.1156    0.2017 C   0  0  1  0  0  0  0  0  0  0  0  0
    0.2104   -0.6316    0.6362 H   0  0  0  0  0  0  0  0  0  0  0  0
   -0.3494    0.1474   -1.2871 C   0  0  0  0  0  0  0  0  0  0  0  0
   -1.2350    0.5577   -1.7745 H   0  0  0  0  0  0  0  0  0  0  0  0
    0.4477    0.8864   -1.3786 H   0  0  0  0  0  0  0  0  0  0  0  0
    0.0369   -1.1037   -2.0378 C   0  0  0  0  0  0  0  0  0  0  0  0
    1.2662   -1.7591   -1.9567 N   0  0  0  0  0  0  0  0  0  0  0  0
    1.1608   -2.8405   -2.7427 C   0  0  0  0  0  0  0  0  0  0  0  0
    1.9546   -3.5582   -2.9069 H   0  0  0  0  0  0  0  0  0  0  0  0
   -0.0665   -2.9084   -3.2853 N   0  0  0  0  0  0  0  0  0  0  0  0
   -0.3969   -3.6415   -3.8980 H   0  0  0  0  0  0  0  0  0  0  0  0
   -0.7921   -1.8224   -2.8487 C   0  0  0  0  0  0  0  0  0  0  0  0
   -1.8231   -1.5816   -3.0755 H   0  0  0  0  0  0  0  0  0  0  0  0
   -0.8555    1.1845    0.9990 C   0  0  0  0  0  0  0  0  0  0  0  0
    0.0517    1.6259    1.7044 O   0  0  0  0  0  0  0  0  0  0  0  0
   -2.0361    1.8008    0.8837 N   0  0  0  0  0  0  0  0  0  0  0  0
   -2.7605    1.3137    0.3680 H   0  0  0  0  0  0  0  0  0  0  0  0
   -2.3957    3.0467    1.5568 C   0  0  0  0  0  0  0  0  0  0  0  0
   -1.5251    3.7047    1.6190 H   0  0  0  0  0  0  0  0  0  0  0  0
   -3.1869    3.5529    1.0020 H   0  0  0  0  0  0  0  0  0  0  0  0
   -2.7451    2.8283    2.5673 H   0  0  0  0  0  0  0  0  0  0  0  0
  5  6  2  0  0  0  0
  5  7  1  0  0  0  0
  2  3  1  0  0  0  0
  2  4  1  0  0  0  0
  2  5  1  0  0  0  0
  1  2  1  0  0  0  0
 22 23  2  0  0  0  0
 22 24  1  0  0  0  0
 20 21  1  0  0  0  0
 18 19  1  0  0  0  0
 18 20  1  0  0  0  0
 16 17  1  0  0  0  0
 16 18  1  0  0  0  0
 15 16  2  0  0  0  0
 14 15  1  0  0  0  0
 14 20  2  0  0  0  0
 11 12  1  0  0  0  0
 11 13  1  0  0  0  0
 11 14  1  0  0  0  0
  9 10  1  0  0  0  0
  9 11  1  0  0  0  0
  9 22  1  0  0  0  0
  7  8  1  0  0  0  0
  7  9  1  0  0  0  0
 26 27  1  0  0  0  0
 26 28  1  0  0  0  0
 26 29  1  0  0  0  0
 24 25  1  0  0  0  0
 24 26  1  0  0  0  0
M  END
$$$$
default_name
  -OEChem-01062215323D

 29 29  0     1  0  0  0  0  0999 V2000
   -2.9561   -3.9186    1.3887 H   0  0  0  0  0  0  0  0  0  0  0  0
   -3.1191   -2.9346    0.9517 C   0  0  0  0  0  0  0  0  0  0  0  0
   -3.7811   -2.3546    1.5917 H   0  0  0  0  0  0  0  0  0  0  0  0
   -3.5591   -3.0406   -0.0383 H   0  0  0  0  0  0  0  0  0  0  0  0
   -1.7921   -2.2226    0.8327 C   0  0  0  0  0  0  0  0  0  0  0  0
   -0.7611   -2.7766    1.1927 O   0  0  0  0  0  0  0  0  0  0  0  0
   -1.8201   -0.9926    0.3247 N   0  0  0  0  0  0  0  0  0  0  0  0
   -2.7141   -0.5816    0.0927 H   0  0  0  0  0  0  0  0  0  0  0  0
   -0.6481   -0.1156    0.2017 C   0  0  1  0  0  0  0  0  0  0  0  0
    0.2104   -0.6316    0.6362 H   0  0  0  0  0  0  0  0  0  0  0  0
   -0.3494    0.1474   -1.2871 C   0  0  0  0  0  0  0  0  0  0  0  0
   -1.2350    0.5577   -1.7745 H   0  0  0  0  0  0  0  0  0  0  0  0
    0.4477    0.8864   -1.3786 H   0  0  0  0  0  0  0  0  0  0  0  0
    0.0369   -1.1037   -2.0378 C   0  0  0  0  0  0  0  0  0  0  0  0
    1.2662   -1.7591   -1.9567 N   0  0  0  0  0  0  0  0  0  0  0  0
    1.1608   -2.8405   -2.7427 C   0  0  0  0  0  0  0  0  0  0  0  0
    1.9546   -3.5582   -2.9069 H   0  0  0  0  0  0  0  0  0  0  0  0
   -0.0665   -2.9084   -3.2853 N   0  0  0  0  0  0  0  0  0  0  0  0
   -0.3969   -3.6415   -3.8980 H   0  0  0  0  0  0  0  0  0  0  0  0
   -0.7921   -1.8224   -2.8487 C   0  0  0  0  0  0  0  0  0  0  0  0
   -1.8231   -1.5816   -3.0755 H   0  0  0  0  0  0  0  0  0  0  0  0
   -0.8555    1.1845    0.9990 C   0  0  0  0  0  0  0  0  0  0  0  0
    0.1129    1.7748    1.4775 O   0  0  0  0  0  0  0  0  0  0  0  0
   -2.1066    1.6353    1.1352 N   0  0  0  0  0  0  0  0  0  0  0  0
   -2.8510    1.0330    0.8021 H   0  0  0  0  0  0  0  0  0  0  0  0
   -2.4805    2.8557    1.8461 C   0  0  0  0  0  0  0  0  0  0  0  0
   -1.7164    3.6237    1.7012 H   0  0  0  0  0  0  0  0  0  0  0  0
   -3.4350    3.2264    1.4699 H   0  0  0  0  0  0  0  0  0  0  0  0
   -2.5695    2.6443    2.9129 H   0  0  0  0  0  0  0  0  0  0  0  0
  5  6  2  0  0  0  0
  5  7  1  0  0  0  0
  2  3  1  0  0  0  0
  2  4  1  0  0  0  0
  2  5  1  0  0  0  0
  1  2  1  0  0  0  0
 22 23  2  0  0  0  0
 22 24  1  0  0  0  0
 20 21  1  0  0  0  0
 18 19  1  0  0  0  0
 18 20  1  0  0  0  0
 16 17  1  0  0  0  0
 16 18  1  0  0  0  0
 15 16  2  0  0  0  0
 14 15  1  0  0  0  0
 14 20  2  0  0  0  0
 11 12  1  0  0  0  0
 11 13  1  0  0  0  0
 11 14  1  0  0  0  0
  9 10  1  0  0  0  0
  9 11  1  0  0  0  0
  9 22  1  0  0  0  0
  7  8  1  0  0  0  0
  7  9  1  0  0  0  0
 26 27  1  0  0  0  0
 26 28  1  0  0  0  0
 26 29  1  0  0  0  0
 24 25  1  0  0  0  0
 24 26  1  0  0  0  0
M  END
$$$$
default_name
  -OEChem-01062215323D

 29 29  0     1  0  0  0  0  0999 V2000
   -2.9561   -3.9186    1.3887 H   0  0  0  0  0  0  0  0  0  0  0  0
   -3.1191   -2.9346    0.9517 C   0  0  0  0  0  0  0  0  0  0  0  0
   -3.7811   -2.3546    1.5917 H   0  0  0  0  0  0  0  0  0  0  0  0
   -3.5591   -3.0406   -0.0383 H   0  0  0  0  0  0  0  0  0  0  0  0
   -1.7921   -2.2226    0.8327 C   0  0  0  0  0  0  0  0  0  0  0  0
   -0.7611   -2.7766    1.1927 O   0  0  0  0  0  0  0  0  0  0  0  0
   -1.8201   -0.9926    0.3247 N   0  0  0  0  0  0  0  0  0  0  0  0
   -2.7141   -0.5816    0.0927 H   0  0  0  0  0  0  0  0  0  0  0  0
   -0.6481   -0.1156    0.2017 C   0  0  1  0  0  0  0  0  0  0  0  0
    0.2104   -0.6316    0.6362 H   0  0  0  0  0  0  0  0  0  0  0  0
   -0.3494    0.1474   -1.2871 C   0  0  0  0  0  0  0  0  0  0  0  0
   -1.2350    0.5577   -1.7745 H   0  0  0  0  0  0  0  0  0  0  0  0
    0.4477    0.8864   -1.3786 H   0  0  0  0  0  0  0  0  0  0  0  0
    0.0369   -1.1037   -2.0378 C   0  0  0  0  0  0  0  0  0  0  0  0
    1.2662   -1.7591   -1.9567 N   0  0  0  0  0  0  0  0  0  0  0  0
    1.1608   -2.8405   -2.7427 C   0  0  0  0  0  0  0  0  0  0  0  0
    1.9546   -3.5582   -2.9069 H   0  0  0  0  0  0  0  0  0  0  0  0
   -0.0665   -2.9084   -3.2853 N   0  0  0  0  0  0  0  0  0  0  0  0
   -0.3969   -3.6415   -3.8980 H   0  0  0  0  0  0  0  0  0  0  0  0
   -0.7921   -1.8224   -2.8487 C   0  0  0  0  0  0  0  0  0  0  0  0
   -1.8231   -1.5816   -3.0755 H   0  0  0  0  0  0  0  0  0  0  0  0
   -0.8555    1.1845    0.9990 C   0  0  0  0  0  0  0  0  0  0  0  0
    0.1026    1.9190    1.2398 O   0  0  0  0  0  0  0  0  0  0  0  0
   -2.0975    1.4748    1.3993 N   0  0  0  0  0  0  0  0  0  0  0  0
   -2.8059    0.7648    1.2511 H   0  0  0  0  0  0  0  0  0  0  0  0
   -2.4735    2.6700    2.1507 C   0  0  0  0  0  0  0  0  0  0  0  0
   -1.8722    3.5228    1.8252 H   0  0  0  0  0  0  0  0  0  0  0  0
   -3.5286    2.8941    1.9874 H   0  0  0  0  0  0  0  0  0  0  0  0
   -2.2997    2.5021    3.2149 H   0  0  0  0  0  0  0  0  0  0  0  0
  5  6  2  0  0  0  0
  5  7  1  0  0  0  0
  2  3  1  0  0  0  0
  2  4  1  0  0  0  0
  2  5  1  0  0  0  0
  1  2  1  0  0  0  0
 22 23  2  0  0  0  0
 22 24  1  0  0  0  0
 20 21  1  0  0  0  0
 18 19  1  0  0  0  0
 18 20  1  0  0  0  0
 16 17  1  0  0  0  0
 16 18  1  0  0  0  0
 15 16  2  0  0  0  0
 14 15  1  0  0  0  0
 14 20  2  0  0  0  0
 11 12  1  0  0  0  0
 11 13  1  0  0  0  0
 11 14  1  0  0  0  0
  9 10  1  0  0  0  0
  9 11  1  0  0  0  0
  9 22  1  0  0  0  0
  7  8  1  0  0  0  0
  7  9  1  0  0  0  0
 26 27  1  0  0  0  0
 26 28  1  0  0  0  0
 26 29  1  0  0  0  0
 24 25  1  0  0  0  0
 24 26  1  0  0  0  0
M  END
$$$$
default_name
  -OEChem-01062215323D

 29 29  0     1  0  0  0  0  0999 V2000
   -2.9561   -3.9186    1.3887 H   0  0  0  0  0  0  0  0  0  0  0  0
   -3.1191   -2.9346    0.9517 C   0  0  0  0  0  0  0  0  0  0  0  0
   -3.7811   -2.3546    1.5917 H   0  0  0  0  0  0  0  0  0  0  0  0
   -3.5591   -3.0406   -0.0383 H   0  0  0  0  0  0  0  0  0  0  0  0
   -1.7921   -2.2226    0.8327 C   0  0  0  0  0  0  0  0  0  0  0  0
   -0.7611   -2.7766    1.1927 O   0  0  0  0  0  0  0  0  0  0  0  0
   -1.8201   -0.9926    0.3247 N   0  0  0  0  0  0  0  0  0  0  0  0
   -2.7141   -0.5816    0.0927 H   0  0  0  0  0  0  0  0  0  0  0  0
   -0.6481   -0.1156    0.2017 C   0  0  1  0  0  0  0  0  0  0  0  0
    0.2104   -0.6316    0.6362 H   0  0  0  0  0  0  0  0  0  0  0  0
   -0.3494    0.1474   -1.2871 C   0  0  0  0  0  0  0  0  0  0  0  0
   -1.2350    0.5577   -1.7745 H   0  0  0  0  0  0  0  0  0  0  0  0
    0.4477    0.8864   -1.3786 H   0  0  0  0  0  0  0  0  0  0  0  0
    0.0369   -1.1037   -2.0378 C   0  0  0  0  0  0  0  0  0  0  0  0
    1.2662   -1.7591   -1.9567 N   0  0  0  0  0  0  0  0  0  0  0  0
    1.1608   -2.8405   -2.7427 C   0  0  0  0  0  0  0  0  0  0  0  0
    1.9546   -3.5582   -2.9069 H   0  0  0  0  0  0  0  0  0  0  0  0
   -0.0665   -2.9084   -3.2853 N   0  0  0  0  0  0  0  0  0  0  0  0
   -0.3969   -3.6415   -3.8980 H   0  0  0  0  0  0  0  0  0  0  0  0
   -0.7921   -1.8224   -2.8487 C   0  0  0  0  0  0  0  0  0  0  0  0
   -1.8231   -1.5816   -3.0755 H   0  0  0  0  0  0  0  0  0  0  0  0
   -0.8555    1.1845    0.9990 C   0  0  0  0  0  0  0  0  0  0  0  0
    0.0212    2.0485    1.0074 O   0  0  0  0  0  0  0  0  0  0  0  0
   -2.0094    1.3302    1.6580 N   0  0  0  0  0  0  0  0  0  0  0  0
   -2.6283    0.5275    1.6842 H   0  0  0  0  0  0  0  0  0  0  0  0
   -2.3753    2.5022    2.4499 C   0  0  0  0  0  0  0  0  0  0  0  0
   -1.9822    3.4087    1.9826 H   0  0  0  0  0  0  0  0  0  0  0  0
   -3.4613    2.5785    2.5194 H   0  0  0  0  0  0  0  0  0  0  0  0
   -1.9540    2.4116    3.4525 H   0  0  0  0  0  0  0  0  0  0  0  0
  5  6  2  0  0  0  0
  5  7  1  0  0  0  0
  2  3  1  0  0  0  0
  2  4  1  0  0  0  0
  2  5  1  0  0  0  0
  1  2  1  0  0  0  0
 22 23  2  0  0  0  0
 22 24  1  0  0  0  0
 20 21  1  0  0  0  0
 18 19  1  0  0  0  0
 18 20  1  0  0  0  0
 16 17  1  0  0  0  0
 16 18  1  0  0  0  0
 15 16  2  0  0  0  0
 14 15  1  0  0  0  0
 14 20  2  0  0  0  0
 11 12  1  0  0  0  0
 11 13  1  0  0  0  0
 11 14  1  0  0  0  0
  9 10  1  0  0  0  0
  9 11  1  0  0  0  0
  9 22  1  0  0  0  0
  7  8  1  0  0  0  0
  7  9  1  0  0  0  0
 26 27  1  0  0  0  0
 26 28  1  0  0  0  0
 26 29  1  0  0  0  0
 24 25  1  0  0  0  0
 24 26  1  0  0  0  0
M  END
$$$$
default_name
  -OEChem-01062215323D

 29 29  0     1  0  0  0  0  0999 V2000
   -2.9561   -3.9186    1.3887 H   0  0  0  0  0  0  0  0  0  0  0  0
   -3.1191   -2.9346    0.9517 C   0  0  0  0  0  0  0  0  0  0  0  0
   -3.7811   -2.3546    1.5917 H   0  0  0  0  0  0  0  0  0  0  0  0
   -3.5591   -3.0406   -0.0383 H   0  0  0  0  0  0  0  0  0  0  0  0
   -1.7921   -2.2226    0.8327 C   0  0  0  0  0  0  0  0  0  0  0  0
   -0.7611   -2.7766    1.1927 O   0  0  0  0  0  0  0  0  0  0  0  0
   -1.8201   -0.9926    0.3247 N   0  0  0  0  0  0  0  0  0  0  0  0
   -2.7141   -0.5816    0.0927 H   0  0  0  0  0  0  0  0  0  0  0  0
   -0.6481   -0.1156    0.2017 C   0  0  1  0  0  0  0  0  0  0  0  0
    0.2104   -0.6316    0.6362 H   0  0  0  0  0  0  0  0  0  0  0  0
   -0.3494    0.1474   -1.2871 C   0  0  0  0  0  0  0  0  0  0  0  0
   -1.2350    0.5577   -1.7745 H   0  0  0  0  0  0  0  0  0  0  0  0
    0.4477    0.8864   -1.3786 H   0  0  0  0  0  0  0  0  0  0  0  0
    0.0369   -1.1037   -2.0378 C   0  0  0  0  0  0  0  0  0  0  0  0
    1.2662   -1.7591   -1.9567 N   0  0  0  0  0  0  0  0  0  0  0  0
    1.1608   -2.8405   -2.7427 C   0  0  0  0  0  0  0  0  0  0  0  0
    1.9546   -3.5582   -2.9069 H   0  0  0  0  0  0  0  0  0  0  0  0
   -0.0665   -2.9084   -3.2853 N   0  0  0  0  0  0  0  0  0  0  0  0
   -0.3969   -3.6415   -3.8980 H   0  0  0  0  0  0  0  0  0  0  0  0
   -0.7921   -1.8224   -2.8487 C   0  0  0  0  0  0  0  0  0  0  0  0
   -1.8231   -1.5816   -3.0755 H   0  0  0  0  0  0  0  0  0  0  0  0
   -0.8555    1.1845    0.9990 C   0  0  0  0  0  0  0  0  0  0  0  0
   -0.1255    2.1547    0.7962 O   0  0  0  0  0  0  0  0  0  0  0  0
   -1.8484    1.2113    1.8936 N   0  0  0  0  0  0  0  0  0  0  0  0
   -2.3302    0.3372    2.0720 H   0  0  0  0  0  0  0  0  0  0  0  0
   -2.1925    2.3637    2.7233 C   0  0  0  0  0  0  0  0  0  0  0  0
   -2.0386    3.2893    2.1627 H   0  0  0  0  0  0  0  0  0  0  0  0
   -3.2377    2.3013    3.0295 H   0  0  0  0  0  0  0  0  0  0  0  0
   -1.5560    2.3787    3.6096 H   0  0  0  0  0  0  0  0  0  0  0  0
  5  6  2  0  0  0  0
  5  7  1  0  0  0  0
  2  3  1  0  0  0  0
  2  4  1  0  0  0  0
  2  5  1  0  0  0  0
  1  2  1  0  0  0  0
 22 23  2  0  0  0  0
 22 24  1  0  0  0  0
 20 21  1  0  0  0  0
 18 19  1  0  0  0  0
 18 20  1  0  0  0  0
 16 17  1  0  0  0  0
 16 18  1  0  0  0  0
 15 16  2  0  0  0  0
 14 15  1  0  0  0  0
 14 20  2  0  0  0  0
 11 12  1  0  0  0  0
 11 13  1  0  0  0  0
 11 14  1  0  0  0  0
  9 10  1  0  0  0  0
  9 11  1  0  0  0  0
  9 22  1  0  0  0  0
  7  8  1  0  0  0  0
  7  9  1  0  0  0  0
 26 27  1  0  0  0  0
 26 28  1  0  0  0  0
 26 29  1  0  0  0  0
 24 25  1  0  0  0  0
 24 26  1  0  0  0  0
M  END
$$$$
default_name
  -OEChem-01062215323D

 29 29  0     1  0  0  0  0  0999 V2000
   -2.9561   -3.9186    1.3887 H   0  0  0  0  0  0  0  0  0  0  0  0
   -3.1191   -2.9346    0.9517 C   0  0  0  0  0  0  0  0  0  0  0  0
   -3.7811   -2.3546    1.5917 H   0  0  0  0  0  0  0  0  0  0  0  0
   -3.5591   -3.0406   -0.0383 H   0  0  0  0  0  0  0  0  0  0  0  0
   -1.7921   -2.2226    0.8327 C   0  0  0  0  0  0  0  0  0  0  0  0
   -0.7611   -2.7766    1.1927 O   0  0  0  0  0  0  0  0  0  0  0  0
   -1.8201   -0.9926    0.3247 N   0  0  0  0  0  0  0  0  0  0  0  0
   -2.7141   -0.5816    0.0927 H   0  0  0  0  0  0  0  0  0  0  0  0
   -0.6481   -0.1156    0.2017 C   0  0  1  0  0  0  0  0  0  0  0  0
    0.2104   -0.6316    0.6362 H   0  0  0  0  0  0  0  0  0  0  0  0
   -0.3494    0.1474   -1.2871 C   0  0  0  0  0  0  0  0  0  0  0  0
   -1.2350    0.5577   -1.7745 H   0  0  0  0  0  0  0  0  0  0  0  0
    0.4477    0.8864   -1.3786 H   0  0  0  0  0  0  0  0  0  0  0  0
    0.0369   -1.1037   -2.0378 C   0  0  0  0  0  0  0  0  0  0  0  0
    1.2662   -1.7591   -1.9567 N   0  0  0  0  0  0  0  0  0  0  0  0
    1.1608   -2.8405   -2.7427 C   0  0  0  0  0  0  0  0  0  0  0  0
    1.9546   -3.5582   -2.9069 H   0  0  0  0  0  0  0  0  0  0  0  0
   -0.0665   -2.9084   -3.2853 N   0  0  0  0  0  0  0  0  0  0  0  0
   -0.3969   -3.6415   -3.8980 H   0  0  0  0  0  0  0  0  0  0  0  0
   -0.7921   -1.8224   -2.8487 C   0  0  0  0  0  0  0  0  0  0  0  0
   -1.8231   -1.5816   -3.0755 H   0  0  0  0  0  0  0  0  0  0  0  0
   -0.8555    1.1845    0.9990 C   0  0  0  0  0  0  0  0  0  0  0  0
   -0.3276    2.2302    0.6205 O   0  0  0  0  0  0  0  0  0  0  0  0
   -1.6255    1.1263    2.0902 N   0  0  0  0  0  0  0  0  0  0  0  0
   -1.9320    0.2069    2.3881 H   0  0  0  0  0  0  0  0  0  0  0  0
   -1.9376    2.2639    2.9522 C   0  0  0  0  0  0  0  0  0  0  0  0
   -2.0378    3.1726    2.3531 H   0  0  0  0  0  0  0  0  0  0  0  0
   -2.8730    2.0814    3.4831 H   0  0  0  0  0  0  0  0  0  0  0  0
   -1.1329    2.4058    3.6755 H   0  0  0  0  0  0  0  0  0  0  0  0
  5  6  2  0  0  0  0
  5  7  1  0  0  0  0
  2  3  1  0  0  0  0
  2  4  1  0  0  0  0
  2  5  1  0  0  0  0
  1  2  1  0  0  0  0
 22 23  2  0  0  0  0
 22 24  1  0  0  0  0
 20 21  1  0  0  0  0
 18 19  1  0  0  0  0
 18 20  1  0  0  0  0
 16 17  1  0  0  0  0
 16 18  1  0  0  0  0
 15 16  2  0  0  0  0
 14 15  1  0  0  0  0
 14 20  2  0  0  0  0
 11 12  1  0  0  0  0
 11 13  1  0  0  0  0
 11 14  1  0  0  0  0
  9 10  1  0  0  0  0
  9 11  1  0  0  0  0
  9 22  1  0  0  0  0
  7  8  1  0  0  0  0
  7  9  1  0  0  0  0
 26 27  1  0  0  0  0
 26 28  1  0  0  0  0
 26 29  1  0  0  0  0
 24 25  1  0  0  0  0
 24 26  1  0  0  0  0
M  END
$$$$
default_name
  -OEChem-01062215323D

 29 29  0     1  0  0  0  0  0999 V2000
   -2.9561   -3.9186    1.3887 H   0  0  0  0  0  0  0  0  0  0  0  0
   -3.1191   -2.9346    0.9517 C   0  0  0  0  0  0  0  0  0  0  0  0
   -3.7811   -2.3546    1.5917 H   0  0  0  0  0  0  0  0  0  0  0  0
   -3.5591   -3.0406   -0.0383 H   0  0  0  0  0  0  0  0  0  0  0  0
   -1.7921   -2.2226    0.8327 C   0  0  0  0  0  0  0  0  0  0  0  0
   -0.7611   -2.7766    1.1927 O   0  0  0  0  0  0  0  0  0  0  0  0
   -1.8201   -0.9926    0.3247 N   0  0  0  0  0  0  0  0  0  0  0  0
   -2.7141   -0.5816    0.0927 H   0  0  0  0  0  0  0  0  0  0  0  0
   -0.6481   -0.1156    0.2017 C   0  0  1  0  0  0  0  0  0  0  0  0
    0.2104   -0.6316    0.6362 H   0  0  0  0  0  0  0  0  0  0  0  0
   -0.3494    0.1474   -1.2871 C   0  0  0  0  0  0  0  0  0  0  0  0
   -1.2350    0.5577   -1.7745 H   0  0  0  0  0  0  0  0  0  0  0  0
    0.4477    0.8864   -1.3786 H   0  0  0  0  0  0  0  0  0  0  0  0
    0.0369   -1.1037   -2.0378 C   0  0  0  0  0  0  0  0  0  0  0  0
    1.2662   -1.7591   -1.9567 N   0  0  0  0  0  0  0  0  0  0  0  0
    1.1608   -2.8405   -2.7427 C   0  0  0  0  0  0  0  0  0  0  0  0
    1.9546   -3.5582   -2.9069 H   0  0  0  0  0  0  0  0  0  0  0  0
   -0.0665   -2.9084   -3.2853 N   0  0  0  0  0  0  0  0  0  0  0  0
   -0.3969   -3.6415   -3.8980 H   0  0  0  0  0  0  0  0  0  0  0  0
   -0.7921   -1.8224   -2.8487 C   0  0  0  0  0  0  0  0  0  0  0  0
   -1.8231   -1.5816   -3.0755 H   0  0  0  0  0  0  0  0  0  0  0  0
   -0.8555    1.1845    0.9990 C   0  0  0  0  0  0  0  0  0  0  0  0
   -0.5714    2.2698    0.4924 O   0  0  0  0  0  0  0  0  0  0  0  0
   -1.3557    1.0810    2.2343 N   0  0  0  0  0  0  0  0  0  0  0  0
   -1.4607    0.1455    2.6108 H   0  0  0  0  0  0  0  0  0  0  0  0
   -1.6279    2.2097    3.1211 C   0  0  0  0  0  0  0  0  0  0  0  0
   -1.9797    3.0667    2.5409 H   0  0  0  0  0  0  0  0  0  0  0  0
   -2.3921    1.9336    3.8491 H   0  0  0  0  0  0  0  0  0  0  0  0
   -0.7133    2.4910    3.6456 H   0  0  0  0  0  0  0  0  0  0  0  0
  5  6  2  0  0  0  0
  5  7  1  0  0  0  0
  2  3  1  0  0  0  0
  2  4  1  0  0  0  0
  2  5  1  0  0  0  0
  1  2  1  0  0  0  0
 22 23  2  0  0  0  0
 22 24  1  0  0  0  0
 20 21  1  0  0  0  0
 18 19  1  0  0  0  0
 18 20  1  0  0  0  0
 16 17  1  0  0  0  0
 16 18  1  0  0  0  0
 15 16  2  0  0  0  0
 14 15  1  0  0  0  0
 14 20  2  0  0  0  0
 11 12  1  0  0  0  0
 11 13  1  0  0  0  0
 11 14  1  0  0  0  0
  9 10  1  0  0  0  0
  9 11  1  0  0  0  0
  9 22  1  0  0  0  0
  7  8  1  0  0  0  0
  7  9  1  0  0  0  0
 26 27  1  0  0  0  0
 26 28  1  0  0  0  0
 26 29  1  0  0  0  0
 24 25  1  0  0  0  0
 24 26  1  0  0  0  0
M  END
$$$$
default_name
  -OEChem-01062215323D

 29 29  0     1  0  0  0  0  0999 V2000
   -2.9561   -3.9186    1.3887 H   0  0  0  0  0  0  0  0  0  0  0  0
   -3.1191   -2.9346    0.9517 C   0  0  0  0  0  0  0  0  0  0  0  0
   -3.7811   -2.3546    1.5917 H   0  0  0  0  0  0  0  0  0  0  0  0
   -3.5591   -3.0406   -0.0383 H   0  0  0  0  0  0  0  0  0  0  0  0
   -1.7921   -2.2226    0.8327 C   0  0  0  0  0  0  0  0  0  0  0  0
   -0.7611   -2.7766    1.1927 O   0  0  0  0  0  0  0  0  0  0  0  0
   -1.8201   -0.9926    0.3247 N   0  0  0  0  0  0  0  0  0  0  0  0
   -2.7141   -0.5816    0.0927 H   0  0  0  0  0  0  0  0  0  0  0  0
   -0.6481   -0.1156    0.2017 C   0  0  1  0  0  0  0  0  0  0  0  0
    0.2104   -0.6316    0.6362 H   0  0  0  0  0  0  0  0  0  0  0  0
   -0.3494    0.1474   -1.2871 C   0  0  0  0  0  0  0  0  0  0  0  0
   -1.2350    0.5577   -1.7745 H   0  0  0  0  0  0  0  0  0  0  0  0
    0.4477    0.8864   -1.3786 H   0  0  0  0  0  0  0  0  0  0  0  0
    0.0369   -1.1037   -2.0378 C   0  0  0  0  0  0  0  0  0  0  0  0
    1.2662   -1.7591   -1.9567 N   0  0  0  0  0  0  0  0  0  0  0  0
    1.1608   -2.8405   -2.7427 C   0  0  0  0  0  0  0  0  0  0  0  0
    1.9546   -3.5582   -2.9069 H   0  0  0  0  0  0  0  0  0  0  0  0
   -0.0665   -2.9084   -3.2853 N   0  0  0  0  0  0  0  0  0  0  0  0
   -0.3969   -3.6415   -3.8980 H   0  0  0  0  0  0  0  0  0  0  0  0
   -0.7921   -1.8224   -2.8487 C   0  0  0  0  0  0  0  0  0  0  0  0
   -1.8231   -1.5816   -3.0755 H   0  0  0  0  0  0  0  0  0  0  0  0
   -0.8555    1.1845    0.9990 C   0  0  0  0  0  0  0  0  0  0  0  0
   -0.8402    2.2710    0.4206 O   0  0  0  0  0  0  0  0  0  0  0  0
   -1.0576    1.0784    2.3161 N   0  0  0  0  0  0  0  0  0  0  0  0
   -0.9486    0.1571    2.7251 H   0  0  0  0  0  0  0  0  0  0  0  0
   -1.2847    2.2048    3.2184 C   0  0  0  0  0  0  0  0  0  0  0  0
   -1.8684    2.9787    2.7134 H   0  0  0  0  0  0  0  0  0  0  0  0
   -1.8277    1.8681    4.1026 H   0  0  0  0  0  0  0  0  0  0  0  0
   -0.3260    2.6285    3.5221 H   0  0  0  0  0  0  0  0  0  0  0  0
  5  6  2  0  0  0  0
  5  7  1  0  0  0  0
  2  3  1  0  0  0  0
  2  4  1  0  0  0  0
  2  5  1  0  0  0  0
  1  2  1  0  0  0  0
 22 23  2  0  0  0  0
 22 24  1  0  0  0  0
 20 21  1  0  0  0  0
 18 19  1  0  0  0  0
 18 20  1  0  0  0  0
 16 17  1  0  0  0  0
 16 18  1  0  0  0  0
 15 16  2  0  0  0  0
 14 15  1  0  0  0  0
 14 20  2  0  0  0  0
 11 12  1  0  0  0  0
 11 13  1  0  0  0  0
 11 14  1  0  0  0  0
  9 10  1  0  0  0  0
  9 11  1  0  0  0  0
  9 22  1  0  0  0  0
  7  8  1  0  0  0  0
  7  9  1  0  0  0  0
 26 27  1  0  0  0  0
 26 28  1  0  0  0  0
 26 29  1  0  0  0  0
 24 25  1  0  0  0  0
 24 26  1  0  0  0  0
M  END
$$$$
default_name
  -OEChem-01062215323D

 29 29  0     1  0  0  0  0  0999 V2000
   -2.9561   -3.9186    1.3887 H   0  0  0  0  0  0  0  0  0  0  0  0
   -3.1191   -2.9346    0.9517 C   0  0  0  0  0  0  0  0  0  0  0  0
   -3.7811   -2.3546    1.5917 H   0  0  0  0  0  0  0  0  0  0  0  0
   -3.5591   -3.0406   -0.0383 H   0  0  0  0  0  0  0  0  0  0  0  0
   -1.7921   -2.2226    0.8327 C   0  0  0  0  0  0  0  0  0  0  0  0
   -0.7611   -2.7766    1.1927 O   0  0  0  0  0  0  0  0  0  0  0  0
   -1.8201   -0.9926    0.3247 N   0  0  0  0  0  0  0  0  0  0  0  0
   -2.7141   -0.5816    0.0927 H   0  0  0  0  0  0  0  0  0  0  0  0
   -0.6481   -0.1156    0.2017 C   0  0  1  0  0  0  0  0  0  0  0  0
    0.2104   -0.6316    0.6362 H   0  0  0  0  0  0  0  0  0  0  0  0
   -0.3494    0.1474   -1.2871 C   0  0  0  0  0  0  0  0  0  0  0  0
   -1.2350    0.5577   -1.7745 H   0  0  0  0  0  0  0  0  0  0  0  0
    0.4477    0.8864   -1.3786 H   0  0  0  0  0  0  0  0  0  0  0  0
    0.0369   -1.1037   -2.0378 C   0  0  0  0  0  0  0  0  0  0  0  0
    1.2662   -1.7591   -1.9567 N   0  0  0  0  0  0  0  0  0  0  0  0
    1.1608   -2.8405   -2.7427 C   0  0  0  0  0  0  0  0  0  0  0  0
    1.9546   -3.5582   -2.9069 H   0  0  0  0  0  0  0  0  0  0  0  0
   -0.0665   -2.9084   -3.2853 N   0  0  0  0  0  0  0  0  0  0  0  0
   -0.3969   -3.6415   -3.8980 H   0  0  0  0  0  0  0  0  0  0  0  0
   -0.7921   -1.8224   -2.8487 C   0  0  0  0  0  0  0  0  0  0  0  0
   -1.8231   -1.5816   -3.0755 H   0  0  0  0  0  0  0  0  0  0  0  0
   -0.8555    1.1845    0.9990 C   0  0  0  0  0  0  0  0  0  0  0  0
   -1.1157    2.2336    0.4099 O   0  0  0  0  0  0  0  0  0  0  0  0
   -0.7514    1.1187    2.3301 N   0  0  0  0  0  0  0  0  0  0  0  0
   -0.4305    0.2409    2.7232 H   0  0  0  0  0  0  0  0  0  0  0  0
   -0.9312    2.2495    3.2376 C   0  0  0  0  0  0  0  0  0  0  0  0
   -1.7113    2.9147    2.8586 H   0  0  0  0  0  0  0  0  0  0  0  0
   -1.2184    1.8894    4.2265 H   0  0  0  0  0  0  0  0  0  0  0  0
    0.0026    2.8090    3.3134 H   0  0  0  0  0  0  0  0  0  0  0  0
  5  6  2  0  0  0  0
  5  7  1  0  0  0  0
  2  3  1  0  0  0  0
  2  4  1  0  0  0  0
  2  5  1  0  0  0  0
  1  2  1  0  0  0  0
 22 23  2  0  0  0  0
 22 24  1  0  0  0  0
 20 21  1  0  0  0  0
 18 19  1  0  0  0  0
 18 20  1  0  0  0  0
 16 17  1  0  0  0  0
 16 18  1  0  0  0  0
 15 16  2  0  0  0  0
 14 15  1  0  0  0  0
 14 20  2  0  0  0  0
 11 12  1  0  0  0  0
 11 13  1  0  0  0  0
 11 14  1  0  0  0  0
  9 10  1  0  0  0  0
  9 11  1  0  0  0  0
  9 22  1  0  0  0  0
  7  8  1  0  0  0  0
  7  9  1  0  0  0  0
 26 27  1  0  0  0  0
 26 28  1  0  0  0  0
 26 29  1  0  0  0  0
 24 25  1  0  0  0  0
 24 26  1  0  0  0  0
M  END
$$$$
default_name
  -OEChem-01062215323D

 29 29  0     1  0  0  0  0  0999 V2000
   -2.9561   -3.9186    1.3887 H   0  0  0  0  0  0  0  0  0  0  0  0
   -3.1191   -2.9346    0.9517 C   0  0  0  0  0  0  0  0  0  0  0  0
   -3.7811   -2.3546    1.5917 H   0  0  0  0  0  0  0  0  0  0  0  0
   -3.5591   -3.0406   -0.0383 H   0  0  0  0  0  0  0  0  0  0  0  0
   -1.7921   -2.2226    0.8327 C   0  0  0  0  0  0  0  0  0  0  0  0
   -0.7611   -2.7766    1.1927 O   0  0  0  0  0  0  0  0  0  0  0  0
   -1.8201   -0.9926    0.3247 N   0  0  0  0  0  0  0  0  0  0  0  0
   -2.7141   -0.5816    0.0927 H   0  0  0  0  0  0  0  0  0  0  0  0
   -0.6481   -0.1156    0.2017 C   0  0  1  0  0  0  0  0  0  0  0  0
    0.2104   -0.6316    0.6362 H   0  0  0  0  0  0  0  0  0  0  0  0
   -0.3494    0.1474   -1.2871 C   0  0  0  0  0  0  0  0  0  0  0  0
   -1.2350    0.5577   -1.7745 H   0  0  0  0  0  0  0  0  0  0  0  0
    0.4477    0.8864   -1.3786 H   0  0  0  0  0  0  0  0  0  0  0  0
    0.0369   -1.1037   -2.0378 C   0  0  0  0  0  0  0  0  0  0  0  0
    1.2662   -1.7591   -1.9567 N   0  0  0  0  0  0  0  0  0  0  0  0
    1.1608   -2.8405   -2.7427 C   0  0  0  0  0  0  0  0  0  0  0  0
    1.9546   -3.5582   -2.9069 H   0  0  0  0  0  0  0  0  0  0  0  0
   -0.0665   -2.9084   -3.2853 N   0  0  0  0  0  0  0  0  0  0  0  0
   -0.3969   -3.6415   -3.8980 H   0  0  0  0  0  0  0  0  0  0  0  0
   -0.7921   -1.8224   -2.8487 C   0  0  0  0  0  0  0  0  0  0  0  0
   -1.8231   -1.5816   -3.0755 H   0  0  0  0  0  0  0  0  0  0  0  0
   -0.8555    1.1845    0.9990 C   0  0  0  0  0  0  0  0  0  0  0  0
   -1.3791    2.1602    0.4612 O   0  0  0  0  0  0  0  0  0  0  0  0
   -0.4580    1.1991    2.2752 N   0  0  0  0  0  0  0  0  0  0  0  0
    0.0583    0.3913    2.6051 H   0  0  0  0  0  0  0  0  0  0  0  0
   -0.5915    2.3407    3.1772 C   0  0  0  0  0  0  0  0  0  0  0  0
   -1.5193    2.8789    2.9669 H   0  0  0  0  0  0  0  0  0  0  0  0
   -0.6056    1.9959    4.2121 H   0  0  0  0  0  0  0  0  0  0  0  0
    0.2503    3.0201    3.0336 H   0  0  0  0  0  0  0  0  0  0  0  0
  5  6  2  0  0  0  0
  5  7  1  0  0  0  0
  2  3  1  0  0  0  0
  2  4  1  0  0  0  0
  2  5  1  0  0  0  0
  1  2  1  0  0  0  0
 22 23  2  0  0  0  0
 22 24  1  0  0  0  0
 20 21  1  0  0  0  0
 18 19  1  0  0  0  0
 18 20  1  0  0  0  0
 16 17  1  0  0  0  0
 16 18  1  0  0  0  0
 15 16  2  0  0  0  0
 14 15  1  0  0  0  0
 14 20  2  0  0  0  0
 11 12  1  0  0  0  0
 11 13  1  0  0  0  0
 11 14  1  0  0  0  0
  9 10  1  0  0  0  0
  9 11  1  0  0  0  0
  9 22  1  0  0  0  0
  7  8  1  0  0  0  0
  7  9  1  0  0  0  0
 26 27  1  0  0  0  0
 26 28  1  0  0  0  0
 26 29  1  0  0  0  0
 24 25  1  0  0  0  0
 24 26  1  0  0  0  0
M  END
$$$$
default_name
  -OEChem-01062215323D

 29 29  0     1  0  0  0  0  0999 V2000
   -2.9561   -3.9186    1.3887 H   0  0  0  0  0  0  0  0  0  0  0  0
   -3.1191   -2.9346    0.9517 C   0  0  0  0  0  0  0  0  0  0  0  0
   -3.7811   -2.3546    1.5917 H   0  0  0  0  0  0  0  0  0  0  0  0
   -3.5591   -3.0406   -0.0383 H   0  0  0  0  0  0  0  0  0  0  0  0
   -1.7921   -2.2226    0.8327 C   0  0  0  0  0  0  0  0  0  0  0  0
   -0.7611   -2.7766    1.1927 O   0  0  0  0  0  0  0  0  0  0  0  0
   -1.8201   -0.9926    0.3247 N   0  0  0  0  0  0  0  0  0  0  0  0
   -2.7141   -0.5816    0.0927 H   0  0  0  0  0  0  0  0  0  0  0  0
   -0.6481   -0.1156    0.2017 C   0  0  1  0  0  0  0  0  0  0  0  0
    0.2104   -0.6316    0.6362 H   0  0  0  0  0  0  0  0  0  0  0  0
   -0.3494    0.1474   -1.2871 C   0  0  0  0  0  0  0  0  0  0  0  0
   -1.2350    0.5577   -1.7745 H   0  0  0  0  0  0  0  0  0  0  0  0
    0.4477    0.8864   -1.3786 H   0  0  0  0  0  0  0  0  0  0  0  0
    0.0369   -1.1037   -2.0378 C   0  0  0  0  0  0  0  0  0  0  0  0
    1.2662   -1.7591   -1.9567 N   0  0  0  0  0  0  0  0  0  0  0  0
    1.1608   -2.8405   -2.7427 C   0  0  0  0  0  0  0  0  0  0  0  0
    1.9546   -3.5582   -2.9069 H   0  0  0  0  0  0  0  0  0  0  0  0
   -0.0665   -2.9084   -3.2853 N   0  0  0  0  0  0  0  0  0  0  0  0
   -0.3969   -3.6415   -3.8980 H   0  0  0  0  0  0  0  0  0  0  0  0
   -0.7921   -1.8224   -2.8487 C   0  0  0  0  0  0  0  0  0  0  0  0
   -1.8231   -1.5816   -3.0755 H   0  0  0  0  0  0  0  0  0  0  0  0
   -0.8555    1.1845    0.9990 C   0  0  0  0  0  0  0  0  0  0  0  0
   -1.6125    2.0557    0.5708 O   0  0  0  0  0  0  0  0  0  0  0  0
   -0.1973    1.3143    2.1552 N   0  0  0  0  0  0  0  0  0  0  0  0
    0.4844    0.5980    2.3790 H   0  0  0  0  0  0  0  0  0  0  0  0
   -0.2888    2.4722    3.0415 C   0  0  0  0  0  0  0  0  0  0  0  0
   -1.3053    2.8739    3.0307 H   0  0  0  0  0  0  0  0  0  0  0  0
   -0.0311    2.1805    4.0606 H   0  0  0  0  0  0  0  0  0  0  0  0
    0.4000    3.2474    2.7019 H   0  0  0  0  0  0  0  0  0  0  0  0
  5  6  2  0  0  0  0
  5  7  1  0  0  0  0
  2  3  1  0  0  0  0
  2  4  1  0  0  0  0
  2  5  1  0  0  0  0
  1  2  1  0  0  0  0
 22 23  2  0  0  0  0
 22 24  1  0  0  0  0
 20 21  1  0  0  0  0
 18 19  1  0  0  0  0
 18 20  1  0  0  0  0
 16 17  1  0  0  0  0
 16 18  1  0  0  0  0
 15 16  2  0  0  0  0
 14 15  1  0  0  0  0
 14 20  2  0  0  0  0
 11 12  1  0  0  0  0
 11 13  1  0  0  0  0
 11 14  1  0  0  0  0
  9 10  1  0  0  0  0
  9 11  1  0  0  0  0
  9 22  1  0  0  0  0
  7  8  1  0  0  0  0
  7  9  1  0  0  0  0
 26 27  1  0  0  0  0
 26 28  1  0  0  0  0
 26 29  1  0  0  0  0
 24 25  1  0  0  0  0
 24 26  1  0  0  0  0
M  END
$$$$
default_name
  -OEChem-01062215323D

 29 29  0     1  0  0  0  0  0999 V2000
   -2.9561   -3.9186    1.3887 H   0  0  0  0  0  0  0  0  0  0  0  0
   -3.1191   -2.9346    0.9517 C   0  0  0  0  0  0  0  0  0  0  0  0
   -3.7811   -2.3546    1.5917 H   0  0  0  0  0  0  0  0  0  0  0  0
   -3.5591   -3.0406   -0.0383 H   0  0  0  0  0  0  0  0  0  0  0  0
   -1.7921   -2.2226    0.8327 C   0  0  0  0  0  0  0  0  0  0  0  0
   -0.7611   -2.7766    1.1927 O   0  0  0  0  0  0  0  0  0  0  0  0
   -1.8201   -0.9926    0.3247 N   0  0  0  0  0  0  0  0  0  0  0  0
   -2.7141   -0.5816    0.0927 H   0  0  0  0  0  0  0  0  0  0  0  0
   -0.6481   -0.1156    0.2017 C   0  0  1  0  0  0  0  0  0  0  0  0
    0.2104   -0.6316    0.6362 H   0  0  0  0  0  0  0  0  0  0  0  0
   -0.3494    0.1474   -1.2871 C   0  0  0  0  0  0  0  0  0  0  0  0
   -1.2350    0.5577   -1.7745 H   0  0  0  0  0  0  0  0  0  0  0  0
    0.4477    0.8864   -1.3786 H   0  0  0  0  0  0  0  0  0  0  0  0
    0.0369   -1.1037   -2.0378 C   0  0  0  0  0  0  0  0  0  0  0  0
    1.2662   -1.7591   -1.9567 N   0  0  0  0  0  0  0  0  0  0  0  0
    1.1608   -2.8405   -2.7427 C   0  0  0  0  0  0  0  0  0  0  0  0
    1.9546   -3.5582   -2.9069 H   0  0  0  0  0  0  0  0  0  0  0  0
   -0.0665   -2.9084   -3.2853 N   0  0  0  0  0  0  0  0  0  0  0  0
   -0.3969   -3.6415   -3.8980 H   0  0  0  0  0  0  0  0  0  0  0  0
   -0.7921   -1.8224   -2.8487 C   0  0  0  0  0  0  0  0  0  0  0  0
   -1.8231   -1.5816   -3.0755 H   0  0  0  0  0  0  0  0  0  0  0  0
   -0.8555    1.1845    0.9990 C   0  0  0  0  0  0  0  0  0  0  0  0
   -1.8000    1.9273    0.7314 O   0  0  0  0  0  0  0  0  0  0  0  0
    0.0127    1.4563    1.9784 N   0  0  0  0  0  0  0  0  0  0  0  0
    0.8189    0.8469    2.0601 H   0  0  0  0  0  0  0  0  0  0  0  0
   -0.0438    2.6351    2.8396 C   0  0  0  0  0  0  0  0  0  0  0  0
   -1.0840    2.9000    3.0457 H   0  0  0  0  0  0  0  0  0  0  0  0
    0.4659    2.4305    3.7822 H   0  0  0  0  0  0  0  0  0  0  0  0
    0.4416    3.4755    2.3408 H   0  0  0  0  0  0  0  0  0  0  0  0
  5  6  2  0  0  0  0
  5  7  1  0  0  0  0
  2  3  1  0  0  0  0
  2  4  1  0  0  0  0
  2  5  1  0  0  0  0
  1  2  1  0  0  0  0
 22 23  2  0  0  0  0
 22 24  1  0  0  0  0
 20 21  1  0  0  0  0
 18 19  1  0  0  0  0
 18 20  1  0  0  0  0
 16 17  1  0  0  0  0
 16 18  1  0  0  0  0
 15 16  2  0  0  0  0
 14 15  1  0  0  0  0
 14 20  2  0  0  0  0
 11 12  1  0  0  0  0
 11 13  1  0  0  0  0
 11 14  1  0  0  0  0
  9 10  1  0  0  0  0
  9 11  1  0  0  0  0
  9 22  1  0  0  0  0
  7  8  1  0  0  0  0
  7  9  1  0  0  0  0
 26 27  1  0  0  0  0
 26 28  1  0  0  0  0
 26 29  1  0  0  0  0
 24 25  1  0  0  0  0
 24 26  1  0  0  0  0
M  END
$$$$
default_name
  -OEChem-01062215323D

 29 29  0     1  0  0  0  0  0999 V2000
   -2.9561   -3.9186    1.3887 H   0  0  0  0  0  0  0  0  0  0  0  0
   -3.1191   -2.9346    0.9517 C   0  0  0  0  0  0  0  0  0  0  0  0
   -3.7811   -2.3546    1.5917 H   0  0  0  0  0  0  0  0  0  0  0  0
   -3.5591   -3.0406   -0.0383 H   0  0  0  0  0  0  0  0  0  0  0  0
   -1.7921   -2.2226    0.8327 C   0  0  0  0  0  0  0  0  0  0  0  0
   -0.7611   -2.7766    1.1927 O   0  0  0  0  0  0  0  0  0  0  0  0
   -1.8201   -0.9926    0.3247 N   0  0  0  0  0  0  0  0  0  0  0  0
   -2.7141   -0.5816    0.0927 H   0  0  0  0  0  0  0  0  0  0  0  0
   -0.6481   -0.1156    0.2017 C   0  0  1  0  0  0  0  0  0  0  0  0
    0.2104   -0.6316    0.6362 H   0  0  0  0  0  0  0  0  0  0  0  0
   -0.3494    0.1474   -1.2871 C   0  0  0  0  0  0  0  0  0  0  0  0
   -1.2350    0.5577   -1.7745 H   0  0  0  0  0  0  0  0  0  0  0  0
    0.4477    0.8864   -1.3786 H   0  0  0  0  0  0  0  0  0  0  0  0
    0.0369   -1.1037   -2.0378 C   0  0  0  0  0  0  0  0  0  0  0  0
    1.2662   -1.7591   -1.9567 N   0  0  0  0  0  0  0  0  0  0  0  0
    1.1608   -2.8405   -2.7427 C   0  0  0  0  0  0  0  0  0  0  0  0
    1.9546   -3.5582   -2.9069 H   0  0  0  0  0  0  0  0  0  0  0  0
   -0.0665   -2.9084   -3.2853 N   0  0  0  0  0  0  0  0  0  0  0  0
   -0.3969   -3.6415   -3.8980 H   0  0  0  0  0  0  0  0  0  0  0  0
   -0.7921   -1.8224   -2.8487 C   0  0  0  0  0  0  0  0  0  0  0  0
   -1.8231   -1.5816   -3.0755 H   0  0  0  0  0  0  0  0  0  0  0  0
   -0.8555    1.1845    0.9990 C   0  0  0  0  0  0  0  0  0  0  0  0
   -1.9288    1.7837    0.9319 O   0  0  0  0  0  0  0  0  0  0  0  0
    0.1580    1.6154    1.7566 N   0  0  0  0  0  0  0  0  0  0  0  0
    1.0389    1.1210    1.6704 H   0  0  0  0  0  0  0  0  0  0  0  0
    0.1269    2.8183    2.5854 C   0  0  0  0  0  0  0  0  0  0  0  0
   -0.8705    2.9554    3.0109 H   0  0  0  0  0  0  0  0  0  0  0  0
    0.8516    2.7290    3.3959 H   0  0  0  0  0  0  0  0  0  0  0  0
    0.3723    3.6889    1.9749 H   0  0  0  0  0  0  0  0  0  0  0  0
  5  6  2  0  0  0  0
  5  7  1  0  0  0  0
  2  3  1  0  0  0  0
  2  4  1  0  0  0  0
  2  5  1  0  0  0  0
  1  2  1  0  0  0  0
 22 23  2  0  0  0  0
 22 24  1  0  0  0  0
 20 21  1  0  0  0  0
 18 19  1  0  0  0  0
 18 20  1  0  0  0  0
 16 17  1  0  0  0  0
 16 18  1  0  0  0  0
 15 16  2  0  0  0  0
 14 15  1  0  0  0  0
 14 20  2  0  0  0  0
 11 12  1  0  0  0  0
 11 13  1  0  0  0  0
 11 14  1  0  0  0  0
  9 10  1  0  0  0  0
  9 11  1  0  0  0  0
  9 22  1  0  0  0  0
  7  8  1  0  0  0  0
  7  9  1  0  0  0  0
 26 27  1  0  0  0  0
 26 28  1  0  0  0  0
 26 29  1  0  0  0  0
 24 25  1  0  0  0  0
 24 26  1  0  0  0  0
M  END
$$$$
default_name
  -OEChem-01062215323D

 29 29  0     1  0  0  0  0  0999 V2000
   -2.9561   -3.9186    1.3887 H   0  0  0  0  0  0  0  0  0  0  0  0
   -3.1191   -2.9346    0.9517 C   0  0  0  0  0  0  0  0  0  0  0  0
   -3.7811   -2.3546    1.5917 H   0  0  0  0  0  0  0  0  0  0  0  0
   -3.5591   -3.0406   -0.0383 H   0  0  0  0  0  0  0  0  0  0  0  0
   -1.7921   -2.2226    0.8327 C   0  0  0  0  0  0  0  0  0  0  0  0
   -0.7611   -2.7766    1.1927 O   0  0  0  0  0  0  0  0  0  0  0  0
   -1.8201   -0.9926    0.3247 N   0  0  0  0  0  0  0  0  0  0  0  0
   -2.7141   -0.5816    0.0927 H   0  0  0  0  0  0  0  0  0  0  0  0
   -0.6481   -0.1156    0.2017 C   0  0  1  0  0  0  0  0  0  0  0  0
    0.2104   -0.6316    0.6362 H   0  0  0  0  0  0  0  0  0  0  0  0
   -0.3494    0.1474   -1.2871 C   0  0  0  0  0  0  0  0  0  0  0  0
   -1.2350    0.5577   -1.7745 H   0  0  0  0  0  0  0  0  0  0  0  0
    0.4477    0.8864   -1.3786 H   0  0  0  0  0  0  0  0  0  0  0  0
    0.0369   -1.1037   -2.0378 C   0  0  0  0  0  0  0  0  0  0  0  0
    1.2662   -1.7591   -1.9567 N   0  0  0  0  0  0  0  0  0  0  0  0
    1.1608   -2.8405   -2.7427 C   0  0  0  0  0  0  0  0  0  0  0  0
    1.9546   -3.5582   -2.9069 H   0  0  0  0  0  0  0  0  0  0  0  0
   -0.0665   -2.9084   -3.2853 N   0  0  0  0  0  0  0  0  0  0  0  0
   -0.3969   -3.6415   -3.8980 H   0  0  0  0  0  0  0  0  0  0  0  0
   -0.7921   -1.8224   -2.8487 C   0  0  0  0  0  0  0  0  0  0  0  0
   -1.8231   -1.5816   -3.0755 H   0  0  0  0  0  0  0  0  0  0  0  0
   -0.8555    1.1845    0.9990 C   0  0  0  0  0  0  0  0  0  0  0  0
   -1.9900    1.6348    1.1588 O   0  0  0  0  0  0  0  0  0  0  0  0
    0.2284    1.7809    1.5052 N   0  0  0  0  0  0  0  0  0  0  0  0
    1.1295    1.4017    1.2362 H   0  0  0  0  0  0  0  0  0  0  0  0
    0.2117    3.0092    2.2961 C   0  0  0  0  0  0  0  0  0  0  0  0
   -0.6793    3.0363    2.9287 H   0  0  0  0  0  0  0  0  0  0  0  0
    1.0997    3.0555    2.9280 H   0  0  0  0  0  0  0  0  0  0  0  0
    0.1967    3.8729    1.6293 H   0  0  0  0  0  0  0  0  0  0  0  0
  5  6  2  0  0  0  0
  5  7  1  0  0  0  0
  2  3  1  0  0  0  0
  2  4  1  0  0  0  0
  2  5  1  0  0  0  0
  1  2  1  0  0  0  0
 22 23  2  0  0  0  0
 22 24  1  0  0  0  0
 20 21  1  0  0  0  0
 18 19  1  0  0  0  0
 18 20  1  0  0  0  0
 16 17  1  0  0  0  0
 16 18  1  0  0  0  0
 15 16  2  0  0  0  0
 14 15  1  0  0  0  0
 14 20  2  0  0  0  0
 11 12  1  0  0  0  0
 11 13  1  0  0  0  0
 11 14  1  0  0  0  0
  9 10  1  0  0  0  0
  9 11  1  0  0  0  0
  9 22  1  0  0  0  0
  7  8  1  0  0  0  0
  7  9  1  0  0  0  0
 26 27  1  0  0  0  0
 26 28  1  0  0  0  0
 26 29  1  0  0  0  0
 24 25  1  0  0  0  0
 24 26  1  0  0  0  0
M  END
$$$$
default_name
  -OEChem-01062215323D

 29 29  0     1  0  0  0  0  0999 V2000
   -2.9561   -3.9186    1.3887 H   0  0  0  0  0  0  0  0  0  0  0  0
   -3.1191   -2.9346    0.9517 C   0  0  0  0  0  0  0  0  0  0  0  0
   -3.7811   -2.3546    1.5917 H   0  0  0  0  0  0  0  0  0  0  0  0
   -3.5591   -3.0406   -0.0383 H   0  0  0  0  0  0  0  0  0  0  0  0
   -1.7921   -2.2226    0.8327 C   0  0  0  0  0  0  0  0  0  0  0  0
   -0.7611   -2.7766    1.1927 O   0  0  0  0  0  0  0  0  0  0  0  0
   -1.8201   -0.9926    0.3247 N   0  0  0  0  0  0  0  0  0  0  0  0
   -2.7141   -0.5816    0.0927 H   0  0  0  0  0  0  0  0  0  0  0  0
   -0.6481   -0.1156    0.2017 C   0  0  1  0  0  0  0  0  0  0  0  0
    0.2104   -0.6316    0.6362 H   0  0  0  0  0  0  0  0  0  0  0  0
   -0.3494    0.1474   -1.2871 C   0  0  0  0  0  0  0  0  0  0  0  0
   -1.2350    0.5577   -1.7745 H   0  0  0  0  0  0  0  0  0  0  0  0
    0.4477    0.8864   -1.3786 H   0  0  0  0  0  0  0  0  0  0  0  0
    0.0369   -1.1037   -2.0378 C   0  0  0  0  0  0  0  0  0  0  0  0
    1.2662   -1.7591   -1.9567 N   0  0  0  0  0  0  0  0  0  0  0  0
    1.1608   -2.8405   -2.7427 C   0  0  0  0  0  0  0  0  0  0  0  0
    1.9546   -3.5582   -2.9069 H   0  0  0  0  0  0  0  0  0  0  0  0
   -0.0665   -2.9084   -3.2853 N   0  0  0  0  0  0  0  0  0  0  0  0
   -0.3969   -3.6415   -3.8980 H   0  0  0  0  0  0  0  0  0  0  0  0
   -0.7921   -1.8224   -2.8487 C   0  0  0  0  0  0  0  0  0  0  0  0
   -1.8231   -1.5816   -3.0755 H   0  0  0  0  0  0  0  0  0  0  0  0
   -0.8555    1.1845    0.9990 C   0  0  0  0  0  0  0  0  0  0  0  0
   -1.9797    1.4907    1.3966 O   0  0  0  0  0  0  0  0  0  0  0  0
    0.2193    1.9414    1.2411 N   0  0  0  0  0  0  0  0  0  0  0  0
    1.0844    1.6699    0.7873 H   0  0  0  0  0  0  0  0  0  0  0  0
    0.2047    3.1949    1.9915 C   0  0  0  0  0  0  0  0  0  0  0  0
   -0.5234    3.1373    2.8046 H   0  0  0  0  0  0  0  0  0  0  0  0
    1.1933    3.3879    2.4105 H   0  0  0  0  0  0  0  0  0  0  0  0
   -0.0731    4.0150    1.3273 H   0  0  0  0  0  0  0  0  0  0  0  0
  5  6  2  0  0  0  0
  5  7  1  0  0  0  0
  2  3  1  0  0  0  0
  2  4  1  0  0  0  0
  2  5  1  0  0  0  0
  1  2  1  0  0  0  0
 22 23  2  0  0  0  0
 22 24  1  0  0  0  0
 20 21  1  0  0  0  0
 18 19  1  0  0  0  0
 18 20  1  0  0  0  0
 16 17  1  0  0  0  0
 16 18  1  0  0  0  0
 15 16  2  0  0  0  0
 14 15  1  0  0  0  0
 14 20  2  0  0  0  0
 11 12  1  0  0  0  0
 11 13  1  0  0  0  0
 11 14  1  0  0  0  0
  9 10  1  0  0  0  0
  9 11  1  0  0  0  0
  9 22  1  0  0  0  0
  7  8  1  0  0  0  0
  7  9  1  0  0  0  0
 26 27  1  0  0  0  0
 26 28  1  0  0  0  0
 26 29  1  0  0  0  0
 24 25  1  0  0  0  0
 24 26  1  0  0  0  0
M  END
$$$$
default_name
  -OEChem-01062215323D

 29 29  0     1  0  0  0  0  0999 V2000
   -2.9561   -3.9186    1.3887 H   0  0  0  0  0  0  0  0  0  0  0  0
   -3.1191   -2.9346    0.9517 C   0  0  0  0  0  0  0  0  0  0  0  0
   -3.7811   -2.3546    1.5917 H   0  0  0  0  0  0  0  0  0  0  0  0
   -3.5591   -3.0406   -0.0383 H   0  0  0  0  0  0  0  0  0  0  0  0
   -1.7921   -2.2226    0.8327 C   0  0  0  0  0  0  0  0  0  0  0  0
   -0.7611   -2.7766    1.1927 O   0  0  0  0  0  0  0  0  0  0  0  0
   -1.8201   -0.9926    0.3247 N   0  0  0  0  0  0  0  0  0  0  0  0
   -2.7141   -0.5816    0.0927 H   0  0  0  0  0  0  0  0  0  0  0  0
   -0.6481   -0.1156    0.2017 C   0  0  1  0  0  0  0  0  0  0  0  0
    0.2463   -0.7155    0.3812 H   0  0  0  0  0  0  0  0  0  0  0  0
   -0.5698    0.4499   -1.2297 C   0  0  0  0  0  0  0  0  0  0  0  0
   -1.5031    0.9576   -1.4777 H   0  0  0  0  0  0  0  0  0  0  0  0
    0.2315    1.1875   -1.2917 H   0  0  0  0  0  0  0  0  0  0  0  0
   -0.3500   -0.6195   -2.2718 C   0  0  0  0  0  0  0  0  0  0  0  0
    0.8516   -1.2841   -2.5204 N   0  0  0  0  0  0  0  0  0  0  0  0
    0.5868   -2.1775   -3.4848 C   0  0  0  0  0  0  0  0  0  0  0  0
    1.3186   -2.8497   -3.9149 H   0  0  0  0  0  0  0  0  0  0  0  0
   -0.7105   -2.1244   -3.8305 N   0  0  0  0  0  0  0  0  0  0  0  0
   -1.1578   -2.7120   -4.5208 H   0  0  0  0  0  0  0  0  0  0  0  0
   -1.3194   -1.1491   -3.0725 C   0  0  0  0  0  0  0  0  0  0  0  0
   -2.3631   -0.8608   -3.0806 H   0  0  0  0  0  0  0  0  0  0  0  0
   -0.6823    0.9911    1.2708 C   0  0  0  0  0  0  0  0  0  0  0  0
   -1.6096    1.0384    2.0791 O   0  0  0  0  0  0  0  0  0  0  0  0
    0.3239    1.8710    1.2846 N   0  0  0  0  0  0  0  0  0  0  0  0
    0.9874    1.8226    0.5195 H   0  0  0  0  0  0  0  0  0  0  0  0
    0.4559    2.9720    2.2358 C   0  0  0  0  0  0  0  0  0  0  0  0
    0.0836    2.6671    3.2172 H   0  0  0  0  0  0  0  0  0  0  0  0
    1.5041    3.2609    2.3257 H   0  0  0  0  0  0  0  0  0  0  0  0
   -0.1264    3.8269    1.8882 H   0  0  0  0  0  0  0  0  0  0  0  0
  5  6  2  0  0  0  0
  5  7  1  0  0  0  0
  2  3  1  0  0  0  0
  2  4  1  0  0  0  0
  2  5  1  0  0  0  0
  1  2  1  0  0  0  0
 22 23  2  0  0  0  0
 22 24  1  0  0  0  0
 20 21  1  0  0  0  0
 18 19  1  0  0  0  0
 18 20  1  0  0  0  0
 16 17  1  0  0  0  0
 16 18  1  0  0  0  0
 15 16  2  0  0  0  0
 14 15  1  0  0  0  0
 14 20  2  0  0  0  0
 11 12  1  0  0  0  0
 11 13  1  0  0  0  0
 11 14  1  0  0  0  0
  9 10  1  0  0  0  0
  9 11  1  0  0  0  0
  9 22  1  0  0  0  0
  7  8  1  0  0  0  0
  7  9  1  0  0  0  0
 26 27  1  0  0  0  0
 26 28  1  0  0  0  0
 26 29  1  0  0  0  0
 24 25  1  0  0  0  0
 24 26  1  0  0  0  0
M  END
$$$$
default_name
  -OEChem-01062215323D

 29 29  0     1  0  0  0  0  0999 V2000
   -2.9561   -3.9186    1.3887 H   0  0  0  0  0  0  0  0  0  0  0  0
   -3.1191   -2.9346    0.9517 C   0  0  0  0  0  0  0  0  0  0  0  0
   -3.7811   -2.3546    1.5917 H   0  0  0  0  0  0  0  0  0  0  0  0
   -3.5591   -3.0406   -0.0383 H   0  0  0  0  0  0  0  0  0  0  0  0
   -1.7921   -2.2226    0.8327 C   0  0  0  0  0  0  0  0  0  0  0  0
   -0.7611   -2.7766    1.1927 O   0  0  0  0  0  0  0  0  0  0  0  0
   -1.8201   -0.9926    0.3247 N   0  0  0  0  0  0  0  0  0  0  0  0
   -2.7141   -0.5816    0.0927 H   0  0  0  0  0  0  0  0  0  0  0  0
   -0.6481   -0.1156    0.2017 C   0  0  1  0  0  0  0  0  0  0  0  0
    0.2463   -0.7155    0.3812 H   0  0  0  0  0  0  0  0  0  0  0  0
   -0.5698    0.4499   -1.2297 C   0  0  0  0  0  0  0  0  0  0  0  0
   -1.5031    0.9576   -1.4777 H   0  0  0  0  0  0  0  0  0  0  0  0
    0.2315    1.1875   -1.2917 H   0  0  0  0  0  0  0  0  0  0  0  0
   -0.3500   -0.6195   -2.2718 C   0  0  0  0  0  0  0  0  0  0  0  0
    0.8516   -1.2841   -2.5204 N   0  0  0  0  0  0  0  0  0  0  0  0
    0.5868   -2.1775   -3.4848 C   0  0  0  0  0  0  0  0  0  0  0  0
    1.3186   -2.8497   -3.9149 H   0  0  0  0  0  0  0  0  0  0  0  0
   -0.7105   -2.1244   -3.8305 N   0  0  0  0  0  0  0  0  0  0  0  0
   -1.1578   -2.7120   -4.5208 H   0  0  0  0  0  0  0  0  0  0  0  0
   -1.3194   -1.1491   -3.0725 C   0  0  0  0  0  0  0  0  0  0  0  0
   -2.3631   -0.8608   -3.0806 H   0  0  0  0  0  0  0  0  0  0  0  0
   -0.6823    0.9911    1.2708 C   0  0  0  0  0  0  0  0  0  0  0  0
   -1.4365    0.8898    2.2384 O   0  0  0  0  0  0  0  0  0  0  0  0
    0.1336    2.0371    1.1065 N   0  0  0  0  0  0  0  0  0  0  0  0
    0.6411    2.0911    0.2305 H   0  0  0  0  0  0  0  0  0  0  0  0
    0.2390    3.1654    2.0287 C   0  0  0  0  0  0  0  0  0  0  0  0
    0.1165    2.8211    3.0589 H   0  0  0  0  0  0  0  0  0  0  0  0
    1.2161    3.6394    1.9247 H   0  0  0  0  0  0  0  0  0  0  0  0
   -0.5422    3.8939    1.8055 H   0  0  0  0  0  0  0  0  0  0  0  0
  5  6  2  0  0  0  0
  5  7  1  0  0  0  0
  2  3  1  0  0  0  0
  2  4  1  0  0  0  0
  2  5  1  0  0  0  0
  1  2  1  0  0  0  0
 22 23  2  0  0  0  0
 22 24  1  0  0  0  0
 20 21  1  0  0  0  0
 18 19  1  0  0  0  0
 18 20  1  0  0  0  0
 16 17  1  0  0  0  0
 16 18  1  0  0  0  0
 15 16  2  0  0  0  0
 14 15  1  0  0  0  0
 14 20  2  0  0  0  0
 11 12  1  0  0  0  0
 11 13  1  0  0  0  0
 11 14  1  0  0  0  0
  9 10  1  0  0  0  0
  9 11  1  0  0  0  0
  9 22  1  0  0  0  0
  7  8  1  0  0  0  0
  7  9  1  0  0  0  0
 26 27  1  0  0  0  0
 26 28  1  0  0  0  0
 26 29  1  0  0  0  0
 24 25  1  0  0  0  0
 24 26  1  0  0  0  0
M  END
$$$$
default_name
  -OEChem-01062215323D

 29 29  0     1  0  0  0  0  0999 V2000
   -2.9561   -3.9186    1.3887 H   0  0  0  0  0  0  0  0  0  0  0  0
   -3.1191   -2.9346    0.9517 C   0  0  0  0  0  0  0  0  0  0  0  0
   -3.7811   -2.3546    1.5917 H   0  0  0  0  0  0  0  0  0  0  0  0
   -3.5591   -3.0406   -0.0383 H   0  0  0  0  0  0  0  0  0  0  0  0
   -1.7921   -2.2226    0.8327 C   0  0  0  0  0  0  0  0  0  0  0  0
   -0.7611   -2.7766    1.1927 O   0  0  0  0  0  0  0  0  0  0  0  0
   -1.8201   -0.9926    0.3247 N   0  0  0  0  0  0  0  0  0  0  0  0
   -2.7141   -0.5816    0.0927 H   0  0  0  0  0  0  0  0  0  0  0  0
   -0.6481   -0.1156    0.2017 C   0  0  1  0  0  0  0  0  0  0  0  0
    0.2463   -0.7155    0.3812 H   0  0  0  0  0  0  0  0  0  0  0  0
   -0.5698    0.4499   -1.2297 C   0  0  0  0  0  0  0  0  0  0  0  0
   -1.5031    0.9576   -1.4777 H   0  0  0  0  0  0  0  0  0  0  0  0
    0.2315    1.1875   -1.2917 H   0  0  0  0  0  0  0  0  0  0  0  0
   -0.3500   -0.6195   -2.2718 C   0  0  0  0  0  0  0  0  0  0  0  0
    0.8516   -1.2841   -2.5204 N   0  0  0  0  0  0  0  0  0  0  0  0
    0.5868   -2.1775   -3.4848 C   0  0  0  0  0  0  0  0  0  0  0  0
    1.3186   -2.8497   -3.9149 H   0  0  0  0  0  0  0  0  0  0  0  0
   -0.7105   -2.1244   -3.8305 N   0  0  0  0  0  0  0  0  0  0  0  0
   -1.1578   -2.7120   -4.5208 H   0  0  0  0  0  0  0  0  0  0  0  0
   -1.3194   -1.1491   -3.0725 C   0  0  0  0  0  0  0  0  0  0  0  0
   -2.3631   -0.8608   -3.0806 H   0  0  0  0  0  0  0  0  0  0  0  0
   -0.6823    0.9911    1.2708 C   0  0  0  0  0  0  0  0  0  0  0  0
   -1.2130    0.7783    2.3610 O   0  0  0  0  0  0  0  0  0  0  0  0
   -0.1133    2.1624    0.9690 N   0  0  0  0  0  0  0  0  0  0  0  0
    0.2046    2.2865    0.0143 H   0  0  0  0  0  0  0  0  0  0  0  0
   -0.0438    3.3120    1.8680 C   0  0  0  0  0  0  0  0  0  0  0  0
    0.0911    2.9748    2.8989 H   0  0  0  0  0  0  0  0  0  0  0  0
    0.7952    3.9510    1.5887 H   0  0  0  0  0  0  0  0  0  0  0  0
   -0.9712    3.8834    1.8027 H   0  0  0  0  0  0  0  0  0  0  0  0
  5  6  2  0  0  0  0
  5  7  1  0  0  0  0
  2  3  1  0  0  0  0
  2  4  1  0  0  0  0
  2  5  1  0  0  0  0
  1  2  1  0  0  0  0
 22 23  2  0  0  0  0
 22 24  1  0  0  0  0
 20 21  1  0  0  0  0
 18 19  1  0  0  0  0
 18 20  1  0  0  0  0
 16 17  1  0  0  0  0
 16 18  1  0  0  0  0
 15 16  2  0  0  0  0
 14 15  1  0  0  0  0
 14 20  2  0  0  0  0
 11 12  1  0  0  0  0
 11 13  1  0  0  0  0
 11 14  1  0  0  0  0
  9 10  1  0  0  0  0
  9 11  1  0  0  0  0
  9 22  1  0  0  0  0
  7  8  1  0  0  0  0
  7  9  1  0  0  0  0
 26 27  1  0  0  0  0
 26 28  1  0  0  0  0
 26 29  1  0  0  0  0
 24 25  1  0  0  0  0
 24 26  1  0  0  0  0
M  END
$$$$
default_name
  -OEChem-01062215323D

 29 29  0     1  0  0  0  0  0999 V2000
   -2.9561   -3.9186    1.3887 H   0  0  0  0  0  0  0  0  0  0  0  0
   -3.1191   -2.9346    0.9517 C   0  0  0  0  0  0  0  0  0  0  0  0
   -3.7811   -2.3546    1.5917 H   0  0  0  0  0  0  0  0  0  0  0  0
   -3.5591   -3.0406   -0.0383 H   0  0  0  0  0  0  0  0  0  0  0  0
   -1.7921   -2.2226    0.8327 C   0  0  0  0  0  0  0  0  0  0  0  0
   -0.7611   -2.7766    1.1927 O   0  0  0  0  0  0  0  0  0  0  0  0
   -1.8201   -0.9926    0.3247 N   0  0  0  0  0  0  0  0  0  0  0  0
   -2.7141   -0.5816    0.0927 H   0  0  0  0  0  0  0  0  0  0  0  0
   -0.6481   -0.1156    0.2017 C   0  0  1  0  0  0  0  0  0  0  0  0
    0.2463   -0.7155    0.3812 H   0  0  0  0  0  0  0  0  0  0  0  0
   -0.5698    0.4499   -1.2297 C   0  0  0  0  0  0  0  0  0  0  0  0
   -1.5031    0.9576   -1.4777 H   0  0  0  0  0  0  0  0  0  0  0  0
    0.2315    1.1875   -1.2917 H   0  0  0  0  0  0  0  0  0  0  0  0
   -0.3500   -0.6195   -2.2718 C   0  0  0  0  0  0  0  0  0  0  0  0
    0.8516   -1.2841   -2.5204 N   0  0  0  0  0  0  0  0  0  0  0  0
    0.5868   -2.1775   -3.4848 C   0  0  0  0  0  0  0  0  0  0  0  0
    1.3186   -2.8497   -3.9149 H   0  0  0  0  0  0  0  0  0  0  0  0
   -0.7105   -2.1244   -3.8305 N   0  0  0  0  0  0  0  0  0  0  0  0
   -1.1578   -2.7120   -4.5208 H   0  0  0  0  0  0  0  0  0  0  0  0
   -1.3194   -1.1491   -3.0725 C   0  0  0  0  0  0  0  0  0  0  0  0
   -2.3631   -0.8608   -3.0806 H   0  0  0  0  0  0  0  0  0  0  0  0
   -0.6823    0.9911    1.2708 C   0  0  0  0  0  0  0  0  0  0  0  0
   -0.9542    0.7115    2.4384 O   0  0  0  0  0  0  0  0  0  0  0  0
   -0.4000    2.2383    0.8813 N   0  0  0  0  0  0  0  0  0  0  0  0
   -0.2923    2.3956   -0.1145 H   0  0  0  0  0  0  0  0  0  0  0  0
   -0.3732    3.4019    1.7644 C   0  0  0  0  0  0  0  0  0  0  0  0
    0.0091    3.1179    2.7482 H   0  0  0  0  0  0  0  0  0  0  0  0
    0.2701    4.1743    1.3408 H   0  0  0  0  0  0  0  0  0  0  0  0
   -1.3842    3.7961    1.8798 H   0  0  0  0  0  0  0  0  0  0  0  0
  5  6  2  0  0  0  0
  5  7  1  0  0  0  0
  2  3  1  0  0  0  0
  2  4  1  0  0  0  0
  2  5  1  0  0  0  0
  1  2  1  0  0  0  0
 22 23  2  0  0  0  0
 22 24  1  0  0  0  0
 20 21  1  0  0  0  0
 18 19  1  0  0  0  0
 18 20  1  0  0  0  0
 16 17  1  0  0  0  0
 16 18  1  0  0  0  0
 15 16  2  0  0  0  0
 14 15  1  0  0  0  0
 14 20  2  0  0  0  0
 11 12  1  0  0  0  0
 11 13  1  0  0  0  0
 11 14  1  0  0  0  0
  9 10  1  0  0  0  0
  9 11  1  0  0  0  0
  9 22  1  0  0  0  0
  7  8  1  0  0  0  0
  7  9  1  0  0  0  0
 26 27  1  0  0  0  0
 26 28  1  0  0  0  0
 26 29  1  0  0  0  0
 24 25  1  0  0  0  0
 24 26  1  0  0  0  0
M  END
$$$$
default_name
  -OEChem-01062215323D

 29 29  0     1  0  0  0  0  0999 V2000
   -2.9561   -3.9186    1.3887 H   0  0  0  0  0  0  0  0  0  0  0  0
   -3.1191   -2.9346    0.9517 C   0  0  0  0  0  0  0  0  0  0  0  0
   -3.7811   -2.3546    1.5917 H   0  0  0  0  0  0  0  0  0  0  0  0
   -3.5591   -3.0406   -0.0383 H   0  0  0  0  0  0  0  0  0  0  0  0
   -1.7921   -2.2226    0.8327 C   0  0  0  0  0  0  0  0  0  0  0  0
   -0.7611   -2.7766    1.1927 O   0  0  0  0  0  0  0  0  0  0  0  0
   -1.8201   -0.9926    0.3247 N   0  0  0  0  0  0  0  0  0  0  0  0
   -2.7141   -0.5816    0.0927 H   0  0  0  0  0  0  0  0  0  0  0  0
   -0.6481   -0.1156    0.2017 C   0  0  1  0  0  0  0  0  0  0  0  0
    0.2463   -0.7155    0.3812 H   0  0  0  0  0  0  0  0  0  0  0  0
   -0.5698    0.4499   -1.2297 C   0  0  0  0  0  0  0  0  0  0  0  0
   -1.5031    0.9576   -1.4777 H   0  0  0  0  0  0  0  0  0  0  0  0
    0.2315    1.1875   -1.2917 H   0  0  0  0  0  0  0  0  0  0  0  0
   -0.3500   -0.6195   -2.2718 C   0  0  0  0  0  0  0  0  0  0  0  0
    0.8516   -1.2841   -2.5204 N   0  0  0  0  0  0  0  0  0  0  0  0
    0.5868   -2.1775   -3.4848 C   0  0  0  0  0  0  0  0  0  0  0  0
    1.3186   -2.8497   -3.9149 H   0  0  0  0  0  0  0  0  0  0  0  0
   -0.7105   -2.1244   -3.8305 N   0  0  0  0  0  0  0  0  0  0  0  0
   -1.1578   -2.7120   -4.5208 H   0  0  0  0  0  0  0  0  0  0  0  0
   -1.3194   -1.1491   -3.0725 C   0  0  0  0  0  0  0  0  0  0  0  0
   -2.3631   -0.8608   -3.0806 H   0  0  0  0  0  0  0  0  0  0  0  0
   -0.6823    0.9911    1.2708 C   0  0  0  0  0  0  0  0  0  0  0  0
   -0.6779    0.6939    2.4654 O   0  0  0  0  0  0  0  0  0  0  0  0
   -0.7067    2.2595    0.8496 N   0  0  0  0  0  0  0  0  0  0  0  0
   -0.8160    2.4108   -0.1470 H   0  0  0  0  0  0  0  0  0  0  0  0
   -0.7269    3.4288    1.7252 C   0  0  0  0  0  0  0  0  0  0  0  0
   -0.1238    3.2404    2.6171 H   0  0  0  0  0  0  0  0  0  0  0  0
   -0.3234    4.2942    1.1977 H   0  0  0  0  0  0  0  0  0  0  0  0
   -1.7531    3.6380    2.0317 H   0  0  0  0  0  0  0  0  0  0  0  0
  5  6  2  0  0  0  0
  5  7  1  0  0  0  0
  2  3  1  0  0  0  0
  2  4  1  0  0  0  0
  2  5  1  0  0  0  0
  1  2  1  0  0  0  0
 22 23  2  0  0  0  0
 22 24  1  0  0  0  0
 20 21  1  0  0  0  0
 18 19  1  0  0  0  0
 18 20  1  0  0  0  0
 16 17  1  0  0  0  0
 16 18  1  0  0  0  0
 15 16  2  0  0  0  0
 14 15  1  0  0  0  0
 14 20  2  0  0  0  0
 11 12  1  0  0  0  0
 11 13  1  0  0  0  0
 11 14  1  0  0  0  0
  9 10  1  0  0  0  0
  9 11  1  0  0  0  0
  9 22  1  0  0  0  0
  7  8  1  0  0  0  0
  7  9  1  0  0  0  0
 26 27  1  0  0  0  0
 26 28  1  0  0  0  0
 26 29  1  0  0  0  0
 24 25  1  0  0  0  0
 24 26  1  0  0  0  0
M  END
$$$$
default_name
  -OEChem-01062215323D

 29 29  0     1  0  0  0  0  0999 V2000
   -2.9561   -3.9186    1.3887 H   0  0  0  0  0  0  0  0  0  0  0  0
   -3.1191   -2.9346    0.9517 C   0  0  0  0  0  0  0  0  0  0  0  0
   -3.7811   -2.3546    1.5917 H   0  0  0  0  0  0  0  0  0  0  0  0
   -3.5591   -3.0406   -0.0383 H   0  0  0  0  0  0  0  0  0  0  0  0
   -1.7921   -2.2226    0.8327 C   0  0  0  0  0  0  0  0  0  0  0  0
   -0.7611   -2.7766    1.1927 O   0  0  0  0  0  0  0  0  0  0  0  0
   -1.8201   -0.9926    0.3247 N   0  0  0  0  0  0  0  0  0  0  0  0
   -2.7141   -0.5816    0.0927 H   0  0  0  0  0  0  0  0  0  0  0  0
   -0.6481   -0.1156    0.2017 C   0  0  1  0  0  0  0  0  0  0  0  0
    0.2463   -0.7155    0.3812 H   0  0  0  0  0  0  0  0  0  0  0  0
   -0.5698    0.4499   -1.2297 C   0  0  0  0  0  0  0  0  0  0  0  0
   -1.5031    0.9576   -1.4777 H   0  0  0  0  0  0  0  0  0  0  0  0
    0.2315    1.1875   -1.2917 H   0  0  0  0  0  0  0  0  0  0  0  0
   -0.3500   -0.6195   -2.2718 C   0  0  0  0  0  0  0  0  0  0  0  0
    0.8516   -1.2841   -2.5204 N   0  0  0  0  0  0  0  0  0  0  0  0
    0.5868   -2.1775   -3.4848 C   0  0  0  0  0  0  0  0  0  0  0  0
    1.3186   -2.8497   -3.9149 H   0  0  0  0  0  0  0  0  0  0  0  0
   -0.7105   -2.1244   -3.8305 N   0  0  0  0  0  0  0  0  0  0  0  0
   -1.1578   -2.7120   -4.5208 H   0  0  0  0  0  0  0  0  0  0  0  0
   -1.3194   -1.1491   -3.0725 C   0  0  0  0  0  0  0  0  0  0  0  0
   -2.3631   -0.8608   -3.0806 H   0  0  0  0  0  0  0  0  0  0  0  0
   -0.6823    0.9911    1.2708 C   0  0  0  0  0  0  0  0  0  0  0  0
   -0.4028    0.7268    2.4402 O   0  0  0  0  0  0  0  0  0  0  0  0
   -1.0128    2.2246    0.8758 N   0  0  0  0  0  0  0  0  0  0  0  0
   -1.3305    2.3312   -0.0811 H   0  0  0  0  0  0  0  0  0  0  0  0
   -1.0806    3.3910    1.7530 C   0  0  0  0  0  0  0  0  0  0  0  0
   -0.2986    3.3342    2.5145 H   0  0  0  0  0  0  0  0  0  0  0  0
   -0.9448    4.3025    1.1692 H   0  0  0  0  0  0  0  0  0  0  0  0
   -2.0527    3.4198    2.2480 H   0  0  0  0  0  0  0  0  0  0  0  0
  5  6  2  0  0  0  0
  5  7  1  0  0  0  0
  2  3  1  0  0  0  0
  2  4  1  0  0  0  0
  2  5  1  0  0  0  0
  1  2  1  0  0  0  0
 22 23  2  0  0  0  0
 22 24  1  0  0  0  0
 20 21  1  0  0  0  0
 18 19  1  0  0  0  0
 18 20  1  0  0  0  0
 16 17  1  0  0  0  0
 16 18  1  0  0  0  0
 15 16  2  0  0  0  0
 14 15  1  0  0  0  0
 14 20  2  0  0  0  0
 11 12  1  0  0  0  0
 11 13  1  0  0  0  0
 11 14  1  0  0  0  0
  9 10  1  0  0  0  0
  9 11  1  0  0  0  0
  9 22  1  0  0  0  0
  7  8  1  0  0  0  0
  7  9  1  0  0  0  0
 26 27  1  0  0  0  0
 26 28  1  0  0  0  0
 26 29  1  0  0  0  0
 24 25  1  0  0  0  0
 24 26  1  0  0  0  0
M  END
$$$$
default_name
  -OEChem-01062215323D

 29 29  0     1  0  0  0  0  0999 V2000
   -2.9561   -3.9186    1.3887 H   0  0  0  0  0  0  0  0  0  0  0  0
   -3.1191   -2.9346    0.9517 C   0  0  0  0  0  0  0  0  0  0  0  0
   -3.7811   -2.3546    1.5917 H   0  0  0  0  0  0  0  0  0  0  0  0
   -3.5591   -3.0406   -0.0383 H   0  0  0  0  0  0  0  0  0  0  0  0
   -1.7921   -2.2226    0.8327 C   0  0  0  0  0  0  0  0  0  0  0  0
   -0.7611   -2.7766    1.1927 O   0  0  0  0  0  0  0  0  0  0  0  0
   -1.8201   -0.9926    0.3247 N   0  0  0  0  0  0  0  0  0  0  0  0
   -2.7141   -0.5816    0.0927 H   0  0  0  0  0  0  0  0  0  0  0  0
   -0.6481   -0.1156    0.2017 C   0  0  1  0  0  0  0  0  0  0  0  0
    0.2463   -0.7155    0.3812 H   0  0  0  0  0  0  0  0  0  0  0  0
   -0.5698    0.4499   -1.2297 C   0  0  0  0  0  0  0  0  0  0  0  0
   -1.5031    0.9576   -1.4777 H   0  0  0  0  0  0  0  0  0  0  0  0
    0.2315    1.1875   -1.2917 H   0  0  0  0  0  0  0  0  0  0  0  0
   -0.3500   -0.6195   -2.2718 C   0  0  0  0  0  0  0  0  0  0  0  0
    0.8516   -1.2841   -2.5204 N   0  0  0  0  0  0  0  0  0  0  0  0
    0.5868   -2.1775   -3.4848 C   0  0  0  0  0  0  0  0  0  0  0  0
    1.3186   -2.8497   -3.9149 H   0  0  0  0  0  0  0  0  0  0  0  0
   -0.7105   -2.1244   -3.8305 N   0  0  0  0  0  0  0  0  0  0  0  0
   -1.1578   -2.7120   -4.5208 H   0  0  0  0  0  0  0  0  0  0  0  0
   -1.3194   -1.1491   -3.0725 C   0  0  0  0  0  0  0  0  0  0  0  0
   -2.3631   -0.8608   -3.0806 H   0  0  0  0  0  0  0  0  0  0  0  0
   -0.6823    0.9911    1.2708 C   0  0  0  0  0  0  0  0  0  0  0  0
   -0.1476    0.8079    2.3644 O   0  0  0  0  0  0  0  0  0  0  0  0
   -1.2973    2.1361    0.9584 N   0  0  0  0  0  0  0  0  0  0  0  0
   -1.8010    2.1622    0.0789 H   0  0  0  0  0  0  0  0  0  0  0  0
   -1.4104    3.2911    1.8459 C   0  0  0  0  0  0  0  0  0  0  0  0
   -0.5034    3.3927    2.4474 H   0  0  0  0  0  0  0  0  0  0  0  0
   -1.5519    4.1987    1.2573 H   0  0  0  0  0  0  0  0  0  0  0  0
   -2.2627    3.1565    2.5139 H   0  0  0  0  0  0  0  0  0  0  0  0
  5  6  2  0  0  0  0
  5  7  1  0  0  0  0
  2  3  1  0  0  0  0
  2  4  1  0  0  0  0
  2  5  1  0  0  0  0
  1  2  1  0  0  0  0
 22 23  2  0  0  0  0
 22 24  1  0  0  0  0
 20 21  1  0  0  0  0
 18 19  1  0  0  0  0
 18 20  1  0  0  0  0
 16 17  1  0  0  0  0
 16 18  1  0  0  0  0
 15 16  2  0  0  0  0
 14 15  1  0  0  0  0
 14 20  2  0  0  0  0
 11 12  1  0  0  0  0
 11 13  1  0  0  0  0
 11 14  1  0  0  0  0
  9 10  1  0  0  0  0
  9 11  1  0  0  0  0
  9 22  1  0  0  0  0
  7  8  1  0  0  0  0
  7  9  1  0  0  0  0
 26 27  1  0  0  0  0
 26 28  1  0  0  0  0
 26 29  1  0  0  0  0
 24 25  1  0  0  0  0
 24 26  1  0  0  0  0
M  END
$$$$
default_name
  -OEChem-01062215323D

 29 29  0     1  0  0  0  0  0999 V2000
   -2.9561   -3.9186    1.3887 H   0  0  0  0  0  0  0  0  0  0  0  0
   -3.1191   -2.9346    0.9517 C   0  0  0  0  0  0  0  0  0  0  0  0
   -3.7811   -2.3546    1.5917 H   0  0  0  0  0  0  0  0  0  0  0  0
   -3.5591   -3.0406   -0.0383 H   0  0  0  0  0  0  0  0  0  0  0  0
   -1.7921   -2.2226    0.8327 C   0  0  0  0  0  0  0  0  0  0  0  0
   -0.7611   -2.7766    1.1927 O   0  0  0  0  0  0  0  0  0  0  0  0
   -1.8201   -0.9926    0.3247 N   0  0  0  0  0  0  0  0  0  0  0  0
   -2.7141   -0.5816    0.0927 H   0  0  0  0  0  0  0  0  0  0  0  0
   -0.6481   -0.1156    0.2017 C   0  0  1  0  0  0  0  0  0  0  0  0
    0.2463   -0.7155    0.3812 H   0  0  0  0  0  0  0  0  0  0  0  0
   -0.5698    0.4499   -1.2297 C   0  0  0  0  0  0  0  0  0  0  0  0
   -1.5031    0.9576   -1.4777 H   0  0  0  0  0  0  0  0  0  0  0  0
    0.2315    1.1875   -1.2917 H   0  0  0  0  0  0  0  0  0  0  0  0
   -0.3500   -0.6195   -2.2718 C   0  0  0  0  0  0  0  0  0  0  0  0
    0.8516   -1.2841   -2.5204 N   0  0  0  0  0  0  0  0  0  0  0  0
    0.5868   -2.1775   -3.4848 C   0  0  0  0  0  0  0  0  0  0  0  0
    1.3186   -2.8497   -3.9149 H   0  0  0  0  0  0  0  0  0  0  0  0
   -0.7105   -2.1244   -3.8305 N   0  0  0  0  0  0  0  0  0  0  0  0
   -1.1578   -2.7120   -4.5208 H   0  0  0  0  0  0  0  0  0  0  0  0
   -1.3194   -1.1491   -3.0725 C   0  0  0  0  0  0  0  0  0  0  0  0
   -2.3631   -0.8608   -3.0806 H   0  0  0  0  0  0  0  0  0  0  0  0
   -0.6823    0.9911    1.2708 C   0  0  0  0  0  0  0  0  0  0  0  0
    0.0702    0.9316    2.2433 O   0  0  0  0  0  0  0  0  0  0  0  0
   -1.5408    1.9999    1.0916 N   0  0  0  0  0  0  0  0  0  0  0  0
   -2.1953    1.9153    0.3219 H   0  0  0  0  0  0  0  0  0  0  0  0
   -1.6936    3.1359    1.9976 C   0  0  0  0  0  0  0  0  0  0  0  0
   -0.7242    3.4120    2.4203 H   0  0  0  0  0  0  0  0  0  0  0  0
   -2.1032    3.9897    1.4560 H   0  0  0  0  0  0  0  0  0  0  0  0
   -2.3687    2.8659    2.8113 H   0  0  0  0  0  0  0  0  0  0  0  0
  5  6  2  0  0  0  0
  5  7  1  0  0  0  0
  2  3  1  0  0  0  0
  2  4  1  0  0  0  0
  2  5  1  0  0  0  0
  1  2  1  0  0  0  0
 22 23  2  0  0  0  0
 22 24  1  0  0  0  0
 20 21  1  0  0  0  0
 18 19  1  0  0  0  0
 18 20  1  0  0  0  0
 16 17  1  0  0  0  0
 16 18  1  0  0  0  0
 15 16  2  0  0  0  0
 14 15  1  0  0  0  0
 14 20  2  0  0  0  0
 11 12  1  0  0  0  0
 11 13  1  0  0  0  0
 11 14  1  0  0  0  0
  9 10  1  0  0  0  0
  9 11  1  0  0  0  0
  9 22  1  0  0  0  0
  7  8  1  0  0  0  0
  7  9  1  0  0  0  0
 26 27  1  0  0  0  0
 26 28  1  0  0  0  0
 26 29  1  0  0  0  0
 24 25  1  0  0  0  0
 24 26  1  0  0  0  0
M  END
$$$$
default_name
  -OEChem-01062215323D

 29 29  0     1  0  0  0  0  0999 V2000
   -2.9561   -3.9186    1.3887 H   0  0  0  0  0  0  0  0  0  0  0  0
   -3.1191   -2.9346    0.9517 C   0  0  0  0  0  0  0  0  0  0  0  0
   -3.7811   -2.3546    1.5917 H   0  0  0  0  0  0  0  0  0  0  0  0
   -3.5591   -3.0406   -0.0383 H   0  0  0  0  0  0  0  0  0  0  0  0
   -1.7921   -2.2226    0.8327 C   0  0  0  0  0  0  0  0  0  0  0  0
   -0.7611   -2.7766    1.1927 O   0  0  0  0  0  0  0  0  0  0  0  0
   -1.8201   -0.9926    0.3247 N   0  0  0  0  0  0  0  0  0  0  0  0
   -2.7141   -0.5816    0.0927 H   0  0  0  0  0  0  0  0  0  0  0  0
   -0.6481   -0.1156    0.2017 C   0  0  1  0  0  0  0  0  0  0  0  0
    0.2463   -0.7155    0.3812 H   0  0  0  0  0  0  0  0  0  0  0  0
   -0.5698    0.4499   -1.2297 C   0  0  0  0  0  0  0  0  0  0  0  0
   -1.5031    0.9576   -1.4777 H   0  0  0  0  0  0  0  0  0  0  0  0
    0.2315    1.1875   -1.2917 H   0  0  0  0  0  0  0  0  0  0  0  0
   -0.3500   -0.6195   -2.2718 C   0  0  0  0  0  0  0  0  0  0  0  0
    0.8516   -1.2841   -2.5204 N   0  0  0  0  0  0  0  0  0  0  0  0
    0.5868   -2.1775   -3.4848 C   0  0  0  0  0  0  0  0  0  0  0  0
    1.3186   -2.8497   -3.9149 H   0  0  0  0  0  0  0  0  0  0  0  0
   -0.7105   -2.1244   -3.8305 N   0  0  0  0  0  0  0  0  0  0  0  0
   -1.1578   -2.7120   -4.5208 H   0  0  0  0  0  0  0  0  0  0  0  0
   -1.3194   -1.1491   -3.0725 C   0  0  0  0  0  0  0  0  0  0  0  0
   -2.3631   -0.8608   -3.0806 H   0  0  0  0  0  0  0  0  0  0  0  0
   -0.6823    0.9911    1.2708 C   0  0  0  0  0  0  0  0  0  0  0  0
    0.2357    1.0896    2.0850 O   0  0  0  0  0  0  0  0  0  0  0  0
   -1.7267    1.8253    1.2663 N   0  0  0  0  0  0  0  0  0  0  0  0
   -2.4865    1.6073    0.6314 H   0  0  0  0  0  0  0  0  0  0  0  0
   -1.9111    2.9358    2.1977 C   0  0  0  0  0  0  0  0  0  0  0  0
   -0.9460    3.3908    2.4352 H   0  0  0  0  0  0  0  0  0  0  0  0
   -2.5611    3.6899    1.7517 H   0  0  0  0  0  0  0  0  0  0  0  0
   -2.3635    2.5678    3.1200 H   0  0  0  0  0  0  0  0  0  0  0  0
  5  6  2  0  0  0  0
  5  7  1  0  0  0  0
  2  3  1  0  0  0  0
  2  4  1  0  0  0  0
  2  5  1  0  0  0  0
  1  2  1  0  0  0  0
 22 23  2  0  0  0  0
 22 24  1  0  0  0  0
 20 21  1  0  0  0  0
 18 19  1  0  0  0  0
 18 20  1  0  0  0  0
 16 17  1  0  0  0  0
 16 18  1  0  0  0  0
 15 16  2  0  0  0  0
 14 15  1  0  0  0  0
 14 20  2  0  0  0  0
 11 12  1  0  0  0  0
 11 13  1  0  0  0  0
 11 14  1  0  0  0  0
  9 10  1  0  0  0  0
  9 11  1  0  0  0  0
  9 22  1  0  0  0  0
  7  8  1  0  0  0  0
  7  9  1  0  0  0  0
 26 27  1  0  0  0  0
 26 28  1  0  0  0  0
 26 29  1  0  0  0  0
 24 25  1  0  0  0  0
 24 26  1  0  0  0  0
M  END
$$$$
default_name
  -OEChem-01062215323D

 29 29  0     1  0  0  0  0  0999 V2000
   -2.9561   -3.9186    1.3887 H   0  0  0  0  0  0  0  0  0  0  0  0
   -3.1191   -2.9346    0.9517 C   0  0  0  0  0  0  0  0  0  0  0  0
   -3.7811   -2.3546    1.5917 H   0  0  0  0  0  0  0  0  0  0  0  0
   -3.5591   -3.0406   -0.0383 H   0  0  0  0  0  0  0  0  0  0  0  0
   -1.7921   -2.2226    0.8327 C   0  0  0  0  0  0  0  0  0  0  0  0
   -0.7611   -2.7766    1.1927 O   0  0  0  0  0  0  0  0  0  0  0  0
   -1.8201   -0.9926    0.3247 N   0  0  0  0  0  0  0  0  0  0  0  0
   -2.7141   -0.5816    0.0927 H   0  0  0  0  0  0  0  0  0  0  0  0
   -0.6481   -0.1156    0.2017 C   0  0  1  0  0  0  0  0  0  0  0  0
    0.2463   -0.7155    0.3812 H   0  0  0  0  0  0  0  0  0  0  0  0
   -0.5698    0.4499   -1.2297 C   0  0  0  0  0  0  0  0  0  0  0  0
   -1.5031    0.9576   -1.4777 H   0  0  0  0  0  0  0  0  0  0  0  0
    0.2315    1.1875   -1.2917 H   0  0  0  0  0  0  0  0  0  0  0  0
   -0.3500   -0.6195   -2.2718 C   0  0  0  0  0  0  0  0  0  0  0  0
    0.8516   -1.2841   -2.5204 N   0  0  0  0  0  0  0  0  0  0  0  0
    0.5868   -2.1775   -3.4848 C   0  0  0  0  0  0  0  0  0  0  0  0
    1.3186   -2.8497   -3.9149 H   0  0  0  0  0  0  0  0  0  0  0  0
   -0.7105   -2.1244   -3.8305 N   0  0  0  0  0  0  0  0  0  0  0  0
   -1.1578   -2.7120   -4.5208 H   0  0  0  0  0  0  0  0  0  0  0  0
   -1.3194   -1.1491   -3.0725 C   0  0  0  0  0  0  0  0  0  0  0  0
   -2.3631   -0.8608   -3.0806 H   0  0  0  0  0  0  0  0  0  0  0  0
   -0.6823    0.9911    1.2708 C   0  0  0  0  0  0  0  0  0  0  0  0
    0.3378    1.2710    1.9005 O   0  0  0  0  0  0  0  0  0  0  0  0
   -1.8424    1.6243    1.4707 N   0  0  0  0  0  0  0  0  0  0  0  0
   -2.6548    1.2592    0.9863 H   0  0  0  0  0  0  0  0  0  0  0  0
   -2.0479    2.7047    2.4326 C   0  0  0  0  0  0  0  0  0  0  0  0
   -1.1537    3.3306    2.4909 H   0  0  0  0  0  0  0  0  0  0  0  0
   -2.8946    3.3197    2.1243 H   0  0  0  0  0  0  0  0  0  0  0  0
   -2.2474    2.2826    3.4189 H   0  0  0  0  0  0  0  0  0  0  0  0
  5  6  2  0  0  0  0
  5  7  1  0  0  0  0
  2  3  1  0  0  0  0
  2  4  1  0  0  0  0
  2  5  1  0  0  0  0
  1  2  1  0  0  0  0
 22 23  2  0  0  0  0
 22 24  1  0  0  0  0
 20 21  1  0  0  0  0
 18 19  1  0  0  0  0
 18 20  1  0  0  0  0
 16 17  1  0  0  0  0
 16 18  1  0  0  0  0
 15 16  2  0  0  0  0
 14 15  1  0  0  0  0
 14 20  2  0  0  0  0
 11 12  1  0  0  0  0
 11 13  1  0  0  0  0
 11 14  1  0  0  0  0
  9 10  1  0  0  0  0
  9 11  1  0  0  0  0
  9 22  1  0  0  0  0
  7  8  1  0  0  0  0
  7  9  1  0  0  0  0
 26 27  1  0  0  0  0
 26 28  1  0  0  0  0
 26 29  1  0  0  0  0
 24 25  1  0  0  0  0
 24 26  1  0  0  0  0
M  END
$$$$
default_name
  -OEChem-01062215323D

 29 29  0     1  0  0  0  0  0999 V2000
   -2.9561   -3.9186    1.3887 H   0  0  0  0  0  0  0  0  0  0  0  0
   -3.1191   -2.9346    0.9517 C   0  0  0  0  0  0  0  0  0  0  0  0
   -3.7811   -2.3546    1.5917 H   0  0  0  0  0  0  0  0  0  0  0  0
   -3.5591   -3.0406   -0.0383 H   0  0  0  0  0  0  0  0  0  0  0  0
   -1.7921   -2.2226    0.8327 C   0  0  0  0  0  0  0  0  0  0  0  0
   -0.7611   -2.7766    1.1927 O   0  0  0  0  0  0  0  0  0  0  0  0
   -1.8201   -0.9926    0.3247 N   0  0  0  0  0  0  0  0  0  0  0  0
   -2.7141   -0.5816    0.0927 H   0  0  0  0  0  0  0  0  0  0  0  0
   -0.6481   -0.1156    0.2017 C   0  0  1  0  0  0  0  0  0  0  0  0
    0.2463   -0.7155    0.3812 H   0  0  0  0  0  0  0  0  0  0  0  0
   -0.5698    0.4499   -1.2297 C   0  0  0  0  0  0  0  0  0  0  0  0
   -1.5031    0.9576   -1.4777 H   0  0  0  0  0  0  0  0  0  0  0  0
    0.2315    1.1875   -1.2917 H   0  0  0  0  0  0  0  0  0  0  0  0
   -0.3500   -0.6195   -2.2718 C   0  0  0  0  0  0  0  0  0  0  0  0
    0.8516   -1.2841   -2.5204 N   0  0  0  0  0  0  0  0  0  0  0  0
    0.5868   -2.1775   -3.4848 C   0  0  0  0  0  0  0  0  0  0  0  0
    1.3186   -2.8497   -3.9149 H   0  0  0  0  0  0  0  0  0  0  0  0
   -0.7105   -2.1244   -3.8305 N   0  0  0  0  0  0  0  0  0  0  0  0
   -1.1578   -2.7120   -4.5208 H   0  0  0  0  0  0  0  0  0  0  0  0
   -1.3194   -1.1491   -3.0725 C   0  0  0  0  0  0  0  0  0  0  0  0
   -2.3631   -0.8608   -3.0806 H   0  0  0  0  0  0  0  0  0  0  0  0
   -0.6823    0.9911    1.2708 C   0  0  0  0  0  0  0  0  0  0  0  0
    0.3694    1.4636    1.7022 O   0  0  0  0  0  0  0  0  0  0  0  0
   -1.8800    1.4105    1.6909 N   0  0  0  0  0  0  0  0  0  0  0  0
   -2.6888    0.8948    1.3624 H   0  0  0  0  0  0  0  0  0  0  0  0
   -2.0948    2.4582    2.6863 C   0  0  0  0  0  0  0  0  0  0  0  0
   -1.3331    3.2353    2.5837 H   0  0  0  0  0  0  0  0  0  0  0  0
   -3.0808    2.9042    2.5484 H   0  0  0  0  0  0  0  0  0  0  0  0
   -2.0283    2.0297    3.6877 H   0  0  0  0  0  0  0  0  0  0  0  0
  5  6  2  0  0  0  0
  5  7  1  0  0  0  0
  2  3  1  0  0  0  0
  2  4  1  0  0  0  0
  2  5  1  0  0  0  0
  1  2  1  0  0  0  0
 22 23  2  0  0  0  0
 22 24  1  0  0  0  0
 20 21  1  0  0  0  0
 18 19  1  0  0  0  0
 18 20  1  0  0  0  0
 16 17  1  0  0  0  0
 16 18  1  0  0  0  0
 15 16  2  0  0  0  0
 14 15  1  0  0  0  0
 14 20  2  0  0  0  0
 11 12  1  0  0  0  0
 11 13  1  0  0  0  0
 11 14  1  0  0  0  0
  9 10  1  0  0  0  0
  9 11  1  0  0  0  0
  9 22  1  0  0  0  0
  7  8  1  0  0  0  0
  7  9  1  0  0  0  0
 26 27  1  0  0  0  0
 26 28  1  0  0  0  0
 26 29  1  0  0  0  0
 24 25  1  0  0  0  0
 24 26  1  0  0  0  0
M  END
$$$$
default_name
  -OEChem-01062215323D

 29 29  0     1  0  0  0  0  0999 V2000
   -2.9561   -3.9186    1.3887 H   0  0  0  0  0  0  0  0  0  0  0  0
   -3.1191   -2.9346    0.9517 C   0  0  0  0  0  0  0  0  0  0  0  0
   -3.7811   -2.3546    1.5917 H   0  0  0  0  0  0  0  0  0  0  0  0
   -3.5591   -3.0406   -0.0383 H   0  0  0  0  0  0  0  0  0  0  0  0
   -1.7921   -2.2226    0.8327 C   0  0  0  0  0  0  0  0  0  0  0  0
   -0.7611   -2.7766    1.1927 O   0  0  0  0  0  0  0  0  0  0  0  0
   -1.8201   -0.9926    0.3247 N   0  0  0  0  0  0  0  0  0  0  0  0
   -2.7141   -0.5816    0.0927 H   0  0  0  0  0  0  0  0  0  0  0  0
   -0.6481   -0.1156    0.2017 C   0  0  1  0  0  0  0  0  0  0  0  0
    0.2463   -0.7155    0.3812 H   0  0  0  0  0  0  0  0  0  0  0  0
   -0.5698    0.4499   -1.2297 C   0  0  0  0  0  0  0  0  0  0  0  0
   -1.5031    0.9576   -1.4777 H   0  0  0  0  0  0  0  0  0  0  0  0
    0.2315    1.1875   -1.2917 H   0  0  0  0  0  0  0  0  0  0  0  0
   -0.3500   -0.6195   -2.2718 C   0  0  0  0  0  0  0  0  0  0  0  0
    0.8516   -1.2841   -2.5204 N   0  0  0  0  0  0  0  0  0  0  0  0
    0.5868   -2.1775   -3.4848 C   0  0  0  0  0  0  0  0  0  0  0  0
    1.3186   -2.8497   -3.9149 H   0  0  0  0  0  0  0  0  0  0  0  0
   -0.7105   -2.1244   -3.8305 N   0  0  0  0  0  0  0  0  0  0  0  0
   -1.1578   -2.7120   -4.5208 H   0  0  0  0  0  0  0  0  0  0  0  0
   -1.3194   -1.1491   -3.0725 C   0  0  0  0  0  0  0  0  0  0  0  0
   -2.3631   -0.8608   -3.0806 H   0  0  0  0  0  0  0  0  0  0  0  0
   -0.6823    0.9911    1.2708 C   0  0  0  0  0  0  0  0  0  0  0  0
    0.3284    1.6542    1.5036 O   0  0  0  0  0  0  0  0  0  0  0  0
   -1.8369    1.1985    1.9117 N   0  0  0  0  0  0  0  0  0  0  0  0
   -2.5861    0.5388    1.7342 H   0  0  0  0  0  0  0  0  0  0  0  0
   -2.0486    2.2131    2.9415 C   0  0  0  0  0  0  0  0  0  0  0  0
   -1.4720    3.1116    2.7073 H   0  0  0  0  0  0  0  0  0  0  0  0
   -3.1070    2.4719    2.9950 H   0  0  0  0  0  0  0  0  0  0  0  0
   -1.7213    1.8264    3.9080 H   0  0  0  0  0  0  0  0  0  0  0  0
  5  6  2  0  0  0  0
  5  7  1  0  0  0  0
  2  3  1  0  0  0  0
  2  4  1  0  0  0  0
  2  5  1  0  0  0  0
  1  2  1  0  0  0  0
 22 23  2  0  0  0  0
 22 24  1  0  0  0  0
 20 21  1  0  0  0  0
 18 19  1  0  0  0  0
 18 20  1  0  0  0  0
 16 17  1  0  0  0  0
 16 18  1  0  0  0  0
 15 16  2  0  0  0  0
 14 15  1  0  0  0  0
 14 20  2  0  0  0  0
 11 12  1  0  0  0  0
 11 13  1  0  0  0  0
 11 14  1  0  0  0  0
  9 10  1  0  0  0  0
  9 11  1  0  0  0  0
  9 22  1  0  0  0  0
  7  8  1  0  0  0  0
  7  9  1  0  0  0  0
 26 27  1  0  0  0  0
 26 28  1  0  0  0  0
 26 29  1  0  0  0  0
 24 25  1  0  0  0  0
 24 26  1  0  0  0  0
M  END
$$$$
default_name
  -OEChem-01062215323D

 29 29  0     1  0  0  0  0  0999 V2000
   -2.9561   -3.9186    1.3887 H   0  0  0  0  0  0  0  0  0  0  0  0
   -3.1191   -2.9346    0.9517 C   0  0  0  0  0  0  0  0  0  0  0  0
   -3.7811   -2.3546    1.5917 H   0  0  0  0  0  0  0  0  0  0  0  0
   -3.5591   -3.0406   -0.0383 H   0  0  0  0  0  0  0  0  0  0  0  0
   -1.7921   -2.2226    0.8327 C   0  0  0  0  0  0  0  0  0  0  0  0
   -0.7611   -2.7766    1.1927 O   0  0  0  0  0  0  0  0  0  0  0  0
   -1.8201   -0.9926    0.3247 N   0  0  0  0  0  0  0  0  0  0  0  0
   -2.7141   -0.5816    0.0927 H   0  0  0  0  0  0  0  0  0  0  0  0
   -0.6481   -0.1156    0.2017 C   0  0  1  0  0  0  0  0  0  0  0  0
    0.2463   -0.7155    0.3812 H   0  0  0  0  0  0  0  0  0  0  0  0
   -0.5698    0.4499   -1.2297 C   0  0  0  0  0  0  0  0  0  0  0  0
   -1.5031    0.9576   -1.4777 H   0  0  0  0  0  0  0  0  0  0  0  0
    0.2315    1.1875   -1.2917 H   0  0  0  0  0  0  0  0  0  0  0  0
   -0.3500   -0.6195   -2.2718 C   0  0  0  0  0  0  0  0  0  0  0  0
    0.8516   -1.2841   -2.5204 N   0  0  0  0  0  0  0  0  0  0  0  0
    0.5868   -2.1775   -3.4848 C   0  0  0  0  0  0  0  0  0  0  0  0
    1.3186   -2.8497   -3.9149 H   0  0  0  0  0  0  0  0  0  0  0  0
   -0.7105   -2.1244   -3.8305 N   0  0  0  0  0  0  0  0  0  0  0  0
   -1.1578   -2.7120   -4.5208 H   0  0  0  0  0  0  0  0  0  0  0  0
   -1.3194   -1.1491   -3.0725 C   0  0  0  0  0  0  0  0  0  0  0  0
   -2.3631   -0.8608   -3.0806 H   0  0  0  0  0  0  0  0  0  0  0  0
   -0.6823    0.9911    1.2708 C   0  0  0  0  0  0  0  0  0  0  0  0
    0.2176    1.8297    1.3184 O   0  0  0  0  0  0  0  0  0  0  0  0
   -1.7160    1.0027    2.1182 N   0  0  0  0  0  0  0  0  0  0  0  0
   -2.3537    0.2155    2.0762 H   0  0  0  0  0  0  0  0  0  0  0  0
   -1.9124    1.9861    3.1808 C   0  0  0  0  0  0  0  0  0  0  0  0
   -1.5609    2.9679    2.8533 H   0  0  0  0  0  0  0  0  0  0  0  0
   -2.9715    2.0522    3.4338 H   0  0  0  0  0  0  0  0  0  0  0  0
   -1.3472    1.6864    4.0648 H   0  0  0  0  0  0  0  0  0  0  0  0
  5  6  2  0  0  0  0
  5  7  1  0  0  0  0
  2  3  1  0  0  0  0
  2  4  1  0  0  0  0
  2  5  1  0  0  0  0
  1  2  1  0  0  0  0
 22 23  2  0  0  0  0
 22 24  1  0  0  0  0
 20 21  1  0  0  0  0
 18 19  1  0  0  0  0
 18 20  1  0  0  0  0
 16 17  1  0  0  0  0
 16 18  1  0  0  0  0
 15 16  2  0  0  0  0
 14 15  1  0  0  0  0
 14 20  2  0  0  0  0
 11 12  1  0  0  0  0
 11 13  1  0  0  0  0
 11 14  1  0  0  0  0
  9 10  1  0  0  0  0
  9 11  1  0  0  0  0
  9 22  1  0  0  0  0
  7  8  1  0  0  0  0
  7  9  1  0  0  0  0
 26 27  1  0  0  0  0
 26 28  1  0  0  0  0
 26 29  1  0  0  0  0
 24 25  1  0  0  0  0
 24 26  1  0  0  0  0
M  END
$$$$
default_name
  -OEChem-01062215323D

 29 29  0     1  0  0  0  0  0999 V2000
   -2.9561   -3.9186    1.3887 H   0  0  0  0  0  0  0  0  0  0  0  0
   -3.1191   -2.9346    0.9517 C   0  0  0  0  0  0  0  0  0  0  0  0
   -3.7811   -2.3546    1.5917 H   0  0  0  0  0  0  0  0  0  0  0  0
   -3.5591   -3.0406   -0.0383 H   0  0  0  0  0  0  0  0  0  0  0  0
   -1.7921   -2.2226    0.8327 C   0  0  0  0  0  0  0  0  0  0  0  0
   -0.7611   -2.7766    1.1927 O   0  0  0  0  0  0  0  0  0  0  0  0
   -1.8201   -0.9926    0.3247 N   0  0  0  0  0  0  0  0  0  0  0  0
   -2.7141   -0.5816    0.0927 H   0  0  0  0  0  0  0  0  0  0  0  0
   -0.6481   -0.1156    0.2017 C   0  0  1  0  0  0  0  0  0  0  0  0
    0.2463   -0.7155    0.3812 H   0  0  0  0  0  0  0  0  0  0  0  0
   -0.5698    0.4499   -1.2297 C   0  0  0  0  0  0  0  0  0  0  0  0
   -1.5031    0.9576   -1.4777 H   0  0  0  0  0  0  0  0  0  0  0  0
    0.2315    1.1875   -1.2917 H   0  0  0  0  0  0  0  0  0  0  0  0
   -0.3500   -0.6195   -2.2718 C   0  0  0  0  0  0  0  0  0  0  0  0
    0.8516   -1.2841   -2.5204 N   0  0  0  0  0  0  0  0  0  0  0  0
    0.5868   -2.1775   -3.4848 C   0  0  0  0  0  0  0  0  0  0  0  0
    1.3186   -2.8497   -3.9149 H   0  0  0  0  0  0  0  0  0  0  0  0
   -0.7105   -2.1244   -3.8305 N   0  0  0  0  0  0  0  0  0  0  0  0
   -1.1578   -2.7120   -4.5208 H   0  0  0  0  0  0  0  0  0  0  0  0
   -1.3194   -1.1491   -3.0725 C   0  0  0  0  0  0  0  0  0  0  0  0
   -2.3631   -0.8608   -3.0806 H   0  0  0  0  0  0  0  0  0  0  0  0
   -0.6823    0.9911    1.2708 C   0  0  0  0  0  0  0  0  0  0  0  0
    0.0446    1.9783    1.1590 O   0  0  0  0  0  0  0  0  0  0  0  0
   -1.5257    0.8365    2.2963 N   0  0  0  0  0  0  0  0  0  0  0  0
   -2.0075   -0.0529    2.3652 H   0  0  0  0  0  0  0  0  0  0  0  0
   -1.6955    1.7927    3.3879 C   0  0  0  0  0  0  0  0  0  0  0  0
   -1.5938    2.8139    3.0116 H   0  0  0  0  0  0  0  0  0  0  0  0
   -2.6835    1.6737    3.8349 H   0  0  0  0  0  0  0  0  0  0  0  0
   -0.9314    1.6194    4.1474 H   0  0  0  0  0  0  0  0  0  0  0  0
  5  6  2  0  0  0  0
  5  7  1  0  0  0  0
  2  3  1  0  0  0  0
  2  4  1  0  0  0  0
  2  5  1  0  0  0  0
  1  2  1  0  0  0  0
 22 23  2  0  0  0  0
 22 24  1  0  0  0  0
 20 21  1  0  0  0  0
 18 19  1  0  0  0  0
 18 20  1  0  0  0  0
 16 17  1  0  0  0  0
 16 18  1  0  0  0  0
 15 16  2  0  0  0  0
 14 15  1  0  0  0  0
 14 20  2  0  0  0  0
 11 12  1  0  0  0  0
 11 13  1  0  0  0  0
 11 14  1  0  0  0  0
  9 10  1  0  0  0  0
  9 11  1  0  0  0  0
  9 22  1  0  0  0  0
  7  8  1  0  0  0  0
  7  9  1  0  0  0  0
 26 27  1  0  0  0  0
 26 28  1  0  0  0  0
 26 29  1  0  0  0  0
 24 25  1  0  0  0  0
 24 26  1  0  0  0  0
M  END
$$$$
default_name
  -OEChem-01062215323D

 29 29  0     1  0  0  0  0  0999 V2000
   -2.9561   -3.9186    1.3887 H   0  0  0  0  0  0  0  0  0  0  0  0
   -3.1191   -2.9346    0.9517 C   0  0  0  0  0  0  0  0  0  0  0  0
   -3.7811   -2.3546    1.5917 H   0  0  0  0  0  0  0  0  0  0  0  0
   -3.5591   -3.0406   -0.0383 H   0  0  0  0  0  0  0  0  0  0  0  0
   -1.7921   -2.2226    0.8327 C   0  0  0  0  0  0  0  0  0  0  0  0
   -0.7611   -2.7766    1.1927 O   0  0  0  0  0  0  0  0  0  0  0  0
   -1.8201   -0.9926    0.3247 N   0  0  0  0  0  0  0  0  0  0  0  0
   -2.7141   -0.5816    0.0927 H   0  0  0  0  0  0  0  0  0  0  0  0
   -0.6481   -0.1156    0.2017 C   0  0  1  0  0  0  0  0  0  0  0  0
    0.2463   -0.7155    0.3812 H   0  0  0  0  0  0  0  0  0  0  0  0
   -0.5698    0.4499   -1.2297 C   0  0  0  0  0  0  0  0  0  0  0  0
   -1.5031    0.9576   -1.4777 H   0  0  0  0  0  0  0  0  0  0  0  0
    0.2315    1.1875   -1.2917 H   0  0  0  0  0  0  0  0  0  0  0  0
   -0.3500   -0.6195   -2.2718 C   0  0  0  0  0  0  0  0  0  0  0  0
    0.8516   -1.2841   -2.5204 N   0  0  0  0  0  0  0  0  0  0  0  0
    0.5868   -2.1775   -3.4848 C   0  0  0  0  0  0  0  0  0  0  0  0
    1.3186   -2.8497   -3.9149 H   0  0  0  0  0  0  0  0  0  0  0  0
   -0.7105   -2.1244   -3.8305 N   0  0  0  0  0  0  0  0  0  0  0  0
   -1.1578   -2.7120   -4.5208 H   0  0  0  0  0  0  0  0  0  0  0  0
   -1.3194   -1.1491   -3.0725 C   0  0  0  0  0  0  0  0  0  0  0  0
   -2.3631   -0.8608   -3.0806 H   0  0  0  0  0  0  0  0  0  0  0  0
   -0.6823    0.9911    1.2708 C   0  0  0  0  0  0  0  0  0  0  0  0
   -0.1789    2.0898    1.0365 O   0  0  0  0  0  0  0  0  0  0  0  0
   -1.2788    0.7112    2.4339 N   0  0  0  0  0  0  0  0  0  0  0  0
   -1.5710   -0.2484    2.5814 H   0  0  0  0  0  0  0  0  0  0  0  0
   -1.4127    1.6461    3.5486 C   0  0  0  0  0  0  0  0  0  0  0  0
   -1.5684    2.6601    3.1716 H   0  0  0  0  0  0  0  0  0  0  0  0
   -2.2626    1.3621    4.1708 H   0  0  0  0  0  0  0  0  0  0  0  0
   -0.5024    1.6299    4.1503 H   0  0  0  0  0  0  0  0  0  0  0  0
  5  6  2  0  0  0  0
  5  7  1  0  0  0  0
  2  3  1  0  0  0  0
  2  4  1  0  0  0  0
  2  5  1  0  0  0  0
  1  2  1  0  0  0  0
 22 23  2  0  0  0  0
 22 24  1  0  0  0  0
 20 21  1  0  0  0  0
 18 19  1  0  0  0  0
 18 20  1  0  0  0  0
 16 17  1  0  0  0  0
 16 18  1  0  0  0  0
 15 16  2  0  0  0  0
 14 15  1  0  0  0  0
 14 20  2  0  0  0  0
 11 12  1  0  0  0  0
 11 13  1  0  0  0  0
 11 14  1  0  0  0  0
  9 10  1  0  0  0  0
  9 11  1  0  0  0  0
  9 22  1  0  0  0  0
  7  8  1  0  0  0  0
  7  9  1  0  0  0  0
 26 27  1  0  0  0  0
 26 28  1  0  0  0  0
 26 29  1  0  0  0  0
 24 25  1  0  0  0  0
 24 26  1  0  0  0  0
M  END
$$$$
default_name
  -OEChem-01062215323D

 29 29  0     1  0  0  0  0  0999 V2000
   -2.9561   -3.9186    1.3887 H   0  0  0  0  0  0  0  0  0  0  0  0
   -3.1191   -2.9346    0.9517 C   0  0  0  0  0  0  0  0  0  0  0  0
   -3.7811   -2.3546    1.5917 H   0  0  0  0  0  0  0  0  0  0  0  0
   -3.5591   -3.0406   -0.0383 H   0  0  0  0  0  0  0  0  0  0  0  0
   -1.7921   -2.2226    0.8327 C   0  0  0  0  0  0  0  0  0  0  0  0
   -0.7611   -2.7766    1.1927 O   0  0  0  0  0  0  0  0  0  0  0  0
   -1.8201   -0.9926    0.3247 N   0  0  0  0  0  0  0  0  0  0  0  0
   -2.7141   -0.5816    0.0927 H   0  0  0  0  0  0  0  0  0  0  0  0
   -0.6481   -0.1156    0.2017 C   0  0  1  0  0  0  0  0  0  0  0  0
    0.2463   -0.7155    0.3812 H   0  0  0  0  0  0  0  0  0  0  0  0
   -0.5698    0.4499   -1.2297 C   0  0  0  0  0  0  0  0  0  0  0  0
   -1.5031    0.9576   -1.4777 H   0  0  0  0  0  0  0  0  0  0  0  0
    0.2315    1.1875   -1.2917 H   0  0  0  0  0  0  0  0  0  0  0  0
   -0.3500   -0.6195   -2.2718 C   0  0  0  0  0  0  0  0  0  0  0  0
    0.8516   -1.2841   -2.5204 N   0  0  0  0  0  0  0  0  0  0  0  0
    0.5868   -2.1775   -3.4848 C   0  0  0  0  0  0  0  0  0  0  0  0
    1.3186   -2.8497   -3.9149 H   0  0  0  0  0  0  0  0  0  0  0  0
   -0.7105   -2.1244   -3.8305 N   0  0  0  0  0  0  0  0  0  0  0  0
   -1.1578   -2.7120   -4.5208 H   0  0  0  0  0  0  0  0  0  0  0  0
   -1.3194   -1.1491   -3.0725 C   0  0  0  0  0  0  0  0  0  0  0  0
   -2.3631   -0.8608   -3.0806 H   0  0  0  0  0  0  0  0  0  0  0  0
   -0.6823    0.9911    1.2708 C   0  0  0  0  0  0  0  0  0  0  0  0
   -0.4377    2.1566    0.9591 O   0  0  0  0  0  0  0  0  0  0  0  0
   -0.9922    0.6354    2.5216 N   0  0  0  0  0  0  0  0  0  0  0  0
   -1.0740   -0.3574    2.7102 H   0  0  0  0  0  0  0  0  0  0  0  0
   -1.0832    1.5562    3.6522 C   0  0  0  0  0  0  0  0  0  0  0  0
   -1.4865    2.5171    3.3223 H   0  0  0  0  0  0  0  0  0  0  0  0
   -1.7375    1.1388    4.4188 H   0  0  0  0  0  0  0  0  0  0  0  0
   -0.0894    1.7172    4.0732 H   0  0  0  0  0  0  0  0  0  0  0  0
  5  6  2  0  0  0  0
  5  7  1  0  0  0  0
  2  3  1  0  0  0  0
  2  4  1  0  0  0  0
  2  5  1  0  0  0  0
  1  2  1  0  0  0  0
 22 23  2  0  0  0  0
 22 24  1  0  0  0  0
 20 21  1  0  0  0  0
 18 19  1  0  0  0  0
 18 20  1  0  0  0  0
 16 17  1  0  0  0  0
 16 18  1  0  0  0  0
 15 16  2  0  0  0  0
 14 15  1  0  0  0  0
 14 20  2  0  0  0  0
 11 12  1  0  0  0  0
 11 13  1  0  0  0  0
 11 14  1  0  0  0  0
  9 10  1  0  0  0  0
  9 11  1  0  0  0  0
  9 22  1  0  0  0  0
  7  8  1  0  0  0  0
  7  9  1  0  0  0  0
 26 27  1  0  0  0  0
 26 28  1  0  0  0  0
 26 29  1  0  0  0  0
 24 25  1  0  0  0  0
 24 26  1  0  0  0  0
M  END
$$$$
default_name
  -OEChem-01062215323D

 29 29  0     1  0  0  0  0  0999 V2000
   -2.9561   -3.9186    1.3887 H   0  0  0  0  0  0  0  0  0  0  0  0
   -3.1191   -2.9346    0.9517 C   0  0  0  0  0  0  0  0  0  0  0  0
   -3.7811   -2.3546    1.5917 H   0  0  0  0  0  0  0  0  0  0  0  0
   -3.5591   -3.0406   -0.0383 H   0  0  0  0  0  0  0  0  0  0  0  0
   -1.7921   -2.2226    0.8327 C   0  0  0  0  0  0  0  0  0  0  0  0
   -0.7611   -2.7766    1.1927 O   0  0  0  0  0  0  0  0  0  0  0  0
   -1.8201   -0.9926    0.3247 N   0  0  0  0  0  0  0  0  0  0  0  0
   -2.7141   -0.5816    0.0927 H   0  0  0  0  0  0  0  0  0  0  0  0
   -0.6481   -0.1156    0.2017 C   0  0  1  0  0  0  0  0  0  0  0  0
    0.2463   -0.7155    0.3812 H   0  0  0  0  0  0  0  0  0  0  0  0
   -0.5698    0.4499   -1.2297 C   0  0  0  0  0  0  0  0  0  0  0  0
   -1.5031    0.9576   -1.4777 H   0  0  0  0  0  0  0  0  0  0  0  0
    0.2315    1.1875   -1.2917 H   0  0  0  0  0  0  0  0  0  0  0  0
   -0.3500   -0.6195   -2.2718 C   0  0  0  0  0  0  0  0  0  0  0  0
    0.8516   -1.2841   -2.5204 N   0  0  0  0  0  0  0  0  0  0  0  0
    0.5868   -2.1775   -3.4848 C   0  0  0  0  0  0  0  0  0  0  0  0
    1.3186   -2.8497   -3.9149 H   0  0  0  0  0  0  0  0  0  0  0  0
   -0.7105   -2.1244   -3.8305 N   0  0  0  0  0  0  0  0  0  0  0  0
   -1.1578   -2.7120   -4.5208 H   0  0  0  0  0  0  0  0  0  0  0  0
   -1.3194   -1.1491   -3.0725 C   0  0  0  0  0  0  0  0  0  0  0  0
   -2.3631   -0.8608   -3.0806 H   0  0  0  0  0  0  0  0  0  0  0  0
   -0.6823    0.9911    1.2708 C   0  0  0  0  0  0  0  0  0  0  0  0
   -0.7140    2.1742    0.9320 O   0  0  0  0  0  0  0  0  0  0  0  0
   -0.6854    0.6142    2.5533 N   0  0  0  0  0  0  0  0  0  0  0  0
   -0.5504   -0.3727    2.7427 H   0  0  0  0  0  0  0  0  0  0  0  0
   -0.7296    1.5293    3.6914 C   0  0  0  0  0  0  0  0  0  0  0  0
   -1.3536    2.3946    3.4534 H   0  0  0  0  0  0  0  0  0  0  0  0
   -1.1440    1.0188    4.5619 H   0  0  0  0  0  0  0  0  0  0  0  0
    0.2795    1.8753    3.9213 H   0  0  0  0  0  0  0  0  0  0  0  0
  5  6  2  0  0  0  0
  5  7  1  0  0  0  0
  2  3  1  0  0  0  0
  2  4  1  0  0  0  0
  2  5  1  0  0  0  0
  1  2  1  0  0  0  0
 22 23  2  0  0  0  0
 22 24  1  0  0  0  0
 20 21  1  0  0  0  0
 18 19  1  0  0  0  0
 18 20  1  0  0  0  0
 16 17  1  0  0  0  0
 16 18  1  0  0  0  0
 15 16  2  0  0  0  0
 14 15  1  0  0  0  0
 14 20  2  0  0  0  0
 11 12  1  0  0  0  0
 11 13  1  0  0  0  0
 11 14  1  0  0  0  0
  9 10  1  0  0  0  0
  9 11  1  0  0  0  0
  9 22  1  0  0  0  0
  7  8  1  0  0  0  0
  7  9  1  0  0  0  0
 26 27  1  0  0  0  0
 26 28  1  0  0  0  0
 26 29  1  0  0  0  0
 24 25  1  0  0  0  0
 24 26  1  0  0  0  0
M  END
$$$$
default_name
  -OEChem-01062215323D

 29 29  0     1  0  0  0  0  0999 V2000
   -2.9561   -3.9186    1.3887 H   0  0  0  0  0  0  0  0  0  0  0  0
   -3.1191   -2.9346    0.9517 C   0  0  0  0  0  0  0  0  0  0  0  0
   -3.7811   -2.3546    1.5917 H   0  0  0  0  0  0  0  0  0  0  0  0
   -3.5591   -3.0406   -0.0383 H   0  0  0  0  0  0  0  0  0  0  0  0
   -1.7921   -2.2226    0.8327 C   0  0  0  0  0  0  0  0  0  0  0  0
   -0.7611   -2.7766    1.1927 O   0  0  0  0  0  0  0  0  0  0  0  0
   -1.8201   -0.9926    0.3247 N   0  0  0  0  0  0  0  0  0  0  0  0
   -2.7141   -0.5816    0.0927 H   0  0  0  0  0  0  0  0  0  0  0  0
   -0.6481   -0.1156    0.2017 C   0  0  1  0  0  0  0  0  0  0  0  0
    0.2463   -0.7155    0.3812 H   0  0  0  0  0  0  0  0  0  0  0  0
   -0.5698    0.4499   -1.2297 C   0  0  0  0  0  0  0  0  0  0  0  0
   -1.5031    0.9576   -1.4777 H   0  0  0  0  0  0  0  0  0  0  0  0
    0.2315    1.1875   -1.2917 H   0  0  0  0  0  0  0  0  0  0  0  0
   -0.3500   -0.6195   -2.2718 C   0  0  0  0  0  0  0  0  0  0  0  0
    0.8516   -1.2841   -2.5204 N   0  0  0  0  0  0  0  0  0  0  0  0
    0.5868   -2.1775   -3.4848 C   0  0  0  0  0  0  0  0  0  0  0  0
    1.3186   -2.8497   -3.9149 H   0  0  0  0  0  0  0  0  0  0  0  0
   -0.7105   -2.1244   -3.8305 N   0  0  0  0  0  0  0  0  0  0  0  0
   -1.1578   -2.7120   -4.5208 H   0  0  0  0  0  0  0  0  0  0  0  0
   -1.3194   -1.1491   -3.0725 C   0  0  0  0  0  0  0  0  0  0  0  0
   -2.3631   -0.8608   -3.0806 H   0  0  0  0  0  0  0  0  0  0  0  0
   -0.6823    0.9911    1.2708 C   0  0  0  0  0  0  0  0  0  0  0  0
   -0.9892    2.1413    0.9573 O   0  0  0  0  0  0  0  0  0  0  0  0
   -0.3793    0.6490    2.5270 N   0  0  0  0  0  0  0  0  0  0  0  0
   -0.0358   -0.2931    2.6768 H   0  0  0  0  0  0  0  0  0  0  0  0
   -0.3758    1.5671    3.6636 C   0  0  0  0  0  0  0  0  0  0  0  0
   -1.1788    2.3008    3.5560 H   0  0  0  0  0  0  0  0  0  0  0  0
   -0.5226    1.0105    4.5903 H   0  0  0  0  0  0  0  0  0  0  0  0
    0.5792    2.0935    3.7050 H   0  0  0  0  0  0  0  0  0  0  0  0
  5  6  2  0  0  0  0
  5  7  1  0  0  0  0
  2  3  1  0  0  0  0
  2  4  1  0  0  0  0
  2  5  1  0  0  0  0
  1  2  1  0  0  0  0
 22 23  2  0  0  0  0
 22 24  1  0  0  0  0
 20 21  1  0  0  0  0
 18 19  1  0  0  0  0
 18 20  1  0  0  0  0
 16 17  1  0  0  0  0
 16 18  1  0  0  0  0
 15 16  2  0  0  0  0
 14 15  1  0  0  0  0
 14 20  2  0  0  0  0
 11 12  1  0  0  0  0
 11 13  1  0  0  0  0
 11 14  1  0  0  0  0
  9 10  1  0  0  0  0
  9 11  1  0  0  0  0
  9 22  1  0  0  0  0
  7  8  1  0  0  0  0
  7  9  1  0  0  0  0
 26 27  1  0  0  0  0
 26 28  1  0  0  0  0
 26 29  1  0  0  0  0
 24 25  1  0  0  0  0
 24 26  1  0  0  0  0
M  END
$$$$
default_name
  -OEChem-01062215323D

 29 29  0     1  0  0  0  0  0999 V2000
   -2.9561   -3.9186    1.3887 H   0  0  0  0  0  0  0  0  0  0  0  0
   -3.1191   -2.9346    0.9517 C   0  0  0  0  0  0  0  0  0  0  0  0
   -3.7811   -2.3546    1.5917 H   0  0  0  0  0  0  0  0  0  0  0  0
   -3.5591   -3.0406   -0.0383 H   0  0  0  0  0  0  0  0  0  0  0  0
   -1.7921   -2.2226    0.8327 C   0  0  0  0  0  0  0  0  0  0  0  0
   -0.7611   -2.7766    1.1927 O   0  0  0  0  0  0  0  0  0  0  0  0
   -1.8201   -0.9926    0.3247 N   0  0  0  0  0  0  0  0  0  0  0  0
   -2.7141   -0.5816    0.0927 H   0  0  0  0  0  0  0  0  0  0  0  0
   -0.6481   -0.1156    0.2017 C   0  0  1  0  0  0  0  0  0  0  0  0
    0.2463   -0.7155    0.3812 H   0  0  0  0  0  0  0  0  0  0  0  0
   -0.5698    0.4499   -1.2297 C   0  0  0  0  0  0  0  0  0  0  0  0
   -1.5031    0.9576   -1.4777 H   0  0  0  0  0  0  0  0  0  0  0  0
    0.2315    1.1875   -1.2917 H   0  0  0  0  0  0  0  0  0  0  0  0
   -0.3500   -0.6195   -2.2718 C   0  0  0  0  0  0  0  0  0  0  0  0
    0.8516   -1.2841   -2.5204 N   0  0  0  0  0  0  0  0  0  0  0  0
    0.5868   -2.1775   -3.4848 C   0  0  0  0  0  0  0  0  0  0  0  0
    1.3186   -2.8497   -3.9149 H   0  0  0  0  0  0  0  0  0  0  0  0
   -0.7105   -2.1244   -3.8305 N   0  0  0  0  0  0  0  0  0  0  0  0
   -1.1578   -2.7120   -4.5208 H   0  0  0  0  0  0  0  0  0  0  0  0
   -1.3194   -1.1491   -3.0725 C   0  0  0  0  0  0  0  0  0  0  0  0
   -2.3631   -0.8608   -3.0806 H   0  0  0  0  0  0  0  0  0  0  0  0
   -0.6823    0.9911    1.2708 C   0  0  0  0  0  0  0  0  0  0  0  0
   -1.2443    2.0602    1.0330 O   0  0  0  0  0  0  0  0  0  0  0  0
   -0.0948    0.7376    2.4445 N   0  0  0  0  0  0  0  0  0  0  0  0
    0.4347   -0.1241    2.5168 H   0  0  0  0  0  0  0  0  0  0  0  0
   -0.0461    1.6670    3.5707 C   0  0  0  0  0  0  0  0  0  0  0  0
   -0.9740    2.2423    3.6231 H   0  0  0  0  0  0  0  0  0  0  0  0
    0.0845    1.1144    4.5022 H   0  0  0  0  0  0  0  0  0  0  0  0
    0.7891    2.3568    3.4391 H   0  0  0  0  0  0  0  0  0  0  0  0
  5  6  2  0  0  0  0
  5  7  1  0  0  0  0
  2  3  1  0  0  0  0
  2  4  1  0  0  0  0
  2  5  1  0  0  0  0
  1  2  1  0  0  0  0
 22 23  2  0  0  0  0
 22 24  1  0  0  0  0
 20 21  1  0  0  0  0
 18 19  1  0  0  0  0
 18 20  1  0  0  0  0
 16 17  1  0  0  0  0
 16 18  1  0  0  0  0
 15 16  2  0  0  0  0
 14 15  1  0  0  0  0
 14 20  2  0  0  0  0
 11 12  1  0  0  0  0
 11 13  1  0  0  0  0
 11 14  1  0  0  0  0
  9 10  1  0  0  0  0
  9 11  1  0  0  0  0
  9 22  1  0  0  0  0
  7  8  1  0  0  0  0
  7  9  1  0  0  0  0
 26 27  1  0  0  0  0
 26 28  1  0  0  0  0
 26 29  1  0  0  0  0
 24 25  1  0  0  0  0
 24 26  1  0  0  0  0
M  END
$$$$
default_name
  -OEChem-01062215323D

 29 29  0     1  0  0  0  0  0999 V2000
   -2.9561   -3.9186    1.3887 H   0  0  0  0  0  0  0  0  0  0  0  0
   -3.1191   -2.9346    0.9517 C   0  0  0  0  0  0  0  0  0  0  0  0
   -3.7811   -2.3546    1.5917 H   0  0  0  0  0  0  0  0  0  0  0  0
   -3.5591   -3.0406   -0.0383 H   0  0  0  0  0  0  0  0  0  0  0  0
   -1.7921   -2.2226    0.8327 C   0  0  0  0  0  0  0  0  0  0  0  0
   -0.7611   -2.7766    1.1927 O   0  0  0  0  0  0  0  0  0  0  0  0
   -1.8201   -0.9926    0.3247 N   0  0  0  0  0  0  0  0  0  0  0  0
   -2.7141   -0.5816    0.0927 H   0  0  0  0  0  0  0  0  0  0  0  0
   -0.6481   -0.1156    0.2017 C   0  0  1  0  0  0  0  0  0  0  0  0
    0.2463   -0.7155    0.3812 H   0  0  0  0  0  0  0  0  0  0  0  0
   -0.5698    0.4499   -1.2297 C   0  0  0  0  0  0  0  0  0  0  0  0
   -1.5031    0.9576   -1.4777 H   0  0  0  0  0  0  0  0  0  0  0  0
    0.2315    1.1875   -1.2917 H   0  0  0  0  0  0  0  0  0  0  0  0
   -0.3500   -0.6195   -2.2718 C   0  0  0  0  0  0  0  0  0  0  0  0
    0.8516   -1.2841   -2.5204 N   0  0  0  0  0  0  0  0  0  0  0  0
    0.5868   -2.1775   -3.4848 C   0  0  0  0  0  0  0  0  0  0  0  0
    1.3186   -2.8497   -3.9149 H   0  0  0  0  0  0  0  0  0  0  0  0
   -0.7105   -2.1244   -3.8305 N   0  0  0  0  0  0  0  0  0  0  0  0
   -1.1578   -2.7120   -4.5208 H   0  0  0  0  0  0  0  0  0  0  0  0
   -1.3194   -1.1491   -3.0725 C   0  0  0  0  0  0  0  0  0  0  0  0
   -2.3631   -0.8608   -3.0806 H   0  0  0  0  0  0  0  0  0  0  0  0
   -0.6823    0.9911    1.2708 C   0  0  0  0  0  0  0  0  0  0  0  0
   -1.4621    1.9365    1.1542 O   0  0  0  0  0  0  0  0  0  0  0  0
    0.1487    0.8737    2.3113 N   0  0  0  0  0  0  0  0  0  0  0  0
    0.8289    0.1229    2.2738 H   0  0  0  0  0  0  0  0  0  0  0  0
    0.2372    1.8222    3.4190 C   0  0  0  0  0  0  0  0  0  0  0  0
   -0.7532    2.2230    3.6502 H   0  0  0  0  0  0  0  0  0  0  0  0
    0.6358    1.3234    4.3035 H   0  0  0  0  0  0  0  0  0  0  0  0
    0.8951    2.6474    3.1417 H   0  0  0  0  0  0  0  0  0  0  0  0
  5  6  2  0  0  0  0
  5  7  1  0  0  0  0
  2  3  1  0  0  0  0
  2  4  1  0  0  0  0
  2  5  1  0  0  0  0
  1  2  1  0  0  0  0
 22 23  2  0  0  0  0
 22 24  1  0  0  0  0
 20 21  1  0  0  0  0
 18 19  1  0  0  0  0
 18 20  1  0  0  0  0
 16 17  1  0  0  0  0
 16 18  1  0  0  0  0
 15 16  2  0  0  0  0
 14 15  1  0  0  0  0
 14 20  2  0  0  0  0
 11 12  1  0  0  0  0
 11 13  1  0  0  0  0
 11 14  1  0  0  0  0
  9 10  1  0  0  0  0
  9 11  1  0  0  0  0
  9 22  1  0  0  0  0
  7  8  1  0  0  0  0
  7  9  1  0  0  0  0
 26 27  1  0  0  0  0
 26 28  1  0  0  0  0
 26 29  1  0  0  0  0
 24 25  1  0  0  0  0
 24 26  1  0  0  0  0
M  END
$$$$
default_name
  -OEChem-01062215323D

 29 29  0     1  0  0  0  0  0999 V2000
   -2.9561   -3.9186    1.3887 H   0  0  0  0  0  0  0  0  0  0  0  0
   -3.1191   -2.9346    0.9517 C   0  0  0  0  0  0  0  0  0  0  0  0
   -3.7811   -2.3546    1.5917 H   0  0  0  0  0  0  0  0  0  0  0  0
   -3.5591   -3.0406   -0.0383 H   0  0  0  0  0  0  0  0  0  0  0  0
   -1.7921   -2.2226    0.8327 C   0  0  0  0  0  0  0  0  0  0  0  0
   -0.7611   -2.7766    1.1927 O   0  0  0  0  0  0  0  0  0  0  0  0
   -1.8201   -0.9926    0.3247 N   0  0  0  0  0  0  0  0  0  0  0  0
   -2.7141   -0.5816    0.0927 H   0  0  0  0  0  0  0  0  0  0  0  0
   -0.6481   -0.1156    0.2017 C   0  0  1  0  0  0  0  0  0  0  0  0
    0.2463   -0.7155    0.3812 H   0  0  0  0  0  0  0  0  0  0  0  0
   -0.5698    0.4499   -1.2297 C   0  0  0  0  0  0  0  0  0  0  0  0
   -1.5031    0.9576   -1.4777 H   0  0  0  0  0  0  0  0  0  0  0  0
    0.2315    1.1875   -1.2917 H   0  0  0  0  0  0  0  0  0  0  0  0
   -0.3500   -0.6195   -2.2718 C   0  0  0  0  0  0  0  0  0  0  0  0
    0.8516   -1.2841   -2.5204 N   0  0  0  0  0  0  0  0  0  0  0  0
    0.5868   -2.1775   -3.4848 C   0  0  0  0  0  0  0  0  0  0  0  0
    1.3186   -2.8497   -3.9149 H   0  0  0  0  0  0  0  0  0  0  0  0
   -0.7105   -2.1244   -3.8305 N   0  0  0  0  0  0  0  0  0  0  0  0
   -1.1578   -2.7120   -4.5208 H   0  0  0  0  0  0  0  0  0  0  0  0
   -1.3194   -1.1491   -3.0725 C   0  0  0  0  0  0  0  0  0  0  0  0
   -2.3631   -0.8608   -3.0806 H   0  0  0  0  0  0  0  0  0  0  0  0
   -0.6823    0.9911    1.2708 C   0  0  0  0  0  0  0  0  0  0  0  0
   -1.6277    1.7785    1.3124 O   0  0  0  0  0  0  0  0  0  0  0  0
    0.3346    1.0483    2.1365 N   0  0  0  0  0  0  0  0  0  0  0  0
    1.1202    0.4309    1.9643 H   0  0  0  0  0  0  0  0  0  0  0  0
    0.4546    2.0223    3.2189 C   0  0  0  0  0  0  0  0  0  0  0  0
   -0.5313    2.2441    3.6354 H   0  0  0  0  0  0  0  0  0  0  0  0
    1.0937    1.6232    4.0078 H   0  0  0  0  0  0  0  0  0  0  0  0
    0.8899    2.9455    2.8330 H   0  0  0  0  0  0  0  0  0  0  0  0
  5  6  2  0  0  0  0
  5  7  1  0  0  0  0
  2  3  1  0  0  0  0
  2  4  1  0  0  0  0
  2  5  1  0  0  0  0
  1  2  1  0  0  0  0
 22 23  2  0  0  0  0
 22 24  1  0  0  0  0
 20 21  1  0  0  0  0
 18 19  1  0  0  0  0
 18 20  1  0  0  0  0
 16 17  1  0  0  0  0
 16 18  1  0  0  0  0
 15 16  2  0  0  0  0
 14 15  1  0  0  0  0
 14 20  2  0  0  0  0
 11 12  1  0  0  0  0
 11 13  1  0  0  0  0
 11 14  1  0  0  0  0
  9 10  1  0  0  0  0
  9 11  1  0  0  0  0
  9 22  1  0  0  0  0
  7  8  1  0  0  0  0
  7  9  1  0  0  0  0
 26 27  1  0  0  0  0
 26 28  1  0  0  0  0
 26 29  1  0  0  0  0
 24 25  1  0  0  0  0
 24 26  1  0  0  0  0
M  END
$$$$
default_name
  -OEChem-01062215323D

 29 29  0     1  0  0  0  0  0999 V2000
   -2.9561   -3.9186    1.3887 H   0  0  0  0  0  0  0  0  0  0  0  0
   -3.1191   -2.9346    0.9517 C   0  0  0  0  0  0  0  0  0  0  0  0
   -3.7811   -2.3546    1.5917 H   0  0  0  0  0  0  0  0  0  0  0  0
   -3.5591   -3.0406   -0.0383 H   0  0  0  0  0  0  0  0  0  0  0  0
   -1.7921   -2.2226    0.8327 C   0  0  0  0  0  0  0  0  0  0  0  0
   -0.7611   -2.7766    1.1927 O   0  0  0  0  0  0  0  0  0  0  0  0
   -1.8201   -0.9926    0.3247 N   0  0  0  0  0  0  0  0  0  0  0  0
   -2.7141   -0.5816    0.0927 H   0  0  0  0  0  0  0  0  0  0  0  0
   -0.6481   -0.1156    0.2017 C   0  0  1  0  0  0  0  0  0  0  0  0
    0.2463   -0.7155    0.3812 H   0  0  0  0  0  0  0  0  0  0  0  0
   -0.5698    0.4499   -1.2297 C   0  0  0  0  0  0  0  0  0  0  0  0
   -1.5031    0.9576   -1.4777 H   0  0  0  0  0  0  0  0  0  0  0  0
    0.2315    1.1875   -1.2917 H   0  0  0  0  0  0  0  0  0  0  0  0
   -0.3500   -0.6195   -2.2718 C   0  0  0  0  0  0  0  0  0  0  0  0
    0.8516   -1.2841   -2.5204 N   0  0  0  0  0  0  0  0  0  0  0  0
    0.5868   -2.1775   -3.4848 C   0  0  0  0  0  0  0  0  0  0  0  0
    1.3186   -2.8497   -3.9149 H   0  0  0  0  0  0  0  0  0  0  0  0
   -0.7105   -2.1244   -3.8305 N   0  0  0  0  0  0  0  0  0  0  0  0
   -1.1578   -2.7120   -4.5208 H   0  0  0  0  0  0  0  0  0  0  0  0
   -1.3194   -1.1491   -3.0725 C   0  0  0  0  0  0  0  0  0  0  0  0
   -2.3631   -0.8608   -3.0806 H   0  0  0  0  0  0  0  0  0  0  0  0
   -0.6823    0.9911    1.2708 C   0  0  0  0  0  0  0  0  0  0  0  0
   -1.7297    1.5970    1.4970 O   0  0  0  0  0  0  0  0  0  0  0  0
    0.4503    1.2493    1.9321 N   0  0  0  0  0  0  0  0  0  0  0  0
    1.2885    0.7789    1.6094 H   0  0  0  0  0  0  0  0  0  0  0  0
    0.5914    2.2534    2.9840 C   0  0  0  0  0  0  0  0  0  0  0  0
   -0.3236    2.3044    3.5796 H   0  0  0  0  0  0  0  0  0  0  0  0
    1.4272    1.9934    3.6352 H   0  0  0  0  0  0  0  0  0  0  0  0
    0.7738    3.2307    2.5341 H   0  0  0  0  0  0  0  0  0  0  0  0
  5  6  2  0  0  0  0
  5  7  1  0  0  0  0
  2  3  1  0  0  0  0
  2  4  1  0  0  0  0
  2  5  1  0  0  0  0
  1  2  1  0  0  0  0
 22 23  2  0  0  0  0
 22 24  1  0  0  0  0
 20 21  1  0  0  0  0
 18 19  1  0  0  0  0
 18 20  1  0  0  0  0
 16 17  1  0  0  0  0
 16 18  1  0  0  0  0
 15 16  2  0  0  0  0
 14 15  1  0  0  0  0
 14 20  2  0  0  0  0
 11 12  1  0  0  0  0
 11 13  1  0  0  0  0
 11 14  1  0  0  0  0
  9 10  1  0  0  0  0
  9 11  1  0  0  0  0
  9 22  1  0  0  0  0
  7  8  1  0  0  0  0
  7  9  1  0  0  0  0
 26 27  1  0  0  0  0
 26 28  1  0  0  0  0
 26 29  1  0  0  0  0
 24 25  1  0  0  0  0
 24 26  1  0  0  0  0
M  END
$$$$
default_name
  -OEChem-01062215323D

 29 29  0     1  0  0  0  0  0999 V2000
   -2.9561   -3.9186    1.3887 H   0  0  0  0  0  0  0  0  0  0  0  0
   -3.1191   -2.9346    0.9517 C   0  0  0  0  0  0  0  0  0  0  0  0
   -3.7811   -2.3546    1.5917 H   0  0  0  0  0  0  0  0  0  0  0  0
   -3.5591   -3.0406   -0.0383 H   0  0  0  0  0  0  0  0  0  0  0  0
   -1.7921   -2.2226    0.8327 C   0  0  0  0  0  0  0  0  0  0  0  0
   -0.7611   -2.7766    1.1927 O   0  0  0  0  0  0  0  0  0  0  0  0
   -1.8201   -0.9926    0.3247 N   0  0  0  0  0  0  0  0  0  0  0  0
   -2.7141   -0.5816    0.0927 H   0  0  0  0  0  0  0  0  0  0  0  0
   -0.6481   -0.1156    0.2017 C   0  0  1  0  0  0  0  0  0  0  0  0
    0.2463   -0.7155    0.3812 H   0  0  0  0  0  0  0  0  0  0  0  0
   -0.5698    0.4499   -1.2297 C   0  0  0  0  0  0  0  0  0  0  0  0
   -1.5031    0.9576   -1.4777 H   0  0  0  0  0  0  0  0  0  0  0  0
    0.2315    1.1875   -1.2917 H   0  0  0  0  0  0  0  0  0  0  0  0
   -0.3500   -0.6195   -2.2718 C   0  0  0  0  0  0  0  0  0  0  0  0
    0.8516   -1.2841   -2.5204 N   0  0  0  0  0  0  0  0  0  0  0  0
    0.5868   -2.1775   -3.4848 C   0  0  0  0  0  0  0  0  0  0  0  0
    1.3186   -2.8497   -3.9149 H   0  0  0  0  0  0  0  0  0  0  0  0
   -0.7105   -2.1244   -3.8305 N   0  0  0  0  0  0  0  0  0  0  0  0
   -1.1578   -2.7120   -4.5208 H   0  0  0  0  0  0  0  0  0  0  0  0
   -1.3194   -1.1491   -3.0725 C   0  0  0  0  0  0  0  0  0  0  0  0
   -2.3631   -0.8608   -3.0806 H   0  0  0  0  0  0  0  0  0  0  0  0
   -0.6823    0.9911    1.2708 C   0  0  0  0  0  0  0  0  0  0  0  0
   -1.7614    1.4045    1.6953 O   0  0  0  0  0  0  0  0  0  0  0  0
    0.4879    1.4632    1.7120 N   0  0  0  0  0  0  0  0  0  0  0  0
    1.3225    1.1434    1.2333 H   0  0  0  0  0  0  0  0  0  0  0  0
    0.6384    2.4999    2.7303 C   0  0  0  0  0  0  0  0  0  0  0  0
   -0.1442    2.3996    3.4868 H   0  0  0  0  0  0  0  0  0  0  0  0
    1.6133    2.4088    3.2112 H   0  0  0  0  0  0  0  0  0  0  0  0
    0.5548    3.4836    2.2653 H   0  0  0  0  0  0  0  0  0  0  0  0
  5  6  2  0  0  0  0
  5  7  1  0  0  0  0
  2  3  1  0  0  0  0
  2  4  1  0  0  0  0
  2  5  1  0  0  0  0
  1  2  1  0  0  0  0
 22 23  2  0  0  0  0
 22 24  1  0  0  0  0
 20 21  1  0  0  0  0
 18 19  1  0  0  0  0
 18 20  1  0  0  0  0
 16 17  1  0  0  0  0
 16 18  1  0  0  0  0
 15 16  2  0  0  0  0
 14 15  1  0  0  0  0
 14 20  2  0  0  0  0
 11 12  1  0  0  0  0
 11 13  1  0  0  0  0
 11 14  1  0  0  0  0
  9 10  1  0  0  0  0
  9 11  1  0  0  0  0
  9 22  1  0  0  0  0
  7  8  1  0  0  0  0
  7  9  1  0  0  0  0
 26 27  1  0  0  0  0
 26 28  1  0  0  0  0
 26 29  1  0  0  0  0
 24 25  1  0  0  0  0
 24 26  1  0  0  0  0
M  END
$$$$
default_name
  -OEChem-01062215323D

 29 29  0     1  0  0  0  0  0999 V2000
   -2.9561   -3.9186    1.3887 H   0  0  0  0  0  0  0  0  0  0  0  0
   -3.1191   -2.9346    0.9517 C   0  0  0  0  0  0  0  0  0  0  0  0
   -3.7811   -2.3546    1.5917 H   0  0  0  0  0  0  0  0  0  0  0  0
   -3.5591   -3.0406   -0.0383 H   0  0  0  0  0  0  0  0  0  0  0  0
   -1.7921   -2.2226    0.8327 C   0  0  0  0  0  0  0  0  0  0  0  0
   -0.7611   -2.7766    1.1927 O   0  0  0  0  0  0  0  0  0  0  0  0
   -1.8201   -0.9926    0.3247 N   0  0  0  0  0  0  0  0  0  0  0  0
   -2.7141   -0.5816    0.0927 H   0  0  0  0  0  0  0  0  0  0  0  0
   -0.6481   -0.1156    0.2017 C   0  0  1  0  0  0  0  0  0  0  0  0
    0.2463   -0.7155    0.3812 H   0  0  0  0  0  0  0  0  0  0  0  0
   -0.5698    0.4499   -1.2297 C   0  0  0  0  0  0  0  0  0  0  0  0
   -1.5031    0.9576   -1.4777 H   0  0  0  0  0  0  0  0  0  0  0  0
    0.2315    1.1875   -1.2917 H   0  0  0  0  0  0  0  0  0  0  0  0
   -0.3500   -0.6195   -2.2718 C   0  0  0  0  0  0  0  0  0  0  0  0
    0.8516   -1.2841   -2.5204 N   0  0  0  0  0  0  0  0  0  0  0  0
    0.5868   -2.1775   -3.4848 C   0  0  0  0  0  0  0  0  0  0  0  0
    1.3186   -2.8497   -3.9149 H   0  0  0  0  0  0  0  0  0  0  0  0
   -0.7105   -2.1244   -3.8305 N   0  0  0  0  0  0  0  0  0  0  0  0
   -1.1578   -2.7120   -4.5208 H   0  0  0  0  0  0  0  0  0  0  0  0
   -1.3194   -1.1491   -3.0725 C   0  0  0  0  0  0  0  0  0  0  0  0
   -2.3631   -0.8608   -3.0806 H   0  0  0  0  0  0  0  0  0  0  0  0
   -0.6823    0.9911    1.2708 C   0  0  0  0  0  0  0  0  0  0  0  0
   -1.7204    1.2139    1.8939 O   0  0  0  0  0  0  0  0  0  0  0  0
    0.4448    1.6752    1.4912 N   0  0  0  0  0  0  0  0  0  0  0  0
    1.2198    1.4993    0.8615 H   0  0  0  0  0  0  0  0  0  0  0  0
    0.5921    2.7451    2.4751 C   0  0  0  0  0  0  0  0  0  0  0  0
   -0.0053    2.5233    3.3632 H   0  0  0  0  0  0  0  0  0  0  0  0
    1.6396    2.8411    2.7645 H   0  0  0  0  0  0  0  0  0  0  0  0
    0.2477    3.6869    2.0450 H   0  0  0  0  0  0  0  0  0  0  0  0
  5  6  2  0  0  0  0
  5  7  1  0  0  0  0
  2  3  1  0  0  0  0
  2  4  1  0  0  0  0
  2  5  1  0  0  0  0
  1  2  1  0  0  0  0
 22 23  2  0  0  0  0
 22 24  1  0  0  0  0
 20 21  1  0  0  0  0
 18 19  1  0  0  0  0
 18 20  1  0  0  0  0
 16 17  1  0  0  0  0
 16 18  1  0  0  0  0
 15 16  2  0  0  0  0
 14 15  1  0  0  0  0
 14 20  2  0  0  0  0
 11 12  1  0  0  0  0
 11 13  1  0  0  0  0
 11 14  1  0  0  0  0
  9 10  1  0  0  0  0
  9 11  1  0  0  0  0
  9 22  1  0  0  0  0
  7  8  1  0  0  0  0
  7  9  1  0  0  0  0
 26 27  1  0  0  0  0
 26 28  1  0  0  0  0
 26 29  1  0  0  0  0
 24 25  1  0  0  0  0
 24 26  1  0  0  0  0
M  END
$$$$
default_name
  -OEChem-01062215323D

 29 29  0     1  0  0  0  0  0999 V2000
   -2.9561   -3.9186    1.3887 H   0  0  0  0  0  0  0  0  0  0  0  0
   -3.1191   -2.9346    0.9517 C   0  0  0  0  0  0  0  0  0  0  0  0
   -3.7811   -2.3546    1.5917 H   0  0  0  0  0  0  0  0  0  0  0  0
   -3.5591   -3.0406   -0.0383 H   0  0  0  0  0  0  0  0  0  0  0  0
   -1.7921   -2.2226    0.8327 C   0  0  0  0  0  0  0  0  0  0  0  0
   -0.7611   -2.7766    1.1927 O   0  0  0  0  0  0  0  0  0  0  0  0
   -1.8201   -0.9926    0.3247 N   0  0  0  0  0  0  0  0  0  0  0  0
   -2.7141   -0.5816    0.0927 H   0  0  0  0  0  0  0  0  0  0  0  0
   -0.6481   -0.1156    0.2017 C   0  0  1  0  0  0  0  0  0  0  0  0
    0.2399   -0.7446    0.1120 H   0  0  0  0  0  0  0  0  0  0  0  0
   -0.7672    0.7351   -1.0777 C   0  0  0  0  0  0  0  0  0  0  0  0
   -1.7075    1.2883   -1.0671 H   0  0  0  0  0  0  0  0  0  0  0  0
    0.0427    1.4651   -1.1123 H   0  0  0  0  0  0  0  0  0  0  0  0
   -0.7494   -0.0951   -2.3381 C   0  0  0  0  0  0  0  0  0  0  0  0
    0.3743   -0.6999   -2.9028 N   0  0  0  0  0  0  0  0  0  0  0  0
   -0.0679   -1.3715   -3.9760 C   0  0  0  0  0  0  0  0  0  0  0  0
    0.5639   -1.9434   -4.6439 H   0  0  0  0  0  0  0  0  0  0  0  0
   -1.3997   -1.2405   -4.0957 N   0  0  0  0  0  0  0  0  0  0  0  0
   -1.9689   -1.6690   -4.8128 H   0  0  0  0  0  0  0  0  0  0  0  0
   -1.8488   -0.4411   -3.0681 C   0  0  0  0  0  0  0  0  0  0  0  0
   -2.8698   -0.1517   -2.8532 H   0  0  0  0  0  0  0  0  0  0  0  0
   -0.4772    0.7444    1.4666 C   0  0  0  0  0  0  0  0  0  0  0  0
   -1.2681    0.6274    2.4027 O   0  0  0  0  0  0  0  0  0  0  0  0
    0.5521    1.5966    1.5024 N   0  0  0  0  0  0  0  0  0  0  0  0
    1.0890    1.7050    0.6492 H   0  0  0  0  0  0  0  0  0  0  0  0
    0.8690    2.4748    2.6262 C   0  0  0  0  0  0  0  0  0  0  0  0
    0.6391    1.9742    3.5703 H   0  0  0  0  0  0  0  0  0  0  0  0
    1.9288    2.7329    2.6079 H   0  0  0  0  0  0  0  0  0  0  0  0
    0.2733    3.3864    2.5567 H   0  0  0  0  0  0  0  0  0  0  0  0
  5  6  2  0  0  0  0
  5  7  1  0  0  0  0
  2  3  1  0  0  0  0
  2  4  1  0  0  0  0
  2  5  1  0  0  0  0
  1  2  1  0  0  0  0
 22 23  2  0  0  0  0
 22 24  1  0  0  0  0
 20 21  1  0  0  0  0
 18 19  1  0  0  0  0
 18 20  1  0  0  0  0
 16 17  1  0  0  0  0
 16 18  1  0  0  0  0
 15 16  2  0  0  0  0
 14 15  1  0  0  0  0
 14 20  2  0  0  0  0
 11 12  1  0  0  0  0
 11 13  1  0  0  0  0
 11 14  1  0  0  0  0
  9 10  1  0  0  0  0
  9 11  1  0  0  0  0
  9 22  1  0  0  0  0
  7  8  1  0  0  0  0
  7  9  1  0  0  0  0
 26 27  1  0  0  0  0
 26 28  1  0  0  0  0
 26 29  1  0  0  0  0
 24 25  1  0  0  0  0
 24 26  1  0  0  0  0
M  END
$$$$
default_name
  -OEChem-01062215323D

 29 29  0     1  0  0  0  0  0999 V2000
   -2.9561   -3.9186    1.3887 H   0  0  0  0  0  0  0  0  0  0  0  0
   -3.1191   -2.9346    0.9517 C   0  0  0  0  0  0  0  0  0  0  0  0
   -3.7811   -2.3546    1.5917 H   0  0  0  0  0  0  0  0  0  0  0  0
   -3.5591   -3.0406   -0.0383 H   0  0  0  0  0  0  0  0  0  0  0  0
   -1.7921   -2.2226    0.8327 C   0  0  0  0  0  0  0  0  0  0  0  0
   -0.7611   -2.7766    1.1927 O   0  0  0  0  0  0  0  0  0  0  0  0
   -1.8201   -0.9926    0.3247 N   0  0  0  0  0  0  0  0  0  0  0  0
   -2.7141   -0.5816    0.0927 H   0  0  0  0  0  0  0  0  0  0  0  0
   -0.6481   -0.1156    0.2017 C   0  0  1  0  0  0  0  0  0  0  0  0
    0.2399   -0.7446    0.1120 H   0  0  0  0  0  0  0  0  0  0  0  0
   -0.7672    0.7351   -1.0777 C   0  0  0  0  0  0  0  0  0  0  0  0
   -1.7075    1.2883   -1.0671 H   0  0  0  0  0  0  0  0  0  0  0  0
    0.0427    1.4651   -1.1123 H   0  0  0  0  0  0  0  0  0  0  0  0
   -0.7494   -0.0951   -2.3381 C   0  0  0  0  0  0  0  0  0  0  0  0
    0.3743   -0.6999   -2.9028 N   0  0  0  0  0  0  0  0  0  0  0  0
   -0.0679   -1.3715   -3.9760 C   0  0  0  0  0  0  0  0  0  0  0  0
    0.5639   -1.9434   -4.6439 H   0  0  0  0  0  0  0  0  0  0  0  0
   -1.3997   -1.2405   -4.0957 N   0  0  0  0  0  0  0  0  0  0  0  0
   -1.9689   -1.6690   -4.8128 H   0  0  0  0  0  0  0  0  0  0  0  0
   -1.8488   -0.4411   -3.0681 C   0  0  0  0  0  0  0  0  0  0  0  0
   -2.8698   -0.1517   -2.8532 H   0  0  0  0  0  0  0  0  0  0  0  0
   -0.4772    0.7444    1.4666 C   0  0  0  0  0  0  0  0  0  0  0  0
   -1.0786    0.4480    2.4990 O   0  0  0  0  0  0  0  0  0  0  0  0
    0.3432    1.7973    1.3942 N   0  0  0  0  0  0  0  0  0  0  0  0
    0.7132    2.0297    0.4793 H   0  0  0  0  0  0  0  0  0  0  0  0
    0.6306    2.7082    2.4997 C   0  0  0  0  0  0  0  0  0  0  0  0
    0.6533    2.1577    3.4437 H   0  0  0  0  0  0  0  0  0  0  0  0
    1.5976    3.1882    2.3431 H   0  0  0  0  0  0  0  0  0  0  0  0
   -0.1473    3.4715    2.5558 H   0  0  0  0  0  0  0  0  0  0  0  0
  5  6  2  0  0  0  0
  5  7  1  0  0  0  0
  2  3  1  0  0  0  0
  2  4  1  0  0  0  0
  2  5  1  0  0  0  0
  1  2  1  0  0  0  0
 22 23  2  0  0  0  0
 22 24  1  0  0  0  0
 20 21  1  0  0  0  0
 18 19  1  0  0  0  0
 18 20  1  0  0  0  0
 16 17  1  0  0  0  0
 16 18  1  0  0  0  0
 15 16  2  0  0  0  0
 14 15  1  0  0  0  0
 14 20  2  0  0  0  0
 11 12  1  0  0  0  0
 11 13  1  0  0  0  0
 11 14  1  0  0  0  0
  9 10  1  0  0  0  0
  9 11  1  0  0  0  0
  9 22  1  0  0  0  0
  7  8  1  0  0  0  0
  7  9  1  0  0  0  0
 26 27  1  0  0  0  0
 26 28  1  0  0  0  0
 26 29  1  0  0  0  0
 24 25  1  0  0  0  0
 24 26  1  0  0  0  0
M  END
$$$$
default_name
  -OEChem-01062215323D

 29 29  0     1  0  0  0  0  0999 V2000
   -2.9561   -3.9186    1.3887 H   0  0  0  0  0  0  0  0  0  0  0  0
   -3.1191   -2.9346    0.9517 C   0  0  0  0  0  0  0  0  0  0  0  0
   -3.7811   -2.3546    1.5917 H   0  0  0  0  0  0  0  0  0  0  0  0
   -3.5591   -3.0406   -0.0383 H   0  0  0  0  0  0  0  0  0  0  0  0
   -1.7921   -2.2226    0.8327 C   0  0  0  0  0  0  0  0  0  0  0  0
   -0.7611   -2.7766    1.1927 O   0  0  0  0  0  0  0  0  0  0  0  0
   -1.8201   -0.9926    0.3247 N   0  0  0  0  0  0  0  0  0  0  0  0
   -2.7141   -0.5816    0.0927 H   0  0  0  0  0  0  0  0  0  0  0  0
   -0.6481   -0.1156    0.2017 C   0  0  1  0  0  0  0  0  0  0  0  0
    0.2399   -0.7446    0.1120 H   0  0  0  0  0  0  0  0  0  0  0  0
   -0.7672    0.7351   -1.0777 C   0  0  0  0  0  0  0  0  0  0  0  0
   -1.7075    1.2883   -1.0671 H   0  0  0  0  0  0  0  0  0  0  0  0
    0.0427    1.4651   -1.1123 H   0  0  0  0  0  0  0  0  0  0  0  0
   -0.7494   -0.0951   -2.3381 C   0  0  0  0  0  0  0  0  0  0  0  0
    0.3743   -0.6999   -2.9028 N   0  0  0  0  0  0  0  0  0  0  0  0
   -0.0679   -1.3715   -3.9760 C   0  0  0  0  0  0  0  0  0  0  0  0
    0.5639   -1.9434   -4.6439 H   0  0  0  0  0  0  0  0  0  0  0  0
   -1.3997   -1.2405   -4.0957 N   0  0  0  0  0  0  0  0  0  0  0  0
   -1.9689   -1.6690   -4.8128 H   0  0  0  0  0  0  0  0  0  0  0  0
   -1.8488   -0.4411   -3.0681 C   0  0  0  0  0  0  0  0  0  0  0  0
   -2.8698   -0.1517   -2.8532 H   0  0  0  0  0  0  0  0  0  0  0  0
   -0.4772    0.7444    1.4666 C   0  0  0  0  0  0  0  0  0  0  0  0
   -0.8434    0.3122    2.5596 O   0  0  0  0  0  0  0  0  0  0  0  0
    0.0832    1.9498    1.3257 N   0  0  0  0  0  0  0  0  0  0  0  0
    0.2566    2.2682    0.3788 H   0  0  0  0  0  0  0  0  0  0  0  0
    0.3323    2.8866    2.4188 C   0  0  0  0  0  0  0  0  0  0  0  0
    0.6097    2.3415    3.3246 H   0  0  0  0  0  0  0  0  0  0  0  0
    1.1426    3.5652    2.1483 H   0  0  0  0  0  0  0  0  0  0  0  0
   -0.5719    3.4641    2.6181 H   0  0  0  0  0  0  0  0  0  0  0  0
  5  6  2  0  0  0  0
  5  7  1  0  0  0  0
  2  3  1  0  0  0  0
  2  4  1  0  0  0  0
  2  5  1  0  0  0  0
  1  2  1  0  0  0  0
 22 23  2  0  0  0  0
 22 24  1  0  0  0  0
 20 21  1  0  0  0  0
 18 19  1  0  0  0  0
 18 20  1  0  0  0  0
 16 17  1  0  0  0  0
 16 18  1  0  0  0  0
 15 16  2  0  0  0  0
 14 15  1  0  0  0  0
 14 20  2  0  0  0  0
 11 12  1  0  0  0  0
 11 13  1  0  0  0  0
 11 14  1  0  0  0  0
  9 10  1  0  0  0  0
  9 11  1  0  0  0  0
  9 22  1  0  0  0  0
  7  8  1  0  0  0  0
  7  9  1  0  0  0  0
 26 27  1  0  0  0  0
 26 28  1  0  0  0  0
 26 29  1  0  0  0  0
 24 25  1  0  0  0  0
 24 26  1  0  0  0  0
M  END
$$$$
default_name
  -OEChem-01062215323D

 29 29  0     1  0  0  0  0  0999 V2000
   -2.9561   -3.9186    1.3887 H   0  0  0  0  0  0  0  0  0  0  0  0
   -3.1191   -2.9346    0.9517 C   0  0  0  0  0  0  0  0  0  0  0  0
   -3.7811   -2.3546    1.5917 H   0  0  0  0  0  0  0  0  0  0  0  0
   -3.5591   -3.0406   -0.0383 H   0  0  0  0  0  0  0  0  0  0  0  0
   -1.7921   -2.2226    0.8327 C   0  0  0  0  0  0  0  0  0  0  0  0
   -0.7611   -2.7766    1.1927 O   0  0  0  0  0  0  0  0  0  0  0  0
   -1.8201   -0.9926    0.3247 N   0  0  0  0  0  0  0  0  0  0  0  0
   -2.7141   -0.5816    0.0927 H   0  0  0  0  0  0  0  0  0  0  0  0
   -0.6481   -0.1156    0.2017 C   0  0  1  0  0  0  0  0  0  0  0  0
    0.2399   -0.7446    0.1120 H   0  0  0  0  0  0  0  0  0  0  0  0
   -0.7672    0.7351   -1.0777 C   0  0  0  0  0  0  0  0  0  0  0  0
   -1.7075    1.2883   -1.0671 H   0  0  0  0  0  0  0  0  0  0  0  0
    0.0427    1.4651   -1.1123 H   0  0  0  0  0  0  0  0  0  0  0  0
   -0.7494   -0.0951   -2.3381 C   0  0  0  0  0  0  0  0  0  0  0  0
    0.3743   -0.6999   -2.9028 N   0  0  0  0  0  0  0  0  0  0  0  0
   -0.0679   -1.3715   -3.9760 C   0  0  0  0  0  0  0  0  0  0  0  0
    0.5639   -1.9434   -4.6439 H   0  0  0  0  0  0  0  0  0  0  0  0
   -1.3997   -1.2405   -4.0957 N   0  0  0  0  0  0  0  0  0  0  0  0
   -1.9689   -1.6690   -4.8128 H   0  0  0  0  0  0  0  0  0  0  0  0
   -1.8488   -0.4411   -3.0681 C   0  0  0  0  0  0  0  0  0  0  0  0
   -2.8698   -0.1517   -2.8532 H   0  0  0  0  0  0  0  0  0  0  0  0
   -0.4772    0.7444    1.4666 C   0  0  0  0  0  0  0  0  0  0  0  0
   -0.5786    0.2293    2.5801 O   0  0  0  0  0  0  0  0  0  0  0  0
   -0.2103    2.0438    1.3015 N   0  0  0  0  0  0  0  0  0  0  0  0
   -0.2497    2.4044    0.3547 H   0  0  0  0  0  0  0  0  0  0  0  0
   -0.0054    2.9979    2.3888 C   0  0  0  0  0  0  0  0  0  0  0  0
    0.5113    2.5132    3.2212 H   0  0  0  0  0  0  0  0  0  0  0  0
    0.5948    3.8381    2.0368 H   0  0  0  0  0  0  0  0  0  0  0  0
   -0.9713    3.3650    2.7396 H   0  0  0  0  0  0  0  0  0  0  0  0
  5  6  2  0  0  0  0
  5  7  1  0  0  0  0
  2  3  1  0  0  0  0
  2  4  1  0  0  0  0
  2  5  1  0  0  0  0
  1  2  1  0  0  0  0
 22 23  2  0  0  0  0
 22 24  1  0  0  0  0
 20 21  1  0  0  0  0
 18 19  1  0  0  0  0
 18 20  1  0  0  0  0
 16 17  1  0  0  0  0
 16 18  1  0  0  0  0
 15 16  2  0  0  0  0
 14 15  1  0  0  0  0
 14 20  2  0  0  0  0
 11 12  1  0  0  0  0
 11 13  1  0  0  0  0
 11 14  1  0  0  0  0
  9 10  1  0  0  0  0
  9 11  1  0  0  0  0
  9 22  1  0  0  0  0
  7  8  1  0  0  0  0
  7  9  1  0  0  0  0
 26 27  1  0  0  0  0
 26 28  1  0  0  0  0
 26 29  1  0  0  0  0
 24 25  1  0  0  0  0
 24 26  1  0  0  0  0
M  END
$$$$
default_name
  -OEChem-01062215323D

 29 29  0     1  0  0  0  0  0999 V2000
   -2.9561   -3.9186    1.3887 H   0  0  0  0  0  0  0  0  0  0  0  0
   -3.1191   -2.9346    0.9517 C   0  0  0  0  0  0  0  0  0  0  0  0
   -3.7811   -2.3546    1.5917 H   0  0  0  0  0  0  0  0  0  0  0  0
   -3.5591   -3.0406   -0.0383 H   0  0  0  0  0  0  0  0  0  0  0  0
   -1.7921   -2.2226    0.8327 C   0  0  0  0  0  0  0  0  0  0  0  0
   -0.7611   -2.7766    1.1927 O   0  0  0  0  0  0  0  0  0  0  0  0
   -1.8201   -0.9926    0.3247 N   0  0  0  0  0  0  0  0  0  0  0  0
   -2.7141   -0.5816    0.0927 H   0  0  0  0  0  0  0  0  0  0  0  0
   -0.6481   -0.1156    0.2017 C   0  0  1  0  0  0  0  0  0  0  0  0
    0.2399   -0.7446    0.1120 H   0  0  0  0  0  0  0  0  0  0  0  0
   -0.7672    0.7351   -1.0777 C   0  0  0  0  0  0  0  0  0  0  0  0
   -1.7075    1.2883   -1.0671 H   0  0  0  0  0  0  0  0  0  0  0  0
    0.0427    1.4651   -1.1123 H   0  0  0  0  0  0  0  0  0  0  0  0
   -0.7494   -0.0951   -2.3381 C   0  0  0  0  0  0  0  0  0  0  0  0
    0.3743   -0.6999   -2.9028 N   0  0  0  0  0  0  0  0  0  0  0  0
   -0.0679   -1.3715   -3.9760 C   0  0  0  0  0  0  0  0  0  0  0  0
    0.5639   -1.9434   -4.6439 H   0  0  0  0  0  0  0  0  0  0  0  0
   -1.3997   -1.2405   -4.0957 N   0  0  0  0  0  0  0  0  0  0  0  0
   -1.9689   -1.6690   -4.8128 H   0  0  0  0  0  0  0  0  0  0  0  0
   -1.8488   -0.4411   -3.0681 C   0  0  0  0  0  0  0  0  0  0  0  0
   -2.8698   -0.1517   -2.8532 H   0  0  0  0  0  0  0  0  0  0  0  0
   -0.4772    0.7444    1.4666 C   0  0  0  0  0  0  0  0  0  0  0  0
   -0.3022    0.2050    2.5593 O   0  0  0  0  0  0  0  0  0  0  0  0
   -0.5174    2.0728    1.3232 N   0  0  0  0  0  0  0  0  0  0  0  0
   -0.7712    2.4289    0.4085 H   0  0  0  0  0  0  0  0  0  0  0  0
   -0.3596    3.0343    2.4119 C   0  0  0  0  0  0  0  0  0  0  0  0
    0.3647    2.6611    3.1405 H   0  0  0  0  0  0  0  0  0  0  0  0
   -0.0086    3.9884    2.0162 H   0  0  0  0  0  0  0  0  0  0  0  0
   -1.3185    3.1807    2.9118 H   0  0  0  0  0  0  0  0  0  0  0  0
  5  6  2  0  0  0  0
  5  7  1  0  0  0  0
  2  3  1  0  0  0  0
  2  4  1  0  0  0  0
  2  5  1  0  0  0  0
  1  2  1  0  0  0  0
 22 23  2  0  0  0  0
 22 24  1  0  0  0  0
 20 21  1  0  0  0  0
 18 19  1  0  0  0  0
 18 20  1  0  0  0  0
 16 17  1  0  0  0  0
 16 18  1  0  0  0  0
 15 16  2  0  0  0  0
 14 15  1  0  0  0  0
 14 20  2  0  0  0  0
 11 12  1  0  0  0  0
 11 13  1  0  0  0  0
 11 14  1  0  0  0  0
  9 10  1  0  0  0  0
  9 11  1  0  0  0  0
  9 22  1  0  0  0  0
  7  8  1  0  0  0  0
  7  9  1  0  0  0  0
 26 27  1  0  0  0  0
 26 28  1  0  0  0  0
 26 29  1  0  0  0  0
 24 25  1  0  0  0  0
 24 26  1  0  0  0  0
M  END
$$$$
default_name
  -OEChem-01062215323D

 29 29  0     1  0  0  0  0  0999 V2000
   -2.9561   -3.9186    1.3887 H   0  0  0  0  0  0  0  0  0  0  0  0
   -3.1191   -2.9346    0.9517 C   0  0  0  0  0  0  0  0  0  0  0  0
   -3.7811   -2.3546    1.5917 H   0  0  0  0  0  0  0  0  0  0  0  0
   -3.5591   -3.0406   -0.0383 H   0  0  0  0  0  0  0  0  0  0  0  0
   -1.7921   -2.2226    0.8327 C   0  0  0  0  0  0  0  0  0  0  0  0
   -0.7611   -2.7766    1.1927 O   0  0  0  0  0  0  0  0  0  0  0  0
   -1.8201   -0.9926    0.3247 N   0  0  0  0  0  0  0  0  0  0  0  0
   -2.7141   -0.5816    0.0927 H   0  0  0  0  0  0  0  0  0  0  0  0
   -0.6481   -0.1156    0.2017 C   0  0  1  0  0  0  0  0  0  0  0  0
    0.2399   -0.7446    0.1120 H   0  0  0  0  0  0  0  0  0  0  0  0
   -0.7672    0.7351   -1.0777 C   0  0  0  0  0  0  0  0  0  0  0  0
   -1.7075    1.2883   -1.0671 H   0  0  0  0  0  0  0  0  0  0  0  0
    0.0427    1.4651   -1.1123 H   0  0  0  0  0  0  0  0  0  0  0  0
   -0.7494   -0.0951   -2.3381 C   0  0  0  0  0  0  0  0  0  0  0  0
    0.3743   -0.6999   -2.9028 N   0  0  0  0  0  0  0  0  0  0  0  0
   -0.0679   -1.3715   -3.9760 C   0  0  0  0  0  0  0  0  0  0  0  0
    0.5639   -1.9434   -4.6439 H   0  0  0  0  0  0  0  0  0  0  0  0
   -1.3997   -1.2405   -4.0957 N   0  0  0  0  0  0  0  0  0  0  0  0
   -1.9689   -1.6690   -4.8128 H   0  0  0  0  0  0  0  0  0  0  0  0
   -1.8488   -0.4411   -3.0681 C   0  0  0  0  0  0  0  0  0  0  0  0
   -2.8698   -0.1517   -2.8532 H   0  0  0  0  0  0  0  0  0  0  0  0
   -0.4772    0.7444    1.4666 C   0  0  0  0  0  0  0  0  0  0  0  0
   -0.0331    0.2409    2.4985 O   0  0  0  0  0  0  0  0  0  0  0  0
   -0.8170    2.0349    1.3895 N   0  0  0  0  0  0  0  0  0  0  0  0
   -1.2724    2.3401    0.5366 H   0  0  0  0  0  0  0  0  0  0  0  0
   -0.7062    2.9935    2.4865 C   0  0  0  0  0  0  0  0  0  0  0  0
    0.1800    2.7751    3.0879 H   0  0  0  0  0  0  0  0  0  0  0  0
   -0.6264    4.0058    2.0878 H   0  0  0  0  0  0  0  0  0  0  0  0
   -1.5898    2.9239    3.1230 H   0  0  0  0  0  0  0  0  0  0  0  0
  5  6  2  0  0  0  0
  5  7  1  0  0  0  0
  2  3  1  0  0  0  0
  2  4  1  0  0  0  0
  2  5  1  0  0  0  0
  1  2  1  0  0  0  0
 22 23  2  0  0  0  0
 22 24  1  0  0  0  0
 20 21  1  0  0  0  0
 18 19  1  0  0  0  0
 18 20  1  0  0  0  0
 16 17  1  0  0  0  0
 16 18  1  0  0  0  0
 15 16  2  0  0  0  0
 14 15  1  0  0  0  0
 14 20  2  0  0  0  0
 11 12  1  0  0  0  0
 11 13  1  0  0  0  0
 11 14  1  0  0  0  0
  9 10  1  0  0  0  0
  9 11  1  0  0  0  0
  9 22  1  0  0  0  0
  7  8  1  0  0  0  0
  7  9  1  0  0  0  0
 26 27  1  0  0  0  0
 26 28  1  0  0  0  0
 26 29  1  0  0  0  0
 24 25  1  0  0  0  0
 24 26  1  0  0  0  0
M  END
$$$$
default_name
  -OEChem-01062215323D

 29 29  0     1  0  0  0  0  0999 V2000
   -2.9561   -3.9186    1.3887 H   0  0  0  0  0  0  0  0  0  0  0  0
   -3.1191   -2.9346    0.9517 C   0  0  0  0  0  0  0  0  0  0  0  0
   -3.7811   -2.3546    1.5917 H   0  0  0  0  0  0  0  0  0  0  0  0
   -3.5591   -3.0406   -0.0383 H   0  0  0  0  0  0  0  0  0  0  0  0
   -1.7921   -2.2226    0.8327 C   0  0  0  0  0  0  0  0  0  0  0  0
   -0.7611   -2.7766    1.1927 O   0  0  0  0  0  0  0  0  0  0  0  0
   -1.8201   -0.9926    0.3247 N   0  0  0  0  0  0  0  0  0  0  0  0
   -2.7141   -0.5816    0.0927 H   0  0  0  0  0  0  0  0  0  0  0  0
   -0.6481   -0.1156    0.2017 C   0  0  1  0  0  0  0  0  0  0  0  0
    0.2399   -0.7446    0.1120 H   0  0  0  0  0  0  0  0  0  0  0  0
   -0.7672    0.7351   -1.0777 C   0  0  0  0  0  0  0  0  0  0  0  0
   -1.7075    1.2883   -1.0671 H   0  0  0  0  0  0  0  0  0  0  0  0
    0.0427    1.4651   -1.1123 H   0  0  0  0  0  0  0  0  0  0  0  0
   -0.7494   -0.0951   -2.3381 C   0  0  0  0  0  0  0  0  0  0  0  0
    0.3743   -0.6999   -2.9028 N   0  0  0  0  0  0  0  0  0  0  0  0
   -0.0679   -1.3715   -3.9760 C   0  0  0  0  0  0  0  0  0  0  0  0
    0.5639   -1.9434   -4.6439 H   0  0  0  0  0  0  0  0  0  0  0  0
   -1.3997   -1.2405   -4.0957 N   0  0  0  0  0  0  0  0  0  0  0  0
   -1.9689   -1.6690   -4.8128 H   0  0  0  0  0  0  0  0  0  0  0  0
   -1.8488   -0.4411   -3.0681 C   0  0  0  0  0  0  0  0  0  0  0  0
   -2.8698   -0.1517   -2.8532 H   0  0  0  0  0  0  0  0  0  0  0  0
   -0.4772    0.7444    1.4666 C   0  0  0  0  0  0  0  0  0  0  0  0
    0.2104    0.3346    2.4019 O   0  0  0  0  0  0  0  0  0  0  0  0
   -1.0887    1.9327    1.4957 N   0  0  0  0  0  0  0  0  0  0  0  0
   -1.7191    2.1441    0.7303 H   0  0  0  0  0  0  0  0  0  0  0  0
   -1.0215    2.8782    2.6075 C   0  0  0  0  0  0  0  0  0  0  0  0
   -0.0303    2.8474    3.0672 H   0  0  0  0  0  0  0  0  0  0  0  0
   -1.2164    3.8892    2.2469 H   0  0  0  0  0  0  0  0  0  0  0  0
   -1.7667    2.6121    3.3589 H   0  0  0  0  0  0  0  0  0  0  0  0
  5  6  2  0  0  0  0
  5  7  1  0  0  0  0
  2  3  1  0  0  0  0
  2  4  1  0  0  0  0
  2  5  1  0  0  0  0
  1  2  1  0  0  0  0
 22 23  2  0  0  0  0
 22 24  1  0  0  0  0
 20 21  1  0  0  0  0
 18 19  1  0  0  0  0
 18 20  1  0  0  0  0
 16 17  1  0  0  0  0
 16 18  1  0  0  0  0
 15 16  2  0  0  0  0
 14 15  1  0  0  0  0
 14 20  2  0  0  0  0
 11 12  1  0  0  0  0
 11 13  1  0  0  0  0
 11 14  1  0  0  0  0
  9 10  1  0  0  0  0
  9 11  1  0  0  0  0
  9 22  1  0  0  0  0
  7  8  1  0  0  0  0
  7  9  1  0  0  0  0
 26 27  1  0  0  0  0
 26 28  1  0  0  0  0
 26 29  1  0  0  0  0
 24 25  1  0  0  0  0
 24 26  1  0  0  0  0
M  END
$$$$
default_name
  -OEChem-01062215323D

 29 29  0     1  0  0  0  0  0999 V2000
   -2.9561   -3.9186    1.3887 H   0  0  0  0  0  0  0  0  0  0  0  0
   -3.1191   -2.9346    0.9517 C   0  0  0  0  0  0  0  0  0  0  0  0
   -3.7811   -2.3546    1.5917 H   0  0  0  0  0  0  0  0  0  0  0  0
   -3.5591   -3.0406   -0.0383 H   0  0  0  0  0  0  0  0  0  0  0  0
   -1.7921   -2.2226    0.8327 C   0  0  0  0  0  0  0  0  0  0  0  0
   -0.7611   -2.7766    1.1927 O   0  0  0  0  0  0  0  0  0  0  0  0
   -1.8201   -0.9926    0.3247 N   0  0  0  0  0  0  0  0  0  0  0  0
   -2.7141   -0.5816    0.0927 H   0  0  0  0  0  0  0  0  0  0  0  0
   -0.6481   -0.1156    0.2017 C   0  0  1  0  0  0  0  0  0  0  0  0
    0.2399   -0.7446    0.1120 H   0  0  0  0  0  0  0  0  0  0  0  0
   -0.7672    0.7351   -1.0777 C   0  0  0  0  0  0  0  0  0  0  0  0
   -1.7075    1.2883   -1.0671 H   0  0  0  0  0  0  0  0  0  0  0  0
    0.0427    1.4651   -1.1123 H   0  0  0  0  0  0  0  0  0  0  0  0
   -0.7494   -0.0951   -2.3381 C   0  0  0  0  0  0  0  0  0  0  0  0
    0.3743   -0.6999   -2.9028 N   0  0  0  0  0  0  0  0  0  0  0  0
   -0.0679   -1.3715   -3.9760 C   0  0  0  0  0  0  0  0  0  0  0  0
    0.5639   -1.9434   -4.6439 H   0  0  0  0  0  0  0  0  0  0  0  0
   -1.3997   -1.2405   -4.0957 N   0  0  0  0  0  0  0  0  0  0  0  0
   -1.9689   -1.6690   -4.8128 H   0  0  0  0  0  0  0  0  0  0  0  0
   -1.8488   -0.4411   -3.0681 C   0  0  0  0  0  0  0  0  0  0  0  0
   -2.8698   -0.1517   -2.8532 H   0  0  0  0  0  0  0  0  0  0  0  0
   -0.4772    0.7444    1.4666 C   0  0  0  0  0  0  0  0  0  0  0  0
    0.4118    0.4797    2.2760 O   0  0  0  0  0  0  0  0  0  0  0  0
   -1.3141    1.7731    1.6347 N   0  0  0  0  0  0  0  0  0  0  0  0
   -2.0808    1.8541    0.9763 H   0  0  0  0  0  0  0  0  0  0  0  0
   -1.2840    2.6963    2.7666 C   0  0  0  0  0  0  0  0  0  0  0  0
   -0.2518    2.8732    3.0796 H   0  0  0  0  0  0  0  0  0  0  0  0
   -1.7386    3.6465    2.4825 H   0  0  0  0  0  0  0  0  0  0  0  0
   -1.8371    2.2665    3.6034 H   0  0  0  0  0  0  0  0  0  0  0  0
  5  6  2  0  0  0  0
  5  7  1  0  0  0  0
  2  3  1  0  0  0  0
  2  4  1  0  0  0  0
  2  5  1  0  0  0  0
  1  2  1  0  0  0  0
 22 23  2  0  0  0  0
 22 24  1  0  0  0  0
 20 21  1  0  0  0  0
 18 19  1  0  0  0  0
 18 20  1  0  0  0  0
 16 17  1  0  0  0  0
 16 18  1  0  0  0  0
 15 16  2  0  0  0  0
 14 15  1  0  0  0  0
 14 20  2  0  0  0  0
 11 12  1  0  0  0  0
 11 13  1  0  0  0  0
 11 14  1  0  0  0  0
  9 10  1  0  0  0  0
  9 11  1  0  0  0  0
  9 22  1  0  0  0  0
  7  8  1  0  0  0  0
  7  9  1  0  0  0  0
 26 27  1  0  0  0  0
 26 28  1  0  0  0  0
 26 29  1  0  0  0  0
 24 25  1  0  0  0  0
 24 26  1  0  0  0  0
M  END
$$$$
default_name
  -OEChem-01062215323D

 29 29  0     1  0  0  0  0  0999 V2000
   -2.9561   -3.9186    1.3887 H   0  0  0  0  0  0  0  0  0  0  0  0
   -3.1191   -2.9346    0.9517 C   0  0  0  0  0  0  0  0  0  0  0  0
   -3.7811   -2.3546    1.5917 H   0  0  0  0  0  0  0  0  0  0  0  0
   -3.5591   -3.0406   -0.0383 H   0  0  0  0  0  0  0  0  0  0  0  0
   -1.7921   -2.2226    0.8327 C   0  0  0  0  0  0  0  0  0  0  0  0
   -0.7611   -2.7766    1.1927 O   0  0  0  0  0  0  0  0  0  0  0  0
   -1.8201   -0.9926    0.3247 N   0  0  0  0  0  0  0  0  0  0  0  0
   -2.7141   -0.5816    0.0927 H   0  0  0  0  0  0  0  0  0  0  0  0
   -0.6481   -0.1156    0.2017 C   0  0  1  0  0  0  0  0  0  0  0  0
    0.2399   -0.7446    0.1120 H   0  0  0  0  0  0  0  0  0  0  0  0
   -0.7672    0.7351   -1.0777 C   0  0  0  0  0  0  0  0  0  0  0  0
   -1.7075    1.2883   -1.0671 H   0  0  0  0  0  0  0  0  0  0  0  0
    0.0427    1.4651   -1.1123 H   0  0  0  0  0  0  0  0  0  0  0  0
   -0.7494   -0.0951   -2.3381 C   0  0  0  0  0  0  0  0  0  0  0  0
    0.3743   -0.6999   -2.9028 N   0  0  0  0  0  0  0  0  0  0  0  0
   -0.0679   -1.3715   -3.9760 C   0  0  0  0  0  0  0  0  0  0  0  0
    0.5639   -1.9434   -4.6439 H   0  0  0  0  0  0  0  0  0  0  0  0
   -1.3997   -1.2405   -4.0957 N   0  0  0  0  0  0  0  0  0  0  0  0
   -1.9689   -1.6690   -4.8128 H   0  0  0  0  0  0  0  0  0  0  0  0
   -1.8488   -0.4411   -3.0681 C   0  0  0  0  0  0  0  0  0  0  0  0
   -2.8698   -0.1517   -2.8532 H   0  0  0  0  0  0  0  0  0  0  0  0
   -0.4772    0.7444    1.4666 C   0  0  0  0  0  0  0  0  0  0  0  0
    0.5572    0.6662    2.1296 O   0  0  0  0  0  0  0  0  0  0  0  0
   -1.4777    1.5670    1.7969 N   0  0  0  0  0  0  0  0  0  0  0  0
   -2.3330    1.4900    1.2579 H   0  0  0  0  0  0  0  0  0  0  0  0
   -1.4759    2.4602    2.9531 C   0  0  0  0  0  0  0  0  0  0  0  0
   -0.4694    2.8506    3.1244 H   0  0  0  0  0  0  0  0  0  0  0  0
   -2.1572    3.2941    2.7786 H   0  0  0  0  0  0  0  0  0  0  0  0
   -1.7962    1.9107    3.8398 H   0  0  0  0  0  0  0  0  0  0  0  0
  5  6  2  0  0  0  0
  5  7  1  0  0  0  0
  2  3  1  0  0  0  0
  2  4  1  0  0  0  0
  2  5  1  0  0  0  0
  1  2  1  0  0  0  0
 22 23  2  0  0  0  0
 22 24  1  0  0  0  0
 20 21  1  0  0  0  0
 18 19  1  0  0  0  0
 18 20  1  0  0  0  0
 16 17  1  0  0  0  0
 16 18  1  0  0  0  0
 15 16  2  0  0  0  0
 14 15  1  0  0  0  0
 14 20  2  0  0  0  0
 11 12  1  0  0  0  0
 11 13  1  0  0  0  0
 11 14  1  0  0  0  0
  9 10  1  0  0  0  0
  9 11  1  0  0  0  0
  9 22  1  0  0  0  0
  7  8  1  0  0  0  0
  7  9  1  0  0  0  0
 26 27  1  0  0  0  0
 26 28  1  0  0  0  0
 26 29  1  0  0  0  0
 24 25  1  0  0  0  0
 24 26  1  0  0  0  0
M  END
$$$$
default_name
  -OEChem-01062215323D

 29 29  0     1  0  0  0  0  0999 V2000
   -2.9561   -3.9186    1.3887 H   0  0  0  0  0  0  0  0  0  0  0  0
   -3.1191   -2.9346    0.9517 C   0  0  0  0  0  0  0  0  0  0  0  0
   -3.7811   -2.3546    1.5917 H   0  0  0  0  0  0  0  0  0  0  0  0
   -3.5591   -3.0406   -0.0383 H   0  0  0  0  0  0  0  0  0  0  0  0
   -1.7921   -2.2226    0.8327 C   0  0  0  0  0  0  0  0  0  0  0  0
   -0.7611   -2.7766    1.1927 O   0  0  0  0  0  0  0  0  0  0  0  0
   -1.8201   -0.9926    0.3247 N   0  0  0  0  0  0  0  0  0  0  0  0
   -2.7141   -0.5816    0.0927 H   0  0  0  0  0  0  0  0  0  0  0  0
   -0.6481   -0.1156    0.2017 C   0  0  1  0  0  0  0  0  0  0  0  0
    0.2399   -0.7446    0.1120 H   0  0  0  0  0  0  0  0  0  0  0  0
   -0.7672    0.7351   -1.0777 C   0  0  0  0  0  0  0  0  0  0  0  0
   -1.7075    1.2883   -1.0671 H   0  0  0  0  0  0  0  0  0  0  0  0
    0.0427    1.4651   -1.1123 H   0  0  0  0  0  0  0  0  0  0  0  0
   -0.7494   -0.0951   -2.3381 C   0  0  0  0  0  0  0  0  0  0  0  0
    0.3743   -0.6999   -2.9028 N   0  0  0  0  0  0  0  0  0  0  0  0
   -0.0679   -1.3715   -3.9760 C   0  0  0  0  0  0  0  0  0  0  0  0
    0.5639   -1.9434   -4.6439 H   0  0  0  0  0  0  0  0  0  0  0  0
   -1.3997   -1.2405   -4.0957 N   0  0  0  0  0  0  0  0  0  0  0  0
   -1.9689   -1.6690   -4.8128 H   0  0  0  0  0  0  0  0  0  0  0  0
   -1.8488   -0.4411   -3.0681 C   0  0  0  0  0  0  0  0  0  0  0  0
   -2.8698   -0.1517   -2.8532 H   0  0  0  0  0  0  0  0  0  0  0  0
   -0.4772    0.7444    1.4666 C   0  0  0  0  0  0  0  0  0  0  0  0
    0.6368    0.8816    1.9724 O   0  0  0  0  0  0  0  0  0  0  0  0
   -1.5685    1.3284    1.9714 N   0  0  0  0  0  0  0  0  0  0  0  0
   -2.4584    1.0766    1.5559 H   0  0  0  0  0  0  0  0  0  0  0  0
   -1.5840    2.1860    3.1542 C   0  0  0  0  0  0  0  0  0  0  0  0
   -0.6683    2.7811    3.1985 H   0  0  0  0  0  0  0  0  0  0  0  0
   -2.4438    2.8563    3.1150 H   0  0  0  0  0  0  0  0  0  0  0  0
   -1.6469    1.5689    4.0519 H   0  0  0  0  0  0  0  0  0  0  0  0
  5  6  2  0  0  0  0
  5  7  1  0  0  0  0
  2  3  1  0  0  0  0
  2  4  1  0  0  0  0
  2  5  1  0  0  0  0
  1  2  1  0  0  0  0
 22 23  2  0  0  0  0
 22 24  1  0  0  0  0
 20 21  1  0  0  0  0
 18 19  1  0  0  0  0
 18 20  1  0  0  0  0
 16 17  1  0  0  0  0
 16 18  1  0  0  0  0
 15 16  2  0  0  0  0
 14 15  1  0  0  0  0
 14 20  2  0  0  0  0
 11 12  1  0  0  0  0
 11 13  1  0  0  0  0
 11 14  1  0  0  0  0
  9 10  1  0  0  0  0
  9 11  1  0  0  0  0
  9 22  1  0  0  0  0
  7  8  1  0  0  0  0
  7  9  1  0  0  0  0
 26 27  1  0  0  0  0
 26 28  1  0  0  0  0
 26 29  1  0  0  0  0
 24 25  1  0  0  0  0
 24 26  1  0  0  0  0
M  END
$$$$
default_name
  -OEChem-01062215323D

 29 29  0     1  0  0  0  0  0999 V2000
   -2.9561   -3.9186    1.3887 H   0  0  0  0  0  0  0  0  0  0  0  0
   -3.1191   -2.9346    0.9517 C   0  0  0  0  0  0  0  0  0  0  0  0
   -3.7811   -2.3546    1.5917 H   0  0  0  0  0  0  0  0  0  0  0  0
   -3.5591   -3.0406   -0.0383 H   0  0  0  0  0  0  0  0  0  0  0  0
   -1.7921   -2.2226    0.8327 C   0  0  0  0  0  0  0  0  0  0  0  0
   -0.7611   -2.7766    1.1927 O   0  0  0  0  0  0  0  0  0  0  0  0
   -1.8201   -0.9926    0.3247 N   0  0  0  0  0  0  0  0  0  0  0  0
   -2.7141   -0.5816    0.0927 H   0  0  0  0  0  0  0  0  0  0  0  0
   -0.6481   -0.1156    0.2017 C   0  0  1  0  0  0  0  0  0  0  0  0
    0.2399   -0.7446    0.1120 H   0  0  0  0  0  0  0  0  0  0  0  0
   -0.7672    0.7351   -1.0777 C   0  0  0  0  0  0  0  0  0  0  0  0
   -1.7075    1.2883   -1.0671 H   0  0  0  0  0  0  0  0  0  0  0  0
    0.0427    1.4651   -1.1123 H   0  0  0  0  0  0  0  0  0  0  0  0
   -0.7494   -0.0951   -2.3381 C   0  0  0  0  0  0  0  0  0  0  0  0
    0.3743   -0.6999   -2.9028 N   0  0  0  0  0  0  0  0  0  0  0  0
   -0.0679   -1.3715   -3.9760 C   0  0  0  0  0  0  0  0  0  0  0  0
    0.5639   -1.9434   -4.6439 H   0  0  0  0  0  0  0  0  0  0  0  0
   -1.3997   -1.2405   -4.0957 N   0  0  0  0  0  0  0  0  0  0  0  0
   -1.9689   -1.6690   -4.8128 H   0  0  0  0  0  0  0  0  0  0  0  0
   -1.8488   -0.4411   -3.0681 C   0  0  0  0  0  0  0  0  0  0  0  0
   -2.8698   -0.1517   -2.8532 H   0  0  0  0  0  0  0  0  0  0  0  0
   -0.4772    0.7444    1.4666 C   0  0  0  0  0  0  0  0  0  0  0  0
    0.6451    1.1110    1.8153 O   0  0  0  0  0  0  0  0  0  0  0  0
   -1.5802    1.0737    2.1462 N   0  0  0  0  0  0  0  0  0  0  0  0
   -2.4485    0.6420    1.8500 H   0  0  0  0  0  0  0  0  0  0  0  0
   -1.6011    1.8923    3.3561 C   0  0  0  0  0  0  0  0  0  0  0  0
   -0.8350    2.6697    3.2968 H   0  0  0  0  0  0  0  0  0  0  0  0
   -2.5789    2.3627    3.4688 H   0  0  0  0  0  0  0  0  0  0  0  0
   -1.3992    1.2644    4.2255 H   0  0  0  0  0  0  0  0  0  0  0  0
  5  6  2  0  0  0  0
  5  7  1  0  0  0  0
  2  3  1  0  0  0  0
  2  4  1  0  0  0  0
  2  5  1  0  0  0  0
  1  2  1  0  0  0  0
 22 23  2  0  0  0  0
 22 24  1  0  0  0  0
 20 21  1  0  0  0  0
 18 19  1  0  0  0  0
 18 20  1  0  0  0  0
 16 17  1  0  0  0  0
 16 18  1  0  0  0  0
 15 16  2  0  0  0  0
 14 15  1  0  0  0  0
 14 20  2  0  0  0  0
 11 12  1  0  0  0  0
 11 13  1  0  0  0  0
 11 14  1  0  0  0  0
  9 10  1  0  0  0  0
  9 11  1  0  0  0  0
  9 22  1  0  0  0  0
  7  8  1  0  0  0  0
  7  9  1  0  0  0  0
 26 27  1  0  0  0  0
 26 28  1  0  0  0  0
 26 29  1  0  0  0  0
 24 25  1  0  0  0  0
 24 26  1  0  0  0  0
M  END
$$$$
default_name
  -OEChem-01062215323D

 29 29  0     1  0  0  0  0  0999 V2000
   -2.9561   -3.9186    1.3887 H   0  0  0  0  0  0  0  0  0  0  0  0
   -3.1191   -2.9346    0.9517 C   0  0  0  0  0  0  0  0  0  0  0  0
   -3.7811   -2.3546    1.5917 H   0  0  0  0  0  0  0  0  0  0  0  0
   -3.5591   -3.0406   -0.0383 H   0  0  0  0  0  0  0  0  0  0  0  0
   -1.7921   -2.2226    0.8327 C   0  0  0  0  0  0  0  0  0  0  0  0
   -0.7611   -2.7766    1.1927 O   0  0  0  0  0  0  0  0  0  0  0  0
   -1.8201   -0.9926    0.3247 N   0  0  0  0  0  0  0  0  0  0  0  0
   -2.7141   -0.5816    0.0927 H   0  0  0  0  0  0  0  0  0  0  0  0
   -0.6481   -0.1156    0.2017 C   0  0  1  0  0  0  0  0  0  0  0  0
    0.2399   -0.7446    0.1120 H   0  0  0  0  0  0  0  0  0  0  0  0
   -0.7672    0.7351   -1.0777 C   0  0  0  0  0  0  0  0  0  0  0  0
   -1.7075    1.2883   -1.0671 H   0  0  0  0  0  0  0  0  0  0  0  0
    0.0427    1.4651   -1.1123 H   0  0  0  0  0  0  0  0  0  0  0  0
   -0.7494   -0.0951   -2.3381 C   0  0  0  0  0  0  0  0  0  0  0  0
    0.3743   -0.6999   -2.9028 N   0  0  0  0  0  0  0  0  0  0  0  0
   -0.0679   -1.3715   -3.9760 C   0  0  0  0  0  0  0  0  0  0  0  0
    0.5639   -1.9434   -4.6439 H   0  0  0  0  0  0  0  0  0  0  0  0
   -1.3997   -1.2405   -4.0957 N   0  0  0  0  0  0  0  0  0  0  0  0
   -1.9689   -1.6690   -4.8128 H   0  0  0  0  0  0  0  0  0  0  0  0
   -1.8488   -0.4411   -3.0681 C   0  0  0  0  0  0  0  0  0  0  0  0
   -2.8698   -0.1517   -2.8532 H   0  0  0  0  0  0  0  0  0  0  0  0
   -0.4772    0.7444    1.4666 C   0  0  0  0  0  0  0  0  0  0  0  0
    0.5816    1.3390    1.6689 O   0  0  0  0  0  0  0  0  0  0  0  0
   -1.5120    0.8201    2.3094 N   0  0  0  0  0  0  0  0  0  0  0  0
   -2.3040    0.2159    2.1202 H   0  0  0  0  0  0  0  0  0  0  0  0
   -1.5259    1.5992    3.5452 C   0  0  0  0  0  0  0  0  0  0  0  0
   -0.9580    2.5237    3.4127 H   0  0  0  0  0  0  0  0  0  0  0  0
   -2.5532    1.8470    3.8160 H   0  0  0  0  0  0  0  0  0  0  0  0
   -1.0701    1.0180    4.3485 H   0  0  0  0  0  0  0  0  0  0  0  0
  5  6  2  0  0  0  0
  5  7  1  0  0  0  0
  2  3  1  0  0  0  0
  2  4  1  0  0  0  0
  2  5  1  0  0  0  0
  1  2  1  0  0  0  0
 22 23  2  0  0  0  0
 22 24  1  0  0  0  0
 20 21  1  0  0  0  0
 18 19  1  0  0  0  0
 18 20  1  0  0  0  0
 16 17  1  0  0  0  0
 16 18  1  0  0  0  0
 15 16  2  0  0  0  0
 14 15  1  0  0  0  0
 14 20  2  0  0  0  0
 11 12  1  0  0  0  0
 11 13  1  0  0  0  0
 11 14  1  0  0  0  0
  9 10  1  0  0  0  0
  9 11  1  0  0  0  0
  9 22  1  0  0  0  0
  7  8  1  0  0  0  0
  7  9  1  0  0  0  0
 26 27  1  0  0  0  0
 26 28  1  0  0  0  0
 26 29  1  0  0  0  0
 24 25  1  0  0  0  0
 24 26  1  0  0  0  0
M  END
$$$$
default_name
  -OEChem-01062215323D

 29 29  0     1  0  0  0  0  0999 V2000
   -2.9561   -3.9186    1.3887 H   0  0  0  0  0  0  0  0  0  0  0  0
   -3.1191   -2.9346    0.9517 C   0  0  0  0  0  0  0  0  0  0  0  0
   -3.7811   -2.3546    1.5917 H   0  0  0  0  0  0  0  0  0  0  0  0
   -3.5591   -3.0406   -0.0383 H   0  0  0  0  0  0  0  0  0  0  0  0
   -1.7921   -2.2226    0.8327 C   0  0  0  0  0  0  0  0  0  0  0  0
   -0.7611   -2.7766    1.1927 O   0  0  0  0  0  0  0  0  0  0  0  0
   -1.8201   -0.9926    0.3247 N   0  0  0  0  0  0  0  0  0  0  0  0
   -2.7141   -0.5816    0.0927 H   0  0  0  0  0  0  0  0  0  0  0  0
   -0.6481   -0.1156    0.2017 C   0  0  1  0  0  0  0  0  0  0  0  0
    0.2399   -0.7446    0.1120 H   0  0  0  0  0  0  0  0  0  0  0  0
   -0.7672    0.7351   -1.0777 C   0  0  0  0  0  0  0  0  0  0  0  0
   -1.7075    1.2883   -1.0671 H   0  0  0  0  0  0  0  0  0  0  0  0
    0.0427    1.4651   -1.1123 H   0  0  0  0  0  0  0  0  0  0  0  0
   -0.7494   -0.0951   -2.3381 C   0  0  0  0  0  0  0  0  0  0  0  0
    0.3743   -0.6999   -2.9028 N   0  0  0  0  0  0  0  0  0  0  0  0
   -0.0679   -1.3715   -3.9760 C   0  0  0  0  0  0  0  0  0  0  0  0
    0.5639   -1.9434   -4.6439 H   0  0  0  0  0  0  0  0  0  0  0  0
   -1.3997   -1.2405   -4.0957 N   0  0  0  0  0  0  0  0  0  0  0  0
   -1.9689   -1.6690   -4.8128 H   0  0  0  0  0  0  0  0  0  0  0  0
   -1.8488   -0.4411   -3.0681 C   0  0  0  0  0  0  0  0  0  0  0  0
   -2.8698   -0.1517   -2.8532 H   0  0  0  0  0  0  0  0  0  0  0  0
   -0.4772    0.7444    1.4666 C   0  0  0  0  0  0  0  0  0  0  0  0
    0.4507    1.5498    1.5432 O   0  0  0  0  0  0  0  0  0  0  0  0
   -1.3687    0.5850    2.4498 N   0  0  0  0  0  0  0  0  0  0  0  0
   -2.0346   -0.1727    2.3480 H   0  0  0  0  0  0  0  0  0  0  0  0
   -1.3635    1.3266    3.7086 C   0  0  0  0  0  0  0  0  0  0  0  0
   -1.0291    2.3532    3.5382 H   0  0  0  0  0  0  0  0  0  0  0  0
   -2.3685    1.3444    4.1327 H   0  0  0  0  0  0  0  0  0  0  0  0
   -0.6821    0.8464    4.4127 H   0  0  0  0  0  0  0  0  0  0  0  0
  5  6  2  0  0  0  0
  5  7  1  0  0  0  0
  2  3  1  0  0  0  0
  2  4  1  0  0  0  0
  2  5  1  0  0  0  0
  1  2  1  0  0  0  0
 22 23  2  0  0  0  0
 22 24  1  0  0  0  0
 20 21  1  0  0  0  0
 18 19  1  0  0  0  0
 18 20  1  0  0  0  0
 16 17  1  0  0  0  0
 16 18  1  0  0  0  0
 15 16  2  0  0  0  0
 14 15  1  0  0  0  0
 14 20  2  0  0  0  0
 11 12  1  0  0  0  0
 11 13  1  0  0  0  0
 11 14  1  0  0  0  0
  9 10  1  0  0  0  0
  9 11  1  0  0  0  0
  9 22  1  0  0  0  0
  7  8  1  0  0  0  0
  7  9  1  0  0  0  0
 26 27  1  0  0  0  0
 26 28  1  0  0  0  0
 26 29  1  0  0  0  0
 24 25  1  0  0  0  0
 24 26  1  0  0  0  0
M  END
$$$$
default_name
  -OEChem-01062215323D

 29 29  0     1  0  0  0  0  0999 V2000
   -2.9561   -3.9186    1.3887 H   0  0  0  0  0  0  0  0  0  0  0  0
   -3.1191   -2.9346    0.9517 C   0  0  0  0  0  0  0  0  0  0  0  0
   -3.7811   -2.3546    1.5917 H   0  0  0  0  0  0  0  0  0  0  0  0
   -3.5591   -3.0406   -0.0383 H   0  0  0  0  0  0  0  0  0  0  0  0
   -1.7921   -2.2226    0.8327 C   0  0  0  0  0  0  0  0  0  0  0  0
   -0.7611   -2.7766    1.1927 O   0  0  0  0  0  0  0  0  0  0  0  0
   -1.8201   -0.9926    0.3247 N   0  0  0  0  0  0  0  0  0  0  0  0
   -2.7141   -0.5816    0.0927 H   0  0  0  0  0  0  0  0  0  0  0  0
   -0.6481   -0.1156    0.2017 C   0  0  1  0  0  0  0  0  0  0  0  0
    0.2399   -0.7446    0.1120 H   0  0  0  0  0  0  0  0  0  0  0  0
   -0.7672    0.7351   -1.0777 C   0  0  0  0  0  0  0  0  0  0  0  0
   -1.7075    1.2883   -1.0671 H   0  0  0  0  0  0  0  0  0  0  0  0
    0.0427    1.4651   -1.1123 H   0  0  0  0  0  0  0  0  0  0  0  0
   -0.7494   -0.0951   -2.3381 C   0  0  0  0  0  0  0  0  0  0  0  0
    0.3743   -0.6999   -2.9028 N   0  0  0  0  0  0  0  0  0  0  0  0
   -0.0679   -1.3715   -3.9760 C   0  0  0  0  0  0  0  0  0  0  0  0
    0.5639   -1.9434   -4.6439 H   0  0  0  0  0  0  0  0  0  0  0  0
   -1.3997   -1.2405   -4.0957 N   0  0  0  0  0  0  0  0  0  0  0  0
   -1.9689   -1.6690   -4.8128 H   0  0  0  0  0  0  0  0  0  0  0  0
   -1.8488   -0.4411   -3.0681 C   0  0  0  0  0  0  0  0  0  0  0  0
   -2.8698   -0.1517   -2.8532 H   0  0  0  0  0  0  0  0  0  0  0  0
   -0.4772    0.7444    1.4666 C   0  0  0  0  0  0  0  0  0  0  0  0
    0.2611    1.7293    1.4468 O   0  0  0  0  0  0  0  0  0  0  0  0
   -1.1598    0.3843    2.5580 N   0  0  0  0  0  0  0  0  0  0  0  0
   -1.6589   -0.4974    2.5180 H   0  0  0  0  0  0  0  0  0  0  0  0
   -1.1251    1.0932    3.8351 C   0  0  0  0  0  0  0  0  0  0  0  0
   -1.0433    2.1698    3.6648 H   0  0  0  0  0  0  0  0  0  0  0  0
   -2.0373    0.8891    4.3975 H   0  0  0  0  0  0  0  0  0  0  0  0
   -0.2614    0.7614    4.4137 H   0  0  0  0  0  0  0  0  0  0  0  0
  5  6  2  0  0  0  0
  5  7  1  0  0  0  0
  2  3  1  0  0  0  0
  2  4  1  0  0  0  0
  2  5  1  0  0  0  0
  1  2  1  0  0  0  0
 22 23  2  0  0  0  0
 22 24  1  0  0  0  0
 20 21  1  0  0  0  0
 18 19  1  0  0  0  0
 18 20  1  0  0  0  0
 16 17  1  0  0  0  0
 16 18  1  0  0  0  0
 15 16  2  0  0  0  0
 14 15  1  0  0  0  0
 14 20  2  0  0  0  0
 11 12  1  0  0  0  0
 11 13  1  0  0  0  0
 11 14  1  0  0  0  0
  9 10  1  0  0  0  0
  9 11  1  0  0  0  0
  9 22  1  0  0  0  0
  7  8  1  0  0  0  0
  7  9  1  0  0  0  0
 26 27  1  0  0  0  0
 26 28  1  0  0  0  0
 26 29  1  0  0  0  0
 24 25  1  0  0  0  0
 24 26  1  0  0  0  0
M  END
$$$$
default_name
  -OEChem-01062215323D

 29 29  0     1  0  0  0  0  0999 V2000
   -2.9561   -3.9186    1.3887 H   0  0  0  0  0  0  0  0  0  0  0  0
   -3.1191   -2.9346    0.9517 C   0  0  0  0  0  0  0  0  0  0  0  0
   -3.7811   -2.3546    1.5917 H   0  0  0  0  0  0  0  0  0  0  0  0
   -3.5591   -3.0406   -0.0383 H   0  0  0  0  0  0  0  0  0  0  0  0
   -1.7921   -2.2226    0.8327 C   0  0  0  0  0  0  0  0  0  0  0  0
   -0.7611   -2.7766    1.1927 O   0  0  0  0  0  0  0  0  0  0  0  0
   -1.8201   -0.9926    0.3247 N   0  0  0  0  0  0  0  0  0  0  0  0
   -2.7141   -0.5816    0.0927 H   0  0  0  0  0  0  0  0  0  0  0  0
   -0.6481   -0.1156    0.2017 C   0  0  1  0  0  0  0  0  0  0  0  0
    0.2399   -0.7446    0.1120 H   0  0  0  0  0  0  0  0  0  0  0  0
   -0.7672    0.7351   -1.0777 C   0  0  0  0  0  0  0  0  0  0  0  0
   -1.7075    1.2883   -1.0671 H   0  0  0  0  0  0  0  0  0  0  0  0
    0.0427    1.4651   -1.1123 H   0  0  0  0  0  0  0  0  0  0  0  0
   -0.7494   -0.0951   -2.3381 C   0  0  0  0  0  0  0  0  0  0  0  0
    0.3743   -0.6999   -2.9028 N   0  0  0  0  0  0  0  0  0  0  0  0
   -0.0679   -1.3715   -3.9760 C   0  0  0  0  0  0  0  0  0  0  0  0
    0.5639   -1.9434   -4.6439 H   0  0  0  0  0  0  0  0  0  0  0  0
   -1.3997   -1.2405   -4.0957 N   0  0  0  0  0  0  0  0  0  0  0  0
   -1.9689   -1.6690   -4.8128 H   0  0  0  0  0  0  0  0  0  0  0  0
   -1.8488   -0.4411   -3.0681 C   0  0  0  0  0  0  0  0  0  0  0  0
   -2.8698   -0.1517   -2.8532 H   0  0  0  0  0  0  0  0  0  0  0  0
   -0.4772    0.7444    1.4666 C   0  0  0  0  0  0  0  0  0  0  0  0
    0.0259    1.8651    1.3863 O   0  0  0  0  0  0  0  0  0  0  0  0
   -0.8998    0.2318    2.6266 N   0  0  0  0  0  0  0  0  0  0  0  0
   -1.2023   -0.7359    2.6184 H   0  0  0  0  0  0  0  0  0  0  0  0
   -0.8269    0.9148    3.9161 C   0  0  0  0  0  0  0  0  0  0  0  0
   -0.9997    1.9859    3.7839 H   0  0  0  0  0  0  0  0  0  0  0  0
   -1.5823    0.5121    4.5923 H   0  0  0  0  0  0  0  0  0  0  0  0
    0.1631    0.7687    4.3513 H   0  0  0  0  0  0  0  0  0  0  0  0
  5  6  2  0  0  0  0
  5  7  1  0  0  0  0
  2  3  1  0  0  0  0
  2  4  1  0  0  0  0
  2  5  1  0  0  0  0
  1  2  1  0  0  0  0
 22 23  2  0  0  0  0
 22 24  1  0  0  0  0
 20 21  1  0  0  0  0
 18 19  1  0  0  0  0
 18 20  1  0  0  0  0
 16 17  1  0  0  0  0
 16 18  1  0  0  0  0
 15 16  2  0  0  0  0
 14 15  1  0  0  0  0
 14 20  2  0  0  0  0
 11 12  1  0  0  0  0
 11 13  1  0  0  0  0
 11 14  1  0  0  0  0
  9 10  1  0  0  0  0
  9 11  1  0  0  0  0
  9 22  1  0  0  0  0
  7  8  1  0  0  0  0
  7  9  1  0  0  0  0
 26 27  1  0  0  0  0
 26 28  1  0  0  0  0
 26 29  1  0  0  0  0
 24 25  1  0  0  0  0
 24 26  1  0  0  0  0
M  END
$$$$
default_name
  -OEChem-01062215323D

 29 29  0     1  0  0  0  0  0999 V2000
   -2.9561   -3.9186    1.3887 H   0  0  0  0  0  0  0  0  0  0  0  0
   -3.1191   -2.9346    0.9517 C   0  0  0  0  0  0  0  0  0  0  0  0
   -3.7811   -2.3546    1.5917 H   0  0  0  0  0  0  0  0  0  0  0  0
   -3.5591   -3.0406   -0.0383 H   0  0  0  0  0  0  0  0  0  0  0  0
   -1.7921   -2.2226    0.8327 C   0  0  0  0  0  0  0  0  0  0  0  0
   -0.7611   -2.7766    1.1927 O   0  0  0  0  0  0  0  0  0  0  0  0
   -1.8201   -0.9926    0.3247 N   0  0  0  0  0  0  0  0  0  0  0  0
   -2.7141   -0.5816    0.0927 H   0  0  0  0  0  0  0  0  0  0  0  0
   -0.6481   -0.1156    0.2017 C   0  0  1  0  0  0  0  0  0  0  0  0
    0.2399   -0.7446    0.1120 H   0  0  0  0  0  0  0  0  0  0  0  0
   -0.7672    0.7351   -1.0777 C   0  0  0  0  0  0  0  0  0  0  0  0
   -1.7075    1.2883   -1.0671 H   0  0  0  0  0  0  0  0  0  0  0  0
    0.0427    1.4651   -1.1123 H   0  0  0  0  0  0  0  0  0  0  0  0
   -0.7494   -0.0951   -2.3381 C   0  0  0  0  0  0  0  0  0  0  0  0
    0.3743   -0.6999   -2.9028 N   0  0  0  0  0  0  0  0  0  0  0  0
   -0.0679   -1.3715   -3.9760 C   0  0  0  0  0  0  0  0  0  0  0  0
    0.5639   -1.9434   -4.6439 H   0  0  0  0  0  0  0  0  0  0  0  0
   -1.3997   -1.2405   -4.0957 N   0  0  0  0  0  0  0  0  0  0  0  0
   -1.9689   -1.6690   -4.8128 H   0  0  0  0  0  0  0  0  0  0  0  0
   -1.8488   -0.4411   -3.0681 C   0  0  0  0  0  0  0  0  0  0  0  0
   -2.8698   -0.1517   -2.8532 H   0  0  0  0  0  0  0  0  0  0  0  0
   -0.4772    0.7444    1.4666 C   0  0  0  0  0  0  0  0  0  0  0  0
   -0.2389    1.9479    1.3658 O   0  0  0  0  0  0  0  0  0  0  0  0
   -0.6062    0.1378    2.6508 N   0  0  0  0  0  0  0  0  0  0  0  0
   -0.6960   -0.8721    2.6426 H   0  0  0  0  0  0  0  0  0  0  0  0
   -0.4891    0.8036    3.9460 C   0  0  0  0  0  0  0  0  0  0  0  0
   -0.9012    1.8142    3.8873 H   0  0  0  0  0  0  0  0  0  0  0  0
   -1.0345    0.2392    4.7038 H   0  0  0  0  0  0  0  0  0  0  0  0
    0.5626    0.8679    4.2299 H   0  0  0  0  0  0  0  0  0  0  0  0
  5  6  2  0  0  0  0
  5  7  1  0  0  0  0
  2  3  1  0  0  0  0
  2  4  1  0  0  0  0
  2  5  1  0  0  0  0
  1  2  1  0  0  0  0
 22 23  2  0  0  0  0
 22 24  1  0  0  0  0
 20 21  1  0  0  0  0
 18 19  1  0  0  0  0
 18 20  1  0  0  0  0
 16 17  1  0  0  0  0
 16 18  1  0  0  0  0
 15 16  2  0  0  0  0
 14 15  1  0  0  0  0
 14 20  2  0  0  0  0
 11 12  1  0  0  0  0
 11 13  1  0  0  0  0
 11 14  1  0  0  0  0
  9 10  1  0  0  0  0
  9 11  1  0  0  0  0
  9 22  1  0  0  0  0
  7  8  1  0  0  0  0
  7  9  1  0  0  0  0
 26 27  1  0  0  0  0
 26 28  1  0  0  0  0
 26 29  1  0  0  0  0
 24 25  1  0  0  0  0
 24 26  1  0  0  0  0
M  END
$$$$
default_name
  -OEChem-01062215323D

 29 29  0     1  0  0  0  0  0999 V2000
   -2.9561   -3.9186    1.3887 H   0  0  0  0  0  0  0  0  0  0  0  0
   -3.1191   -2.9346    0.9517 C   0  0  0  0  0  0  0  0  0  0  0  0
   -3.7811   -2.3546    1.5917 H   0  0  0  0  0  0  0  0  0  0  0  0
   -3.5591   -3.0406   -0.0383 H   0  0  0  0  0  0  0  0  0  0  0  0
   -1.7921   -2.2226    0.8327 C   0  0  0  0  0  0  0  0  0  0  0  0
   -0.7611   -2.7766    1.1927 O   0  0  0  0  0  0  0  0  0  0  0  0
   -1.8201   -0.9926    0.3247 N   0  0  0  0  0  0  0  0  0  0  0  0
   -2.7141   -0.5816    0.0927 H   0  0  0  0  0  0  0  0  0  0  0  0
   -0.6481   -0.1156    0.2017 C   0  0  1  0  0  0  0  0  0  0  0  0
    0.2399   -0.7446    0.1120 H   0  0  0  0  0  0  0  0  0  0  0  0
   -0.7672    0.7351   -1.0777 C   0  0  0  0  0  0  0  0  0  0  0  0
   -1.7075    1.2883   -1.0671 H   0  0  0  0  0  0  0  0  0  0  0  0
    0.0427    1.4651   -1.1123 H   0  0  0  0  0  0  0  0  0  0  0  0
   -0.7494   -0.0951   -2.3381 C   0  0  0  0  0  0  0  0  0  0  0  0
    0.3743   -0.6999   -2.9028 N   0  0  0  0  0  0  0  0  0  0  0  0
   -0.0679   -1.3715   -3.9760 C   0  0  0  0  0  0  0  0  0  0  0  0
    0.5639   -1.9434   -4.6439 H   0  0  0  0  0  0  0  0  0  0  0  0
   -1.3997   -1.2405   -4.0957 N   0  0  0  0  0  0  0  0  0  0  0  0
   -1.9689   -1.6690   -4.8128 H   0  0  0  0  0  0  0  0  0  0  0  0
   -1.8488   -0.4411   -3.0681 C   0  0  0  0  0  0  0  0  0  0  0  0
   -2.8698   -0.1517   -2.8532 H   0  0  0  0  0  0  0  0  0  0  0  0
   -0.4772    0.7444    1.4666 C   0  0  0  0  0  0  0  0  0  0  0  0
   -0.5153    1.9722    1.3866 O   0  0  0  0  0  0  0  0  0  0  0  0
   -0.2992    0.1088    2.6290 N   0  0  0  0  0  0  0  0  0  0  0  0
   -0.1745   -0.8966    2.5887 H   0  0  0  0  0  0  0  0  0  0  0  0
   -0.1349    0.7671    3.9229 C   0  0  0  0  0  0  0  0  0  0  0  0
   -0.7547    1.6663    3.9680 H   0  0  0  0  0  0  0  0  0  0  0  0
   -0.4311    0.0889    4.7244 H   0  0  0  0  0  0  0  0  0  0  0  0
    0.9098    1.0522    4.0577 H   0  0  0  0  0  0  0  0  0  0  0  0
  5  6  2  0  0  0  0
  5  7  1  0  0  0  0
  2  3  1  0  0  0  0
  2  4  1  0  0  0  0
  2  5  1  0  0  0  0
  1  2  1  0  0  0  0
 22 23  2  0  0  0  0
 22 24  1  0  0  0  0
 20 21  1  0  0  0  0
 18 19  1  0  0  0  0
 18 20  1  0  0  0  0
 16 17  1  0  0  0  0
 16 18  1  0  0  0  0
 15 16  2  0  0  0  0
 14 15  1  0  0  0  0
 14 20  2  0  0  0  0
 11 12  1  0  0  0  0
 11 13  1  0  0  0  0
 11 14  1  0  0  0  0
  9 10  1  0  0  0  0
  9 11  1  0  0  0  0
  9 22  1  0  0  0  0
  7  8  1  0  0  0  0
  7  9  1  0  0  0  0
 26 27  1  0  0  0  0
 26 28  1  0  0  0  0
 26 29  1  0  0  0  0
 24 25  1  0  0  0  0
 24 26  1  0  0  0  0
M  END
$$$$
default_name
  -OEChem-01062215323D

 29 29  0     1  0  0  0  0  0999 V2000
   -2.9561   -3.9186    1.3887 H   0  0  0  0  0  0  0  0  0  0  0  0
   -3.1191   -2.9346    0.9517 C   0  0  0  0  0  0  0  0  0  0  0  0
   -3.7811   -2.3546    1.5917 H   0  0  0  0  0  0  0  0  0  0  0  0
   -3.5591   -3.0406   -0.0383 H   0  0  0  0  0  0  0  0  0  0  0  0
   -1.7921   -2.2226    0.8327 C   0  0  0  0  0  0  0  0  0  0  0  0
   -0.7611   -2.7766    1.1927 O   0  0  0  0  0  0  0  0  0  0  0  0
   -1.8201   -0.9926    0.3247 N   0  0  0  0  0  0  0  0  0  0  0  0
   -2.7141   -0.5816    0.0927 H   0  0  0  0  0  0  0  0  0  0  0  0
   -0.6481   -0.1156    0.2017 C   0  0  1  0  0  0  0  0  0  0  0  0
    0.2399   -0.7446    0.1120 H   0  0  0  0  0  0  0  0  0  0  0  0
   -0.7672    0.7351   -1.0777 C   0  0  0  0  0  0  0  0  0  0  0  0
   -1.7075    1.2883   -1.0671 H   0  0  0  0  0  0  0  0  0  0  0  0
    0.0427    1.4651   -1.1123 H   0  0  0  0  0  0  0  0  0  0  0  0
   -0.7494   -0.0951   -2.3381 C   0  0  0  0  0  0  0  0  0  0  0  0
    0.3743   -0.6999   -2.9028 N   0  0  0  0  0  0  0  0  0  0  0  0
   -0.0679   -1.3715   -3.9760 C   0  0  0  0  0  0  0  0  0  0  0  0
    0.5639   -1.9434   -4.6439 H   0  0  0  0  0  0  0  0  0  0  0  0
   -1.3997   -1.2405   -4.0957 N   0  0  0  0  0  0  0  0  0  0  0  0
   -1.9689   -1.6690   -4.8128 H   0  0  0  0  0  0  0  0  0  0  0  0
   -1.8488   -0.4411   -3.0681 C   0  0  0  0  0  0  0  0  0  0  0  0
   -2.8698   -0.1517   -2.8532 H   0  0  0  0  0  0  0  0  0  0  0  0
   -0.4772    0.7444    1.4666 C   0  0  0  0  0  0  0  0  0  0  0  0
   -0.7844    1.9363    1.4474 O   0  0  0  0  0  0  0  0  0  0  0  0
    0.0004    0.1467    2.5628 N   0  0  0  0  0  0  0  0  0  0  0  0
    0.3267   -0.8078    2.4606 H   0  0  0  0  0  0  0  0  0  0  0  0
    0.2116    0.8079    3.8483 C   0  0  0  0  0  0  0  0  0  0  0  0
   -0.5700    1.5523    4.0206 H   0  0  0  0  0  0  0  0  0  0  0  0
    0.1867    0.0714    4.6528 H   0  0  0  0  0  0  0  0  0  0  0  0
    1.1810    1.3089    3.8464 H   0  0  0  0  0  0  0  0  0  0  0  0
  5  6  2  0  0  0  0
  5  7  1  0  0  0  0
  2  3  1  0  0  0  0
  2  4  1  0  0  0  0
  2  5  1  0  0  0  0
  1  2  1  0  0  0  0
 22 23  2  0  0  0  0
 22 24  1  0  0  0  0
 20 21  1  0  0  0  0
 18 19  1  0  0  0  0
 18 20  1  0  0  0  0
 16 17  1  0  0  0  0
 16 18  1  0  0  0  0
 15 16  2  0  0  0  0
 14 15  1  0  0  0  0
 14 20  2  0  0  0  0
 11 12  1  0  0  0  0
 11 13  1  0  0  0  0
 11 14  1  0  0  0  0
  9 10  1  0  0  0  0
  9 11  1  0  0  0  0
  9 22  1  0  0  0  0
  7  8  1  0  0  0  0
  7  9  1  0  0  0  0
 26 27  1  0  0  0  0
 26 28  1  0  0  0  0
 26 29  1  0  0  0  0
 24 25  1  0  0  0  0
 24 26  1  0  0  0  0
M  END
$$$$
default_name
  -OEChem-01062215323D

 29 29  0     1  0  0  0  0  0999 V2000
   -2.9561   -3.9186    1.3887 H   0  0  0  0  0  0  0  0  0  0  0  0
   -3.1191   -2.9346    0.9517 C   0  0  0  0  0  0  0  0  0  0  0  0
   -3.7811   -2.3546    1.5917 H   0  0  0  0  0  0  0  0  0  0  0  0
   -3.5591   -3.0406   -0.0383 H   0  0  0  0  0  0  0  0  0  0  0  0
   -1.7921   -2.2226    0.8327 C   0  0  0  0  0  0  0  0  0  0  0  0
   -0.7611   -2.7766    1.1927 O   0  0  0  0  0  0  0  0  0  0  0  0
   -1.8201   -0.9926    0.3247 N   0  0  0  0  0  0  0  0  0  0  0  0
   -2.7141   -0.5816    0.0927 H   0  0  0  0  0  0  0  0  0  0  0  0
   -0.6481   -0.1156    0.2017 C   0  0  1  0  0  0  0  0  0  0  0  0
    0.2399   -0.7446    0.1120 H   0  0  0  0  0  0  0  0  0  0  0  0
   -0.7672    0.7351   -1.0777 C   0  0  0  0  0  0  0  0  0  0  0  0
   -1.7075    1.2883   -1.0671 H   0  0  0  0  0  0  0  0  0  0  0  0
    0.0427    1.4651   -1.1123 H   0  0  0  0  0  0  0  0  0  0  0  0
   -0.7494   -0.0951   -2.3381 C   0  0  0  0  0  0  0  0  0  0  0  0
    0.3743   -0.6999   -2.9028 N   0  0  0  0  0  0  0  0  0  0  0  0
   -0.0679   -1.3715   -3.9760 C   0  0  0  0  0  0  0  0  0  0  0  0
    0.5639   -1.9434   -4.6439 H   0  0  0  0  0  0  0  0  0  0  0  0
   -1.3997   -1.2405   -4.0957 N   0  0  0  0  0  0  0  0  0  0  0  0
   -1.9689   -1.6690   -4.8128 H   0  0  0  0  0  0  0  0  0  0  0  0
   -1.8488   -0.4411   -3.0681 C   0  0  0  0  0  0  0  0  0  0  0  0
   -2.8698   -0.1517   -2.8532 H   0  0  0  0  0  0  0  0  0  0  0  0
   -0.4772    0.7444    1.4666 C   0  0  0  0  0  0  0  0  0  0  0  0
   -1.0279    1.8427    1.5440 O   0  0  0  0  0  0  0  0  0  0  0  0
    0.2721    0.2489    2.4565 N   0  0  0  0  0  0  0  0  0  0  0  0
    0.7734   -0.6118    2.2670 H   0  0  0  0  0  0  0  0  0  0  0  0
    0.5269    0.9232    3.7273 C   0  0  0  0  0  0  0  0  0  0  0  0
   -0.3597    1.4800    4.0413 H   0  0  0  0  0  0  0  0  0  0  0  0
    0.7767    0.1881    4.4937 H   0  0  0  0  0  0  0  0  0  0  0  0
    1.3579    1.6208    3.6105 H   0  0  0  0  0  0  0  0  0  0  0  0
  5  6  2  0  0  0  0
  5  7  1  0  0  0  0
  2  3  1  0  0  0  0
  2  4  1  0  0  0  0
  2  5  1  0  0  0  0
  1  2  1  0  0  0  0
 22 23  2  0  0  0  0
 22 24  1  0  0  0  0
 20 21  1  0  0  0  0
 18 19  1  0  0  0  0
 18 20  1  0  0  0  0
 16 17  1  0  0  0  0
 16 18  1  0  0  0  0
 15 16  2  0  0  0  0
 14 15  1  0  0  0  0
 14 20  2  0  0  0  0
 11 12  1  0  0  0  0
 11 13  1  0  0  0  0
 11 14  1  0  0  0  0
  9 10  1  0  0  0  0
  9 11  1  0  0  0  0
  9 22  1  0  0  0  0
  7  8  1  0  0  0  0
  7  9  1  0  0  0  0
 26 27  1  0  0  0  0
 26 28  1  0  0  0  0
 26 29  1  0  0  0  0
 24 25  1  0  0  0  0
 24 26  1  0  0  0  0
M  END
$$$$
default_name
  -OEChem-01062215323D

 29 29  0     1  0  0  0  0  0999 V2000
   -2.9561   -3.9186    1.3887 H   0  0  0  0  0  0  0  0  0  0  0  0
   -3.1191   -2.9346    0.9517 C   0  0  0  0  0  0  0  0  0  0  0  0
   -3.7811   -2.3546    1.5917 H   0  0  0  0  0  0  0  0  0  0  0  0
   -3.5591   -3.0406   -0.0383 H   0  0  0  0  0  0  0  0  0  0  0  0
   -1.7921   -2.2226    0.8327 C   0  0  0  0  0  0  0  0  0  0  0  0
   -0.7611   -2.7766    1.1927 O   0  0  0  0  0  0  0  0  0  0  0  0
   -1.8201   -0.9926    0.3247 N   0  0  0  0  0  0  0  0  0  0  0  0
   -2.7141   -0.5816    0.0927 H   0  0  0  0  0  0  0  0  0  0  0  0
   -0.6481   -0.1156    0.2017 C   0  0  1  0  0  0  0  0  0  0  0  0
    0.2399   -0.7446    0.1120 H   0  0  0  0  0  0  0  0  0  0  0  0
   -0.7672    0.7351   -1.0777 C   0  0  0  0  0  0  0  0  0  0  0  0
   -1.7075    1.2883   -1.0671 H   0  0  0  0  0  0  0  0  0  0  0  0
    0.0427    1.4651   -1.1123 H   0  0  0  0  0  0  0  0  0  0  0  0
   -0.7494   -0.0951   -2.3381 C   0  0  0  0  0  0  0  0  0  0  0  0
    0.3743   -0.6999   -2.9028 N   0  0  0  0  0  0  0  0  0  0  0  0
   -0.0679   -1.3715   -3.9760 C   0  0  0  0  0  0  0  0  0  0  0  0
    0.5639   -1.9434   -4.6439 H   0  0  0  0  0  0  0  0  0  0  0  0
   -1.3997   -1.2405   -4.0957 N   0  0  0  0  0  0  0  0  0  0  0  0
   -1.9689   -1.6690   -4.8128 H   0  0  0  0  0  0  0  0  0  0  0  0
   -1.8488   -0.4411   -3.0681 C   0  0  0  0  0  0  0  0  0  0  0  0
   -2.8698   -0.1517   -2.8532 H   0  0  0  0  0  0  0  0  0  0  0  0
   -0.4772    0.7444    1.4666 C   0  0  0  0  0  0  0  0  0  0  0  0
   -1.2292    1.6976    1.6698 O   0  0  0  0  0  0  0  0  0  0  0  0
    0.4975    0.4085    2.3176 N   0  0  0  0  0  0  0  0  0  0  0  0
    1.1351   -0.3218    2.0210 H   0  0  0  0  0  0  0  0  0  0  0  0
    0.7895    1.1051    3.5682 C   0  0  0  0  0  0  0  0  0  0  0  0
   -0.1382    1.4543    4.0289 H   0  0  0  0  0  0  0  0  0  0  0  0
    1.2989    0.4308    4.2581 H   0  0  0  0  0  0  0  0  0  0  0  0
    1.4283    1.9664    3.3661 H   0  0  0  0  0  0  0  0  0  0  0  0
  5  6  2  0  0  0  0
  5  7  1  0  0  0  0
  2  3  1  0  0  0  0
  2  4  1  0  0  0  0
  2  5  1  0  0  0  0
  1  2  1  0  0  0  0
 22 23  2  0  0  0  0
 22 24  1  0  0  0  0
 20 21  1  0  0  0  0
 18 19  1  0  0  0  0
 18 20  1  0  0  0  0
 16 17  1  0  0  0  0
 16 18  1  0  0  0  0
 15 16  2  0  0  0  0
 14 15  1  0  0  0  0
 14 20  2  0  0  0  0
 11 12  1  0  0  0  0
 11 13  1  0  0  0  0
 11 14  1  0  0  0  0
  9 10  1  0  0  0  0
  9 11  1  0  0  0  0
  9 22  1  0  0  0  0
  7  8  1  0  0  0  0
  7  9  1  0  0  0  0
 26 27  1  0  0  0  0
 26 28  1  0  0  0  0
 26 29  1  0  0  0  0
 24 25  1  0  0  0  0
 24 26  1  0  0  0  0
M  END
$$$$
default_name
  -OEChem-01062215323D

 29 29  0     1  0  0  0  0  0999 V2000
   -2.9561   -3.9186    1.3887 H   0  0  0  0  0  0  0  0  0  0  0  0
   -3.1191   -2.9346    0.9517 C   0  0  0  0  0  0  0  0  0  0  0  0
   -3.7811   -2.3546    1.5917 H   0  0  0  0  0  0  0  0  0  0  0  0
   -3.5591   -3.0406   -0.0383 H   0  0  0  0  0  0  0  0  0  0  0  0
   -1.7921   -2.2226    0.8327 C   0  0  0  0  0  0  0  0  0  0  0  0
   -0.7611   -2.7766    1.1927 O   0  0  0  0  0  0  0  0  0  0  0  0
   -1.8201   -0.9926    0.3247 N   0  0  0  0  0  0  0  0  0  0  0  0
   -2.7141   -0.5816    0.0927 H   0  0  0  0  0  0  0  0  0  0  0  0
   -0.6481   -0.1156    0.2017 C   0  0  1  0  0  0  0  0  0  0  0  0
    0.2399   -0.7446    0.1120 H   0  0  0  0  0  0  0  0  0  0  0  0
   -0.7672    0.7351   -1.0777 C   0  0  0  0  0  0  0  0  0  0  0  0
   -1.7075    1.2883   -1.0671 H   0  0  0  0  0  0  0  0  0  0  0  0
    0.0427    1.4651   -1.1123 H   0  0  0  0  0  0  0  0  0  0  0  0
   -0.7494   -0.0951   -2.3381 C   0  0  0  0  0  0  0  0  0  0  0  0
    0.3743   -0.6999   -2.9028 N   0  0  0  0  0  0  0  0  0  0  0  0
   -0.0679   -1.3715   -3.9760 C   0  0  0  0  0  0  0  0  0  0  0  0
    0.5639   -1.9434   -4.6439 H   0  0  0  0  0  0  0  0  0  0  0  0
   -1.3997   -1.2405   -4.0957 N   0  0  0  0  0  0  0  0  0  0  0  0
   -1.9689   -1.6690   -4.8128 H   0  0  0  0  0  0  0  0  0  0  0  0
   -1.8488   -0.4411   -3.0681 C   0  0  0  0  0  0  0  0  0  0  0  0
   -2.8698   -0.1517   -2.8532 H   0  0  0  0  0  0  0  0  0  0  0  0
   -0.4772    0.7444    1.4666 C   0  0  0  0  0  0  0  0  0  0  0  0
   -1.3746    1.5110    1.8163 O   0  0  0  0  0  0  0  0  0  0  0  0
    0.6611    0.6146    2.1553 N   0  0  0  0  0  0  0  0  0  0  0  0
    1.3873    0.0423    1.7393 H   0  0  0  0  0  0  0  0  0  0  0  0
    0.9813    1.3412    3.3817 C   0  0  0  0  0  0  0  0  0  0  0  0
    0.0794    1.4769    3.9841 H   0  0  0  0  0  0  0  0  0  0  0  0
    1.7175    0.7831    3.9620 H   0  0  0  0  0  0  0  0  0  0  0  0
    1.3874    2.3222    3.1297 H   0  0  0  0  0  0  0  0  0  0  0  0
  5  6  2  0  0  0  0
  5  7  1  0  0  0  0
  2  3  1  0  0  0  0
  2  4  1  0  0  0  0
  2  5  1  0  0  0  0
  1  2  1  0  0  0  0
 22 23  2  0  0  0  0
 22 24  1  0  0  0  0
 20 21  1  0  0  0  0
 18 19  1  0  0  0  0
 18 20  1  0  0  0  0
 16 17  1  0  0  0  0
 16 18  1  0  0  0  0
 15 16  2  0  0  0  0
 14 15  1  0  0  0  0
 14 20  2  0  0  0  0
 11 12  1  0  0  0  0
 11 13  1  0  0  0  0
 11 14  1  0  0  0  0
  9 10  1  0  0  0  0
  9 11  1  0  0  0  0
  9 22  1  0  0  0  0
  7  8  1  0  0  0  0
  7  9  1  0  0  0  0
 26 27  1  0  0  0  0
 26 28  1  0  0  0  0
 26 29  1  0  0  0  0
 24 25  1  0  0  0  0
 24 26  1  0  0  0  0
M  END
$$$$
default_name
  -OEChem-01062215323D

 29 29  0     1  0  0  0  0  0999 V2000
   -2.9561   -3.9186    1.3887 H   0  0  0  0  0  0  0  0  0  0  0  0
   -3.1191   -2.9346    0.9517 C   0  0  0  0  0  0  0  0  0  0  0  0
   -3.7811   -2.3546    1.5917 H   0  0  0  0  0  0  0  0  0  0  0  0
   -3.5591   -3.0406   -0.0383 H   0  0  0  0  0  0  0  0  0  0  0  0
   -1.7921   -2.2226    0.8327 C   0  0  0  0  0  0  0  0  0  0  0  0
   -0.7611   -2.7766    1.1927 O   0  0  0  0  0  0  0  0  0  0  0  0
   -1.8201   -0.9926    0.3247 N   0  0  0  0  0  0  0  0  0  0  0  0
   -2.7141   -0.5816    0.0927 H   0  0  0  0  0  0  0  0  0  0  0  0
   -0.6481   -0.1156    0.2017 C   0  0  1  0  0  0  0  0  0  0  0  0
    0.2399   -0.7446    0.1120 H   0  0  0  0  0  0  0  0  0  0  0  0
   -0.7672    0.7351   -1.0777 C   0  0  0  0  0  0  0  0  0  0  0  0
   -1.7075    1.2883   -1.0671 H   0  0  0  0  0  0  0  0  0  0  0  0
    0.0427    1.4651   -1.1123 H   0  0  0  0  0  0  0  0  0  0  0  0
   -0.7494   -0.0951   -2.3381 C   0  0  0  0  0  0  0  0  0  0  0  0
    0.3743   -0.6999   -2.9028 N   0  0  0  0  0  0  0  0  0  0  0  0
   -0.0679   -1.3715   -3.9760 C   0  0  0  0  0  0  0  0  0  0  0  0
    0.5639   -1.9434   -4.6439 H   0  0  0  0  0  0  0  0  0  0  0  0
   -1.3997   -1.2405   -4.0957 N   0  0  0  0  0  0  0  0  0  0  0  0
   -1.9689   -1.6690   -4.8128 H   0  0  0  0  0  0  0  0  0  0  0  0
   -1.8488   -0.4411   -3.0681 C   0  0  0  0  0  0  0  0  0  0  0  0
   -2.8698   -0.1517   -2.8532 H   0  0  0  0  0  0  0  0  0  0  0  0
   -0.4772    0.7444    1.4666 C   0  0  0  0  0  0  0  0  0  0  0  0
   -1.4542    1.2957    1.9735 O   0  0  0  0  0  0  0  0  0  0  0  0
    0.7519    0.8532    1.9809 N   0  0  0  0  0  0  0  0  0  0  0  0
    1.5127    0.4557    1.4413 H   0  0  0  0  0  0  0  0  0  0  0  0
    1.0895    1.6154    3.1807 C   0  0  0  0  0  0  0  0  0  0  0  0
    0.2783    1.5463    3.9100 H   0  0  0  0  0  0  0  0  0  0  0  0
    2.0041    1.2210    3.6256 H   0  0  0  0  0  0  0  0  0  0  0  0
    1.2381    2.6640    2.9175 H   0  0  0  0  0  0  0  0  0  0  0  0
  5  6  2  0  0  0  0
  5  7  1  0  0  0  0
  2  3  1  0  0  0  0
  2  4  1  0  0  0  0
  2  5  1  0  0  0  0
  1  2  1  0  0  0  0
 22 23  2  0  0  0  0
 22 24  1  0  0  0  0
 20 21  1  0  0  0  0
 18 19  1  0  0  0  0
 18 20  1  0  0  0  0
 16 17  1  0  0  0  0
 16 18  1  0  0  0  0
 15 16  2  0  0  0  0
 14 15  1  0  0  0  0
 14 20  2  0  0  0  0
 11 12  1  0  0  0  0
 11 13  1  0  0  0  0
 11 14  1  0  0  0  0
  9 10  1  0  0  0  0
  9 11  1  0  0  0  0
  9 22  1  0  0  0  0
  7  8  1  0  0  0  0
  7  9  1  0  0  0  0
 26 27  1  0  0  0  0
 26 28  1  0  0  0  0
 26 29  1  0  0  0  0
 24 25  1  0  0  0  0
 24 26  1  0  0  0  0
M  END
$$$$
default_name
  -OEChem-01062215323D

 29 29  0     1  0  0  0  0  0999 V2000
   -2.9561   -3.9186    1.3887 H   0  0  0  0  0  0  0  0  0  0  0  0
   -3.1191   -2.9346    0.9517 C   0  0  0  0  0  0  0  0  0  0  0  0
   -3.7811   -2.3546    1.5917 H   0  0  0  0  0  0  0  0  0  0  0  0
   -3.5591   -3.0406   -0.0383 H   0  0  0  0  0  0  0  0  0  0  0  0
   -1.7921   -2.2226    0.8327 C   0  0  0  0  0  0  0  0  0  0  0  0
   -0.7611   -2.7766    1.1927 O   0  0  0  0  0  0  0  0  0  0  0  0
   -1.8201   -0.9926    0.3247 N   0  0  0  0  0  0  0  0  0  0  0  0
   -2.7141   -0.5816    0.0927 H   0  0  0  0  0  0  0  0  0  0  0  0
   -0.6481   -0.1156    0.2017 C   0  0  1  0  0  0  0  0  0  0  0  0
    0.2399   -0.7446    0.1120 H   0  0  0  0  0  0  0  0  0  0  0  0
   -0.7672    0.7351   -1.0777 C   0  0  0  0  0  0  0  0  0  0  0  0
   -1.7075    1.2883   -1.0671 H   0  0  0  0  0  0  0  0  0  0  0  0
    0.0427    1.4651   -1.1123 H   0  0  0  0  0  0  0  0  0  0  0  0
   -0.7494   -0.0951   -2.3381 C   0  0  0  0  0  0  0  0  0  0  0  0
    0.3743   -0.6999   -2.9028 N   0  0  0  0  0  0  0  0  0  0  0  0
   -0.0679   -1.3715   -3.9760 C   0  0  0  0  0  0  0  0  0  0  0  0
    0.5639   -1.9434   -4.6439 H   0  0  0  0  0  0  0  0  0  0  0  0
   -1.3997   -1.2405   -4.0957 N   0  0  0  0  0  0  0  0  0  0  0  0
   -1.9689   -1.6690   -4.8128 H   0  0  0  0  0  0  0  0  0  0  0  0
   -1.8488   -0.4411   -3.0681 C   0  0  0  0  0  0  0  0  0  0  0  0
   -2.8698   -0.1517   -2.8532 H   0  0  0  0  0  0  0  0  0  0  0  0
   -0.4772    0.7444    1.4666 C   0  0  0  0  0  0  0  0  0  0  0  0
   -1.4626    1.0662    2.1306 O   0  0  0  0  0  0  0  0  0  0  0  0
    0.7636    1.1079    1.8061 N   0  0  0  0  0  0  0  0  0  0  0  0
    1.5028    0.8903    1.1472 H   0  0  0  0  0  0  0  0  0  0  0  0
    1.1065    1.9091    2.9787 C   0  0  0  0  0  0  0  0  0  0  0  0
    0.4450    1.6578    3.8117 H   0  0  0  0  0  0  0  0  0  0  0  0
    2.1392    1.7146    3.2717 H   0  0  0  0  0  0  0  0  0  0  0  0
    0.9904    2.9685    2.7440 H   0  0  0  0  0  0  0  0  0  0  0  0
  5  6  2  0  0  0  0
  5  7  1  0  0  0  0
  2  3  1  0  0  0  0
  2  4  1  0  0  0  0
  2  5  1  0  0  0  0
  1  2  1  0  0  0  0
 22 23  2  0  0  0  0
 22 24  1  0  0  0  0
 20 21  1  0  0  0  0
 18 19  1  0  0  0  0
 18 20  1  0  0  0  0
 16 17  1  0  0  0  0
 16 18  1  0  0  0  0
 15 16  2  0  0  0  0
 14 15  1  0  0  0  0
 14 20  2  0  0  0  0
 11 12  1  0  0  0  0
 11 13  1  0  0  0  0
 11 14  1  0  0  0  0
  9 10  1  0  0  0  0
  9 11  1  0  0  0  0
  9 22  1  0  0  0  0
  7  8  1  0  0  0  0
  7  9  1  0  0  0  0
 26 27  1  0  0  0  0
 26 28  1  0  0  0  0
 26 29  1  0  0  0  0
 24 25  1  0  0  0  0
 24 26  1  0  0  0  0
M  END
$$$$
default_name
  -OEChem-01062215323D

 29 29  0     1  0  0  0  0  0999 V2000
   -2.9561   -3.9186    1.3887 H   0  0  0  0  0  0  0  0  0  0  0  0
   -3.1191   -2.9346    0.9517 C   0  0  0  0  0  0  0  0  0  0  0  0
   -3.7811   -2.3546    1.5917 H   0  0  0  0  0  0  0  0  0  0  0  0
   -3.5591   -3.0406   -0.0383 H   0  0  0  0  0  0  0  0  0  0  0  0
   -1.7921   -2.2226    0.8327 C   0  0  0  0  0  0  0  0  0  0  0  0
   -0.7611   -2.7766    1.1927 O   0  0  0  0  0  0  0  0  0  0  0  0
   -1.8201   -0.9926    0.3247 N   0  0  0  0  0  0  0  0  0  0  0  0
   -2.7141   -0.5816    0.0927 H   0  0  0  0  0  0  0  0  0  0  0  0
   -0.6481   -0.1156    0.2017 C   0  0  1  0  0  0  0  0  0  0  0  0
    0.2399   -0.7446    0.1120 H   0  0  0  0  0  0  0  0  0  0  0  0
   -0.7672    0.7351   -1.0777 C   0  0  0  0  0  0  0  0  0  0  0  0
   -1.7075    1.2883   -1.0671 H   0  0  0  0  0  0  0  0  0  0  0  0
    0.0427    1.4651   -1.1123 H   0  0  0  0  0  0  0  0  0  0  0  0
   -0.7494   -0.0951   -2.3381 C   0  0  0  0  0  0  0  0  0  0  0  0
    0.3743   -0.6999   -2.9028 N   0  0  0  0  0  0  0  0  0  0  0  0
   -0.0679   -1.3715   -3.9760 C   0  0  0  0  0  0  0  0  0  0  0  0
    0.5639   -1.9434   -4.6439 H   0  0  0  0  0  0  0  0  0  0  0  0
   -1.3997   -1.2405   -4.0957 N   0  0  0  0  0  0  0  0  0  0  0  0
   -1.9689   -1.6690   -4.8128 H   0  0  0  0  0  0  0  0  0  0  0  0
   -1.8488   -0.4411   -3.0681 C   0  0  0  0  0  0  0  0  0  0  0  0
   -2.8698   -0.1517   -2.8532 H   0  0  0  0  0  0  0  0  0  0  0  0
   -0.4772    0.7444    1.4666 C   0  0  0  0  0  0  0  0  0  0  0  0
   -1.3991    0.8383    2.2770 O   0  0  0  0  0  0  0  0  0  0  0  0
    0.6954    1.3615    1.6429 N   0  0  0  0  0  0  0  0  0  0  0  0
    1.3583    1.3164    0.8770 H   0  0  0  0  0  0  0  0  0  0  0  0
    1.0313    2.2022    2.7896 C   0  0  0  0  0  0  0  0  0  0  0  0
    0.5680    1.8037    3.6958 H   0  0  0  0  0  0  0  0  0  0  0  0
    2.1135    2.2303    2.9246 H   0  0  0  0  0  0  0  0  0  0  0  0
    0.6614    3.2149    2.6209 H   0  0  0  0  0  0  0  0  0  0  0  0
  5  6  2  0  0  0  0
  5  7  1  0  0  0  0
  2  3  1  0  0  0  0
  2  4  1  0  0  0  0
  2  5  1  0  0  0  0
  1  2  1  0  0  0  0
 22 23  2  0  0  0  0
 22 24  1  0  0  0  0
 20 21  1  0  0  0  0
 18 19  1  0  0  0  0
 18 20  1  0  0  0  0
 16 17  1  0  0  0  0
 16 18  1  0  0  0  0
 15 16  2  0  0  0  0
 14 15  1  0  0  0  0
 14 20  2  0  0  0  0
 11 12  1  0  0  0  0
 11 13  1  0  0  0  0
 11 14  1  0  0  0  0
  9 10  1  0  0  0  0
  9 11  1  0  0  0  0
  9 22  1  0  0  0  0
  7  8  1  0  0  0  0
  7  9  1  0  0  0  0
 26 27  1  0  0  0  0
 26 28  1  0  0  0  0
 26 29  1  0  0  0  0
 24 25  1  0  0  0  0
 24 26  1  0  0  0  0
M  END
$$$$
default_name
  -OEChem-01062215323D

 29 29  0     1  0  0  0  0  0999 V2000
   -2.9561   -3.9186    1.3887 H   0  0  0  0  0  0  0  0  0  0  0  0
   -3.1191   -2.9346    0.9517 C   0  0  0  0  0  0  0  0  0  0  0  0
   -3.7811   -2.3546    1.5917 H   0  0  0  0  0  0  0  0  0  0  0  0
   -3.5591   -3.0406   -0.0383 H   0  0  0  0  0  0  0  0  0  0  0  0
   -1.7921   -2.2226    0.8327 C   0  0  0  0  0  0  0  0  0  0  0  0
   -0.7611   -2.7766    1.1927 O   0  0  0  0  0  0  0  0  0  0  0  0
   -1.8201   -0.9926    0.3247 N   0  0  0  0  0  0  0  0  0  0  0  0
   -2.7141   -0.5816    0.0927 H   0  0  0  0  0  0  0  0  0  0  0  0
   -0.6481   -0.1156    0.2017 C   0  0  1  0  0  0  0  0  0  0  0  0
    0.1914   -0.7169   -0.1530 H   0  0  0  0  0  0  0  0  0  0  0  0
   -0.9283    0.9835   -0.8415 C   0  0  0  0  0  0  0  0  0  0  0  0
   -1.8343    1.5275   -0.5705 H   0  0  0  0  0  0  0  0  0  0  0  0
   -0.1060    1.7002   -0.8524 H   0  0  0  0  0  0  0  0  0  0  0  0
   -1.1340    0.4338   -2.2321 C   0  0  0  0  0  0  0  0  0  0  0  0
   -0.1331   -0.0463   -3.0777 N   0  0  0  0  0  0  0  0  0  0  0  0
   -0.7587   -0.4774   -4.1828 C   0  0  0  0  0  0  0  0  0  0  0  0
   -0.2581   -0.9010   -5.0443 H   0  0  0  0  0  0  0  0  0  0  0  0
   -2.0873   -0.3170   -4.0628 N   0  0  0  0  0  0  0  0  0  0  0  0
   -2.7748   -0.5838   -4.7542 H   0  0  0  0  0  0  0  0  0  0  0  0
   -2.3440    0.2533   -2.8359 C   0  0  0  0  0  0  0  0  0  0  0  0
   -3.3087    0.4972   -2.4089 H   0  0  0  0  0  0  0  0  0  0  0  0
   -0.2541    0.4613    1.5732 C   0  0  0  0  0  0  0  0  0  0  0  0
   -0.8972    0.1562    2.5776 O   0  0  0  0  0  0  0  0  0  0  0  0
    0.8001    1.2817    1.6209 N   0  0  0  0  0  0  0  0  0  0  0  0
    1.2046    1.5625    0.7346 H   0  0  0  0  0  0  0  0  0  0  0  0
    1.3175    1.9049    2.8368 C   0  0  0  0  0  0  0  0  0  0  0  0
    1.2152    1.2201    3.6825 H   0  0  0  0  0  0  0  0  0  0  0  0
    2.3711    2.1554    2.7057 H   0  0  0  0  0  0  0  0  0  0  0  0
    0.7532    2.8143    3.0497 H   0  0  0  0  0  0  0  0  0  0  0  0
  5  6  2  0  0  0  0
  5  7  1  0  0  0  0
  2  3  1  0  0  0  0
  2  4  1  0  0  0  0
  2  5  1  0  0  0  0
  1  2  1  0  0  0  0
 22 23  2  0  0  0  0
 22 24  1  0  0  0  0
 20 21  1  0  0  0  0
 18 19  1  0  0  0  0
 18 20  1  0  0  0  0
 16 17  1  0  0  0  0
 16 18  1  0  0  0  0
 15 16  2  0  0  0  0
 14 15  1  0  0  0  0
 14 20  2  0  0  0  0
 11 12  1  0  0  0  0
 11 13  1  0  0  0  0
 11 14  1  0  0  0  0
  9 10  1  0  0  0  0
  9 11  1  0  0  0  0
  9 22  1  0  0  0  0
  7  8  1  0  0  0  0
  7  9  1  0  0  0  0
 26 27  1  0  0  0  0
 26 28  1  0  0  0  0
 26 29  1  0  0  0  0
 24 25  1  0  0  0  0
 24 26  1  0  0  0  0
M  END
$$$$
default_name
  -OEChem-01062215323D

 29 29  0     1  0  0  0  0  0999 V2000
   -2.9561   -3.9186    1.3887 H   0  0  0  0  0  0  0  0  0  0  0  0
   -3.1191   -2.9346    0.9517 C   0  0  0  0  0  0  0  0  0  0  0  0
   -3.7811   -2.3546    1.5917 H   0  0  0  0  0  0  0  0  0  0  0  0
   -3.5591   -3.0406   -0.0383 H   0  0  0  0  0  0  0  0  0  0  0  0
   -1.7921   -2.2226    0.8327 C   0  0  0  0  0  0  0  0  0  0  0  0
   -0.7611   -2.7766    1.1927 O   0  0  0  0  0  0  0  0  0  0  0  0
   -1.8201   -0.9926    0.3247 N   0  0  0  0  0  0  0  0  0  0  0  0
   -2.7141   -0.5816    0.0927 H   0  0  0  0  0  0  0  0  0  0  0  0
   -0.6481   -0.1156    0.2017 C   0  0  1  0  0  0  0  0  0  0  0  0
    0.1914   -0.7169   -0.1530 H   0  0  0  0  0  0  0  0  0  0  0  0
   -0.9283    0.9835   -0.8415 C   0  0  0  0  0  0  0  0  0  0  0  0
   -1.8343    1.5275   -0.5705 H   0  0  0  0  0  0  0  0  0  0  0  0
   -0.1060    1.7002   -0.8524 H   0  0  0  0  0  0  0  0  0  0  0  0
   -1.1340    0.4338   -2.2321 C   0  0  0  0  0  0  0  0  0  0  0  0
   -0.1331   -0.0463   -3.0777 N   0  0  0  0  0  0  0  0  0  0  0  0
   -0.7587   -0.4774   -4.1828 C   0  0  0  0  0  0  0  0  0  0  0  0
   -0.2581   -0.9010   -5.0443 H   0  0  0  0  0  0  0  0  0  0  0  0
   -2.0873   -0.3170   -4.0628 N   0  0  0  0  0  0  0  0  0  0  0  0
   -2.7748   -0.5838   -4.7542 H   0  0  0  0  0  0  0  0  0  0  0  0
   -2.3440    0.2533   -2.8359 C   0  0  0  0  0  0  0  0  0  0  0  0
   -3.3087    0.4972   -2.4089 H   0  0  0  0  0  0  0  0  0  0  0  0
   -0.2541    0.4613    1.5732 C   0  0  0  0  0  0  0  0  0  0  0  0
   -0.7021   -0.0404    2.6042 O   0  0  0  0  0  0  0  0  0  0  0  0
    0.5850    1.5017    1.5902 N   0  0  0  0  0  0  0  0  0  0  0  0
    0.8199    1.9174    0.6958 H   0  0  0  0  0  0  0  0  0  0  0  0
    1.0716    2.1609    2.7998 C   0  0  0  0  0  0  0  0  0  0  0  0
    1.2169    1.4257    3.5955 H   0  0  0  0  0  0  0  0  0  0  0  0
    2.0210    2.6577    2.5951 H   0  0  0  0  0  0  0  0  0  0  0  0
    0.3408    2.9000    3.1322 H   0  0  0  0  0  0  0  0  0  0  0  0
  5  6  2  0  0  0  0
  5  7  1  0  0  0  0
  2  3  1  0  0  0  0
  2  4  1  0  0  0  0
  2  5  1  0  0  0  0
  1  2  1  0  0  0  0
 22 23  2  0  0  0  0
 22 24  1  0  0  0  0
 20 21  1  0  0  0  0
 18 19  1  0  0  0  0
 18 20  1  0  0  0  0
 16 17  1  0  0  0  0
 16 18  1  0  0  0  0
 15 16  2  0  0  0  0
 14 15  1  0  0  0  0
 14 20  2  0  0  0  0
 11 12  1  0  0  0  0
 11 13  1  0  0  0  0
 11 14  1  0  0  0  0
  9 10  1  0  0  0  0
  9 11  1  0  0  0  0
  9 22  1  0  0  0  0
  7  8  1  0  0  0  0
  7  9  1  0  0  0  0
 26 27  1  0  0  0  0
 26 28  1  0  0  0  0
 26 29  1  0  0  0  0
 24 25  1  0  0  0  0
 24 26  1  0  0  0  0
M  END
$$$$
default_name
  -OEChem-01062215323D

 29 29  0     1  0  0  0  0  0999 V2000
   -2.9561   -3.9186    1.3887 H   0  0  0  0  0  0  0  0  0  0  0  0
   -3.1191   -2.9346    0.9517 C   0  0  0  0  0  0  0  0  0  0  0  0
   -3.7811   -2.3546    1.5917 H   0  0  0  0  0  0  0  0  0  0  0  0
   -3.5591   -3.0406   -0.0383 H   0  0  0  0  0  0  0  0  0  0  0  0
   -1.7921   -2.2226    0.8327 C   0  0  0  0  0  0  0  0  0  0  0  0
   -0.7611   -2.7766    1.1927 O   0  0  0  0  0  0  0  0  0  0  0  0
   -1.8201   -0.9926    0.3247 N   0  0  0  0  0  0  0  0  0  0  0  0
   -2.7141   -0.5816    0.0927 H   0  0  0  0  0  0  0  0  0  0  0  0
   -0.6481   -0.1156    0.2017 C   0  0  1  0  0  0  0  0  0  0  0  0
    0.1914   -0.7169   -0.1530 H   0  0  0  0  0  0  0  0  0  0  0  0
   -0.9283    0.9835   -0.8415 C   0  0  0  0  0  0  0  0  0  0  0  0
   -1.8343    1.5275   -0.5705 H   0  0  0  0  0  0  0  0  0  0  0  0
   -0.1060    1.7002   -0.8524 H   0  0  0  0  0  0  0  0  0  0  0  0
   -1.1340    0.4338   -2.2321 C   0  0  0  0  0  0  0  0  0  0  0  0
   -0.1331   -0.0463   -3.0777 N   0  0  0  0  0  0  0  0  0  0  0  0
   -0.7587   -0.4774   -4.1828 C   0  0  0  0  0  0  0  0  0  0  0  0
   -0.2581   -0.9010   -5.0443 H   0  0  0  0  0  0  0  0  0  0  0  0
   -2.0873   -0.3170   -4.0628 N   0  0  0  0  0  0  0  0  0  0  0  0
   -2.7748   -0.5838   -4.7542 H   0  0  0  0  0  0  0  0  0  0  0  0
   -2.3440    0.2533   -2.8359 C   0  0  0  0  0  0  0  0  0  0  0  0
   -3.3087    0.4972   -2.4089 H   0  0  0  0  0  0  0  0  0  0  0  0
   -0.2541    0.4613    1.5732 C   0  0  0  0  0  0  0  0  0  0  0  0
   -0.4658   -0.1870    2.5980 O   0  0  0  0  0  0  0  0  0  0  0  0
    0.3235    1.6665    1.5960 N   0  0  0  0  0  0  0  0  0  0  0  0
    0.3627    2.1741    0.7192 H   0  0  0  0  0  0  0  0  0  0  0  0
    0.7715    2.3539    2.8049 C   0  0  0  0  0  0  0  0  0  0  0  0
    1.1627    1.6306    3.5249 H   0  0  0  0  0  0  0  0  0  0  0  0
    1.5563    3.0694    2.5554 H   0  0  0  0  0  0  0  0  0  0  0  0
   -0.0692    2.8821    3.2575 H   0  0  0  0  0  0  0  0  0  0  0  0
  5  6  2  0  0  0  0
  5  7  1  0  0  0  0
  2  3  1  0  0  0  0
  2  4  1  0  0  0  0
  2  5  1  0  0  0  0
  1  2  1  0  0  0  0
 22 23  2  0  0  0  0
 22 24  1  0  0  0  0
 20 21  1  0  0  0  0
 18 19  1  0  0  0  0
 18 20  1  0  0  0  0
 16 17  1  0  0  0  0
 16 18  1  0  0  0  0
 15 16  2  0  0  0  0
 14 15  1  0  0  0  0
 14 20  2  0  0  0  0
 11 12  1  0  0  0  0
 11 13  1  0  0  0  0
 11 14  1  0  0  0  0
  9 10  1  0  0  0  0
  9 11  1  0  0  0  0
  9 22  1  0  0  0  0
  7  8  1  0  0  0  0
  7  9  1  0  0  0  0
 26 27  1  0  0  0  0
 26 28  1  0  0  0  0
 26 29  1  0  0  0  0
 24 25  1  0  0  0  0
 24 26  1  0  0  0  0
M  END
$$$$
default_name
  -OEChem-01062215323D

 29 29  0     1  0  0  0  0  0999 V2000
   -2.9561   -3.9186    1.3887 H   0  0  0  0  0  0  0  0  0  0  0  0
   -3.1191   -2.9346    0.9517 C   0  0  0  0  0  0  0  0  0  0  0  0
   -3.7811   -2.3546    1.5917 H   0  0  0  0  0  0  0  0  0  0  0  0
   -3.5591   -3.0406   -0.0383 H   0  0  0  0  0  0  0  0  0  0  0  0
   -1.7921   -2.2226    0.8327 C   0  0  0  0  0  0  0  0  0  0  0  0
   -0.7611   -2.7766    1.1927 O   0  0  0  0  0  0  0  0  0  0  0  0
   -1.8201   -0.9926    0.3247 N   0  0  0  0  0  0  0  0  0  0  0  0
   -2.7141   -0.5816    0.0927 H   0  0  0  0  0  0  0  0  0  0  0  0
   -0.6481   -0.1156    0.2017 C   0  0  1  0  0  0  0  0  0  0  0  0
    0.1914   -0.7169   -0.1530 H   0  0  0  0  0  0  0  0  0  0  0  0
   -0.9283    0.9835   -0.8415 C   0  0  0  0  0  0  0  0  0  0  0  0
   -1.8343    1.5275   -0.5705 H   0  0  0  0  0  0  0  0  0  0  0  0
   -0.1060    1.7002   -0.8524 H   0  0  0  0  0  0  0  0  0  0  0  0
   -1.1340    0.4338   -2.2321 C   0  0  0  0  0  0  0  0  0  0  0  0
   -0.1331   -0.0463   -3.0777 N   0  0  0  0  0  0  0  0  0  0  0  0
   -0.7587   -0.4774   -4.1828 C   0  0  0  0  0  0  0  0  0  0  0  0
   -0.2581   -0.9010   -5.0443 H   0  0  0  0  0  0  0  0  0  0  0  0
   -2.0873   -0.3170   -4.0628 N   0  0  0  0  0  0  0  0  0  0  0  0
   -2.7748   -0.5838   -4.7542 H   0  0  0  0  0  0  0  0  0  0  0  0
   -2.3440    0.2533   -2.8359 C   0  0  0  0  0  0  0  0  0  0  0  0
   -3.3087    0.4972   -2.4089 H   0  0  0  0  0  0  0  0  0  0  0  0
   -0.2541    0.4613    1.5732 C   0  0  0  0  0  0  0  0  0  0  0  0
   -0.2043   -0.2738    2.5594 O   0  0  0  0  0  0  0  0  0  0  0  0
    0.0335    1.7651    1.6378 N   0  0  0  0  0  0  0  0  0  0  0  0
   -0.1358    2.3151    0.8031 H   0  0  0  0  0  0  0  0  0  0  0  0
    0.4376    2.4707    2.8516 C   0  0  0  0  0  0  0  0  0  0  0  0
    1.0562    1.8206    3.4756 H   0  0  0  0  0  0  0  0  0  0  0  0
    1.0086    3.3626    2.5895 H   0  0  0  0  0  0  0  0  0  0  0  0
   -0.4490    2.7620    3.4172 H   0  0  0  0  0  0  0  0  0  0  0  0
  5  6  2  0  0  0  0
  5  7  1  0  0  0  0
  2  3  1  0  0  0  0
  2  4  1  0  0  0  0
  2  5  1  0  0  0  0
  1  2  1  0  0  0  0
 22 23  2  0  0  0  0
 22 24  1  0  0  0  0
 20 21  1  0  0  0  0
 18 19  1  0  0  0  0
 18 20  1  0  0  0  0
 16 17  1  0  0  0  0
 16 18  1  0  0  0  0
 15 16  2  0  0  0  0
 14 15  1  0  0  0  0
 14 20  2  0  0  0  0
 11 12  1  0  0  0  0
 11 13  1  0  0  0  0
 11 14  1  0  0  0  0
  9 10  1  0  0  0  0
  9 11  1  0  0  0  0
  9 22  1  0  0  0  0
  7  8  1  0  0  0  0
  7  9  1  0  0  0  0
 26 27  1  0  0  0  0
 26 28  1  0  0  0  0
 26 29  1  0  0  0  0
 24 25  1  0  0  0  0
 24 26  1  0  0  0  0
M  END
$$$$
default_name
  -OEChem-01062215323D

 29 29  0     1  0  0  0  0  0999 V2000
   -2.9561   -3.9186    1.3887 H   0  0  0  0  0  0  0  0  0  0  0  0
   -3.1191   -2.9346    0.9517 C   0  0  0  0  0  0  0  0  0  0  0  0
   -3.7811   -2.3546    1.5917 H   0  0  0  0  0  0  0  0  0  0  0  0
   -3.5591   -3.0406   -0.0383 H   0  0  0  0  0  0  0  0  0  0  0  0
   -1.7921   -2.2226    0.8327 C   0  0  0  0  0  0  0  0  0  0  0  0
   -0.7611   -2.7766    1.1927 O   0  0  0  0  0  0  0  0  0  0  0  0
   -1.8201   -0.9926    0.3247 N   0  0  0  0  0  0  0  0  0  0  0  0
   -2.7141   -0.5816    0.0927 H   0  0  0  0  0  0  0  0  0  0  0  0
   -0.6481   -0.1156    0.2017 C   0  0  1  0  0  0  0  0  0  0  0  0
    0.1914   -0.7169   -0.1530 H   0  0  0  0  0  0  0  0  0  0  0  0
   -0.9283    0.9835   -0.8415 C   0  0  0  0  0  0  0  0  0  0  0  0
   -1.8343    1.5275   -0.5705 H   0  0  0  0  0  0  0  0  0  0  0  0
   -0.1060    1.7002   -0.8524 H   0  0  0  0  0  0  0  0  0  0  0  0
   -1.1340    0.4338   -2.2321 C   0  0  0  0  0  0  0  0  0  0  0  0
   -0.1331   -0.0463   -3.0777 N   0  0  0  0  0  0  0  0  0  0  0  0
   -0.7587   -0.4774   -4.1828 C   0  0  0  0  0  0  0  0  0  0  0  0
   -0.2581   -0.9010   -5.0443 H   0  0  0  0  0  0  0  0  0  0  0  0
   -2.0873   -0.3170   -4.0628 N   0  0  0  0  0  0  0  0  0  0  0  0
   -2.7748   -0.5838   -4.7542 H   0  0  0  0  0  0  0  0  0  0  0  0
   -2.3440    0.2533   -2.8359 C   0  0  0  0  0  0  0  0  0  0  0  0
   -3.3087    0.4972   -2.4089 H   0  0  0  0  0  0  0  0  0  0  0  0
   -0.2541    0.4613    1.5732 C   0  0  0  0  0  0  0  0  0  0  0  0
    0.0646   -0.2948    2.4909 O   0  0  0  0  0  0  0  0  0  0  0  0
   -0.2653    1.7906    1.7129 N   0  0  0  0  0  0  0  0  0  0  0  0
   -0.6418    2.3307    0.9419 H   0  0  0  0  0  0  0  0  0  0  0  0
    0.0927    2.5035    2.9370 C   0  0  0  0  0  0  0  0  0  0  0  0
    0.9048    1.9828    3.4509 H   0  0  0  0  0  0  0  0  0  0  0  0
    0.4153    3.5171    2.6950 H   0  0  0  0  0  0  0  0  0  0  0  0
   -0.7727    2.5478    3.6002 H   0  0  0  0  0  0  0  0  0  0  0  0
  5  6  2  0  0  0  0
  5  7  1  0  0  0  0
  2  3  1  0  0  0  0
  2  4  1  0  0  0  0
  2  5  1  0  0  0  0
  1  2  1  0  0  0  0
 22 23  2  0  0  0  0
 22 24  1  0  0  0  0
 20 21  1  0  0  0  0
 18 19  1  0  0  0  0
 18 20  1  0  0  0  0
 16 17  1  0  0  0  0
 16 18  1  0  0  0  0
 15 16  2  0  0  0  0
 14 15  1  0  0  0  0
 14 20  2  0  0  0  0
 11 12  1  0  0  0  0
 11 13  1  0  0  0  0
 11 14  1  0  0  0  0
  9 10  1  0  0  0  0
  9 11  1  0  0  0  0
  9 22  1  0  0  0  0
  7  8  1  0  0  0  0
  7  9  1  0  0  0  0
 26 27  1  0  0  0  0
 26 28  1  0  0  0  0
 26 29  1  0  0  0  0
 24 25  1  0  0  0  0
 24 26  1  0  0  0  0
M  END
$$$$
default_name
  -OEChem-01062215323D

 29 29  0     1  0  0  0  0  0999 V2000
   -2.9561   -3.9186    1.3887 H   0  0  0  0  0  0  0  0  0  0  0  0
   -3.1191   -2.9346    0.9517 C   0  0  0  0  0  0  0  0  0  0  0  0
   -3.7811   -2.3546    1.5917 H   0  0  0  0  0  0  0  0  0  0  0  0
   -3.5591   -3.0406   -0.0383 H   0  0  0  0  0  0  0  0  0  0  0  0
   -1.7921   -2.2226    0.8327 C   0  0  0  0  0  0  0  0  0  0  0  0
   -0.7611   -2.7766    1.1927 O   0  0  0  0  0  0  0  0  0  0  0  0
   -1.8201   -0.9926    0.3247 N   0  0  0  0  0  0  0  0  0  0  0  0
   -2.7141   -0.5816    0.0927 H   0  0  0  0  0  0  0  0  0  0  0  0
   -0.6481   -0.1156    0.2017 C   0  0  1  0  0  0  0  0  0  0  0  0
    0.1914   -0.7169   -0.1530 H   0  0  0  0  0  0  0  0  0  0  0  0
   -0.9283    0.9835   -0.8415 C   0  0  0  0  0  0  0  0  0  0  0  0
   -1.8343    1.5275   -0.5705 H   0  0  0  0  0  0  0  0  0  0  0  0
   -0.1060    1.7002   -0.8524 H   0  0  0  0  0  0  0  0  0  0  0  0
   -1.1340    0.4338   -2.2321 C   0  0  0  0  0  0  0  0  0  0  0  0
   -0.1331   -0.0463   -3.0777 N   0  0  0  0  0  0  0  0  0  0  0  0
   -0.7587   -0.4774   -4.1828 C   0  0  0  0  0  0  0  0  0  0  0  0
   -0.2581   -0.9010   -5.0443 H   0  0  0  0  0  0  0  0  0  0  0  0
   -2.0873   -0.3170   -4.0628 N   0  0  0  0  0  0  0  0  0  0  0  0
   -2.7748   -0.5838   -4.7542 H   0  0  0  0  0  0  0  0  0  0  0  0
   -2.3440    0.2533   -2.8359 C   0  0  0  0  0  0  0  0  0  0  0  0
   -3.3087    0.4972   -2.4089 H   0  0  0  0  0  0  0  0  0  0  0  0
   -0.2541    0.4613    1.5732 C   0  0  0  0  0  0  0  0  0  0  0  0
    0.3225   -0.2484    2.3973 O   0  0  0  0  0  0  0  0  0  0  0  0
   -0.5525    1.7414    1.8162 N   0  0  0  0  0  0  0  0  0  0  0  0
   -1.1206    2.2199    1.1261 H   0  0  0  0  0  0  0  0  0  0  0  0
   -0.2398    2.4499    3.0550 C   0  0  0  0  0  0  0  0  0  0  0  0
    0.7187    2.1063    3.4524 H   0  0  0  0  0  0  0  0  0  0  0  0
   -0.1833    3.5226    2.8646 H   0  0  0  0  0  0  0  0  0  0  0  0
   -1.0182    2.2542    3.7943 H   0  0  0  0  0  0  0  0  0  0  0  0
  5  6  2  0  0  0  0
  5  7  1  0  0  0  0
  2  3  1  0  0  0  0
  2  4  1  0  0  0  0
  2  5  1  0  0  0  0
  1  2  1  0  0  0  0
 22 23  2  0  0  0  0
 22 24  1  0  0  0  0
 20 21  1  0  0  0  0
 18 19  1  0  0  0  0
 18 20  1  0  0  0  0
 16 17  1  0  0  0  0
 16 18  1  0  0  0  0
 15 16  2  0  0  0  0
 14 15  1  0  0  0  0
 14 20  2  0  0  0  0
 11 12  1  0  0  0  0
 11 13  1  0  0  0  0
 11 14  1  0  0  0  0
  9 10  1  0  0  0  0
  9 11  1  0  0  0  0
  9 22  1  0  0  0  0
  7  8  1  0  0  0  0
  7  9  1  0  0  0  0
 26 27  1  0  0  0  0
 26 28  1  0  0  0  0
 26 29  1  0  0  0  0
 24 25  1  0  0  0  0
 24 26  1  0  0  0  0
M  END
$$$$
default_name
  -OEChem-01062215323D

 29 29  0     1  0  0  0  0  0999 V2000
   -2.9561   -3.9186    1.3887 H   0  0  0  0  0  0  0  0  0  0  0  0
   -3.1191   -2.9346    0.9517 C   0  0  0  0  0  0  0  0  0  0  0  0
   -3.7811   -2.3546    1.5917 H   0  0  0  0  0  0  0  0  0  0  0  0
   -3.5591   -3.0406   -0.0383 H   0  0  0  0  0  0  0  0  0  0  0  0
   -1.7921   -2.2226    0.8327 C   0  0  0  0  0  0  0  0  0  0  0  0
   -0.7611   -2.7766    1.1927 O   0  0  0  0  0  0  0  0  0  0  0  0
   -1.8201   -0.9926    0.3247 N   0  0  0  0  0  0  0  0  0  0  0  0
   -2.7141   -0.5816    0.0927 H   0  0  0  0  0  0  0  0  0  0  0  0
   -0.6481   -0.1156    0.2017 C   0  0  1  0  0  0  0  0  0  0  0  0
    0.1914   -0.7169   -0.1530 H   0  0  0  0  0  0  0  0  0  0  0  0
   -0.9283    0.9835   -0.8415 C   0  0  0  0  0  0  0  0  0  0  0  0
   -1.8343    1.5275   -0.5705 H   0  0  0  0  0  0  0  0  0  0  0  0
   -0.1060    1.7002   -0.8524 H   0  0  0  0  0  0  0  0  0  0  0  0
   -1.1340    0.4338   -2.2321 C   0  0  0  0  0  0  0  0  0  0  0  0
   -0.1331   -0.0463   -3.0777 N   0  0  0  0  0  0  0  0  0  0  0  0
   -0.7587   -0.4774   -4.1828 C   0  0  0  0  0  0  0  0  0  0  0  0
   -0.2581   -0.9010   -5.0443 H   0  0  0  0  0  0  0  0  0  0  0  0
   -2.0873   -0.3170   -4.0628 N   0  0  0  0  0  0  0  0  0  0  0  0
   -2.7748   -0.5838   -4.7542 H   0  0  0  0  0  0  0  0  0  0  0  0
   -2.3440    0.2533   -2.8359 C   0  0  0  0  0  0  0  0  0  0  0  0
   -3.3087    0.4972   -2.4089 H   0  0  0  0  0  0  0  0  0  0  0  0
   -0.2541    0.4613    1.5732 C   0  0  0  0  0  0  0  0  0  0  0  0
    0.5518   -0.1380    2.2850 O   0  0  0  0  0  0  0  0  0  0  0  0
   -0.8086    1.6208    1.9405 N   0  0  0  0  0  0  0  0  0  0  0  0
   -1.5397    1.9903    1.3431 H   0  0  0  0  0  0  0  0  0  0  0  0
   -0.5371    2.3137    3.1977 C   0  0  0  0  0  0  0  0  0  0  0  0
    0.5106    2.1825    3.4801 H   0  0  0  0  0  0  0  0  0  0  0  0
   -0.7462    3.3787    3.0869 H   0  0  0  0  0  0  0  0  0  0  0  0
   -1.1688    1.9011    3.9861 H   0  0  0  0  0  0  0  0  0  0  0  0
  5  6  2  0  0  0  0
  5  7  1  0  0  0  0
  2  3  1  0  0  0  0
  2  4  1  0  0  0  0
  2  5  1  0  0  0  0
  1  2  1  0  0  0  0
 22 23  2  0  0  0  0
 22 24  1  0  0  0  0
 20 21  1  0  0  0  0
 18 19  1  0  0  0  0
 18 20  1  0  0  0  0
 16 17  1  0  0  0  0
 16 18  1  0  0  0  0
 15 16  2  0  0  0  0
 14 15  1  0  0  0  0
 14 20  2  0  0  0  0
 11 12  1  0  0  0  0
 11 13  1  0  0  0  0
 11 14  1  0  0  0  0
  9 10  1  0  0  0  0
  9 11  1  0  0  0  0
  9 22  1  0  0  0  0
  7  8  1  0  0  0  0
  7  9  1  0  0  0  0
 26 27  1  0  0  0  0
 26 28  1  0  0  0  0
 26 29  1  0  0  0  0
 24 25  1  0  0  0  0
 24 26  1  0  0  0  0
M  END
$$$$
default_name
  -OEChem-01062215323D

 29 29  0     1  0  0  0  0  0999 V2000
   -2.9561   -3.9186    1.3887 H   0  0  0  0  0  0  0  0  0  0  0  0
   -3.1191   -2.9346    0.9517 C   0  0  0  0  0  0  0  0  0  0  0  0
   -3.7811   -2.3546    1.5917 H   0  0  0  0  0  0  0  0  0  0  0  0
   -3.5591   -3.0406   -0.0383 H   0  0  0  0  0  0  0  0  0  0  0  0
   -1.7921   -2.2226    0.8327 C   0  0  0  0  0  0  0  0  0  0  0  0
   -0.7611   -2.7766    1.1927 O   0  0  0  0  0  0  0  0  0  0  0  0
   -1.8201   -0.9926    0.3247 N   0  0  0  0  0  0  0  0  0  0  0  0
   -2.7141   -0.5816    0.0927 H   0  0  0  0  0  0  0  0  0  0  0  0
   -0.6481   -0.1156    0.2017 C   0  0  1  0  0  0  0  0  0  0  0  0
    0.1914   -0.7169   -0.1530 H   0  0  0  0  0  0  0  0  0  0  0  0
   -0.9283    0.9835   -0.8415 C   0  0  0  0  0  0  0  0  0  0  0  0
   -1.8343    1.5275   -0.5705 H   0  0  0  0  0  0  0  0  0  0  0  0
   -0.1060    1.7002   -0.8524 H   0  0  0  0  0  0  0  0  0  0  0  0
   -1.1340    0.4338   -2.2321 C   0  0  0  0  0  0  0  0  0  0  0  0
   -0.1331   -0.0463   -3.0777 N   0  0  0  0  0  0  0  0  0  0  0  0
   -0.7587   -0.4774   -4.1828 C   0  0  0  0  0  0  0  0  0  0  0  0
   -0.2581   -0.9010   -5.0443 H   0  0  0  0  0  0  0  0  0  0  0  0
   -2.0873   -0.3170   -4.0628 N   0  0  0  0  0  0  0  0  0  0  0  0
   -2.7748   -0.5838   -4.7542 H   0  0  0  0  0  0  0  0  0  0  0  0
   -2.3440    0.2533   -2.8359 C   0  0  0  0  0  0  0  0  0  0  0  0
   -3.3087    0.4972   -2.4089 H   0  0  0  0  0  0  0  0  0  0  0  0
   -0.2541    0.4613    1.5732 C   0  0  0  0  0  0  0  0  0  0  0  0
    0.7370    0.0290    2.1616 O   0  0  0  0  0  0  0  0  0  0  0  0
   -1.0161    1.4369    2.0774 N   0  0  0  0  0  0  0  0  0  0  0  0
   -1.8705    1.6575    1.5781 H   0  0  0  0  0  0  0  0  0  0  0  0
   -0.7791    2.1041    3.3554 C   0  0  0  0  0  0  0  0  0  0  0  0
    0.2947    2.2063    3.5321 H   0  0  0  0  0  0  0  0  0  0  0  0
   -1.2353    3.0950    3.3467 H   0  0  0  0  0  0  0  0  0  0  0  0
   -1.2142    1.5125    4.1625 H   0  0  0  0  0  0  0  0  0  0  0  0
  5  6  2  0  0  0  0
  5  7  1  0  0  0  0
  2  3  1  0  0  0  0
  2  4  1  0  0  0  0
  2  5  1  0  0  0  0
  1  2  1  0  0  0  0
 22 23  2  0  0  0  0
 22 24  1  0  0  0  0
 20 21  1  0  0  0  0
 18 19  1  0  0  0  0
 18 20  1  0  0  0  0
 16 17  1  0  0  0  0
 16 18  1  0  0  0  0
 15 16  2  0  0  0  0
 14 15  1  0  0  0  0
 14 20  2  0  0  0  0
 11 12  1  0  0  0  0
 11 13  1  0  0  0  0
 11 14  1  0  0  0  0
  9 10  1  0  0  0  0
  9 11  1  0  0  0  0
  9 22  1  0  0  0  0
  7  8  1  0  0  0  0
  7  9  1  0  0  0  0
 26 27  1  0  0  0  0
 26 28  1  0  0  0  0
 26 29  1  0  0  0  0
 24 25  1  0  0  0  0
 24 26  1  0  0  0  0
M  END
$$$$
default_name
  -OEChem-01062215323D

 29 29  0     1  0  0  0  0  0999 V2000
   -2.9561   -3.9186    1.3887 H   0  0  0  0  0  0  0  0  0  0  0  0
   -3.1191   -2.9346    0.9517 C   0  0  0  0  0  0  0  0  0  0  0  0
   -3.7811   -2.3546    1.5917 H   0  0  0  0  0  0  0  0  0  0  0  0
   -3.5591   -3.0406   -0.0383 H   0  0  0  0  0  0  0  0  0  0  0  0
   -1.7921   -2.2226    0.8327 C   0  0  0  0  0  0  0  0  0  0  0  0
   -0.7611   -2.7766    1.1927 O   0  0  0  0  0  0  0  0  0  0  0  0
   -1.8201   -0.9926    0.3247 N   0  0  0  0  0  0  0  0  0  0  0  0
   -2.7141   -0.5816    0.0927 H   0  0  0  0  0  0  0  0  0  0  0  0
   -0.6481   -0.1156    0.2017 C   0  0  1  0  0  0  0  0  0  0  0  0
    0.1914   -0.7169   -0.1530 H   0  0  0  0  0  0  0  0  0  0  0  0
   -0.9283    0.9835   -0.8415 C   0  0  0  0  0  0  0  0  0  0  0  0
   -1.8343    1.5275   -0.5705 H   0  0  0  0  0  0  0  0  0  0  0  0
   -0.1060    1.7002   -0.8524 H   0  0  0  0  0  0  0  0  0  0  0  0
   -1.1340    0.4338   -2.2321 C   0  0  0  0  0  0  0  0  0  0  0  0
   -0.1331   -0.0463   -3.0777 N   0  0  0  0  0  0  0  0  0  0  0  0
   -0.7587   -0.4774   -4.1828 C   0  0  0  0  0  0  0  0  0  0  0  0
   -0.2581   -0.9010   -5.0443 H   0  0  0  0  0  0  0  0  0  0  0  0
   -2.0873   -0.3170   -4.0628 N   0  0  0  0  0  0  0  0  0  0  0  0
   -2.7748   -0.5838   -4.7542 H   0  0  0  0  0  0  0  0  0  0  0  0
   -2.3440    0.2533   -2.8359 C   0  0  0  0  0  0  0  0  0  0  0  0
   -3.3087    0.4972   -2.4089 H   0  0  0  0  0  0  0  0  0  0  0  0
   -0.2541    0.4613    1.5732 C   0  0  0  0  0  0  0  0  0  0  0  0
    0.8654    0.2411    2.0354 O   0  0  0  0  0  0  0  0  0  0  0  0
   -1.1608    1.2025    2.2176 N   0  0  0  0  0  0  0  0  0  0  0  0
   -2.0905    1.2441    1.8152 H   0  0  0  0  0  0  0  0  0  0  0  0
   -0.9491    1.8354    3.5173 C   0  0  0  0  0  0  0  0  0  0  0  0
    0.0858    2.1760    3.6049 H   0  0  0  0  0  0  0  0  0  0  0  0
   -1.6170    2.6911    3.6263 H   0  0  0  0  0  0  0  0  0  0  0  0
   -1.1513    1.1151    4.3116 H   0  0  0  0  0  0  0  0  0  0  0  0
  5  6  2  0  0  0  0
  5  7  1  0  0  0  0
  2  3  1  0  0  0  0
  2  4  1  0  0  0  0
  2  5  1  0  0  0  0
  1  2  1  0  0  0  0
 22 23  2  0  0  0  0
 22 24  1  0  0  0  0
 20 21  1  0  0  0  0
 18 19  1  0  0  0  0
 18 20  1  0  0  0  0
 16 17  1  0  0  0  0
 16 18  1  0  0  0  0
 15 16  2  0  0  0  0
 14 15  1  0  0  0  0
 14 20  2  0  0  0  0
 11 12  1  0  0  0  0
 11 13  1  0  0  0  0
 11 14  1  0  0  0  0
  9 10  1  0  0  0  0
  9 11  1  0  0  0  0
  9 22  1  0  0  0  0
  7  8  1  0  0  0  0
  7  9  1  0  0  0  0
 26 27  1  0  0  0  0
 26 28  1  0  0  0  0
 26 29  1  0  0  0  0
 24 25  1  0  0  0  0
 24 26  1  0  0  0  0
M  END
$$$$
default_name
  -OEChem-01062215323D

 29 29  0     1  0  0  0  0  0999 V2000
   -2.9561   -3.9186    1.3887 H   0  0  0  0  0  0  0  0  0  0  0  0
   -3.1191   -2.9346    0.9517 C   0  0  0  0  0  0  0  0  0  0  0  0
   -3.7811   -2.3546    1.5917 H   0  0  0  0  0  0  0  0  0  0  0  0
   -3.5591   -3.0406   -0.0383 H   0  0  0  0  0  0  0  0  0  0  0  0
   -1.7921   -2.2226    0.8327 C   0  0  0  0  0  0  0  0  0  0  0  0
   -0.7611   -2.7766    1.1927 O   0  0  0  0  0  0  0  0  0  0  0  0
   -1.8201   -0.9926    0.3247 N   0  0  0  0  0  0  0  0  0  0  0  0
   -2.7141   -0.5816    0.0927 H   0  0  0  0  0  0  0  0  0  0  0  0
   -0.6481   -0.1156    0.2017 C   0  0  1  0  0  0  0  0  0  0  0  0
    0.1914   -0.7169   -0.1530 H   0  0  0  0  0  0  0  0  0  0  0  0
   -0.9283    0.9835   -0.8415 C   0  0  0  0  0  0  0  0  0  0  0  0
   -1.8343    1.5275   -0.5705 H   0  0  0  0  0  0  0  0  0  0  0  0
   -0.1060    1.7002   -0.8524 H   0  0  0  0  0  0  0  0  0  0  0  0
   -1.1340    0.4338   -2.2321 C   0  0  0  0  0  0  0  0  0  0  0  0
   -0.1331   -0.0463   -3.0777 N   0  0  0  0  0  0  0  0  0  0  0  0
   -0.7587   -0.4774   -4.1828 C   0  0  0  0  0  0  0  0  0  0  0  0
   -0.2581   -0.9010   -5.0443 H   0  0  0  0  0  0  0  0  0  0  0  0
   -2.0873   -0.3170   -4.0628 N   0  0  0  0  0  0  0  0  0  0  0  0
   -2.7748   -0.5838   -4.7542 H   0  0  0  0  0  0  0  0  0  0  0  0
   -2.3440    0.2533   -2.8359 C   0  0  0  0  0  0  0  0  0  0  0  0
   -3.3087    0.4972   -2.4089 H   0  0  0  0  0  0  0  0  0  0  0  0
   -0.2541    0.4613    1.5732 C   0  0  0  0  0  0  0  0  0  0  0  0
    0.9282    0.4841    1.9152 O   0  0  0  0  0  0  0  0  0  0  0  0
   -1.2329    0.9333    2.3515 N   0  0  0  0  0  0  0  0  0  0  0  0
   -2.1846    0.7784    2.0381 H   0  0  0  0  0  0  0  0  0  0  0  0
   -1.0357    1.5259    3.6723 C   0  0  0  0  0  0  0  0  0  0  0  0
   -0.1020    2.0938    3.6935 H   0  0  0  0  0  0  0  0  0  0  0  0
   -1.8654    2.1943    3.9066 H   0  0  0  0  0  0  0  0  0  0  0  0
   -0.9845    0.7358    4.4232 H   0  0  0  0  0  0  0  0  0  0  0  0
  5  6  2  0  0  0  0
  5  7  1  0  0  0  0
  2  3  1  0  0  0  0
  2  4  1  0  0  0  0
  2  5  1  0  0  0  0
  1  2  1  0  0  0  0
 22 23  2  0  0  0  0
 22 24  1  0  0  0  0
 20 21  1  0  0  0  0
 18 19  1  0  0  0  0
 18 20  1  0  0  0  0
 16 17  1  0  0  0  0
 16 18  1  0  0  0  0
 15 16  2  0  0  0  0
 14 15  1  0  0  0  0
 14 20  2  0  0  0  0
 11 12  1  0  0  0  0
 11 13  1  0  0  0  0
 11 14  1  0  0  0  0
  9 10  1  0  0  0  0
  9 11  1  0  0  0  0
  9 22  1  0  0  0  0
  7  8  1  0  0  0  0
  7  9  1  0  0  0  0
 26 27  1  0  0  0  0
 26 28  1  0  0  0  0
 26 29  1  0  0  0  0
 24 25  1  0  0  0  0
 24 26  1  0  0  0  0
M  END
$$$$
default_name
  -OEChem-01062215323D

 29 29  0     1  0  0  0  0  0999 V2000
   -2.9561   -3.9186    1.3887 H   0  0  0  0  0  0  0  0  0  0  0  0
   -3.1191   -2.9346    0.9517 C   0  0  0  0  0  0  0  0  0  0  0  0
   -3.7811   -2.3546    1.5917 H   0  0  0  0  0  0  0  0  0  0  0  0
   -3.5591   -3.0406   -0.0383 H   0  0  0  0  0  0  0  0  0  0  0  0
   -1.7921   -2.2226    0.8327 C   0  0  0  0  0  0  0  0  0  0  0  0
   -0.7611   -2.7766    1.1927 O   0  0  0  0  0  0  0  0  0  0  0  0
   -1.8201   -0.9926    0.3247 N   0  0  0  0  0  0  0  0  0  0  0  0
   -2.7141   -0.5816    0.0927 H   0  0  0  0  0  0  0  0  0  0  0  0
   -0.6481   -0.1156    0.2017 C   0  0  1  0  0  0  0  0  0  0  0  0
    0.1914   -0.7169   -0.1530 H   0  0  0  0  0  0  0  0  0  0  0  0
   -0.9283    0.9835   -0.8415 C   0  0  0  0  0  0  0  0  0  0  0  0
   -1.8343    1.5275   -0.5705 H   0  0  0  0  0  0  0  0  0  0  0  0
   -0.1060    1.7002   -0.8524 H   0  0  0  0  0  0  0  0  0  0  0  0
   -1.1340    0.4338   -2.2321 C   0  0  0  0  0  0  0  0  0  0  0  0
   -0.1331   -0.0463   -3.0777 N   0  0  0  0  0  0  0  0  0  0  0  0
   -0.7587   -0.4774   -4.1828 C   0  0  0  0  0  0  0  0  0  0  0  0
   -0.2581   -0.9010   -5.0443 H   0  0  0  0  0  0  0  0  0  0  0  0
   -2.0873   -0.3170   -4.0628 N   0  0  0  0  0  0  0  0  0  0  0  0
   -2.7748   -0.5838   -4.7542 H   0  0  0  0  0  0  0  0  0  0  0  0
   -2.3440    0.2533   -2.8359 C   0  0  0  0  0  0  0  0  0  0  0  0
   -3.3087    0.4972   -2.4089 H   0  0  0  0  0  0  0  0  0  0  0  0
   -0.2541    0.4613    1.5732 C   0  0  0  0  0  0  0  0  0  0  0  0
    0.9212    0.7412    1.8091 O   0  0  0  0  0  0  0  0  0  0  0  0
   -1.2275    0.6478    2.4701 N   0  0  0  0  0  0  0  0  0  0  0  0
   -2.1465    0.2920    2.2317 H   0  0  0  0  0  0  0  0  0  0  0  0
   -1.0329    1.1967    3.8100 C   0  0  0  0  0  0  0  0  0  0  0  0
   -0.2559    1.9652    3.7918 H   0  0  0  0  0  0  0  0  0  0  0  0
   -1.9637    1.6386    4.1686 H   0  0  0  0  0  0  0  0  0  0  0  0
   -0.7250    0.4005    4.4897 H   0  0  0  0  0  0  0  0  0  0  0  0
  5  6  2  0  0  0  0
  5  7  1  0  0  0  0
  2  3  1  0  0  0  0
  2  4  1  0  0  0  0
  2  5  1  0  0  0  0
  1  2  1  0  0  0  0
 22 23  2  0  0  0  0
 22 24  1  0  0  0  0
 20 21  1  0  0  0  0
 18 19  1  0  0  0  0
 18 20  1  0  0  0  0
 16 17  1  0  0  0  0
 16 18  1  0  0  0  0
 15 16  2  0  0  0  0
 14 15  1  0  0  0  0
 14 20  2  0  0  0  0
 11 12  1  0  0  0  0
 11 13  1  0  0  0  0
 11 14  1  0  0  0  0
  9 10  1  0  0  0  0
  9 11  1  0  0  0  0
  9 22  1  0  0  0  0
  7  8  1  0  0  0  0
  7  9  1  0  0  0  0
 26 27  1  0  0  0  0
 26 28  1  0  0  0  0
 26 29  1  0  0  0  0
 24 25  1  0  0  0  0
 24 26  1  0  0  0  0
M  END
$$$$
default_name
  -OEChem-01062215323D

 29 29  0     1  0  0  0  0  0999 V2000
   -2.9561   -3.9186    1.3887 H   0  0  0  0  0  0  0  0  0  0  0  0
   -3.1191   -2.9346    0.9517 C   0  0  0  0  0  0  0  0  0  0  0  0
   -3.7811   -2.3546    1.5917 H   0  0  0  0  0  0  0  0  0  0  0  0
   -3.5591   -3.0406   -0.0383 H   0  0  0  0  0  0  0  0  0  0  0  0
   -1.7921   -2.2226    0.8327 C   0  0  0  0  0  0  0  0  0  0  0  0
   -0.7611   -2.7766    1.1927 O   0  0  0  0  0  0  0  0  0  0  0  0
   -1.8201   -0.9926    0.3247 N   0  0  0  0  0  0  0  0  0  0  0  0
   -2.7141   -0.5816    0.0927 H   0  0  0  0  0  0  0  0  0  0  0  0
   -0.6481   -0.1156    0.2017 C   0  0  1  0  0  0  0  0  0  0  0  0
    0.1914   -0.7169   -0.1530 H   0  0  0  0  0  0  0  0  0  0  0  0
   -0.9283    0.9835   -0.8415 C   0  0  0  0  0  0  0  0  0  0  0  0
   -1.8343    1.5275   -0.5705 H   0  0  0  0  0  0  0  0  0  0  0  0
   -0.1060    1.7002   -0.8524 H   0  0  0  0  0  0  0  0  0  0  0  0
   -1.1340    0.4338   -2.2321 C   0  0  0  0  0  0  0  0  0  0  0  0
   -0.1331   -0.0463   -3.0777 N   0  0  0  0  0  0  0  0  0  0  0  0
   -0.7587   -0.4774   -4.1828 C   0  0  0  0  0  0  0  0  0  0  0  0
   -0.2581   -0.9010   -5.0443 H   0  0  0  0  0  0  0  0  0  0  0  0
   -2.0873   -0.3170   -4.0628 N   0  0  0  0  0  0  0  0  0  0  0  0
   -2.7748   -0.5838   -4.7542 H   0  0  0  0  0  0  0  0  0  0  0  0
   -2.3440    0.2533   -2.8359 C   0  0  0  0  0  0  0  0  0  0  0  0
   -3.3087    0.4972   -2.4089 H   0  0  0  0  0  0  0  0  0  0  0  0
   -0.2541    0.4613    1.5732 C   0  0  0  0  0  0  0  0  0  0  0  0
    0.8449    0.9949    1.7243 O   0  0  0  0  0  0  0  0  0  0  0  0
   -1.1450    0.3655    2.5651 N   0  0  0  0  0  0  0  0  0  0  0  0
   -1.9788   -0.1818    2.3828 H   0  0  0  0  0  0  0  0  0  0  0  0
   -0.9410    0.8702    3.9209 C   0  0  0  0  0  0  0  0  0  0  0  0
   -0.3653    1.7990    3.8931 H   0  0  0  0  0  0  0  0  0  0  0  0
   -1.9050    1.0618    4.3943 H   0  0  0  0  0  0  0  0  0  0  0  0
   -0.3906    0.1321    4.5065 H   0  0  0  0  0  0  0  0  0  0  0  0
  5  6  2  0  0  0  0
  5  7  1  0  0  0  0
  2  3  1  0  0  0  0
  2  4  1  0  0  0  0
  2  5  1  0  0  0  0
  1  2  1  0  0  0  0
 22 23  2  0  0  0  0
 22 24  1  0  0  0  0
 20 21  1  0  0  0  0
 18 19  1  0  0  0  0
 18 20  1  0  0  0  0
 16 17  1  0  0  0  0
 16 18  1  0  0  0  0
 15 16  2  0  0  0  0
 14 15  1  0  0  0  0
 14 20  2  0  0  0  0
 11 12  1  0  0  0  0
 11 13  1  0  0  0  0
 11 14  1  0  0  0  0
  9 10  1  0  0  0  0
  9 11  1  0  0  0  0
  9 22  1  0  0  0  0
  7  8  1  0  0  0  0
  7  9  1  0  0  0  0
 26 27  1  0  0  0  0
 26 28  1  0  0  0  0
 26 29  1  0  0  0  0
 24 25  1  0  0  0  0
 24 26  1  0  0  0  0
M  END
$$$$
default_name
  -OEChem-01062215323D

 29 29  0     1  0  0  0  0  0999 V2000
   -2.9561   -3.9186    1.3887 H   0  0  0  0  0  0  0  0  0  0  0  0
   -3.1191   -2.9346    0.9517 C   0  0  0  0  0  0  0  0  0  0  0  0
   -3.7811   -2.3546    1.5917 H   0  0  0  0  0  0  0  0  0  0  0  0
   -3.5591   -3.0406   -0.0383 H   0  0  0  0  0  0  0  0  0  0  0  0
   -1.7921   -2.2226    0.8327 C   0  0  0  0  0  0  0  0  0  0  0  0
   -0.7611   -2.7766    1.1927 O   0  0  0  0  0  0  0  0  0  0  0  0
   -1.8201   -0.9926    0.3247 N   0  0  0  0  0  0  0  0  0  0  0  0
   -2.7141   -0.5816    0.0927 H   0  0  0  0  0  0  0  0  0  0  0  0
   -0.6481   -0.1156    0.2017 C   0  0  1  0  0  0  0  0  0  0  0  0
    0.1914   -0.7169   -0.1530 H   0  0  0  0  0  0  0  0  0  0  0  0
   -0.9283    0.9835   -0.8415 C   0  0  0  0  0  0  0  0  0  0  0  0
   -1.8343    1.5275   -0.5705 H   0  0  0  0  0  0  0  0  0  0  0  0
   -0.1060    1.7002   -0.8524 H   0  0  0  0  0  0  0  0  0  0  0  0
   -1.1340    0.4338   -2.2321 C   0  0  0  0  0  0  0  0  0  0  0  0
   -0.1331   -0.0463   -3.0777 N   0  0  0  0  0  0  0  0  0  0  0  0
   -0.7587   -0.4774   -4.1828 C   0  0  0  0  0  0  0  0  0  0  0  0
   -0.2581   -0.9010   -5.0443 H   0  0  0  0  0  0  0  0  0  0  0  0
   -2.0873   -0.3170   -4.0628 N   0  0  0  0  0  0  0  0  0  0  0  0
   -2.7748   -0.5838   -4.7542 H   0  0  0  0  0  0  0  0  0  0  0  0
   -2.3440    0.2533   -2.8359 C   0  0  0  0  0  0  0  0  0  0  0  0
   -3.3087    0.4972   -2.4089 H   0  0  0  0  0  0  0  0  0  0  0  0
   -0.2541    0.4613    1.5732 C   0  0  0  0  0  0  0  0  0  0  0  0
    0.7044    1.2280    1.6666 O   0  0  0  0  0  0  0  0  0  0  0  0
   -0.9909    0.1055    2.6302 N   0  0  0  0  0  0  0  0  0  0  0  0
   -1.6929   -0.6108    2.4811 H   0  0  0  0  0  0  0  0  0  0  0  0
   -0.7661    0.5688    3.9975 C   0  0  0  0  0  0  0  0  0  0  0  0
   -0.4228    1.6065    3.9906 H   0  0  0  0  0  0  0  0  0  0  0  0
   -1.6934    0.5033    4.5684 H   0  0  0  0  0  0  0  0  0  0  0  0
   -0.0041   -0.0512    4.4726 H   0  0  0  0  0  0  0  0  0  0  0  0
  5  6  2  0  0  0  0
  5  7  1  0  0  0  0
  2  3  1  0  0  0  0
  2  4  1  0  0  0  0
  2  5  1  0  0  0  0
  1  2  1  0  0  0  0
 22 23  2  0  0  0  0
 22 24  1  0  0  0  0
 20 21  1  0  0  0  0
 18 19  1  0  0  0  0
 18 20  1  0  0  0  0
 16 17  1  0  0  0  0
 16 18  1  0  0  0  0
 15 16  2  0  0  0  0
 14 15  1  0  0  0  0
 14 20  2  0  0  0  0
 11 12  1  0  0  0  0
 11 13  1  0  0  0  0
 11 14  1  0  0  0  0
  9 10  1  0  0  0  0
  9 11  1  0  0  0  0
  9 22  1  0  0  0  0
  7  8  1  0  0  0  0
  7  9  1  0  0  0  0
 26 27  1  0  0  0  0
 26 28  1  0  0  0  0
 26 29  1  0  0  0  0
 24 25  1  0  0  0  0
 24 26  1  0  0  0  0
M  END
$$$$
default_name
  -OEChem-01062215323D

 29 29  0     1  0  0  0  0  0999 V2000
   -2.9561   -3.9186    1.3887 H   0  0  0  0  0  0  0  0  0  0  0  0
   -3.1191   -2.9346    0.9517 C   0  0  0  0  0  0  0  0  0  0  0  0
   -3.7811   -2.3546    1.5917 H   0  0  0  0  0  0  0  0  0  0  0  0
   -3.5591   -3.0406   -0.0383 H   0  0  0  0  0  0  0  0  0  0  0  0
   -1.7921   -2.2226    0.8327 C   0  0  0  0  0  0  0  0  0  0  0  0
   -0.7611   -2.7766    1.1927 O   0  0  0  0  0  0  0  0  0  0  0  0
   -1.8201   -0.9926    0.3247 N   0  0  0  0  0  0  0  0  0  0  0  0
   -2.7141   -0.5816    0.0927 H   0  0  0  0  0  0  0  0  0  0  0  0
   -0.6481   -0.1156    0.2017 C   0  0  1  0  0  0  0  0  0  0  0  0
    0.1914   -0.7169   -0.1530 H   0  0  0  0  0  0  0  0  0  0  0  0
   -0.9283    0.9835   -0.8415 C   0  0  0  0  0  0  0  0  0  0  0  0
   -1.8343    1.5275   -0.5705 H   0  0  0  0  0  0  0  0  0  0  0  0
   -0.1060    1.7002   -0.8524 H   0  0  0  0  0  0  0  0  0  0  0  0
   -1.1340    0.4338   -2.2321 C   0  0  0  0  0  0  0  0  0  0  0  0
   -0.1331   -0.0463   -3.0777 N   0  0  0  0  0  0  0  0  0  0  0  0
   -0.7587   -0.4774   -4.1828 C   0  0  0  0  0  0  0  0  0  0  0  0
   -0.2581   -0.9010   -5.0443 H   0  0  0  0  0  0  0  0  0  0  0  0
   -2.0873   -0.3170   -4.0628 N   0  0  0  0  0  0  0  0  0  0  0  0
   -2.7748   -0.5838   -4.7542 H   0  0  0  0  0  0  0  0  0  0  0  0
   -2.3440    0.2533   -2.8359 C   0  0  0  0  0  0  0  0  0  0  0  0
   -3.3087    0.4972   -2.4089 H   0  0  0  0  0  0  0  0  0  0  0  0
   -0.2541    0.4613    1.5732 C   0  0  0  0  0  0  0  0  0  0  0  0
    0.5093    1.4246    1.6400 O   0  0  0  0  0  0  0  0  0  0  0  0
   -0.7758   -0.1145    2.6609 N   0  0  0  0  0  0  0  0  0  0  0  0
   -1.3082   -0.9657    2.5199 H   0  0  0  0  0  0  0  0  0  0  0  0
   -0.5202    0.3128    4.0345 C   0  0  0  0  0  0  0  0  0  0  0  0
   -0.4245    1.4008    4.0776 H   0  0  0  0  0  0  0  0  0  0  0  0
   -1.3433    0.0010    4.6791 H   0  0  0  0  0  0  0  0  0  0  0  0
    0.4083   -0.1369    4.3901 H   0  0  0  0  0  0  0  0  0  0  0  0
  5  6  2  0  0  0  0
  5  7  1  0  0  0  0
  2  3  1  0  0  0  0
  2  4  1  0  0  0  0
  2  5  1  0  0  0  0
  1  2  1  0  0  0  0
 22 23  2  0  0  0  0
 22 24  1  0  0  0  0
 20 21  1  0  0  0  0
 18 19  1  0  0  0  0
 18 20  1  0  0  0  0
 16 17  1  0  0  0  0
 16 18  1  0  0  0  0
 15 16  2  0  0  0  0
 14 15  1  0  0  0  0
 14 20  2  0  0  0  0
 11 12  1  0  0  0  0
 11 13  1  0  0  0  0
 11 14  1  0  0  0  0
  9 10  1  0  0  0  0
  9 11  1  0  0  0  0
  9 22  1  0  0  0  0
  7  8  1  0  0  0  0
  7  9  1  0  0  0  0
 26 27  1  0  0  0  0
 26 28  1  0  0  0  0
 26 29  1  0  0  0  0
 24 25  1  0  0  0  0
 24 26  1  0  0  0  0
M  END
$$$$
default_name
  -OEChem-01062215323D

 29 29  0     1  0  0  0  0  0999 V2000
   -2.9561   -3.9186    1.3887 H   0  0  0  0  0  0  0  0  0  0  0  0
   -3.1191   -2.9346    0.9517 C   0  0  0  0  0  0  0  0  0  0  0  0
   -3.7811   -2.3546    1.5917 H   0  0  0  0  0  0  0  0  0  0  0  0
   -3.5591   -3.0406   -0.0383 H   0  0  0  0  0  0  0  0  0  0  0  0
   -1.7921   -2.2226    0.8327 C   0  0  0  0  0  0  0  0  0  0  0  0
   -0.7611   -2.7766    1.1927 O   0  0  0  0  0  0  0  0  0  0  0  0
   -1.8201   -0.9926    0.3247 N   0  0  0  0  0  0  0  0  0  0  0  0
   -2.7141   -0.5816    0.0927 H   0  0  0  0  0  0  0  0  0  0  0  0
   -0.6481   -0.1156    0.2017 C   0  0  1  0  0  0  0  0  0  0  0  0
    0.1914   -0.7169   -0.1530 H   0  0  0  0  0  0  0  0  0  0  0  0
   -0.9283    0.9835   -0.8415 C   0  0  0  0  0  0  0  0  0  0  0  0
   -1.8343    1.5275   -0.5705 H   0  0  0  0  0  0  0  0  0  0  0  0
   -0.1060    1.7002   -0.8524 H   0  0  0  0  0  0  0  0  0  0  0  0
   -1.1340    0.4338   -2.2321 C   0  0  0  0  0  0  0  0  0  0  0  0
   -0.1331   -0.0463   -3.0777 N   0  0  0  0  0  0  0  0  0  0  0  0
   -0.7587   -0.4774   -4.1828 C   0  0  0  0  0  0  0  0  0  0  0  0
   -0.2581   -0.9010   -5.0443 H   0  0  0  0  0  0  0  0  0  0  0  0
   -2.0873   -0.3170   -4.0628 N   0  0  0  0  0  0  0  0  0  0  0  0
   -2.7748   -0.5838   -4.7542 H   0  0  0  0  0  0  0  0  0  0  0  0
   -2.3440    0.2533   -2.8359 C   0  0  0  0  0  0  0  0  0  0  0  0
   -3.3087    0.4972   -2.4089 H   0  0  0  0  0  0  0  0  0  0  0  0
   -0.2541    0.4613    1.5732 C   0  0  0  0  0  0  0  0  0  0  0  0
    0.2730    1.5713    1.6462 O   0  0  0  0  0  0  0  0  0  0  0  0
   -0.5143   -0.2793    2.6551 N   0  0  0  0  0  0  0  0  0  0  0  0
   -0.8510   -1.2224    2.4965 H   0  0  0  0  0  0  0  0  0  0  0  0
   -0.2201    0.1198    4.0294 C   0  0  0  0  0  0  0  0  0  0  0  0
   -0.3703    1.1960    4.1482 H   0  0  0  0  0  0  0  0  0  0  0  0
   -0.8785   -0.4107    4.7187 H   0  0  0  0  0  0  0  0  0  0  0  0
    0.8183   -0.1190    4.2648 H   0  0  0  0  0  0  0  0  0  0  0  0
  5  6  2  0  0  0  0
  5  7  1  0  0  0  0
  2  3  1  0  0  0  0
  2  4  1  0  0  0  0
  2  5  1  0  0  0  0
  1  2  1  0  0  0  0
 22 23  2  0  0  0  0
 22 24  1  0  0  0  0
 20 21  1  0  0  0  0
 18 19  1  0  0  0  0
 18 20  1  0  0  0  0
 16 17  1  0  0  0  0
 16 18  1  0  0  0  0
 15 16  2  0  0  0  0
 14 15  1  0  0  0  0
 14 20  2  0  0  0  0
 11 12  1  0  0  0  0
 11 13  1  0  0  0  0
 11 14  1  0  0  0  0
  9 10  1  0  0  0  0
  9 11  1  0  0  0  0
  9 22  1  0  0  0  0
  7  8  1  0  0  0  0
  7  9  1  0  0  0  0
 26 27  1  0  0  0  0
 26 28  1  0  0  0  0
 26 29  1  0  0  0  0
 24 25  1  0  0  0  0
 24 26  1  0  0  0  0
M  END
$$$$
default_name
  -OEChem-01062215323D

 29 29  0     1  0  0  0  0  0999 V2000
   -2.9561   -3.9186    1.3887 H   0  0  0  0  0  0  0  0  0  0  0  0
   -3.1191   -2.9346    0.9517 C   0  0  0  0  0  0  0  0  0  0  0  0
   -3.7811   -2.3546    1.5917 H   0  0  0  0  0  0  0  0  0  0  0  0
   -3.5591   -3.0406   -0.0383 H   0  0  0  0  0  0  0  0  0  0  0  0
   -1.7921   -2.2226    0.8327 C   0  0  0  0  0  0  0  0  0  0  0  0
   -0.7611   -2.7766    1.1927 O   0  0  0  0  0  0  0  0  0  0  0  0
   -1.8201   -0.9926    0.3247 N   0  0  0  0  0  0  0  0  0  0  0  0
   -2.7141   -0.5816    0.0927 H   0  0  0  0  0  0  0  0  0  0  0  0
   -0.6481   -0.1156    0.2017 C   0  0  1  0  0  0  0  0  0  0  0  0
    0.1914   -0.7169   -0.1530 H   0  0  0  0  0  0  0  0  0  0  0  0
   -0.9283    0.9835   -0.8415 C   0  0  0  0  0  0  0  0  0  0  0  0
   -1.8343    1.5275   -0.5705 H   0  0  0  0  0  0  0  0  0  0  0  0
   -0.1060    1.7002   -0.8524 H   0  0  0  0  0  0  0  0  0  0  0  0
   -1.1340    0.4338   -2.2321 C   0  0  0  0  0  0  0  0  0  0  0  0
   -0.1331   -0.0463   -3.0777 N   0  0  0  0  0  0  0  0  0  0  0  0
   -0.7587   -0.4774   -4.1828 C   0  0  0  0  0  0  0  0  0  0  0  0
   -0.2581   -0.9010   -5.0443 H   0  0  0  0  0  0  0  0  0  0  0  0
   -2.0873   -0.3170   -4.0628 N   0  0  0  0  0  0  0  0  0  0  0  0
   -2.7748   -0.5838   -4.7542 H   0  0  0  0  0  0  0  0  0  0  0  0
   -2.3440    0.2533   -2.8359 C   0  0  0  0  0  0  0  0  0  0  0  0
   -3.3087    0.4972   -2.4089 H   0  0  0  0  0  0  0  0  0  0  0  0
   -0.2541    0.4613    1.5732 C   0  0  0  0  0  0  0  0  0  0  0  0
    0.0115    1.6581    1.6848 O   0  0  0  0  0  0  0  0  0  0  0  0
   -0.2243   -0.3779    2.6133 N   0  0  0  0  0  0  0  0  0  0  0  0
   -0.3524   -1.3634    2.4125 H   0  0  0  0  0  0  0  0  0  0  0  0
    0.1138    0.0030    3.9826 C   0  0  0  0  0  0  0  0  0  0  0  0
   -0.2638    1.0059    4.1975 H   0  0  0  0  0  0  0  0  0  0  0  0
   -0.3308   -0.7038    4.6847 H   0  0  0  0  0  0  0  0  0  0  0  0
    1.1981    0.0011    4.1052 H   0  0  0  0  0  0  0  0  0  0  0  0
  5  6  2  0  0  0  0
  5  7  1  0  0  0  0
  2  3  1  0  0  0  0
  2  4  1  0  0  0  0
  2  5  1  0  0  0  0
  1  2  1  0  0  0  0
 22 23  2  0  0  0  0
 22 24  1  0  0  0  0
 20 21  1  0  0  0  0
 18 19  1  0  0  0  0
 18 20  1  0  0  0  0
 16 17  1  0  0  0  0
 16 18  1  0  0  0  0
 15 16  2  0  0  0  0
 14 15  1  0  0  0  0
 14 20  2  0  0  0  0
 11 12  1  0  0  0  0
 11 13  1  0  0  0  0
 11 14  1  0  0  0  0
  9 10  1  0  0  0  0
  9 11  1  0  0  0  0
  9 22  1  0  0  0  0
  7  8  1  0  0  0  0
  7  9  1  0  0  0  0
 26 27  1  0  0  0  0
 26 28  1  0  0  0  0
 26 29  1  0  0  0  0
 24 25  1  0  0  0  0
 24 26  1  0  0  0  0
M  END
$$$$
default_name
  -OEChem-01062215323D

 29 29  0     1  0  0  0  0  0999 V2000
   -2.9561   -3.9186    1.3887 H   0  0  0  0  0  0  0  0  0  0  0  0
   -3.1191   -2.9346    0.9517 C   0  0  0  0  0  0  0  0  0  0  0  0
   -3.7811   -2.3546    1.5917 H   0  0  0  0  0  0  0  0  0  0  0  0
   -3.5591   -3.0406   -0.0383 H   0  0  0  0  0  0  0  0  0  0  0  0
   -1.7921   -2.2226    0.8327 C   0  0  0  0  0  0  0  0  0  0  0  0
   -0.7611   -2.7766    1.1927 O   0  0  0  0  0  0  0  0  0  0  0  0
   -1.8201   -0.9926    0.3247 N   0  0  0  0  0  0  0  0  0  0  0  0
   -2.7141   -0.5816    0.0927 H   0  0  0  0  0  0  0  0  0  0  0  0
   -0.6481   -0.1156    0.2017 C   0  0  1  0  0  0  0  0  0  0  0  0
    0.1914   -0.7169   -0.1530 H   0  0  0  0  0  0  0  0  0  0  0  0
   -0.9283    0.9835   -0.8415 C   0  0  0  0  0  0  0  0  0  0  0  0
   -1.8343    1.5275   -0.5705 H   0  0  0  0  0  0  0  0  0  0  0  0
   -0.1060    1.7002   -0.8524 H   0  0  0  0  0  0  0  0  0  0  0  0
   -1.1340    0.4338   -2.2321 C   0  0  0  0  0  0  0  0  0  0  0  0
   -0.1331   -0.0463   -3.0777 N   0  0  0  0  0  0  0  0  0  0  0  0
   -0.7587   -0.4774   -4.1828 C   0  0  0  0  0  0  0  0  0  0  0  0
   -0.2581   -0.9010   -5.0443 H   0  0  0  0  0  0  0  0  0  0  0  0
   -2.0873   -0.3170   -4.0628 N   0  0  0  0  0  0  0  0  0  0  0  0
   -2.7748   -0.5838   -4.7542 H   0  0  0  0  0  0  0  0  0  0  0  0
   -2.3440    0.2533   -2.8359 C   0  0  0  0  0  0  0  0  0  0  0  0
   -3.3087    0.4972   -2.4089 H   0  0  0  0  0  0  0  0  0  0  0  0
   -0.2541    0.4613    1.5732 C   0  0  0  0  0  0  0  0  0  0  0  0
   -0.2574    1.6790    1.7532 O   0  0  0  0  0  0  0  0  0  0  0  0
    0.0745   -0.4034    2.5381 N   0  0  0  0  0  0  0  0  0  0  0  0
    0.1535   -1.3790    2.2738 H   0  0  0  0  0  0  0  0  0  0  0  0
    0.4587   -0.0298    3.8973 C   0  0  0  0  0  0  0  0  0  0  0  0
   -0.1124    0.8437    4.2222 H   0  0  0  0  0  0  0  0  0  0  0  0
    0.2625   -0.8584    4.5792 H   0  0  0  0  0  0  0  0  0  0  0  0
    1.5218    0.2153    3.9221 H   0  0  0  0  0  0  0  0  0  0  0  0
  5  6  2  0  0  0  0
  5  7  1  0  0  0  0
  2  3  1  0  0  0  0
  2  4  1  0  0  0  0
  2  5  1  0  0  0  0
  1  2  1  0  0  0  0
 22 23  2  0  0  0  0
 22 24  1  0  0  0  0
 20 21  1  0  0  0  0
 18 19  1  0  0  0  0
 18 20  1  0  0  0  0
 16 17  1  0  0  0  0
 16 18  1  0  0  0  0
 15 16  2  0  0  0  0
 14 15  1  0  0  0  0
 14 20  2  0  0  0  0
 11 12  1  0  0  0  0
 11 13  1  0  0  0  0
 11 14  1  0  0  0  0
  9 10  1  0  0  0  0
  9 11  1  0  0  0  0
  9 22  1  0  0  0  0
  7  8  1  0  0  0  0
  7  9  1  0  0  0  0
 26 27  1  0  0  0  0
 26 28  1  0  0  0  0
 26 29  1  0  0  0  0
 24 25  1  0  0  0  0
 24 26  1  0  0  0  0
M  END
$$$$
default_name
  -OEChem-01062215323D

 29 29  0     1  0  0  0  0  0999 V2000
   -2.9561   -3.9186    1.3887 H   0  0  0  0  0  0  0  0  0  0  0  0
   -3.1191   -2.9346    0.9517 C   0  0  0  0  0  0  0  0  0  0  0  0
   -3.7811   -2.3546    1.5917 H   0  0  0  0  0  0  0  0  0  0  0  0
   -3.5591   -3.0406   -0.0383 H   0  0  0  0  0  0  0  0  0  0  0  0
   -1.7921   -2.2226    0.8327 C   0  0  0  0  0  0  0  0  0  0  0  0
   -0.7611   -2.7766    1.1927 O   0  0  0  0  0  0  0  0  0  0  0  0
   -1.8201   -0.9926    0.3247 N   0  0  0  0  0  0  0  0  0  0  0  0
   -2.7141   -0.5816    0.0927 H   0  0  0  0  0  0  0  0  0  0  0  0
   -0.6481   -0.1156    0.2017 C   0  0  1  0  0  0  0  0  0  0  0  0
    0.1914   -0.7169   -0.1530 H   0  0  0  0  0  0  0  0  0  0  0  0
   -0.9283    0.9835   -0.8415 C   0  0  0  0  0  0  0  0  0  0  0  0
   -1.8343    1.5275   -0.5705 H   0  0  0  0  0  0  0  0  0  0  0  0
   -0.1060    1.7002   -0.8524 H   0  0  0  0  0  0  0  0  0  0  0  0
   -1.1340    0.4338   -2.2321 C   0  0  0  0  0  0  0  0  0  0  0  0
   -0.1331   -0.0463   -3.0777 N   0  0  0  0  0  0  0  0  0  0  0  0
   -0.7587   -0.4774   -4.1828 C   0  0  0  0  0  0  0  0  0  0  0  0
   -0.2581   -0.9010   -5.0443 H   0  0  0  0  0  0  0  0  0  0  0  0
   -2.0873   -0.3170   -4.0628 N   0  0  0  0  0  0  0  0  0  0  0  0
   -2.7748   -0.5838   -4.7542 H   0  0  0  0  0  0  0  0  0  0  0  0
   -2.3440    0.2533   -2.8359 C   0  0  0  0  0  0  0  0  0  0  0  0
   -3.3087    0.4972   -2.4089 H   0  0  0  0  0  0  0  0  0  0  0  0
   -0.2541    0.4613    1.5732 C   0  0  0  0  0  0  0  0  0  0  0  0
   -0.5153    1.6327    1.8468 O   0  0  0  0  0  0  0  0  0  0  0  0
    0.3617   -0.3542    2.4349 N   0  0  0  0  0  0  0  0  0  0  0  0
    0.6323   -1.2683    2.0896 H   0  0  0  0  0  0  0  0  0  0  0  0
    0.7912    0.0238    3.7793 C   0  0  0  0  0  0  0  0  0  0  0  0
    0.0737    0.7202    4.2207 H   0  0  0  0  0  0  0  0  0  0  0  0
    0.8611   -0.8639    4.4096 H   0  0  0  0  0  0  0  0  0  0  0  0
    1.7673    0.5089    3.7280 H   0  0  0  0  0  0  0  0  0  0  0  0
  5  6  2  0  0  0  0
  5  7  1  0  0  0  0
  2  3  1  0  0  0  0
  2  4  1  0  0  0  0
  2  5  1  0  0  0  0
  1  2  1  0  0  0  0
 22 23  2  0  0  0  0
 22 24  1  0  0  0  0
 20 21  1  0  0  0  0
 18 19  1  0  0  0  0
 18 20  1  0  0  0  0
 16 17  1  0  0  0  0
 16 18  1  0  0  0  0
 15 16  2  0  0  0  0
 14 15  1  0  0  0  0
 14 20  2  0  0  0  0
 11 12  1  0  0  0  0
 11 13  1  0  0  0  0
 11 14  1  0  0  0  0
  9 10  1  0  0  0  0
  9 11  1  0  0  0  0
  9 22  1  0  0  0  0
  7  8  1  0  0  0  0
  7  9  1  0  0  0  0
 26 27  1  0  0  0  0
 26 28  1  0  0  0  0
 26 29  1  0  0  0  0
 24 25  1  0  0  0  0
 24 26  1  0  0  0  0
M  END
$$$$
default_name
  -OEChem-01062215323D

 29 29  0     1  0  0  0  0  0999 V2000
   -2.9561   -3.9186    1.3887 H   0  0  0  0  0  0  0  0  0  0  0  0
   -3.1191   -2.9346    0.9517 C   0  0  0  0  0  0  0  0  0  0  0  0
   -3.7811   -2.3546    1.5917 H   0  0  0  0  0  0  0  0  0  0  0  0
   -3.5591   -3.0406   -0.0383 H   0  0  0  0  0  0  0  0  0  0  0  0
   -1.7921   -2.2226    0.8327 C   0  0  0  0  0  0  0  0  0  0  0  0
   -0.7611   -2.7766    1.1927 O   0  0  0  0  0  0  0  0  0  0  0  0
   -1.8201   -0.9926    0.3247 N   0  0  0  0  0  0  0  0  0  0  0  0
   -2.7141   -0.5816    0.0927 H   0  0  0  0  0  0  0  0  0  0  0  0
   -0.6481   -0.1156    0.2017 C   0  0  1  0  0  0  0  0  0  0  0  0
    0.1914   -0.7169   -0.1530 H   0  0  0  0  0  0  0  0  0  0  0  0
   -0.9283    0.9835   -0.8415 C   0  0  0  0  0  0  0  0  0  0  0  0
   -1.8343    1.5275   -0.5705 H   0  0  0  0  0  0  0  0  0  0  0  0
   -0.1060    1.7002   -0.8524 H   0  0  0  0  0  0  0  0  0  0  0  0
   -1.1340    0.4338   -2.2321 C   0  0  0  0  0  0  0  0  0  0  0  0
   -0.1331   -0.0463   -3.0777 N   0  0  0  0  0  0  0  0  0  0  0  0
   -0.7587   -0.4774   -4.1828 C   0  0  0  0  0  0  0  0  0  0  0  0
   -0.2581   -0.9010   -5.0443 H   0  0  0  0  0  0  0  0  0  0  0  0
   -2.0873   -0.3170   -4.0628 N   0  0  0  0  0  0  0  0  0  0  0  0
   -2.7748   -0.5838   -4.7542 H   0  0  0  0  0  0  0  0  0  0  0  0
   -2.3440    0.2533   -2.8359 C   0  0  0  0  0  0  0  0  0  0  0  0
   -3.3087    0.4972   -2.4089 H   0  0  0  0  0  0  0  0  0  0  0  0
   -0.2541    0.4613    1.5732 C   0  0  0  0  0  0  0  0  0  0  0  0
   -0.7446    1.5223    1.9592 O   0  0  0  0  0  0  0  0  0  0  0  0
    0.6178   -0.2336    2.3106 N   0  0  0  0  0  0  0  0  0  0  0  0
    1.0514   -1.0386    1.8726 H   0  0  0  0  0  0  0  0  0  0  0  0
    1.0885    0.1600    3.6365 C   0  0  0  0  0  0  0  0  0  0  0  0
    0.2818    0.6440    4.1930 H   0  0  0  0  0  0  0  0  0  0  0  0
    1.4240   -0.7199    4.1873 H   0  0  0  0  0  0  0  0  0  0  0  0
    1.9179    0.8620    3.5363 H   0  0  0  0  0  0  0  0  0  0  0  0
  5  6  2  0  0  0  0
  5  7  1  0  0  0  0
  2  3  1  0  0  0  0
  2  4  1  0  0  0  0
  2  5  1  0  0  0  0
  1  2  1  0  0  0  0
 22 23  2  0  0  0  0
 22 24  1  0  0  0  0
 20 21  1  0  0  0  0
 18 19  1  0  0  0  0
 18 20  1  0  0  0  0
 16 17  1  0  0  0  0
 16 18  1  0  0  0  0
 15 16  2  0  0  0  0
 14 15  1  0  0  0  0
 14 20  2  0  0  0  0
 11 12  1  0  0  0  0
 11 13  1  0  0  0  0
 11 14  1  0  0  0  0
  9 10  1  0  0  0  0
  9 11  1  0  0  0  0
  9 22  1  0  0  0  0
  7  8  1  0  0  0  0
  7  9  1  0  0  0  0
 26 27  1  0  0  0  0
 26 28  1  0  0  0  0
 26 29  1  0  0  0  0
 24 25  1  0  0  0  0
 24 26  1  0  0  0  0
M  END
$$$$
default_name
  -OEChem-01062215323D

 29 29  0     1  0  0  0  0  0999 V2000
   -2.9561   -3.9186    1.3887 H   0  0  0  0  0  0  0  0  0  0  0  0
   -3.1191   -2.9346    0.9517 C   0  0  0  0  0  0  0  0  0  0  0  0
   -3.7811   -2.3546    1.5917 H   0  0  0  0  0  0  0  0  0  0  0  0
   -3.5591   -3.0406   -0.0383 H   0  0  0  0  0  0  0  0  0  0  0  0
   -1.7921   -2.2226    0.8327 C   0  0  0  0  0  0  0  0  0  0  0  0
   -0.7611   -2.7766    1.1927 O   0  0  0  0  0  0  0  0  0  0  0  0
   -1.8201   -0.9926    0.3247 N   0  0  0  0  0  0  0  0  0  0  0  0
   -2.7141   -0.5816    0.0927 H   0  0  0  0  0  0  0  0  0  0  0  0
   -0.6481   -0.1156    0.2017 C   0  0  1  0  0  0  0  0  0  0  0  0
    0.1914   -0.7169   -0.1530 H   0  0  0  0  0  0  0  0  0  0  0  0
   -0.9283    0.9835   -0.8415 C   0  0  0  0  0  0  0  0  0  0  0  0
   -1.8343    1.5275   -0.5705 H   0  0  0  0  0  0  0  0  0  0  0  0
   -0.1060    1.7002   -0.8524 H   0  0  0  0  0  0  0  0  0  0  0  0
   -1.1340    0.4338   -2.2321 C   0  0  0  0  0  0  0  0  0  0  0  0
   -0.1331   -0.0463   -3.0777 N   0  0  0  0  0  0  0  0  0  0  0  0
   -0.7587   -0.4774   -4.1828 C   0  0  0  0  0  0  0  0  0  0  0  0
   -0.2581   -0.9010   -5.0443 H   0  0  0  0  0  0  0  0  0  0  0  0
   -2.0873   -0.3170   -4.0628 N   0  0  0  0  0  0  0  0  0  0  0  0
   -2.7748   -0.5838   -4.7542 H   0  0  0  0  0  0  0  0  0  0  0  0
   -2.3440    0.2533   -2.8359 C   0  0  0  0  0  0  0  0  0  0  0  0
   -3.3087    0.4972   -2.4089 H   0  0  0  0  0  0  0  0  0  0  0  0
   -0.2541    0.4613    1.5732 C   0  0  0  0  0  0  0  0  0  0  0  0
   -0.9298    1.3553    2.0826 O   0  0  0  0  0  0  0  0  0  0  0  0
    0.8253   -0.0498    2.1737 N   0  0  0  0  0  0  0  0  0  0  0  0
    1.3822   -0.7058    1.6376 H   0  0  0  0  0  0  0  0  0  0  0  0
    1.3305    0.3696    3.4789 C   0  0  0  0  0  0  0  0  0  0  0  0
    0.4977    0.6202    4.1410 H   0  0  0  0  0  0  0  0  0  0  0  0
    1.9130   -0.4363    3.9275 H   0  0  0  0  0  0  0  0  0  0  0  0
    1.9633    1.2506    3.3598 H   0  0  0  0  0  0  0  0  0  0  0  0
  5  6  2  0  0  0  0
  5  7  1  0  0  0  0
  2  3  1  0  0  0  0
  2  4  1  0  0  0  0
  2  5  1  0  0  0  0
  1  2  1  0  0  0  0
 22 23  2  0  0  0  0
 22 24  1  0  0  0  0
 20 21  1  0  0  0  0
 18 19  1  0  0  0  0
 18 20  1  0  0  0  0
 16 17  1  0  0  0  0
 16 18  1  0  0  0  0
 15 16  2  0  0  0  0
 14 15  1  0  0  0  0
 14 20  2  0  0  0  0
 11 12  1  0  0  0  0
 11 13  1  0  0  0  0
 11 14  1  0  0  0  0
  9 10  1  0  0  0  0
  9 11  1  0  0  0  0
  9 22  1  0  0  0  0
  7  8  1  0  0  0  0
  7  9  1  0  0  0  0
 26 27  1  0  0  0  0
 26 28  1  0  0  0  0
 26 29  1  0  0  0  0
 24 25  1  0  0  0  0
 24 26  1  0  0  0  0
M  END
$$$$
default_name
  -OEChem-01062215323D

 29 29  0     1  0  0  0  0  0999 V2000
   -2.9561   -3.9186    1.3887 H   0  0  0  0  0  0  0  0  0  0  0  0
   -3.1191   -2.9346    0.9517 C   0  0  0  0  0  0  0  0  0  0  0  0
   -3.7811   -2.3546    1.5917 H   0  0  0  0  0  0  0  0  0  0  0  0
   -3.5591   -3.0406   -0.0383 H   0  0  0  0  0  0  0  0  0  0  0  0
   -1.7921   -2.2226    0.8327 C   0  0  0  0  0  0  0  0  0  0  0  0
   -0.7611   -2.7766    1.1927 O   0  0  0  0  0  0  0  0  0  0  0  0
   -1.8201   -0.9926    0.3247 N   0  0  0  0  0  0  0  0  0  0  0  0
   -2.7141   -0.5816    0.0927 H   0  0  0  0  0  0  0  0  0  0  0  0
   -0.6481   -0.1156    0.2017 C   0  0  1  0  0  0  0  0  0  0  0  0
    0.1914   -0.7169   -0.1530 H   0  0  0  0  0  0  0  0  0  0  0  0
   -0.9283    0.9835   -0.8415 C   0  0  0  0  0  0  0  0  0  0  0  0
   -1.8343    1.5275   -0.5705 H   0  0  0  0  0  0  0  0  0  0  0  0
   -0.1060    1.7002   -0.8524 H   0  0  0  0  0  0  0  0  0  0  0  0
   -1.1340    0.4338   -2.2321 C   0  0  0  0  0  0  0  0  0  0  0  0
   -0.1331   -0.0463   -3.0777 N   0  0  0  0  0  0  0  0  0  0  0  0
   -0.7587   -0.4774   -4.1828 C   0  0  0  0  0  0  0  0  0  0  0  0
   -0.2581   -0.9010   -5.0443 H   0  0  0  0  0  0  0  0  0  0  0  0
   -2.0873   -0.3170   -4.0628 N   0  0  0  0  0  0  0  0  0  0  0  0
   -2.7748   -0.5838   -4.7542 H   0  0  0  0  0  0  0  0  0  0  0  0
   -2.3440    0.2533   -2.8359 C   0  0  0  0  0  0  0  0  0  0  0  0
   -3.3087    0.4972   -2.4089 H   0  0  0  0  0  0  0  0  0  0  0  0
   -0.2541    0.4613    1.5732 C   0  0  0  0  0  0  0  0  0  0  0  0
   -1.0582    1.1431    2.2087 O   0  0  0  0  0  0  0  0  0  0  0  0
    0.9700    0.1847    2.0335 N   0  0  0  0  0  0  0  0  0  0  0  0
    1.6022   -0.2924    1.4005 H   0  0  0  0  0  0  0  0  0  0  0  0
    1.5005    0.6383    3.3170 C   0  0  0  0  0  0  0  0  0  0  0  0
    0.7066    0.6505    4.0682 H   0  0  0  0  0  0  0  0  0  0  0  0
    2.2948   -0.0323    3.6479 H   0  0  0  0  0  0  0  0  0  0  0  0
    1.9004    1.6480    3.2107 H   0  0  0  0  0  0  0  0  0  0  0  0
  5  6  2  0  0  0  0
  5  7  1  0  0  0  0
  2  3  1  0  0  0  0
  2  4  1  0  0  0  0
  2  5  1  0  0  0  0
  1  2  1  0  0  0  0
 22 23  2  0  0  0  0
 22 24  1  0  0  0  0
 20 21  1  0  0  0  0
 18 19  1  0  0  0  0
 18 20  1  0  0  0  0
 16 17  1  0  0  0  0
 16 18  1  0  0  0  0
 15 16  2  0  0  0  0
 14 15  1  0  0  0  0
 14 20  2  0  0  0  0
 11 12  1  0  0  0  0
 11 13  1  0  0  0  0
 11 14  1  0  0  0  0
  9 10  1  0  0  0  0
  9 11  1  0  0  0  0
  9 22  1  0  0  0  0
  7  8  1  0  0  0  0
  7  9  1  0  0  0  0
 26 27  1  0  0  0  0
 26 28  1  0  0  0  0
 26 29  1  0  0  0  0
 24 25  1  0  0  0  0
 24 26  1  0  0  0  0
M  END
$$$$
default_name
  -OEChem-01062215323D

 29 29  0     1  0  0  0  0  0999 V2000
   -2.9561   -3.9186    1.3887 H   0  0  0  0  0  0  0  0  0  0  0  0
   -3.1191   -2.9346    0.9517 C   0  0  0  0  0  0  0  0  0  0  0  0
   -3.7811   -2.3546    1.5917 H   0  0  0  0  0  0  0  0  0  0  0  0
   -3.5591   -3.0406   -0.0383 H   0  0  0  0  0  0  0  0  0  0  0  0
   -1.7921   -2.2226    0.8327 C   0  0  0  0  0  0  0  0  0  0  0  0
   -0.7611   -2.7766    1.1927 O   0  0  0  0  0  0  0  0  0  0  0  0
   -1.8201   -0.9926    0.3247 N   0  0  0  0  0  0  0  0  0  0  0  0
   -2.7141   -0.5816    0.0927 H   0  0  0  0  0  0  0  0  0  0  0  0
   -0.6481   -0.1156    0.2017 C   0  0  1  0  0  0  0  0  0  0  0  0
    0.1914   -0.7169   -0.1530 H   0  0  0  0  0  0  0  0  0  0  0  0
   -0.9283    0.9835   -0.8415 C   0  0  0  0  0  0  0  0  0  0  0  0
   -1.8343    1.5275   -0.5705 H   0  0  0  0  0  0  0  0  0  0  0  0
   -0.1060    1.7002   -0.8524 H   0  0  0  0  0  0  0  0  0  0  0  0
   -1.1340    0.4338   -2.2321 C   0  0  0  0  0  0  0  0  0  0  0  0
   -0.1331   -0.0463   -3.0777 N   0  0  0  0  0  0  0  0  0  0  0  0
   -0.7587   -0.4774   -4.1828 C   0  0  0  0  0  0  0  0  0  0  0  0
   -0.2581   -0.9010   -5.0443 H   0  0  0  0  0  0  0  0  0  0  0  0
   -2.0873   -0.3170   -4.0628 N   0  0  0  0  0  0  0  0  0  0  0  0
   -2.7748   -0.5838   -4.7542 H   0  0  0  0  0  0  0  0  0  0  0  0
   -2.3440    0.2533   -2.8359 C   0  0  0  0  0  0  0  0  0  0  0  0
   -3.3087    0.4972   -2.4089 H   0  0  0  0  0  0  0  0  0  0  0  0
   -0.2541    0.4613    1.5732 C   0  0  0  0  0  0  0  0  0  0  0  0
   -1.1210    0.9002    2.3289 O   0  0  0  0  0  0  0  0  0  0  0  0
    1.0422    0.4539    1.8995 N   0  0  0  0  0  0  0  0  0  0  0  0
    1.6964    0.1733    1.1775 H   0  0  0  0  0  0  0  0  0  0  0  0
    1.5871    0.9478    3.1619 C   0  0  0  0  0  0  0  0  0  0  0  0
    0.8944    0.7327    3.9796 H   0  0  0  0  0  0  0  0  0  0  0  0
    2.5432    0.4644    3.3676 H   0  0  0  0  0  0  0  0  0  0  0  0
    1.7336    2.0273    3.0991 H   0  0  0  0  0  0  0  0  0  0  0  0
  5  6  2  0  0  0  0
  5  7  1  0  0  0  0
  2  3  1  0  0  0  0
  2  4  1  0  0  0  0
  2  5  1  0  0  0  0
  1  2  1  0  0  0  0
 22 23  2  0  0  0  0
 22 24  1  0  0  0  0
 20 21  1  0  0  0  0
 18 19  1  0  0  0  0
 18 20  1  0  0  0  0
 16 17  1  0  0  0  0
 16 18  1  0  0  0  0
 15 16  2  0  0  0  0
 14 15  1  0  0  0  0
 14 20  2  0  0  0  0
 11 12  1  0  0  0  0
 11 13  1  0  0  0  0
 11 14  1  0  0  0  0
  9 10  1  0  0  0  0
  9 11  1  0  0  0  0
  9 22  1  0  0  0  0
  7  8  1  0  0  0  0
  7  9  1  0  0  0  0
 26 27  1  0  0  0  0
 26 28  1  0  0  0  0
 26 29  1  0  0  0  0
 24 25  1  0  0  0  0
 24 26  1  0  0  0  0
M  END
$$$$
default_name
  -OEChem-01062215323D

 29 29  0     1  0  0  0  0  0999 V2000
   -2.9561   -3.9186    1.3887 H   0  0  0  0  0  0  0  0  0  0  0  0
   -3.1191   -2.9346    0.9517 C   0  0  0  0  0  0  0  0  0  0  0  0
   -3.7811   -2.3546    1.5917 H   0  0  0  0  0  0  0  0  0  0  0  0
   -3.5591   -3.0406   -0.0383 H   0  0  0  0  0  0  0  0  0  0  0  0
   -1.7921   -2.2226    0.8327 C   0  0  0  0  0  0  0  0  0  0  0  0
   -0.7611   -2.7766    1.1927 O   0  0  0  0  0  0  0  0  0  0  0  0
   -1.8201   -0.9926    0.3247 N   0  0  0  0  0  0  0  0  0  0  0  0
   -2.7141   -0.5816    0.0927 H   0  0  0  0  0  0  0  0  0  0  0  0
   -0.6481   -0.1156    0.2017 C   0  0  1  0  0  0  0  0  0  0  0  0
    0.1914   -0.7169   -0.1530 H   0  0  0  0  0  0  0  0  0  0  0  0
   -0.9283    0.9835   -0.8415 C   0  0  0  0  0  0  0  0  0  0  0  0
   -1.8343    1.5275   -0.5705 H   0  0  0  0  0  0  0  0  0  0  0  0
   -0.1060    1.7002   -0.8524 H   0  0  0  0  0  0  0  0  0  0  0  0
   -1.1340    0.4338   -2.2321 C   0  0  0  0  0  0  0  0  0  0  0  0
   -0.1331   -0.0463   -3.0777 N   0  0  0  0  0  0  0  0  0  0  0  0
   -0.7587   -0.4774   -4.1828 C   0  0  0  0  0  0  0  0  0  0  0  0
   -0.2581   -0.9010   -5.0443 H   0  0  0  0  0  0  0  0  0  0  0  0
   -2.0873   -0.3170   -4.0628 N   0  0  0  0  0  0  0  0  0  0  0  0
   -2.7748   -0.5838   -4.7542 H   0  0  0  0  0  0  0  0  0  0  0  0
   -2.3440    0.2533   -2.8359 C   0  0  0  0  0  0  0  0  0  0  0  0
   -3.3087    0.4972   -2.4089 H   0  0  0  0  0  0  0  0  0  0  0  0
   -0.2541    0.4613    1.5732 C   0  0  0  0  0  0  0  0  0  0  0  0
   -1.1140    0.6431    2.4351 O   0  0  0  0  0  0  0  0  0  0  0  0
    1.0368    0.7394    1.7810 N   0  0  0  0  0  0  0  0  0  0  0  0
    1.6583    0.6597    0.9839 H   0  0  0  0  0  0  0  0  0  0  0  0
    1.5843    1.2770    3.0243 C   0  0  0  0  0  0  0  0  0  0  0  0
    1.0483    0.8613    3.8813 H   0  0  0  0  0  0  0  0  0  0  0  0
    2.6414    1.0201    3.1056 H   0  0  0  0  0  0  0  0  0  0  0  0
    1.4741    2.3626    3.0326 H   0  0  0  0  0  0  0  0  0  0  0  0
  5  6  2  0  0  0  0
  5  7  1  0  0  0  0
  2  3  1  0  0  0  0
  2  4  1  0  0  0  0
  2  5  1  0  0  0  0
  1  2  1  0  0  0  0
 22 23  2  0  0  0  0
 22 24  1  0  0  0  0
 20 21  1  0  0  0  0
 18 19  1  0  0  0  0
 18 20  1  0  0  0  0
 16 17  1  0  0  0  0
 16 18  1  0  0  0  0
 15 16  2  0  0  0  0
 14 15  1  0  0  0  0
 14 20  2  0  0  0  0
 11 12  1  0  0  0  0
 11 13  1  0  0  0  0
 11 14  1  0  0  0  0
  9 10  1  0  0  0  0
  9 11  1  0  0  0  0
  9 22  1  0  0  0  0
  7  8  1  0  0  0  0
  7  9  1  0  0  0  0
 26 27  1  0  0  0  0
 26 28  1  0  0  0  0
 26 29  1  0  0  0  0
 24 25  1  0  0  0  0
 24 26  1  0  0  0  0
M  END
$$$$
default_name
  -OEChem-01062215323D

 29 29  0     1  0  0  0  0  0999 V2000
   -2.9561   -3.9186    1.3887 H   0  0  0  0  0  0  0  0  0  0  0  0
   -3.1191   -2.9346    0.9517 C   0  0  0  0  0  0  0  0  0  0  0  0
   -3.7811   -2.3546    1.5917 H   0  0  0  0  0  0  0  0  0  0  0  0
   -3.5591   -3.0406   -0.0383 H   0  0  0  0  0  0  0  0  0  0  0  0
   -1.7921   -2.2226    0.8327 C   0  0  0  0  0  0  0  0  0  0  0  0
   -0.7611   -2.7766    1.1927 O   0  0  0  0  0  0  0  0  0  0  0  0
   -1.8201   -0.9926    0.3247 N   0  0  0  0  0  0  0  0  0  0  0  0
   -2.7141   -0.5816    0.0927 H   0  0  0  0  0  0  0  0  0  0  0  0
   -0.6481   -0.1156    0.2017 C   0  0  1  0  0  0  0  0  0  0  0  0
    0.1914   -0.7169   -0.1530 H   0  0  0  0  0  0  0  0  0  0  0  0
   -0.9283    0.9835   -0.8415 C   0  0  0  0  0  0  0  0  0  0  0  0
   -1.8343    1.5275   -0.5705 H   0  0  0  0  0  0  0  0  0  0  0  0
   -0.1060    1.7002   -0.8524 H   0  0  0  0  0  0  0  0  0  0  0  0
   -1.1340    0.4338   -2.2321 C   0  0  0  0  0  0  0  0  0  0  0  0
   -0.1331   -0.0463   -3.0777 N   0  0  0  0  0  0  0  0  0  0  0  0
   -0.7587   -0.4774   -4.1828 C   0  0  0  0  0  0  0  0  0  0  0  0
   -0.2581   -0.9010   -5.0443 H   0  0  0  0  0  0  0  0  0  0  0  0
   -2.0873   -0.3170   -4.0628 N   0  0  0  0  0  0  0  0  0  0  0  0
   -2.7748   -0.5838   -4.7542 H   0  0  0  0  0  0  0  0  0  0  0  0
   -2.3440    0.2533   -2.8359 C   0  0  0  0  0  0  0  0  0  0  0  0
   -3.3087    0.4972   -2.4089 H   0  0  0  0  0  0  0  0  0  0  0  0
   -0.2541    0.4613    1.5732 C   0  0  0  0  0  0  0  0  0  0  0  0
   -1.0377    0.3894    2.5199 O   0  0  0  0  0  0  0  0  0  0  0  0
    0.9542    1.0217    1.6860 N   0  0  0  0  0  0  0  0  0  0  0  0
    1.4905    1.1335    0.8328 H   0  0  0  0  0  0  0  0  0  0  0  0
    1.4924    1.6035    2.9134 C   0  0  0  0  0  0  0  0  0  0  0  0
    1.1577    1.0275    3.7800 H   0  0  0  0  0  0  0  0  0  0  0  0
    2.5828    1.5969    2.8799 H   0  0  0  0  0  0  0  0  0  0  0  0
    1.1397    2.6310    3.0158 H   0  0  0  0  0  0  0  0  0  0  0  0
  5  6  2  0  0  0  0
  5  7  1  0  0  0  0
  2  3  1  0  0  0  0
  2  4  1  0  0  0  0
  2  5  1  0  0  0  0
  1  2  1  0  0  0  0
 22 23  2  0  0  0  0
 22 24  1  0  0  0  0
 20 21  1  0  0  0  0
 18 19  1  0  0  0  0
 18 20  1  0  0  0  0
 16 17  1  0  0  0  0
 16 18  1  0  0  0  0
 15 16  2  0  0  0  0
 14 15  1  0  0  0  0
 14 20  2  0  0  0  0
 11 12  1  0  0  0  0
 11 13  1  0  0  0  0
 11 14  1  0  0  0  0
  9 10  1  0  0  0  0
  9 11  1  0  0  0  0
  9 22  1  0  0  0  0
  7  8  1  0  0  0  0
  7  9  1  0  0  0  0
 26 27  1  0  0  0  0
 26 28  1  0  0  0  0
 26 29  1  0  0  0  0
 24 25  1  0  0  0  0
 24 26  1  0  0  0  0
M  END
$$$$
default_name
  -OEChem-01062215323D

 29 29  0     1  0  0  0  0  0999 V2000
   -2.9561   -3.9186    1.3887 H   0  0  0  0  0  0  0  0  0  0  0  0
   -3.1191   -2.9346    0.9517 C   0  0  0  0  0  0  0  0  0  0  0  0
   -3.7811   -2.3546    1.5917 H   0  0  0  0  0  0  0  0  0  0  0  0
   -3.5591   -3.0406   -0.0383 H   0  0  0  0  0  0  0  0  0  0  0  0
   -1.7921   -2.2226    0.8327 C   0  0  0  0  0  0  0  0  0  0  0  0
   -0.7611   -2.7766    1.1927 O   0  0  0  0  0  0  0  0  0  0  0  0
   -1.8201   -0.9926    0.3247 N   0  0  0  0  0  0  0  0  0  0  0  0
   -2.7141   -0.5816    0.0927 H   0  0  0  0  0  0  0  0  0  0  0  0
   -0.6481   -0.1156    0.2017 C   0  0  1  0  0  0  0  0  0  0  0  0
    0.1042   -0.6345   -0.3958 H   0  0  0  0  0  0  0  0  0  0  0  0
   -1.0420    1.1781   -0.5372 C   0  0  0  0  0  0  0  0  0  0  0  0
   -1.8749    1.6587   -0.0219 H   0  0  0  0  0  0  0  0  0  0  0  0
   -0.2044    1.8769   -0.5299 H   0  0  0  0  0  0  0  0  0  0  0  0
   -1.4777    0.9311   -1.9610 C   0  0  0  0  0  0  0  0  0  0  0  0
   -0.6362    0.6321   -3.0333 N   0  0  0  0  0  0  0  0  0  0  0  0
   -1.4386    0.4440   -4.0912 C   0  0  0  0  0  0  0  0  0  0  0  0
   -1.0914    0.2063   -5.0888 H   0  0  0  0  0  0  0  0  0  0  0  0
   -2.7264    0.5831   -3.7341 N   0  0  0  0  0  0  0  0  0  0  0  0
   -3.5207    0.4699   -4.3489 H   0  0  0  0  0  0  0  0  0  0  0  0
   -2.7715    0.8869   -2.3916 C   0  0  0  0  0  0  0  0  0  0  0  0
   -3.6500    1.0418   -1.7779 H   0  0  0  0  0  0  0  0  0  0  0  0
   -0.0283    0.1609    1.5831 C   0  0  0  0  0  0  0  0  0  0  0  0
   -0.5221   -0.3430    2.5919 O   0  0  0  0  0  0  0  0  0  0  0  0
    1.0512    0.9477    1.6319 N   0  0  0  0  0  0  0  0  0  0  0  0
    1.3264    1.4047    0.7697 H   0  0  0  0  0  0  0  0  0  0  0  0
    1.7709    1.3013    2.8532 C   0  0  0  0  0  0  0  0  0  0  0  0
    1.7727    0.4559    3.5461 H   0  0  0  0  0  0  0  0  0  0  0  0
    2.8011    1.5679    2.6127 H   0  0  0  0  0  0  0  0  0  0  0  0
    1.2805    2.1495    3.3337 H   0  0  0  0  0  0  0  0  0  0  0  0
  5  6  2  0  0  0  0
  5  7  1  0  0  0  0
  2  3  1  0  0  0  0
  2  4  1  0  0  0  0
  2  5  1  0  0  0  0
  1  2  1  0  0  0  0
 22 23  2  0  0  0  0
 22 24  1  0  0  0  0
 20 21  1  0  0  0  0
 18 19  1  0  0  0  0
 18 20  1  0  0  0  0
 16 17  1  0  0  0  0
 16 18  1  0  0  0  0
 15 16  2  0  0  0  0
 14 15  1  0  0  0  0
 14 20  2  0  0  0  0
 11 12  1  0  0  0  0
 11 13  1  0  0  0  0
 11 14  1  0  0  0  0
  9 10  1  0  0  0  0
  9 11  1  0  0  0  0
  9 22  1  0  0  0  0
  7  8  1  0  0  0  0
  7  9  1  0  0  0  0
 26 27  1  0  0  0  0
 26 28  1  0  0  0  0
 26 29  1  0  0  0  0
 24 25  1  0  0  0  0
 24 26  1  0  0  0  0
M  END
$$$$
default_name
  -OEChem-01062215323D

 29 29  0     1  0  0  0  0  0999 V2000
   -2.9561   -3.9186    1.3887 H   0  0  0  0  0  0  0  0  0  0  0  0
   -3.1191   -2.9346    0.9517 C   0  0  0  0  0  0  0  0  0  0  0  0
   -3.7811   -2.3546    1.5917 H   0  0  0  0  0  0  0  0  0  0  0  0
   -3.5591   -3.0406   -0.0383 H   0  0  0  0  0  0  0  0  0  0  0  0
   -1.7921   -2.2226    0.8327 C   0  0  0  0  0  0  0  0  0  0  0  0
   -0.7611   -2.7766    1.1927 O   0  0  0  0  0  0  0  0  0  0  0  0
   -1.8201   -0.9926    0.3247 N   0  0  0  0  0  0  0  0  0  0  0  0
   -2.7141   -0.5816    0.0927 H   0  0  0  0  0  0  0  0  0  0  0  0
   -0.6481   -0.1156    0.2017 C   0  0  1  0  0  0  0  0  0  0  0  0
    0.1042   -0.6345   -0.3958 H   0  0  0  0  0  0  0  0  0  0  0  0
   -1.0420    1.1781   -0.5372 C   0  0  0  0  0  0  0  0  0  0  0  0
   -1.8749    1.6587   -0.0219 H   0  0  0  0  0  0  0  0  0  0  0  0
   -0.2044    1.8769   -0.5299 H   0  0  0  0  0  0  0  0  0  0  0  0
   -1.4777    0.9311   -1.9610 C   0  0  0  0  0  0  0  0  0  0  0  0
   -0.6362    0.6321   -3.0333 N   0  0  0  0  0  0  0  0  0  0  0  0
   -1.4386    0.4440   -4.0912 C   0  0  0  0  0  0  0  0  0  0  0  0
   -1.0914    0.2063   -5.0888 H   0  0  0  0  0  0  0  0  0  0  0  0
   -2.7264    0.5831   -3.7341 N   0  0  0  0  0  0  0  0  0  0  0  0
   -3.5207    0.4699   -4.3489 H   0  0  0  0  0  0  0  0  0  0  0  0
   -2.7715    0.8869   -2.3916 C   0  0  0  0  0  0  0  0  0  0  0  0
   -3.6500    1.0418   -1.7779 H   0  0  0  0  0  0  0  0  0  0  0  0
   -0.0283    0.1609    1.5831 C   0  0  0  0  0  0  0  0  0  0  0  0
   -0.3328   -0.5419    2.5468 O   0  0  0  0  0  0  0  0  0  0  0  0
    0.8424    1.1704    1.6810 N   0  0  0  0  0  0  0  0  0  0  0  0
    0.9540    1.7620    0.8652 H   0  0  0  0  0  0  0  0  0  0  0  0
    1.5322    1.5607    2.9084 C   0  0  0  0  0  0  0  0  0  0  0  0
    1.7689    0.6752    3.5039 H   0  0  0  0  0  0  0  0  0  0  0  0
    2.4575    2.0840    2.6635 H   0  0  0  0  0  0  0  0  0  0  0  0
    0.8890    2.2183    3.4955 H   0  0  0  0  0  0  0  0  0  0  0  0
  5  6  2  0  0  0  0
  5  7  1  0  0  0  0
  2  3  1  0  0  0  0
  2  4  1  0  0  0  0
  2  5  1  0  0  0  0
  1  2  1  0  0  0  0
 22 23  2  0  0  0  0
 22 24  1  0  0  0  0
 20 21  1  0  0  0  0
 18 19  1  0  0  0  0
 18 20  1  0  0  0  0
 16 17  1  0  0  0  0
 16 18  1  0  0  0  0
 15 16  2  0  0  0  0
 14 15  1  0  0  0  0
 14 20  2  0  0  0  0
 11 12  1  0  0  0  0
 11 13  1  0  0  0  0
 11 14  1  0  0  0  0
  9 10  1  0  0  0  0
  9 11  1  0  0  0  0
  9 22  1  0  0  0  0
  7  8  1  0  0  0  0
  7  9  1  0  0  0  0
 26 27  1  0  0  0  0
 26 28  1  0  0  0  0
 26 29  1  0  0  0  0
 24 25  1  0  0  0  0
 24 26  1  0  0  0  0
M  END
$$$$
default_name
  -OEChem-01062215323D

 29 29  0     1  0  0  0  0  0999 V2000
   -2.9561   -3.9186    1.3887 H   0  0  0  0  0  0  0  0  0  0  0  0
   -3.1191   -2.9346    0.9517 C   0  0  0  0  0  0  0  0  0  0  0  0
   -3.7811   -2.3546    1.5917 H   0  0  0  0  0  0  0  0  0  0  0  0
   -3.5591   -3.0406   -0.0383 H   0  0  0  0  0  0  0  0  0  0  0  0
   -1.7921   -2.2226    0.8327 C   0  0  0  0  0  0  0  0  0  0  0  0
   -0.7611   -2.7766    1.1927 O   0  0  0  0  0  0  0  0  0  0  0  0
   -1.8201   -0.9926    0.3247 N   0  0  0  0  0  0  0  0  0  0  0  0
   -2.7141   -0.5816    0.0927 H   0  0  0  0  0  0  0  0  0  0  0  0
   -0.6481   -0.1156    0.2017 C   0  0  1  0  0  0  0  0  0  0  0  0
    0.1042   -0.6345   -0.3958 H   0  0  0  0  0  0  0  0  0  0  0  0
   -1.0420    1.1781   -0.5372 C   0  0  0  0  0  0  0  0  0  0  0  0
   -1.8749    1.6587   -0.0219 H   0  0  0  0  0  0  0  0  0  0  0  0
   -0.2044    1.8769   -0.5299 H   0  0  0  0  0  0  0  0  0  0  0  0
   -1.4777    0.9311   -1.9610 C   0  0  0  0  0  0  0  0  0  0  0  0
   -0.6362    0.6321   -3.0333 N   0  0  0  0  0  0  0  0  0  0  0  0
   -1.4386    0.4440   -4.0912 C   0  0  0  0  0  0  0  0  0  0  0  0
   -1.0914    0.2063   -5.0888 H   0  0  0  0  0  0  0  0  0  0  0  0
   -2.7264    0.5831   -3.7341 N   0  0  0  0  0  0  0  0  0  0  0  0
   -3.5207    0.4699   -4.3489 H   0  0  0  0  0  0  0  0  0  0  0  0
   -2.7715    0.8869   -2.3916 C   0  0  0  0  0  0  0  0  0  0  0  0
   -3.6500    1.0418   -1.7779 H   0  0  0  0  0  0  0  0  0  0  0  0
   -0.0283    0.1609    1.5831 C   0  0  0  0  0  0  0  0  0  0  0  0
   -0.1059   -0.6854    2.4737 O   0  0  0  0  0  0  0  0  0  0  0  0
    0.5913    1.3319    1.7614 N   0  0  0  0  0  0  0  0  0  0  0  0
    0.5158    2.0107    1.0121 H   0  0  0  0  0  0  0  0  0  0  0  0
    1.2438    1.7500    2.9999 C   0  0  0  0  0  0  0  0  0  0  0  0
    1.7124    0.8905    3.4862 H   0  0  0  0  0  0  0  0  0  0  0  0
    2.0081    2.4975    2.7824 H   0  0  0  0  0  0  0  0  0  0  0  0
    0.5025    2.1770    3.6773 H   0  0  0  0  0  0  0  0  0  0  0  0
  5  6  2  0  0  0  0
  5  7  1  0  0  0  0
  2  3  1  0  0  0  0
  2  4  1  0  0  0  0
  2  5  1  0  0  0  0
  1  2  1  0  0  0  0
 22 23  2  0  0  0  0
 22 24  1  0  0  0  0
 20 21  1  0  0  0  0
 18 19  1  0  0  0  0
 18 20  1  0  0  0  0
 16 17  1  0  0  0  0
 16 18  1  0  0  0  0
 15 16  2  0  0  0  0
 14 15  1  0  0  0  0
 14 20  2  0  0  0  0
 11 12  1  0  0  0  0
 11 13  1  0  0  0  0
 11 14  1  0  0  0  0
  9 10  1  0  0  0  0
  9 11  1  0  0  0  0
  9 22  1  0  0  0  0
  7  8  1  0  0  0  0
  7  9  1  0  0  0  0
 26 27  1  0  0  0  0
 26 28  1  0  0  0  0
 26 29  1  0  0  0  0
 24 25  1  0  0  0  0
 24 26  1  0  0  0  0
M  END
$$$$
default_name
  -OEChem-01062215323D

 29 29  0     1  0  0  0  0  0999 V2000
   -2.9561   -3.9186    1.3887 H   0  0  0  0  0  0  0  0  0  0  0  0
   -3.1191   -2.9346    0.9517 C   0  0  0  0  0  0  0  0  0  0  0  0
   -3.7811   -2.3546    1.5917 H   0  0  0  0  0  0  0  0  0  0  0  0
   -3.5591   -3.0406   -0.0383 H   0  0  0  0  0  0  0  0  0  0  0  0
   -1.7921   -2.2226    0.8327 C   0  0  0  0  0  0  0  0  0  0  0  0
   -0.7611   -2.7766    1.1927 O   0  0  0  0  0  0  0  0  0  0  0  0
   -1.8201   -0.9926    0.3247 N   0  0  0  0  0  0  0  0  0  0  0  0
   -2.7141   -0.5816    0.0927 H   0  0  0  0  0  0  0  0  0  0  0  0
   -0.6481   -0.1156    0.2017 C   0  0  1  0  0  0  0  0  0  0  0  0
    0.1042   -0.6345   -0.3958 H   0  0  0  0  0  0  0  0  0  0  0  0
   -1.0420    1.1781   -0.5372 C   0  0  0  0  0  0  0  0  0  0  0  0
   -1.8749    1.6587   -0.0219 H   0  0  0  0  0  0  0  0  0  0  0  0
   -0.2044    1.8769   -0.5299 H   0  0  0  0  0  0  0  0  0  0  0  0
   -1.4777    0.9311   -1.9610 C   0  0  0  0  0  0  0  0  0  0  0  0
   -0.6362    0.6321   -3.0333 N   0  0  0  0  0  0  0  0  0  0  0  0
   -1.4386    0.4440   -4.0912 C   0  0  0  0  0  0  0  0  0  0  0  0
   -1.0914    0.2063   -5.0888 H   0  0  0  0  0  0  0  0  0  0  0  0
   -2.7264    0.5831   -3.7341 N   0  0  0  0  0  0  0  0  0  0  0  0
   -3.5207    0.4699   -4.3489 H   0  0  0  0  0  0  0  0  0  0  0  0
   -2.7715    0.8869   -2.3916 C   0  0  0  0  0  0  0  0  0  0  0  0
   -3.6500    1.0418   -1.7779 H   0  0  0  0  0  0  0  0  0  0  0  0
   -0.0283    0.1609    1.5831 C   0  0  0  0  0  0  0  0  0  0  0  0
    0.1432   -0.7636    2.3776 O   0  0  0  0  0  0  0  0  0  0  0  0
    0.3150    1.4211    1.8675 N   0  0  0  0  0  0  0  0  0  0  0  0
    0.0415    2.1338    1.2002 H   0  0  0  0  0  0  0  0  0  0  0  0
    0.9256    1.8564    3.1214 C   0  0  0  0  0  0  0  0  0  0  0  0
    1.6069    1.0872    3.4941 H   0  0  0  0  0  0  0  0  0  0  0  0
    1.4834    2.7801    2.9612 H   0  0  0  0  0  0  0  0  0  0  0  0
    0.1471    2.0284    3.8664 H   0  0  0  0  0  0  0  0  0  0  0  0
  5  6  2  0  0  0  0
  5  7  1  0  0  0  0
  2  3  1  0  0  0  0
  2  4  1  0  0  0  0
  2  5  1  0  0  0  0
  1  2  1  0  0  0  0
 22 23  2  0  0  0  0
 22 24  1  0  0  0  0
 20 21  1  0  0  0  0
 18 19  1  0  0  0  0
 18 20  1  0  0  0  0
 16 17  1  0  0  0  0
 16 18  1  0  0  0  0
 15 16  2  0  0  0  0
 14 15  1  0  0  0  0
 14 20  2  0  0  0  0
 11 12  1  0  0  0  0
 11 13  1  0  0  0  0
 11 14  1  0  0  0  0
  9 10  1  0  0  0  0
  9 11  1  0  0  0  0
  9 22  1  0  0  0  0
  7  8  1  0  0  0  0
  7  9  1  0  0  0  0
 26 27  1  0  0  0  0
 26 28  1  0  0  0  0
 26 29  1  0  0  0  0
 24 25  1  0  0  0  0
 24 26  1  0  0  0  0
M  END
$$$$
default_name
  -OEChem-01062215323D

 29 29  0     1  0  0  0  0  0999 V2000
   -2.9561   -3.9186    1.3887 H   0  0  0  0  0  0  0  0  0  0  0  0
   -3.1191   -2.9346    0.9517 C   0  0  0  0  0  0  0  0  0  0  0  0
   -3.7811   -2.3546    1.5917 H   0  0  0  0  0  0  0  0  0  0  0  0
   -3.5591   -3.0406   -0.0383 H   0  0  0  0  0  0  0  0  0  0  0  0
   -1.7921   -2.2226    0.8327 C   0  0  0  0  0  0  0  0  0  0  0  0
   -0.7611   -2.7766    1.1927 O   0  0  0  0  0  0  0  0  0  0  0  0
   -1.8201   -0.9926    0.3247 N   0  0  0  0  0  0  0  0  0  0  0  0
   -2.7141   -0.5816    0.0927 H   0  0  0  0  0  0  0  0  0  0  0  0
   -0.6481   -0.1156    0.2017 C   0  0  1  0  0  0  0  0  0  0  0  0
    0.1042   -0.6345   -0.3958 H   0  0  0  0  0  0  0  0  0  0  0  0
   -1.0420    1.1781   -0.5372 C   0  0  0  0  0  0  0  0  0  0  0  0
   -1.8749    1.6587   -0.0219 H   0  0  0  0  0  0  0  0  0  0  0  0
   -0.2044    1.8769   -0.5299 H   0  0  0  0  0  0  0  0  0  0  0  0
   -1.4777    0.9311   -1.9610 C   0  0  0  0  0  0  0  0  0  0  0  0
   -0.6362    0.6321   -3.0333 N   0  0  0  0  0  0  0  0  0  0  0  0
   -1.4386    0.4440   -4.0912 C   0  0  0  0  0  0  0  0  0  0  0  0
   -1.0914    0.2063   -5.0888 H   0  0  0  0  0  0  0  0  0  0  0  0
   -2.7264    0.5831   -3.7341 N   0  0  0  0  0  0  0  0  0  0  0  0
   -3.5207    0.4699   -4.3489 H   0  0  0  0  0  0  0  0  0  0  0  0
   -2.7715    0.8869   -2.3916 C   0  0  0  0  0  0  0  0  0  0  0  0
   -3.6500    1.0418   -1.7779 H   0  0  0  0  0  0  0  0  0  0  0  0
   -0.0283    0.1609    1.5831 C   0  0  0  0  0  0  0  0  0  0  0  0
    0.3975   -0.7713    2.2650 O   0  0  0  0  0  0  0  0  0  0  0  0
    0.0323    1.4321    1.9922 N   0  0  0  0  0  0  0  0  0  0  0  0
   -0.4364    2.1229    1.4168 H   0  0  0  0  0  0  0  0  0  0  0  0
    0.5992    1.8725    3.2646 C   0  0  0  0  0  0  0  0  0  0  0  0
    1.4598    1.2519    3.5272 H   0  0  0  0  0  0  0  0  0  0  0  0
    0.9194    2.9126    3.1878 H   0  0  0  0  0  0  0  0  0  0  0  0
   -0.1528    1.7825    4.0502 H   0  0  0  0  0  0  0  0  0  0  0  0
  5  6  2  0  0  0  0
  5  7  1  0  0  0  0
  2  3  1  0  0  0  0
  2  4  1  0  0  0  0
  2  5  1  0  0  0  0
  1  2  1  0  0  0  0
 22 23  2  0  0  0  0
 22 24  1  0  0  0  0
 20 21  1  0  0  0  0
 18 19  1  0  0  0  0
 18 20  1  0  0  0  0
 16 17  1  0  0  0  0
 16 18  1  0  0  0  0
 15 16  2  0  0  0  0
 14 15  1  0  0  0  0
 14 20  2  0  0  0  0
 11 12  1  0  0  0  0
 11 13  1  0  0  0  0
 11 14  1  0  0  0  0
  9 10  1  0  0  0  0
  9 11  1  0  0  0  0
  9 22  1  0  0  0  0
  7  8  1  0  0  0  0
  7  9  1  0  0  0  0
 26 27  1  0  0  0  0
 26 28  1  0  0  0  0
 26 29  1  0  0  0  0
 24 25  1  0  0  0  0
 24 26  1  0  0  0  0
M  END
$$$$
default_name
  -OEChem-01062215323D

 29 29  0     1  0  0  0  0  0999 V2000
   -2.9561   -3.9186    1.3887 H   0  0  0  0  0  0  0  0  0  0  0  0
   -3.1191   -2.9346    0.9517 C   0  0  0  0  0  0  0  0  0  0  0  0
   -3.7811   -2.3546    1.5917 H   0  0  0  0  0  0  0  0  0  0  0  0
   -3.5591   -3.0406   -0.0383 H   0  0  0  0  0  0  0  0  0  0  0  0
   -1.7921   -2.2226    0.8327 C   0  0  0  0  0  0  0  0  0  0  0  0
   -0.7611   -2.7766    1.1927 O   0  0  0  0  0  0  0  0  0  0  0  0
   -1.8201   -0.9926    0.3247 N   0  0  0  0  0  0  0  0  0  0  0  0
   -2.7141   -0.5816    0.0927 H   0  0  0  0  0  0  0  0  0  0  0  0
   -0.6481   -0.1156    0.2017 C   0  0  1  0  0  0  0  0  0  0  0  0
    0.1042   -0.6345   -0.3958 H   0  0  0  0  0  0  0  0  0  0  0  0
   -1.0420    1.1781   -0.5372 C   0  0  0  0  0  0  0  0  0  0  0  0
   -1.8749    1.6587   -0.0219 H   0  0  0  0  0  0  0  0  0  0  0  0
   -0.2044    1.8769   -0.5299 H   0  0  0  0  0  0  0  0  0  0  0  0
   -1.4777    0.9311   -1.9610 C   0  0  0  0  0  0  0  0  0  0  0  0
   -0.6362    0.6321   -3.0333 N   0  0  0  0  0  0  0  0  0  0  0  0
   -1.4386    0.4440   -4.0912 C   0  0  0  0  0  0  0  0  0  0  0  0
   -1.0914    0.2063   -5.0888 H   0  0  0  0  0  0  0  0  0  0  0  0
   -2.7264    0.5831   -3.7341 N   0  0  0  0  0  0  0  0  0  0  0  0
   -3.5207    0.4699   -4.3489 H   0  0  0  0  0  0  0  0  0  0  0  0
   -2.7715    0.8869   -2.3916 C   0  0  0  0  0  0  0  0  0  0  0  0
   -3.6500    1.0418   -1.7779 H   0  0  0  0  0  0  0  0  0  0  0  0
   -0.0283    0.1609    1.5831 C   0  0  0  0  0  0  0  0  0  0  0  0
    0.6397   -0.7079    2.1437 O   0  0  0  0  0  0  0  0  0  0  0  0
   -0.2375    1.3640    2.1269 N   0  0  0  0  0  0  0  0  0  0  0  0
   -0.8855    1.9788    1.6472 H   0  0  0  0  0  0  0  0  0  0  0  0
    0.2868    1.7974    3.4198 C   0  0  0  0  0  0  0  0  0  0  0  0
    1.2809    1.3733    3.5831 H   0  0  0  0  0  0  0  0  0  0  0  0
    0.3543    2.8859    3.4467 H   0  0  0  0  0  0  0  0  0  0  0  0
   -0.3768    1.4562    4.2161 H   0  0  0  0  0  0  0  0  0  0  0  0
  5  6  2  0  0  0  0
  5  7  1  0  0  0  0
  2  3  1  0  0  0  0
  2  4  1  0  0  0  0
  2  5  1  0  0  0  0
  1  2  1  0  0  0  0
 22 23  2  0  0  0  0
 22 24  1  0  0  0  0
 20 21  1  0  0  0  0
 18 19  1  0  0  0  0
 18 20  1  0  0  0  0
 16 17  1  0  0  0  0
 16 18  1  0  0  0  0
 15 16  2  0  0  0  0
 14 15  1  0  0  0  0
 14 20  2  0  0  0  0
 11 12  1  0  0  0  0
 11 13  1  0  0  0  0
 11 14  1  0  0  0  0
  9 10  1  0  0  0  0
  9 11  1  0  0  0  0
  9 22  1  0  0  0  0
  7  8  1  0  0  0  0
  7  9  1  0  0  0  0
 26 27  1  0  0  0  0
 26 28  1  0  0  0  0
 26 29  1  0  0  0  0
 24 25  1  0  0  0  0
 24 26  1  0  0  0  0
M  END
$$$$
default_name
  -OEChem-01062215323D

 29 29  0     1  0  0  0  0  0999 V2000
   -2.9561   -3.9186    1.3887 H   0  0  0  0  0  0  0  0  0  0  0  0
   -3.1191   -2.9346    0.9517 C   0  0  0  0  0  0  0  0  0  0  0  0
   -3.7811   -2.3546    1.5917 H   0  0  0  0  0  0  0  0  0  0  0  0
   -3.5591   -3.0406   -0.0383 H   0  0  0  0  0  0  0  0  0  0  0  0
   -1.7921   -2.2226    0.8327 C   0  0  0  0  0  0  0  0  0  0  0  0
   -0.7611   -2.7766    1.1927 O   0  0  0  0  0  0  0  0  0  0  0  0
   -1.8201   -0.9926    0.3247 N   0  0  0  0  0  0  0  0  0  0  0  0
   -2.7141   -0.5816    0.0927 H   0  0  0  0  0  0  0  0  0  0  0  0
   -0.6481   -0.1156    0.2017 C   0  0  1  0  0  0  0  0  0  0  0  0
    0.1042   -0.6345   -0.3958 H   0  0  0  0  0  0  0  0  0  0  0  0
   -1.0420    1.1781   -0.5372 C   0  0  0  0  0  0  0  0  0  0  0  0
   -1.8749    1.6587   -0.0219 H   0  0  0  0  0  0  0  0  0  0  0  0
   -0.2044    1.8769   -0.5299 H   0  0  0  0  0  0  0  0  0  0  0  0
   -1.4777    0.9311   -1.9610 C   0  0  0  0  0  0  0  0  0  0  0  0
   -0.6362    0.6321   -3.0333 N   0  0  0  0  0  0  0  0  0  0  0  0
   -1.4386    0.4440   -4.0912 C   0  0  0  0  0  0  0  0  0  0  0  0
   -1.0914    0.2063   -5.0888 H   0  0  0  0  0  0  0  0  0  0  0  0
   -2.7264    0.5831   -3.7341 N   0  0  0  0  0  0  0  0  0  0  0  0
   -3.5207    0.4699   -4.3489 H   0  0  0  0  0  0  0  0  0  0  0  0
   -2.7715    0.8869   -2.3916 C   0  0  0  0  0  0  0  0  0  0  0  0
   -3.6500    1.0418   -1.7779 H   0  0  0  0  0  0  0  0  0  0  0  0
   -0.0283    0.1609    1.5831 C   0  0  0  0  0  0  0  0  0  0  0  0
    0.8533   -0.5778    2.0218 O   0  0  0  0  0  0  0  0  0  0  0  0
   -0.4761    1.2215    2.2624 N   0  0  0  0  0  0  0  0  0  0  0  0
   -1.2751    1.7113    1.8755 H   0  0  0  0  0  0  0  0  0  0  0  0
    0.0097    1.6361    3.5765 C   0  0  0  0  0  0  0  0  0  0  0  0
    1.0825    1.4432    3.6581 H   0  0  0  0  0  0  0  0  0  0  0  0
   -0.1733    2.7019    3.7203 H   0  0  0  0  0  0  0  0  0  0  0  0
   -0.5097    1.0718    4.3527 H   0  0  0  0  0  0  0  0  0  0  0  0
  5  6  2  0  0  0  0
  5  7  1  0  0  0  0
  2  3  1  0  0  0  0
  2  4  1  0  0  0  0
  2  5  1  0  0  0  0
  1  2  1  0  0  0  0
 22 23  2  0  0  0  0
 22 24  1  0  0  0  0
 20 21  1  0  0  0  0
 18 19  1  0  0  0  0
 18 20  1  0  0  0  0
 16 17  1  0  0  0  0
 16 18  1  0  0  0  0
 15 16  2  0  0  0  0
 14 15  1  0  0  0  0
 14 20  2  0  0  0  0
 11 12  1  0  0  0  0
 11 13  1  0  0  0  0
 11 14  1  0  0  0  0
  9 10  1  0  0  0  0
  9 11  1  0  0  0  0
  9 22  1  0  0  0  0
  7  8  1  0  0  0  0
  7  9  1  0  0  0  0
 26 27  1  0  0  0  0
 26 28  1  0  0  0  0
 26 29  1  0  0  0  0
 24 25  1  0  0  0  0
 24 26  1  0  0  0  0
M  END
$$$$
default_name
  -OEChem-01062215323D

 29 29  0     1  0  0  0  0  0999 V2000
   -2.9561   -3.9186    1.3887 H   0  0  0  0  0  0  0  0  0  0  0  0
   -3.1191   -2.9346    0.9517 C   0  0  0  0  0  0  0  0  0  0  0  0
   -3.7811   -2.3546    1.5917 H   0  0  0  0  0  0  0  0  0  0  0  0
   -3.5591   -3.0406   -0.0383 H   0  0  0  0  0  0  0  0  0  0  0  0
   -1.7921   -2.2226    0.8327 C   0  0  0  0  0  0  0  0  0  0  0  0
   -0.7611   -2.7766    1.1927 O   0  0  0  0  0  0  0  0  0  0  0  0
   -1.8201   -0.9926    0.3247 N   0  0  0  0  0  0  0  0  0  0  0  0
   -2.7141   -0.5816    0.0927 H   0  0  0  0  0  0  0  0  0  0  0  0
   -0.6481   -0.1156    0.2017 C   0  0  1  0  0  0  0  0  0  0  0  0
    0.1042   -0.6345   -0.3958 H   0  0  0  0  0  0  0  0  0  0  0  0
   -1.0420    1.1781   -0.5372 C   0  0  0  0  0  0  0  0  0  0  0  0
   -1.8749    1.6587   -0.0219 H   0  0  0  0  0  0  0  0  0  0  0  0
   -0.2044    1.8769   -0.5299 H   0  0  0  0  0  0  0  0  0  0  0  0
   -1.4777    0.9311   -1.9610 C   0  0  0  0  0  0  0  0  0  0  0  0
   -0.6362    0.6321   -3.0333 N   0  0  0  0  0  0  0  0  0  0  0  0
   -1.4386    0.4440   -4.0912 C   0  0  0  0  0  0  0  0  0  0  0  0
   -1.0914    0.2063   -5.0888 H   0  0  0  0  0  0  0  0  0  0  0  0
   -2.7264    0.5831   -3.7341 N   0  0  0  0  0  0  0  0  0  0  0  0
   -3.5207    0.4699   -4.3489 H   0  0  0  0  0  0  0  0  0  0  0  0
   -2.7715    0.8869   -2.3916 C   0  0  0  0  0  0  0  0  0  0  0  0
   -3.6500    1.0418   -1.7779 H   0  0  0  0  0  0  0  0  0  0  0  0
   -0.0283    0.1609    1.5831 C   0  0  0  0  0  0  0  0  0  0  0  0
    1.0237   -0.3898    1.9077 O   0  0  0  0  0  0  0  0  0  0  0  0
   -0.6671    1.0144    2.3896 N   0  0  0  0  0  0  0  0  0  0  0  0
   -1.5786    1.3387    2.0863 H   0  0  0  0  0  0  0  0  0  0  0  0
   -0.2132    1.3995    3.7238 C   0  0  0  0  0  0  0  0  0  0  0  0
    0.8781    1.4568    3.7471 H   0  0  0  0  0  0  0  0  0  0  0  0
   -0.6275    2.3730    3.9899 H   0  0  0  0  0  0  0  0  0  0  0  0
   -0.5424    0.6552    4.4507 H   0  0  0  0  0  0  0  0  0  0  0  0
  5  6  2  0  0  0  0
  5  7  1  0  0  0  0
  2  3  1  0  0  0  0
  2  4  1  0  0  0  0
  2  5  1  0  0  0  0
  1  2  1  0  0  0  0
 22 23  2  0  0  0  0
 22 24  1  0  0  0  0
 20 21  1  0  0  0  0
 18 19  1  0  0  0  0
 18 20  1  0  0  0  0
 16 17  1  0  0  0  0
 16 18  1  0  0  0  0
 15 16  2  0  0  0  0
 14 15  1  0  0  0  0
 14 20  2  0  0  0  0
 11 12  1  0  0  0  0
 11 13  1  0  0  0  0
 11 14  1  0  0  0  0
  9 10  1  0  0  0  0
  9 11  1  0  0  0  0
  9 22  1  0  0  0  0
  7  8  1  0  0  0  0
  7  9  1  0  0  0  0
 26 27  1  0  0  0  0
 26 28  1  0  0  0  0
 26 29  1  0  0  0  0
 24 25  1  0  0  0  0
 24 26  1  0  0  0  0
M  END
$$$$
default_name
  -OEChem-01062215323D

 29 29  0     1  0  0  0  0  0999 V2000
   -2.9561   -3.9186    1.3887 H   0  0  0  0  0  0  0  0  0  0  0  0
   -3.1191   -2.9346    0.9517 C   0  0  0  0  0  0  0  0  0  0  0  0
   -3.7811   -2.3546    1.5917 H   0  0  0  0  0  0  0  0  0  0  0  0
   -3.5591   -3.0406   -0.0383 H   0  0  0  0  0  0  0  0  0  0  0  0
   -1.7921   -2.2226    0.8327 C   0  0  0  0  0  0  0  0  0  0  0  0
   -0.7611   -2.7766    1.1927 O   0  0  0  0  0  0  0  0  0  0  0  0
   -1.8201   -0.9926    0.3247 N   0  0  0  0  0  0  0  0  0  0  0  0
   -2.7141   -0.5816    0.0927 H   0  0  0  0  0  0  0  0  0  0  0  0
   -0.6481   -0.1156    0.2017 C   0  0  1  0  0  0  0  0  0  0  0  0
    0.1042   -0.6345   -0.3958 H   0  0  0  0  0  0  0  0  0  0  0  0
   -1.0420    1.1781   -0.5372 C   0  0  0  0  0  0  0  0  0  0  0  0
   -1.8749    1.6587   -0.0219 H   0  0  0  0  0  0  0  0  0  0  0  0
   -0.2044    1.8769   -0.5299 H   0  0  0  0  0  0  0  0  0  0  0  0
   -1.4777    0.9311   -1.9610 C   0  0  0  0  0  0  0  0  0  0  0  0
   -0.6362    0.6321   -3.0333 N   0  0  0  0  0  0  0  0  0  0  0  0
   -1.4386    0.4440   -4.0912 C   0  0  0  0  0  0  0  0  0  0  0  0
   -1.0914    0.2063   -5.0888 H   0  0  0  0  0  0  0  0  0  0  0  0
   -2.7264    0.5831   -3.7341 N   0  0  0  0  0  0  0  0  0  0  0  0
   -3.5207    0.4699   -4.3489 H   0  0  0  0  0  0  0  0  0  0  0  0
   -2.7715    0.8869   -2.3916 C   0  0  0  0  0  0  0  0  0  0  0  0
   -3.6500    1.0418   -1.7779 H   0  0  0  0  0  0  0  0  0  0  0  0
   -0.0283    0.1609    1.5831 C   0  0  0  0  0  0  0  0  0  0  0  0
    1.1393   -0.1567    1.8091 O   0  0  0  0  0  0  0  0  0  0  0  0
   -0.7976    0.7566    2.4997 N   0  0  0  0  0  0  0  0  0  0  0  0
   -1.7754    0.8862    2.2652 H   0  0  0  0  0  0  0  0  0  0  0  0
   -0.3667    1.1039    3.8518 C   0  0  0  0  0  0  0  0  0  0  0  0
    0.6817    1.4132    3.8440 H   0  0  0  0  0  0  0  0  0  0  0  0
   -0.9772    1.9218    4.2371 H   0  0  0  0  0  0  0  0  0  0  0  0
   -0.4727    0.2351    4.5035 H   0  0  0  0  0  0  0  0  0  0  0  0
  5  6  2  0  0  0  0
  5  7  1  0  0  0  0
  2  3  1  0  0  0  0
  2  4  1  0  0  0  0
  2  5  1  0  0  0  0
  1  2  1  0  0  0  0
 22 23  2  0  0  0  0
 22 24  1  0  0  0  0
 20 21  1  0  0  0  0
 18 19  1  0  0  0  0
 18 20  1  0  0  0  0
 16 17  1  0  0  0  0
 16 18  1  0  0  0  0
 15 16  2  0  0  0  0
 14 15  1  0  0  0  0
 14 20  2  0  0  0  0
 11 12  1  0  0  0  0
 11 13  1  0  0  0  0
 11 14  1  0  0  0  0
  9 10  1  0  0  0  0
  9 11  1  0  0  0  0
  9 22  1  0  0  0  0
  7  8  1  0  0  0  0
  7  9  1  0  0  0  0
 26 27  1  0  0  0  0
 26 28  1  0  0  0  0
 26 29  1  0  0  0  0
 24 25  1  0  0  0  0
 24 26  1  0  0  0  0
M  END
$$$$
default_name
  -OEChem-01062215323D

 29 29  0     1  0  0  0  0  0999 V2000
   -2.9561   -3.9186    1.3887 H   0  0  0  0  0  0  0  0  0  0  0  0
   -3.1191   -2.9346    0.9517 C   0  0  0  0  0  0  0  0  0  0  0  0
   -3.7811   -2.3546    1.5917 H   0  0  0  0  0  0  0  0  0  0  0  0
   -3.5591   -3.0406   -0.0383 H   0  0  0  0  0  0  0  0  0  0  0  0
   -1.7921   -2.2226    0.8327 C   0  0  0  0  0  0  0  0  0  0  0  0
   -0.7611   -2.7766    1.1927 O   0  0  0  0  0  0  0  0  0  0  0  0
   -1.8201   -0.9926    0.3247 N   0  0  0  0  0  0  0  0  0  0  0  0
   -2.7141   -0.5816    0.0927 H   0  0  0  0  0  0  0  0  0  0  0  0
   -0.6481   -0.1156    0.2017 C   0  0  1  0  0  0  0  0  0  0  0  0
    0.1042   -0.6345   -0.3958 H   0  0  0  0  0  0  0  0  0  0  0  0
   -1.0420    1.1781   -0.5372 C   0  0  0  0  0  0  0  0  0  0  0  0
   -1.8749    1.6587   -0.0219 H   0  0  0  0  0  0  0  0  0  0  0  0
   -0.2044    1.8769   -0.5299 H   0  0  0  0  0  0  0  0  0  0  0  0
   -1.4777    0.9311   -1.9610 C   0  0  0  0  0  0  0  0  0  0  0  0
   -0.6362    0.6321   -3.0333 N   0  0  0  0  0  0  0  0  0  0  0  0
   -1.4386    0.4440   -4.0912 C   0  0  0  0  0  0  0  0  0  0  0  0
   -1.0914    0.2063   -5.0888 H   0  0  0  0  0  0  0  0  0  0  0  0
   -2.7264    0.5831   -3.7341 N   0  0  0  0  0  0  0  0  0  0  0  0
   -3.5207    0.4699   -4.3489 H   0  0  0  0  0  0  0  0  0  0  0  0
   -2.7715    0.8869   -2.3916 C   0  0  0  0  0  0  0  0  0  0  0  0
   -3.6500    1.0418   -1.7779 H   0  0  0  0  0  0  0  0  0  0  0  0
   -0.0283    0.1609    1.5831 C   0  0  0  0  0  0  0  0  0  0  0  0
    1.1923    0.1056    1.7329 O   0  0  0  0  0  0  0  0  0  0  0  0
   -0.8586    0.4659    2.5853 N   0  0  0  0  0  0  0  0  0  0  0  0
   -1.8521    0.3848    2.4000 H   0  0  0  0  0  0  0  0  0  0  0  0
   -0.4403    0.7694    3.9518 C   0  0  0  0  0  0  0  0  0  0  0  0
    0.5066    1.3154    3.9422 H   0  0  0  0  0  0  0  0  0  0  0  0
   -1.1988    1.3789    4.4452 H   0  0  0  0  0  0  0  0  0  0  0  0
   -0.3053   -0.1600    4.5075 H   0  0  0  0  0  0  0  0  0  0  0  0
  5  6  2  0  0  0  0
  5  7  1  0  0  0  0
  2  3  1  0  0  0  0
  2  4  1  0  0  0  0
  2  5  1  0  0  0  0
  1  2  1  0  0  0  0
 22 23  2  0  0  0  0
 22 24  1  0  0  0  0
 20 21  1  0  0  0  0
 18 19  1  0  0  0  0
 18 20  1  0  0  0  0
 16 17  1  0  0  0  0
 16 18  1  0  0  0  0
 15 16  2  0  0  0  0
 14 15  1  0  0  0  0
 14 20  2  0  0  0  0
 11 12  1  0  0  0  0
 11 13  1  0  0  0  0
 11 14  1  0  0  0  0
  9 10  1  0  0  0  0
  9 11  1  0  0  0  0
  9 22  1  0  0  0  0
  7  8  1  0  0  0  0
  7  9  1  0  0  0  0
 26 27  1  0  0  0  0
 26 28  1  0  0  0  0
 26 29  1  0  0  0  0
 24 25  1  0  0  0  0
 24 26  1  0  0  0  0
M  END
$$$$
default_name
  -OEChem-01062215323D

 29 29  0     1  0  0  0  0  0999 V2000
   -2.9561   -3.9186    1.3887 H   0  0  0  0  0  0  0  0  0  0  0  0
   -3.1191   -2.9346    0.9517 C   0  0  0  0  0  0  0  0  0  0  0  0
   -3.7811   -2.3546    1.5917 H   0  0  0  0  0  0  0  0  0  0  0  0
   -3.5591   -3.0406   -0.0383 H   0  0  0  0  0  0  0  0  0  0  0  0
   -1.7921   -2.2226    0.8327 C   0  0  0  0  0  0  0  0  0  0  0  0
   -0.7611   -2.7766    1.1927 O   0  0  0  0  0  0  0  0  0  0  0  0
   -1.8201   -0.9926    0.3247 N   0  0  0  0  0  0  0  0  0  0  0  0
   -2.7141   -0.5816    0.0927 H   0  0  0  0  0  0  0  0  0  0  0  0
   -0.6481   -0.1156    0.2017 C   0  0  1  0  0  0  0  0  0  0  0  0
    0.1042   -0.6345   -0.3958 H   0  0  0  0  0  0  0  0  0  0  0  0
   -1.0420    1.1781   -0.5372 C   0  0  0  0  0  0  0  0  0  0  0  0
   -1.8749    1.6587   -0.0219 H   0  0  0  0  0  0  0  0  0  0  0  0
   -0.2044    1.8769   -0.5299 H   0  0  0  0  0  0  0  0  0  0  0  0
   -1.4777    0.9311   -1.9610 C   0  0  0  0  0  0  0  0  0  0  0  0
   -0.6362    0.6321   -3.0333 N   0  0  0  0  0  0  0  0  0  0  0  0
   -1.4386    0.4440   -4.0912 C   0  0  0  0  0  0  0  0  0  0  0  0
   -1.0914    0.2063   -5.0888 H   0  0  0  0  0  0  0  0  0  0  0  0
   -2.7264    0.5831   -3.7341 N   0  0  0  0  0  0  0  0  0  0  0  0
   -3.5207    0.4699   -4.3489 H   0  0  0  0  0  0  0  0  0  0  0  0
   -2.7715    0.8869   -2.3916 C   0  0  0  0  0  0  0  0  0  0  0  0
   -3.6500    1.0418   -1.7779 H   0  0  0  0  0  0  0  0  0  0  0  0
   -0.0283    0.1609    1.5831 C   0  0  0  0  0  0  0  0  0  0  0  0
    1.1790    0.3792    1.6841 O   0  0  0  0  0  0  0  0  0  0  0  0
   -0.8461    0.1620    2.6405 N   0  0  0  0  0  0  0  0  0  0  0  0
   -1.8035   -0.1314    2.4815 H   0  0  0  0  0  0  0  0  0  0  0  0
   -0.4291    0.4188    4.0170 C   0  0  0  0  0  0  0  0  0  0  0  0
    0.3647    1.1700    4.0349 H   0  0  0  0  0  0  0  0  0  0  0  0
   -1.2769    0.7814    4.5999 H   0  0  0  0  0  0  0  0  0  0  0  0
   -0.0517   -0.5032    4.4624 H   0  0  0  0  0  0  0  0  0  0  0  0
  5  6  2  0  0  0  0
  5  7  1  0  0  0  0
  2  3  1  0  0  0  0
  2  4  1  0  0  0  0
  2  5  1  0  0  0  0
  1  2  1  0  0  0  0
 22 23  2  0  0  0  0
 22 24  1  0  0  0  0
 20 21  1  0  0  0  0
 18 19  1  0  0  0  0
 18 20  1  0  0  0  0
 16 17  1  0  0  0  0
 16 18  1  0  0  0  0
 15 16  2  0  0  0  0
 14 15  1  0  0  0  0
 14 20  2  0  0  0  0
 11 12  1  0  0  0  0
 11 13  1  0  0  0  0
 11 14  1  0  0  0  0
  9 10  1  0  0  0  0
  9 11  1  0  0  0  0
  9 22  1  0  0  0  0
  7  8  1  0  0  0  0
  7  9  1  0  0  0  0
 26 27  1  0  0  0  0
 26 28  1  0  0  0  0
 26 29  1  0  0  0  0
 24 25  1  0  0  0  0
 24 26  1  0  0  0  0
M  END
$$$$
default_name
  -OEChem-01062215323D

 29 29  0     1  0  0  0  0  0999 V2000
   -2.9561   -3.9186    1.3887 H   0  0  0  0  0  0  0  0  0  0  0  0
   -3.1191   -2.9346    0.9517 C   0  0  0  0  0  0  0  0  0  0  0  0
   -3.7811   -2.3546    1.5917 H   0  0  0  0  0  0  0  0  0  0  0  0
   -3.5591   -3.0406   -0.0383 H   0  0  0  0  0  0  0  0  0  0  0  0
   -1.7921   -2.2226    0.8327 C   0  0  0  0  0  0  0  0  0  0  0  0
   -0.7611   -2.7766    1.1927 O   0  0  0  0  0  0  0  0  0  0  0  0
   -1.8201   -0.9926    0.3247 N   0  0  0  0  0  0  0  0  0  0  0  0
   -2.7141   -0.5816    0.0927 H   0  0  0  0  0  0  0  0  0  0  0  0
   -0.6481   -0.1156    0.2017 C   0  0  1  0  0  0  0  0  0  0  0  0
    0.1042   -0.6345   -0.3958 H   0  0  0  0  0  0  0  0  0  0  0  0
   -1.0420    1.1781   -0.5372 C   0  0  0  0  0  0  0  0  0  0  0  0
   -1.8749    1.6587   -0.0219 H   0  0  0  0  0  0  0  0  0  0  0  0
   -0.2044    1.8769   -0.5299 H   0  0  0  0  0  0  0  0  0  0  0  0
   -1.4777    0.9311   -1.9610 C   0  0  0  0  0  0  0  0  0  0  0  0
   -0.6362    0.6321   -3.0333 N   0  0  0  0  0  0  0  0  0  0  0  0
   -1.4386    0.4440   -4.0912 C   0  0  0  0  0  0  0  0  0  0  0  0
   -1.0914    0.2063   -5.0888 H   0  0  0  0  0  0  0  0  0  0  0  0
   -2.7264    0.5831   -3.7341 N   0  0  0  0  0  0  0  0  0  0  0  0
   -3.5207    0.4699   -4.3489 H   0  0  0  0  0  0  0  0  0  0  0  0
   -2.7715    0.8869   -2.3916 C   0  0  0  0  0  0  0  0  0  0  0  0
   -3.6500    1.0418   -1.7779 H   0  0  0  0  0  0  0  0  0  0  0  0
   -0.0283    0.1609    1.5831 C   0  0  0  0  0  0  0  0  0  0  0  0
    1.1003    0.6454    1.6661 O   0  0  0  0  0  0  0  0  0  0  0  0
   -0.7608   -0.1344    2.6616 N   0  0  0  0  0  0  0  0  0  0  0  0
   -1.6328   -0.6272    2.5041 H   0  0  0  0  0  0  0  0  0  0  0  0
   -0.3337    0.0759    4.0429 C   0  0  0  0  0  0  0  0  0  0  0  0
    0.2658    0.9869    4.1159 H   0  0  0  0  0  0  0  0  0  0  0  0
   -1.2065    0.1700    4.6906 H   0  0  0  0  0  0  0  0  0  0  0  0
    0.2710   -0.7711    4.3712 H   0  0  0  0  0  0  0  0  0  0  0  0
  5  6  2  0  0  0  0
  5  7  1  0  0  0  0
  2  3  1  0  0  0  0
  2  4  1  0  0  0  0
  2  5  1  0  0  0  0
  1  2  1  0  0  0  0
 22 23  2  0  0  0  0
 22 24  1  0  0  0  0
 20 21  1  0  0  0  0
 18 19  1  0  0  0  0
 18 20  1  0  0  0  0
 16 17  1  0  0  0  0
 16 18  1  0  0  0  0
 15 16  2  0  0  0  0
 14 15  1  0  0  0  0
 14 20  2  0  0  0  0
 11 12  1  0  0  0  0
 11 13  1  0  0  0  0
 11 14  1  0  0  0  0
  9 10  1  0  0  0  0
  9 11  1  0  0  0  0
  9 22  1  0  0  0  0
  7  8  1  0  0  0  0
  7  9  1  0  0  0  0
 26 27  1  0  0  0  0
 26 28  1  0  0  0  0
 26 29  1  0  0  0  0
 24 25  1  0  0  0  0
 24 26  1  0  0  0  0
M  END
$$$$
default_name
  -OEChem-01062215323D

 29 29  0     1  0  0  0  0  0999 V2000
   -2.9561   -3.9186    1.3887 H   0  0  0  0  0  0  0  0  0  0  0  0
   -3.1191   -2.9346    0.9517 C   0  0  0  0  0  0  0  0  0  0  0  0
   -3.7811   -2.3546    1.5917 H   0  0  0  0  0  0  0  0  0  0  0  0
   -3.5591   -3.0406   -0.0383 H   0  0  0  0  0  0  0  0  0  0  0  0
   -1.7921   -2.2226    0.8327 C   0  0  0  0  0  0  0  0  0  0  0  0
   -0.7611   -2.7766    1.1927 O   0  0  0  0  0  0  0  0  0  0  0  0
   -1.8201   -0.9926    0.3247 N   0  0  0  0  0  0  0  0  0  0  0  0
   -2.7141   -0.5816    0.0927 H   0  0  0  0  0  0  0  0  0  0  0  0
   -0.6481   -0.1156    0.2017 C   0  0  1  0  0  0  0  0  0  0  0  0
    0.1042   -0.6345   -0.3958 H   0  0  0  0  0  0  0  0  0  0  0  0
   -1.0420    1.1781   -0.5372 C   0  0  0  0  0  0  0  0  0  0  0  0
   -1.8749    1.6587   -0.0219 H   0  0  0  0  0  0  0  0  0  0  0  0
   -0.2044    1.8769   -0.5299 H   0  0  0  0  0  0  0  0  0  0  0  0
   -1.4777    0.9311   -1.9610 C   0  0  0  0  0  0  0  0  0  0  0  0
   -0.6362    0.6321   -3.0333 N   0  0  0  0  0  0  0  0  0  0  0  0
   -1.4386    0.4440   -4.0912 C   0  0  0  0  0  0  0  0  0  0  0  0
   -1.0914    0.2063   -5.0888 H   0  0  0  0  0  0  0  0  0  0  0  0
   -2.7264    0.5831   -3.7341 N   0  0  0  0  0  0  0  0  0  0  0  0
   -3.5207    0.4699   -4.3489 H   0  0  0  0  0  0  0  0  0  0  0  0
   -2.7715    0.8869   -2.3916 C   0  0  0  0  0  0  0  0  0  0  0  0
   -3.6500    1.0418   -1.7779 H   0  0  0  0  0  0  0  0  0  0  0  0
   -0.0283    0.1609    1.5831 C   0  0  0  0  0  0  0  0  0  0  0  0
    0.9616    0.8862    1.6801 O   0  0  0  0  0  0  0  0  0  0  0  0
   -0.6086   -0.4031    2.6471 N   0  0  0  0  0  0  0  0  0  0  0  0
   -1.3517   -1.0688    2.4664 H   0  0  0  0  0  0  0  0  0  0  0  0
   -0.1608   -0.2359    4.0277 C   0  0  0  0  0  0  0  0  0  0  0  0
    0.2165    0.7786    4.1797 H   0  0  0  0  0  0  0  0  0  0  0  0
   -0.9921   -0.4137    4.7113 H   0  0  0  0  0  0  0  0  0  0  0  0
    0.6406   -0.9453    4.2403 H   0  0  0  0  0  0  0  0  0  0  0  0
  5  6  2  0  0  0  0
  5  7  1  0  0  0  0
  2  3  1  0  0  0  0
  2  4  1  0  0  0  0
  2  5  1  0  0  0  0
  1  2  1  0  0  0  0
 22 23  2  0  0  0  0
 22 24  1  0  0  0  0
 20 21  1  0  0  0  0
 18 19  1  0  0  0  0
 18 20  1  0  0  0  0
 16 17  1  0  0  0  0
 16 18  1  0  0  0  0
 15 16  2  0  0  0  0
 14 15  1  0  0  0  0
 14 20  2  0  0  0  0
 11 12  1  0  0  0  0
 11 13  1  0  0  0  0
 11 14  1  0  0  0  0
  9 10  1  0  0  0  0
  9 11  1  0  0  0  0
  9 22  1  0  0  0  0
  7  8  1  0  0  0  0
  7  9  1  0  0  0  0
 26 27  1  0  0  0  0
 26 28  1  0  0  0  0
 26 29  1  0  0  0  0
 24 25  1  0  0  0  0
 24 26  1  0  0  0  0
M  END
$$$$
default_name
  -OEChem-01062215323D

 29 29  0     1  0  0  0  0  0999 V2000
   -2.9561   -3.9186    1.3887 H   0  0  0  0  0  0  0  0  0  0  0  0
   -3.1191   -2.9346    0.9517 C   0  0  0  0  0  0  0  0  0  0  0  0
   -3.7811   -2.3546    1.5917 H   0  0  0  0  0  0  0  0  0  0  0  0
   -3.5591   -3.0406   -0.0383 H   0  0  0  0  0  0  0  0  0  0  0  0
   -1.7921   -2.2226    0.8327 C   0  0  0  0  0  0  0  0  0  0  0  0
   -0.7611   -2.7766    1.1927 O   0  0  0  0  0  0  0  0  0  0  0  0
   -1.8201   -0.9926    0.3247 N   0  0  0  0  0  0  0  0  0  0  0  0
   -2.7141   -0.5816    0.0927 H   0  0  0  0  0  0  0  0  0  0  0  0
   -0.6481   -0.1156    0.2017 C   0  0  1  0  0  0  0  0  0  0  0  0
    0.1042   -0.6345   -0.3958 H   0  0  0  0  0  0  0  0  0  0  0  0
   -1.0420    1.1781   -0.5372 C   0  0  0  0  0  0  0  0  0  0  0  0
   -1.8749    1.6587   -0.0219 H   0  0  0  0  0  0  0  0  0  0  0  0
   -0.2044    1.8769   -0.5299 H   0  0  0  0  0  0  0  0  0  0  0  0
   -1.4777    0.9311   -1.9610 C   0  0  0  0  0  0  0  0  0  0  0  0
   -0.6362    0.6321   -3.0333 N   0  0  0  0  0  0  0  0  0  0  0  0
   -1.4386    0.4440   -4.0912 C   0  0  0  0  0  0  0  0  0  0  0  0
   -1.0914    0.2063   -5.0888 H   0  0  0  0  0  0  0  0  0  0  0  0
   -2.7264    0.5831   -3.7341 N   0  0  0  0  0  0  0  0  0  0  0  0
   -3.5207    0.4699   -4.3489 H   0  0  0  0  0  0  0  0  0  0  0  0
   -2.7715    0.8869   -2.3916 C   0  0  0  0  0  0  0  0  0  0  0  0
   -3.6500    1.0418   -1.7779 H   0  0  0  0  0  0  0  0  0  0  0  0
   -0.0283    0.1609    1.5831 C   0  0  0  0  0  0  0  0  0  0  0  0
    0.7724    1.0851    1.7252 O   0  0  0  0  0  0  0  0  0  0  0  0
   -0.3998   -0.6258    2.5979 N   0  0  0  0  0  0  0  0  0  0  0  0
   -0.9793   -1.4261    2.3708 H   0  0  0  0  0  0  0  0  0  0  0  0
    0.0779   -0.4953    3.9725 C   0  0  0  0  0  0  0  0  0  0  0  0
    0.2203    0.5593    4.2219 H   0  0  0  0  0  0  0  0  0  0  0  0
   -0.6486   -0.9299    4.6605 H   0  0  0  0  0  0  0  0  0  0  0  0
    1.0320   -1.0142    4.0784 H   0  0  0  0  0  0  0  0  0  0  0  0
  5  6  2  0  0  0  0
  5  7  1  0  0  0  0
  2  3  1  0  0  0  0
  2  4  1  0  0  0  0
  2  5  1  0  0  0  0
  1  2  1  0  0  0  0
 22 23  2  0  0  0  0
 22 24  1  0  0  0  0
 20 21  1  0  0  0  0
 18 19  1  0  0  0  0
 18 20  1  0  0  0  0
 16 17  1  0  0  0  0
 16 18  1  0  0  0  0
 15 16  2  0  0  0  0
 14 15  1  0  0  0  0
 14 20  2  0  0  0  0
 11 12  1  0  0  0  0
 11 13  1  0  0  0  0
 11 14  1  0  0  0  0
  9 10  1  0  0  0  0
  9 11  1  0  0  0  0
  9 22  1  0  0  0  0
  7  8  1  0  0  0  0
  7  9  1  0  0  0  0
 26 27  1  0  0  0  0
 26 28  1  0  0  0  0
 26 29  1  0  0  0  0
 24 25  1  0  0  0  0
 24 26  1  0  0  0  0
M  END
$$$$
default_name
  -OEChem-01062215323D

 29 29  0     1  0  0  0  0  0999 V2000
   -2.9561   -3.9186    1.3887 H   0  0  0  0  0  0  0  0  0  0  0  0
   -3.1191   -2.9346    0.9517 C   0  0  0  0  0  0  0  0  0  0  0  0
   -3.7811   -2.3546    1.5917 H   0  0  0  0  0  0  0  0  0  0  0  0
   -3.5591   -3.0406   -0.0383 H   0  0  0  0  0  0  0  0  0  0  0  0
   -1.7921   -2.2226    0.8327 C   0  0  0  0  0  0  0  0  0  0  0  0
   -0.7611   -2.7766    1.1927 O   0  0  0  0  0  0  0  0  0  0  0  0
   -1.8201   -0.9926    0.3247 N   0  0  0  0  0  0  0  0  0  0  0  0
   -2.7141   -0.5816    0.0927 H   0  0  0  0  0  0  0  0  0  0  0  0
   -0.6481   -0.1156    0.2017 C   0  0  1  0  0  0  0  0  0  0  0  0
    0.1042   -0.6345   -0.3958 H   0  0  0  0  0  0  0  0  0  0  0  0
   -1.0420    1.1781   -0.5372 C   0  0  0  0  0  0  0  0  0  0  0  0
   -1.8749    1.6587   -0.0219 H   0  0  0  0  0  0  0  0  0  0  0  0
   -0.2044    1.8769   -0.5299 H   0  0  0  0  0  0  0  0  0  0  0  0
   -1.4777    0.9311   -1.9610 C   0  0  0  0  0  0  0  0  0  0  0  0
   -0.6362    0.6321   -3.0333 N   0  0  0  0  0  0  0  0  0  0  0  0
   -1.4386    0.4440   -4.0912 C   0  0  0  0  0  0  0  0  0  0  0  0
   -1.0914    0.2063   -5.0888 H   0  0  0  0  0  0  0  0  0  0  0  0
   -2.7264    0.5831   -3.7341 N   0  0  0  0  0  0  0  0  0  0  0  0
   -3.5207    0.4699   -4.3489 H   0  0  0  0  0  0  0  0  0  0  0  0
   -2.7715    0.8869   -2.3916 C   0  0  0  0  0  0  0  0  0  0  0  0
   -3.6500    1.0418   -1.7779 H   0  0  0  0  0  0  0  0  0  0  0  0
   -0.0283    0.1609    1.5831 C   0  0  0  0  0  0  0  0  0  0  0  0
    0.5455    1.2286    1.7983 O   0  0  0  0  0  0  0  0  0  0  0  0
   -0.1487   -0.7873    2.5176 N   0  0  0  0  0  0  0  0  0  0  0  0
   -0.5411   -1.6748    2.2240 H   0  0  0  0  0  0  0  0  0  0  0  0
    0.3663   -0.6846    3.8810 C   0  0  0  0  0  0  0  0  0  0  0  0
    0.2768    0.3440    4.2397 H   0  0  0  0  0  0  0  0  0  0  0  0
   -0.1992   -1.3434    4.5416 H   0  0  0  0  0  0  0  0  0  0  0  0
    1.4186   -0.9729    3.8967 H   0  0  0  0  0  0  0  0  0  0  0  0
  5  6  2  0  0  0  0
  5  7  1  0  0  0  0
  2  3  1  0  0  0  0
  2  4  1  0  0  0  0
  2  5  1  0  0  0  0
  1  2  1  0  0  0  0
 22 23  2  0  0  0  0
 22 24  1  0  0  0  0
 20 21  1  0  0  0  0
 18 19  1  0  0  0  0
 18 20  1  0  0  0  0
 16 17  1  0  0  0  0
 16 18  1  0  0  0  0
 15 16  2  0  0  0  0
 14 15  1  0  0  0  0
 14 20  2  0  0  0  0
 11 12  1  0  0  0  0
 11 13  1  0  0  0  0
 11 14  1  0  0  0  0
  9 10  1  0  0  0  0
  9 11  1  0  0  0  0
  9 22  1  0  0  0  0
  7  8  1  0  0  0  0
  7  9  1  0  0  0  0
 26 27  1  0  0  0  0
 26 28  1  0  0  0  0
 26 29  1  0  0  0  0
 24 25  1  0  0  0  0
 24 26  1  0  0  0  0
M  END
$$$$
default_name
  -OEChem-01062215323D

 29 29  0     1  0  0  0  0  0999 V2000
   -2.9561   -3.9186    1.3887 H   0  0  0  0  0  0  0  0  0  0  0  0
   -3.1191   -2.9346    0.9517 C   0  0  0  0  0  0  0  0  0  0  0  0
   -3.7811   -2.3546    1.5917 H   0  0  0  0  0  0  0  0  0  0  0  0
   -3.5591   -3.0406   -0.0383 H   0  0  0  0  0  0  0  0  0  0  0  0
   -1.7921   -2.2226    0.8327 C   0  0  0  0  0  0  0  0  0  0  0  0
   -0.7611   -2.7766    1.1927 O   0  0  0  0  0  0  0  0  0  0  0  0
   -1.8201   -0.9926    0.3247 N   0  0  0  0  0  0  0  0  0  0  0  0
   -2.7141   -0.5816    0.0927 H   0  0  0  0  0  0  0  0  0  0  0  0
   -0.6481   -0.1156    0.2017 C   0  0  1  0  0  0  0  0  0  0  0  0
    0.1042   -0.6345   -0.3958 H   0  0  0  0  0  0  0  0  0  0  0  0
   -1.0420    1.1781   -0.5372 C   0  0  0  0  0  0  0  0  0  0  0  0
   -1.8749    1.6587   -0.0219 H   0  0  0  0  0  0  0  0  0  0  0  0
   -0.2044    1.8769   -0.5299 H   0  0  0  0  0  0  0  0  0  0  0  0
   -1.4777    0.9311   -1.9610 C   0  0  0  0  0  0  0  0  0  0  0  0
   -0.6362    0.6321   -3.0333 N   0  0  0  0  0  0  0  0  0  0  0  0
   -1.4386    0.4440   -4.0912 C   0  0  0  0  0  0  0  0  0  0  0  0
   -1.0914    0.2063   -5.0888 H   0  0  0  0  0  0  0  0  0  0  0  0
   -2.7264    0.5831   -3.7341 N   0  0  0  0  0  0  0  0  0  0  0  0
   -3.5207    0.4699   -4.3489 H   0  0  0  0  0  0  0  0  0  0  0  0
   -2.7715    0.8869   -2.3916 C   0  0  0  0  0  0  0  0  0  0  0  0
   -3.6500    1.0418   -1.7779 H   0  0  0  0  0  0  0  0  0  0  0  0
   -0.0283    0.1609    1.5831 C   0  0  0  0  0  0  0  0  0  0  0  0
    0.2963    1.3068    1.8944 O   0  0  0  0  0  0  0  0  0  0  0  0
    0.1277   -0.8765    2.4115 N   0  0  0  0  0  0  0  0  0  0  0  0
   -0.0668   -1.7980    2.0358 H   0  0  0  0  0  0  0  0  0  0  0  0
    0.6845   -0.7910    3.7595 C   0  0  0  0  0  0  0  0  0  0  0  0
    0.3823    0.1473    4.2317 H   0  0  0  0  0  0  0  0  0  0  0  0
    0.3255   -1.6260    4.3628 H   0  0  0  0  0  0  0  0  0  0  0  0
    1.7740   -0.8242    3.7075 H   0  0  0  0  0  0  0  0  0  0  0  0
  5  6  2  0  0  0  0
  5  7  1  0  0  0  0
  2  3  1  0  0  0  0
  2  4  1  0  0  0  0
  2  5  1  0  0  0  0
  1  2  1  0  0  0  0
 22 23  2  0  0  0  0
 22 24  1  0  0  0  0
 20 21  1  0  0  0  0
 18 19  1  0  0  0  0
 18 20  1  0  0  0  0
 16 17  1  0  0  0  0
 16 18  1  0  0  0  0
 15 16  2  0  0  0  0
 14 15  1  0  0  0  0
 14 20  2  0  0  0  0
 11 12  1  0  0  0  0
 11 13  1  0  0  0  0
 11 14  1  0  0  0  0
  9 10  1  0  0  0  0
  9 11  1  0  0  0  0
  9 22  1  0  0  0  0
  7  8  1  0  0  0  0
  7  9  1  0  0  0  0
 26 27  1  0  0  0  0
 26 28  1  0  0  0  0
 26 29  1  0  0  0  0
 24 25  1  0  0  0  0
 24 26  1  0  0  0  0
M  END
$$$$
default_name
  -OEChem-01062215323D

 29 29  0     1  0  0  0  0  0999 V2000
   -2.9561   -3.9186    1.3887 H   0  0  0  0  0  0  0  0  0  0  0  0
   -3.1191   -2.9346    0.9517 C   0  0  0  0  0  0  0  0  0  0  0  0
   -3.7811   -2.3546    1.5917 H   0  0  0  0  0  0  0  0  0  0  0  0
   -3.5591   -3.0406   -0.0383 H   0  0  0  0  0  0  0  0  0  0  0  0
   -1.7921   -2.2226    0.8327 C   0  0  0  0  0  0  0  0  0  0  0  0
   -0.7611   -2.7766    1.1927 O   0  0  0  0  0  0  0  0  0  0  0  0
   -1.8201   -0.9926    0.3247 N   0  0  0  0  0  0  0  0  0  0  0  0
   -2.7141   -0.5816    0.0927 H   0  0  0  0  0  0  0  0  0  0  0  0
   -0.6481   -0.1156    0.2017 C   0  0  1  0  0  0  0  0  0  0  0  0
    0.1042   -0.6345   -0.3958 H   0  0  0  0  0  0  0  0  0  0  0  0
   -1.0420    1.1781   -0.5372 C   0  0  0  0  0  0  0  0  0  0  0  0
   -1.8749    1.6587   -0.0219 H   0  0  0  0  0  0  0  0  0  0  0  0
   -0.2044    1.8769   -0.5299 H   0  0  0  0  0  0  0  0  0  0  0  0
   -1.4777    0.9311   -1.9610 C   0  0  0  0  0  0  0  0  0  0  0  0
   -0.6362    0.6321   -3.0333 N   0  0  0  0  0  0  0  0  0  0  0  0
   -1.4386    0.4440   -4.0912 C   0  0  0  0  0  0  0  0  0  0  0  0
   -1.0914    0.2063   -5.0888 H   0  0  0  0  0  0  0  0  0  0  0  0
   -2.7264    0.5831   -3.7341 N   0  0  0  0  0  0  0  0  0  0  0  0
   -3.5207    0.4699   -4.3489 H   0  0  0  0  0  0  0  0  0  0  0  0
   -2.7715    0.8869   -2.3916 C   0  0  0  0  0  0  0  0  0  0  0  0
   -3.6500    1.0418   -1.7779 H   0  0  0  0  0  0  0  0  0  0  0  0
   -0.0283    0.1609    1.5831 C   0  0  0  0  0  0  0  0  0  0  0  0
    0.0420    1.3145    2.0070 O   0  0  0  0  0  0  0  0  0  0  0  0
    0.4104   -0.8875    2.2868 N   0  0  0  0  0  0  0  0  0  0  0  0
    0.4111   -1.7871    1.8192 H   0  0  0  0  0  0  0  0  0  0  0  0
    1.0109   -0.8071    3.6163 C   0  0  0  0  0  0  0  0  0  0  0  0
    0.5294   -0.0173    4.1987 H   0  0  0  0  0  0  0  0  0  0  0  0
    0.8895   -1.7585    4.1362 H   0  0  0  0  0  0  0  0  0  0  0  0
    2.0739   -0.5784    3.5237 H   0  0  0  0  0  0  0  0  0  0  0  0
  5  6  2  0  0  0  0
  5  7  1  0  0  0  0
  2  3  1  0  0  0  0
  2  4  1  0  0  0  0
  2  5  1  0  0  0  0
  1  2  1  0  0  0  0
 22 23  2  0  0  0  0
 22 24  1  0  0  0  0
 20 21  1  0  0  0  0
 18 19  1  0  0  0  0
 18 20  1  0  0  0  0
 16 17  1  0  0  0  0
 16 18  1  0  0  0  0
 15 16  2  0  0  0  0
 14 15  1  0  0  0  0
 14 20  2  0  0  0  0
 11 12  1  0  0  0  0
 11 13  1  0  0  0  0
 11 14  1  0  0  0  0
  9 10  1  0  0  0  0
  9 11  1  0  0  0  0
  9 22  1  0  0  0  0
  7  8  1  0  0  0  0
  7  9  1  0  0  0  0
 26 27  1  0  0  0  0
 26 28  1  0  0  0  0
 26 29  1  0  0  0  0
 24 25  1  0  0  0  0
 24 26  1  0  0  0  0
M  END
$$$$
default_name
  -OEChem-01062215323D

 29 29  0     1  0  0  0  0  0999 V2000
   -2.9561   -3.9186    1.3887 H   0  0  0  0  0  0  0  0  0  0  0  0
   -3.1191   -2.9346    0.9517 C   0  0  0  0  0  0  0  0  0  0  0  0
   -3.7811   -2.3546    1.5917 H   0  0  0  0  0  0  0  0  0  0  0  0
   -3.5591   -3.0406   -0.0383 H   0  0  0  0  0  0  0  0  0  0  0  0
   -1.7921   -2.2226    0.8327 C   0  0  0  0  0  0  0  0  0  0  0  0
   -0.7611   -2.7766    1.1927 O   0  0  0  0  0  0  0  0  0  0  0  0
   -1.8201   -0.9926    0.3247 N   0  0  0  0  0  0  0  0  0  0  0  0
   -2.7141   -0.5816    0.0927 H   0  0  0  0  0  0  0  0  0  0  0  0
   -0.6481   -0.1156    0.2017 C   0  0  1  0  0  0  0  0  0  0  0  0
    0.1042   -0.6345   -0.3958 H   0  0  0  0  0  0  0  0  0  0  0  0
   -1.0420    1.1781   -0.5372 C   0  0  0  0  0  0  0  0  0  0  0  0
   -1.8749    1.6587   -0.0219 H   0  0  0  0  0  0  0  0  0  0  0  0
   -0.2044    1.8769   -0.5299 H   0  0  0  0  0  0  0  0  0  0  0  0
   -1.4777    0.9311   -1.9610 C   0  0  0  0  0  0  0  0  0  0  0  0
   -0.6362    0.6321   -3.0333 N   0  0  0  0  0  0  0  0  0  0  0  0
   -1.4386    0.4440   -4.0912 C   0  0  0  0  0  0  0  0  0  0  0  0
   -1.0914    0.2063   -5.0888 H   0  0  0  0  0  0  0  0  0  0  0  0
   -2.7264    0.5831   -3.7341 N   0  0  0  0  0  0  0  0  0  0  0  0
   -3.5207    0.4699   -4.3489 H   0  0  0  0  0  0  0  0  0  0  0  0
   -2.7715    0.8869   -2.3916 C   0  0  0  0  0  0  0  0  0  0  0  0
   -3.6500    1.0418   -1.7779 H   0  0  0  0  0  0  0  0  0  0  0  0
   -0.0283    0.1609    1.5831 C   0  0  0  0  0  0  0  0  0  0  0  0
   -0.2002    1.2511    2.1284 O   0  0  0  0  0  0  0  0  0  0  0  0
    0.6802   -0.8194    2.1521 N   0  0  0  0  0  0  0  0  0  0  0  0
    0.8602   -1.6430    1.5889 H   0  0  0  0  0  0  0  0  0  0  0  0
    1.3233   -0.7320    3.4611 C   0  0  0  0  0  0  0  0  0  0  0  0
    0.7083   -0.1388    4.1427 H   0  0  0  0  0  0  0  0  0  0  0  0
    1.4546   -1.7318    3.8773 H   0  0  0  0  0  0  0  0  0  0  0  0
    2.2979   -0.2521    3.3579 H   0  0  0  0  0  0  0  0  0  0  0  0
  5  6  2  0  0  0  0
  5  7  1  0  0  0  0
  2  3  1  0  0  0  0
  2  4  1  0  0  0  0
  2  5  1  0  0  0  0
  1  2  1  0  0  0  0
 22 23  2  0  0  0  0
 22 24  1  0  0  0  0
 20 21  1  0  0  0  0
 18 19  1  0  0  0  0
 18 20  1  0  0  0  0
 16 17  1  0  0  0  0
 16 18  1  0  0  0  0
 15 16  2  0  0  0  0
 14 15  1  0  0  0  0
 14 20  2  0  0  0  0
 11 12  1  0  0  0  0
 11 13  1  0  0  0  0
 11 14  1  0  0  0  0
  9 10  1  0  0  0  0
  9 11  1  0  0  0  0
  9 22  1  0  0  0  0
  7  8  1  0  0  0  0
  7  9  1  0  0  0  0
 26 27  1  0  0  0  0
 26 28  1  0  0  0  0
 26 29  1  0  0  0  0
 24 25  1  0  0  0  0
 24 26  1  0  0  0  0
M  END
$$$$
default_name
  -OEChem-01062215323D

 29 29  0     1  0  0  0  0  0999 V2000
   -2.9561   -3.9186    1.3887 H   0  0  0  0  0  0  0  0  0  0  0  0
   -3.1191   -2.9346    0.9517 C   0  0  0  0  0  0  0  0  0  0  0  0
   -3.7811   -2.3546    1.5917 H   0  0  0  0  0  0  0  0  0  0  0  0
   -3.5591   -3.0406   -0.0383 H   0  0  0  0  0  0  0  0  0  0  0  0
   -1.7921   -2.2226    0.8327 C   0  0  0  0  0  0  0  0  0  0  0  0
   -0.7611   -2.7766    1.1927 O   0  0  0  0  0  0  0  0  0  0  0  0
   -1.8201   -0.9926    0.3247 N   0  0  0  0  0  0  0  0  0  0  0  0
   -2.7141   -0.5816    0.0927 H   0  0  0  0  0  0  0  0  0  0  0  0
   -0.6481   -0.1156    0.2017 C   0  0  1  0  0  0  0  0  0  0  0  0
    0.1042   -0.6345   -0.3958 H   0  0  0  0  0  0  0  0  0  0  0  0
   -1.0420    1.1781   -0.5372 C   0  0  0  0  0  0  0  0  0  0  0  0
   -1.8749    1.6587   -0.0219 H   0  0  0  0  0  0  0  0  0  0  0  0
   -0.2044    1.8769   -0.5299 H   0  0  0  0  0  0  0  0  0  0  0  0
   -1.4777    0.9311   -1.9610 C   0  0  0  0  0  0  0  0  0  0  0  0
   -0.6362    0.6321   -3.0333 N   0  0  0  0  0  0  0  0  0  0  0  0
   -1.4386    0.4440   -4.0912 C   0  0  0  0  0  0  0  0  0  0  0  0
   -1.0914    0.2063   -5.0888 H   0  0  0  0  0  0  0  0  0  0  0  0
   -2.7264    0.5831   -3.7341 N   0  0  0  0  0  0  0  0  0  0  0  0
   -3.5207    0.4699   -4.3489 H   0  0  0  0  0  0  0  0  0  0  0  0
   -2.7715    0.8869   -2.3916 C   0  0  0  0  0  0  0  0  0  0  0  0
   -3.6500    1.0418   -1.7779 H   0  0  0  0  0  0  0  0  0  0  0  0
   -0.0283    0.1609    1.5831 C   0  0  0  0  0  0  0  0  0  0  0  0
   -0.4138    1.1210    2.2502 O   0  0  0  0  0  0  0  0  0  0  0  0
    0.9187   -0.6769    2.0166 N   0  0  0  0  0  0  0  0  0  0  0  0
    1.2498   -1.3755    1.3605 H   0  0  0  0  0  0  0  0  0  0  0  0
    1.6004   -0.5707    3.3045 C   0  0  0  0  0  0  0  0  0  0  0  0
    0.9067   -0.2087    4.0677 H   0  0  0  0  0  0  0  0  0  0  0  0
    1.9822   -1.5478    3.6037 H   0  0  0  0  0  0  0  0  0  0  0  0
    2.4308    0.1324    3.2213 H   0  0  0  0  0  0  0  0  0  0  0  0
  5  6  2  0  0  0  0
  5  7  1  0  0  0  0
  2  3  1  0  0  0  0
  2  4  1  0  0  0  0
  2  5  1  0  0  0  0
  1  2  1  0  0  0  0
 22 23  2  0  0  0  0
 22 24  1  0  0  0  0
 20 21  1  0  0  0  0
 18 19  1  0  0  0  0
 18 20  1  0  0  0  0
 16 17  1  0  0  0  0
 16 18  1  0  0  0  0
 15 16  2  0  0  0  0
 14 15  1  0  0  0  0
 14 20  2  0  0  0  0
 11 12  1  0  0  0  0
 11 13  1  0  0  0  0
 11 14  1  0  0  0  0
  9 10  1  0  0  0  0
  9 11  1  0  0  0  0
  9 22  1  0  0  0  0
  7  8  1  0  0  0  0
  7  9  1  0  0  0  0
 26 27  1  0  0  0  0
 26 28  1  0  0  0  0
 26 29  1  0  0  0  0
 24 25  1  0  0  0  0
 24 26  1  0  0  0  0
M  END
$$$$
default_name
  -OEChem-01062215323D

 29 29  0     1  0  0  0  0  0999 V2000
   -2.9561   -3.9186    1.3887 H   0  0  0  0  0  0  0  0  0  0  0  0
   -3.1191   -2.9346    0.9517 C   0  0  0  0  0  0  0  0  0  0  0  0
   -3.7811   -2.3546    1.5917 H   0  0  0  0  0  0  0  0  0  0  0  0
   -3.5591   -3.0406   -0.0383 H   0  0  0  0  0  0  0  0  0  0  0  0
   -1.7921   -2.2226    0.8327 C   0  0  0  0  0  0  0  0  0  0  0  0
   -0.7611   -2.7766    1.1927 O   0  0  0  0  0  0  0  0  0  0  0  0
   -1.8201   -0.9926    0.3247 N   0  0  0  0  0  0  0  0  0  0  0  0
   -2.7141   -0.5816    0.0927 H   0  0  0  0  0  0  0  0  0  0  0  0
   -0.6481   -0.1156    0.2017 C   0  0  1  0  0  0  0  0  0  0  0  0
    0.1042   -0.6345   -0.3958 H   0  0  0  0  0  0  0  0  0  0  0  0
   -1.0420    1.1781   -0.5372 C   0  0  0  0  0  0  0  0  0  0  0  0
   -1.8749    1.6587   -0.0219 H   0  0  0  0  0  0  0  0  0  0  0  0
   -0.2044    1.8769   -0.5299 H   0  0  0  0  0  0  0  0  0  0  0  0
   -1.4777    0.9311   -1.9610 C   0  0  0  0  0  0  0  0  0  0  0  0
   -0.6362    0.6321   -3.0333 N   0  0  0  0  0  0  0  0  0  0  0  0
   -1.4386    0.4440   -4.0912 C   0  0  0  0  0  0  0  0  0  0  0  0
   -1.0914    0.2063   -5.0888 H   0  0  0  0  0  0  0  0  0  0  0  0
   -2.7264    0.5831   -3.7341 N   0  0  0  0  0  0  0  0  0  0  0  0
   -3.5207    0.4699   -4.3489 H   0  0  0  0  0  0  0  0  0  0  0  0
   -2.7715    0.8869   -2.3916 C   0  0  0  0  0  0  0  0  0  0  0  0
   -3.6500    1.0418   -1.7779 H   0  0  0  0  0  0  0  0  0  0  0  0
   -0.0283    0.1609    1.5831 C   0  0  0  0  0  0  0  0  0  0  0  0
   -0.5842    0.9330    2.3643 O   0  0  0  0  0  0  0  0  0  0  0  0
    1.1098   -0.4698    1.8894 N   0  0  0  0  0  0  0  0  0  0  0  0
    1.5533   -1.0028    1.1497 H   0  0  0  0  0  0  0  0  0  0  0  0
    1.8233   -0.3341    3.1571 C   0  0  0  0  0  0  0  0  0  0  0  0
    1.1111   -0.2223    3.9787 H   0  0  0  0  0  0  0  0  0  0  0  0
    2.4364   -1.2189    3.3341 H   0  0  0  0  0  0  0  0  0  0  0  0
    2.4635    0.5489    3.1233 H   0  0  0  0  0  0  0  0  0  0  0  0
  5  6  2  0  0  0  0
  5  7  1  0  0  0  0
  2  3  1  0  0  0  0
  2  4  1  0  0  0  0
  2  5  1  0  0  0  0
  1  2  1  0  0  0  0
 22 23  2  0  0  0  0
 22 24  1  0  0  0  0
 20 21  1  0  0  0  0
 18 19  1  0  0  0  0
 18 20  1  0  0  0  0
 16 17  1  0  0  0  0
 16 18  1  0  0  0  0
 15 16  2  0  0  0  0
 14 15  1  0  0  0  0
 14 20  2  0  0  0  0
 11 12  1  0  0  0  0
 11 13  1  0  0  0  0
 11 14  1  0  0  0  0
  9 10  1  0  0  0  0
  9 11  1  0  0  0  0
  9 22  1  0  0  0  0
  7  8  1  0  0  0  0
  7  9  1  0  0  0  0
 26 27  1  0  0  0  0
 26 28  1  0  0  0  0
 26 29  1  0  0  0  0
 24 25  1  0  0  0  0
 24 26  1  0  0  0  0
M  END
$$$$
default_name
  -OEChem-01062215323D

 29 29  0     1  0  0  0  0  0999 V2000
   -2.9561   -3.9186    1.3887 H   0  0  0  0  0  0  0  0  0  0  0  0
   -3.1191   -2.9346    0.9517 C   0  0  0  0  0  0  0  0  0  0  0  0
   -3.7811   -2.3546    1.5917 H   0  0  0  0  0  0  0  0  0  0  0  0
   -3.5591   -3.0406   -0.0383 H   0  0  0  0  0  0  0  0  0  0  0  0
   -1.7921   -2.2226    0.8327 C   0  0  0  0  0  0  0  0  0  0  0  0
   -0.7611   -2.7766    1.1927 O   0  0  0  0  0  0  0  0  0  0  0  0
   -1.8201   -0.9926    0.3247 N   0  0  0  0  0  0  0  0  0  0  0  0
   -2.7141   -0.5816    0.0927 H   0  0  0  0  0  0  0  0  0  0  0  0
   -0.6481   -0.1156    0.2017 C   0  0  1  0  0  0  0  0  0  0  0  0
    0.1042   -0.6345   -0.3958 H   0  0  0  0  0  0  0  0  0  0  0  0
   -1.0420    1.1781   -0.5372 C   0  0  0  0  0  0  0  0  0  0  0  0
   -1.8749    1.6587   -0.0219 H   0  0  0  0  0  0  0  0  0  0  0  0
   -0.2044    1.8769   -0.5299 H   0  0  0  0  0  0  0  0  0  0  0  0
   -1.4777    0.9311   -1.9610 C   0  0  0  0  0  0  0  0  0  0  0  0
   -0.6362    0.6321   -3.0333 N   0  0  0  0  0  0  0  0  0  0  0  0
   -1.4386    0.4440   -4.0912 C   0  0  0  0  0  0  0  0  0  0  0  0
   -1.0914    0.2063   -5.0888 H   0  0  0  0  0  0  0  0  0  0  0  0
   -2.7264    0.5831   -3.7341 N   0  0  0  0  0  0  0  0  0  0  0  0
   -3.5207    0.4699   -4.3489 H   0  0  0  0  0  0  0  0  0  0  0  0
   -2.7715    0.8869   -2.3916 C   0  0  0  0  0  0  0  0  0  0  0  0
   -3.6500    1.0418   -1.7779 H   0  0  0  0  0  0  0  0  0  0  0  0
   -0.0283    0.1609    1.5831 C   0  0  0  0  0  0  0  0  0  0  0  0
   -0.6998    0.6999    2.4629 O   0  0  0  0  0  0  0  0  0  0  0  0
    1.2403   -0.2120    1.7793 N   0  0  0  0  0  0  0  0  0  0  0  0
    1.7501   -0.5504    0.9709 H   0  0  0  0  0  0  0  0  0  0  0  0
    1.9768   -0.0385    3.0291 C   0  0  0  0  0  0  0  0  0  0  0  0
    1.3075   -0.1787    3.8818 H   0  0  0  0  0  0  0  0  0  0  0  0
    2.7861   -0.7677    3.0869 H   0  0  0  0  0  0  0  0  0  0  0  0
    2.3938    0.9690    3.0704 H   0  0  0  0  0  0  0  0  0  0  0  0
  5  6  2  0  0  0  0
  5  7  1  0  0  0  0
  2  3  1  0  0  0  0
  2  4  1  0  0  0  0
  2  5  1  0  0  0  0
  1  2  1  0  0  0  0
 22 23  2  0  0  0  0
 22 24  1  0  0  0  0
 20 21  1  0  0  0  0
 18 19  1  0  0  0  0
 18 20  1  0  0  0  0
 16 17  1  0  0  0  0
 16 18  1  0  0  0  0
 15 16  2  0  0  0  0
 14 15  1  0  0  0  0
 14 20  2  0  0  0  0
 11 12  1  0  0  0  0
 11 13  1  0  0  0  0
 11 14  1  0  0  0  0
  9 10  1  0  0  0  0
  9 11  1  0  0  0  0
  9 22  1  0  0  0  0
  7  8  1  0  0  0  0
  7  9  1  0  0  0  0
 26 27  1  0  0  0  0
 26 28  1  0  0  0  0
 26 29  1  0  0  0  0
 24 25  1  0  0  0  0
 24 26  1  0  0  0  0
M  END
$$$$
default_name
  -OEChem-01062215323D

 29 29  0     1  0  0  0  0  0999 V2000
   -2.9561   -3.9186    1.3887 H   0  0  0  0  0  0  0  0  0  0  0  0
   -3.1191   -2.9346    0.9517 C   0  0  0  0  0  0  0  0  0  0  0  0
   -3.7811   -2.3546    1.5917 H   0  0  0  0  0  0  0  0  0  0  0  0
   -3.5591   -3.0406   -0.0383 H   0  0  0  0  0  0  0  0  0  0  0  0
   -1.7921   -2.2226    0.8327 C   0  0  0  0  0  0  0  0  0  0  0  0
   -0.7611   -2.7766    1.1927 O   0  0  0  0  0  0  0  0  0  0  0  0
   -1.8201   -0.9926    0.3247 N   0  0  0  0  0  0  0  0  0  0  0  0
   -2.7141   -0.5816    0.0927 H   0  0  0  0  0  0  0  0  0  0  0  0
   -0.6481   -0.1156    0.2017 C   0  0  1  0  0  0  0  0  0  0  0  0
    0.1042   -0.6345   -0.3958 H   0  0  0  0  0  0  0  0  0  0  0  0
   -1.0420    1.1781   -0.5372 C   0  0  0  0  0  0  0  0  0  0  0  0
   -1.8749    1.6587   -0.0219 H   0  0  0  0  0  0  0  0  0  0  0  0
   -0.2044    1.8769   -0.5299 H   0  0  0  0  0  0  0  0  0  0  0  0
   -1.4777    0.9311   -1.9610 C   0  0  0  0  0  0  0  0  0  0  0  0
   -0.6362    0.6321   -3.0333 N   0  0  0  0  0  0  0  0  0  0  0  0
   -1.4386    0.4440   -4.0912 C   0  0  0  0  0  0  0  0  0  0  0  0
   -1.0914    0.2063   -5.0888 H   0  0  0  0  0  0  0  0  0  0  0  0
   -2.7264    0.5831   -3.7341 N   0  0  0  0  0  0  0  0  0  0  0  0
   -3.5207    0.4699   -4.3489 H   0  0  0  0  0  0  0  0  0  0  0  0
   -2.7715    0.8869   -2.3916 C   0  0  0  0  0  0  0  0  0  0  0  0
   -3.6500    1.0418   -1.7779 H   0  0  0  0  0  0  0  0  0  0  0  0
   -0.0283    0.1609    1.5831 C   0  0  0  0  0  0  0  0  0  0  0  0
   -0.7528    0.4376    2.5391 O   0  0  0  0  0  0  0  0  0  0  0  0
    1.3013    0.0787    1.6937 N   0  0  0  0  0  0  0  0  0  0  0  0
    1.8268   -0.0489    0.8361 H   0  0  0  0  0  0  0  0  0  0  0  0
    2.0504    0.2960    2.9291 C   0  0  0  0  0  0  0  0  0  0  0  0
    1.4826   -0.0809    3.7837 H   0  0  0  0  0  0  0  0  0  0  0  0
    3.0077   -0.2248    2.8788 H   0  0  0  0  0  0  0  0  0  0  0  0
    2.2264    1.3641    3.0665 H   0  0  0  0  0  0  0  0  0  0  0  0
  5  6  2  0  0  0  0
  5  7  1  0  0  0  0
  2  3  1  0  0  0  0
  2  4  1  0  0  0  0
  2  5  1  0  0  0  0
  1  2  1  0  0  0  0
 22 23  2  0  0  0  0
 22 24  1  0  0  0  0
 20 21  1  0  0  0  0
 18 19  1  0  0  0  0
 18 20  1  0  0  0  0
 16 17  1  0  0  0  0
 16 18  1  0  0  0  0
 15 16  2  0  0  0  0
 14 15  1  0  0  0  0
 14 20  2  0  0  0  0
 11 12  1  0  0  0  0
 11 13  1  0  0  0  0
 11 14  1  0  0  0  0
  9 10  1  0  0  0  0
  9 11  1  0  0  0  0
  9 22  1  0  0  0  0
  7  8  1  0  0  0  0
  7  9  1  0  0  0  0
 26 27  1  0  0  0  0
 26 28  1  0  0  0  0
 26 29  1  0  0  0  0
 24 25  1  0  0  0  0
 24 26  1  0  0  0  0
M  END
$$$$
default_name
  -OEChem-01062215323D

 29 29  0     1  0  0  0  0  0999 V2000
   -2.9561   -3.9186    1.3887 H   0  0  0  0  0  0  0  0  0  0  0  0
   -3.1191   -2.9346    0.9517 C   0  0  0  0  0  0  0  0  0  0  0  0
   -3.7811   -2.3546    1.5917 H   0  0  0  0  0  0  0  0  0  0  0  0
   -3.5591   -3.0406   -0.0383 H   0  0  0  0  0  0  0  0  0  0  0  0
   -1.7921   -2.2226    0.8327 C   0  0  0  0  0  0  0  0  0  0  0  0
   -0.7611   -2.7766    1.1927 O   0  0  0  0  0  0  0  0  0  0  0  0
   -1.8201   -0.9926    0.3247 N   0  0  0  0  0  0  0  0  0  0  0  0
   -2.7141   -0.5816    0.0927 H   0  0  0  0  0  0  0  0  0  0  0  0
   -0.6481   -0.1156    0.2017 C   0  0  1  0  0  0  0  0  0  0  0  0
    0.1042   -0.6345   -0.3958 H   0  0  0  0  0  0  0  0  0  0  0  0
   -1.0420    1.1781   -0.5372 C   0  0  0  0  0  0  0  0  0  0  0  0
   -1.8749    1.6587   -0.0219 H   0  0  0  0  0  0  0  0  0  0  0  0
   -0.2044    1.8769   -0.5299 H   0  0  0  0  0  0  0  0  0  0  0  0
   -1.4777    0.9311   -1.9610 C   0  0  0  0  0  0  0  0  0  0  0  0
   -0.6362    0.6321   -3.0333 N   0  0  0  0  0  0  0  0  0  0  0  0
   -1.4386    0.4440   -4.0912 C   0  0  0  0  0  0  0  0  0  0  0  0
   -1.0914    0.2063   -5.0888 H   0  0  0  0  0  0  0  0  0  0  0  0
   -2.7264    0.5831   -3.7341 N   0  0  0  0  0  0  0  0  0  0  0  0
   -3.5207    0.4699   -4.3489 H   0  0  0  0  0  0  0  0  0  0  0  0
   -2.7715    0.8869   -2.3916 C   0  0  0  0  0  0  0  0  0  0  0  0
   -3.6500    1.0418   -1.7779 H   0  0  0  0  0  0  0  0  0  0  0  0
   -0.0283    0.1609    1.5831 C   0  0  0  0  0  0  0  0  0  0  0  0
   -0.7395    0.1640    2.5879 O   0  0  0  0  0  0  0  0  0  0  0  0
    1.2887    0.3826    1.6385 N   0  0  0  0  0  0  0  0  0  0  0  0
    1.7782    0.4672    0.7546 H   0  0  0  0  0  0  0  0  0  0  0  0
    2.0392    0.6467    2.8639 C   0  0  0  0  0  0  0  0  0  0  0  0
    1.6245    0.0646    3.6909 H   0  0  0  0  0  0  0  0  0  0  0  0
    3.0859    0.3727    2.7241 H   0  0  0  0  0  0  0  0  0  0  0  0
    1.9727    1.7073    3.1116 H   0  0  0  0  0  0  0  0  0  0  0  0
  5  6  2  0  0  0  0
  5  7  1  0  0  0  0
  2  3  1  0  0  0  0
  2  4  1  0  0  0  0
  2  5  1  0  0  0  0
  1  2  1  0  0  0  0
 22 23  2  0  0  0  0
 22 24  1  0  0  0  0
 20 21  1  0  0  0  0
 18 19  1  0  0  0  0
 18 20  1  0  0  0  0
 16 17  1  0  0  0  0
 16 18  1  0  0  0  0
 15 16  2  0  0  0  0
 14 15  1  0  0  0  0
 14 20  2  0  0  0  0
 11 12  1  0  0  0  0
 11 13  1  0  0  0  0
 11 14  1  0  0  0  0
  9 10  1  0  0  0  0
  9 11  1  0  0  0  0
  9 22  1  0  0  0  0
  7  8  1  0  0  0  0
  7  9  1  0  0  0  0
 26 27  1  0  0  0  0
 26 28  1  0  0  0  0
 26 29  1  0  0  0  0
 24 25  1  0  0  0  0
 24 26  1  0  0  0  0
M  END
$$$$
default_name
  -OEChem-01062215323D

 29 29  0     1  0  0  0  0  0999 V2000
   -2.9561   -3.9186    1.3887 H   0  0  0  0  0  0  0  0  0  0  0  0
   -3.1191   -2.9346    0.9517 C   0  0  0  0  0  0  0  0  0  0  0  0
   -3.7811   -2.3546    1.5917 H   0  0  0  0  0  0  0  0  0  0  0  0
   -3.5591   -3.0406   -0.0383 H   0  0  0  0  0  0  0  0  0  0  0  0
   -1.7921   -2.2226    0.8327 C   0  0  0  0  0  0  0  0  0  0  0  0
   -0.7611   -2.7766    1.1927 O   0  0  0  0  0  0  0  0  0  0  0  0
   -1.8201   -0.9926    0.3247 N   0  0  0  0  0  0  0  0  0  0  0  0
   -2.7141   -0.5816    0.0927 H   0  0  0  0  0  0  0  0  0  0  0  0
   -0.6481   -0.1156    0.2017 C   0  0  1  0  0  0  0  0  0  0  0  0
    0.1042   -0.6345   -0.3958 H   0  0  0  0  0  0  0  0  0  0  0  0
   -1.0420    1.1781   -0.5372 C   0  0  0  0  0  0  0  0  0  0  0  0
   -1.8749    1.6587   -0.0219 H   0  0  0  0  0  0  0  0  0  0  0  0
   -0.2044    1.8769   -0.5299 H   0  0  0  0  0  0  0  0  0  0  0  0
   -1.4777    0.9311   -1.9610 C   0  0  0  0  0  0  0  0  0  0  0  0
   -0.6362    0.6321   -3.0333 N   0  0  0  0  0  0  0  0  0  0  0  0
   -1.4386    0.4440   -4.0912 C   0  0  0  0  0  0  0  0  0  0  0  0
   -1.0914    0.2063   -5.0888 H   0  0  0  0  0  0  0  0  0  0  0  0
   -2.7264    0.5831   -3.7341 N   0  0  0  0  0  0  0  0  0  0  0  0
   -3.5207    0.4699   -4.3489 H   0  0  0  0  0  0  0  0  0  0  0  0
   -2.7715    0.8869   -2.3916 C   0  0  0  0  0  0  0  0  0  0  0  0
   -3.6500    1.0418   -1.7779 H   0  0  0  0  0  0  0  0  0  0  0  0
   -0.0283    0.1609    1.5831 C   0  0  0  0  0  0  0  0  0  0  0  0
   -0.6608   -0.1022    2.6059 O   0  0  0  0  0  0  0  0  0  0  0  0
    1.2034    0.6790    1.6174 N   0  0  0  0  0  0  0  0  0  0  0  0
    1.6075    0.9630    0.7319 H   0  0  0  0  0  0  0  0  0  0  0  0
    1.9439    0.9896    2.8380 C   0  0  0  0  0  0  0  0  0  0  0  0
    1.7234    0.2476    3.6099 H   0  0  0  0  0  0  0  0  0  0  0  0
    3.0154    0.9842    2.6334 H   0  0  0  0  0  0  0  0  0  0  0  0
    1.6501    1.9752    3.2027 H   0  0  0  0  0  0  0  0  0  0  0  0
  5  6  2  0  0  0  0
  5  7  1  0  0  0  0
  2  3  1  0  0  0  0
  2  4  1  0  0  0  0
  2  5  1  0  0  0  0
  1  2  1  0  0  0  0
 22 23  2  0  0  0  0
 22 24  1  0  0  0  0
 20 21  1  0  0  0  0
 18 19  1  0  0  0  0
 18 20  1  0  0  0  0
 16 17  1  0  0  0  0
 16 18  1  0  0  0  0
 15 16  2  0  0  0  0
 14 15  1  0  0  0  0
 14 20  2  0  0  0  0
 11 12  1  0  0  0  0
 11 13  1  0  0  0  0
 11 14  1  0  0  0  0
  9 10  1  0  0  0  0
  9 11  1  0  0  0  0
  9 22  1  0  0  0  0
  7  8  1  0  0  0  0
  7  9  1  0  0  0  0
 26 27  1  0  0  0  0
 26 28  1  0  0  0  0
 26 29  1  0  0  0  0
 24 25  1  0  0  0  0
 24 26  1  0  0  0  0
M  END
$$$$
default_name
  -OEChem-01062215323D

 29 29  0     1  0  0  0  0  0999 V2000
   -2.9561   -3.9186    1.3887 H   0  0  0  0  0  0  0  0  0  0  0  0
   -3.1191   -2.9346    0.9517 C   0  0  0  0  0  0  0  0  0  0  0  0
   -3.7811   -2.3546    1.5917 H   0  0  0  0  0  0  0  0  0  0  0  0
   -3.5591   -3.0406   -0.0383 H   0  0  0  0  0  0  0  0  0  0  0  0
   -1.7921   -2.2226    0.8327 C   0  0  0  0  0  0  0  0  0  0  0  0
   -0.7611   -2.7766    1.1927 O   0  0  0  0  0  0  0  0  0  0  0  0
   -1.8201   -0.9926    0.3247 N   0  0  0  0  0  0  0  0  0  0  0  0
   -2.7141   -0.5816    0.0927 H   0  0  0  0  0  0  0  0  0  0  0  0
   -0.6481   -0.1156    0.2017 C   0  0  1  0  0  0  0  0  0  0  0  0
   -0.0158   -0.5028   -0.5998 H   0  0  0  0  0  0  0  0  0  0  0  0
   -1.1006    1.3057   -0.1855 C   0  0  0  0  0  0  0  0  0  0  0  0
   -1.8265    1.6730    0.5413 H   0  0  0  0  0  0  0  0  0  0  0  0
   -0.2457    1.9831   -0.1667 H   0  0  0  0  0  0  0  0  0  0  0  0
   -1.7570    1.3629   -1.5434 C   0  0  0  0  0  0  0  0  0  0  0  0
   -1.1005    1.2892   -2.7726 N   0  0  0  0  0  0  0  0  0  0  0  0
   -2.0611    1.3298   -3.7074 C   0  0  0  0  0  0  0  0  0  0  0  0
   -1.8791    1.3031   -4.7744 H   0  0  0  0  0  0  0  0  0  0  0  0
   -3.2733    1.3985   -3.1320 N   0  0  0  0  0  0  0  0  0  0  0  0
   -4.1558    1.4201   -3.6246 H   0  0  0  0  0  0  0  0  0  0  0  0
   -3.1020    1.4164   -1.7656 C   0  0  0  0  0  0  0  0  0  0  0  0
   -3.8703    1.4449   -1.0032 H   0  0  0  0  0  0  0  0  0  0  0  0
    0.1848   -0.1361    1.4958 C   0  0  0  0  0  0  0  0  0  0  0  0
   -0.1684   -0.8364    2.4447 O   0  0  0  0  0  0  0  0  0  0  0  0
    1.2882    0.6174    1.5348 N   0  0  0  0  0  0  0  0  0  0  0  0
    1.4460    1.2423    0.7522 H   0  0  0  0  0  0  0  0  0  0  0  0
    2.1983    0.7050    2.6744 C   0  0  0  0  0  0  0  0  0  0  0  0
    2.2735   -0.2661    3.1704 H   0  0  0  0  0  0  0  0  0  0  0  0
    3.1892    1.0102    2.3351 H   0  0  0  0  0  0  0  0  0  0  0  0
    1.8193    1.4372    3.3892 H   0  0  0  0  0  0  0  0  0  0  0  0
  5  6  2  0  0  0  0
  5  7  1  0  0  0  0
  2  3  1  0  0  0  0
  2  4  1  0  0  0  0
  2  5  1  0  0  0  0
  1  2  1  0  0  0  0
 22 23  2  0  0  0  0
 22 24  1  0  0  0  0
 20 21  1  0  0  0  0
 18 19  1  0  0  0  0
 18 20  1  0  0  0  0
 16 17  1  0  0  0  0
 16 18  1  0  0  0  0
 15 16  2  0  0  0  0
 14 15  1  0  0  0  0
 14 20  2  0  0  0  0
 11 12  1  0  0  0  0
 11 13  1  0  0  0  0
 11 14  1  0  0  0  0
  9 10  1  0  0  0  0
  9 11  1  0  0  0  0
  9 22  1  0  0  0  0
  7  8  1  0  0  0  0
  7  9  1  0  0  0  0
 26 27  1  0  0  0  0
 26 28  1  0  0  0  0
 26 29  1  0  0  0  0
 24 25  1  0  0  0  0
 24 26  1  0  0  0  0
M  END
$$$$
default_name
  -OEChem-01062215323D

 29 29  0     1  0  0  0  0  0999 V2000
   -2.9561   -3.9186    1.3887 H   0  0  0  0  0  0  0  0  0  0  0  0
   -3.1191   -2.9346    0.9517 C   0  0  0  0  0  0  0  0  0  0  0  0
   -3.7811   -2.3546    1.5917 H   0  0  0  0  0  0  0  0  0  0  0  0
   -3.5591   -3.0406   -0.0383 H   0  0  0  0  0  0  0  0  0  0  0  0
   -1.7921   -2.2226    0.8327 C   0  0  0  0  0  0  0  0  0  0  0  0
   -0.7611   -2.7766    1.1927 O   0  0  0  0  0  0  0  0  0  0  0  0
   -1.8201   -0.9926    0.3247 N   0  0  0  0  0  0  0  0  0  0  0  0
   -2.7141   -0.5816    0.0927 H   0  0  0  0  0  0  0  0  0  0  0  0
   -0.6481   -0.1156    0.2017 C   0  0  1  0  0  0  0  0  0  0  0  0
   -0.0158   -0.5028   -0.5998 H   0  0  0  0  0  0  0  0  0  0  0  0
   -1.1006    1.3057   -0.1855 C   0  0  0  0  0  0  0  0  0  0  0  0
   -1.8265    1.6730    0.5413 H   0  0  0  0  0  0  0  0  0  0  0  0
   -0.2457    1.9831   -0.1667 H   0  0  0  0  0  0  0  0  0  0  0  0
   -1.7570    1.3629   -1.5434 C   0  0  0  0  0  0  0  0  0  0  0  0
   -1.1005    1.2892   -2.7726 N   0  0  0  0  0  0  0  0  0  0  0  0
   -2.0611    1.3298   -3.7074 C   0  0  0  0  0  0  0  0  0  0  0  0
   -1.8791    1.3031   -4.7744 H   0  0  0  0  0  0  0  0  0  0  0  0
   -3.2733    1.3985   -3.1320 N   0  0  0  0  0  0  0  0  0  0  0  0
   -4.1558    1.4201   -3.6246 H   0  0  0  0  0  0  0  0  0  0  0  0
   -3.1020    1.4164   -1.7656 C   0  0  0  0  0  0  0  0  0  0  0  0
   -3.8703    1.4449   -1.0032 H   0  0  0  0  0  0  0  0  0  0  0  0
    0.1848   -0.1361    1.4958 C   0  0  0  0  0  0  0  0  0  0  0  0
    0.0041   -1.0225    2.3307 O   0  0  0  0  0  0  0  0  0  0  0  0
    1.0979    0.8261    1.6606 N   0  0  0  0  0  0  0  0  0  0  0  0
    1.1063    1.5739    0.9761 H   0  0  0  0  0  0  0  0  0  0  0  0
    1.9808    0.9485    2.8183 C   0  0  0  0  0  0  0  0  0  0  0  0
    2.2717   -0.0428    3.1751 H   0  0  0  0  0  0  0  0  0  0  0  0
    2.8772    1.5063    2.5438 H   0  0  0  0  0  0  0  0  0  0  0  0
    1.4599    1.4730    3.6210 H   0  0  0  0  0  0  0  0  0  0  0  0
  5  6  2  0  0  0  0
  5  7  1  0  0  0  0
  2  3  1  0  0  0  0
  2  4  1  0  0  0  0
  2  5  1  0  0  0  0
  1  2  1  0  0  0  0
 22 23  2  0  0  0  0
 22 24  1  0  0  0  0
 20 21  1  0  0  0  0
 18 19  1  0  0  0  0
 18 20  1  0  0  0  0
 16 17  1  0  0  0  0
 16 18  1  0  0  0  0
 15 16  2  0  0  0  0
 14 15  1  0  0  0  0
 14 20  2  0  0  0  0
 11 12  1  0  0  0  0
 11 13  1  0  0  0  0
 11 14  1  0  0  0  0
  9 10  1  0  0  0  0
  9 11  1  0  0  0  0
  9 22  1  0  0  0  0
  7  8  1  0  0  0  0
  7  9  1  0  0  0  0
 26 27  1  0  0  0  0
 26 28  1  0  0  0  0
 26 29  1  0  0  0  0
 24 25  1  0  0  0  0
 24 26  1  0  0  0  0
M  END
$$$$
default_name
  -OEChem-01062215323D

 29 29  0     1  0  0  0  0  0999 V2000
   -2.9561   -3.9186    1.3887 H   0  0  0  0  0  0  0  0  0  0  0  0
   -3.1191   -2.9346    0.9517 C   0  0  0  0  0  0  0  0  0  0  0  0
   -3.7811   -2.3546    1.5917 H   0  0  0  0  0  0  0  0  0  0  0  0
   -3.5591   -3.0406   -0.0383 H   0  0  0  0  0  0  0  0  0  0  0  0
   -1.7921   -2.2226    0.8327 C   0  0  0  0  0  0  0  0  0  0  0  0
   -0.7611   -2.7766    1.1927 O   0  0  0  0  0  0  0  0  0  0  0  0
   -1.8201   -0.9926    0.3247 N   0  0  0  0  0  0  0  0  0  0  0  0
   -2.7141   -0.5816    0.0927 H   0  0  0  0  0  0  0  0  0  0  0  0
   -0.6481   -0.1156    0.2017 C   0  0  1  0  0  0  0  0  0  0  0  0
   -0.0158   -0.5028   -0.5998 H   0  0  0  0  0  0  0  0  0  0  0  0
   -1.1006    1.3057   -0.1855 C   0  0  0  0  0  0  0  0  0  0  0  0
   -1.8265    1.6730    0.5413 H   0  0  0  0  0  0  0  0  0  0  0  0
   -0.2457    1.9831   -0.1667 H   0  0  0  0  0  0  0  0  0  0  0  0
   -1.7570    1.3629   -1.5434 C   0  0  0  0  0  0  0  0  0  0  0  0
   -1.1005    1.2892   -2.7726 N   0  0  0  0  0  0  0  0  0  0  0  0
   -2.0611    1.3298   -3.7074 C   0  0  0  0  0  0  0  0  0  0  0  0
   -1.8791    1.3031   -4.7744 H   0  0  0  0  0  0  0  0  0  0  0  0
   -3.2733    1.3985   -3.1320 N   0  0  0  0  0  0  0  0  0  0  0  0
   -4.1558    1.4201   -3.6246 H   0  0  0  0  0  0  0  0  0  0  0  0
   -3.1020    1.4164   -1.7656 C   0  0  0  0  0  0  0  0  0  0  0  0
   -3.8703    1.4449   -1.0032 H   0  0  0  0  0  0  0  0  0  0  0  0
    0.1848   -0.1361    1.4958 C   0  0  0  0  0  0  0  0  0  0  0  0
    0.2117   -1.1489    2.1951 O   0  0  0  0  0  0  0  0  0  0  0  0
    0.8683    0.9687    1.8107 N   0  0  0  0  0  0  0  0  0  0  0  0
    0.7053    1.7890    1.2376 H   0  0  0  0  0  0  0  0  0  0  0  0
    1.7171    1.1162    2.9906 C   0  0  0  0  0  0  0  0  0  0  0  0
    2.2213    0.1718    3.2109 H   0  0  0  0  0  0  0  0  0  0  0  0
    2.4671    1.8885    2.8138 H   0  0  0  0  0  0  0  0  0  0  0  0
    1.1042    1.3969    3.8488 H   0  0  0  0  0  0  0  0  0  0  0  0
  5  6  2  0  0  0  0
  5  7  1  0  0  0  0
  2  3  1  0  0  0  0
  2  4  1  0  0  0  0
  2  5  1  0  0  0  0
  1  2  1  0  0  0  0
 22 23  2  0  0  0  0
 22 24  1  0  0  0  0
 20 21  1  0  0  0  0
 18 19  1  0  0  0  0
 18 20  1  0  0  0  0
 16 17  1  0  0  0  0
 16 18  1  0  0  0  0
 15 16  2  0  0  0  0
 14 15  1  0  0  0  0
 14 20  2  0  0  0  0
 11 12  1  0  0  0  0
 11 13  1  0  0  0  0
 11 14  1  0  0  0  0
  9 10  1  0  0  0  0
  9 11  1  0  0  0  0
  9 22  1  0  0  0  0
  7  8  1  0  0  0  0
  7  9  1  0  0  0  0
 26 27  1  0  0  0  0
 26 28  1  0  0  0  0
 26 29  1  0  0  0  0
 24 25  1  0  0  0  0
 24 26  1  0  0  0  0
M  END
$$$$
default_name
  -OEChem-01062215323D

 29 29  0     1  0  0  0  0  0999 V2000
   -2.9561   -3.9186    1.3887 H   0  0  0  0  0  0  0  0  0  0  0  0
   -3.1191   -2.9346    0.9517 C   0  0  0  0  0  0  0  0  0  0  0  0
   -3.7811   -2.3546    1.5917 H   0  0  0  0  0  0  0  0  0  0  0  0
   -3.5591   -3.0406   -0.0383 H   0  0  0  0  0  0  0  0  0  0  0  0
   -1.7921   -2.2226    0.8327 C   0  0  0  0  0  0  0  0  0  0  0  0
   -0.7611   -2.7766    1.1927 O   0  0  0  0  0  0  0  0  0  0  0  0
   -1.8201   -0.9926    0.3247 N   0  0  0  0  0  0  0  0  0  0  0  0
   -2.7141   -0.5816    0.0927 H   0  0  0  0  0  0  0  0  0  0  0  0
   -0.6481   -0.1156    0.2017 C   0  0  1  0  0  0  0  0  0  0  0  0
   -0.0158   -0.5028   -0.5998 H   0  0  0  0  0  0  0  0  0  0  0  0
   -1.1006    1.3057   -0.1855 C   0  0  0  0  0  0  0  0  0  0  0  0
   -1.8265    1.6730    0.5413 H   0  0  0  0  0  0  0  0  0  0  0  0
   -0.2457    1.9831   -0.1667 H   0  0  0  0  0  0  0  0  0  0  0  0
   -1.7570    1.3629   -1.5434 C   0  0  0  0  0  0  0  0  0  0  0  0
   -1.1005    1.2892   -2.7726 N   0  0  0  0  0  0  0  0  0  0  0  0
   -2.0611    1.3298   -3.7074 C   0  0  0  0  0  0  0  0  0  0  0  0
   -1.8791    1.3031   -4.7744 H   0  0  0  0  0  0  0  0  0  0  0  0
   -3.2733    1.3985   -3.1320 N   0  0  0  0  0  0  0  0  0  0  0  0
   -4.1558    1.4201   -3.6246 H   0  0  0  0  0  0  0  0  0  0  0  0
   -3.1020    1.4164   -1.7656 C   0  0  0  0  0  0  0  0  0  0  0  0
   -3.8703    1.4449   -1.0032 H   0  0  0  0  0  0  0  0  0  0  0  0
    0.1848   -0.1361    1.4958 C   0  0  0  0  0  0  0  0  0  0  0  0
    0.4401   -1.2067    2.0472 O   0  0  0  0  0  0  0  0  0  0  0  0
    0.6149    1.0354    1.9748 N   0  0  0  0  0  0  0  0  0  0  0  0
    0.2703    1.8728    1.5190 H   0  0  0  0  0  0  0  0  0  0  0  0
    1.4254    1.1967    3.1797 C   0  0  0  0  0  0  0  0  0  0  0  0
    2.1259    0.3631    3.2754 H   0  0  0  0  0  0  0  0  0  0  0  0
    1.9869    2.1305    3.1267 H   0  0  0  0  0  0  0  0  0  0  0  0
    0.7765    1.2140    4.0568 H   0  0  0  0  0  0  0  0  0  0  0  0
  5  6  2  0  0  0  0
  5  7  1  0  0  0  0
  2  3  1  0  0  0  0
  2  4  1  0  0  0  0
  2  5  1  0  0  0  0
  1  2  1  0  0  0  0
 22 23  2  0  0  0  0
 22 24  1  0  0  0  0
 20 21  1  0  0  0  0
 18 19  1  0  0  0  0
 18 20  1  0  0  0  0
 16 17  1  0  0  0  0
 16 18  1  0  0  0  0
 15 16  2  0  0  0  0
 14 15  1  0  0  0  0
 14 20  2  0  0  0  0
 11 12  1  0  0  0  0
 11 13  1  0  0  0  0
 11 14  1  0  0  0  0
  9 10  1  0  0  0  0
  9 11  1  0  0  0  0
  9 22  1  0  0  0  0
  7  8  1  0  0  0  0
  7  9  1  0  0  0  0
 26 27  1  0  0  0  0
 26 28  1  0  0  0  0
 26 29  1  0  0  0  0
 24 25  1  0  0  0  0
 24 26  1  0  0  0  0
M  END
$$$$
default_name
  -OEChem-01062215323D

 29 29  0     1  0  0  0  0  0999 V2000
   -2.9561   -3.9186    1.3887 H   0  0  0  0  0  0  0  0  0  0  0  0
   -3.1191   -2.9346    0.9517 C   0  0  0  0  0  0  0  0  0  0  0  0
   -3.7811   -2.3546    1.5917 H   0  0  0  0  0  0  0  0  0  0  0  0
   -3.5591   -3.0406   -0.0383 H   0  0  0  0  0  0  0  0  0  0  0  0
   -1.7921   -2.2226    0.8327 C   0  0  0  0  0  0  0  0  0  0  0  0
   -0.7611   -2.7766    1.1927 O   0  0  0  0  0  0  0  0  0  0  0  0
   -1.8201   -0.9926    0.3247 N   0  0  0  0  0  0  0  0  0  0  0  0
   -2.7141   -0.5816    0.0927 H   0  0  0  0  0  0  0  0  0  0  0  0
   -0.6481   -0.1156    0.2017 C   0  0  1  0  0  0  0  0  0  0  0  0
   -0.0158   -0.5028   -0.5998 H   0  0  0  0  0  0  0  0  0  0  0  0
   -1.1006    1.3057   -0.1855 C   0  0  0  0  0  0  0  0  0  0  0  0
   -1.8265    1.6730    0.5413 H   0  0  0  0  0  0  0  0  0  0  0  0
   -0.2457    1.9831   -0.1667 H   0  0  0  0  0  0  0  0  0  0  0  0
   -1.7570    1.3629   -1.5434 C   0  0  0  0  0  0  0  0  0  0  0  0
   -1.1005    1.2892   -2.7726 N   0  0  0  0  0  0  0  0  0  0  0  0
   -2.0611    1.3298   -3.7074 C   0  0  0  0  0  0  0  0  0  0  0  0
   -1.8791    1.3031   -4.7744 H   0  0  0  0  0  0  0  0  0  0  0  0
   -3.2733    1.3985   -3.1320 N   0  0  0  0  0  0  0  0  0  0  0  0
   -4.1558    1.4201   -3.6246 H   0  0  0  0  0  0  0  0  0  0  0  0
   -3.1020    1.4164   -1.7656 C   0  0  0  0  0  0  0  0  0  0  0  0
   -3.8703    1.4449   -1.0032 H   0  0  0  0  0  0  0  0  0  0  0  0
    0.1848   -0.1361    1.4958 C   0  0  0  0  0  0  0  0  0  0  0  0
    0.6738   -1.1922    1.8970 O   0  0  0  0  0  0  0  0  0  0  0  0
    0.3551    1.0217    2.1418 N   0  0  0  0  0  0  0  0  0  0  0  0
   -0.1692    1.8197    1.8010 H   0  0  0  0  0  0  0  0  0  0  0  0
    1.1254    1.1845    3.3726 C   0  0  0  0  0  0  0  0  0  0  0  0
    1.9918    0.5181    3.3642 H   0  0  0  0  0  0  0  0  0  0  0  0
    1.4694    2.2159    3.4611 H   0  0  0  0  0  0  0  0  0  0  0  0
    0.4989    0.9369    4.2311 H   0  0  0  0  0  0  0  0  0  0  0  0
  5  6  2  0  0  0  0
  5  7  1  0  0  0  0
  2  3  1  0  0  0  0
  2  4  1  0  0  0  0
  2  5  1  0  0  0  0
  1  2  1  0  0  0  0
 22 23  2  0  0  0  0
 22 24  1  0  0  0  0
 20 21  1  0  0  0  0
 18 19  1  0  0  0  0
 18 20  1  0  0  0  0
 16 17  1  0  0  0  0
 16 18  1  0  0  0  0
 15 16  2  0  0  0  0
 14 15  1  0  0  0  0
 14 20  2  0  0  0  0
 11 12  1  0  0  0  0
 11 13  1  0  0  0  0
 11 14  1  0  0  0  0
  9 10  1  0  0  0  0
  9 11  1  0  0  0  0
  9 22  1  0  0  0  0
  7  8  1  0  0  0  0
  7  9  1  0  0  0  0
 26 27  1  0  0  0  0
 26 28  1  0  0  0  0
 26 29  1  0  0  0  0
 24 25  1  0  0  0  0
 24 26  1  0  0  0  0
M  END
$$$$
default_name
  -OEChem-01062215323D

 29 29  0     1  0  0  0  0  0999 V2000
   -2.9561   -3.9186    1.3887 H   0  0  0  0  0  0  0  0  0  0  0  0
   -3.1191   -2.9346    0.9517 C   0  0  0  0  0  0  0  0  0  0  0  0
   -3.7811   -2.3546    1.5917 H   0  0  0  0  0  0  0  0  0  0  0  0
   -3.5591   -3.0406   -0.0383 H   0  0  0  0  0  0  0  0  0  0  0  0
   -1.7921   -2.2226    0.8327 C   0  0  0  0  0  0  0  0  0  0  0  0
   -0.7611   -2.7766    1.1927 O   0  0  0  0  0  0  0  0  0  0  0  0
   -1.8201   -0.9926    0.3247 N   0  0  0  0  0  0  0  0  0  0  0  0
   -2.7141   -0.5816    0.0927 H   0  0  0  0  0  0  0  0  0  0  0  0
   -0.6481   -0.1156    0.2017 C   0  0  1  0  0  0  0  0  0  0  0  0
   -0.0158   -0.5028   -0.5998 H   0  0  0  0  0  0  0  0  0  0  0  0
   -1.1006    1.3057   -0.1855 C   0  0  0  0  0  0  0  0  0  0  0  0
   -1.8265    1.6730    0.5413 H   0  0  0  0  0  0  0  0  0  0  0  0
   -0.2457    1.9831   -0.1667 H   0  0  0  0  0  0  0  0  0  0  0  0
   -1.7570    1.3629   -1.5434 C   0  0  0  0  0  0  0  0  0  0  0  0
   -1.1005    1.2892   -2.7726 N   0  0  0  0  0  0  0  0  0  0  0  0
   -2.0611    1.3298   -3.7074 C   0  0  0  0  0  0  0  0  0  0  0  0
   -1.8791    1.3031   -4.7744 H   0  0  0  0  0  0  0  0  0  0  0  0
   -3.2733    1.3985   -3.1320 N   0  0  0  0  0  0  0  0  0  0  0  0
   -4.1558    1.4201   -3.6246 H   0  0  0  0  0  0  0  0  0  0  0  0
   -3.1020    1.4164   -1.7656 C   0  0  0  0  0  0  0  0  0  0  0  0
   -3.8703    1.4449   -1.0032 H   0  0  0  0  0  0  0  0  0  0  0  0
    0.1848   -0.1361    1.4958 C   0  0  0  0  0  0  0  0  0  0  0  0
    0.8970   -1.1063    1.7547 O   0  0  0  0  0  0  0  0  0  0  0  0
    0.1066    0.9285    2.3003 N   0  0  0  0  0  0  0  0  0  0  0  0
   -0.5831    1.6333    2.0644 H   0  0  0  0  0  0  0  0  0  0  0  0
    0.8377    1.0803    3.5561 C   0  0  0  0  0  0  0  0  0  0  0  0
    1.8282    0.6262    3.4712 H   0  0  0  0  0  0  0  0  0  0  0  0
    0.9497    2.1390    3.7944 H   0  0  0  0  0  0  0  0  0  0  0  0
    0.2905    0.5845    4.3596 H   0  0  0  0  0  0  0  0  0  0  0  0
  5  6  2  0  0  0  0
  5  7  1  0  0  0  0
  2  3  1  0  0  0  0
  2  4  1  0  0  0  0
  2  5  1  0  0  0  0
  1  2  1  0  0  0  0
 22 23  2  0  0  0  0
 22 24  1  0  0  0  0
 20 21  1  0  0  0  0
 18 19  1  0  0  0  0
 18 20  1  0  0  0  0
 16 17  1  0  0  0  0
 16 18  1  0  0  0  0
 15 16  2  0  0  0  0
 14 15  1  0  0  0  0
 14 20  2  0  0  0  0
 11 12  1  0  0  0  0
 11 13  1  0  0  0  0
 11 14  1  0  0  0  0
  9 10  1  0  0  0  0
  9 11  1  0  0  0  0
  9 22  1  0  0  0  0
  7  8  1  0  0  0  0
  7  9  1  0  0  0  0
 26 27  1  0  0  0  0
 26 28  1  0  0  0  0
 26 29  1  0  0  0  0
 24 25  1  0  0  0  0
 24 26  1  0  0  0  0
M  END
$$$$
default_name
  -OEChem-01062215323D

 29 29  0     1  0  0  0  0  0999 V2000
   -2.9561   -3.9186    1.3887 H   0  0  0  0  0  0  0  0  0  0  0  0
   -3.1191   -2.9346    0.9517 C   0  0  0  0  0  0  0  0  0  0  0  0
   -3.7811   -2.3546    1.5917 H   0  0  0  0  0  0  0  0  0  0  0  0
   -3.5591   -3.0406   -0.0383 H   0  0  0  0  0  0  0  0  0  0  0  0
   -1.7921   -2.2226    0.8327 C   0  0  0  0  0  0  0  0  0  0  0  0
   -0.7611   -2.7766    1.1927 O   0  0  0  0  0  0  0  0  0  0  0  0
   -1.8201   -0.9926    0.3247 N   0  0  0  0  0  0  0  0  0  0  0  0
   -2.7141   -0.5816    0.0927 H   0  0  0  0  0  0  0  0  0  0  0  0
   -0.6481   -0.1156    0.2017 C   0  0  1  0  0  0  0  0  0  0  0  0
   -0.0158   -0.5028   -0.5998 H   0  0  0  0  0  0  0  0  0  0  0  0
   -1.1006    1.3057   -0.1855 C   0  0  0  0  0  0  0  0  0  0  0  0
   -1.8265    1.6730    0.5413 H   0  0  0  0  0  0  0  0  0  0  0  0
   -0.2457    1.9831   -0.1667 H   0  0  0  0  0  0  0  0  0  0  0  0
   -1.7570    1.3629   -1.5434 C   0  0  0  0  0  0  0  0  0  0  0  0
   -1.1005    1.2892   -2.7726 N   0  0  0  0  0  0  0  0  0  0  0  0
   -2.0611    1.3298   -3.7074 C   0  0  0  0  0  0  0  0  0  0  0  0
   -1.8791    1.3031   -4.7744 H   0  0  0  0  0  0  0  0  0  0  0  0
   -3.2733    1.3985   -3.1320 N   0  0  0  0  0  0  0  0  0  0  0  0
   -4.1558    1.4201   -3.6246 H   0  0  0  0  0  0  0  0  0  0  0  0
   -3.1020    1.4164   -1.7656 C   0  0  0  0  0  0  0  0  0  0  0  0
   -3.8703    1.4449   -1.0032 H   0  0  0  0  0  0  0  0  0  0  0  0
    0.1848   -0.1361    1.4958 C   0  0  0  0  0  0  0  0  0  0  0  0
    1.0943   -0.9548    1.6301 O   0  0  0  0  0  0  0  0  0  0  0  0
   -0.1138    0.7622    2.4395 N   0  0  0  0  0  0  0  0  0  0  0  0
   -0.9432    1.3262    2.2913 H   0  0  0  0  0  0  0  0  0  0  0  0
    0.5817    0.8914    3.7178 C   0  0  0  0  0  0  0  0  0  0  0  0
    1.6464    0.6800    3.5891 H   0  0  0  0  0  0  0  0  0  0  0  0
    0.4633    1.9049    4.1038 H   0  0  0  0  0  0  0  0  0  0  0  0
    0.1655    0.1807    4.4337 H   0  0  0  0  0  0  0  0  0  0  0  0
  5  6  2  0  0  0  0
  5  7  1  0  0  0  0
  2  3  1  0  0  0  0
  2  4  1  0  0  0  0
  2  5  1  0  0  0  0
  1  2  1  0  0  0  0
 22 23  2  0  0  0  0
 22 24  1  0  0  0  0
 20 21  1  0  0  0  0
 18 19  1  0  0  0  0
 18 20  1  0  0  0  0
 16 17  1  0  0  0  0
 16 18  1  0  0  0  0
 15 16  2  0  0  0  0
 14 15  1  0  0  0  0
 14 20  2  0  0  0  0
 11 12  1  0  0  0  0
 11 13  1  0  0  0  0
 11 14  1  0  0  0  0
  9 10  1  0  0  0  0
  9 11  1  0  0  0  0
  9 22  1  0  0  0  0
  7  8  1  0  0  0  0
  7  9  1  0  0  0  0
 26 27  1  0  0  0  0
 26 28  1  0  0  0  0
 26 29  1  0  0  0  0
 24 25  1  0  0  0  0
 24 26  1  0  0  0  0
M  END
$$$$
default_name
  -OEChem-01062215323D

 29 29  0     1  0  0  0  0  0999 V2000
   -2.9561   -3.9186    1.3887 H   0  0  0  0  0  0  0  0  0  0  0  0
   -3.1191   -2.9346    0.9517 C   0  0  0  0  0  0  0  0  0  0  0  0
   -3.7811   -2.3546    1.5917 H   0  0  0  0  0  0  0  0  0  0  0  0
   -3.5591   -3.0406   -0.0383 H   0  0  0  0  0  0  0  0  0  0  0  0
   -1.7921   -2.2226    0.8327 C   0  0  0  0  0  0  0  0  0  0  0  0
   -0.7611   -2.7766    1.1927 O   0  0  0  0  0  0  0  0  0  0  0  0
   -1.8201   -0.9926    0.3247 N   0  0  0  0  0  0  0  0  0  0  0  0
   -2.7141   -0.5816    0.0927 H   0  0  0  0  0  0  0  0  0  0  0  0
   -0.6481   -0.1156    0.2017 C   0  0  1  0  0  0  0  0  0  0  0  0
   -0.0158   -0.5028   -0.5998 H   0  0  0  0  0  0  0  0  0  0  0  0
   -1.1006    1.3057   -0.1855 C   0  0  0  0  0  0  0  0  0  0  0  0
   -1.8265    1.6730    0.5413 H   0  0  0  0  0  0  0  0  0  0  0  0
   -0.2457    1.9831   -0.1667 H   0  0  0  0  0  0  0  0  0  0  0  0
   -1.7570    1.3629   -1.5434 C   0  0  0  0  0  0  0  0  0  0  0  0
   -1.1005    1.2892   -2.7726 N   0  0  0  0  0  0  0  0  0  0  0  0
   -2.0611    1.3298   -3.7074 C   0  0  0  0  0  0  0  0  0  0  0  0
   -1.8791    1.3031   -4.7744 H   0  0  0  0  0  0  0  0  0  0  0  0
   -3.2733    1.3985   -3.1320 N   0  0  0  0  0  0  0  0  0  0  0  0
   -4.1558    1.4201   -3.6246 H   0  0  0  0  0  0  0  0  0  0  0  0
   -3.1020    1.4164   -1.7656 C   0  0  0  0  0  0  0  0  0  0  0  0
   -3.8703    1.4449   -1.0032 H   0  0  0  0  0  0  0  0  0  0  0  0
    0.1848   -0.1361    1.4958 C   0  0  0  0  0  0  0  0  0  0  0  0
    1.2523   -0.7481    1.5317 O   0  0  0  0  0  0  0  0  0  0  0  0
   -0.2910    0.5342    2.5499 N   0  0  0  0  0  0  0  0  0  0  0  0
   -1.2250    0.9195    2.4663 H   0  0  0  0  0  0  0  0  0  0  0  0
    0.3751    0.6306    3.8467 C   0  0  0  0  0  0  0  0  0  0  0  0
    1.4586    0.6759    3.7099 H   0  0  0  0  0  0  0  0  0  0  0  0
    0.0433    1.5296    4.3681 H   0  0  0  0  0  0  0  0  0  0  0  0
    0.1323   -0.2469    4.4482 H   0  0  0  0  0  0  0  0  0  0  0  0
  5  6  2  0  0  0  0
  5  7  1  0  0  0  0
  2  3  1  0  0  0  0
  2  4  1  0  0  0  0
  2  5  1  0  0  0  0
  1  2  1  0  0  0  0
 22 23  2  0  0  0  0
 22 24  1  0  0  0  0
 20 21  1  0  0  0  0
 18 19  1  0  0  0  0
 18 20  1  0  0  0  0
 16 17  1  0  0  0  0
 16 18  1  0  0  0  0
 15 16  2  0  0  0  0
 14 15  1  0  0  0  0
 14 20  2  0  0  0  0
 11 12  1  0  0  0  0
 11 13  1  0  0  0  0
 11 14  1  0  0  0  0
  9 10  1  0  0  0  0
  9 11  1  0  0  0  0
  9 22  1  0  0  0  0
  7  8  1  0  0  0  0
  7  9  1  0  0  0  0
 26 27  1  0  0  0  0
 26 28  1  0  0  0  0
 26 29  1  0  0  0  0
 24 25  1  0  0  0  0
 24 26  1  0  0  0  0
M  END
$$$$
default_name
  -OEChem-01062215323D

 29 29  0     1  0  0  0  0  0999 V2000
   -2.9561   -3.9186    1.3887 H   0  0  0  0  0  0  0  0  0  0  0  0
   -3.1191   -2.9346    0.9517 C   0  0  0  0  0  0  0  0  0  0  0  0
   -3.7811   -2.3546    1.5917 H   0  0  0  0  0  0  0  0  0  0  0  0
   -3.5591   -3.0406   -0.0383 H   0  0  0  0  0  0  0  0  0  0  0  0
   -1.7921   -2.2226    0.8327 C   0  0  0  0  0  0  0  0  0  0  0  0
   -0.7611   -2.7766    1.1927 O   0  0  0  0  0  0  0  0  0  0  0  0
   -1.8201   -0.9926    0.3247 N   0  0  0  0  0  0  0  0  0  0  0  0
   -2.7141   -0.5816    0.0927 H   0  0  0  0  0  0  0  0  0  0  0  0
   -0.6481   -0.1156    0.2017 C   0  0  1  0  0  0  0  0  0  0  0  0
   -0.0158   -0.5028   -0.5998 H   0  0  0  0  0  0  0  0  0  0  0  0
   -1.1006    1.3057   -0.1855 C   0  0  0  0  0  0  0  0  0  0  0  0
   -1.8265    1.6730    0.5413 H   0  0  0  0  0  0  0  0  0  0  0  0
   -0.2457    1.9831   -0.1667 H   0  0  0  0  0  0  0  0  0  0  0  0
   -1.7570    1.3629   -1.5434 C   0  0  0  0  0  0  0  0  0  0  0  0
   -1.1005    1.2892   -2.7726 N   0  0  0  0  0  0  0  0  0  0  0  0
   -2.0611    1.3298   -3.7074 C   0  0  0  0  0  0  0  0  0  0  0  0
   -1.8791    1.3031   -4.7744 H   0  0  0  0  0  0  0  0  0  0  0  0
   -3.2733    1.3985   -3.1320 N   0  0  0  0  0  0  0  0  0  0  0  0
   -4.1558    1.4201   -3.6246 H   0  0  0  0  0  0  0  0  0  0  0  0
   -3.1020    1.4164   -1.7656 C   0  0  0  0  0  0  0  0  0  0  0  0
   -3.8703    1.4449   -1.0032 H   0  0  0  0  0  0  0  0  0  0  0  0
    0.1848   -0.1361    1.4958 C   0  0  0  0  0  0  0  0  0  0  0  0
    1.3604   -0.5002    1.4661 O   0  0  0  0  0  0  0  0  0  0  0  0
   -0.4128    0.2599    2.6240 N   0  0  0  0  0  0  0  0  0  0  0  0
   -1.4093    0.4407    2.5773 H   0  0  0  0  0  0  0  0  0  0  0  0
    0.2318    0.3157    3.9340 C   0  0  0  0  0  0  0  0  0  0  0  0
    1.2777    0.6141    3.8253 H   0  0  0  0  0  0  0  0  0  0  0  0
   -0.2816    1.0387    4.5694 H   0  0  0  0  0  0  0  0  0  0  0  0
    0.1933   -0.6692    4.4023 H   0  0  0  0  0  0  0  0  0  0  0  0
  5  6  2  0  0  0  0
  5  7  1  0  0  0  0
  2  3  1  0  0  0  0
  2  4  1  0  0  0  0
  2  5  1  0  0  0  0
  1  2  1  0  0  0  0
 22 23  2  0  0  0  0
 22 24  1  0  0  0  0
 20 21  1  0  0  0  0
 18 19  1  0  0  0  0
 18 20  1  0  0  0  0
 16 17  1  0  0  0  0
 16 18  1  0  0  0  0
 15 16  2  0  0  0  0
 14 15  1  0  0  0  0
 14 20  2  0  0  0  0
 11 12  1  0  0  0  0
 11 13  1  0  0  0  0
 11 14  1  0  0  0  0
  9 10  1  0  0  0  0
  9 11  1  0  0  0  0
  9 22  1  0  0  0  0
  7  8  1  0  0  0  0
  7  9  1  0  0  0  0
 26 27  1  0  0  0  0
 26 28  1  0  0  0  0
 26 29  1  0  0  0  0
 24 25  1  0  0  0  0
 24 26  1  0  0  0  0
M  END
$$$$
default_name
  -OEChem-01062215323D

 29 29  0     1  0  0  0  0  0999 V2000
   -2.9561   -3.9186    1.3887 H   0  0  0  0  0  0  0  0  0  0  0  0
   -3.1191   -2.9346    0.9517 C   0  0  0  0  0  0  0  0  0  0  0  0
   -3.7811   -2.3546    1.5917 H   0  0  0  0  0  0  0  0  0  0  0  0
   -3.5591   -3.0406   -0.0383 H   0  0  0  0  0  0  0  0  0  0  0  0
   -1.7921   -2.2226    0.8327 C   0  0  0  0  0  0  0  0  0  0  0  0
   -0.7611   -2.7766    1.1927 O   0  0  0  0  0  0  0  0  0  0  0  0
   -1.8201   -0.9926    0.3247 N   0  0  0  0  0  0  0  0  0  0  0  0
   -2.7141   -0.5816    0.0927 H   0  0  0  0  0  0  0  0  0  0  0  0
   -0.6481   -0.1156    0.2017 C   0  0  1  0  0  0  0  0  0  0  0  0
   -0.0158   -0.5028   -0.5998 H   0  0  0  0  0  0  0  0  0  0  0  0
   -1.1006    1.3057   -0.1855 C   0  0  0  0  0  0  0  0  0  0  0  0
   -1.8265    1.6730    0.5413 H   0  0  0  0  0  0  0  0  0  0  0  0
   -0.2457    1.9831   -0.1667 H   0  0  0  0  0  0  0  0  0  0  0  0
   -1.7570    1.3629   -1.5434 C   0  0  0  0  0  0  0  0  0  0  0  0
   -1.1005    1.2892   -2.7726 N   0  0  0  0  0  0  0  0  0  0  0  0
   -2.0611    1.3298   -3.7074 C   0  0  0  0  0  0  0  0  0  0  0  0
   -1.8791    1.3031   -4.7744 H   0  0  0  0  0  0  0  0  0  0  0  0
   -3.2733    1.3985   -3.1320 N   0  0  0  0  0  0  0  0  0  0  0  0
   -4.1558    1.4201   -3.6246 H   0  0  0  0  0  0  0  0  0  0  0  0
   -3.1020    1.4164   -1.7656 C   0  0  0  0  0  0  0  0  0  0  0  0
   -3.8703    1.4449   -1.0032 H   0  0  0  0  0  0  0  0  0  0  0  0
    0.1848   -0.1361    1.4958 C   0  0  0  0  0  0  0  0  0  0  0  0
    1.4110   -0.2281    1.4378 O   0  0  0  0  0  0  0  0  0  0  0  0
   -0.4711   -0.0420    2.6567 N   0  0  0  0  0  0  0  0  0  0  0  0
   -1.4836   -0.0773    2.6168 H   0  0  0  0  0  0  0  0  0  0  0  0
    0.1616   -0.0319    3.9736 C   0  0  0  0  0  0  0  0  0  0  0  0
    1.1160    0.4990    3.9276 H   0  0  0  0  0  0  0  0  0  0  0  0
   -0.4892    0.4656    4.6940 H   0  0  0  0  0  0  0  0  0  0  0  0
    0.3443   -1.0574    4.2990 H   0  0  0  0  0  0  0  0  0  0  0  0
  5  6  2  0  0  0  0
  5  7  1  0  0  0  0
  2  3  1  0  0  0  0
  2  4  1  0  0  0  0
  2  5  1  0  0  0  0
  1  2  1  0  0  0  0
 22 23  2  0  0  0  0
 22 24  1  0  0  0  0
 20 21  1  0  0  0  0
 18 19  1  0  0  0  0
 18 20  1  0  0  0  0
 16 17  1  0  0  0  0
 16 18  1  0  0  0  0
 15 16  2  0  0  0  0
 14 15  1  0  0  0  0
 14 20  2  0  0  0  0
 11 12  1  0  0  0  0
 11 13  1  0  0  0  0
 11 14  1  0  0  0  0
  9 10  1  0  0  0  0
  9 11  1  0  0  0  0
  9 22  1  0  0  0  0
  7  8  1  0  0  0  0
  7  9  1  0  0  0  0
 26 27  1  0  0  0  0
 26 28  1  0  0  0  0
 26 29  1  0  0  0  0
 24 25  1  0  0  0  0
 24 26  1  0  0  0  0
M  END
$$$$
default_name
  -OEChem-01062215323D

 29 29  0     1  0  0  0  0  0999 V2000
   -2.9561   -3.9186    1.3887 H   0  0  0  0  0  0  0  0  0  0  0  0
   -3.1191   -2.9346    0.9517 C   0  0  0  0  0  0  0  0  0  0  0  0
   -3.7811   -2.3546    1.5917 H   0  0  0  0  0  0  0  0  0  0  0  0
   -3.5591   -3.0406   -0.0383 H   0  0  0  0  0  0  0  0  0  0  0  0
   -1.7921   -2.2226    0.8327 C   0  0  0  0  0  0  0  0  0  0  0  0
   -0.7611   -2.7766    1.1927 O   0  0  0  0  0  0  0  0  0  0  0  0
   -1.8201   -0.9926    0.3247 N   0  0  0  0  0  0  0  0  0  0  0  0
   -2.7141   -0.5816    0.0927 H   0  0  0  0  0  0  0  0  0  0  0  0
   -0.6481   -0.1156    0.2017 C   0  0  1  0  0  0  0  0  0  0  0  0
   -0.0158   -0.5028   -0.5998 H   0  0  0  0  0  0  0  0  0  0  0  0
   -1.1006    1.3057   -0.1855 C   0  0  0  0  0  0  0  0  0  0  0  0
   -1.8265    1.6730    0.5413 H   0  0  0  0  0  0  0  0  0  0  0  0
   -0.2457    1.9831   -0.1667 H   0  0  0  0  0  0  0  0  0  0  0  0
   -1.7570    1.3629   -1.5434 C   0  0  0  0  0  0  0  0  0  0  0  0
   -1.1005    1.2892   -2.7726 N   0  0  0  0  0  0  0  0  0  0  0  0
   -2.0611    1.3298   -3.7074 C   0  0  0  0  0  0  0  0  0  0  0  0
   -1.8791    1.3031   -4.7744 H   0  0  0  0  0  0  0  0  0  0  0  0
   -3.2733    1.3985   -3.1320 N   0  0  0  0  0  0  0  0  0  0  0  0
   -4.1558    1.4201   -3.6246 H   0  0  0  0  0  0  0  0  0  0  0  0
   -3.1020    1.4164   -1.7656 C   0  0  0  0  0  0  0  0  0  0  0  0
   -3.8703    1.4449   -1.0032 H   0  0  0  0  0  0  0  0  0  0  0  0
    0.1848   -0.1361    1.4958 C   0  0  0  0  0  0  0  0  0  0  0  0
    1.4008    0.0497    1.4488 O   0  0  0  0  0  0  0  0  0  0  0  0
   -0.4618   -0.3508    2.6459 N   0  0  0  0  0  0  0  0  0  0  0  0
   -1.4427   -0.5994    2.5822 H   0  0  0  0  0  0  0  0  0  0  0  0
    0.1693   -0.3885    3.9630 C   0  0  0  0  0  0  0  0  0  0  0  0
    0.9845    0.3382    4.0097 H   0  0  0  0  0  0  0  0  0  0  0  0
   -0.5656   -0.1505    4.7333 H   0  0  0  0  0  0  0  0  0  0  0  0
    0.5749   -1.3850    4.1453 H   0  0  0  0  0  0  0  0  0  0  0  0
  5  6  2  0  0  0  0
  5  7  1  0  0  0  0
  2  3  1  0  0  0  0
  2  4  1  0  0  0  0
  2  5  1  0  0  0  0
  1  2  1  0  0  0  0
 22 23  2  0  0  0  0
 22 24  1  0  0  0  0
 20 21  1  0  0  0  0
 18 19  1  0  0  0  0
 18 20  1  0  0  0  0
 16 17  1  0  0  0  0
 16 18  1  0  0  0  0
 15 16  2  0  0  0  0
 14 15  1  0  0  0  0
 14 20  2  0  0  0  0
 11 12  1  0  0  0  0
 11 13  1  0  0  0  0
 11 14  1  0  0  0  0
  9 10  1  0  0  0  0
  9 11  1  0  0  0  0
  9 22  1  0  0  0  0
  7  8  1  0  0  0  0
  7  9  1  0  0  0  0
 26 27  1  0  0  0  0
 26 28  1  0  0  0  0
 26 29  1  0  0  0  0
 24 25  1  0  0  0  0
 24 26  1  0  0  0  0
M  END
$$$$
default_name
  -OEChem-01062215323D

 29 29  0     1  0  0  0  0  0999 V2000
   -2.9561   -3.9186    1.3887 H   0  0  0  0  0  0  0  0  0  0  0  0
   -3.1191   -2.9346    0.9517 C   0  0  0  0  0  0  0  0  0  0  0  0
   -3.7811   -2.3546    1.5917 H   0  0  0  0  0  0  0  0  0  0  0  0
   -3.5591   -3.0406   -0.0383 H   0  0  0  0  0  0  0  0  0  0  0  0
   -1.7921   -2.2226    0.8327 C   0  0  0  0  0  0  0  0  0  0  0  0
   -0.7611   -2.7766    1.1927 O   0  0  0  0  0  0  0  0  0  0  0  0
   -1.8201   -0.9926    0.3247 N   0  0  0  0  0  0  0  0  0  0  0  0
   -2.7141   -0.5816    0.0927 H   0  0  0  0  0  0  0  0  0  0  0  0
   -0.6481   -0.1156    0.2017 C   0  0  1  0  0  0  0  0  0  0  0  0
   -0.0158   -0.5028   -0.5998 H   0  0  0  0  0  0  0  0  0  0  0  0
   -1.1006    1.3057   -0.1855 C   0  0  0  0  0  0  0  0  0  0  0  0
   -1.8265    1.6730    0.5413 H   0  0  0  0  0  0  0  0  0  0  0  0
   -0.2457    1.9831   -0.1667 H   0  0  0  0  0  0  0  0  0  0  0  0
   -1.7570    1.3629   -1.5434 C   0  0  0  0  0  0  0  0  0  0  0  0
   -1.1005    1.2892   -2.7726 N   0  0  0  0  0  0  0  0  0  0  0  0
   -2.0611    1.3298   -3.7074 C   0  0  0  0  0  0  0  0  0  0  0  0
   -1.8791    1.3031   -4.7744 H   0  0  0  0  0  0  0  0  0  0  0  0
   -3.2733    1.3985   -3.1320 N   0  0  0  0  0  0  0  0  0  0  0  0
   -4.1558    1.4201   -3.6246 H   0  0  0  0  0  0  0  0  0  0  0  0
   -3.1020    1.4164   -1.7656 C   0  0  0  0  0  0  0  0  0  0  0  0
   -3.8703    1.4449   -1.0032 H   0  0  0  0  0  0  0  0  0  0  0  0
    0.1848   -0.1361    1.4958 C   0  0  0  0  0  0  0  0  0  0  0  0
    1.3304    0.3143    1.4982 O   0  0  0  0  0  0  0  0  0  0  0  0
   -0.3856   -0.6456    2.5921 N   0  0  0  0  0  0  0  0  0  0  0  0
   -1.2894   -1.0900    2.4758 H   0  0  0  0  0  0  0  0  0  0  0  0
    0.2544   -0.7298    3.9028 C   0  0  0  0  0  0  0  0  0  0  0  0
    0.8922    0.1428    4.0660 H   0  0  0  0  0  0  0  0  0  0  0  0
   -0.5053   -0.7679    4.6848 H   0  0  0  0  0  0  0  0  0  0  0  0
    0.8695   -1.6298    3.9518 H   0  0  0  0  0  0  0  0  0  0  0  0
  5  6  2  0  0  0  0
  5  7  1  0  0  0  0
  2  3  1  0  0  0  0
  2  4  1  0  0  0  0
  2  5  1  0  0  0  0
  1  2  1  0  0  0  0
 22 23  2  0  0  0  0
 22 24  1  0  0  0  0
 20 21  1  0  0  0  0
 18 19  1  0  0  0  0
 18 20  1  0  0  0  0
 16 17  1  0  0  0  0
 16 18  1  0  0  0  0
 15 16  2  0  0  0  0
 14 15  1  0  0  0  0
 14 20  2  0  0  0  0
 11 12  1  0  0  0  0
 11 13  1  0  0  0  0
 11 14  1  0  0  0  0
  9 10  1  0  0  0  0
  9 11  1  0  0  0  0
  9 22  1  0  0  0  0
  7  8  1  0  0  0  0
  7  9  1  0  0  0  0
 26 27  1  0  0  0  0
 26 28  1  0  0  0  0
 26 29  1  0  0  0  0
 24 25  1  0  0  0  0
 24 26  1  0  0  0  0
M  END
$$$$
default_name
  -OEChem-01062215323D

 29 29  0     1  0  0  0  0  0999 V2000
   -2.9561   -3.9186    1.3887 H   0  0  0  0  0  0  0  0  0  0  0  0
   -3.1191   -2.9346    0.9517 C   0  0  0  0  0  0  0  0  0  0  0  0
   -3.7811   -2.3546    1.5917 H   0  0  0  0  0  0  0  0  0  0  0  0
   -3.5591   -3.0406   -0.0383 H   0  0  0  0  0  0  0  0  0  0  0  0
   -1.7921   -2.2226    0.8327 C   0  0  0  0  0  0  0  0  0  0  0  0
   -0.7611   -2.7766    1.1927 O   0  0  0  0  0  0  0  0  0  0  0  0
   -1.8201   -0.9926    0.3247 N   0  0  0  0  0  0  0  0  0  0  0  0
   -2.7141   -0.5816    0.0927 H   0  0  0  0  0  0  0  0  0  0  0  0
   -0.6481   -0.1156    0.2017 C   0  0  1  0  0  0  0  0  0  0  0  0
   -0.0158   -0.5028   -0.5998 H   0  0  0  0  0  0  0  0  0  0  0  0
   -1.1006    1.3057   -0.1855 C   0  0  0  0  0  0  0  0  0  0  0  0
   -1.8265    1.6730    0.5413 H   0  0  0  0  0  0  0  0  0  0  0  0
   -0.2457    1.9831   -0.1667 H   0  0  0  0  0  0  0  0  0  0  0  0
   -1.7570    1.3629   -1.5434 C   0  0  0  0  0  0  0  0  0  0  0  0
   -1.1005    1.2892   -2.7726 N   0  0  0  0  0  0  0  0  0  0  0  0
   -2.0611    1.3298   -3.7074 C   0  0  0  0  0  0  0  0  0  0  0  0
   -1.8791    1.3031   -4.7744 H   0  0  0  0  0  0  0  0  0  0  0  0
   -3.2733    1.3985   -3.1320 N   0  0  0  0  0  0  0  0  0  0  0  0
   -4.1558    1.4201   -3.6246 H   0  0  0  0  0  0  0  0  0  0  0  0
   -3.1020    1.4164   -1.7656 C   0  0  0  0  0  0  0  0  0  0  0  0
   -3.8703    1.4449   -1.0032 H   0  0  0  0  0  0  0  0  0  0  0  0
    0.1848   -0.1361    1.4958 C   0  0  0  0  0  0  0  0  0  0  0  0
    1.2047    0.5477    1.5829 O   0  0  0  0  0  0  0  0  0  0  0  0
   -0.2477   -0.9062    2.4992 N   0  0  0  0  0  0  0  0  0  0  0  0
   -1.0343   -1.5156    2.3048 H   0  0  0  0  0  0  0  0  0  0  0  0
    0.4111   -1.0325    3.7972 C   0  0  0  0  0  0  0  0  0  0  0  0
    0.8453   -0.0739    4.0927 H   0  0  0  0  0  0  0  0  0  0  0  0
   -0.3126   -1.3442    4.5516 H   0  0  0  0  0  0  0  0  0  0  0  0
    1.2080   -1.7750    3.7316 H   0  0  0  0  0  0  0  0  0  0  0  0
  5  6  2  0  0  0  0
  5  7  1  0  0  0  0
  2  3  1  0  0  0  0
  2  4  1  0  0  0  0
  2  5  1  0  0  0  0
  1  2  1  0  0  0  0
 22 23  2  0  0  0  0
 22 24  1  0  0  0  0
 20 21  1  0  0  0  0
 18 19  1  0  0  0  0
 18 20  1  0  0  0  0
 16 17  1  0  0  0  0
 16 18  1  0  0  0  0
 15 16  2  0  0  0  0
 14 15  1  0  0  0  0
 14 20  2  0  0  0  0
 11 12  1  0  0  0  0
 11 13  1  0  0  0  0
 11 14  1  0  0  0  0
  9 10  1  0  0  0  0
  9 11  1  0  0  0  0
  9 22  1  0  0  0  0
  7  8  1  0  0  0  0
  7  9  1  0  0  0  0
 26 27  1  0  0  0  0
 26 28  1  0  0  0  0
 26 29  1  0  0  0  0
 24 25  1  0  0  0  0
 24 26  1  0  0  0  0
M  END
$$$$
default_name
  -OEChem-01062215323D

 29 29  0     1  0  0  0  0  0999 V2000
   -2.9561   -3.9186    1.3887 H   0  0  0  0  0  0  0  0  0  0  0  0
   -3.1191   -2.9346    0.9517 C   0  0  0  0  0  0  0  0  0  0  0  0
   -3.7811   -2.3546    1.5917 H   0  0  0  0  0  0  0  0  0  0  0  0
   -3.5591   -3.0406   -0.0383 H   0  0  0  0  0  0  0  0  0  0  0  0
   -1.7921   -2.2226    0.8327 C   0  0  0  0  0  0  0  0  0  0  0  0
   -0.7611   -2.7766    1.1927 O   0  0  0  0  0  0  0  0  0  0  0  0
   -1.8201   -0.9926    0.3247 N   0  0  0  0  0  0  0  0  0  0  0  0
   -2.7141   -0.5816    0.0927 H   0  0  0  0  0  0  0  0  0  0  0  0
   -0.6481   -0.1156    0.2017 C   0  0  1  0  0  0  0  0  0  0  0  0
   -0.0158   -0.5028   -0.5998 H   0  0  0  0  0  0  0  0  0  0  0  0
   -1.1006    1.3057   -0.1855 C   0  0  0  0  0  0  0  0  0  0  0  0
   -1.8265    1.6730    0.5413 H   0  0  0  0  0  0  0  0  0  0  0  0
   -0.2457    1.9831   -0.1667 H   0  0  0  0  0  0  0  0  0  0  0  0
   -1.7570    1.3629   -1.5434 C   0  0  0  0  0  0  0  0  0  0  0  0
   -1.1005    1.2892   -2.7726 N   0  0  0  0  0  0  0  0  0  0  0  0
   -2.0611    1.3298   -3.7074 C   0  0  0  0  0  0  0  0  0  0  0  0
   -1.8791    1.3031   -4.7744 H   0  0  0  0  0  0  0  0  0  0  0  0
   -3.2733    1.3985   -3.1320 N   0  0  0  0  0  0  0  0  0  0  0  0
   -4.1558    1.4201   -3.6246 H   0  0  0  0  0  0  0  0  0  0  0  0
   -3.1020    1.4164   -1.7656 C   0  0  0  0  0  0  0  0  0  0  0  0
   -3.8703    1.4449   -1.0032 H   0  0  0  0  0  0  0  0  0  0  0  0
    0.1848   -0.1361    1.4958 C   0  0  0  0  0  0  0  0  0  0  0  0
    1.0322    0.7339    1.6968 O   0  0  0  0  0  0  0  0  0  0  0  0
   -0.0574   -1.1149    2.3734 N   0  0  0  0  0  0  0  0  0  0  0  0
   -0.6946   -1.8472    2.0810 H   0  0  0  0  0  0  0  0  0  0  0  0
    0.6286   -1.2760    3.6533 C   0  0  0  0  0  0  0  0  0  0  0  0
    0.8472   -0.2972    4.0880 H   0  0  0  0  0  0  0  0  0  0  0  0
   -0.0006   -1.8404    4.3429 H   0  0  0  0  0  0  0  0  0  0  0  0
    1.5674   -1.8107    3.4998 H   0  0  0  0  0  0  0  0  0  0  0  0
  5  6  2  0  0  0  0
  5  7  1  0  0  0  0
  2  3  1  0  0  0  0
  2  4  1  0  0  0  0
  2  5  1  0  0  0  0
  1  2  1  0  0  0  0
 22 23  2  0  0  0  0
 22 24  1  0  0  0  0
 20 21  1  0  0  0  0
 18 19  1  0  0  0  0
 18 20  1  0  0  0  0
 16 17  1  0  0  0  0
 16 18  1  0  0  0  0
 15 16  2  0  0  0  0
 14 15  1  0  0  0  0
 14 20  2  0  0  0  0
 11 12  1  0  0  0  0
 11 13  1  0  0  0  0
 11 14  1  0  0  0  0
  9 10  1  0  0  0  0
  9 11  1  0  0  0  0
  9 22  1  0  0  0  0
  7  8  1  0  0  0  0
  7  9  1  0  0  0  0
 26 27  1  0  0  0  0
 26 28  1  0  0  0  0
 26 29  1  0  0  0  0
 24 25  1  0  0  0  0
 24 26  1  0  0  0  0
M  END
$$$$
default_name
  -OEChem-01062215323D

 29 29  0     1  0  0  0  0  0999 V2000
   -2.9561   -3.9186    1.3887 H   0  0  0  0  0  0  0  0  0  0  0  0
   -3.1191   -2.9346    0.9517 C   0  0  0  0  0  0  0  0  0  0  0  0
   -3.7811   -2.3546    1.5917 H   0  0  0  0  0  0  0  0  0  0  0  0
   -3.5591   -3.0406   -0.0383 H   0  0  0  0  0  0  0  0  0  0  0  0
   -1.7921   -2.2226    0.8327 C   0  0  0  0  0  0  0  0  0  0  0  0
   -0.7611   -2.7766    1.1927 O   0  0  0  0  0  0  0  0  0  0  0  0
   -1.8201   -0.9926    0.3247 N   0  0  0  0  0  0  0  0  0  0  0  0
   -2.7141   -0.5816    0.0927 H   0  0  0  0  0  0  0  0  0  0  0  0
   -0.6481   -0.1156    0.2017 C   0  0  1  0  0  0  0  0  0  0  0  0
   -0.0158   -0.5028   -0.5998 H   0  0  0  0  0  0  0  0  0  0  0  0
   -1.1006    1.3057   -0.1855 C   0  0  0  0  0  0  0  0  0  0  0  0
   -1.8265    1.6730    0.5413 H   0  0  0  0  0  0  0  0  0  0  0  0
   -0.2457    1.9831   -0.1667 H   0  0  0  0  0  0  0  0  0  0  0  0
   -1.7570    1.3629   -1.5434 C   0  0  0  0  0  0  0  0  0  0  0  0
   -1.1005    1.2892   -2.7726 N   0  0  0  0  0  0  0  0  0  0  0  0
   -2.0611    1.3298   -3.7074 C   0  0  0  0  0  0  0  0  0  0  0  0
   -1.8791    1.3031   -4.7744 H   0  0  0  0  0  0  0  0  0  0  0  0
   -3.2733    1.3985   -3.1320 N   0  0  0  0  0  0  0  0  0  0  0  0
   -4.1558    1.4201   -3.6246 H   0  0  0  0  0  0  0  0  0  0  0  0
   -3.1020    1.4164   -1.7656 C   0  0  0  0  0  0  0  0  0  0  0  0
   -3.8703    1.4449   -1.0032 H   0  0  0  0  0  0  0  0  0  0  0  0
    0.1848   -0.1361    1.4958 C   0  0  0  0  0  0  0  0  0  0  0  0
    0.8247    0.8602    1.8324 O   0  0  0  0  0  0  0  0  0  0  0  0
    0.1723   -1.2574    2.2234 N   0  0  0  0  0  0  0  0  0  0  0  0
   -0.2936   -2.0623    1.8194 H   0  0  0  0  0  0  0  0  0  0  0  0
    0.8923   -1.4437    3.4809 C   0  0  0  0  0  0  0  0  0  0  0  0
    0.8975   -0.5118    4.0521 H   0  0  0  0  0  0  0  0  0  0  0  0
    0.4095   -2.2225    4.0729 H   0  0  0  0  0  0  0  0  0  0  0  0
    1.9231   -1.7346    3.2720 H   0  0  0  0  0  0  0  0  0  0  0  0
  5  6  2  0  0  0  0
  5  7  1  0  0  0  0
  2  3  1  0  0  0  0
  2  4  1  0  0  0  0
  2  5  1  0  0  0  0
  1  2  1  0  0  0  0
 22 23  2  0  0  0  0
 22 24  1  0  0  0  0
 20 21  1  0  0  0  0
 18 19  1  0  0  0  0
 18 20  1  0  0  0  0
 16 17  1  0  0  0  0
 16 18  1  0  0  0  0
 15 16  2  0  0  0  0
 14 15  1  0  0  0  0
 14 20  2  0  0  0  0
 11 12  1  0  0  0  0
 11 13  1  0  0  0  0
 11 14  1  0  0  0  0
  9 10  1  0  0  0  0
  9 11  1  0  0  0  0
  9 22  1  0  0  0  0
  7  8  1  0  0  0  0
  7  9  1  0  0  0  0
 26 27  1  0  0  0  0
 26 28  1  0  0  0  0
 26 29  1  0  0  0  0
 24 25  1  0  0  0  0
 24 26  1  0  0  0  0
M  END
$$$$
default_name
  -OEChem-01062215323D

 29 29  0     1  0  0  0  0  0999 V2000
   -2.9561   -3.9186    1.3887 H   0  0  0  0  0  0  0  0  0  0  0  0
   -3.1191   -2.9346    0.9517 C   0  0  0  0  0  0  0  0  0  0  0  0
   -3.7811   -2.3546    1.5917 H   0  0  0  0  0  0  0  0  0  0  0  0
   -3.5591   -3.0406   -0.0383 H   0  0  0  0  0  0  0  0  0  0  0  0
   -1.7921   -2.2226    0.8327 C   0  0  0  0  0  0  0  0  0  0  0  0
   -0.7611   -2.7766    1.1927 O   0  0  0  0  0  0  0  0  0  0  0  0
   -1.8201   -0.9926    0.3247 N   0  0  0  0  0  0  0  0  0  0  0  0
   -2.7141   -0.5816    0.0927 H   0  0  0  0  0  0  0  0  0  0  0  0
   -0.6481   -0.1156    0.2017 C   0  0  1  0  0  0  0  0  0  0  0  0
   -0.0158   -0.5028   -0.5998 H   0  0  0  0  0  0  0  0  0  0  0  0
   -1.1006    1.3057   -0.1855 C   0  0  0  0  0  0  0  0  0  0  0  0
   -1.8265    1.6730    0.5413 H   0  0  0  0  0  0  0  0  0  0  0  0
   -0.2457    1.9831   -0.1667 H   0  0  0  0  0  0  0  0  0  0  0  0
   -1.7570    1.3629   -1.5434 C   0  0  0  0  0  0  0  0  0  0  0  0
   -1.1005    1.2892   -2.7726 N   0  0  0  0  0  0  0  0  0  0  0  0
   -2.0611    1.3298   -3.7074 C   0  0  0  0  0  0  0  0  0  0  0  0
   -1.8791    1.3031   -4.7744 H   0  0  0  0  0  0  0  0  0  0  0  0
   -3.2733    1.3985   -3.1320 N   0  0  0  0  0  0  0  0  0  0  0  0
   -4.1558    1.4201   -3.6246 H   0  0  0  0  0  0  0  0  0  0  0  0
   -3.1020    1.4164   -1.7656 C   0  0  0  0  0  0  0  0  0  0  0  0
   -3.8703    1.4449   -1.0032 H   0  0  0  0  0  0  0  0  0  0  0  0
    0.1848   -0.1361    1.4958 C   0  0  0  0  0  0  0  0  0  0  0  0
    0.5963    0.9181    1.9804 O   0  0  0  0  0  0  0  0  0  0  0  0
    0.4256   -1.3241    2.0592 N   0  0  0  0  0  0  0  0  0  0  0  0
    0.1415   -2.1461    1.5381 H   0  0  0  0  0  0  0  0  0  0  0  0
    1.1840   -1.5242    3.2919 C   0  0  0  0  0  0  0  0  0  0  0  0
    0.9930   -0.7031    3.9877 H   0  0  0  0  0  0  0  0  0  0  0  0
    0.8897   -2.4645    3.7600 H   0  0  0  0  0  0  0  0  0  0  0  0
    2.2508   -1.5518    3.0640 H   0  0  0  0  0  0  0  0  0  0  0  0
  5  6  2  0  0  0  0
  5  7  1  0  0  0  0
  2  3  1  0  0  0  0
  2  4  1  0  0  0  0
  2  5  1  0  0  0  0
  1  2  1  0  0  0  0
 22 23  2  0  0  0  0
 22 24  1  0  0  0  0
 20 21  1  0  0  0  0
 18 19  1  0  0  0  0
 18 20  1  0  0  0  0
 16 17  1  0  0  0  0
 16 18  1  0  0  0  0
 15 16  2  0  0  0  0
 14 15  1  0  0  0  0
 14 20  2  0  0  0  0
 11 12  1  0  0  0  0
 11 13  1  0  0  0  0
 11 14  1  0  0  0  0
  9 10  1  0  0  0  0
  9 11  1  0  0  0  0
  9 22  1  0  0  0  0
  7  8  1  0  0  0  0
  7  9  1  0  0  0  0
 26 27  1  0  0  0  0
 26 28  1  0  0  0  0
 26 29  1  0  0  0  0
 24 25  1  0  0  0  0
 24 26  1  0  0  0  0
M  END
$$$$
default_name
  -OEChem-01062215323D

 29 29  0     1  0  0  0  0  0999 V2000
   -2.9561   -3.9186    1.3887 H   0  0  0  0  0  0  0  0  0  0  0  0
   -3.1191   -2.9346    0.9517 C   0  0  0  0  0  0  0  0  0  0  0  0
   -3.7811   -2.3546    1.5917 H   0  0  0  0  0  0  0  0  0  0  0  0
   -3.5591   -3.0406   -0.0383 H   0  0  0  0  0  0  0  0  0  0  0  0
   -1.7921   -2.2226    0.8327 C   0  0  0  0  0  0  0  0  0  0  0  0
   -0.7611   -2.7766    1.1927 O   0  0  0  0  0  0  0  0  0  0  0  0
   -1.8201   -0.9926    0.3247 N   0  0  0  0  0  0  0  0  0  0  0  0
   -2.7141   -0.5816    0.0927 H   0  0  0  0  0  0  0  0  0  0  0  0
   -0.6481   -0.1156    0.2017 C   0  0  1  0  0  0  0  0  0  0  0  0
   -0.0158   -0.5028   -0.5998 H   0  0  0  0  0  0  0  0  0  0  0  0
   -1.1006    1.3057   -0.1855 C   0  0  0  0  0  0  0  0  0  0  0  0
   -1.8265    1.6730    0.5413 H   0  0  0  0  0  0  0  0  0  0  0  0
   -0.2457    1.9831   -0.1667 H   0  0  0  0  0  0  0  0  0  0  0  0
   -1.7570    1.3629   -1.5434 C   0  0  0  0  0  0  0  0  0  0  0  0
   -1.1005    1.2892   -2.7726 N   0  0  0  0  0  0  0  0  0  0  0  0
   -2.0611    1.3298   -3.7074 C   0  0  0  0  0  0  0  0  0  0  0  0
   -1.8791    1.3031   -4.7744 H   0  0  0  0  0  0  0  0  0  0  0  0
   -3.2733    1.3985   -3.1320 N   0  0  0  0  0  0  0  0  0  0  0  0
   -4.1558    1.4201   -3.6246 H   0  0  0  0  0  0  0  0  0  0  0  0
   -3.1020    1.4164   -1.7656 C   0  0  0  0  0  0  0  0  0  0  0  0
   -3.8703    1.4449   -1.0032 H   0  0  0  0  0  0  0  0  0  0  0  0
    0.1848   -0.1361    1.4958 C   0  0  0  0  0  0  0  0  0  0  0  0
    0.3625    0.9035    2.1306 O   0  0  0  0  0  0  0  0  0  0  0  0
    0.6854   -1.3105    1.8922 N   0  0  0  0  0  0  0  0  0  0  0  0
    0.5809   -2.0930    1.2561 H   0  0  0  0  0  0  0  0  0  0  0  0
    1.4840   -1.5119    3.0990 C   0  0  0  0  0  0  0  0  0  0  0  0
    1.1271   -0.8581    3.8989 H   0  0  0  0  0  0  0  0  0  0  0  0
    1.4072   -2.5500    3.4255 H   0  0  0  0  0  0  0  0  0  0  0  0
    2.5284   -1.2747    2.8897 H   0  0  0  0  0  0  0  0  0  0  0  0
  5  6  2  0  0  0  0
  5  7  1  0  0  0  0
  2  3  1  0  0  0  0
  2  4  1  0  0  0  0
  2  5  1  0  0  0  0
  1  2  1  0  0  0  0
 22 23  2  0  0  0  0
 22 24  1  0  0  0  0
 20 21  1  0  0  0  0
 18 19  1  0  0  0  0
 18 20  1  0  0  0  0
 16 17  1  0  0  0  0
 16 18  1  0  0  0  0
 15 16  2  0  0  0  0
 14 15  1  0  0  0  0
 14 20  2  0  0  0  0
 11 12  1  0  0  0  0
 11 13  1  0  0  0  0
 11 14  1  0  0  0  0
  9 10  1  0  0  0  0
  9 11  1  0  0  0  0
  9 22  1  0  0  0  0
  7  8  1  0  0  0  0
  7  9  1  0  0  0  0
 26 27  1  0  0  0  0
 26 28  1  0  0  0  0
 26 29  1  0  0  0  0
 24 25  1  0  0  0  0
 24 26  1  0  0  0  0
M  END
$$$$
default_name
  -OEChem-01062215323D

 29 29  0     1  0  0  0  0  0999 V2000
   -2.9561   -3.9186    1.3887 H   0  0  0  0  0  0  0  0  0  0  0  0
   -3.1191   -2.9346    0.9517 C   0  0  0  0  0  0  0  0  0  0  0  0
   -3.7811   -2.3546    1.5917 H   0  0  0  0  0  0  0  0  0  0  0  0
   -3.5591   -3.0406   -0.0383 H   0  0  0  0  0  0  0  0  0  0  0  0
   -1.7921   -2.2226    0.8327 C   0  0  0  0  0  0  0  0  0  0  0  0
   -0.7611   -2.7766    1.1927 O   0  0  0  0  0  0  0  0  0  0  0  0
   -1.8201   -0.9926    0.3247 N   0  0  0  0  0  0  0  0  0  0  0  0
   -2.7141   -0.5816    0.0927 H   0  0  0  0  0  0  0  0  0  0  0  0
   -0.6481   -0.1156    0.2017 C   0  0  1  0  0  0  0  0  0  0  0  0
   -0.0158   -0.5028   -0.5998 H   0  0  0  0  0  0  0  0  0  0  0  0
   -1.1006    1.3057   -0.1855 C   0  0  0  0  0  0  0  0  0  0  0  0
   -1.8265    1.6730    0.5413 H   0  0  0  0  0  0  0  0  0  0  0  0
   -0.2457    1.9831   -0.1667 H   0  0  0  0  0  0  0  0  0  0  0  0
   -1.7570    1.3629   -1.5434 C   0  0  0  0  0  0  0  0  0  0  0  0
   -1.1005    1.2892   -2.7726 N   0  0  0  0  0  0  0  0  0  0  0  0
   -2.0611    1.3298   -3.7074 C   0  0  0  0  0  0  0  0  0  0  0  0
   -1.8791    1.3031   -4.7744 H   0  0  0  0  0  0  0  0  0  0  0  0
   -3.2733    1.3985   -3.1320 N   0  0  0  0  0  0  0  0  0  0  0  0
   -4.1558    1.4201   -3.6246 H   0  0  0  0  0  0  0  0  0  0  0  0
   -3.1020    1.4164   -1.7656 C   0  0  0  0  0  0  0  0  0  0  0  0
   -3.8703    1.4449   -1.0032 H   0  0  0  0  0  0  0  0  0  0  0  0
    0.1848   -0.1361    1.4958 C   0  0  0  0  0  0  0  0  0  0  0  0
    0.1394    0.8176    2.2728 O   0  0  0  0  0  0  0  0  0  0  0  0
    0.9340   -1.2173    1.7337 N   0  0  0  0  0  0  0  0  0  0  0  0
    0.9948   -1.9065    0.9926 H   0  0  0  0  0  0  0  0  0  0  0  0
    1.7717   -1.4078    2.9154 C   0  0  0  0  0  0  0  0  0  0  0  0
    1.2906   -0.9662    3.7919 H   0  0  0  0  0  0  0  0  0  0  0  0
    1.9269   -2.4731    3.0922 H   0  0  0  0  0  0  0  0  0  0  0  0
    2.7368   -0.9223    2.7612 H   0  0  0  0  0  0  0  0  0  0  0  0
  5  6  2  0  0  0  0
  5  7  1  0  0  0  0
  2  3  1  0  0  0  0
  2  4  1  0  0  0  0
  2  5  1  0  0  0  0
  1  2  1  0  0  0  0
 22 23  2  0  0  0  0
 22 24  1  0  0  0  0
 20 21  1  0  0  0  0
 18 19  1  0  0  0  0
 18 20  1  0  0  0  0
 16 17  1  0  0  0  0
 16 18  1  0  0  0  0
 15 16  2  0  0  0  0
 14 15  1  0  0  0  0
 14 20  2  0  0  0  0
 11 12  1  0  0  0  0
 11 13  1  0  0  0  0
 11 14  1  0  0  0  0
  9 10  1  0  0  0  0
  9 11  1  0  0  0  0
  9 22  1  0  0  0  0
  7  8  1  0  0  0  0
  7  9  1  0  0  0  0
 26 27  1  0  0  0  0
 26 28  1  0  0  0  0
 26 29  1  0  0  0  0
 24 25  1  0  0  0  0
 24 26  1  0  0  0  0
M  END
$$$$
default_name
  -OEChem-01062215323D

 29 29  0     1  0  0  0  0  0999 V2000
   -2.9561   -3.9186    1.3887 H   0  0  0  0  0  0  0  0  0  0  0  0
   -3.1191   -2.9346    0.9517 C   0  0  0  0  0  0  0  0  0  0  0  0
   -3.7811   -2.3546    1.5917 H   0  0  0  0  0  0  0  0  0  0  0  0
   -3.5591   -3.0406   -0.0383 H   0  0  0  0  0  0  0  0  0  0  0  0
   -1.7921   -2.2226    0.8327 C   0  0  0  0  0  0  0  0  0  0  0  0
   -0.7611   -2.7766    1.1927 O   0  0  0  0  0  0  0  0  0  0  0  0
   -1.8201   -0.9926    0.3247 N   0  0  0  0  0  0  0  0  0  0  0  0
   -2.7141   -0.5816    0.0927 H   0  0  0  0  0  0  0  0  0  0  0  0
   -0.6481   -0.1156    0.2017 C   0  0  1  0  0  0  0  0  0  0  0  0
   -0.0158   -0.5028   -0.5998 H   0  0  0  0  0  0  0  0  0  0  0  0
   -1.1006    1.3057   -0.1855 C   0  0  0  0  0  0  0  0  0  0  0  0
   -1.8265    1.6730    0.5413 H   0  0  0  0  0  0  0  0  0  0  0  0
   -0.2457    1.9831   -0.1667 H   0  0  0  0  0  0  0  0  0  0  0  0
   -1.7570    1.3629   -1.5434 C   0  0  0  0  0  0  0  0  0  0  0  0
   -1.1005    1.2892   -2.7726 N   0  0  0  0  0  0  0  0  0  0  0  0
   -2.0611    1.3298   -3.7074 C   0  0  0  0  0  0  0  0  0  0  0  0
   -1.8791    1.3031   -4.7744 H   0  0  0  0  0  0  0  0  0  0  0  0
   -3.2733    1.3985   -3.1320 N   0  0  0  0  0  0  0  0  0  0  0  0
   -4.1558    1.4201   -3.6246 H   0  0  0  0  0  0  0  0  0  0  0  0
   -3.1020    1.4164   -1.7656 C   0  0  0  0  0  0  0  0  0  0  0  0
   -3.8703    1.4449   -1.0032 H   0  0  0  0  0  0  0  0  0  0  0  0
    0.1848   -0.1361    1.4958 C   0  0  0  0  0  0  0  0  0  0  0  0
   -0.0579    0.6661    2.3974 O   0  0  0  0  0  0  0  0  0  0  0  0
    1.1544   -1.0510    1.5945 N   0  0  0  0  0  0  0  0  0  0  0  0
    1.3549   -1.5995    0.7657 H   0  0  0  0  0  0  0  0  0  0  0  0
    2.0277   -1.2189    2.7537 C   0  0  0  0  0  0  0  0  0  0  0  0
    1.4725   -1.0200    3.6740 H   0  0  0  0  0  0  0  0  0  0  0  0
    2.4133   -2.2390    2.7829 H   0  0  0  0  0  0  0  0  0  0  0  0
    2.8618   -0.5185    2.6871 H   0  0  0  0  0  0  0  0  0  0  0  0
  5  6  2  0  0  0  0
  5  7  1  0  0  0  0
  2  3  1  0  0  0  0
  2  4  1  0  0  0  0
  2  5  1  0  0  0  0
  1  2  1  0  0  0  0
 22 23  2  0  0  0  0
 22 24  1  0  0  0  0
 20 21  1  0  0  0  0
 18 19  1  0  0  0  0
 18 20  1  0  0  0  0
 16 17  1  0  0  0  0
 16 18  1  0  0  0  0
 15 16  2  0  0  0  0
 14 15  1  0  0  0  0
 14 20  2  0  0  0  0
 11 12  1  0  0  0  0
 11 13  1  0  0  0  0
 11 14  1  0  0  0  0
  9 10  1  0  0  0  0
  9 11  1  0  0  0  0
  9 22  1  0  0  0  0
  7  8  1  0  0  0  0
  7  9  1  0  0  0  0
 26 27  1  0  0  0  0
 26 28  1  0  0  0  0
 26 29  1  0  0  0  0
 24 25  1  0  0  0  0
 24 26  1  0  0  0  0
M  END
$$$$
default_name
  -OEChem-01062215323D

 29 29  0     1  0  0  0  0  0999 V2000
   -2.9561   -3.9186    1.3887 H   0  0  0  0  0  0  0  0  0  0  0  0
   -3.1191   -2.9346    0.9517 C   0  0  0  0  0  0  0  0  0  0  0  0
   -3.7811   -2.3546    1.5917 H   0  0  0  0  0  0  0  0  0  0  0  0
   -3.5591   -3.0406   -0.0383 H   0  0  0  0  0  0  0  0  0  0  0  0
   -1.7921   -2.2226    0.8327 C   0  0  0  0  0  0  0  0  0  0  0  0
   -0.7611   -2.7766    1.1927 O   0  0  0  0  0  0  0  0  0  0  0  0
   -1.8201   -0.9926    0.3247 N   0  0  0  0  0  0  0  0  0  0  0  0
   -2.7141   -0.5816    0.0927 H   0  0  0  0  0  0  0  0  0  0  0  0
   -0.6481   -0.1156    0.2017 C   0  0  1  0  0  0  0  0  0  0  0  0
   -0.0158   -0.5028   -0.5998 H   0  0  0  0  0  0  0  0  0  0  0  0
   -1.1006    1.3057   -0.1855 C   0  0  0  0  0  0  0  0  0  0  0  0
   -1.8265    1.6730    0.5413 H   0  0  0  0  0  0  0  0  0  0  0  0
   -0.2457    1.9831   -0.1667 H   0  0  0  0  0  0  0  0  0  0  0  0
   -1.7570    1.3629   -1.5434 C   0  0  0  0  0  0  0  0  0  0  0  0
   -1.1005    1.2892   -2.7726 N   0  0  0  0  0  0  0  0  0  0  0  0
   -2.0611    1.3298   -3.7074 C   0  0  0  0  0  0  0  0  0  0  0  0
   -1.8791    1.3031   -4.7744 H   0  0  0  0  0  0  0  0  0  0  0  0
   -3.2733    1.3985   -3.1320 N   0  0  0  0  0  0  0  0  0  0  0  0
   -4.1558    1.4201   -3.6246 H   0  0  0  0  0  0  0  0  0  0  0  0
   -3.1020    1.4164   -1.7656 C   0  0  0  0  0  0  0  0  0  0  0  0
   -3.8703    1.4449   -1.0032 H   0  0  0  0  0  0  0  0  0  0  0  0
    0.1848   -0.1361    1.4958 C   0  0  0  0  0  0  0  0  0  0  0  0
   -0.2160    0.4594    2.4959 O   0  0  0  0  0  0  0  0  0  0  0  0
    1.3315   -0.8230    1.4841 N   0  0  0  0  0  0  0  0  0  0  0  0
    1.6368   -1.1927    0.5908 H   0  0  0  0  0  0  0  0  0  0  0  0
    2.2343   -0.9581    2.6248 C   0  0  0  0  0  0  0  0  0  0  0  0
    1.6603   -1.0159    3.5532 H   0  0  0  0  0  0  0  0  0  0  0  0
    2.8333   -1.8637    2.5185 H   0  0  0  0  0  0  0  0  0  0  0  0
    2.8950   -0.0909    2.6726 H   0  0  0  0  0  0  0  0  0  0  0  0
  5  6  2  0  0  0  0
  5  7  1  0  0  0  0
  2  3  1  0  0  0  0
  2  4  1  0  0  0  0
  2  5  1  0  0  0  0
  1  2  1  0  0  0  0
 22 23  2  0  0  0  0
 22 24  1  0  0  0  0
 20 21  1  0  0  0  0
 18 19  1  0  0  0  0
 18 20  1  0  0  0  0
 16 17  1  0  0  0  0
 16 18  1  0  0  0  0
 15 16  2  0  0  0  0
 14 15  1  0  0  0  0
 14 20  2  0  0  0  0
 11 12  1  0  0  0  0
 11 13  1  0  0  0  0
 11 14  1  0  0  0  0
  9 10  1  0  0  0  0
  9 11  1  0  0  0  0
  9 22  1  0  0  0  0
  7  8  1  0  0  0  0
  7  9  1  0  0  0  0
 26 27  1  0  0  0  0
 26 28  1  0  0  0  0
 26 29  1  0  0  0  0
 24 25  1  0  0  0  0
 24 26  1  0  0  0  0
M  END
$$$$
default_name
  -OEChem-01062215323D

 29 29  0     1  0  0  0  0  0999 V2000
   -2.9561   -3.9186    1.3887 H   0  0  0  0  0  0  0  0  0  0  0  0
   -3.1191   -2.9346    0.9517 C   0  0  0  0  0  0  0  0  0  0  0  0
   -3.7811   -2.3546    1.5917 H   0  0  0  0  0  0  0  0  0  0  0  0
   -3.5591   -3.0406   -0.0383 H   0  0  0  0  0  0  0  0  0  0  0  0
   -1.7921   -2.2226    0.8327 C   0  0  0  0  0  0  0  0  0  0  0  0
   -0.7611   -2.7766    1.1927 O   0  0  0  0  0  0  0  0  0  0  0  0
   -1.8201   -0.9926    0.3247 N   0  0  0  0  0  0  0  0  0  0  0  0
   -2.7141   -0.5816    0.0927 H   0  0  0  0  0  0  0  0  0  0  0  0
   -0.6481   -0.1156    0.2017 C   0  0  1  0  0  0  0  0  0  0  0  0
   -0.0158   -0.5028   -0.5998 H   0  0  0  0  0  0  0  0  0  0  0  0
   -1.1006    1.3057   -0.1855 C   0  0  0  0  0  0  0  0  0  0  0  0
   -1.8265    1.6730    0.5413 H   0  0  0  0  0  0  0  0  0  0  0  0
   -0.2457    1.9831   -0.1667 H   0  0  0  0  0  0  0  0  0  0  0  0
   -1.7570    1.3629   -1.5434 C   0  0  0  0  0  0  0  0  0  0  0  0
   -1.1005    1.2892   -2.7726 N   0  0  0  0  0  0  0  0  0  0  0  0
   -2.0611    1.3298   -3.7074 C   0  0  0  0  0  0  0  0  0  0  0  0
   -1.8791    1.3031   -4.7744 H   0  0  0  0  0  0  0  0  0  0  0  0
   -3.2733    1.3985   -3.1320 N   0  0  0  0  0  0  0  0  0  0  0  0
   -4.1558    1.4201   -3.6246 H   0  0  0  0  0  0  0  0  0  0  0  0
   -3.1020    1.4164   -1.7656 C   0  0  0  0  0  0  0  0  0  0  0  0
   -3.8703    1.4449   -1.0032 H   0  0  0  0  0  0  0  0  0  0  0  0
    0.1848   -0.1361    1.4958 C   0  0  0  0  0  0  0  0  0  0  0  0
   -0.3240    0.2115    2.5615 O   0  0  0  0  0  0  0  0  0  0  0  0
    1.4534   -0.5487    1.4100 N   0  0  0  0  0  0  0  0  0  0  0  0
    1.8211   -0.7140    0.4798 H   0  0  0  0  0  0  0  0  0  0  0  0
    2.3776   -0.6432    2.5376 C   0  0  0  0  0  0  0  0  0  0  0  0
    1.8412   -0.9542    3.4377 H   0  0  0  0  0  0  0  0  0  0  0  0
    3.1582   -1.3728    2.3172 H   0  0  0  0  0  0  0  0  0  0  0  0
    2.8340    0.3314    2.7185 H   0  0  0  0  0  0  0  0  0  0  0  0
  5  6  2  0  0  0  0
  5  7  1  0  0  0  0
  2  3  1  0  0  0  0
  2  4  1  0  0  0  0
  2  5  1  0  0  0  0
  1  2  1  0  0  0  0
 22 23  2  0  0  0  0
 22 24  1  0  0  0  0
 20 21  1  0  0  0  0
 18 19  1  0  0  0  0
 18 20  1  0  0  0  0
 16 17  1  0  0  0  0
 16 18  1  0  0  0  0
 15 16  2  0  0  0  0
 14 15  1  0  0  0  0
 14 20  2  0  0  0  0
 11 12  1  0  0  0  0
 11 13  1  0  0  0  0
 11 14  1  0  0  0  0
  9 10  1  0  0  0  0
  9 11  1  0  0  0  0
  9 22  1  0  0  0  0
  7  8  1  0  0  0  0
  7  9  1  0  0  0  0
 26 27  1  0  0  0  0
 26 28  1  0  0  0  0
 26 29  1  0  0  0  0
 24 25  1  0  0  0  0
 24 26  1  0  0  0  0
M  END
$$$$
default_name
  -OEChem-01062215323D

 29 29  0     1  0  0  0  0  0999 V2000
   -2.9561   -3.9186    1.3887 H   0  0  0  0  0  0  0  0  0  0  0  0
   -3.1191   -2.9346    0.9517 C   0  0  0  0  0  0  0  0  0  0  0  0
   -3.7811   -2.3546    1.5917 H   0  0  0  0  0  0  0  0  0  0  0  0
   -3.5591   -3.0406   -0.0383 H   0  0  0  0  0  0  0  0  0  0  0  0
   -1.7921   -2.2226    0.8327 C   0  0  0  0  0  0  0  0  0  0  0  0
   -0.7611   -2.7766    1.1927 O   0  0  0  0  0  0  0  0  0  0  0  0
   -1.8201   -0.9926    0.3247 N   0  0  0  0  0  0  0  0  0  0  0  0
   -2.7141   -0.5816    0.0927 H   0  0  0  0  0  0  0  0  0  0  0  0
   -0.6481   -0.1156    0.2017 C   0  0  1  0  0  0  0  0  0  0  0  0
   -0.0158   -0.5028   -0.5998 H   0  0  0  0  0  0  0  0  0  0  0  0
   -1.1006    1.3057   -0.1855 C   0  0  0  0  0  0  0  0  0  0  0  0
   -1.8265    1.6730    0.5413 H   0  0  0  0  0  0  0  0  0  0  0  0
   -0.2457    1.9831   -0.1667 H   0  0  0  0  0  0  0  0  0  0  0  0
   -1.7570    1.3629   -1.5434 C   0  0  0  0  0  0  0  0  0  0  0  0
   -1.1005    1.2892   -2.7726 N   0  0  0  0  0  0  0  0  0  0  0  0
   -2.0611    1.3298   -3.7074 C   0  0  0  0  0  0  0  0  0  0  0  0
   -1.8791    1.3031   -4.7744 H   0  0  0  0  0  0  0  0  0  0  0  0
   -3.2733    1.3985   -3.1320 N   0  0  0  0  0  0  0  0  0  0  0  0
   -4.1558    1.4201   -3.6246 H   0  0  0  0  0  0  0  0  0  0  0  0
   -3.1020    1.4164   -1.7656 C   0  0  0  0  0  0  0  0  0  0  0  0
   -3.8703    1.4449   -1.0032 H   0  0  0  0  0  0  0  0  0  0  0  0
    0.1848   -0.1361    1.4958 C   0  0  0  0  0  0  0  0  0  0  0  0
   -0.3747   -0.0606    2.5898 O   0  0  0  0  0  0  0  0  0  0  0  0
    1.5117   -0.2468    1.3773 N   0  0  0  0  0  0  0  0  0  0  0  0
    1.8953   -0.1960    0.4402 H   0  0  0  0  0  0  0  0  0  0  0  0
    2.4478   -0.2956    2.4979 C   0  0  0  0  0  0  0  0  0  0  0  0
    2.0029   -0.8390    3.3355 H   0  0  0  0  0  0  0  0  0  0  0  0
    3.3658   -0.7997    2.1927 H   0  0  0  0  0  0  0  0  0  0  0  0
    2.6830    0.7196    2.8219 H   0  0  0  0  0  0  0  0  0  0  0  0
  5  6  2  0  0  0  0
  5  7  1  0  0  0  0
  2  3  1  0  0  0  0
  2  4  1  0  0  0  0
  2  5  1  0  0  0  0
  1  2  1  0  0  0  0
 22 23  2  0  0  0  0
 22 24  1  0  0  0  0
 20 21  1  0  0  0  0
 18 19  1  0  0  0  0
 18 20  1  0  0  0  0
 16 17  1  0  0  0  0
 16 18  1  0  0  0  0
 15 16  2  0  0  0  0
 14 15  1  0  0  0  0
 14 20  2  0  0  0  0
 11 12  1  0  0  0  0
 11 13  1  0  0  0  0
 11 14  1  0  0  0  0
  9 10  1  0  0  0  0
  9 11  1  0  0  0  0
  9 22  1  0  0  0  0
  7  8  1  0  0  0  0
  7  9  1  0  0  0  0
 26 27  1  0  0  0  0
 26 28  1  0  0  0  0
 26 29  1  0  0  0  0
 24 25  1  0  0  0  0
 24 26  1  0  0  0  0
M  END
$$$$
default_name
  -OEChem-01062215323D

 29 29  0     1  0  0  0  0  0999 V2000
   -2.9561   -3.9186    1.3887 H   0  0  0  0  0  0  0  0  0  0  0  0
   -3.1191   -2.9346    0.9517 C   0  0  0  0  0  0  0  0  0  0  0  0
   -3.7811   -2.3546    1.5917 H   0  0  0  0  0  0  0  0  0  0  0  0
   -3.5591   -3.0406   -0.0383 H   0  0  0  0  0  0  0  0  0  0  0  0
   -1.7921   -2.2226    0.8327 C   0  0  0  0  0  0  0  0  0  0  0  0
   -0.7611   -2.7766    1.1927 O   0  0  0  0  0  0  0  0  0  0  0  0
   -1.8201   -0.9926    0.3247 N   0  0  0  0  0  0  0  0  0  0  0  0
   -2.7141   -0.5816    0.0927 H   0  0  0  0  0  0  0  0  0  0  0  0
   -0.6481   -0.1156    0.2017 C   0  0  1  0  0  0  0  0  0  0  0  0
   -0.0158   -0.5028   -0.5998 H   0  0  0  0  0  0  0  0  0  0  0  0
   -1.1006    1.3057   -0.1855 C   0  0  0  0  0  0  0  0  0  0  0  0
   -1.8265    1.6730    0.5413 H   0  0  0  0  0  0  0  0  0  0  0  0
   -0.2457    1.9831   -0.1667 H   0  0  0  0  0  0  0  0  0  0  0  0
   -1.7570    1.3629   -1.5434 C   0  0  0  0  0  0  0  0  0  0  0  0
   -1.1005    1.2892   -2.7726 N   0  0  0  0  0  0  0  0  0  0  0  0
   -2.0611    1.3298   -3.7074 C   0  0  0  0  0  0  0  0  0  0  0  0
   -1.8791    1.3031   -4.7744 H   0  0  0  0  0  0  0  0  0  0  0  0
   -3.2733    1.3985   -3.1320 N   0  0  0  0  0  0  0  0  0  0  0  0
   -4.1558    1.4201   -3.6246 H   0  0  0  0  0  0  0  0  0  0  0  0
   -3.1020    1.4164   -1.7656 C   0  0  0  0  0  0  0  0  0  0  0  0
   -3.8703    1.4449   -1.0032 H   0  0  0  0  0  0  0  0  0  0  0  0
    0.1848   -0.1361    1.4958 C   0  0  0  0  0  0  0  0  0  0  0  0
   -0.3644   -0.3384    2.5788 O   0  0  0  0  0  0  0  0  0  0  0  0
    1.5024    0.0620    1.3882 N   0  0  0  0  0  0  0  0  0  0  0  0
    1.8544    0.3261    0.4748 H   0  0  0  0  0  0  0  0  0  0  0  0
    2.4401    0.0610    2.5086 C   0  0  0  0  0  0  0  0  0  0  0  0
    2.1344   -0.6782    3.2534 H   0  0  0  0  0  0  0  0  0  0  0  0
    3.4421   -0.1835    2.1533 H   0  0  0  0  0  0  0  0  0  0  0  0
    2.4524    1.0473    2.9755 H   0  0  0  0  0  0  0  0  0  0  0  0
  5  6  2  0  0  0  0
  5  7  1  0  0  0  0
  2  3  1  0  0  0  0
  2  4  1  0  0  0  0
  2  5  1  0  0  0  0
  1  2  1  0  0  0  0
 22 23  2  0  0  0  0
 22 24  1  0  0  0  0
 20 21  1  0  0  0  0
 18 19  1  0  0  0  0
 18 20  1  0  0  0  0
 16 17  1  0  0  0  0
 16 18  1  0  0  0  0
 15 16  2  0  0  0  0
 14 15  1  0  0  0  0
 14 20  2  0  0  0  0
 11 12  1  0  0  0  0
 11 13  1  0  0  0  0
 11 14  1  0  0  0  0
  9 10  1  0  0  0  0
  9 11  1  0  0  0  0
  9 22  1  0  0  0  0
  7  8  1  0  0  0  0
  7  9  1  0  0  0  0
 26 27  1  0  0  0  0
 26 28  1  0  0  0  0
 26 29  1  0  0  0  0
 24 25  1  0  0  0  0
 24 26  1  0  0  0  0
M  END
$$$$
default_name
  -OEChem-01062215323D

 29 29  0     1  0  0  0  0  0999 V2000
   -2.9561   -3.9186    1.3887 H   0  0  0  0  0  0  0  0  0  0  0  0
   -3.1191   -2.9346    0.9517 C   0  0  0  0  0  0  0  0  0  0  0  0
   -3.7811   -2.3546    1.5917 H   0  0  0  0  0  0  0  0  0  0  0  0
   -3.5591   -3.0406   -0.0383 H   0  0  0  0  0  0  0  0  0  0  0  0
   -1.7921   -2.2226    0.8327 C   0  0  0  0  0  0  0  0  0  0  0  0
   -0.7611   -2.7766    1.1927 O   0  0  0  0  0  0  0  0  0  0  0  0
   -1.8201   -0.9926    0.3247 N   0  0  0  0  0  0  0  0  0  0  0  0
   -2.7141   -0.5816    0.0927 H   0  0  0  0  0  0  0  0  0  0  0  0
   -0.6481   -0.1156    0.2017 C   0  0  1  0  0  0  0  0  0  0  0  0
   -0.0158   -0.5028   -0.5998 H   0  0  0  0  0  0  0  0  0  0  0  0
   -1.1006    1.3057   -0.1855 C   0  0  0  0  0  0  0  0  0  0  0  0
   -1.8265    1.6730    0.5413 H   0  0  0  0  0  0  0  0  0  0  0  0
   -0.2457    1.9831   -0.1667 H   0  0  0  0  0  0  0  0  0  0  0  0
   -1.7570    1.3629   -1.5434 C   0  0  0  0  0  0  0  0  0  0  0  0
   -1.1005    1.2892   -2.7726 N   0  0  0  0  0  0  0  0  0  0  0  0
   -2.0611    1.3298   -3.7074 C   0  0  0  0  0  0  0  0  0  0  0  0
   -1.8791    1.3031   -4.7744 H   0  0  0  0  0  0  0  0  0  0  0  0
   -3.2733    1.3985   -3.1320 N   0  0  0  0  0  0  0  0  0  0  0  0
   -4.1558    1.4201   -3.6246 H   0  0  0  0  0  0  0  0  0  0  0  0
   -3.1020    1.4164   -1.7656 C   0  0  0  0  0  0  0  0  0  0  0  0
   -3.8703    1.4449   -1.0032 H   0  0  0  0  0  0  0  0  0  0  0  0
    0.1848   -0.1361    1.4958 C   0  0  0  0  0  0  0  0  0  0  0  0
   -0.2941   -0.6030    2.5293 O   0  0  0  0  0  0  0  0  0  0  0  0
    1.4262    0.3568    1.4419 N   0  0  0  0  0  0  0  0  0  0  0  0
    1.7011    0.8167    0.5812 H   0  0  0  0  0  0  0  0  0  0  0  0
    2.3550    0.4023    2.5688 C   0  0  0  0  0  0  0  0  0  0  0  0
    2.2267   -0.4828    3.1971 H   0  0  0  0  0  0  0  0  0  0  0  0
    3.3819    0.4338    2.2019 H   0  0  0  0  0  0  0  0  0  0  0  0
    2.1578    1.2920    3.1690 H   0  0  0  0  0  0  0  0  0  0  0  0
  5  6  2  0  0  0  0
  5  7  1  0  0  0  0
  2  3  1  0  0  0  0
  2  4  1  0  0  0  0
  2  5  1  0  0  0  0
  1  2  1  0  0  0  0
 22 23  2  0  0  0  0
 22 24  1  0  0  0  0
 20 21  1  0  0  0  0
 18 19  1  0  0  0  0
 18 20  1  0  0  0  0
 16 17  1  0  0  0  0
 16 18  1  0  0  0  0
 15 16  2  0  0  0  0
 14 15  1  0  0  0  0
 14 20  2  0  0  0  0
 11 12  1  0  0  0  0
 11 13  1  0  0  0  0
 11 14  1  0  0  0  0
  9 10  1  0  0  0  0
  9 11  1  0  0  0  0
  9 22  1  0  0  0  0
  7  8  1  0  0  0  0
  7  9  1  0  0  0  0
 26 27  1  0  0  0  0
 26 28  1  0  0  0  0
 26 29  1  0  0  0  0
 24 25  1  0  0  0  0
 24 26  1  0  0  0  0
M  END
$$$$
default_name
  -OEChem-01062215323D

 29 29  0     1  0  0  0  0  0999 V2000
   -2.9561   -3.9186    1.3887 H   0  0  0  0  0  0  0  0  0  0  0  0
   -3.1191   -2.9346    0.9517 C   0  0  0  0  0  0  0  0  0  0  0  0
   -3.7811   -2.3546    1.5917 H   0  0  0  0  0  0  0  0  0  0  0  0
   -3.5591   -3.0406   -0.0383 H   0  0  0  0  0  0  0  0  0  0  0  0
   -1.7921   -2.2226    0.8327 C   0  0  0  0  0  0  0  0  0  0  0  0
   -0.7611   -2.7766    1.1927 O   0  0  0  0  0  0  0  0  0  0  0  0
   -1.8201   -0.9926    0.3247 N   0  0  0  0  0  0  0  0  0  0  0  0
   -2.7141   -0.5816    0.0927 H   0  0  0  0  0  0  0  0  0  0  0  0
   -0.6481   -0.1156    0.2017 C   0  0  1  0  0  0  0  0  0  0  0  0
   -0.1603   -0.3309   -0.7511 H   0  0  0  0  0  0  0  0  0  0  0  0
   -1.1001    1.3577    0.1896 C   0  0  0  0  0  0  0  0  0  0  0  0
   -1.6924    1.5695    1.0809 H   0  0  0  0  0  0  0  0  0  0  0  0
   -0.2273    2.0116    0.2125 H   0  0  0  0  0  0  0  0  0  0  0  0
   -1.9529    1.6999   -1.0077 C   0  0  0  0  0  0  0  0  0  0  0  0
   -1.4945    1.8801   -2.3134 N   0  0  0  0  0  0  0  0  0  0  0  0
   -2.5840    2.1197   -3.0576 C   0  0  0  0  0  0  0  0  0  0  0  0
   -2.5677    2.3147   -4.1225 H   0  0  0  0  0  0  0  0  0  0  0  0
   -3.6910    2.0737   -2.2975 N   0  0  0  0  0  0  0  0  0  0  0  0
   -4.6367    2.2022   -2.6307 H   0  0  0  0  0  0  0  0  0  0  0  0
   -3.3131    1.8058   -1.0006 C   0  0  0  0  0  0  0  0  0  0  0  0
   -3.9547    1.6791   -0.1377 H   0  0  0  0  0  0  0  0  0  0  0  0
    0.3707   -0.4096    1.3172 C   0  0  0  0  0  0  0  0  0  0  0  0
    0.1399   -1.2902    2.1459 O   0  0  0  0  0  0  0  0  0  0  0  0
    1.4950    0.3132    1.3362 N   0  0  0  0  0  0  0  0  0  0  0  0
    1.5553    1.0865    0.6833 H   0  0  0  0  0  0  0  0  0  0  0  0
    2.5706    0.1567    2.3125 C   0  0  0  0  0  0  0  0  0  0  0  0
    2.6836   -0.8968    2.5810 H   0  0  0  0  0  0  0  0  0  0  0  0
    3.5092    0.5205    1.8917 H   0  0  0  0  0  0  0  0  0  0  0  0
    2.3328    0.7261    3.2125 H   0  0  0  0  0  0  0  0  0  0  0  0
  5  6  2  0  0  0  0
  5  7  1  0  0  0  0
  2  3  1  0  0  0  0
  2  4  1  0  0  0  0
  2  5  1  0  0  0  0
  1  2  1  0  0  0  0
 22 23  2  0  0  0  0
 22 24  1  0  0  0  0
 20 21  1  0  0  0  0
 18 19  1  0  0  0  0
 18 20  1  0  0  0  0
 16 17  1  0  0  0  0
 16 18  1  0  0  0  0
 15 16  2  0  0  0  0
 14 15  1  0  0  0  0
 14 20  2  0  0  0  0
 11 12  1  0  0  0  0
 11 13  1  0  0  0  0
 11 14  1  0  0  0  0
  9 10  1  0  0  0  0
  9 11  1  0  0  0  0
  9 22  1  0  0  0  0
  7  8  1  0  0  0  0
  7  9  1  0  0  0  0
 26 27  1  0  0  0  0
 26 28  1  0  0  0  0
 26 29  1  0  0  0  0
 24 25  1  0  0  0  0
 24 26  1  0  0  0  0
M  END
$$$$
default_name
  -OEChem-01062215323D

 29 29  0     1  0  0  0  0  0999 V2000
   -2.9561   -3.9186    1.3887 H   0  0  0  0  0  0  0  0  0  0  0  0
   -3.1191   -2.9346    0.9517 C   0  0  0  0  0  0  0  0  0  0  0  0
   -3.7811   -2.3546    1.5917 H   0  0  0  0  0  0  0  0  0  0  0  0
   -3.5591   -3.0406   -0.0383 H   0  0  0  0  0  0  0  0  0  0  0  0
   -1.7921   -2.2226    0.8327 C   0  0  0  0  0  0  0  0  0  0  0  0
   -0.7611   -2.7766    1.1927 O   0  0  0  0  0  0  0  0  0  0  0  0
   -1.8201   -0.9926    0.3247 N   0  0  0  0  0  0  0  0  0  0  0  0
   -2.7141   -0.5816    0.0927 H   0  0  0  0  0  0  0  0  0  0  0  0
   -0.6481   -0.1156    0.2017 C   0  0  1  0  0  0  0  0  0  0  0  0
   -0.1603   -0.3309   -0.7511 H   0  0  0  0  0  0  0  0  0  0  0  0
   -1.1001    1.3577    0.1896 C   0  0  0  0  0  0  0  0  0  0  0  0
   -1.6924    1.5695    1.0809 H   0  0  0  0  0  0  0  0  0  0  0  0
   -0.2273    2.0116    0.2125 H   0  0  0  0  0  0  0  0  0  0  0  0
   -1.9529    1.6999   -1.0077 C   0  0  0  0  0  0  0  0  0  0  0  0
   -1.4945    1.8801   -2.3134 N   0  0  0  0  0  0  0  0  0  0  0  0
   -2.5840    2.1197   -3.0576 C   0  0  0  0  0  0  0  0  0  0  0  0
   -2.5677    2.3147   -4.1225 H   0  0  0  0  0  0  0  0  0  0  0  0
   -3.6910    2.0737   -2.2975 N   0  0  0  0  0  0  0  0  0  0  0  0
   -4.6367    2.2022   -2.6307 H   0  0  0  0  0  0  0  0  0  0  0  0
   -3.3131    1.8058   -1.0006 C   0  0  0  0  0  0  0  0  0  0  0  0
   -3.9547    1.6791   -0.1377 H   0  0  0  0  0  0  0  0  0  0  0  0
    0.3707   -0.4096    1.3172 C   0  0  0  0  0  0  0  0  0  0  0  0
    0.2858   -1.4495    1.9706 O   0  0  0  0  0  0  0  0  0  0  0  0
    1.3341    0.4922    1.5303 N   0  0  0  0  0  0  0  0  0  0  0  0
    1.2665    1.3661    1.0208 H   0  0  0  0  0  0  0  0  0  0  0  0
    2.3869    0.3661    2.5355 C   0  0  0  0  0  0  0  0  0  0  0  0
    2.6910   -0.6794    2.6316 H   0  0  0  0  0  0  0  0  0  0  0  0
    3.2516    0.9640    2.2439 H   0  0  0  0  0  0  0  0  0  0  0  0
    2.0146    0.7148    3.5001 H   0  0  0  0  0  0  0  0  0  0  0  0
  5  6  2  0  0  0  0
  5  7  1  0  0  0  0
  2  3  1  0  0  0  0
  2  4  1  0  0  0  0
  2  5  1  0  0  0  0
  1  2  1  0  0  0  0
 22 23  2  0  0  0  0
 22 24  1  0  0  0  0
 20 21  1  0  0  0  0
 18 19  1  0  0  0  0
 18 20  1  0  0  0  0
 16 17  1  0  0  0  0
 16 18  1  0  0  0  0
 15 16  2  0  0  0  0
 14 15  1  0  0  0  0
 14 20  2  0  0  0  0
 11 12  1  0  0  0  0
 11 13  1  0  0  0  0
 11 14  1  0  0  0  0
  9 10  1  0  0  0  0
  9 11  1  0  0  0  0
  9 22  1  0  0  0  0
  7  8  1  0  0  0  0
  7  9  1  0  0  0  0
 26 27  1  0  0  0  0
 26 28  1  0  0  0  0
 26 29  1  0  0  0  0
 24 25  1  0  0  0  0
 24 26  1  0  0  0  0
M  END
$$$$
default_name
  -OEChem-01062215323D

 29 29  0     1  0  0  0  0  0999 V2000
   -2.9561   -3.9186    1.3887 H   0  0  0  0  0  0  0  0  0  0  0  0
   -3.1191   -2.9346    0.9517 C   0  0  0  0  0  0  0  0  0  0  0  0
   -3.7811   -2.3546    1.5917 H   0  0  0  0  0  0  0  0  0  0  0  0
   -3.5591   -3.0406   -0.0383 H   0  0  0  0  0  0  0  0  0  0  0  0
   -1.7921   -2.2226    0.8327 C   0  0  0  0  0  0  0  0  0  0  0  0
   -0.7611   -2.7766    1.1927 O   0  0  0  0  0  0  0  0  0  0  0  0
   -1.8201   -0.9926    0.3247 N   0  0  0  0  0  0  0  0  0  0  0  0
   -2.7141   -0.5816    0.0927 H   0  0  0  0  0  0  0  0  0  0  0  0
   -0.6481   -0.1156    0.2017 C   0  0  1  0  0  0  0  0  0  0  0  0
   -0.1603   -0.3309   -0.7511 H   0  0  0  0  0  0  0  0  0  0  0  0
   -1.1001    1.3577    0.1896 C   0  0  0  0  0  0  0  0  0  0  0  0
   -1.6924    1.5695    1.0809 H   0  0  0  0  0  0  0  0  0  0  0  0
   -0.2273    2.0116    0.2125 H   0  0  0  0  0  0  0  0  0  0  0  0
   -1.9529    1.6999   -1.0077 C   0  0  0  0  0  0  0  0  0  0  0  0
   -1.4945    1.8801   -2.3134 N   0  0  0  0  0  0  0  0  0  0  0  0
   -2.5840    2.1197   -3.0576 C   0  0  0  0  0  0  0  0  0  0  0  0
   -2.5677    2.3147   -4.1225 H   0  0  0  0  0  0  0  0  0  0  0  0
   -3.6910    2.0737   -2.2975 N   0  0  0  0  0  0  0  0  0  0  0  0
   -4.6367    2.2022   -2.6307 H   0  0  0  0  0  0  0  0  0  0  0  0
   -3.3131    1.8058   -1.0006 C   0  0  0  0  0  0  0  0  0  0  0  0
   -3.9547    1.6791   -0.1377 H   0  0  0  0  0  0  0  0  0  0  0  0
    0.3707   -0.4096    1.3172 C   0  0  0  0  0  0  0  0  0  0  0  0
    0.4653   -1.5459    1.7812 O   0  0  0  0  0  0  0  0  0  0  0  0
    1.1356    0.6016    1.7405 N   0  0  0  0  0  0  0  0  0  0  0  0
    0.9185    1.5242    1.3804 H   0  0  0  0  0  0  0  0  0  0  0  0
    2.1591    0.4957    2.7777 C   0  0  0  0  0  0  0  0  0  0  0  0
    2.6548   -0.4767    2.7180 H   0  0  0  0  0  0  0  0  0  0  0  0
    2.9022    1.2837    2.6473 H   0  0  0  0  0  0  0  0  0  0  0  0
    1.6951    0.5948    3.7603 H   0  0  0  0  0  0  0  0  0  0  0  0
  5  6  2  0  0  0  0
  5  7  1  0  0  0  0
  2  3  1  0  0  0  0
  2  4  1  0  0  0  0
  2  5  1  0  0  0  0
  1  2  1  0  0  0  0
 22 23  2  0  0  0  0
 22 24  1  0  0  0  0
 20 21  1  0  0  0  0
 18 19  1  0  0  0  0
 18 20  1  0  0  0  0
 16 17  1  0  0  0  0
 16 18  1  0  0  0  0
 15 16  2  0  0  0  0
 14 15  1  0  0  0  0
 14 20  2  0  0  0  0
 11 12  1  0  0  0  0
 11 13  1  0  0  0  0
 11 14  1  0  0  0  0
  9 10  1  0  0  0  0
  9 11  1  0  0  0  0
  9 22  1  0  0  0  0
  7  8  1  0  0  0  0
  7  9  1  0  0  0  0
 26 27  1  0  0  0  0
 26 28  1  0  0  0  0
 26 29  1  0  0  0  0
 24 25  1  0  0  0  0
 24 26  1  0  0  0  0
M  END
$$$$
default_name
  -OEChem-01062215323D

 29 29  0     1  0  0  0  0  0999 V2000
   -2.9561   -3.9186    1.3887 H   0  0  0  0  0  0  0  0  0  0  0  0
   -3.1191   -2.9346    0.9517 C   0  0  0  0  0  0  0  0  0  0  0  0
   -3.7811   -2.3546    1.5917 H   0  0  0  0  0  0  0  0  0  0  0  0
   -3.5591   -3.0406   -0.0383 H   0  0  0  0  0  0  0  0  0  0  0  0
   -1.7921   -2.2226    0.8327 C   0  0  0  0  0  0  0  0  0  0  0  0
   -0.7611   -2.7766    1.1927 O   0  0  0  0  0  0  0  0  0  0  0  0
   -1.8201   -0.9926    0.3247 N   0  0  0  0  0  0  0  0  0  0  0  0
   -2.7141   -0.5816    0.0927 H   0  0  0  0  0  0  0  0  0  0  0  0
   -0.6481   -0.1156    0.2017 C   0  0  1  0  0  0  0  0  0  0  0  0
   -0.1603   -0.3309   -0.7511 H   0  0  0  0  0  0  0  0  0  0  0  0
   -1.1001    1.3577    0.1896 C   0  0  0  0  0  0  0  0  0  0  0  0
   -1.6924    1.5695    1.0809 H   0  0  0  0  0  0  0  0  0  0  0  0
   -0.2273    2.0116    0.2125 H   0  0  0  0  0  0  0  0  0  0  0  0
   -1.9529    1.6999   -1.0077 C   0  0  0  0  0  0  0  0  0  0  0  0
   -1.4945    1.8801   -2.3134 N   0  0  0  0  0  0  0  0  0  0  0  0
   -2.5840    2.1197   -3.0576 C   0  0  0  0  0  0  0  0  0  0  0  0
   -2.5677    2.3147   -4.1225 H   0  0  0  0  0  0  0  0  0  0  0  0
   -3.6910    2.0737   -2.2975 N   0  0  0  0  0  0  0  0  0  0  0  0
   -4.6367    2.2022   -2.6307 H   0  0  0  0  0  0  0  0  0  0  0  0
   -3.3131    1.8058   -1.0006 C   0  0  0  0  0  0  0  0  0  0  0  0
   -3.9547    1.6791   -0.1377 H   0  0  0  0  0  0  0  0  0  0  0  0
    0.3707   -0.4096    1.3172 C   0  0  0  0  0  0  0  0  0  0  0  0
    0.6662   -1.5730    1.5906 O   0  0  0  0  0  0  0  0  0  0  0  0
    0.9129    0.6341    1.9525 N   0  0  0  0  0  0  0  0  0  0  0  0
    0.5348    1.5500    1.7376 H   0  0  0  0  0  0  0  0  0  0  0  0
    1.9028    0.5366    3.0226 C   0  0  0  0  0  0  0  0  0  0  0  0
    2.5776   -0.3025    2.8345 H   0  0  0  0  0  0  0  0  0  0  0  0
    2.4847    1.4579    3.0745 H   0  0  0  0  0  0  0  0  0  0  0  0
    1.3961    0.3745    3.9753 H   0  0  0  0  0  0  0  0  0  0  0  0
  5  6  2  0  0  0  0
  5  7  1  0  0  0  0
  2  3  1  0  0  0  0
  2  4  1  0  0  0  0
  2  5  1  0  0  0  0
  1  2  1  0  0  0  0
 22 23  2  0  0  0  0
 22 24  1  0  0  0  0
 20 21  1  0  0  0  0
 18 19  1  0  0  0  0
 18 20  1  0  0  0  0
 16 17  1  0  0  0  0
 16 18  1  0  0  0  0
 15 16  2  0  0  0  0
 14 15  1  0  0  0  0
 14 20  2  0  0  0  0
 11 12  1  0  0  0  0
 11 13  1  0  0  0  0
 11 14  1  0  0  0  0
  9 10  1  0  0  0  0
  9 11  1  0  0  0  0
  9 22  1  0  0  0  0
  7  8  1  0  0  0  0
  7  9  1  0  0  0  0
 26 27  1  0  0  0  0
 26 28  1  0  0  0  0
 26 29  1  0  0  0  0
 24 25  1  0  0  0  0
 24 26  1  0  0  0  0
M  END
$$$$
default_name
  -OEChem-01062215323D

 29 29  0     1  0  0  0  0  0999 V2000
   -2.9561   -3.9186    1.3887 H   0  0  0  0  0  0  0  0  0  0  0  0
   -3.1191   -2.9346    0.9517 C   0  0  0  0  0  0  0  0  0  0  0  0
   -3.7811   -2.3546    1.5917 H   0  0  0  0  0  0  0  0  0  0  0  0
   -3.5591   -3.0406   -0.0383 H   0  0  0  0  0  0  0  0  0  0  0  0
   -1.7921   -2.2226    0.8327 C   0  0  0  0  0  0  0  0  0  0  0  0
   -0.7611   -2.7766    1.1927 O   0  0  0  0  0  0  0  0  0  0  0  0
   -1.8201   -0.9926    0.3247 N   0  0  0  0  0  0  0  0  0  0  0  0
   -2.7141   -0.5816    0.0927 H   0  0  0  0  0  0  0  0  0  0  0  0
   -0.6481   -0.1156    0.2017 C   0  0  1  0  0  0  0  0  0  0  0  0
   -0.1603   -0.3309   -0.7511 H   0  0  0  0  0  0  0  0  0  0  0  0
   -1.1001    1.3577    0.1896 C   0  0  0  0  0  0  0  0  0  0  0  0
   -1.6924    1.5695    1.0809 H   0  0  0  0  0  0  0  0  0  0  0  0
   -0.2273    2.0116    0.2125 H   0  0  0  0  0  0  0  0  0  0  0  0
   -1.9529    1.6999   -1.0077 C   0  0  0  0  0  0  0  0  0  0  0  0
   -1.4945    1.8801   -2.3134 N   0  0  0  0  0  0  0  0  0  0  0  0
   -2.5840    2.1197   -3.0576 C   0  0  0  0  0  0  0  0  0  0  0  0
   -2.5677    2.3147   -4.1225 H   0  0  0  0  0  0  0  0  0  0  0  0
   -3.6910    2.0737   -2.2975 N   0  0  0  0  0  0  0  0  0  0  0  0
   -4.6367    2.2022   -2.6307 H   0  0  0  0  0  0  0  0  0  0  0  0
   -3.3131    1.8058   -1.0006 C   0  0  0  0  0  0  0  0  0  0  0  0
   -3.9547    1.6791   -0.1377 H   0  0  0  0  0  0  0  0  0  0  0  0
    0.3707   -0.4096    1.3172 C   0  0  0  0  0  0  0  0  0  0  0  0
    0.8747   -1.5288    1.4118 O   0  0  0  0  0  0  0  0  0  0  0  0
    0.6812    0.5873    2.1518 N   0  0  0  0  0  0  0  0  0  0  0  0
    0.1417    1.4417    2.0681 H   0  0  0  0  0  0  0  0  0  0  0  0
    1.6355    0.4861    3.2534 C   0  0  0  0  0  0  0  0  0  0  0  0
    2.4646   -0.1686    2.9730 H   0  0  0  0  0  0  0  0  0  0  0  0
    2.0277    1.4747    3.4963 H   0  0  0  0  0  0  0  0  0  0  0  0
    1.1381    0.0687    4.1304 H   0  0  0  0  0  0  0  0  0  0  0  0
  5  6  2  0  0  0  0
  5  7  1  0  0  0  0
  2  3  1  0  0  0  0
  2  4  1  0  0  0  0
  2  5  1  0  0  0  0
  1  2  1  0  0  0  0
 22 23  2  0  0  0  0
 22 24  1  0  0  0  0
 20 21  1  0  0  0  0
 18 19  1  0  0  0  0
 18 20  1  0  0  0  0
 16 17  1  0  0  0  0
 16 18  1  0  0  0  0
 15 16  2  0  0  0  0
 14 15  1  0  0  0  0
 14 20  2  0  0  0  0
 11 12  1  0  0  0  0
 11 13  1  0  0  0  0
 11 14  1  0  0  0  0
  9 10  1  0  0  0  0
  9 11  1  0  0  0  0
  9 22  1  0  0  0  0
  7  8  1  0  0  0  0
  7  9  1  0  0  0  0
 26 27  1  0  0  0  0
 26 28  1  0  0  0  0
 26 29  1  0  0  0  0
 24 25  1  0  0  0  0
 24 26  1  0  0  0  0
M  END
$$$$
default_name
  -OEChem-01062215323D

 29 29  0     1  0  0  0  0  0999 V2000
   -2.9561   -3.9186    1.3887 H   0  0  0  0  0  0  0  0  0  0  0  0
   -3.1191   -2.9346    0.9517 C   0  0  0  0  0  0  0  0  0  0  0  0
   -3.7811   -2.3546    1.5917 H   0  0  0  0  0  0  0  0  0  0  0  0
   -3.5591   -3.0406   -0.0383 H   0  0  0  0  0  0  0  0  0  0  0  0
   -1.7921   -2.2226    0.8327 C   0  0  0  0  0  0  0  0  0  0  0  0
   -0.7611   -2.7766    1.1927 O   0  0  0  0  0  0  0  0  0  0  0  0
   -1.8201   -0.9926    0.3247 N   0  0  0  0  0  0  0  0  0  0  0  0
   -2.7141   -0.5816    0.0927 H   0  0  0  0  0  0  0  0  0  0  0  0
   -0.6481   -0.1156    0.2017 C   0  0  1  0  0  0  0  0  0  0  0  0
   -0.1603   -0.3309   -0.7511 H   0  0  0  0  0  0  0  0  0  0  0  0
   -1.1001    1.3577    0.1896 C   0  0  0  0  0  0  0  0  0  0  0  0
   -1.6924    1.5695    1.0809 H   0  0  0  0  0  0  0  0  0  0  0  0
   -0.2273    2.0116    0.2125 H   0  0  0  0  0  0  0  0  0  0  0  0
   -1.9529    1.6999   -1.0077 C   0  0  0  0  0  0  0  0  0  0  0  0
   -1.4945    1.8801   -2.3134 N   0  0  0  0  0  0  0  0  0  0  0  0
   -2.5840    2.1197   -3.0576 C   0  0  0  0  0  0  0  0  0  0  0  0
   -2.5677    2.3147   -4.1225 H   0  0  0  0  0  0  0  0  0  0  0  0
   -3.6910    2.0737   -2.2975 N   0  0  0  0  0  0  0  0  0  0  0  0
   -4.6367    2.2022   -2.6307 H   0  0  0  0  0  0  0  0  0  0  0  0
   -3.3131    1.8058   -1.0006 C   0  0  0  0  0  0  0  0  0  0  0  0
   -3.9547    1.6791   -0.1377 H   0  0  0  0  0  0  0  0  0  0  0  0
    0.3707   -0.4096    1.3172 C   0  0  0  0  0  0  0  0  0  0  0  0
    1.0767   -1.4163    1.2570 O   0  0  0  0  0  0  0  0  0  0  0  0
    0.4563    0.4646    2.3248 N   0  0  0  0  0  0  0  0  0  0  0  0
   -0.2340    1.2067    2.3493 H   0  0  0  0  0  0  0  0  0  0  0  0
    1.3753    0.3476    3.4546 C   0  0  0  0  0  0  0  0  0  0  0  0
    2.3234   -0.0843    3.1242 H   0  0  0  0  0  0  0  0  0  0  0  0
    1.5623    1.3329    3.8841 H   0  0  0  0  0  0  0  0  0  0  0  0
    0.9385   -0.3016    4.2151 H   0  0  0  0  0  0  0  0  0  0  0  0
  5  6  2  0  0  0  0
  5  7  1  0  0  0  0
  2  3  1  0  0  0  0
  2  4  1  0  0  0  0
  2  5  1  0  0  0  0
  1  2  1  0  0  0  0
 22 23  2  0  0  0  0
 22 24  1  0  0  0  0
 20 21  1  0  0  0  0
 18 19  1  0  0  0  0
 18 20  1  0  0  0  0
 16 17  1  0  0  0  0
 16 18  1  0  0  0  0
 15 16  2  0  0  0  0
 14 15  1  0  0  0  0
 14 20  2  0  0  0  0
 11 12  1  0  0  0  0
 11 13  1  0  0  0  0
 11 14  1  0  0  0  0
  9 10  1  0  0  0  0
  9 11  1  0  0  0  0
  9 22  1  0  0  0  0
  7  8  1  0  0  0  0
  7  9  1  0  0  0  0
 26 27  1  0  0  0  0
 26 28  1  0  0  0  0
 26 29  1  0  0  0  0
 24 25  1  0  0  0  0
 24 26  1  0  0  0  0
M  END
$$$$
default_name
  -OEChem-01062215323D

 29 29  0     1  0  0  0  0  0999 V2000
   -2.9561   -3.9186    1.3887 H   0  0  0  0  0  0  0  0  0  0  0  0
   -3.1191   -2.9346    0.9517 C   0  0  0  0  0  0  0  0  0  0  0  0
   -3.7811   -2.3546    1.5917 H   0  0  0  0  0  0  0  0  0  0  0  0
   -3.5591   -3.0406   -0.0383 H   0  0  0  0  0  0  0  0  0  0  0  0
   -1.7921   -2.2226    0.8327 C   0  0  0  0  0  0  0  0  0  0  0  0
   -0.7611   -2.7766    1.1927 O   0  0  0  0  0  0  0  0  0  0  0  0
   -1.8201   -0.9926    0.3247 N   0  0  0  0  0  0  0  0  0  0  0  0
   -2.7141   -0.5816    0.0927 H   0  0  0  0  0  0  0  0  0  0  0  0
   -0.6481   -0.1156    0.2017 C   0  0  1  0  0  0  0  0  0  0  0  0
   -0.1603   -0.3309   -0.7511 H   0  0  0  0  0  0  0  0  0  0  0  0
   -1.1001    1.3577    0.1896 C   0  0  0  0  0  0  0  0  0  0  0  0
   -1.6924    1.5695    1.0809 H   0  0  0  0  0  0  0  0  0  0  0  0
   -0.2273    2.0116    0.2125 H   0  0  0  0  0  0  0  0  0  0  0  0
   -1.9529    1.6999   -1.0077 C   0  0  0  0  0  0  0  0  0  0  0  0
   -1.4945    1.8801   -2.3134 N   0  0  0  0  0  0  0  0  0  0  0  0
   -2.5840    2.1197   -3.0576 C   0  0  0  0  0  0  0  0  0  0  0  0
   -2.5677    2.3147   -4.1225 H   0  0  0  0  0  0  0  0  0  0  0  0
   -3.6910    2.0737   -2.2975 N   0  0  0  0  0  0  0  0  0  0  0  0
   -4.6367    2.2022   -2.6307 H   0  0  0  0  0  0  0  0  0  0  0  0
   -3.3131    1.8058   -1.0006 C   0  0  0  0  0  0  0  0  0  0  0  0
   -3.9547    1.6791   -0.1377 H   0  0  0  0  0  0  0  0  0  0  0  0
    0.3707   -0.4096    1.3172 C   0  0  0  0  0  0  0  0  0  0  0  0
    1.2584   -1.2433    1.1367 O   0  0  0  0  0  0  0  0  0  0  0  0
    0.2535    0.2742    2.4598 N   0  0  0  0  0  0  0  0  0  0  0  0
   -0.5668    0.8611    2.5622 H   0  0  0  0  0  0  0  0  0  0  0  0
    1.1400    0.1306    3.6123 C   0  0  0  0  0  0  0  0  0  0  0  0
    2.1638   -0.0552    3.2776 H   0  0  0  0  0  0  0  0  0  0  0  0
    1.1202    1.0422    4.2113 H   0  0  0  0  0  0  0  0  0  0  0  0
    0.8110   -0.7113    4.2236 H   0  0  0  0  0  0  0  0  0  0  0  0
  5  6  2  0  0  0  0
  5  7  1  0  0  0  0
  2  3  1  0  0  0  0
  2  4  1  0  0  0  0
  2  5  1  0  0  0  0
  1  2  1  0  0  0  0
 22 23  2  0  0  0  0
 22 24  1  0  0  0  0
 20 21  1  0  0  0  0
 18 19  1  0  0  0  0
 18 20  1  0  0  0  0
 16 17  1  0  0  0  0
 16 18  1  0  0  0  0
 15 16  2  0  0  0  0
 14 15  1  0  0  0  0
 14 20  2  0  0  0  0
 11 12  1  0  0  0  0
 11 13  1  0  0  0  0
 11 14  1  0  0  0  0
  9 10  1  0  0  0  0
  9 11  1  0  0  0  0
  9 22  1  0  0  0  0
  7  8  1  0  0  0  0
  7  9  1  0  0  0  0
 26 27  1  0  0  0  0
 26 28  1  0  0  0  0
 26 29  1  0  0  0  0
 24 25  1  0  0  0  0
 24 26  1  0  0  0  0
M  END
$$$$
default_name
  -OEChem-01062215323D

 29 29  0     1  0  0  0  0  0999 V2000
   -2.9561   -3.9186    1.3887 H   0  0  0  0  0  0  0  0  0  0  0  0
   -3.1191   -2.9346    0.9517 C   0  0  0  0  0  0  0  0  0  0  0  0
   -3.7811   -2.3546    1.5917 H   0  0  0  0  0  0  0  0  0  0  0  0
   -3.5591   -3.0406   -0.0383 H   0  0  0  0  0  0  0  0  0  0  0  0
   -1.7921   -2.2226    0.8327 C   0  0  0  0  0  0  0  0  0  0  0  0
   -0.7611   -2.7766    1.1927 O   0  0  0  0  0  0  0  0  0  0  0  0
   -1.8201   -0.9926    0.3247 N   0  0  0  0  0  0  0  0  0  0  0  0
   -2.7141   -0.5816    0.0927 H   0  0  0  0  0  0  0  0  0  0  0  0
   -0.6481   -0.1156    0.2017 C   0  0  1  0  0  0  0  0  0  0  0  0
   -0.1603   -0.3309   -0.7511 H   0  0  0  0  0  0  0  0  0  0  0  0
   -1.1001    1.3577    0.1896 C   0  0  0  0  0  0  0  0  0  0  0  0
   -1.6924    1.5695    1.0809 H   0  0  0  0  0  0  0  0  0  0  0  0
   -0.2273    2.0116    0.2125 H   0  0  0  0  0  0  0  0  0  0  0  0
   -1.9529    1.6999   -1.0077 C   0  0  0  0  0  0  0  0  0  0  0  0
   -1.4945    1.8801   -2.3134 N   0  0  0  0  0  0  0  0  0  0  0  0
   -2.5840    2.1197   -3.0576 C   0  0  0  0  0  0  0  0  0  0  0  0
   -2.5677    2.3147   -4.1225 H   0  0  0  0  0  0  0  0  0  0  0  0
   -3.6910    2.0737   -2.2975 N   0  0  0  0  0  0  0  0  0  0  0  0
   -4.6367    2.2022   -2.6307 H   0  0  0  0  0  0  0  0  0  0  0  0
   -3.3131    1.8058   -1.0006 C   0  0  0  0  0  0  0  0  0  0  0  0
   -3.9547    1.6791   -0.1377 H   0  0  0  0  0  0  0  0  0  0  0  0
    0.3707   -0.4096    1.3172 C   0  0  0  0  0  0  0  0  0  0  0  0
    1.4073   -1.0214    1.0591 O   0  0  0  0  0  0  0  0  0  0  0  0
    0.0868    0.0291    2.5476 N   0  0  0  0  0  0  0  0  0  0  0  0
   -0.8339    0.4284    2.6921 H   0  0  0  0  0  0  0  0  0  0  0  0
    0.9456   -0.1502    3.7158 C   0  0  0  0  0  0  0  0  0  0  0  0
    1.9966   -0.0833    3.4229 H   0  0  0  0  0  0  0  0  0  0  0  0
    0.7314    0.6224    4.4556 H   0  0  0  0  0  0  0  0  0  0  0  0
    0.7642   -1.1324    4.1553 H   0  0  0  0  0  0  0  0  0  0  0  0
  5  6  2  0  0  0  0
  5  7  1  0  0  0  0
  2  3  1  0  0  0  0
  2  4  1  0  0  0  0
  2  5  1  0  0  0  0
  1  2  1  0  0  0  0
 22 23  2  0  0  0  0
 22 24  1  0  0  0  0
 20 21  1  0  0  0  0
 18 19  1  0  0  0  0
 18 20  1  0  0  0  0
 16 17  1  0  0  0  0
 16 18  1  0  0  0  0
 15 16  2  0  0  0  0
 14 15  1  0  0  0  0
 14 20  2  0  0  0  0
 11 12  1  0  0  0  0
 11 13  1  0  0  0  0
 11 14  1  0  0  0  0
  9 10  1  0  0  0  0
  9 11  1  0  0  0  0
  9 22  1  0  0  0  0
  7  8  1  0  0  0  0
  7  9  1  0  0  0  0
 26 27  1  0  0  0  0
 26 28  1  0  0  0  0
 26 29  1  0  0  0  0
 24 25  1  0  0  0  0
 24 26  1  0  0  0  0
M  END
$$$$
default_name
  -OEChem-01062215323D

 29 29  0     1  0  0  0  0  0999 V2000
   -2.9561   -3.9186    1.3887 H   0  0  0  0  0  0  0  0  0  0  0  0
   -3.1191   -2.9346    0.9517 C   0  0  0  0  0  0  0  0  0  0  0  0
   -3.7811   -2.3546    1.5917 H   0  0  0  0  0  0  0  0  0  0  0  0
   -3.5591   -3.0406   -0.0383 H   0  0  0  0  0  0  0  0  0  0  0  0
   -1.7921   -2.2226    0.8327 C   0  0  0  0  0  0  0  0  0  0  0  0
   -0.7611   -2.7766    1.1927 O   0  0  0  0  0  0  0  0  0  0  0  0
   -1.8201   -0.9926    0.3247 N   0  0  0  0  0  0  0  0  0  0  0  0
   -2.7141   -0.5816    0.0927 H   0  0  0  0  0  0  0  0  0  0  0  0
   -0.6481   -0.1156    0.2017 C   0  0  1  0  0  0  0  0  0  0  0  0
   -0.1603   -0.3309   -0.7511 H   0  0  0  0  0  0  0  0  0  0  0  0
   -1.1001    1.3577    0.1896 C   0  0  0  0  0  0  0  0  0  0  0  0
   -1.6924    1.5695    1.0809 H   0  0  0  0  0  0  0  0  0  0  0  0
   -0.2273    2.0116    0.2125 H   0  0  0  0  0  0  0  0  0  0  0  0
   -1.9529    1.6999   -1.0077 C   0  0  0  0  0  0  0  0  0  0  0  0
   -1.4945    1.8801   -2.3134 N   0  0  0  0  0  0  0  0  0  0  0  0
   -2.5840    2.1197   -3.0576 C   0  0  0  0  0  0  0  0  0  0  0  0
   -2.5677    2.3147   -4.1225 H   0  0  0  0  0  0  0  0  0  0  0  0
   -3.6910    2.0737   -2.2975 N   0  0  0  0  0  0  0  0  0  0  0  0
   -4.6367    2.2022   -2.6307 H   0  0  0  0  0  0  0  0  0  0  0  0
   -3.3131    1.8058   -1.0006 C   0  0  0  0  0  0  0  0  0  0  0  0
   -3.9547    1.6791   -0.1377 H   0  0  0  0  0  0  0  0  0  0  0  0
    0.3707   -0.4096    1.3172 C   0  0  0  0  0  0  0  0  0  0  0  0
    1.5134   -0.7659    1.0296 O   0  0  0  0  0  0  0  0  0  0  0  0
   -0.0327   -0.2540    2.5821 N   0  0  0  0  0  0  0  0  0  0  0  0
   -1.0172   -0.0619    2.7302 H   0  0  0  0  0  0  0  0  0  0  0  0
    0.8055   -0.4756    3.7580 C   0  0  0  0  0  0  0  0  0  0  0  0
    1.8332   -0.1668    3.5502 H   0  0  0  0  0  0  0  0  0  0  0  0
    0.4226    0.1021    4.6006 H   0  0  0  0  0  0  0  0  0  0  0  0
    0.8014   -1.5362    4.0148 H   0  0  0  0  0  0  0  0  0  0  0  0
  5  6  2  0  0  0  0
  5  7  1  0  0  0  0
  2  3  1  0  0  0  0
  2  4  1  0  0  0  0
  2  5  1  0  0  0  0
  1  2  1  0  0  0  0
 22 23  2  0  0  0  0
 22 24  1  0  0  0  0
 20 21  1  0  0  0  0
 18 19  1  0  0  0  0
 18 20  1  0  0  0  0
 16 17  1  0  0  0  0
 16 18  1  0  0  0  0
 15 16  2  0  0  0  0
 14 15  1  0  0  0  0
 14 20  2  0  0  0  0
 11 12  1  0  0  0  0
 11 13  1  0  0  0  0
 11 14  1  0  0  0  0
  9 10  1  0  0  0  0
  9 11  1  0  0  0  0
  9 22  1  0  0  0  0
  7  8  1  0  0  0  0
  7  9  1  0  0  0  0
 26 27  1  0  0  0  0
 26 28  1  0  0  0  0
 26 29  1  0  0  0  0
 24 25  1  0  0  0  0
 24 26  1  0  0  0  0
M  END
$$$$
default_name
  -OEChem-01062215323D

 29 29  0     1  0  0  0  0  0999 V2000
   -2.9561   -3.9186    1.3887 H   0  0  0  0  0  0  0  0  0  0  0  0
   -3.1191   -2.9346    0.9517 C   0  0  0  0  0  0  0  0  0  0  0  0
   -3.7811   -2.3546    1.5917 H   0  0  0  0  0  0  0  0  0  0  0  0
   -3.5591   -3.0406   -0.0383 H   0  0  0  0  0  0  0  0  0  0  0  0
   -1.7921   -2.2226    0.8327 C   0  0  0  0  0  0  0  0  0  0  0  0
   -0.7611   -2.7766    1.1927 O   0  0  0  0  0  0  0  0  0  0  0  0
   -1.8201   -0.9926    0.3247 N   0  0  0  0  0  0  0  0  0  0  0  0
   -2.7141   -0.5816    0.0927 H   0  0  0  0  0  0  0  0  0  0  0  0
   -0.6481   -0.1156    0.2017 C   0  0  1  0  0  0  0  0  0  0  0  0
   -0.1603   -0.3309   -0.7511 H   0  0  0  0  0  0  0  0  0  0  0  0
   -1.1001    1.3577    0.1896 C   0  0  0  0  0  0  0  0  0  0  0  0
   -1.6924    1.5695    1.0809 H   0  0  0  0  0  0  0  0  0  0  0  0
   -0.2273    2.0116    0.2125 H   0  0  0  0  0  0  0  0  0  0  0  0
   -1.9529    1.6999   -1.0077 C   0  0  0  0  0  0  0  0  0  0  0  0
   -1.4945    1.8801   -2.3134 N   0  0  0  0  0  0  0  0  0  0  0  0
   -2.5840    2.1197   -3.0576 C   0  0  0  0  0  0  0  0  0  0  0  0
   -2.5677    2.3147   -4.1225 H   0  0  0  0  0  0  0  0  0  0  0  0
   -3.6910    2.0737   -2.2975 N   0  0  0  0  0  0  0  0  0  0  0  0
   -4.6367    2.2022   -2.6307 H   0  0  0  0  0  0  0  0  0  0  0  0
   -3.3131    1.8058   -1.0006 C   0  0  0  0  0  0  0  0  0  0  0  0
   -3.9547    1.6791   -0.1377 H   0  0  0  0  0  0  0  0  0  0  0  0
    0.3707   -0.4096    1.3172 C   0  0  0  0  0  0  0  0  0  0  0  0
    1.5694   -0.4942    1.0501 O   0  0  0  0  0  0  0  0  0  0  0  0
   -0.0967   -0.5557    2.5610 N   0  0  0  0  0  0  0  0  0  0  0  0
   -1.1041   -0.5764    2.6740 H   0  0  0  0  0  0  0  0  0  0  0  0
    0.7290   -0.8235    3.7362 C   0  0  0  0  0  0  0  0  0  0  0  0
    1.6847   -0.2998    3.6508 H   0  0  0  0  0  0  0  0  0  0  0  0
    0.2147   -0.4833    4.6361 H   0  0  0  0  0  0  0  0  0  0  0  0
    0.9201   -1.8952    3.8118 H   0  0  0  0  0  0  0  0  0  0  0  0
  5  6  2  0  0  0  0
  5  7  1  0  0  0  0
  2  3  1  0  0  0  0
  2  4  1  0  0  0  0
  2  5  1  0  0  0  0
  1  2  1  0  0  0  0
 22 23  2  0  0  0  0
 22 24  1  0  0  0  0
 20 21  1  0  0  0  0
 18 19  1  0  0  0  0
 18 20  1  0  0  0  0
 16 17  1  0  0  0  0
 16 18  1  0  0  0  0
 15 16  2  0  0  0  0
 14 15  1  0  0  0  0
 14 20  2  0  0  0  0
 11 12  1  0  0  0  0
 11 13  1  0  0  0  0
 11 14  1  0  0  0  0
  9 10  1  0  0  0  0
  9 11  1  0  0  0  0
  9 22  1  0  0  0  0
  7  8  1  0  0  0  0
  7  9  1  0  0  0  0
 26 27  1  0  0  0  0
 26 28  1  0  0  0  0
 26 29  1  0  0  0  0
 24 25  1  0  0  0  0
 24 26  1  0  0  0  0
M  END
$$$$
default_name
  -OEChem-01062215323D

 29 29  0     1  0  0  0  0  0999 V2000
   -2.9561   -3.9186    1.3887 H   0  0  0  0  0  0  0  0  0  0  0  0
   -3.1191   -2.9346    0.9517 C   0  0  0  0  0  0  0  0  0  0  0  0
   -3.7811   -2.3546    1.5917 H   0  0  0  0  0  0  0  0  0  0  0  0
   -3.5591   -3.0406   -0.0383 H   0  0  0  0  0  0  0  0  0  0  0  0
   -1.7921   -2.2226    0.8327 C   0  0  0  0  0  0  0  0  0  0  0  0
   -0.7611   -2.7766    1.1927 O   0  0  0  0  0  0  0  0  0  0  0  0
   -1.8201   -0.9926    0.3247 N   0  0  0  0  0  0  0  0  0  0  0  0
   -2.7141   -0.5816    0.0927 H   0  0  0  0  0  0  0  0  0  0  0  0
   -0.6481   -0.1156    0.2017 C   0  0  1  0  0  0  0  0  0  0  0  0
   -0.1603   -0.3309   -0.7511 H   0  0  0  0  0  0  0  0  0  0  0  0
   -1.1001    1.3577    0.1896 C   0  0  0  0  0  0  0  0  0  0  0  0
   -1.6924    1.5695    1.0809 H   0  0  0  0  0  0  0  0  0  0  0  0
   -0.2273    2.0116    0.2125 H   0  0  0  0  0  0  0  0  0  0  0  0
   -1.9529    1.6999   -1.0077 C   0  0  0  0  0  0  0  0  0  0  0  0
   -1.4945    1.8801   -2.3134 N   0  0  0  0  0  0  0  0  0  0  0  0
   -2.5840    2.1197   -3.0576 C   0  0  0  0  0  0  0  0  0  0  0  0
   -2.5677    2.3147   -4.1225 H   0  0  0  0  0  0  0  0  0  0  0  0
   -3.6910    2.0737   -2.2975 N   0  0  0  0  0  0  0  0  0  0  0  0
   -4.6367    2.2022   -2.6307 H   0  0  0  0  0  0  0  0  0  0  0  0
   -3.3131    1.8058   -1.0006 C   0  0  0  0  0  0  0  0  0  0  0  0
   -3.9547    1.6791   -0.1377 H   0  0  0  0  0  0  0  0  0  0  0  0
    0.3707   -0.4096    1.3172 C   0  0  0  0  0  0  0  0  0  0  0  0
    1.5716   -0.2247    1.1192 O   0  0  0  0  0  0  0  0  0  0  0  0
   -0.1009   -0.8555    2.4858 N   0  0  0  0  0  0  0  0  0  0  0  0
   -1.0888   -1.0801    2.5272 H   0  0  0  0  0  0  0  0  0  0  0  0
    0.7215   -1.1701    3.6517 C   0  0  0  0  0  0  0  0  0  0  0  0
    1.5612   -0.4735    3.7178 H   0  0  0  0  0  0  0  0  0  0  0  0
    0.1220   -1.0937    4.5599 H   0  0  0  0  0  0  0  0  0  0  0  0
    1.1120   -2.1849    3.5601 H   0  0  0  0  0  0  0  0  0  0  0  0
  5  6  2  0  0  0  0
  5  7  1  0  0  0  0
  2  3  1  0  0  0  0
  2  4  1  0  0  0  0
  2  5  1  0  0  0  0
  1  2  1  0  0  0  0
 22 23  2  0  0  0  0
 22 24  1  0  0  0  0
 20 21  1  0  0  0  0
 18 19  1  0  0  0  0
 18 20  1  0  0  0  0
 16 17  1  0  0  0  0
 16 18  1  0  0  0  0
 15 16  2  0  0  0  0
 14 15  1  0  0  0  0
 14 20  2  0  0  0  0
 11 12  1  0  0  0  0
 11 13  1  0  0  0  0
 11 14  1  0  0  0  0
  9 10  1  0  0  0  0
  9 11  1  0  0  0  0
  9 22  1  0  0  0  0
  7  8  1  0  0  0  0
  7  9  1  0  0  0  0
 26 27  1  0  0  0  0
 26 28  1  0  0  0  0
 26 29  1  0  0  0  0
 24 25  1  0  0  0  0
 24 26  1  0  0  0  0
M  END
$$$$
default_name
  -OEChem-01062215323D

 29 29  0     1  0  0  0  0  0999 V2000
   -2.9561   -3.9186    1.3887 H   0  0  0  0  0  0  0  0  0  0  0  0
   -3.1191   -2.9346    0.9517 C   0  0  0  0  0  0  0  0  0  0  0  0
   -3.7811   -2.3546    1.5917 H   0  0  0  0  0  0  0  0  0  0  0  0
   -3.5591   -3.0406   -0.0383 H   0  0  0  0  0  0  0  0  0  0  0  0
   -1.7921   -2.2226    0.8327 C   0  0  0  0  0  0  0  0  0  0  0  0
   -0.7611   -2.7766    1.1927 O   0  0  0  0  0  0  0  0  0  0  0  0
   -1.8201   -0.9926    0.3247 N   0  0  0  0  0  0  0  0  0  0  0  0
   -2.7141   -0.5816    0.0927 H   0  0  0  0  0  0  0  0  0  0  0  0
   -0.6481   -0.1156    0.2017 C   0  0  1  0  0  0  0  0  0  0  0  0
   -0.1603   -0.3309   -0.7511 H   0  0  0  0  0  0  0  0  0  0  0  0
   -1.1001    1.3577    0.1896 C   0  0  0  0  0  0  0  0  0  0  0  0
   -1.6924    1.5695    1.0809 H   0  0  0  0  0  0  0  0  0  0  0  0
   -0.2273    2.0116    0.2125 H   0  0  0  0  0  0  0  0  0  0  0  0
   -1.9529    1.6999   -1.0077 C   0  0  0  0  0  0  0  0  0  0  0  0
   -1.4945    1.8801   -2.3134 N   0  0  0  0  0  0  0  0  0  0  0  0
   -2.5840    2.1197   -3.0576 C   0  0  0  0  0  0  0  0  0  0  0  0
   -2.5677    2.3147   -4.1225 H   0  0  0  0  0  0  0  0  0  0  0  0
   -3.6910    2.0737   -2.2975 N   0  0  0  0  0  0  0  0  0  0  0  0
   -4.6367    2.2022   -2.6307 H   0  0  0  0  0  0  0  0  0  0  0  0
   -3.3131    1.8058   -1.0006 C   0  0  0  0  0  0  0  0  0  0  0  0
   -3.9547    1.6791   -0.1377 H   0  0  0  0  0  0  0  0  0  0  0  0
    0.3707   -0.4096    1.3172 C   0  0  0  0  0  0  0  0  0  0  0  0
    1.5196    0.0242    1.2322 O   0  0  0  0  0  0  0  0  0  0  0  0
   -0.0450   -1.1331    2.3616 N   0  0  0  0  0  0  0  0  0  0  0  0
   -0.9722   -1.5386    2.2999 H   0  0  0  0  0  0  0  0  0  0  0  0
    0.7834   -1.4918    3.5103 C   0  0  0  0  0  0  0  0  0  0  0  0
    1.4712   -0.6758    3.7466 H   0  0  0  0  0  0  0  0  0  0  0  0
    0.1507   -1.6877    4.3771 H   0  0  0  0  0  0  0  0  0  0  0  0
    1.3643   -2.3856    3.2768 H   0  0  0  0  0  0  0  0  0  0  0  0
  5  6  2  0  0  0  0
  5  7  1  0  0  0  0
  2  3  1  0  0  0  0
  2  4  1  0  0  0  0
  2  5  1  0  0  0  0
  1  2  1  0  0  0  0
 22 23  2  0  0  0  0
 22 24  1  0  0  0  0
 20 21  1  0  0  0  0
 18 19  1  0  0  0  0
 18 20  1  0  0  0  0
 16 17  1  0  0  0  0
 16 18  1  0  0  0  0
 15 16  2  0  0  0  0
 14 15  1  0  0  0  0
 14 20  2  0  0  0  0
 11 12  1  0  0  0  0
 11 13  1  0  0  0  0
 11 14  1  0  0  0  0
  9 10  1  0  0  0  0
  9 11  1  0  0  0  0
  9 22  1  0  0  0  0
  7  8  1  0  0  0  0
  7  9  1  0  0  0  0
 26 27  1  0  0  0  0
 26 28  1  0  0  0  0
 26 29  1  0  0  0  0
 24 25  1  0  0  0  0
 24 26  1  0  0  0  0
M  END
$$$$
default_name
  -OEChem-01062215323D

 29 29  0     1  0  0  0  0  0999 V2000
   -2.9561   -3.9186    1.3887 H   0  0  0  0  0  0  0  0  0  0  0  0
   -3.1191   -2.9346    0.9517 C   0  0  0  0  0  0  0  0  0  0  0  0
   -3.7811   -2.3546    1.5917 H   0  0  0  0  0  0  0  0  0  0  0  0
   -3.5591   -3.0406   -0.0383 H   0  0  0  0  0  0  0  0  0  0  0  0
   -1.7921   -2.2226    0.8327 C   0  0  0  0  0  0  0  0  0  0  0  0
   -0.7611   -2.7766    1.1927 O   0  0  0  0  0  0  0  0  0  0  0  0
   -1.8201   -0.9926    0.3247 N   0  0  0  0  0  0  0  0  0  0  0  0
   -2.7141   -0.5816    0.0927 H   0  0  0  0  0  0  0  0  0  0  0  0
   -0.6481   -0.1156    0.2017 C   0  0  1  0  0  0  0  0  0  0  0  0
   -0.1603   -0.3309   -0.7511 H   0  0  0  0  0  0  0  0  0  0  0  0
   -1.1001    1.3577    0.1896 C   0  0  0  0  0  0  0  0  0  0  0  0
   -1.6924    1.5695    1.0809 H   0  0  0  0  0  0  0  0  0  0  0  0
   -0.2273    2.0116    0.2125 H   0  0  0  0  0  0  0  0  0  0  0  0
   -1.9529    1.6999   -1.0077 C   0  0  0  0  0  0  0  0  0  0  0  0
   -1.4945    1.8801   -2.3134 N   0  0  0  0  0  0  0  0  0  0  0  0
   -2.5840    2.1197   -3.0576 C   0  0  0  0  0  0  0  0  0  0  0  0
   -2.5677    2.3147   -4.1225 H   0  0  0  0  0  0  0  0  0  0  0  0
   -3.6910    2.0737   -2.2975 N   0  0  0  0  0  0  0  0  0  0  0  0
   -4.6367    2.2022   -2.6307 H   0  0  0  0  0  0  0  0  0  0  0  0
   -3.3131    1.8058   -1.0006 C   0  0  0  0  0  0  0  0  0  0  0  0
   -3.9547    1.6791   -0.1377 H   0  0  0  0  0  0  0  0  0  0  0  0
    0.3707   -0.4096    1.3172 C   0  0  0  0  0  0  0  0  0  0  0  0
    1.4172    0.2355    1.3814 O   0  0  0  0  0  0  0  0  0  0  0  0
    0.0672   -1.3694    2.1968 N   0  0  0  0  0  0  0  0  0  0  0  0
   -0.7624   -1.9207    2.0075 H   0  0  0  0  0  0  0  0  0  0  0  0
    0.9106   -1.7667    3.3217 C   0  0  0  0  0  0  0  0  0  0  0  0
    1.4208   -0.8931    3.7354 H   0  0  0  0  0  0  0  0  0  0  0  0
    0.2989   -2.2248    4.1002 H   0  0  0  0  0  0  0  0  0  0  0  0
    1.6596   -2.4836    2.9813 H   0  0  0  0  0  0  0  0  0  0  0  0
  5  6  2  0  0  0  0
  5  7  1  0  0  0  0
  2  3  1  0  0  0  0
  2  4  1  0  0  0  0
  2  5  1  0  0  0  0
  1  2  1  0  0  0  0
 22 23  2  0  0  0  0
 22 24  1  0  0  0  0
 20 21  1  0  0  0  0
 18 19  1  0  0  0  0
 18 20  1  0  0  0  0
 16 17  1  0  0  0  0
 16 18  1  0  0  0  0
 15 16  2  0  0  0  0
 14 15  1  0  0  0  0
 14 20  2  0  0  0  0
 11 12  1  0  0  0  0
 11 13  1  0  0  0  0
 11 14  1  0  0  0  0
  9 10  1  0  0  0  0
  9 11  1  0  0  0  0
  9 22  1  0  0  0  0
  7  8  1  0  0  0  0
  7  9  1  0  0  0  0
 26 27  1  0  0  0  0
 26 28  1  0  0  0  0
 26 29  1  0  0  0  0
 24 25  1  0  0  0  0
 24 26  1  0  0  0  0
M  END
$$$$
default_name
  -OEChem-01062215323D

 29 29  0     1  0  0  0  0  0999 V2000
   -2.9561   -3.9186    1.3887 H   0  0  0  0  0  0  0  0  0  0  0  0
   -3.1191   -2.9346    0.9517 C   0  0  0  0  0  0  0  0  0  0  0  0
   -3.7811   -2.3546    1.5917 H   0  0  0  0  0  0  0  0  0  0  0  0
   -3.5591   -3.0406   -0.0383 H   0  0  0  0  0  0  0  0  0  0  0  0
   -1.7921   -2.2226    0.8327 C   0  0  0  0  0  0  0  0  0  0  0  0
   -0.7611   -2.7766    1.1927 O   0  0  0  0  0  0  0  0  0  0  0  0
   -1.8201   -0.9926    0.3247 N   0  0  0  0  0  0  0  0  0  0  0  0
   -2.7141   -0.5816    0.0927 H   0  0  0  0  0  0  0  0  0  0  0  0
   -0.6481   -0.1156    0.2017 C   0  0  1  0  0  0  0  0  0  0  0  0
   -0.1603   -0.3309   -0.7511 H   0  0  0  0  0  0  0  0  0  0  0  0
   -1.1001    1.3577    0.1896 C   0  0  0  0  0  0  0  0  0  0  0  0
   -1.6924    1.5695    1.0809 H   0  0  0  0  0  0  0  0  0  0  0  0
   -0.2273    2.0116    0.2125 H   0  0  0  0  0  0  0  0  0  0  0  0
   -1.9529    1.6999   -1.0077 C   0  0  0  0  0  0  0  0  0  0  0  0
   -1.4945    1.8801   -2.3134 N   0  0  0  0  0  0  0  0  0  0  0  0
   -2.5840    2.1197   -3.0576 C   0  0  0  0  0  0  0  0  0  0  0  0
   -2.5677    2.3147   -4.1225 H   0  0  0  0  0  0  0  0  0  0  0  0
   -3.6910    2.0737   -2.2975 N   0  0  0  0  0  0  0  0  0  0  0  0
   -4.6367    2.2022   -2.6307 H   0  0  0  0  0  0  0  0  0  0  0  0
   -3.3131    1.8058   -1.0006 C   0  0  0  0  0  0  0  0  0  0  0  0
   -3.9547    1.6791   -0.1377 H   0  0  0  0  0  0  0  0  0  0  0  0
    0.3707   -0.4096    1.3172 C   0  0  0  0  0  0  0  0  0  0  0  0
    1.2712    0.3948    1.5567 O   0  0  0  0  0  0  0  0  0  0  0  0
    0.2281   -1.5483    2.0027 N   0  0  0  0  0  0  0  0  0  0  0  0
   -0.4736   -2.2003    1.6700 H   0  0  0  0  0  0  0  0  0  0  0  0
    1.0943   -1.9761    3.0987 C   0  0  0  0  0  0  0  0  0  0  0  0
    1.4134   -1.1105    3.6848 H   0  0  0  0  0  0  0  0  0  0  0  0
    0.5565   -2.6683    3.7480 H   0  0  0  0  0  0  0  0  0  0  0  0
    1.9778   -2.4723    2.6936 H   0  0  0  0  0  0  0  0  0  0  0  0
  5  6  2  0  0  0  0
  5  7  1  0  0  0  0
  2  3  1  0  0  0  0
  2  4  1  0  0  0  0
  2  5  1  0  0  0  0
  1  2  1  0  0  0  0
 22 23  2  0  0  0  0
 22 24  1  0  0  0  0
 20 21  1  0  0  0  0
 18 19  1  0  0  0  0
 18 20  1  0  0  0  0
 16 17  1  0  0  0  0
 16 18  1  0  0  0  0
 15 16  2  0  0  0  0
 14 15  1  0  0  0  0
 14 20  2  0  0  0  0
 11 12  1  0  0  0  0
 11 13  1  0  0  0  0
 11 14  1  0  0  0  0
  9 10  1  0  0  0  0
  9 11  1  0  0  0  0
  9 22  1  0  0  0  0
  7  8  1  0  0  0  0
  7  9  1  0  0  0  0
 26 27  1  0  0  0  0
 26 28  1  0  0  0  0
 26 29  1  0  0  0  0
 24 25  1  0  0  0  0
 24 26  1  0  0  0  0
M  END
$$$$
default_name
  -OEChem-01062215323D

 29 29  0     1  0  0  0  0  0999 V2000
   -2.9561   -3.9186    1.3887 H   0  0  0  0  0  0  0  0  0  0  0  0
   -3.1191   -2.9346    0.9517 C   0  0  0  0  0  0  0  0  0  0  0  0
   -3.7811   -2.3546    1.5917 H   0  0  0  0  0  0  0  0  0  0  0  0
   -3.5591   -3.0406   -0.0383 H   0  0  0  0  0  0  0  0  0  0  0  0
   -1.7921   -2.2226    0.8327 C   0  0  0  0  0  0  0  0  0  0  0  0
   -0.7611   -2.7766    1.1927 O   0  0  0  0  0  0  0  0  0  0  0  0
   -1.8201   -0.9926    0.3247 N   0  0  0  0  0  0  0  0  0  0  0  0
   -2.7141   -0.5816    0.0927 H   0  0  0  0  0  0  0  0  0  0  0  0
   -0.6481   -0.1156    0.2017 C   0  0  1  0  0  0  0  0  0  0  0  0
   -0.1603   -0.3309   -0.7511 H   0  0  0  0  0  0  0  0  0  0  0  0
   -1.1001    1.3577    0.1896 C   0  0  0  0  0  0  0  0  0  0  0  0
   -1.6924    1.5695    1.0809 H   0  0  0  0  0  0  0  0  0  0  0  0
   -0.2273    2.0116    0.2125 H   0  0  0  0  0  0  0  0  0  0  0  0
   -1.9529    1.6999   -1.0077 C   0  0  0  0  0  0  0  0  0  0  0  0
   -1.4945    1.8801   -2.3134 N   0  0  0  0  0  0  0  0  0  0  0  0
   -2.5840    2.1197   -3.0576 C   0  0  0  0  0  0  0  0  0  0  0  0
   -2.5677    2.3147   -4.1225 H   0  0  0  0  0  0  0  0  0  0  0  0
   -3.6910    2.0737   -2.2975 N   0  0  0  0  0  0  0  0  0  0  0  0
   -4.6367    2.2022   -2.6307 H   0  0  0  0  0  0  0  0  0  0  0  0
   -3.3131    1.8058   -1.0006 C   0  0  0  0  0  0  0  0  0  0  0  0
   -3.9547    1.6791   -0.1377 H   0  0  0  0  0  0  0  0  0  0  0  0
    0.3707   -0.4096    1.3172 C   0  0  0  0  0  0  0  0  0  0  0  0
    1.0917    0.4913    1.7461 O   0  0  0  0  0  0  0  0  0  0  0  0
    0.4266   -1.6578    1.7925 N   0  0  0  0  0  0  0  0  0  0  0  0
   -0.1255   -2.3583    1.3104 H   0  0  0  0  0  0  0  0  0  0  0  0
    1.3221   -2.1057    2.8565 C   0  0  0  0  0  0  0  0  0  0  0  0
    1.4496   -1.3132    3.5984 H   0  0  0  0  0  0  0  0  0  0  0  0
    0.9059   -2.9880    3.3446 H   0  0  0  0  0  0  0  0  0  0  0  0
    2.2973   -2.3524    2.4334 H   0  0  0  0  0  0  0  0  0  0  0  0
  5  6  2  0  0  0  0
  5  7  1  0  0  0  0
  2  3  1  0  0  0  0
  2  4  1  0  0  0  0
  2  5  1  0  0  0  0
  1  2  1  0  0  0  0
 22 23  2  0  0  0  0
 22 24  1  0  0  0  0
 20 21  1  0  0  0  0
 18 19  1  0  0  0  0
 18 20  1  0  0  0  0
 16 17  1  0  0  0  0
 16 18  1  0  0  0  0
 15 16  2  0  0  0  0
 14 15  1  0  0  0  0
 14 20  2  0  0  0  0
 11 12  1  0  0  0  0
 11 13  1  0  0  0  0
 11 14  1  0  0  0  0
  9 10  1  0  0  0  0
  9 11  1  0  0  0  0
  9 22  1  0  0  0  0
  7  8  1  0  0  0  0
  7  9  1  0  0  0  0
 26 27  1  0  0  0  0
 26 28  1  0  0  0  0
 26 29  1  0  0  0  0
 24 25  1  0  0  0  0
 24 26  1  0  0  0  0
M  END
$$$$
default_name
  -OEChem-01062215323D

 29 29  0     1  0  0  0  0  0999 V2000
   -2.9561   -3.9186    1.3887 H   0  0  0  0  0  0  0  0  0  0  0  0
   -3.1191   -2.9346    0.9517 C   0  0  0  0  0  0  0  0  0  0  0  0
   -3.7811   -2.3546    1.5917 H   0  0  0  0  0  0  0  0  0  0  0  0
   -3.5591   -3.0406   -0.0383 H   0  0  0  0  0  0  0  0  0  0  0  0
   -1.7921   -2.2226    0.8327 C   0  0  0  0  0  0  0  0  0  0  0  0
   -0.7611   -2.7766    1.1927 O   0  0  0  0  0  0  0  0  0  0  0  0
   -1.8201   -0.9926    0.3247 N   0  0  0  0  0  0  0  0  0  0  0  0
   -2.7141   -0.5816    0.0927 H   0  0  0  0  0  0  0  0  0  0  0  0
   -0.6481   -0.1156    0.2017 C   0  0  1  0  0  0  0  0  0  0  0  0
   -0.1603   -0.3309   -0.7511 H   0  0  0  0  0  0  0  0  0  0  0  0
   -1.1001    1.3577    0.1896 C   0  0  0  0  0  0  0  0  0  0  0  0
   -1.6924    1.5695    1.0809 H   0  0  0  0  0  0  0  0  0  0  0  0
   -0.2273    2.0116    0.2125 H   0  0  0  0  0  0  0  0  0  0  0  0
   -1.9529    1.6999   -1.0077 C   0  0  0  0  0  0  0  0  0  0  0  0
   -1.4945    1.8801   -2.3134 N   0  0  0  0  0  0  0  0  0  0  0  0
   -2.5840    2.1197   -3.0576 C   0  0  0  0  0  0  0  0  0  0  0  0
   -2.5677    2.3147   -4.1225 H   0  0  0  0  0  0  0  0  0  0  0  0
   -3.6910    2.0737   -2.2975 N   0  0  0  0  0  0  0  0  0  0  0  0
   -4.6367    2.2022   -2.6307 H   0  0  0  0  0  0  0  0  0  0  0  0
   -3.3131    1.8058   -1.0006 C   0  0  0  0  0  0  0  0  0  0  0  0
   -3.9547    1.6791   -0.1377 H   0  0  0  0  0  0  0  0  0  0  0  0
    0.3707   -0.4096    1.3172 C   0  0  0  0  0  0  0  0  0  0  0  0
    0.8908    0.5183    1.9367 O   0  0  0  0  0  0  0  0  0  0  0  0
    0.6493   -1.6902    1.5805 N   0  0  0  0  0  0  0  0  0  0  0  0
    0.2582   -2.3841    0.9532 H   0  0  0  0  0  0  0  0  0  0  0  0
    1.5784   -2.1466    2.6116 C   0  0  0  0  0  0  0  0  0  0  0  0
    1.5268   -1.4874    3.4819 H   0  0  0  0  0  0  0  0  0  0  0  0
    1.3233   -3.1622    2.9174 H   0  0  0  0  0  0  0  0  0  0  0  0
    2.5963   -2.1320    2.2185 H   0  0  0  0  0  0  0  0  0  0  0  0
  5  6  2  0  0  0  0
  5  7  1  0  0  0  0
  2  3  1  0  0  0  0
  2  4  1  0  0  0  0
  2  5  1  0  0  0  0
  1  2  1  0  0  0  0
 22 23  2  0  0  0  0
 22 24  1  0  0  0  0
 20 21  1  0  0  0  0
 18 19  1  0  0  0  0
 18 20  1  0  0  0  0
 16 17  1  0  0  0  0
 16 18  1  0  0  0  0
 15 16  2  0  0  0  0
 14 15  1  0  0  0  0
 14 20  2  0  0  0  0
 11 12  1  0  0  0  0
 11 13  1  0  0  0  0
 11 14  1  0  0  0  0
  9 10  1  0  0  0  0
  9 11  1  0  0  0  0
  9 22  1  0  0  0  0
  7  8  1  0  0  0  0
  7  9  1  0  0  0  0
 26 27  1  0  0  0  0
 26 28  1  0  0  0  0
 26 29  1  0  0  0  0
 24 25  1  0  0  0  0
 24 26  1  0  0  0  0
M  END
$$$$
default_name
  -OEChem-01062215323D

 29 29  0     1  0  0  0  0  0999 V2000
   -2.9561   -3.9186    1.3887 H   0  0  0  0  0  0  0  0  0  0  0  0
   -3.1191   -2.9346    0.9517 C   0  0  0  0  0  0  0  0  0  0  0  0
   -3.7811   -2.3546    1.5917 H   0  0  0  0  0  0  0  0  0  0  0  0
   -3.5591   -3.0406   -0.0383 H   0  0  0  0  0  0  0  0  0  0  0  0
   -1.7921   -2.2226    0.8327 C   0  0  0  0  0  0  0  0  0  0  0  0
   -0.7611   -2.7766    1.1927 O   0  0  0  0  0  0  0  0  0  0  0  0
   -1.8201   -0.9926    0.3247 N   0  0  0  0  0  0  0  0  0  0  0  0
   -2.7141   -0.5816    0.0927 H   0  0  0  0  0  0  0  0  0  0  0  0
   -0.6481   -0.1156    0.2017 C   0  0  1  0  0  0  0  0  0  0  0  0
   -0.1603   -0.3309   -0.7511 H   0  0  0  0  0  0  0  0  0  0  0  0
   -1.1001    1.3577    0.1896 C   0  0  0  0  0  0  0  0  0  0  0  0
   -1.6924    1.5695    1.0809 H   0  0  0  0  0  0  0  0  0  0  0  0
   -0.2273    2.0116    0.2125 H   0  0  0  0  0  0  0  0  0  0  0  0
   -1.9529    1.6999   -1.0077 C   0  0  0  0  0  0  0  0  0  0  0  0
   -1.4945    1.8801   -2.3134 N   0  0  0  0  0  0  0  0  0  0  0  0
   -2.5840    2.1197   -3.0576 C   0  0  0  0  0  0  0  0  0  0  0  0
   -2.5677    2.3147   -4.1225 H   0  0  0  0  0  0  0  0  0  0  0  0
   -3.6910    2.0737   -2.2975 N   0  0  0  0  0  0  0  0  0  0  0  0
   -4.6367    2.2022   -2.6307 H   0  0  0  0  0  0  0  0  0  0  0  0
   -3.3131    1.8058   -1.0006 C   0  0  0  0  0  0  0  0  0  0  0  0
   -3.9547    1.6791   -0.1377 H   0  0  0  0  0  0  0  0  0  0  0  0
    0.3707   -0.4096    1.3172 C   0  0  0  0  0  0  0  0  0  0  0  0
    0.6823    0.4741    2.1156 O   0  0  0  0  0  0  0  0  0  0  0  0
    0.8810   -1.6435    1.3812 N   0  0  0  0  0  0  0  0  0  0  0  0
    0.6513   -2.2758    0.6227 H   0  0  0  0  0  0  0  0  0  0  0  0
    1.8458   -2.0961    2.3807 C   0  0  0  0  0  0  0  0  0  0  0  0
    1.6398   -1.6212    3.3434 H   0  0  0  0  0  0  0  0  0  0  0  0
    1.7803   -3.1790    2.4956 H   0  0  0  0  0  0  0  0  0  0  0  0
    2.8543   -1.8262    2.0633 H   0  0  0  0  0  0  0  0  0  0  0  0
  5  6  2  0  0  0  0
  5  7  1  0  0  0  0
  2  3  1  0  0  0  0
  2  4  1  0  0  0  0
  2  5  1  0  0  0  0
  1  2  1  0  0  0  0
 22 23  2  0  0  0  0
 22 24  1  0  0  0  0
 20 21  1  0  0  0  0
 18 19  1  0  0  0  0
 18 20  1  0  0  0  0
 16 17  1  0  0  0  0
 16 18  1  0  0  0  0
 15 16  2  0  0  0  0
 14 15  1  0  0  0  0
 14 20  2  0  0  0  0
 11 12  1  0  0  0  0
 11 13  1  0  0  0  0
 11 14  1  0  0  0  0
  9 10  1  0  0  0  0
  9 11  1  0  0  0  0
  9 22  1  0  0  0  0
  7  8  1  0  0  0  0
  7  9  1  0  0  0  0
 26 27  1  0  0  0  0
 26 28  1  0  0  0  0
 26 29  1  0  0  0  0
 24 25  1  0  0  0  0
 24 26  1  0  0  0  0
M  END
$$$$
default_name
  -OEChem-01062215323D

 29 29  0     1  0  0  0  0  0999 V2000
   -2.9561   -3.9186    1.3887 H   0  0  0  0  0  0  0  0  0  0  0  0
   -3.1191   -2.9346    0.9517 C   0  0  0  0  0  0  0  0  0  0  0  0
   -3.7811   -2.3546    1.5917 H   0  0  0  0  0  0  0  0  0  0  0  0
   -3.5591   -3.0406   -0.0383 H   0  0  0  0  0  0  0  0  0  0  0  0
   -1.7921   -2.2226    0.8327 C   0  0  0  0  0  0  0  0  0  0  0  0
   -0.7611   -2.7766    1.1927 O   0  0  0  0  0  0  0  0  0  0  0  0
   -1.8201   -0.9926    0.3247 N   0  0  0  0  0  0  0  0  0  0  0  0
   -2.7141   -0.5816    0.0927 H   0  0  0  0  0  0  0  0  0  0  0  0
   -0.6481   -0.1156    0.2017 C   0  0  1  0  0  0  0  0  0  0  0  0
   -0.1603   -0.3309   -0.7511 H   0  0  0  0  0  0  0  0  0  0  0  0
   -1.1001    1.3577    0.1896 C   0  0  0  0  0  0  0  0  0  0  0  0
   -1.6924    1.5695    1.0809 H   0  0  0  0  0  0  0  0  0  0  0  0
   -0.2273    2.0116    0.2125 H   0  0  0  0  0  0  0  0  0  0  0  0
   -1.9529    1.6999   -1.0077 C   0  0  0  0  0  0  0  0  0  0  0  0
   -1.4945    1.8801   -2.3134 N   0  0  0  0  0  0  0  0  0  0  0  0
   -2.5840    2.1197   -3.0576 C   0  0  0  0  0  0  0  0  0  0  0  0
   -2.5677    2.3147   -4.1225 H   0  0  0  0  0  0  0  0  0  0  0  0
   -3.6910    2.0737   -2.2975 N   0  0  0  0  0  0  0  0  0  0  0  0
   -4.6367    2.2022   -2.6307 H   0  0  0  0  0  0  0  0  0  0  0  0
   -3.3131    1.8058   -1.0006 C   0  0  0  0  0  0  0  0  0  0  0  0
   -3.9547    1.6791   -0.1377 H   0  0  0  0  0  0  0  0  0  0  0  0
    0.3707   -0.4096    1.3172 C   0  0  0  0  0  0  0  0  0  0  0  0
    0.4803    0.3616    2.2704 O   0  0  0  0  0  0  0  0  0  0  0  0
    1.1059   -1.5207    1.2082 N   0  0  0  0  0  0  0  0  0  0  0  0
    1.0270   -2.0409    0.3415 H   0  0  0  0  0  0  0  0  0  0  0  0
    2.1060   -1.9576    2.1796 C   0  0  0  0  0  0  0  0  0  0  0  0
    1.7810   -1.7056    3.1923 H   0  0  0  0  0  0  0  0  0  0  0  0
    2.2458   -3.0372    2.1079 H   0  0  0  0  0  0  0  0  0  0  0  0
    3.0539   -1.4559    1.9787 H   0  0  0  0  0  0  0  0  0  0  0  0
  5  6  2  0  0  0  0
  5  7  1  0  0  0  0
  2  3  1  0  0  0  0
  2  4  1  0  0  0  0
  2  5  1  0  0  0  0
  1  2  1  0  0  0  0
 22 23  2  0  0  0  0
 22 24  1  0  0  0  0
 20 21  1  0  0  0  0
 18 19  1  0  0  0  0
 18 20  1  0  0  0  0
 16 17  1  0  0  0  0
 16 18  1  0  0  0  0
 15 16  2  0  0  0  0
 14 15  1  0  0  0  0
 14 20  2  0  0  0  0
 11 12  1  0  0  0  0
 11 13  1  0  0  0  0
 11 14  1  0  0  0  0
  9 10  1  0  0  0  0
  9 11  1  0  0  0  0
  9 22  1  0  0  0  0
  7  8  1  0  0  0  0
  7  9  1  0  0  0  0
 26 27  1  0  0  0  0
 26 28  1  0  0  0  0
 26 29  1  0  0  0  0
 24 25  1  0  0  0  0
 24 26  1  0  0  0  0
M  END
$$$$
default_name
  -OEChem-01062215323D

 29 29  0     1  0  0  0  0  0999 V2000
   -2.9561   -3.9186    1.3887 H   0  0  0  0  0  0  0  0  0  0  0  0
   -3.1191   -2.9346    0.9517 C   0  0  0  0  0  0  0  0  0  0  0  0
   -3.7811   -2.3546    1.5917 H   0  0  0  0  0  0  0  0  0  0  0  0
   -3.5591   -3.0406   -0.0383 H   0  0  0  0  0  0  0  0  0  0  0  0
   -1.7921   -2.2226    0.8327 C   0  0  0  0  0  0  0  0  0  0  0  0
   -0.7611   -2.7766    1.1927 O   0  0  0  0  0  0  0  0  0  0  0  0
   -1.8201   -0.9926    0.3247 N   0  0  0  0  0  0  0  0  0  0  0  0
   -2.7141   -0.5816    0.0927 H   0  0  0  0  0  0  0  0  0  0  0  0
   -0.6481   -0.1156    0.2017 C   0  0  1  0  0  0  0  0  0  0  0  0
   -0.1603   -0.3309   -0.7511 H   0  0  0  0  0  0  0  0  0  0  0  0
   -1.1001    1.3577    0.1896 C   0  0  0  0  0  0  0  0  0  0  0  0
   -1.6924    1.5695    1.0809 H   0  0  0  0  0  0  0  0  0  0  0  0
   -0.2273    2.0116    0.2125 H   0  0  0  0  0  0  0  0  0  0  0  0
   -1.9529    1.6999   -1.0077 C   0  0  0  0  0  0  0  0  0  0  0  0
   -1.4945    1.8801   -2.3134 N   0  0  0  0  0  0  0  0  0  0  0  0
   -2.5840    2.1197   -3.0576 C   0  0  0  0  0  0  0  0  0  0  0  0
   -2.5677    2.3147   -4.1225 H   0  0  0  0  0  0  0  0  0  0  0  0
   -3.6910    2.0737   -2.2975 N   0  0  0  0  0  0  0  0  0  0  0  0
   -4.6367    2.2022   -2.6307 H   0  0  0  0  0  0  0  0  0  0  0  0
   -3.3131    1.8058   -1.0006 C   0  0  0  0  0  0  0  0  0  0  0  0
   -3.9547    1.6791   -0.1377 H   0  0  0  0  0  0  0  0  0  0  0  0
    0.3707   -0.4096    1.3172 C   0  0  0  0  0  0  0  0  0  0  0  0
    0.2987    0.1886    2.3907 O   0  0  0  0  0  0  0  0  0  0  0  0
    1.3086   -1.3303    1.0732 N   0  0  0  0  0  0  0  0  0  0  0  0
    1.3598   -1.6953    0.1287 H   0  0  0  0  0  0  0  0  0  0  0  0
    2.3412   -1.7406    2.0219 C   0  0  0  0  0  0  0  0  0  0  0  0
    1.9406   -1.7346    3.0388 H   0  0  0  0  0  0  0  0  0  0  0  0
    2.6879   -2.7465    1.7807 H   0  0  0  0  0  0  0  0  0  0  0  0
    3.1814   -1.0462    1.9702 H   0  0  0  0  0  0  0  0  0  0  0  0
  5  6  2  0  0  0  0
  5  7  1  0  0  0  0
  2  3  1  0  0  0  0
  2  4  1  0  0  0  0
  2  5  1  0  0  0  0
  1  2  1  0  0  0  0
 22 23  2  0  0  0  0
 22 24  1  0  0  0  0
 20 21  1  0  0  0  0
 18 19  1  0  0  0  0
 18 20  1  0  0  0  0
 16 17  1  0  0  0  0
 16 18  1  0  0  0  0
 15 16  2  0  0  0  0
 14 15  1  0  0  0  0
 14 20  2  0  0  0  0
 11 12  1  0  0  0  0
 11 13  1  0  0  0  0
 11 14  1  0  0  0  0
  9 10  1  0  0  0  0
  9 11  1  0  0  0  0
  9 22  1  0  0  0  0
  7  8  1  0  0  0  0
  7  9  1  0  0  0  0
 26 27  1  0  0  0  0
 26 28  1  0  0  0  0
 26 29  1  0  0  0  0
 24 25  1  0  0  0  0
 24 26  1  0  0  0  0
M  END
$$$$
default_name
  -OEChem-01062215323D

 29 29  0     1  0  0  0  0  0999 V2000
   -2.9561   -3.9186    1.3887 H   0  0  0  0  0  0  0  0  0  0  0  0
   -3.1191   -2.9346    0.9517 C   0  0  0  0  0  0  0  0  0  0  0  0
   -3.7811   -2.3546    1.5917 H   0  0  0  0  0  0  0  0  0  0  0  0
   -3.5591   -3.0406   -0.0383 H   0  0  0  0  0  0  0  0  0  0  0  0
   -1.7921   -2.2226    0.8327 C   0  0  0  0  0  0  0  0  0  0  0  0
   -0.7611   -2.7766    1.1927 O   0  0  0  0  0  0  0  0  0  0  0  0
   -1.8201   -0.9926    0.3247 N   0  0  0  0  0  0  0  0  0  0  0  0
   -2.7141   -0.5816    0.0927 H   0  0  0  0  0  0  0  0  0  0  0  0
   -0.6481   -0.1156    0.2017 C   0  0  1  0  0  0  0  0  0  0  0  0
   -0.1603   -0.3309   -0.7511 H   0  0  0  0  0  0  0  0  0  0  0  0
   -1.1001    1.3577    0.1896 C   0  0  0  0  0  0  0  0  0  0  0  0
   -1.6924    1.5695    1.0809 H   0  0  0  0  0  0  0  0  0  0  0  0
   -0.2273    2.0116    0.2125 H   0  0  0  0  0  0  0  0  0  0  0  0
   -1.9529    1.6999   -1.0077 C   0  0  0  0  0  0  0  0  0  0  0  0
   -1.4945    1.8801   -2.3134 N   0  0  0  0  0  0  0  0  0  0  0  0
   -2.5840    2.1197   -3.0576 C   0  0  0  0  0  0  0  0  0  0  0  0
   -2.5677    2.3147   -4.1225 H   0  0  0  0  0  0  0  0  0  0  0  0
   -3.6910    2.0737   -2.2975 N   0  0  0  0  0  0  0  0  0  0  0  0
   -4.6367    2.2022   -2.6307 H   0  0  0  0  0  0  0  0  0  0  0  0
   -3.3131    1.8058   -1.0006 C   0  0  0  0  0  0  0  0  0  0  0  0
   -3.9547    1.6791   -0.1377 H   0  0  0  0  0  0  0  0  0  0  0  0
    0.3707   -0.4096    1.3172 C   0  0  0  0  0  0  0  0  0  0  0  0
    0.1497   -0.0332    2.4683 O   0  0  0  0  0  0  0  0  0  0  0  0
    1.4754   -1.0852    0.9855 N   0  0  0  0  0  0  0  0  0  0  0  0
    1.6269   -1.2626   -0.0012 H   0  0  0  0  0  0  0  0  0  0  0  0
    2.5356   -1.4598    1.9184 C   0  0  0  0  0  0  0  0  0  0  0  0
    2.1078   -1.7065    2.8935 H   0  0  0  0  0  0  0  0  0  0  0  0
    3.0766   -2.3267    1.5363 H   0  0  0  0  0  0  0  0  0  0  0  0
    3.2282   -0.6251    2.0385 H   0  0  0  0  0  0  0  0  0  0  0  0
  5  6  2  0  0  0  0
  5  7  1  0  0  0  0
  2  3  1  0  0  0  0
  2  4  1  0  0  0  0
  2  5  1  0  0  0  0
  1  2  1  0  0  0  0
 22 23  2  0  0  0  0
 22 24  1  0  0  0  0
 20 21  1  0  0  0  0
 18 19  1  0  0  0  0
 18 20  1  0  0  0  0
 16 17  1  0  0  0  0
 16 18  1  0  0  0  0
 15 16  2  0  0  0  0
 14 15  1  0  0  0  0
 14 20  2  0  0  0  0
 11 12  1  0  0  0  0
 11 13  1  0  0  0  0
 11 14  1  0  0  0  0
  9 10  1  0  0  0  0
  9 11  1  0  0  0  0
  9 22  1  0  0  0  0
  7  8  1  0  0  0  0
  7  9  1  0  0  0  0
 26 27  1  0  0  0  0
 26 28  1  0  0  0  0
 26 29  1  0  0  0  0
 24 25  1  0  0  0  0
 24 26  1  0  0  0  0
M  END
$$$$
default_name
  -OEChem-01062215323D

 29 29  0     1  0  0  0  0  0999 V2000
   -2.9561   -3.9186    1.3887 H   0  0  0  0  0  0  0  0  0  0  0  0
   -3.1191   -2.9346    0.9517 C   0  0  0  0  0  0  0  0  0  0  0  0
   -3.7811   -2.3546    1.5917 H   0  0  0  0  0  0  0  0  0  0  0  0
   -3.5591   -3.0406   -0.0383 H   0  0  0  0  0  0  0  0  0  0  0  0
   -1.7921   -2.2226    0.8327 C   0  0  0  0  0  0  0  0  0  0  0  0
   -0.7611   -2.7766    1.1927 O   0  0  0  0  0  0  0  0  0  0  0  0
   -1.8201   -0.9926    0.3247 N   0  0  0  0  0  0  0  0  0  0  0  0
   -2.7141   -0.5816    0.0927 H   0  0  0  0  0  0  0  0  0  0  0  0
   -0.6481   -0.1156    0.2017 C   0  0  1  0  0  0  0  0  0  0  0  0
   -0.1603   -0.3309   -0.7511 H   0  0  0  0  0  0  0  0  0  0  0  0
   -1.1001    1.3577    0.1896 C   0  0  0  0  0  0  0  0  0  0  0  0
   -1.6924    1.5695    1.0809 H   0  0  0  0  0  0  0  0  0  0  0  0
   -0.2273    2.0116    0.2125 H   0  0  0  0  0  0  0  0  0  0  0  0
   -1.9529    1.6999   -1.0077 C   0  0  0  0  0  0  0  0  0  0  0  0
   -1.4945    1.8801   -2.3134 N   0  0  0  0  0  0  0  0  0  0  0  0
   -2.5840    2.1197   -3.0576 C   0  0  0  0  0  0  0  0  0  0  0  0
   -2.5677    2.3147   -4.1225 H   0  0  0  0  0  0  0  0  0  0  0  0
   -3.6910    2.0737   -2.2975 N   0  0  0  0  0  0  0  0  0  0  0  0
   -4.6367    2.2022   -2.6307 H   0  0  0  0  0  0  0  0  0  0  0  0
   -3.3131    1.8058   -1.0006 C   0  0  0  0  0  0  0  0  0  0  0  0
   -3.9547    1.6791   -0.1377 H   0  0  0  0  0  0  0  0  0  0  0  0
    0.3707   -0.4096    1.3172 C   0  0  0  0  0  0  0  0  0  0  0  0
    0.0436   -0.2887    2.4978 O   0  0  0  0  0  0  0  0  0  0  0  0
    1.5949   -0.8022    0.9510 N   0  0  0  0  0  0  0  0  0  0  0  0
    1.8101   -0.7722   -0.0394 H   0  0  0  0  0  0  0  0  0  0  0  0
    2.6758   -1.1344    1.8761 C   0  0  0  0  0  0  0  0  0  0  0  0
    2.2713   -1.6231    2.7662 H   0  0  0  0  0  0  0  0  0  0  0  0
    3.3854   -1.8064    1.3914 H   0  0  0  0  0  0  0  0  0  0  0  0
    3.1910   -0.2213    2.1789 H   0  0  0  0  0  0  0  0  0  0  0  0
  5  6  2  0  0  0  0
  5  7  1  0  0  0  0
  2  3  1  0  0  0  0
  2  4  1  0  0  0  0
  2  5  1  0  0  0  0
  1  2  1  0  0  0  0
 22 23  2  0  0  0  0
 22 24  1  0  0  0  0
 20 21  1  0  0  0  0
 18 19  1  0  0  0  0
 18 20  1  0  0  0  0
 16 17  1  0  0  0  0
 16 18  1  0  0  0  0
 15 16  2  0  0  0  0
 14 15  1  0  0  0  0
 14 20  2  0  0  0  0
 11 12  1  0  0  0  0
 11 13  1  0  0  0  0
 11 14  1  0  0  0  0
  9 10  1  0  0  0  0
  9 11  1  0  0  0  0
  9 22  1  0  0  0  0
  7  8  1  0  0  0  0
  7  9  1  0  0  0  0
 26 27  1  0  0  0  0
 26 28  1  0  0  0  0
 26 29  1  0  0  0  0
 24 25  1  0  0  0  0
 24 26  1  0  0  0  0
M  END
$$$$
default_name
  -OEChem-01062215323D

 29 29  0     1  0  0  0  0  0999 V2000
   -2.9561   -3.9186    1.3887 H   0  0  0  0  0  0  0  0  0  0  0  0
   -3.1191   -2.9346    0.9517 C   0  0  0  0  0  0  0  0  0  0  0  0
   -3.7811   -2.3546    1.5917 H   0  0  0  0  0  0  0  0  0  0  0  0
   -3.5591   -3.0406   -0.0383 H   0  0  0  0  0  0  0  0  0  0  0  0
   -1.7921   -2.2226    0.8327 C   0  0  0  0  0  0  0  0  0  0  0  0
   -0.7611   -2.7766    1.1927 O   0  0  0  0  0  0  0  0  0  0  0  0
   -1.8201   -0.9926    0.3247 N   0  0  0  0  0  0  0  0  0  0  0  0
   -2.7141   -0.5816    0.0927 H   0  0  0  0  0  0  0  0  0  0  0  0
   -0.6481   -0.1156    0.2017 C   0  0  1  0  0  0  0  0  0  0  0  0
   -0.1603   -0.3309   -0.7511 H   0  0  0  0  0  0  0  0  0  0  0  0
   -1.1001    1.3577    0.1896 C   0  0  0  0  0  0  0  0  0  0  0  0
   -1.6924    1.5695    1.0809 H   0  0  0  0  0  0  0  0  0  0  0  0
   -0.2273    2.0116    0.2125 H   0  0  0  0  0  0  0  0  0  0  0  0
   -1.9529    1.6999   -1.0077 C   0  0  0  0  0  0  0  0  0  0  0  0
   -1.4945    1.8801   -2.3134 N   0  0  0  0  0  0  0  0  0  0  0  0
   -2.5840    2.1197   -3.0576 C   0  0  0  0  0  0  0  0  0  0  0  0
   -2.5677    2.3147   -4.1225 H   0  0  0  0  0  0  0  0  0  0  0  0
   -3.6910    2.0737   -2.2975 N   0  0  0  0  0  0  0  0  0  0  0  0
   -4.6367    2.2022   -2.6307 H   0  0  0  0  0  0  0  0  0  0  0  0
   -3.3131    1.8058   -1.0006 C   0  0  0  0  0  0  0  0  0  0  0  0
   -3.9547    1.6791   -0.1377 H   0  0  0  0  0  0  0  0  0  0  0  0
    0.3707   -0.4096    1.3172 C   0  0  0  0  0  0  0  0  0  0  0  0
   -0.0124   -0.5605    2.4773 O   0  0  0  0  0  0  0  0  0  0  0  0
    1.6589   -0.5004    0.9720 N   0  0  0  0  0  0  0  0  0  0  0  0
    1.8971   -0.2577    0.0169 H   0  0  0  0  0  0  0  0  0  0  0  0
    2.7522   -0.7865    1.8980 C   0  0  0  0  0  0  0  0  0  0  0  0
    2.4198   -1.4900    2.6656 H   0  0  0  0  0  0  0  0  0  0  0  0
    3.5933   -1.2211    1.3558 H   0  0  0  0  0  0  0  0  0  0  0  0
    3.0723    0.1376    2.3819 H   0  0  0  0  0  0  0  0  0  0  0  0
  5  6  2  0  0  0  0
  5  7  1  0  0  0  0
  2  3  1  0  0  0  0
  2  4  1  0  0  0  0
  2  5  1  0  0  0  0
  1  2  1  0  0  0  0
 22 23  2  0  0  0  0
 22 24  1  0  0  0  0
 20 21  1  0  0  0  0
 18 19  1  0  0  0  0
 18 20  1  0  0  0  0
 16 17  1  0  0  0  0
 16 18  1  0  0  0  0
 15 16  2  0  0  0  0
 14 15  1  0  0  0  0
 14 20  2  0  0  0  0
 11 12  1  0  0  0  0
 11 13  1  0  0  0  0
 11 14  1  0  0  0  0
  9 10  1  0  0  0  0
  9 11  1  0  0  0  0
  9 22  1  0  0  0  0
  7  8  1  0  0  0  0
  7  9  1  0  0  0  0
 26 27  1  0  0  0  0
 26 28  1  0  0  0  0
 26 29  1  0  0  0  0
 24 25  1  0  0  0  0
 24 26  1  0  0  0  0
M  END
$$$$
default_name
  -OEChem-01062215323D

 29 29  0     1  0  0  0  0  0999 V2000
   -2.9561   -3.9186    1.3887 H   0  0  0  0  0  0  0  0  0  0  0  0
   -3.1191   -2.9346    0.9517 C   0  0  0  0  0  0  0  0  0  0  0  0
   -3.7811   -2.3546    1.5917 H   0  0  0  0  0  0  0  0  0  0  0  0
   -3.5591   -3.0406   -0.0383 H   0  0  0  0  0  0  0  0  0  0  0  0
   -1.7921   -2.2226    0.8327 C   0  0  0  0  0  0  0  0  0  0  0  0
   -0.7611   -2.7766    1.1927 O   0  0  0  0  0  0  0  0  0  0  0  0
   -1.8201   -0.9926    0.3247 N   0  0  0  0  0  0  0  0  0  0  0  0
   -2.7141   -0.5816    0.0927 H   0  0  0  0  0  0  0  0  0  0  0  0
   -0.6481   -0.1156    0.2017 C   0  0  1  0  0  0  0  0  0  0  0  0
   -0.1603   -0.3309   -0.7511 H   0  0  0  0  0  0  0  0  0  0  0  0
   -1.1001    1.3577    0.1896 C   0  0  0  0  0  0  0  0  0  0  0  0
   -1.6924    1.5695    1.0809 H   0  0  0  0  0  0  0  0  0  0  0  0
   -0.2273    2.0116    0.2125 H   0  0  0  0  0  0  0  0  0  0  0  0
   -1.9529    1.6999   -1.0077 C   0  0  0  0  0  0  0  0  0  0  0  0
   -1.4945    1.8801   -2.3134 N   0  0  0  0  0  0  0  0  0  0  0  0
   -2.5840    2.1197   -3.0576 C   0  0  0  0  0  0  0  0  0  0  0  0
   -2.5677    2.3147   -4.1225 H   0  0  0  0  0  0  0  0  0  0  0  0
   -3.6910    2.0737   -2.2975 N   0  0  0  0  0  0  0  0  0  0  0  0
   -4.6367    2.2022   -2.6307 H   0  0  0  0  0  0  0  0  0  0  0  0
   -3.3131    1.8058   -1.0006 C   0  0  0  0  0  0  0  0  0  0  0  0
   -3.9547    1.6791   -0.1377 H   0  0  0  0  0  0  0  0  0  0  0  0
    0.3707   -0.4096    1.3172 C   0  0  0  0  0  0  0  0  0  0  0  0
   -0.0145   -0.8300    2.4082 O   0  0  0  0  0  0  0  0  0  0  0  0
    1.6631   -0.2006    1.0472 N   0  0  0  0  0  0  0  0  0  0  0  0
    1.8817    0.2460    0.1636 H   0  0  0  0  0  0  0  0  0  0  0  0
    2.7598   -0.4399    1.9825 C   0  0  0  0  0  0  0  0  0  0  0  0
    2.5432   -1.3164    2.5986 H   0  0  0  0  0  0  0  0  0  0  0  0
    3.6860   -0.6106    1.4320 H   0  0  0  0  0  0  0  0  0  0  0  0
    2.8804    0.4274    2.6336 H   0  0  0  0  0  0  0  0  0  0  0  0
  5  6  2  0  0  0  0
  5  7  1  0  0  0  0
  2  3  1  0  0  0  0
  2  4  1  0  0  0  0
  2  5  1  0  0  0  0
  1  2  1  0  0  0  0
 22 23  2  0  0  0  0
 22 24  1  0  0  0  0
 20 21  1  0  0  0  0
 18 19  1  0  0  0  0
 18 20  1  0  0  0  0
 16 17  1  0  0  0  0
 16 18  1  0  0  0  0
 15 16  2  0  0  0  0
 14 15  1  0  0  0  0
 14 20  2  0  0  0  0
 11 12  1  0  0  0  0
 11 13  1  0  0  0  0
 11 14  1  0  0  0  0
  9 10  1  0  0  0  0
  9 11  1  0  0  0  0
  9 22  1  0  0  0  0
  7  8  1  0  0  0  0
  7  9  1  0  0  0  0
 26 27  1  0  0  0  0
 26 28  1  0  0  0  0
 26 29  1  0  0  0  0
 24 25  1  0  0  0  0
 24 26  1  0  0  0  0
M  END
$$$$
default_name
  -OEChem-01062215323D

 29 29  0     1  0  0  0  0  0999 V2000
   -2.9561   -3.9186    1.3887 H   0  0  0  0  0  0  0  0  0  0  0  0
   -3.1191   -2.9346    0.9517 C   0  0  0  0  0  0  0  0  0  0  0  0
   -3.7811   -2.3546    1.5917 H   0  0  0  0  0  0  0  0  0  0  0  0
   -3.5591   -3.0406   -0.0383 H   0  0  0  0  0  0  0  0  0  0  0  0
   -1.7921   -2.2226    0.8327 C   0  0  0  0  0  0  0  0  0  0  0  0
   -0.7611   -2.7766    1.1927 O   0  0  0  0  0  0  0  0  0  0  0  0
   -1.8201   -0.9926    0.3247 N   0  0  0  0  0  0  0  0  0  0  0  0
   -2.7141   -0.5816    0.0927 H   0  0  0  0  0  0  0  0  0  0  0  0
   -0.6481   -0.1156    0.2017 C   0  0  1  0  0  0  0  0  0  0  0  0
   -0.1603   -0.3309   -0.7511 H   0  0  0  0  0  0  0  0  0  0  0  0
   -1.1001    1.3577    0.1896 C   0  0  0  0  0  0  0  0  0  0  0  0
   -1.6924    1.5695    1.0809 H   0  0  0  0  0  0  0  0  0  0  0  0
   -0.2273    2.0116    0.2125 H   0  0  0  0  0  0  0  0  0  0  0  0
   -1.9529    1.6999   -1.0077 C   0  0  0  0  0  0  0  0  0  0  0  0
   -1.4945    1.8801   -2.3134 N   0  0  0  0  0  0  0  0  0  0  0  0
   -2.5840    2.1197   -3.0576 C   0  0  0  0  0  0  0  0  0  0  0  0
   -2.5677    2.3147   -4.1225 H   0  0  0  0  0  0  0  0  0  0  0  0
   -3.6910    2.0737   -2.2975 N   0  0  0  0  0  0  0  0  0  0  0  0
   -4.6367    2.2022   -2.6307 H   0  0  0  0  0  0  0  0  0  0  0  0
   -3.3131    1.8058   -1.0006 C   0  0  0  0  0  0  0  0  0  0  0  0
   -3.9547    1.6791   -0.1377 H   0  0  0  0  0  0  0  0  0  0  0  0
    0.3707   -0.4096    1.3172 C   0  0  0  0  0  0  0  0  0  0  0  0
    0.0374   -1.0789    2.2952 O   0  0  0  0  0  0  0  0  0  0  0  0
    1.6072    0.0769    1.1715 N   0  0  0  0  0  0  0  0  0  0  0  0
    1.7652    0.7045    0.3910 H   0  0  0  0  0  0  0  0  0  0  0  0
    2.6978   -0.1182    2.1238 C   0  0  0  0  0  0  0  0  0  0  0  0
    2.6332   -1.1140    2.5698 H   0  0  0  0  0  0  0  0  0  0  0  0
    3.6573   -0.0166    1.6148 H   0  0  0  0  0  0  0  0  0  0  0  0
    2.6281    0.6281    2.9169 H   0  0  0  0  0  0  0  0  0  0  0  0
  5  6  2  0  0  0  0
  5  7  1  0  0  0  0
  2  3  1  0  0  0  0
  2  4  1  0  0  0  0
  2  5  1  0  0  0  0
  1  2  1  0  0  0  0
 22 23  2  0  0  0  0
 22 24  1  0  0  0  0
 20 21  1  0  0  0  0
 18 19  1  0  0  0  0
 18 20  1  0  0  0  0
 16 17  1  0  0  0  0
 16 18  1  0  0  0  0
 15 16  2  0  0  0  0
 14 15  1  0  0  0  0
 14 20  2  0  0  0  0
 11 12  1  0  0  0  0
 11 13  1  0  0  0  0
 11 14  1  0  0  0  0
  9 10  1  0  0  0  0
  9 11  1  0  0  0  0
  9 22  1  0  0  0  0
  7  8  1  0  0  0  0
  7  9  1  0  0  0  0
 26 27  1  0  0  0  0
 26 28  1  0  0  0  0
 26 29  1  0  0  0  0
 24 25  1  0  0  0  0
 24 26  1  0  0  0  0
M  END
$$$$
default_name
  -OEChem-01062215323D

 29 29  0     1  0  0  0  0  0999 V2000
   -2.9561   -3.9186    1.3887 H   0  0  0  0  0  0  0  0  0  0  0  0
   -3.1191   -2.9346    0.9517 C   0  0  0  0  0  0  0  0  0  0  0  0
   -3.7811   -2.3546    1.5917 H   0  0  0  0  0  0  0  0  0  0  0  0
   -3.5591   -3.0406   -0.0383 H   0  0  0  0  0  0  0  0  0  0  0  0
   -1.7921   -2.2226    0.8327 C   0  0  0  0  0  0  0  0  0  0  0  0
   -0.7611   -2.7766    1.1927 O   0  0  0  0  0  0  0  0  0  0  0  0
   -1.8201   -0.9926    0.3247 N   0  0  0  0  0  0  0  0  0  0  0  0
   -2.7141   -0.5816    0.0927 H   0  0  0  0  0  0  0  0  0  0  0  0
   -0.6481   -0.1156    0.2017 C   0  0  1  0  0  0  0  0  0  0  0  0
   -0.3195   -0.1304   -0.8395 H   0  0  0  0  0  0  0  0  0  0  0  0
   -1.0405    1.3303    0.5626 C   0  0  0  0  0  0  0  0  0  0  0  0
   -1.4818    1.3552    1.5600 H   0  0  0  0  0  0  0  0  0  0  0  0
   -0.1502    1.9604    0.5818 H   0  0  0  0  0  0  0  0  0  0  0  0
   -2.0521    1.9190   -0.3904 C   0  0  0  0  0  0  0  0  0  0  0  0
   -1.7912    2.3646   -1.6869 N   0  0  0  0  0  0  0  0  0  0  0  0
   -2.9715    2.7598   -2.1860 C   0  0  0  0  0  0  0  0  0  0  0  0
   -3.1101    3.1722   -3.1775 H   0  0  0  0  0  0  0  0  0  0  0  0
   -3.9508    2.5626   -1.2875 N   0  0  0  0  0  0  0  0  0  0  0  0
   -4.9306    2.7627   -1.4348 H   0  0  0  0  0  0  0  0  0  0  0  0
   -3.3903    2.0284   -0.1485 C   0  0  0  0  0  0  0  0  0  0  0  0
   -3.8974    1.7283    0.7598 H   0  0  0  0  0  0  0  0  0  0  0  0
    0.5168   -0.6410    1.0595 C   0  0  0  0  0  0  0  0  0  0  0  0
    0.3816   -1.6735    1.7161 O   0  0  0  0  0  0  0  0  0  0  0  0
    1.6574    0.0560    1.0496 N   0  0  0  0  0  0  0  0  0  0  0  0
    1.6469    0.9479    0.5677 H   0  0  0  0  0  0  0  0  0  0  0  0
    2.8625   -0.3062    1.7921 C   0  0  0  0  0  0  0  0  0  0  0  0
    2.9750   -1.3931    1.8181 H   0  0  0  0  0  0  0  0  0  0  0  0
    3.7391    0.1320    1.3130 H   0  0  0  0  0  0  0  0  0  0  0  0
    2.7862    0.0646    2.8156 H   0  0  0  0  0  0  0  0  0  0  0  0
  5  6  2  0  0  0  0
  5  7  1  0  0  0  0
  2  3  1  0  0  0  0
  2  4  1  0  0  0  0
  2  5  1  0  0  0  0
  1  2  1  0  0  0  0
 22 23  2  0  0  0  0
 22 24  1  0  0  0  0
 20 21  1  0  0  0  0
 18 19  1  0  0  0  0
 18 20  1  0  0  0  0
 16 17  1  0  0  0  0
 16 18  1  0  0  0  0
 15 16  2  0  0  0  0
 14 15  1  0  0  0  0
 14 20  2  0  0  0  0
 11 12  1  0  0  0  0
 11 13  1  0  0  0  0
 11 14  1  0  0  0  0
  9 10  1  0  0  0  0
  9 11  1  0  0  0  0
  9 22  1  0  0  0  0
  7  8  1  0  0  0  0
  7  9  1  0  0  0  0
 26 27  1  0  0  0  0
 26 28  1  0  0  0  0
 26 29  1  0  0  0  0
 24 25  1  0  0  0  0
 24 26  1  0  0  0  0
M  END
$$$$
default_name
  -OEChem-01062215323D

 29 29  0     1  0  0  0  0  0999 V2000
   -2.9561   -3.9186    1.3887 H   0  0  0  0  0  0  0  0  0  0  0  0
   -3.1191   -2.9346    0.9517 C   0  0  0  0  0  0  0  0  0  0  0  0
   -3.7811   -2.3546    1.5917 H   0  0  0  0  0  0  0  0  0  0  0  0
   -3.5591   -3.0406   -0.0383 H   0  0  0  0  0  0  0  0  0  0  0  0
   -1.7921   -2.2226    0.8327 C   0  0  0  0  0  0  0  0  0  0  0  0
   -0.7611   -2.7766    1.1927 O   0  0  0  0  0  0  0  0  0  0  0  0
   -1.8201   -0.9926    0.3247 N   0  0  0  0  0  0  0  0  0  0  0  0
   -2.7141   -0.5816    0.0927 H   0  0  0  0  0  0  0  0  0  0  0  0
   -0.6481   -0.1156    0.2017 C   0  0  1  0  0  0  0  0  0  0  0  0
   -0.3195   -0.1304   -0.8395 H   0  0  0  0  0  0  0  0  0  0  0  0
   -1.0405    1.3303    0.5626 C   0  0  0  0  0  0  0  0  0  0  0  0
   -1.4818    1.3552    1.5600 H   0  0  0  0  0  0  0  0  0  0  0  0
   -0.1502    1.9604    0.5818 H   0  0  0  0  0  0  0  0  0  0  0  0
   -2.0521    1.9190   -0.3904 C   0  0  0  0  0  0  0  0  0  0  0  0
   -1.7912    2.3646   -1.6869 N   0  0  0  0  0  0  0  0  0  0  0  0
   -2.9715    2.7598   -2.1860 C   0  0  0  0  0  0  0  0  0  0  0  0
   -3.1101    3.1722   -3.1775 H   0  0  0  0  0  0  0  0  0  0  0  0
   -3.9508    2.5626   -1.2875 N   0  0  0  0  0  0  0  0  0  0  0  0
   -4.9306    2.7627   -1.4348 H   0  0  0  0  0  0  0  0  0  0  0  0
   -3.3903    2.0284   -0.1485 C   0  0  0  0  0  0  0  0  0  0  0  0
   -3.8974    1.7283    0.7598 H   0  0  0  0  0  0  0  0  0  0  0  0
    0.5168   -0.6410    1.0595 C   0  0  0  0  0  0  0  0  0  0  0  0
    0.4930   -1.7936    1.4912 O   0  0  0  0  0  0  0  0  0  0  0  0
    1.5349    0.1915    1.2990 N   0  0  0  0  0  0  0  0  0  0  0  0
    1.4237    1.1527    0.9963 H   0  0  0  0  0  0  0  0  0  0  0  0
    2.7229   -0.1469    2.0793 C   0  0  0  0  0  0  0  0  0  0  0  0
    2.9982   -1.1911    1.9103 H   0  0  0  0  0  0  0  0  0  0  0  0
    3.5551    0.4939    1.7844 H   0  0  0  0  0  0  0  0  0  0  0  0
    2.5153   -0.0047    3.1411 H   0  0  0  0  0  0  0  0  0  0  0  0
  5  6  2  0  0  0  0
  5  7  1  0  0  0  0
  2  3  1  0  0  0  0
  2  4  1  0  0  0  0
  2  5  1  0  0  0  0
  1  2  1  0  0  0  0
 22 23  2  0  0  0  0
 22 24  1  0  0  0  0
 20 21  1  0  0  0  0
 18 19  1  0  0  0  0
 18 20  1  0  0  0  0
 16 17  1  0  0  0  0
 16 18  1  0  0  0  0
 15 16  2  0  0  0  0
 14 15  1  0  0  0  0
 14 20  2  0  0  0  0
 11 12  1  0  0  0  0
 11 13  1  0  0  0  0
 11 14  1  0  0  0  0
  9 10  1  0  0  0  0
  9 11  1  0  0  0  0
  9 22  1  0  0  0  0
  7  8  1  0  0  0  0
  7  9  1  0  0  0  0
 26 27  1  0  0  0  0
 26 28  1  0  0  0  0
 26 29  1  0  0  0  0
 24 25  1  0  0  0  0
 24 26  1  0  0  0  0
M  END
$$$$
default_name
  -OEChem-01062215323D

 29 29  0     1  0  0  0  0  0999 V2000
   -2.9561   -3.9186    1.3887 H   0  0  0  0  0  0  0  0  0  0  0  0
   -3.1191   -2.9346    0.9517 C   0  0  0  0  0  0  0  0  0  0  0  0
   -3.7811   -2.3546    1.5917 H   0  0  0  0  0  0  0  0  0  0  0  0
   -3.5591   -3.0406   -0.0383 H   0  0  0  0  0  0  0  0  0  0  0  0
   -1.7921   -2.2226    0.8327 C   0  0  0  0  0  0  0  0  0  0  0  0
   -0.7611   -2.7766    1.1927 O   0  0  0  0  0  0  0  0  0  0  0  0
   -1.8201   -0.9926    0.3247 N   0  0  0  0  0  0  0  0  0  0  0  0
   -2.7141   -0.5816    0.0927 H   0  0  0  0  0  0  0  0  0  0  0  0
   -0.6481   -0.1156    0.2017 C   0  0  1  0  0  0  0  0  0  0  0  0
   -0.3195   -0.1304   -0.8395 H   0  0  0  0  0  0  0  0  0  0  0  0
   -1.0405    1.3303    0.5626 C   0  0  0  0  0  0  0  0  0  0  0  0
   -1.4818    1.3552    1.5600 H   0  0  0  0  0  0  0  0  0  0  0  0
   -0.1502    1.9604    0.5818 H   0  0  0  0  0  0  0  0  0  0  0  0
   -2.0521    1.9190   -0.3904 C   0  0  0  0  0  0  0  0  0  0  0  0
   -1.7912    2.3646   -1.6869 N   0  0  0  0  0  0  0  0  0  0  0  0
   -2.9715    2.7598   -2.1860 C   0  0  0  0  0  0  0  0  0  0  0  0
   -3.1101    3.1722   -3.1775 H   0  0  0  0  0  0  0  0  0  0  0  0
   -3.9508    2.5626   -1.2875 N   0  0  0  0  0  0  0  0  0  0  0  0
   -4.9306    2.7627   -1.4348 H   0  0  0  0  0  0  0  0  0  0  0  0
   -3.3903    2.0284   -0.1485 C   0  0  0  0  0  0  0  0  0  0  0  0
   -3.8974    1.7283    0.7598 H   0  0  0  0  0  0  0  0  0  0  0  0
    0.5168   -0.6410    1.0595 C   0  0  0  0  0  0  0  0  0  0  0  0
    0.6378   -1.8495    1.2603 O   0  0  0  0  0  0  0  0  0  0  0  0
    1.3749    0.2558    1.5557 N   0  0  0  0  0  0  0  0  0  0  0  0
    1.1407    1.2343    1.4307 H   0  0  0  0  0  0  0  0  0  0  0  0
    2.5397   -0.0693    2.3755 C   0  0  0  0  0  0  0  0  0  0  0  0
    2.9833   -1.0106    2.0411 H   0  0  0  0  0  0  0  0  0  0  0  0
    3.2836    0.7245    2.2945 H   0  0  0  0  0  0  0  0  0  0  0  0
    2.2348   -0.1744    3.4180 H   0  0  0  0  0  0  0  0  0  0  0  0
  5  6  2  0  0  0  0
  5  7  1  0  0  0  0
  2  3  1  0  0  0  0
  2  4  1  0  0  0  0
  2  5  1  0  0  0  0
  1  2  1  0  0  0  0
 22 23  2  0  0  0  0
 22 24  1  0  0  0  0
 20 21  1  0  0  0  0
 18 19  1  0  0  0  0
 18 20  1  0  0  0  0
 16 17  1  0  0  0  0
 16 18  1  0  0  0  0
 15 16  2  0  0  0  0
 14 15  1  0  0  0  0
 14 20  2  0  0  0  0
 11 12  1  0  0  0  0
 11 13  1  0  0  0  0
 11 14  1  0  0  0  0
  9 10  1  0  0  0  0
  9 11  1  0  0  0  0
  9 22  1  0  0  0  0
  7  8  1  0  0  0  0
  7  9  1  0  0  0  0
 26 27  1  0  0  0  0
 26 28  1  0  0  0  0
 26 29  1  0  0  0  0
 24 25  1  0  0  0  0
 24 26  1  0  0  0  0
M  END
$$$$
default_name
  -OEChem-01062215323D

 29 29  0     1  0  0  0  0  0999 V2000
   -2.9561   -3.9186    1.3887 H   0  0  0  0  0  0  0  0  0  0  0  0
   -3.1191   -2.9346    0.9517 C   0  0  0  0  0  0  0  0  0  0  0  0
   -3.7811   -2.3546    1.5917 H   0  0  0  0  0  0  0  0  0  0  0  0
   -3.5591   -3.0406   -0.0383 H   0  0  0  0  0  0  0  0  0  0  0  0
   -1.7921   -2.2226    0.8327 C   0  0  0  0  0  0  0  0  0  0  0  0
   -0.7611   -2.7766    1.1927 O   0  0  0  0  0  0  0  0  0  0  0  0
   -1.8201   -0.9926    0.3247 N   0  0  0  0  0  0  0  0  0  0  0  0
   -2.7141   -0.5816    0.0927 H   0  0  0  0  0  0  0  0  0  0  0  0
   -0.6481   -0.1156    0.2017 C   0  0  1  0  0  0  0  0  0  0  0  0
   -0.3195   -0.1304   -0.8395 H   0  0  0  0  0  0  0  0  0  0  0  0
   -1.0405    1.3303    0.5626 C   0  0  0  0  0  0  0  0  0  0  0  0
   -1.4818    1.3552    1.5600 H   0  0  0  0  0  0  0  0  0  0  0  0
   -0.1502    1.9604    0.5818 H   0  0  0  0  0  0  0  0  0  0  0  0
   -2.0521    1.9190   -0.3904 C   0  0  0  0  0  0  0  0  0  0  0  0
   -1.7912    2.3646   -1.6869 N   0  0  0  0  0  0  0  0  0  0  0  0
   -2.9715    2.7598   -2.1860 C   0  0  0  0  0  0  0  0  0  0  0  0
   -3.1101    3.1722   -3.1775 H   0  0  0  0  0  0  0  0  0  0  0  0
   -3.9508    2.5626   -1.2875 N   0  0  0  0  0  0  0  0  0  0  0  0
   -4.9306    2.7627   -1.4348 H   0  0  0  0  0  0  0  0  0  0  0  0
   -3.3903    2.0284   -0.1485 C   0  0  0  0  0  0  0  0  0  0  0  0
   -3.8974    1.7283    0.7598 H   0  0  0  0  0  0  0  0  0  0  0  0
    0.5168   -0.6410    1.0595 C   0  0  0  0  0  0  0  0  0  0  0  0
    0.8062   -1.8373    1.0391 O   0  0  0  0  0  0  0  0  0  0  0  0
    1.1885    0.2446    1.8020 N   0  0  0  0  0  0  0  0  0  0  0  0
    0.8171    1.1872    1.8412 H   0  0  0  0  0  0  0  0  0  0  0  0
    2.3254   -0.0789    2.6607 C   0  0  0  0  0  0  0  0  0  0  0  0
    2.9314   -0.8641    2.2014 H   0  0  0  0  0  0  0  0  0  0  0  0
    2.9430    0.8082    2.8083 H   0  0  0  0  0  0  0  0  0  0  0  0
    1.9639   -0.4331    3.6275 H   0  0  0  0  0  0  0  0  0  0  0  0
  5  6  2  0  0  0  0
  5  7  1  0  0  0  0
  2  3  1  0  0  0  0
  2  4  1  0  0  0  0
  2  5  1  0  0  0  0
  1  2  1  0  0  0  0
 22 23  2  0  0  0  0
 22 24  1  0  0  0  0
 20 21  1  0  0  0  0
 18 19  1  0  0  0  0
 18 20  1  0  0  0  0
 16 17  1  0  0  0  0
 16 18  1  0  0  0  0
 15 16  2  0  0  0  0
 14 15  1  0  0  0  0
 14 20  2  0  0  0  0
 11 12  1  0  0  0  0
 11 13  1  0  0  0  0
 11 14  1  0  0  0  0
  9 10  1  0  0  0  0
  9 11  1  0  0  0  0
  9 22  1  0  0  0  0
  7  8  1  0  0  0  0
  7  9  1  0  0  0  0
 26 27  1  0  0  0  0
 26 28  1  0  0  0  0
 26 29  1  0  0  0  0
 24 25  1  0  0  0  0
 24 26  1  0  0  0  0
M  END
$$$$
default_name
  -OEChem-01062215323D

 29 29  0     1  0  0  0  0  0999 V2000
   -2.9561   -3.9186    1.3887 H   0  0  0  0  0  0  0  0  0  0  0  0
   -3.1191   -2.9346    0.9517 C   0  0  0  0  0  0  0  0  0  0  0  0
   -3.7811   -2.3546    1.5917 H   0  0  0  0  0  0  0  0  0  0  0  0
   -3.5591   -3.0406   -0.0383 H   0  0  0  0  0  0  0  0  0  0  0  0
   -1.7921   -2.2226    0.8327 C   0  0  0  0  0  0  0  0  0  0  0  0
   -0.7611   -2.7766    1.1927 O   0  0  0  0  0  0  0  0  0  0  0  0
   -1.8201   -0.9926    0.3247 N   0  0  0  0  0  0  0  0  0  0  0  0
   -2.7141   -0.5816    0.0927 H   0  0  0  0  0  0  0  0  0  0  0  0
   -0.6481   -0.1156    0.2017 C   0  0  1  0  0  0  0  0  0  0  0  0
   -0.3195   -0.1304   -0.8395 H   0  0  0  0  0  0  0  0  0  0  0  0
   -1.0405    1.3303    0.5626 C   0  0  0  0  0  0  0  0  0  0  0  0
   -1.4818    1.3552    1.5600 H   0  0  0  0  0  0  0  0  0  0  0  0
   -0.1502    1.9604    0.5818 H   0  0  0  0  0  0  0  0  0  0  0  0
   -2.0521    1.9190   -0.3904 C   0  0  0  0  0  0  0  0  0  0  0  0
   -1.7912    2.3646   -1.6869 N   0  0  0  0  0  0  0  0  0  0  0  0
   -2.9715    2.7598   -2.1860 C   0  0  0  0  0  0  0  0  0  0  0  0
   -3.1101    3.1722   -3.1775 H   0  0  0  0  0  0  0  0  0  0  0  0
   -3.9508    2.5626   -1.2875 N   0  0  0  0  0  0  0  0  0  0  0  0
   -4.9306    2.7627   -1.4348 H   0  0  0  0  0  0  0  0  0  0  0  0
   -3.3903    2.0284   -0.1485 C   0  0  0  0  0  0  0  0  0  0  0  0
   -3.8974    1.7283    0.7598 H   0  0  0  0  0  0  0  0  0  0  0  0
    0.5168   -0.6410    1.0595 C   0  0  0  0  0  0  0  0  0  0  0  0
    0.9866   -1.7580    0.8427 O   0  0  0  0  0  0  0  0  0  0  0  0
    0.9882    0.1587    2.0213 N   0  0  0  0  0  0  0  0  0  0  0  0
    0.4751    1.0147    2.2000 H   0  0  0  0  0  0  0  0  0  0  0  0
    2.0946   -0.1749    2.9153 C   0  0  0  0  0  0  0  0  0  0  0  0
    2.8459   -0.7614    2.3803 H   0  0  0  0  0  0  0  0  0  0  0  0
    2.5565    0.7393    3.2910 H   0  0  0  0  0  0  0  0  0  0  0  0
    1.7211   -0.7630    3.7552 H   0  0  0  0  0  0  0  0  0  0  0  0
  5  6  2  0  0  0  0
  5  7  1  0  0  0  0
  2  3  1  0  0  0  0
  2  4  1  0  0  0  0
  2  5  1  0  0  0  0
  1  2  1  0  0  0  0
 22 23  2  0  0  0  0
 22 24  1  0  0  0  0
 20 21  1  0  0  0  0
 18 19  1  0  0  0  0
 18 20  1  0  0  0  0
 16 17  1  0  0  0  0
 16 18  1  0  0  0  0
 15 16  2  0  0  0  0
 14 15  1  0  0  0  0
 14 20  2  0  0  0  0
 11 12  1  0  0  0  0
 11 13  1  0  0  0  0
 11 14  1  0  0  0  0
  9 10  1  0  0  0  0
  9 11  1  0  0  0  0
  9 22  1  0  0  0  0
  7  8  1  0  0  0  0
  7  9  1  0  0  0  0
 26 27  1  0  0  0  0
 26 28  1  0  0  0  0
 26 29  1  0  0  0  0
 24 25  1  0  0  0  0
 24 26  1  0  0  0  0
M  END
$$$$
default_name
  -OEChem-01062215323D

 29 29  0     1  0  0  0  0  0999 V2000
   -2.9561   -3.9186    1.3887 H   0  0  0  0  0  0  0  0  0  0  0  0
   -3.1191   -2.9346    0.9517 C   0  0  0  0  0  0  0  0  0  0  0  0
   -3.7811   -2.3546    1.5917 H   0  0  0  0  0  0  0  0  0  0  0  0
   -3.5591   -3.0406   -0.0383 H   0  0  0  0  0  0  0  0  0  0  0  0
   -1.7921   -2.2226    0.8327 C   0  0  0  0  0  0  0  0  0  0  0  0
   -0.7611   -2.7766    1.1927 O   0  0  0  0  0  0  0  0  0  0  0  0
   -1.8201   -0.9926    0.3247 N   0  0  0  0  0  0  0  0  0  0  0  0
   -2.7141   -0.5816    0.0927 H   0  0  0  0  0  0  0  0  0  0  0  0
   -0.6481   -0.1156    0.2017 C   0  0  1  0  0  0  0  0  0  0  0  0
   -0.3195   -0.1304   -0.8395 H   0  0  0  0  0  0  0  0  0  0  0  0
   -1.0405    1.3303    0.5626 C   0  0  0  0  0  0  0  0  0  0  0  0
   -1.4818    1.3552    1.5600 H   0  0  0  0  0  0  0  0  0  0  0  0
   -0.1502    1.9604    0.5818 H   0  0  0  0  0  0  0  0  0  0  0  0
   -2.0521    1.9190   -0.3904 C   0  0  0  0  0  0  0  0  0  0  0  0
   -1.7912    2.3646   -1.6869 N   0  0  0  0  0  0  0  0  0  0  0  0
   -2.9715    2.7598   -2.1860 C   0  0  0  0  0  0  0  0  0  0  0  0
   -3.1101    3.1722   -3.1775 H   0  0  0  0  0  0  0  0  0  0  0  0
   -3.9508    2.5626   -1.2875 N   0  0  0  0  0  0  0  0  0  0  0  0
   -4.9306    2.7627   -1.4348 H   0  0  0  0  0  0  0  0  0  0  0  0
   -3.3903    2.0284   -0.1485 C   0  0  0  0  0  0  0  0  0  0  0  0
   -3.8974    1.7283    0.7598 H   0  0  0  0  0  0  0  0  0  0  0  0
    0.5168   -0.6410    1.0595 C   0  0  0  0  0  0  0  0  0  0  0  0
    1.1667   -1.6169    0.6845 O   0  0  0  0  0  0  0  0  0  0  0  0
    0.7878    0.0038    2.1986 N   0  0  0  0  0  0  0  0  0  0  0  0
    0.1379    0.7284    2.4825 H   0  0  0  0  0  0  0  0  0  0  0  0
    1.8630   -0.3508    3.1221 C   0  0  0  0  0  0  0  0  0  0  0  0
    2.7328   -0.7096    2.5657 H   0  0  0  0  0  0  0  0  0  0  0  0
    2.1504    0.5224    3.7095 H   0  0  0  0  0  0  0  0  0  0  0  0
    1.5228   -1.1418    3.7924 H   0  0  0  0  0  0  0  0  0  0  0  0
  5  6  2  0  0  0  0
  5  7  1  0  0  0  0
  2  3  1  0  0  0  0
  2  4  1  0  0  0  0
  2  5  1  0  0  0  0
  1  2  1  0  0  0  0
 22 23  2  0  0  0  0
 22 24  1  0  0  0  0
 20 21  1  0  0  0  0
 18 19  1  0  0  0  0
 18 20  1  0  0  0  0
 16 17  1  0  0  0  0
 16 18  1  0  0  0  0
 15 16  2  0  0  0  0
 14 15  1  0  0  0  0
 14 20  2  0  0  0  0
 11 12  1  0  0  0  0
 11 13  1  0  0  0  0
 11 14  1  0  0  0  0
  9 10  1  0  0  0  0
  9 11  1  0  0  0  0
  9 22  1  0  0  0  0
  7  8  1  0  0  0  0
  7  9  1  0  0  0  0
 26 27  1  0  0  0  0
 26 28  1  0  0  0  0
 26 29  1  0  0  0  0
 24 25  1  0  0  0  0
 24 26  1  0  0  0  0
M  END
$$$$
default_name
  -OEChem-01062215323D

 29 29  0     1  0  0  0  0  0999 V2000
   -2.9561   -3.9186    1.3887 H   0  0  0  0  0  0  0  0  0  0  0  0
   -3.1191   -2.9346    0.9517 C   0  0  0  0  0  0  0  0  0  0  0  0
   -3.7811   -2.3546    1.5917 H   0  0  0  0  0  0  0  0  0  0  0  0
   -3.5591   -3.0406   -0.0383 H   0  0  0  0  0  0  0  0  0  0  0  0
   -1.7921   -2.2226    0.8327 C   0  0  0  0  0  0  0  0  0  0  0  0
   -0.7611   -2.7766    1.1927 O   0  0  0  0  0  0  0  0  0  0  0  0
   -1.8201   -0.9926    0.3247 N   0  0  0  0  0  0  0  0  0  0  0  0
   -2.7141   -0.5816    0.0927 H   0  0  0  0  0  0  0  0  0  0  0  0
   -0.6481   -0.1156    0.2017 C   0  0  1  0  0  0  0  0  0  0  0  0
   -0.3195   -0.1304   -0.8395 H   0  0  0  0  0  0  0  0  0  0  0  0
   -1.0405    1.3303    0.5626 C   0  0  0  0  0  0  0  0  0  0  0  0
   -1.4818    1.3552    1.5600 H   0  0  0  0  0  0  0  0  0  0  0  0
   -0.1502    1.9604    0.5818 H   0  0  0  0  0  0  0  0  0  0  0  0
   -2.0521    1.9190   -0.3904 C   0  0  0  0  0  0  0  0  0  0  0  0
   -1.7912    2.3646   -1.6869 N   0  0  0  0  0  0  0  0  0  0  0  0
   -2.9715    2.7598   -2.1860 C   0  0  0  0  0  0  0  0  0  0  0  0
   -3.1101    3.1722   -3.1775 H   0  0  0  0  0  0  0  0  0  0  0  0
   -3.9508    2.5626   -1.2875 N   0  0  0  0  0  0  0  0  0  0  0  0
   -4.9306    2.7627   -1.4348 H   0  0  0  0  0  0  0  0  0  0  0  0
   -3.3903    2.0284   -0.1485 C   0  0  0  0  0  0  0  0  0  0  0  0
   -3.8974    1.7283    0.7598 H   0  0  0  0  0  0  0  0  0  0  0  0
    0.5168   -0.6410    1.0595 C   0  0  0  0  0  0  0  0  0  0  0  0
    1.3344   -1.4236    0.5752 O   0  0  0  0  0  0  0  0  0  0  0  0
    0.6009   -0.2094    2.3218 N   0  0  0  0  0  0  0  0  0  0  0  0
   -0.1714    0.3478    2.6696 H   0  0  0  0  0  0  0  0  0  0  0  0
    1.6464   -0.5946    3.2669 C   0  0  0  0  0  0  0  0  0  0  0  0
    2.5996   -0.7122    2.7450 H   0  0  0  0  0  0  0  0  0  0  0  0
    1.7526    0.1724    4.0354 H   0  0  0  0  0  0  0  0  0  0  0  0
    1.3826   -1.5435    3.7367 H   0  0  0  0  0  0  0  0  0  0  0  0
  5  6  2  0  0  0  0
  5  7  1  0  0  0  0
  2  3  1  0  0  0  0
  2  4  1  0  0  0  0
  2  5  1  0  0  0  0
  1  2  1  0  0  0  0
 22 23  2  0  0  0  0
 22 24  1  0  0  0  0
 20 21  1  0  0  0  0
 18 19  1  0  0  0  0
 18 20  1  0  0  0  0
 16 17  1  0  0  0  0
 16 18  1  0  0  0  0
 15 16  2  0  0  0  0
 14 15  1  0  0  0  0
 14 20  2  0  0  0  0
 11 12  1  0  0  0  0
 11 13  1  0  0  0  0
 11 14  1  0  0  0  0
  9 10  1  0  0  0  0
  9 11  1  0  0  0  0
  9 22  1  0  0  0  0
  7  8  1  0  0  0  0
  7  9  1  0  0  0  0
 26 27  1  0  0  0  0
 26 28  1  0  0  0  0
 26 29  1  0  0  0  0
 24 25  1  0  0  0  0
 24 26  1  0  0  0  0
M  END
$$$$
default_name
  -OEChem-01062215323D

 29 29  0     1  0  0  0  0  0999 V2000
   -2.9561   -3.9186    1.3887 H   0  0  0  0  0  0  0  0  0  0  0  0
   -3.1191   -2.9346    0.9517 C   0  0  0  0  0  0  0  0  0  0  0  0
   -3.7811   -2.3546    1.5917 H   0  0  0  0  0  0  0  0  0  0  0  0
   -3.5591   -3.0406   -0.0383 H   0  0  0  0  0  0  0  0  0  0  0  0
   -1.7921   -2.2226    0.8327 C   0  0  0  0  0  0  0  0  0  0  0  0
   -0.7611   -2.7766    1.1927 O   0  0  0  0  0  0  0  0  0  0  0  0
   -1.8201   -0.9926    0.3247 N   0  0  0  0  0  0  0  0  0  0  0  0
   -2.7141   -0.5816    0.0927 H   0  0  0  0  0  0  0  0  0  0  0  0
   -0.6481   -0.1156    0.2017 C   0  0  1  0  0  0  0  0  0  0  0  0
   -0.3195   -0.1304   -0.8395 H   0  0  0  0  0  0  0  0  0  0  0  0
   -1.0405    1.3303    0.5626 C   0  0  0  0  0  0  0  0  0  0  0  0
   -1.4818    1.3552    1.5600 H   0  0  0  0  0  0  0  0  0  0  0  0
   -0.1502    1.9604    0.5818 H   0  0  0  0  0  0  0  0  0  0  0  0
   -2.0521    1.9190   -0.3904 C   0  0  0  0  0  0  0  0  0  0  0  0
   -1.7912    2.3646   -1.6869 N   0  0  0  0  0  0  0  0  0  0  0  0
   -2.9715    2.7598   -2.1860 C   0  0  0  0  0  0  0  0  0  0  0  0
   -3.1101    3.1722   -3.1775 H   0  0  0  0  0  0  0  0  0  0  0  0
   -3.9508    2.5626   -1.2875 N   0  0  0  0  0  0  0  0  0  0  0  0
   -4.9306    2.7627   -1.4348 H   0  0  0  0  0  0  0  0  0  0  0  0
   -3.3903    2.0284   -0.1485 C   0  0  0  0  0  0  0  0  0  0  0  0
   -3.8974    1.7283    0.7598 H   0  0  0  0  0  0  0  0  0  0  0  0
    0.5168   -0.6410    1.0595 C   0  0  0  0  0  0  0  0  0  0  0  0
    1.4781   -1.1913    0.5223 O   0  0  0  0  0  0  0  0  0  0  0  0
    0.4403   -0.4665    2.3826 N   0  0  0  0  0  0  0  0  0  0  0  0
   -0.4318   -0.1010    2.7483 H   0  0  0  0  0  0  0  0  0  0  0  0
    1.4596   -0.8897    3.3399 C   0  0  0  0  0  0  0  0  0  0  0  0
    2.4555   -0.7691    2.9059 H   0  0  0  0  0  0  0  0  0  0  0  0
    1.3900   -0.2870    4.2465 H   0  0  0  0  0  0  0  0  0  0  0  0
    1.3101   -1.9409    3.5918 H   0  0  0  0  0  0  0  0  0  0  0  0
  5  6  2  0  0  0  0
  5  7  1  0  0  0  0
  2  3  1  0  0  0  0
  2  4  1  0  0  0  0
  2  5  1  0  0  0  0
  1  2  1  0  0  0  0
 22 23  2  0  0  0  0
 22 24  1  0  0  0  0
 20 21  1  0  0  0  0
 18 19  1  0  0  0  0
 18 20  1  0  0  0  0
 16 17  1  0  0  0  0
 16 18  1  0  0  0  0
 15 16  2  0  0  0  0
 14 15  1  0  0  0  0
 14 20  2  0  0  0  0
 11 12  1  0  0  0  0
 11 13  1  0  0  0  0
 11 14  1  0  0  0  0
  9 10  1  0  0  0  0
  9 11  1  0  0  0  0
  9 22  1  0  0  0  0
  7  8  1  0  0  0  0
  7  9  1  0  0  0  0
 26 27  1  0  0  0  0
 26 28  1  0  0  0  0
 26 29  1  0  0  0  0
 24 25  1  0  0  0  0
 24 26  1  0  0  0  0
M  END
$$$$
default_name
  -OEChem-01062215323D

 29 29  0     1  0  0  0  0  0999 V2000
   -2.9561   -3.9186    1.3887 H   0  0  0  0  0  0  0  0  0  0  0  0
   -3.1191   -2.9346    0.9517 C   0  0  0  0  0  0  0  0  0  0  0  0
   -3.7811   -2.3546    1.5917 H   0  0  0  0  0  0  0  0  0  0  0  0
   -3.5591   -3.0406   -0.0383 H   0  0  0  0  0  0  0  0  0  0  0  0
   -1.7921   -2.2226    0.8327 C   0  0  0  0  0  0  0  0  0  0  0  0
   -0.7611   -2.7766    1.1927 O   0  0  0  0  0  0  0  0  0  0  0  0
   -1.8201   -0.9926    0.3247 N   0  0  0  0  0  0  0  0  0  0  0  0
   -2.7141   -0.5816    0.0927 H   0  0  0  0  0  0  0  0  0  0  0  0
   -0.6481   -0.1156    0.2017 C   0  0  1  0  0  0  0  0  0  0  0  0
   -0.3195   -0.1304   -0.8395 H   0  0  0  0  0  0  0  0  0  0  0  0
   -1.0405    1.3303    0.5626 C   0  0  0  0  0  0  0  0  0  0  0  0
   -1.4818    1.3552    1.5600 H   0  0  0  0  0  0  0  0  0  0  0  0
   -0.1502    1.9604    0.5818 H   0  0  0  0  0  0  0  0  0  0  0  0
   -2.0521    1.9190   -0.3904 C   0  0  0  0  0  0  0  0  0  0  0  0
   -1.7912    2.3646   -1.6869 N   0  0  0  0  0  0  0  0  0  0  0  0
   -2.9715    2.7598   -2.1860 C   0  0  0  0  0  0  0  0  0  0  0  0
   -3.1101    3.1722   -3.1775 H   0  0  0  0  0  0  0  0  0  0  0  0
   -3.9508    2.5626   -1.2875 N   0  0  0  0  0  0  0  0  0  0  0  0
   -4.9306    2.7627   -1.4348 H   0  0  0  0  0  0  0  0  0  0  0  0
   -3.3903    2.0284   -0.1485 C   0  0  0  0  0  0  0  0  0  0  0  0
   -3.8974    1.7283    0.7598 H   0  0  0  0  0  0  0  0  0  0  0  0
    0.5168   -0.6410    1.0595 C   0  0  0  0  0  0  0  0  0  0  0  0
    1.5880   -0.9358    0.5295 O   0  0  0  0  0  0  0  0  0  0  0  0
    0.3168   -0.7499    2.3767 N   0  0  0  0  0  0  0  0  0  0  0  0
   -0.6256   -0.5875    2.7135 H   0  0  0  0  0  0  0  0  0  0  0  0
    1.3152   -1.2160    3.3361 C   0  0  0  0  0  0  0  0  0  0  0  0
    2.3103   -0.8763    3.0374 H   0  0  0  0  0  0  0  0  0  0  0  0
    1.0873   -0.8244    4.3284 H   0  0  0  0  0  0  0  0  0  0  0  0
    1.3102   -2.3068    3.3676 H   0  0  0  0  0  0  0  0  0  0  0  0
  5  6  2  0  0  0  0
  5  7  1  0  0  0  0
  2  3  1  0  0  0  0
  2  4  1  0  0  0  0
  2  5  1  0  0  0  0
  1  2  1  0  0  0  0
 22 23  2  0  0  0  0
 22 24  1  0  0  0  0
 20 21  1  0  0  0  0
 18 19  1  0  0  0  0
 18 20  1  0  0  0  0
 16 17  1  0  0  0  0
 16 18  1  0  0  0  0
 15 16  2  0  0  0  0
 14 15  1  0  0  0  0
 14 20  2  0  0  0  0
 11 12  1  0  0  0  0
 11 13  1  0  0  0  0
 11 14  1  0  0  0  0
  9 10  1  0  0  0  0
  9 11  1  0  0  0  0
  9 22  1  0  0  0  0
  7  8  1  0  0  0  0
  7  9  1  0  0  0  0
 26 27  1  0  0  0  0
 26 28  1  0  0  0  0
 26 29  1  0  0  0  0
 24 25  1  0  0  0  0
 24 26  1  0  0  0  0
M  END
$$$$
default_name
  -OEChem-01062215323D

 29 29  0     1  0  0  0  0  0999 V2000
   -2.9561   -3.9186    1.3887 H   0  0  0  0  0  0  0  0  0  0  0  0
   -3.1191   -2.9346    0.9517 C   0  0  0  0  0  0  0  0  0  0  0  0
   -3.7811   -2.3546    1.5917 H   0  0  0  0  0  0  0  0  0  0  0  0
   -3.5591   -3.0406   -0.0383 H   0  0  0  0  0  0  0  0  0  0  0  0
   -1.7921   -2.2226    0.8327 C   0  0  0  0  0  0  0  0  0  0  0  0
   -0.7611   -2.7766    1.1927 O   0  0  0  0  0  0  0  0  0  0  0  0
   -1.8201   -0.9926    0.3247 N   0  0  0  0  0  0  0  0  0  0  0  0
   -2.7141   -0.5816    0.0927 H   0  0  0  0  0  0  0  0  0  0  0  0
   -0.6481   -0.1156    0.2017 C   0  0  1  0  0  0  0  0  0  0  0  0
   -0.3195   -0.1304   -0.8395 H   0  0  0  0  0  0  0  0  0  0  0  0
   -1.0405    1.3303    0.5626 C   0  0  0  0  0  0  0  0  0  0  0  0
   -1.4818    1.3552    1.5600 H   0  0  0  0  0  0  0  0  0  0  0  0
   -0.1502    1.9604    0.5818 H   0  0  0  0  0  0  0  0  0  0  0  0
   -2.0521    1.9190   -0.3904 C   0  0  0  0  0  0  0  0  0  0  0  0
   -1.7912    2.3646   -1.6869 N   0  0  0  0  0  0  0  0  0  0  0  0
   -2.9715    2.7598   -2.1860 C   0  0  0  0  0  0  0  0  0  0  0  0
   -3.1101    3.1722   -3.1775 H   0  0  0  0  0  0  0  0  0  0  0  0
   -3.9508    2.5626   -1.2875 N   0  0  0  0  0  0  0  0  0  0  0  0
   -4.9306    2.7627   -1.4348 H   0  0  0  0  0  0  0  0  0  0  0  0
   -3.3903    2.0284   -0.1485 C   0  0  0  0  0  0  0  0  0  0  0  0
   -3.8974    1.7283    0.7598 H   0  0  0  0  0  0  0  0  0  0  0  0
    0.5168   -0.6410    1.0595 C   0  0  0  0  0  0  0  0  0  0  0  0
    1.6568   -0.6746    0.5961 O   0  0  0  0  0  0  0  0  0  0  0  0
    0.2389   -1.0403    2.3046 N   0  0  0  0  0  0  0  0  0  0  0  0
   -0.7395   -1.0786    2.5674 H   0  0  0  0  0  0  0  0  0  0  0  0
    1.2232   -1.5513    3.2557 C   0  0  0  0  0  0  0  0  0  0  0  0
    2.1739   -1.0266    3.1306 H   0  0  0  0  0  0  0  0  0  0  0  0
    0.8652   -1.4031    4.2755 H   0  0  0  0  0  0  0  0  0  0  0  0
    1.3828   -2.6163    3.0794 H   0  0  0  0  0  0  0  0  0  0  0  0
  5  6  2  0  0  0  0
  5  7  1  0  0  0  0
  2  3  1  0  0  0  0
  2  4  1  0  0  0  0
  2  5  1  0  0  0  0
  1  2  1  0  0  0  0
 22 23  2  0  0  0  0
 22 24  1  0  0  0  0
 20 21  1  0  0  0  0
 18 19  1  0  0  0  0
 18 20  1  0  0  0  0
 16 17  1  0  0  0  0
 16 18  1  0  0  0  0
 15 16  2  0  0  0  0
 14 15  1  0  0  0  0
 14 20  2  0  0  0  0
 11 12  1  0  0  0  0
 11 13  1  0  0  0  0
 11 14  1  0  0  0  0
  9 10  1  0  0  0  0
  9 11  1  0  0  0  0
  9 22  1  0  0  0  0
  7  8  1  0  0  0  0
  7  9  1  0  0  0  0
 26 27  1  0  0  0  0
 26 28  1  0  0  0  0
 26 29  1  0  0  0  0
 24 25  1  0  0  0  0
 24 26  1  0  0  0  0
M  END
$$$$
default_name
  -OEChem-01062215323D

 29 29  0     1  0  0  0  0  0999 V2000
   -2.9561   -3.9186    1.3887 H   0  0  0  0  0  0  0  0  0  0  0  0
   -3.1191   -2.9346    0.9517 C   0  0  0  0  0  0  0  0  0  0  0  0
   -3.7811   -2.3546    1.5917 H   0  0  0  0  0  0  0  0  0  0  0  0
   -3.5591   -3.0406   -0.0383 H   0  0  0  0  0  0  0  0  0  0  0  0
   -1.7921   -2.2226    0.8327 C   0  0  0  0  0  0  0  0  0  0  0  0
   -0.7611   -2.7766    1.1927 O   0  0  0  0  0  0  0  0  0  0  0  0
   -1.8201   -0.9926    0.3247 N   0  0  0  0  0  0  0  0  0  0  0  0
   -2.7141   -0.5816    0.0927 H   0  0  0  0  0  0  0  0  0  0  0  0
   -0.6481   -0.1156    0.2017 C   0  0  1  0  0  0  0  0  0  0  0  0
   -0.3195   -0.1304   -0.8395 H   0  0  0  0  0  0  0  0  0  0  0  0
   -1.0405    1.3303    0.5626 C   0  0  0  0  0  0  0  0  0  0  0  0
   -1.4818    1.3552    1.5600 H   0  0  0  0  0  0  0  0  0  0  0  0
   -0.1502    1.9604    0.5818 H   0  0  0  0  0  0  0  0  0  0  0  0
   -2.0521    1.9190   -0.3904 C   0  0  0  0  0  0  0  0  0  0  0  0
   -1.7912    2.3646   -1.6869 N   0  0  0  0  0  0  0  0  0  0  0  0
   -2.9715    2.7598   -2.1860 C   0  0  0  0  0  0  0  0  0  0  0  0
   -3.1101    3.1722   -3.1775 H   0  0  0  0  0  0  0  0  0  0  0  0
   -3.9508    2.5626   -1.2875 N   0  0  0  0  0  0  0  0  0  0  0  0
   -4.9306    2.7627   -1.4348 H   0  0  0  0  0  0  0  0  0  0  0  0
   -3.3903    2.0284   -0.1485 C   0  0  0  0  0  0  0  0  0  0  0  0
   -3.8974    1.7283    0.7598 H   0  0  0  0  0  0  0  0  0  0  0  0
    0.5168   -0.6410    1.0595 C   0  0  0  0  0  0  0  0  0  0  0  0
    1.6796   -0.4254    0.7177 O   0  0  0  0  0  0  0  0  0  0  0  0
    0.2120   -1.3178    2.1712 N   0  0  0  0  0  0  0  0  0  0  0  0
   -0.7658   -1.5407    2.3201 H   0  0  0  0  0  0  0  0  0  0  0  0
    1.1898   -1.8727    3.1042 C   0  0  0  0  0  0  0  0  0  0  0  0
    2.0556   -1.2097    3.1791 H   0  0  0  0  0  0  0  0  0  0  0  0
    0.7389   -1.9838    4.0914 H   0  0  0  0  0  0  0  0  0  0  0  0
    1.5231   -2.8483    2.7467 H   0  0  0  0  0  0  0  0  0  0  0  0
  5  6  2  0  0  0  0
  5  7  1  0  0  0  0
  2  3  1  0  0  0  0
  2  4  1  0  0  0  0
  2  5  1  0  0  0  0
  1  2  1  0  0  0  0
 22 23  2  0  0  0  0
 22 24  1  0  0  0  0
 20 21  1  0  0  0  0
 18 19  1  0  0  0  0
 18 20  1  0  0  0  0
 16 17  1  0  0  0  0
 16 18  1  0  0  0  0
 15 16  2  0  0  0  0
 14 15  1  0  0  0  0
 14 20  2  0  0  0  0
 11 12  1  0  0  0  0
 11 13  1  0  0  0  0
 11 14  1  0  0  0  0
  9 10  1  0  0  0  0
  9 11  1  0  0  0  0
  9 22  1  0  0  0  0
  7  8  1  0  0  0  0
  7  9  1  0  0  0  0
 26 27  1  0  0  0  0
 26 28  1  0  0  0  0
 26 29  1  0  0  0  0
 24 25  1  0  0  0  0
 24 26  1  0  0  0  0
M  END
$$$$
default_name
  -OEChem-01062215323D

 29 29  0     1  0  0  0  0  0999 V2000
   -2.9561   -3.9186    1.3887 H   0  0  0  0  0  0  0  0  0  0  0  0
   -3.1191   -2.9346    0.9517 C   0  0  0  0  0  0  0  0  0  0  0  0
   -3.7811   -2.3546    1.5917 H   0  0  0  0  0  0  0  0  0  0  0  0
   -3.5591   -3.0406   -0.0383 H   0  0  0  0  0  0  0  0  0  0  0  0
   -1.7921   -2.2226    0.8327 C   0  0  0  0  0  0  0  0  0  0  0  0
   -0.7611   -2.7766    1.1927 O   0  0  0  0  0  0  0  0  0  0  0  0
   -1.8201   -0.9926    0.3247 N   0  0  0  0  0  0  0  0  0  0  0  0
   -2.7141   -0.5816    0.0927 H   0  0  0  0  0  0  0  0  0  0  0  0
   -0.6481   -0.1156    0.2017 C   0  0  1  0  0  0  0  0  0  0  0  0
   -0.3195   -0.1304   -0.8395 H   0  0  0  0  0  0  0  0  0  0  0  0
   -1.0405    1.3303    0.5626 C   0  0  0  0  0  0  0  0  0  0  0  0
   -1.4818    1.3552    1.5600 H   0  0  0  0  0  0  0  0  0  0  0  0
   -0.1502    1.9604    0.5818 H   0  0  0  0  0  0  0  0  0  0  0  0
   -2.0521    1.9190   -0.3904 C   0  0  0  0  0  0  0  0  0  0  0  0
   -1.7912    2.3646   -1.6869 N   0  0  0  0  0  0  0  0  0  0  0  0
   -2.9715    2.7598   -2.1860 C   0  0  0  0  0  0  0  0  0  0  0  0
   -3.1101    3.1722   -3.1775 H   0  0  0  0  0  0  0  0  0  0  0  0
   -3.9508    2.5626   -1.2875 N   0  0  0  0  0  0  0  0  0  0  0  0
   -4.9306    2.7627   -1.4348 H   0  0  0  0  0  0  0  0  0  0  0  0
   -3.3903    2.0284   -0.1485 C   0  0  0  0  0  0  0  0  0  0  0  0
   -3.8974    1.7283    0.7598 H   0  0  0  0  0  0  0  0  0  0  0  0
    0.5168   -0.6410    1.0595 C   0  0  0  0  0  0  0  0  0  0  0  0
    1.6550   -0.2052    0.8860 O   0  0  0  0  0  0  0  0  0  0  0  0
    0.2378   -1.5637    1.9855 N   0  0  0  0  0  0  0  0  0  0  0  0
   -0.7027   -1.9425    1.9883 H   0  0  0  0  0  0  0  0  0  0  0  0
    1.2173   -2.1583    2.8920 C   0  0  0  0  0  0  0  0  0  0  0  0
    1.9634   -1.4131    3.1797 H   0  0  0  0  0  0  0  0  0  0  0  0
    0.7169   -2.5269    3.7886 H   0  0  0  0  0  0  0  0  0  0  0  0
    1.7215   -2.9870    2.3924 H   0  0  0  0  0  0  0  0  0  0  0  0
  5  6  2  0  0  0  0
  5  7  1  0  0  0  0
  2  3  1  0  0  0  0
  2  4  1  0  0  0  0
  2  5  1  0  0  0  0
  1  2  1  0  0  0  0
 22 23  2  0  0  0  0
 22 24  1  0  0  0  0
 20 21  1  0  0  0  0
 18 19  1  0  0  0  0
 18 20  1  0  0  0  0
 16 17  1  0  0  0  0
 16 18  1  0  0  0  0
 15 16  2  0  0  0  0
 14 15  1  0  0  0  0
 14 20  2  0  0  0  0
 11 12  1  0  0  0  0
 11 13  1  0  0  0  0
 11 14  1  0  0  0  0
  9 10  1  0  0  0  0
  9 11  1  0  0  0  0
  9 22  1  0  0  0  0
  7  8  1  0  0  0  0
  7  9  1  0  0  0  0
 26 27  1  0  0  0  0
 26 28  1  0  0  0  0
 26 29  1  0  0  0  0
 24 25  1  0  0  0  0
 24 26  1  0  0  0  0
M  END
$$$$
default_name
  -OEChem-01062215323D

 29 29  0     1  0  0  0  0  0999 V2000
   -2.9561   -3.9186    1.3887 H   0  0  0  0  0  0  0  0  0  0  0  0
   -3.1191   -2.9346    0.9517 C   0  0  0  0  0  0  0  0  0  0  0  0
   -3.7811   -2.3546    1.5917 H   0  0  0  0  0  0  0  0  0  0  0  0
   -3.5591   -3.0406   -0.0383 H   0  0  0  0  0  0  0  0  0  0  0  0
   -1.7921   -2.2226    0.8327 C   0  0  0  0  0  0  0  0  0  0  0  0
   -0.7611   -2.7766    1.1927 O   0  0  0  0  0  0  0  0  0  0  0  0
   -1.8201   -0.9926    0.3247 N   0  0  0  0  0  0  0  0  0  0  0  0
   -2.7141   -0.5816    0.0927 H   0  0  0  0  0  0  0  0  0  0  0  0
   -0.6481   -0.1156    0.2017 C   0  0  1  0  0  0  0  0  0  0  0  0
   -0.3195   -0.1304   -0.8395 H   0  0  0  0  0  0  0  0  0  0  0  0
   -1.0405    1.3303    0.5626 C   0  0  0  0  0  0  0  0  0  0  0  0
   -1.4818    1.3552    1.5600 H   0  0  0  0  0  0  0  0  0  0  0  0
   -0.1502    1.9604    0.5818 H   0  0  0  0  0  0  0  0  0  0  0  0
   -2.0521    1.9190   -0.3904 C   0  0  0  0  0  0  0  0  0  0  0  0
   -1.7912    2.3646   -1.6869 N   0  0  0  0  0  0  0  0  0  0  0  0
   -2.9715    2.7598   -2.1860 C   0  0  0  0  0  0  0  0  0  0  0  0
   -3.1101    3.1722   -3.1775 H   0  0  0  0  0  0  0  0  0  0  0  0
   -3.9508    2.5626   -1.2875 N   0  0  0  0  0  0  0  0  0  0  0  0
   -4.9306    2.7627   -1.4348 H   0  0  0  0  0  0  0  0  0  0  0  0
   -3.3903    2.0284   -0.1485 C   0  0  0  0  0  0  0  0  0  0  0  0
   -3.8974    1.7283    0.7598 H   0  0  0  0  0  0  0  0  0  0  0  0
    0.5168   -0.6410    1.0595 C   0  0  0  0  0  0  0  0  0  0  0  0
    1.5845   -0.0291    1.0896 O   0  0  0  0  0  0  0  0  0  0  0  0
    0.3146   -1.7611    1.7603 N   0  0  0  0  0  0  0  0  0  0  0  0
   -0.5545   -2.2564    1.5947 H   0  0  0  0  0  0  0  0  0  0  0  0
    1.3037   -2.3886    2.6335 C   0  0  0  0  0  0  0  0  0  0  0  0
    1.9037   -1.6230    3.1322 H   0  0  0  0  0  0  0  0  0  0  0  0
    0.8008   -2.9953    3.3878 H   0  0  0  0  0  0  0  0  0  0  0  0
    1.9644   -3.0230    2.0404 H   0  0  0  0  0  0  0  0  0  0  0  0
  5  6  2  0  0  0  0
  5  7  1  0  0  0  0
  2  3  1  0  0  0  0
  2  4  1  0  0  0  0
  2  5  1  0  0  0  0
  1  2  1  0  0  0  0
 22 23  2  0  0  0  0
 22 24  1  0  0  0  0
 20 21  1  0  0  0  0
 18 19  1  0  0  0  0
 18 20  1  0  0  0  0
 16 17  1  0  0  0  0
 16 18  1  0  0  0  0
 15 16  2  0  0  0  0
 14 15  1  0  0  0  0
 14 20  2  0  0  0  0
 11 12  1  0  0  0  0
 11 13  1  0  0  0  0
 11 14  1  0  0  0  0
  9 10  1  0  0  0  0
  9 11  1  0  0  0  0
  9 22  1  0  0  0  0
  7  8  1  0  0  0  0
  7  9  1  0  0  0  0
 26 27  1  0  0  0  0
 26 28  1  0  0  0  0
 26 29  1  0  0  0  0
 24 25  1  0  0  0  0
 24 26  1  0  0  0  0
M  END
$$$$
default_name
  -OEChem-01062215323D

 29 29  0     1  0  0  0  0  0999 V2000
   -2.9561   -3.9186    1.3887 H   0  0  0  0  0  0  0  0  0  0  0  0
   -3.1191   -2.9346    0.9517 C   0  0  0  0  0  0  0  0  0  0  0  0
   -3.7811   -2.3546    1.5917 H   0  0  0  0  0  0  0  0  0  0  0  0
   -3.5591   -3.0406   -0.0383 H   0  0  0  0  0  0  0  0  0  0  0  0
   -1.7921   -2.2226    0.8327 C   0  0  0  0  0  0  0  0  0  0  0  0
   -0.7611   -2.7766    1.1927 O   0  0  0  0  0  0  0  0  0  0  0  0
   -1.8201   -0.9926    0.3247 N   0  0  0  0  0  0  0  0  0  0  0  0
   -2.7141   -0.5816    0.0927 H   0  0  0  0  0  0  0  0  0  0  0  0
   -0.6481   -0.1156    0.2017 C   0  0  1  0  0  0  0  0  0  0  0  0
   -0.3195   -0.1304   -0.8395 H   0  0  0  0  0  0  0  0  0  0  0  0
   -1.0405    1.3303    0.5626 C   0  0  0  0  0  0  0  0  0  0  0  0
   -1.4818    1.3552    1.5600 H   0  0  0  0  0  0  0  0  0  0  0  0
   -0.1502    1.9604    0.5818 H   0  0  0  0  0  0  0  0  0  0  0  0
   -2.0521    1.9190   -0.3904 C   0  0  0  0  0  0  0  0  0  0  0  0
   -1.7912    2.3646   -1.6869 N   0  0  0  0  0  0  0  0  0  0  0  0
   -2.9715    2.7598   -2.1860 C   0  0  0  0  0  0  0  0  0  0  0  0
   -3.1101    3.1722   -3.1775 H   0  0  0  0  0  0  0  0  0  0  0  0
   -3.9508    2.5626   -1.2875 N   0  0  0  0  0  0  0  0  0  0  0  0
   -4.9306    2.7627   -1.4348 H   0  0  0  0  0  0  0  0  0  0  0  0
   -3.3903    2.0284   -0.1485 C   0  0  0  0  0  0  0  0  0  0  0  0
   -3.8974    1.7283    0.7598 H   0  0  0  0  0  0  0  0  0  0  0  0
    0.5168   -0.6410    1.0595 C   0  0  0  0  0  0  0  0  0  0  0  0
    1.4731    0.0910    1.3145 O   0  0  0  0  0  0  0  0  0  0  0  0
    0.4371   -1.8967    1.5109 N   0  0  0  0  0  0  0  0  0  0  0  0
   -0.3312   -2.4612    1.1661 H   0  0  0  0  0  0  0  0  0  0  0  0
    1.4433   -2.5479    2.3464 C   0  0  0  0  0  0  0  0  0  0  0  0
    1.8805   -1.8251    3.0400 H   0  0  0  0  0  0  0  0  0  0  0  0
    0.9847   -3.3572    2.9164 H   0  0  0  0  0  0  0  0  0  0  0  0
    2.2353   -2.9537    1.7149 H   0  0  0  0  0  0  0  0  0  0  0  0
  5  6  2  0  0  0  0
  5  7  1  0  0  0  0
  2  3  1  0  0  0  0
  2  4  1  0  0  0  0
  2  5  1  0  0  0  0
  1  2  1  0  0  0  0
 22 23  2  0  0  0  0
 22 24  1  0  0  0  0
 20 21  1  0  0  0  0
 18 19  1  0  0  0  0
 18 20  1  0  0  0  0
 16 17  1  0  0  0  0
 16 18  1  0  0  0  0
 15 16  2  0  0  0  0
 14 15  1  0  0  0  0
 14 20  2  0  0  0  0
 11 12  1  0  0  0  0
 11 13  1  0  0  0  0
 11 14  1  0  0  0  0
  9 10  1  0  0  0  0
  9 11  1  0  0  0  0
  9 22  1  0  0  0  0
  7  8  1  0  0  0  0
  7  9  1  0  0  0  0
 26 27  1  0  0  0  0
 26 28  1  0  0  0  0
 26 29  1  0  0  0  0
 24 25  1  0  0  0  0
 24 26  1  0  0  0  0
M  END
$$$$
default_name
  -OEChem-01062215323D

 29 29  0     1  0  0  0  0  0999 V2000
   -2.9561   -3.9186    1.3887 H   0  0  0  0  0  0  0  0  0  0  0  0
   -3.1191   -2.9346    0.9517 C   0  0  0  0  0  0  0  0  0  0  0  0
   -3.7811   -2.3546    1.5917 H   0  0  0  0  0  0  0  0  0  0  0  0
   -3.5591   -3.0406   -0.0383 H   0  0  0  0  0  0  0  0  0  0  0  0
   -1.7921   -2.2226    0.8327 C   0  0  0  0  0  0  0  0  0  0  0  0
   -0.7611   -2.7766    1.1927 O   0  0  0  0  0  0  0  0  0  0  0  0
   -1.8201   -0.9926    0.3247 N   0  0  0  0  0  0  0  0  0  0  0  0
   -2.7141   -0.5816    0.0927 H   0  0  0  0  0  0  0  0  0  0  0  0
   -0.6481   -0.1156    0.2017 C   0  0  1  0  0  0  0  0  0  0  0  0
   -0.3195   -0.1304   -0.8395 H   0  0  0  0  0  0  0  0  0  0  0  0
   -1.0405    1.3303    0.5626 C   0  0  0  0  0  0  0  0  0  0  0  0
   -1.4818    1.3552    1.5600 H   0  0  0  0  0  0  0  0  0  0  0  0
   -0.1502    1.9604    0.5818 H   0  0  0  0  0  0  0  0  0  0  0  0
   -2.0521    1.9190   -0.3904 C   0  0  0  0  0  0  0  0  0  0  0  0
   -1.7912    2.3646   -1.6869 N   0  0  0  0  0  0  0  0  0  0  0  0
   -2.9715    2.7598   -2.1860 C   0  0  0  0  0  0  0  0  0  0  0  0
   -3.1101    3.1722   -3.1775 H   0  0  0  0  0  0  0  0  0  0  0  0
   -3.9508    2.5626   -1.2875 N   0  0  0  0  0  0  0  0  0  0  0  0
   -4.9306    2.7627   -1.4348 H   0  0  0  0  0  0  0  0  0  0  0  0
   -3.3903    2.0284   -0.1485 C   0  0  0  0  0  0  0  0  0  0  0  0
   -3.8974    1.7283    0.7598 H   0  0  0  0  0  0  0  0  0  0  0  0
    0.5168   -0.6410    1.0595 C   0  0  0  0  0  0  0  0  0  0  0  0
    1.3283    0.1469    1.5454 O   0  0  0  0  0  0  0  0  0  0  0  0
    0.5970   -1.9610    1.2543 N   0  0  0  0  0  0  0  0  0  0  0  0
   -0.0482   -2.5428    0.7317 H   0  0  0  0  0  0  0  0  0  0  0  0
    1.6265   -2.6255    2.0501 C   0  0  0  0  0  0  0  0  0  0  0  0
    1.8953   -2.0055    2.9093 H   0  0  0  0  0  0  0  0  0  0  0  0
    1.2563   -3.5879    2.4063 H   0  0  0  0  0  0  0  0  0  0  0  0
    2.5158   -2.7840    1.4380 H   0  0  0  0  0  0  0  0  0  0  0  0
  5  6  2  0  0  0  0
  5  7  1  0  0  0  0
  2  3  1  0  0  0  0
  2  4  1  0  0  0  0
  2  5  1  0  0  0  0
  1  2  1  0  0  0  0
 22 23  2  0  0  0  0
 22 24  1  0  0  0  0
 20 21  1  0  0  0  0
 18 19  1  0  0  0  0
 18 20  1  0  0  0  0
 16 17  1  0  0  0  0
 16 18  1  0  0  0  0
 15 16  2  0  0  0  0
 14 15  1  0  0  0  0
 14 20  2  0  0  0  0
 11 12  1  0  0  0  0
 11 13  1  0  0  0  0
 11 14  1  0  0  0  0
  9 10  1  0  0  0  0
  9 11  1  0  0  0  0
  9 22  1  0  0  0  0
  7  8  1  0  0  0  0
  7  9  1  0  0  0  0
 26 27  1  0  0  0  0
 26 28  1  0  0  0  0
 26 29  1  0  0  0  0
 24 25  1  0  0  0  0
 24 26  1  0  0  0  0
M  END
$$$$
default_name
  -OEChem-01062215323D

 29 29  0     1  0  0  0  0  0999 V2000
   -2.9561   -3.9186    1.3887 H   0  0  0  0  0  0  0  0  0  0  0  0
   -3.1191   -2.9346    0.9517 C   0  0  0  0  0  0  0  0  0  0  0  0
   -3.7811   -2.3546    1.5917 H   0  0  0  0  0  0  0  0  0  0  0  0
   -3.5591   -3.0406   -0.0383 H   0  0  0  0  0  0  0  0  0  0  0  0
   -1.7921   -2.2226    0.8327 C   0  0  0  0  0  0  0  0  0  0  0  0
   -0.7611   -2.7766    1.1927 O   0  0  0  0  0  0  0  0  0  0  0  0
   -1.8201   -0.9926    0.3247 N   0  0  0  0  0  0  0  0  0  0  0  0
   -2.7141   -0.5816    0.0927 H   0  0  0  0  0  0  0  0  0  0  0  0
   -0.6481   -0.1156    0.2017 C   0  0  1  0  0  0  0  0  0  0  0  0
   -0.3195   -0.1304   -0.8395 H   0  0  0  0  0  0  0  0  0  0  0  0
   -1.0405    1.3303    0.5626 C   0  0  0  0  0  0  0  0  0  0  0  0
   -1.4818    1.3552    1.5600 H   0  0  0  0  0  0  0  0  0  0  0  0
   -0.1502    1.9604    0.5818 H   0  0  0  0  0  0  0  0  0  0  0  0
   -2.0521    1.9190   -0.3904 C   0  0  0  0  0  0  0  0  0  0  0  0
   -1.7912    2.3646   -1.6869 N   0  0  0  0  0  0  0  0  0  0  0  0
   -2.9715    2.7598   -2.1860 C   0  0  0  0  0  0  0  0  0  0  0  0
   -3.1101    3.1722   -3.1775 H   0  0  0  0  0  0  0  0  0  0  0  0
   -3.9508    2.5626   -1.2875 N   0  0  0  0  0  0  0  0  0  0  0  0
   -4.9306    2.7627   -1.4348 H   0  0  0  0  0  0  0  0  0  0  0  0
   -3.3903    2.0284   -0.1485 C   0  0  0  0  0  0  0  0  0  0  0  0
   -3.8974    1.7283    0.7598 H   0  0  0  0  0  0  0  0  0  0  0  0
    0.5168   -0.6410    1.0595 C   0  0  0  0  0  0  0  0  0  0  0  0
    1.1600    0.1348    1.7666 O   0  0  0  0  0  0  0  0  0  0  0  0
    0.7835   -1.9498    1.0079 N   0  0  0  0  0  0  0  0  0  0  0  0
    0.2754   -2.4958    0.3211 H   0  0  0  0  0  0  0  0  0  0  0  0
    1.8408   -2.6159    1.7650 C   0  0  0  0  0  0  0  0  0  0  0  0
    1.9473   -2.1521    2.7490 H   0  0  0  0  0  0  0  0  0  0  0  0
    1.5969   -3.6716    1.8925 H   0  0  0  0  0  0  0  0  0  0  0  0
    2.7867   -2.5253    1.2286 H   0  0  0  0  0  0  0  0  0  0  0  0
  5  6  2  0  0  0  0
  5  7  1  0  0  0  0
  2  3  1  0  0  0  0
  2  4  1  0  0  0  0
  2  5  1  0  0  0  0
  1  2  1  0  0  0  0
 22 23  2  0  0  0  0
 22 24  1  0  0  0  0
 20 21  1  0  0  0  0
 18 19  1  0  0  0  0
 18 20  1  0  0  0  0
 16 17  1  0  0  0  0
 16 18  1  0  0  0  0
 15 16  2  0  0  0  0
 14 15  1  0  0  0  0
 14 20  2  0  0  0  0
 11 12  1  0  0  0  0
 11 13  1  0  0  0  0
 11 14  1  0  0  0  0
  9 10  1  0  0  0  0
  9 11  1  0  0  0  0
  9 22  1  0  0  0  0
  7  8  1  0  0  0  0
  7  9  1  0  0  0  0
 26 27  1  0  0  0  0
 26 28  1  0  0  0  0
 26 29  1  0  0  0  0
 24 25  1  0  0  0  0
 24 26  1  0  0  0  0
M  END
$$$$
default_name
  -OEChem-01062215323D

 29 29  0     1  0  0  0  0  0999 V2000
   -2.9561   -3.9186    1.3887 H   0  0  0  0  0  0  0  0  0  0  0  0
   -3.1191   -2.9346    0.9517 C   0  0  0  0  0  0  0  0  0  0  0  0
   -3.7811   -2.3546    1.5917 H   0  0  0  0  0  0  0  0  0  0  0  0
   -3.5591   -3.0406   -0.0383 H   0  0  0  0  0  0  0  0  0  0  0  0
   -1.7921   -2.2226    0.8327 C   0  0  0  0  0  0  0  0  0  0  0  0
   -0.7611   -2.7766    1.1927 O   0  0  0  0  0  0  0  0  0  0  0  0
   -1.8201   -0.9926    0.3247 N   0  0  0  0  0  0  0  0  0  0  0  0
   -2.7141   -0.5816    0.0927 H   0  0  0  0  0  0  0  0  0  0  0  0
   -0.6481   -0.1156    0.2017 C   0  0  1  0  0  0  0  0  0  0  0  0
   -0.3195   -0.1304   -0.8395 H   0  0  0  0  0  0  0  0  0  0  0  0
   -1.0405    1.3303    0.5626 C   0  0  0  0  0  0  0  0  0  0  0  0
   -1.4818    1.3552    1.5600 H   0  0  0  0  0  0  0  0  0  0  0  0
   -0.1502    1.9604    0.5818 H   0  0  0  0  0  0  0  0  0  0  0  0
   -2.0521    1.9190   -0.3904 C   0  0  0  0  0  0  0  0  0  0  0  0
   -1.7912    2.3646   -1.6869 N   0  0  0  0  0  0  0  0  0  0  0  0
   -2.9715    2.7598   -2.1860 C   0  0  0  0  0  0  0  0  0  0  0  0
   -3.1101    3.1722   -3.1775 H   0  0  0  0  0  0  0  0  0  0  0  0
   -3.9508    2.5626   -1.2875 N   0  0  0  0  0  0  0  0  0  0  0  0
   -4.9306    2.7627   -1.4348 H   0  0  0  0  0  0  0  0  0  0  0  0
   -3.3903    2.0284   -0.1485 C   0  0  0  0  0  0  0  0  0  0  0  0
   -3.8974    1.7283    0.7598 H   0  0  0  0  0  0  0  0  0  0  0  0
    0.5168   -0.6410    1.0595 C   0  0  0  0  0  0  0  0  0  0  0  0
    0.9796    0.0555    1.9630 O   0  0  0  0  0  0  0  0  0  0  0  0
    0.9837   -1.8639    0.7886 N   0  0  0  0  0  0  0  0  0  0  0  0
    0.6174   -2.3232   -0.0377 H   0  0  0  0  0  0  0  0  0  0  0  0
    2.0716   -2.5199    1.5103 C   0  0  0  0  0  0  0  0  0  0  0  0
    2.0327   -2.2548    2.5700 H   0  0  0  0  0  0  0  0  0  0  0  0
    1.9834   -3.6026    1.4098 H   0  0  0  0  0  0  0  0  0  0  0  0
    3.0296   -2.1954    1.1009 H   0  0  0  0  0  0  0  0  0  0  0  0
  5  6  2  0  0  0  0
  5  7  1  0  0  0  0
  2  3  1  0  0  0  0
  2  4  1  0  0  0  0
  2  5  1  0  0  0  0
  1  2  1  0  0  0  0
 22 23  2  0  0  0  0
 22 24  1  0  0  0  0
 20 21  1  0  0  0  0
 18 19  1  0  0  0  0
 18 20  1  0  0  0  0
 16 17  1  0  0  0  0
 16 18  1  0  0  0  0
 15 16  2  0  0  0  0
 14 15  1  0  0  0  0
 14 20  2  0  0  0  0
 11 12  1  0  0  0  0
 11 13  1  0  0  0  0
 11 14  1  0  0  0  0
  9 10  1  0  0  0  0
  9 11  1  0  0  0  0
  9 22  1  0  0  0  0
  7  8  1  0  0  0  0
  7  9  1  0  0  0  0
 26 27  1  0  0  0  0
 26 28  1  0  0  0  0
 26 29  1  0  0  0  0
 24 25  1  0  0  0  0
 24 26  1  0  0  0  0
M  END
$$$$
default_name
  -OEChem-01062215323D

 29 29  0     1  0  0  0  0  0999 V2000
   -2.9561   -3.9186    1.3887 H   0  0  0  0  0  0  0  0  0  0  0  0
   -3.1191   -2.9346    0.9517 C   0  0  0  0  0  0  0  0  0  0  0  0
   -3.7811   -2.3546    1.5917 H   0  0  0  0  0  0  0  0  0  0  0  0
   -3.5591   -3.0406   -0.0383 H   0  0  0  0  0  0  0  0  0  0  0  0
   -1.7921   -2.2226    0.8327 C   0  0  0  0  0  0  0  0  0  0  0  0
   -0.7611   -2.7766    1.1927 O   0  0  0  0  0  0  0  0  0  0  0  0
   -1.8201   -0.9926    0.3247 N   0  0  0  0  0  0  0  0  0  0  0  0
   -2.7141   -0.5816    0.0927 H   0  0  0  0  0  0  0  0  0  0  0  0
   -0.6481   -0.1156    0.2017 C   0  0  1  0  0  0  0  0  0  0  0  0
   -0.3195   -0.1304   -0.8395 H   0  0  0  0  0  0  0  0  0  0  0  0
   -1.0405    1.3303    0.5626 C   0  0  0  0  0  0  0  0  0  0  0  0
   -1.4818    1.3552    1.5600 H   0  0  0  0  0  0  0  0  0  0  0  0
   -0.1502    1.9604    0.5818 H   0  0  0  0  0  0  0  0  0  0  0  0
   -2.0521    1.9190   -0.3904 C   0  0  0  0  0  0  0  0  0  0  0  0
   -1.7912    2.3646   -1.6869 N   0  0  0  0  0  0  0  0  0  0  0  0
   -2.9715    2.7598   -2.1860 C   0  0  0  0  0  0  0  0  0  0  0  0
   -3.1101    3.1722   -3.1775 H   0  0  0  0  0  0  0  0  0  0  0  0
   -3.9508    2.5626   -1.2875 N   0  0  0  0  0  0  0  0  0  0  0  0
   -4.9306    2.7627   -1.4348 H   0  0  0  0  0  0  0  0  0  0  0  0
   -3.3903    2.0284   -0.1485 C   0  0  0  0  0  0  0  0  0  0  0  0
   -3.8974    1.7283    0.7598 H   0  0  0  0  0  0  0  0  0  0  0  0
    0.5168   -0.6410    1.0595 C   0  0  0  0  0  0  0  0  0  0  0  0
    0.7994   -0.0857    2.1212 O   0  0  0  0  0  0  0  0  0  0  0  0
    1.1842   -1.7090    0.6113 N   0  0  0  0  0  0  0  0  0  0  0  0
    0.9546   -2.0369   -0.3202 H   0  0  0  0  0  0  0  0  0  0  0  0
    2.3031   -2.3440    1.3036 C   0  0  0  0  0  0  0  0  0  0  0  0
    2.1459   -2.3065    2.3846 H   0  0  0  0  0  0  0  0  0  0  0  0
    2.3894   -3.3857    0.9913 H   0  0  0  0  0  0  0  0  0  0  0  0
    3.2278   -1.8166    1.0636 H   0  0  0  0  0  0  0  0  0  0  0  0
  5  6  2  0  0  0  0
  5  7  1  0  0  0  0
  2  3  1  0  0  0  0
  2  4  1  0  0  0  0
  2  5  1  0  0  0  0
  1  2  1  0  0  0  0
 22 23  2  0  0  0  0
 22 24  1  0  0  0  0
 20 21  1  0  0  0  0
 18 19  1  0  0  0  0
 18 20  1  0  0  0  0
 16 17  1  0  0  0  0
 16 18  1  0  0  0  0
 15 16  2  0  0  0  0
 14 15  1  0  0  0  0
 14 20  2  0  0  0  0
 11 12  1  0  0  0  0
 11 13  1  0  0  0  0
 11 14  1  0  0  0  0
  9 10  1  0  0  0  0
  9 11  1  0  0  0  0
  9 22  1  0  0  0  0
  7  8  1  0  0  0  0
  7  9  1  0  0  0  0
 26 27  1  0  0  0  0
 26 28  1  0  0  0  0
 26 29  1  0  0  0  0
 24 25  1  0  0  0  0
 24 26  1  0  0  0  0
M  END
$$$$
default_name
  -OEChem-01062215323D

 29 29  0     1  0  0  0  0  0999 V2000
   -2.9561   -3.9186    1.3887 H   0  0  0  0  0  0  0  0  0  0  0  0
   -3.1191   -2.9346    0.9517 C   0  0  0  0  0  0  0  0  0  0  0  0
   -3.7811   -2.3546    1.5917 H   0  0  0  0  0  0  0  0  0  0  0  0
   -3.5591   -3.0406   -0.0383 H   0  0  0  0  0  0  0  0  0  0  0  0
   -1.7921   -2.2226    0.8327 C   0  0  0  0  0  0  0  0  0  0  0  0
   -0.7611   -2.7766    1.1927 O   0  0  0  0  0  0  0  0  0  0  0  0
   -1.8201   -0.9926    0.3247 N   0  0  0  0  0  0  0  0  0  0  0  0
   -2.7141   -0.5816    0.0927 H   0  0  0  0  0  0  0  0  0  0  0  0
   -0.6481   -0.1156    0.2017 C   0  0  1  0  0  0  0  0  0  0  0  0
   -0.3195   -0.1304   -0.8395 H   0  0  0  0  0  0  0  0  0  0  0  0
   -1.0405    1.3303    0.5626 C   0  0  0  0  0  0  0  0  0  0  0  0
   -1.4818    1.3552    1.5600 H   0  0  0  0  0  0  0  0  0  0  0  0
   -0.1502    1.9604    0.5818 H   0  0  0  0  0  0  0  0  0  0  0  0
   -2.0521    1.9190   -0.3904 C   0  0  0  0  0  0  0  0  0  0  0  0
   -1.7912    2.3646   -1.6869 N   0  0  0  0  0  0  0  0  0  0  0  0
   -2.9715    2.7598   -2.1860 C   0  0  0  0  0  0  0  0  0  0  0  0
   -3.1101    3.1722   -3.1775 H   0  0  0  0  0  0  0  0  0  0  0  0
   -3.9508    2.5626   -1.2875 N   0  0  0  0  0  0  0  0  0  0  0  0
   -4.9306    2.7627   -1.4348 H   0  0  0  0  0  0  0  0  0  0  0  0
   -3.3903    2.0284   -0.1485 C   0  0  0  0  0  0  0  0  0  0  0  0
   -3.8974    1.7283    0.7598 H   0  0  0  0  0  0  0  0  0  0  0  0
    0.5168   -0.6410    1.0595 C   0  0  0  0  0  0  0  0  0  0  0  0
    0.6317   -0.2790    2.2305 O   0  0  0  0  0  0  0  0  0  0  0  0
    1.3711   -1.4958    0.4881 N   0  0  0  0  0  0  0  0  0  0  0  0
    1.2639   -1.6564   -0.5072 H   0  0  0  0  0  0  0  0  0  0  0  0
    2.5197   -2.1002    1.1588 C   0  0  0  0  0  0  0  0  0  0  0  0
    2.2791   -2.3039    2.2053 H   0  0  0  0  0  0  0  0  0  0  0  0
    2.7873   -3.0357    0.6654 H   0  0  0  0  0  0  0  0  0  0  0  0
    3.3680   -1.4149    1.1193 H   0  0  0  0  0  0  0  0  0  0  0  0
  5  6  2  0  0  0  0
  5  7  1  0  0  0  0
  2  3  1  0  0  0  0
  2  4  1  0  0  0  0
  2  5  1  0  0  0  0
  1  2  1  0  0  0  0
 22 23  2  0  0  0  0
 22 24  1  0  0  0  0
 20 21  1  0  0  0  0
 18 19  1  0  0  0  0
 18 20  1  0  0  0  0
 16 17  1  0  0  0  0
 16 18  1  0  0  0  0
 15 16  2  0  0  0  0
 14 15  1  0  0  0  0
 14 20  2  0  0  0  0
 11 12  1  0  0  0  0
 11 13  1  0  0  0  0
 11 14  1  0  0  0  0
  9 10  1  0  0  0  0
  9 11  1  0  0  0  0
  9 22  1  0  0  0  0
  7  8  1  0  0  0  0
  7  9  1  0  0  0  0
 26 27  1  0  0  0  0
 26 28  1  0  0  0  0
 26 29  1  0  0  0  0
 24 25  1  0  0  0  0
 24 26  1  0  0  0  0
M  END
$$$$
default_name
  -OEChem-01062215323D

 29 29  0     1  0  0  0  0  0999 V2000
   -2.9561   -3.9186    1.3887 H   0  0  0  0  0  0  0  0  0  0  0  0
   -3.1191   -2.9346    0.9517 C   0  0  0  0  0  0  0  0  0  0  0  0
   -3.7811   -2.3546    1.5917 H   0  0  0  0  0  0  0  0  0  0  0  0
   -3.5591   -3.0406   -0.0383 H   0  0  0  0  0  0  0  0  0  0  0  0
   -1.7921   -2.2226    0.8327 C   0  0  0  0  0  0  0  0  0  0  0  0
   -0.7611   -2.7766    1.1927 O   0  0  0  0  0  0  0  0  0  0  0  0
   -1.8201   -0.9926    0.3247 N   0  0  0  0  0  0  0  0  0  0  0  0
   -2.7141   -0.5816    0.0927 H   0  0  0  0  0  0  0  0  0  0  0  0
   -0.6481   -0.1156    0.2017 C   0  0  1  0  0  0  0  0  0  0  0  0
   -0.3195   -0.1304   -0.8395 H   0  0  0  0  0  0  0  0  0  0  0  0
   -1.0405    1.3303    0.5626 C   0  0  0  0  0  0  0  0  0  0  0  0
   -1.4818    1.3552    1.5600 H   0  0  0  0  0  0  0  0  0  0  0  0
   -0.1502    1.9604    0.5818 H   0  0  0  0  0  0  0  0  0  0  0  0
   -2.0521    1.9190   -0.3904 C   0  0  0  0  0  0  0  0  0  0  0  0
   -1.7912    2.3646   -1.6869 N   0  0  0  0  0  0  0  0  0  0  0  0
   -2.9715    2.7598   -2.1860 C   0  0  0  0  0  0  0  0  0  0  0  0
   -3.1101    3.1722   -3.1775 H   0  0  0  0  0  0  0  0  0  0  0  0
   -3.9508    2.5626   -1.2875 N   0  0  0  0  0  0  0  0  0  0  0  0
   -4.9306    2.7627   -1.4348 H   0  0  0  0  0  0  0  0  0  0  0  0
   -3.3903    2.0284   -0.1485 C   0  0  0  0  0  0  0  0  0  0  0  0
   -3.8974    1.7283    0.7598 H   0  0  0  0  0  0  0  0  0  0  0  0
    0.5168   -0.6410    1.0595 C   0  0  0  0  0  0  0  0  0  0  0  0
    0.4880   -0.5113    2.2833 O   0  0  0  0  0  0  0  0  0  0  0  0
    1.5317   -1.2387    0.4274 N   0  0  0  0  0  0  0  0  0  0  0  0
    1.5243   -1.2075   -0.5860 H   0  0  0  0  0  0  0  0  0  0  0  0
    2.7066   -1.8051    1.0858 C   0  0  0  0  0  0  0  0  0  0  0  0
    2.4232   -2.2470    2.0445 H   0  0  0  0  0  0  0  0  0  0  0  0
    3.1499   -2.5763    0.4543 H   0  0  0  0  0  0  0  0  0  0  0  0
    3.4405   -1.0175    1.2642 H   0  0  0  0  0  0  0  0  0  0  0  0
  5  6  2  0  0  0  0
  5  7  1  0  0  0  0
  2  3  1  0  0  0  0
  2  4  1  0  0  0  0
  2  5  1  0  0  0  0
  1  2  1  0  0  0  0
 22 23  2  0  0  0  0
 22 24  1  0  0  0  0
 20 21  1  0  0  0  0
 18 19  1  0  0  0  0
 18 20  1  0  0  0  0
 16 17  1  0  0  0  0
 16 18  1  0  0  0  0
 15 16  2  0  0  0  0
 14 15  1  0  0  0  0
 14 20  2  0  0  0  0
 11 12  1  0  0  0  0
 11 13  1  0  0  0  0
 11 14  1  0  0  0  0
  9 10  1  0  0  0  0
  9 11  1  0  0  0  0
  9 22  1  0  0  0  0
  7  8  1  0  0  0  0
  7  9  1  0  0  0  0
 26 27  1  0  0  0  0
 26 28  1  0  0  0  0
 26 29  1  0  0  0  0
 24 25  1  0  0  0  0
 24 26  1  0  0  0  0
M  END
$$$$
default_name
  -OEChem-01062215323D

 29 29  0     1  0  0  0  0  0999 V2000
   -2.9561   -3.9186    1.3887 H   0  0  0  0  0  0  0  0  0  0  0  0
   -3.1191   -2.9346    0.9517 C   0  0  0  0  0  0  0  0  0  0  0  0
   -3.7811   -2.3546    1.5917 H   0  0  0  0  0  0  0  0  0  0  0  0
   -3.5591   -3.0406   -0.0383 H   0  0  0  0  0  0  0  0  0  0  0  0
   -1.7921   -2.2226    0.8327 C   0  0  0  0  0  0  0  0  0  0  0  0
   -0.7611   -2.7766    1.1927 O   0  0  0  0  0  0  0  0  0  0  0  0
   -1.8201   -0.9926    0.3247 N   0  0  0  0  0  0  0  0  0  0  0  0
   -2.7141   -0.5816    0.0927 H   0  0  0  0  0  0  0  0  0  0  0  0
   -0.6481   -0.1156    0.2017 C   0  0  1  0  0  0  0  0  0  0  0  0
   -0.3195   -0.1304   -0.8395 H   0  0  0  0  0  0  0  0  0  0  0  0
   -1.0405    1.3303    0.5626 C   0  0  0  0  0  0  0  0  0  0  0  0
   -1.4818    1.3552    1.5600 H   0  0  0  0  0  0  0  0  0  0  0  0
   -0.1502    1.9604    0.5818 H   0  0  0  0  0  0  0  0  0  0  0  0
   -2.0521    1.9190   -0.3904 C   0  0  0  0  0  0  0  0  0  0  0  0
   -1.7912    2.3646   -1.6869 N   0  0  0  0  0  0  0  0  0  0  0  0
   -2.9715    2.7598   -2.1860 C   0  0  0  0  0  0  0  0  0  0  0  0
   -3.1101    3.1722   -3.1775 H   0  0  0  0  0  0  0  0  0  0  0  0
   -3.9508    2.5626   -1.2875 N   0  0  0  0  0  0  0  0  0  0  0  0
   -4.9306    2.7627   -1.4348 H   0  0  0  0  0  0  0  0  0  0  0  0
   -3.3903    2.0284   -0.1485 C   0  0  0  0  0  0  0  0  0  0  0  0
   -3.8974    1.7283    0.7598 H   0  0  0  0  0  0  0  0  0  0  0  0
    0.5168   -0.6410    1.0595 C   0  0  0  0  0  0  0  0  0  0  0  0
    0.3781   -0.7667    2.2762 O   0  0  0  0  0  0  0  0  0  0  0  0
    1.6552   -0.9553    0.4333 N   0  0  0  0  0  0  0  0  0  0  0  0
    1.7181   -0.7210   -0.5511 H   0  0  0  0  0  0  0  0  0  0  0  0
    2.8509   -1.4788    1.0896 C   0  0  0  0  0  0  0  0  0  0  0  0
    2.5684   -2.1398    1.9130 H   0  0  0  0  0  0  0  0  0  0  0  0
    3.4525   -2.0389    0.3724 H   0  0  0  0  0  0  0  0  0  0  0  0
    3.4404   -0.6516    1.4884 H   0  0  0  0  0  0  0  0  0  0  0  0
  5  6  2  0  0  0  0
  5  7  1  0  0  0  0
  2  3  1  0  0  0  0
  2  4  1  0  0  0  0
  2  5  1  0  0  0  0
  1  2  1  0  0  0  0
 22 23  2  0  0  0  0
 22 24  1  0  0  0  0
 20 21  1  0  0  0  0
 18 19  1  0  0  0  0
 18 20  1  0  0  0  0
 16 17  1  0  0  0  0
 16 18  1  0  0  0  0
 15 16  2  0  0  0  0
 14 15  1  0  0  0  0
 14 20  2  0  0  0  0
 11 12  1  0  0  0  0
 11 13  1  0  0  0  0
 11 14  1  0  0  0  0
  9 10  1  0  0  0  0
  9 11  1  0  0  0  0
  9 22  1  0  0  0  0
  7  8  1  0  0  0  0
  7  9  1  0  0  0  0
 26 27  1  0  0  0  0
 26 28  1  0  0  0  0
 26 29  1  0  0  0  0
 24 25  1  0  0  0  0
 24 26  1  0  0  0  0
M  END
$$$$
default_name
  -OEChem-01062215323D

 29 29  0     1  0  0  0  0  0999 V2000
   -2.9561   -3.9186    1.3887 H   0  0  0  0  0  0  0  0  0  0  0  0
   -3.1191   -2.9346    0.9517 C   0  0  0  0  0  0  0  0  0  0  0  0
   -3.7811   -2.3546    1.5917 H   0  0  0  0  0  0  0  0  0  0  0  0
   -3.5591   -3.0406   -0.0383 H   0  0  0  0  0  0  0  0  0  0  0  0
   -1.7921   -2.2226    0.8327 C   0  0  0  0  0  0  0  0  0  0  0  0
   -0.7611   -2.7766    1.1927 O   0  0  0  0  0  0  0  0  0  0  0  0
   -1.8201   -0.9926    0.3247 N   0  0  0  0  0  0  0  0  0  0  0  0
   -2.7141   -0.5816    0.0927 H   0  0  0  0  0  0  0  0  0  0  0  0
   -0.6481   -0.1156    0.2017 C   0  0  1  0  0  0  0  0  0  0  0  0
   -0.3195   -0.1304   -0.8395 H   0  0  0  0  0  0  0  0  0  0  0  0
   -1.0405    1.3303    0.5626 C   0  0  0  0  0  0  0  0  0  0  0  0
   -1.4818    1.3552    1.5600 H   0  0  0  0  0  0  0  0  0  0  0  0
   -0.1502    1.9604    0.5818 H   0  0  0  0  0  0  0  0  0  0  0  0
   -2.0521    1.9190   -0.3904 C   0  0  0  0  0  0  0  0  0  0  0  0
   -1.7912    2.3646   -1.6869 N   0  0  0  0  0  0  0  0  0  0  0  0
   -2.9715    2.7598   -2.1860 C   0  0  0  0  0  0  0  0  0  0  0  0
   -3.1101    3.1722   -3.1775 H   0  0  0  0  0  0  0  0  0  0  0  0
   -3.9508    2.5626   -1.2875 N   0  0  0  0  0  0  0  0  0  0  0  0
   -4.9306    2.7627   -1.4348 H   0  0  0  0  0  0  0  0  0  0  0  0
   -3.3903    2.0284   -0.1485 C   0  0  0  0  0  0  0  0  0  0  0  0
   -3.8974    1.7283    0.7598 H   0  0  0  0  0  0  0  0  0  0  0  0
    0.5168   -0.6410    1.0595 C   0  0  0  0  0  0  0  0  0  0  0  0
    0.3093   -1.0280    2.2095 O   0  0  0  0  0  0  0  0  0  0  0  0
    1.7330   -0.6649    0.5054 N   0  0  0  0  0  0  0  0  0  0  0  0
    1.8320   -0.2299   -0.4051 H   0  0  0  0  0  0  0  0  0  0  0  0
    2.9430   -1.1435    1.1700 C   0  0  0  0  0  0  0  0  0  0  0  0
    2.7048   -1.9895    1.8198 H   0  0  0  0  0  0  0  0  0  0  0  0
    3.6746   -1.4602    0.4253 H   0  0  0  0  0  0  0  0  0  0  0  0
    3.3678   -0.3421    1.7767 H   0  0  0  0  0  0  0  0  0  0  0  0
  5  6  2  0  0  0  0
  5  7  1  0  0  0  0
  2  3  1  0  0  0  0
  2  4  1  0  0  0  0
  2  5  1  0  0  0  0
  1  2  1  0  0  0  0
 22 23  2  0  0  0  0
 22 24  1  0  0  0  0
 20 21  1  0  0  0  0
 18 19  1  0  0  0  0
 18 20  1  0  0  0  0
 16 17  1  0  0  0  0
 16 18  1  0  0  0  0
 15 16  2  0  0  0  0
 14 15  1  0  0  0  0
 14 20  2  0  0  0  0
 11 12  1  0  0  0  0
 11 13  1  0  0  0  0
 11 14  1  0  0  0  0
  9 10  1  0  0  0  0
  9 11  1  0  0  0  0
  9 22  1  0  0  0  0
  7  8  1  0  0  0  0
  7  9  1  0  0  0  0
 26 27  1  0  0  0  0
 26 28  1  0  0  0  0
 26 29  1  0  0  0  0
 24 25  1  0  0  0  0
 24 26  1  0  0  0  0
M  END
$$$$
default_name
  -OEChem-01062215323D

 29 29  0     1  0  0  0  0  0999 V2000
   -2.9561   -3.9186    1.3887 H   0  0  0  0  0  0  0  0  0  0  0  0
   -3.1191   -2.9346    0.9517 C   0  0  0  0  0  0  0  0  0  0  0  0
   -3.7811   -2.3546    1.5917 H   0  0  0  0  0  0  0  0  0  0  0  0
   -3.5591   -3.0406   -0.0383 H   0  0  0  0  0  0  0  0  0  0  0  0
   -1.7921   -2.2226    0.8327 C   0  0  0  0  0  0  0  0  0  0  0  0
   -0.7611   -2.7766    1.1927 O   0  0  0  0  0  0  0  0  0  0  0  0
   -1.8201   -0.9926    0.3247 N   0  0  0  0  0  0  0  0  0  0  0  0
   -2.7141   -0.5816    0.0927 H   0  0  0  0  0  0  0  0  0  0  0  0
   -0.6481   -0.1156    0.2017 C   0  0  1  0  0  0  0  0  0  0  0  0
   -0.3195   -0.1304   -0.8395 H   0  0  0  0  0  0  0  0  0  0  0  0
   -1.0405    1.3303    0.5626 C   0  0  0  0  0  0  0  0  0  0  0  0
   -1.4818    1.3552    1.5600 H   0  0  0  0  0  0  0  0  0  0  0  0
   -0.1502    1.9604    0.5818 H   0  0  0  0  0  0  0  0  0  0  0  0
   -2.0521    1.9190   -0.3904 C   0  0  0  0  0  0  0  0  0  0  0  0
   -1.7912    2.3646   -1.6869 N   0  0  0  0  0  0  0  0  0  0  0  0
   -2.9715    2.7598   -2.1860 C   0  0  0  0  0  0  0  0  0  0  0  0
   -3.1101    3.1722   -3.1775 H   0  0  0  0  0  0  0  0  0  0  0  0
   -3.9508    2.5626   -1.2875 N   0  0  0  0  0  0  0  0  0  0  0  0
   -4.9306    2.7627   -1.4348 H   0  0  0  0  0  0  0  0  0  0  0  0
   -3.3903    2.0284   -0.1485 C   0  0  0  0  0  0  0  0  0  0  0  0
   -3.8974    1.7283    0.7598 H   0  0  0  0  0  0  0  0  0  0  0  0
    0.5168   -0.6410    1.0595 C   0  0  0  0  0  0  0  0  0  0  0  0
    0.2865   -1.2772    2.0879 O   0  0  0  0  0  0  0  0  0  0  0  0
    1.7600   -0.3874    0.6388 N   0  0  0  0  0  0  0  0  0  0  0  0
    1.8583    0.2322   -0.1577 H   0  0  0  0  0  0  0  0  0  0  0  0
    2.9764   -0.8221    1.3214 C   0  0  0  0  0  0  0  0  0  0  0  0
    2.8231   -1.8065    1.7712 H   0  0  0  0  0  0  0  0  0  0  0  0
    3.8009   -0.8795    0.6094 H   0  0  0  0  0  0  0  0  0  0  0  0
    3.2275   -0.1101    2.1093 H   0  0  0  0  0  0  0  0  0  0  0  0
  5  6  2  0  0  0  0
  5  7  1  0  0  0  0
  2  3  1  0  0  0  0
  2  4  1  0  0  0  0
  2  5  1  0  0  0  0
  1  2  1  0  0  0  0
 22 23  2  0  0  0  0
 22 24  1  0  0  0  0
 20 21  1  0  0  0  0
 18 19  1  0  0  0  0
 18 20  1  0  0  0  0
 16 17  1  0  0  0  0
 16 18  1  0  0  0  0
 15 16  2  0  0  0  0
 14 15  1  0  0  0  0
 14 20  2  0  0  0  0
 11 12  1  0  0  0  0
 11 13  1  0  0  0  0
 11 14  1  0  0  0  0
  9 10  1  0  0  0  0
  9 11  1  0  0  0  0
  9 22  1  0  0  0  0
  7  8  1  0  0  0  0
  7  9  1  0  0  0  0
 26 27  1  0  0  0  0
 26 28  1  0  0  0  0
 26 29  1  0  0  0  0
 24 25  1  0  0  0  0
 24 26  1  0  0  0  0
M  END
$$$$
default_name
  -OEChem-01062215323D

 29 29  0     1  0  0  0  0  0999 V2000
   -2.9561   -3.9186    1.3887 H   0  0  0  0  0  0  0  0  0  0  0  0
   -3.1191   -2.9346    0.9517 C   0  0  0  0  0  0  0  0  0  0  0  0
   -3.7811   -2.3546    1.5917 H   0  0  0  0  0  0  0  0  0  0  0  0
   -3.5591   -3.0406   -0.0383 H   0  0  0  0  0  0  0  0  0  0  0  0
   -1.7921   -2.2226    0.8327 C   0  0  0  0  0  0  0  0  0  0  0  0
   -0.7611   -2.7766    1.1927 O   0  0  0  0  0  0  0  0  0  0  0  0
   -1.8201   -0.9926    0.3247 N   0  0  0  0  0  0  0  0  0  0  0  0
   -2.7141   -0.5816    0.0927 H   0  0  0  0  0  0  0  0  0  0  0  0
   -0.6481   -0.1156    0.2017 C   0  0  1  0  0  0  0  0  0  0  0  0
   -0.3195   -0.1304   -0.8395 H   0  0  0  0  0  0  0  0  0  0  0  0
   -1.0405    1.3303    0.5626 C   0  0  0  0  0  0  0  0  0  0  0  0
   -1.4818    1.3552    1.5600 H   0  0  0  0  0  0  0  0  0  0  0  0
   -0.1502    1.9604    0.5818 H   0  0  0  0  0  0  0  0  0  0  0  0
   -2.0521    1.9190   -0.3904 C   0  0  0  0  0  0  0  0  0  0  0  0
   -1.7912    2.3646   -1.6869 N   0  0  0  0  0  0  0  0  0  0  0  0
   -2.9715    2.7598   -2.1860 C   0  0  0  0  0  0  0  0  0  0  0  0
   -3.1101    3.1722   -3.1775 H   0  0  0  0  0  0  0  0  0  0  0  0
   -3.9508    2.5626   -1.2875 N   0  0  0  0  0  0  0  0  0  0  0  0
   -4.9306    2.7627   -1.4348 H   0  0  0  0  0  0  0  0  0  0  0  0
   -3.3903    2.0284   -0.1485 C   0  0  0  0  0  0  0  0  0  0  0  0
   -3.8974    1.7283    0.7598 H   0  0  0  0  0  0  0  0  0  0  0  0
    0.5168   -0.6410    1.0595 C   0  0  0  0  0  0  0  0  0  0  0  0
    0.3111   -1.4973    1.9196 O   0  0  0  0  0  0  0  0  0  0  0  0
    1.7342   -0.1415    0.8244 N   0  0  0  0  0  0  0  0  0  0  0  0
    1.7952    0.6340    0.1741 H   0  0  0  0  0  0  0  0  0  0  0  0
    2.9489   -0.5365    1.5336 C   0  0  0  0  0  0  0  0  0  0  0  0
    2.9153   -1.6030    1.7707 H   0  0  0  0  0  0  0  0  0  0  0  0
    3.8229   -0.3364    0.9122 H   0  0  0  0  0  0  0  0  0  0  0  0
    3.0291    0.0286    2.4636 H   0  0  0  0  0  0  0  0  0  0  0  0
  5  6  2  0  0  0  0
  5  7  1  0  0  0  0
  2  3  1  0  0  0  0
  2  4  1  0  0  0  0
  2  5  1  0  0  0  0
  1  2  1  0  0  0  0
 22 23  2  0  0  0  0
 22 24  1  0  0  0  0
 20 21  1  0  0  0  0
 18 19  1  0  0  0  0
 18 20  1  0  0  0  0
 16 17  1  0  0  0  0
 16 18  1  0  0  0  0
 15 16  2  0  0  0  0
 14 15  1  0  0  0  0
 14 20  2  0  0  0  0
 11 12  1  0  0  0  0
 11 13  1  0  0  0  0
 11 14  1  0  0  0  0
  9 10  1  0  0  0  0
  9 11  1  0  0  0  0
  9 22  1  0  0  0  0
  7  8  1  0  0  0  0
  7  9  1  0  0  0  0
 26 27  1  0  0  0  0
 26 28  1  0  0  0  0
 26 29  1  0  0  0  0
 24 25  1  0  0  0  0
 24 26  1  0  0  0  0
M  END
$$$$
default_name
  -OEChem-01062215323D

 29 29  0     1  0  0  0  0  0999 V2000
   -2.9561   -3.9186    1.3887 H   0  0  0  0  0  0  0  0  0  0  0  0
   -3.1191   -2.9346    0.9517 C   0  0  0  0  0  0  0  0  0  0  0  0
   -3.7811   -2.3546    1.5917 H   0  0  0  0  0  0  0  0  0  0  0  0
   -3.5591   -3.0406   -0.0383 H   0  0  0  0  0  0  0  0  0  0  0  0
   -1.7921   -2.2226    0.8327 C   0  0  0  0  0  0  0  0  0  0  0  0
   -0.7611   -2.7766    1.1927 O   0  0  0  0  0  0  0  0  0  0  0  0
   -1.8201   -0.9926    0.3247 N   0  0  0  0  0  0  0  0  0  0  0  0
   -2.7141   -0.5816    0.0927 H   0  0  0  0  0  0  0  0  0  0  0  0
   -0.6481   -0.1156    0.2017 C   0  0  1  0  0  0  0  0  0  0  0  0
   -0.4827    0.0849   -0.8588 H   0  0  0  0  0  0  0  0  0  0  0  0
   -0.9259    1.2256    0.9080 C   0  0  0  0  0  0  0  0  0  0  0  0
   -1.2089    1.0446    1.9460 H   0  0  0  0  0  0  0  0  0  0  0  0
   -0.0198    1.8331    0.9160 H   0  0  0  0  0  0  0  0  0  0  0  0
   -2.0477    2.0053    0.2664 C   0  0  0  0  0  0  0  0  0  0  0  0
   -1.9706    2.7096   -0.9358 N   0  0  0  0  0  0  0  0  0  0  0  0
   -3.1972    3.2065   -1.1520 C   0  0  0  0  0  0  0  0  0  0  0  0
   -3.4695    3.8170   -2.0038 H   0  0  0  0  0  0  0  0  0  0  0  0
   -4.0351    2.8319   -0.1708 N   0  0  0  0  0  0  0  0  0  0  0  0
   -5.0176    3.0636   -0.1185 H   0  0  0  0  0  0  0  0  0  0  0  0
   -3.3284    2.0693    0.7323 C   0  0  0  0  0  0  0  0  0  0  0  0
   -3.7023    1.5894    1.6280 H   0  0  0  0  0  0  0  0  0  0  0  0
    0.6131   -0.8144    0.7402 C   0  0  0  0  0  0  0  0  0  0  0  0
    0.5403   -1.9602    1.1843 O   0  0  0  0  0  0  0  0  0  0  0  0
    1.7645   -0.1369    0.6946 N   0  0  0  0  0  0  0  0  0  0  0  0
    1.7146    0.8359    0.4132 H   0  0  0  0  0  0  0  0  0  0  0  0
    3.0539   -0.6523    1.1488 C   0  0  0  0  0  0  0  0  0  0  0  0
    3.1278   -1.7214    0.9337 H   0  0  0  0  0  0  0  0  0  0  0  0
    3.8633   -0.1286    0.6382 H   0  0  0  0  0  0  0  0  0  0  0  0
    3.1484   -0.5023    2.2255 H   0  0  0  0  0  0  0  0  0  0  0  0
  5  6  2  0  0  0  0
  5  7  1  0  0  0  0
  2  3  1  0  0  0  0
  2  4  1  0  0  0  0
  2  5  1  0  0  0  0
  1  2  1  0  0  0  0
 22 23  2  0  0  0  0
 22 24  1  0  0  0  0
 20 21  1  0  0  0  0
 18 19  1  0  0  0  0
 18 20  1  0  0  0  0
 16 17  1  0  0  0  0
 16 18  1  0  0  0  0
 15 16  2  0  0  0  0
 14 15  1  0  0  0  0
 14 20  2  0  0  0  0
 11 12  1  0  0  0  0
 11 13  1  0  0  0  0
 11 14  1  0  0  0  0
  9 10  1  0  0  0  0
  9 11  1  0  0  0  0
  9 22  1  0  0  0  0
  7  8  1  0  0  0  0
  7  9  1  0  0  0  0
 26 27  1  0  0  0  0
 26 28  1  0  0  0  0
 26 29  1  0  0  0  0
 24 25  1  0  0  0  0
 24 26  1  0  0  0  0
M  END
$$$$
default_name
  -OEChem-01062215323D

 29 29  0     1  0  0  0  0  0999 V2000
   -2.9561   -3.9186    1.3887 H   0  0  0  0  0  0  0  0  0  0  0  0
   -3.1191   -2.9346    0.9517 C   0  0  0  0  0  0  0  0  0  0  0  0
   -3.7811   -2.3546    1.5917 H   0  0  0  0  0  0  0  0  0  0  0  0
   -3.5591   -3.0406   -0.0383 H   0  0  0  0  0  0  0  0  0  0  0  0
   -1.7921   -2.2226    0.8327 C   0  0  0  0  0  0  0  0  0  0  0  0
   -0.7611   -2.7766    1.1927 O   0  0  0  0  0  0  0  0  0  0  0  0
   -1.8201   -0.9926    0.3247 N   0  0  0  0  0  0  0  0  0  0  0  0
   -2.7141   -0.5816    0.0927 H   0  0  0  0  0  0  0  0  0  0  0  0
   -0.6481   -0.1156    0.2017 C   0  0  1  0  0  0  0  0  0  0  0  0
   -0.4827    0.0849   -0.8588 H   0  0  0  0  0  0  0  0  0  0  0  0
   -0.9259    1.2256    0.9080 C   0  0  0  0  0  0  0  0  0  0  0  0
   -1.2089    1.0446    1.9460 H   0  0  0  0  0  0  0  0  0  0  0  0
   -0.0198    1.8331    0.9160 H   0  0  0  0  0  0  0  0  0  0  0  0
   -2.0477    2.0053    0.2664 C   0  0  0  0  0  0  0  0  0  0  0  0
   -1.9706    2.7096   -0.9358 N   0  0  0  0  0  0  0  0  0  0  0  0
   -3.1972    3.2065   -1.1520 C   0  0  0  0  0  0  0  0  0  0  0  0
   -3.4695    3.8170   -2.0038 H   0  0  0  0  0  0  0  0  0  0  0  0
   -4.0351    2.8319   -0.1708 N   0  0  0  0  0  0  0  0  0  0  0  0
   -5.0176    3.0636   -0.1185 H   0  0  0  0  0  0  0  0  0  0  0  0
   -3.3284    2.0693    0.7323 C   0  0  0  0  0  0  0  0  0  0  0  0
   -3.7023    1.5894    1.6280 H   0  0  0  0  0  0  0  0  0  0  0  0
    0.6131   -0.8144    0.7402 C   0  0  0  0  0  0  0  0  0  0  0  0
    0.6116   -2.0315    0.9250 O   0  0  0  0  0  0  0  0  0  0  0  0
    1.6866   -0.0556    0.9825 N   0  0  0  0  0  0  0  0  0  0  0  0
    1.5671    0.9482    0.9043 H   0  0  0  0  0  0  0  0  0  0  0  0
    2.9658   -0.5554    1.4808 C   0  0  0  0  0  0  0  0  0  0  0  0
    3.1724   -1.5431    1.0605 H   0  0  0  0  0  0  0  0  0  0  0  0
    3.7671    0.1281    1.1966 H   0  0  0  0  0  0  0  0  0  0  0  0
    2.9278   -0.6363    2.5683 H   0  0  0  0  0  0  0  0  0  0  0  0
  5  6  2  0  0  0  0
  5  7  1  0  0  0  0
  2  3  1  0  0  0  0
  2  4  1  0  0  0  0
  2  5  1  0  0  0  0
  1  2  1  0  0  0  0
 22 23  2  0  0  0  0
 22 24  1  0  0  0  0
 20 21  1  0  0  0  0
 18 19  1  0  0  0  0
 18 20  1  0  0  0  0
 16 17  1  0  0  0  0
 16 18  1  0  0  0  0
 15 16  2  0  0  0  0
 14 15  1  0  0  0  0
 14 20  2  0  0  0  0
 11 12  1  0  0  0  0
 11 13  1  0  0  0  0
 11 14  1  0  0  0  0
  9 10  1  0  0  0  0
  9 11  1  0  0  0  0
  9 22  1  0  0  0  0
  7  8  1  0  0  0  0
  7  9  1  0  0  0  0
 26 27  1  0  0  0  0
 26 28  1  0  0  0  0
 26 29  1  0  0  0  0
 24 25  1  0  0  0  0
 24 26  1  0  0  0  0
M  END
$$$$
default_name
  -OEChem-01062215323D

 29 29  0     1  0  0  0  0  0999 V2000
   -2.9561   -3.9186    1.3887 H   0  0  0  0  0  0  0  0  0  0  0  0
   -3.1191   -2.9346    0.9517 C   0  0  0  0  0  0  0  0  0  0  0  0
   -3.7811   -2.3546    1.5917 H   0  0  0  0  0  0  0  0  0  0  0  0
   -3.5591   -3.0406   -0.0383 H   0  0  0  0  0  0  0  0  0  0  0  0
   -1.7921   -2.2226    0.8327 C   0  0  0  0  0  0  0  0  0  0  0  0
   -0.7611   -2.7766    1.1927 O   0  0  0  0  0  0  0  0  0  0  0  0
   -1.8201   -0.9926    0.3247 N   0  0  0  0  0  0  0  0  0  0  0  0
   -2.7141   -0.5816    0.0927 H   0  0  0  0  0  0  0  0  0  0  0  0
   -0.6481   -0.1156    0.2017 C   0  0  1  0  0  0  0  0  0  0  0  0
   -0.4827    0.0849   -0.8588 H   0  0  0  0  0  0  0  0  0  0  0  0
   -0.9259    1.2256    0.9080 C   0  0  0  0  0  0  0  0  0  0  0  0
   -1.2089    1.0446    1.9460 H   0  0  0  0  0  0  0  0  0  0  0  0
   -0.0198    1.8331    0.9160 H   0  0  0  0  0  0  0  0  0  0  0  0
   -2.0477    2.0053    0.2664 C   0  0  0  0  0  0  0  0  0  0  0  0
   -1.9706    2.7096   -0.9358 N   0  0  0  0  0  0  0  0  0  0  0  0
   -3.1972    3.2065   -1.1520 C   0  0  0  0  0  0  0  0  0  0  0  0
   -3.4695    3.8170   -2.0038 H   0  0  0  0  0  0  0  0  0  0  0  0
   -4.0351    2.8319   -0.1708 N   0  0  0  0  0  0  0  0  0  0  0  0
   -5.0176    3.0636   -0.1185 H   0  0  0  0  0  0  0  0  0  0  0  0
   -3.3284    2.0693    0.7323 C   0  0  0  0  0  0  0  0  0  0  0  0
   -3.7023    1.5894    1.6280 H   0  0  0  0  0  0  0  0  0  0  0  0
    0.6131   -0.8144    0.7402 C   0  0  0  0  0  0  0  0  0  0  0  0
    0.7173   -2.0389    0.6677 O   0  0  0  0  0  0  0  0  0  0  0  0
    1.5701   -0.0452    1.2687 N   0  0  0  0  0  0  0  0  0  0  0  0
    1.3568    0.9391    1.3851 H   0  0  0  0  0  0  0  0  0  0  0  0
    2.8329   -0.5403    1.8116 C   0  0  0  0  0  0  0  0  0  0  0  0
    3.1845   -1.3937    1.2261 H   0  0  0  0  0  0  0  0  0  0  0  0
    3.5853    0.2490    1.7792 H   0  0  0  0  0  0  0  0  0  0  0  0
    2.6865   -0.8584    2.8451 H   0  0  0  0  0  0  0  0  0  0  0  0
  5  6  2  0  0  0  0
  5  7  1  0  0  0  0
  2  3  1  0  0  0  0
  2  4  1  0  0  0  0
  2  5  1  0  0  0  0
  1  2  1  0  0  0  0
 22 23  2  0  0  0  0
 22 24  1  0  0  0  0
 20 21  1  0  0  0  0
 18 19  1  0  0  0  0
 18 20  1  0  0  0  0
 16 17  1  0  0  0  0
 16 18  1  0  0  0  0
 15 16  2  0  0  0  0
 14 15  1  0  0  0  0
 14 20  2  0  0  0  0
 11 12  1  0  0  0  0
 11 13  1  0  0  0  0
 11 14  1  0  0  0  0
  9 10  1  0  0  0  0
  9 11  1  0  0  0  0
  9 22  1  0  0  0  0
  7  8  1  0  0  0  0
  7  9  1  0  0  0  0
 26 27  1  0  0  0  0
 26 28  1  0  0  0  0
 26 29  1  0  0  0  0
 24 25  1  0  0  0  0
 24 26  1  0  0  0  0
M  END
$$$$
default_name
  -OEChem-01062215323D

 29 29  0     1  0  0  0  0  0999 V2000
   -2.9561   -3.9186    1.3887 H   0  0  0  0  0  0  0  0  0  0  0  0
   -3.1191   -2.9346    0.9517 C   0  0  0  0  0  0  0  0  0  0  0  0
   -3.7811   -2.3546    1.5917 H   0  0  0  0  0  0  0  0  0  0  0  0
   -3.5591   -3.0406   -0.0383 H   0  0  0  0  0  0  0  0  0  0  0  0
   -1.7921   -2.2226    0.8327 C   0  0  0  0  0  0  0  0  0  0  0  0
   -0.7611   -2.7766    1.1927 O   0  0  0  0  0  0  0  0  0  0  0  0
   -1.8201   -0.9926    0.3247 N   0  0  0  0  0  0  0  0  0  0  0  0
   -2.7141   -0.5816    0.0927 H   0  0  0  0  0  0  0  0  0  0  0  0
   -0.6481   -0.1156    0.2017 C   0  0  1  0  0  0  0  0  0  0  0  0
   -0.4827    0.0849   -0.8588 H   0  0  0  0  0  0  0  0  0  0  0  0
   -0.9259    1.2256    0.9080 C   0  0  0  0  0  0  0  0  0  0  0  0
   -1.2089    1.0446    1.9460 H   0  0  0  0  0  0  0  0  0  0  0  0
   -0.0198    1.8331    0.9160 H   0  0  0  0  0  0  0  0  0  0  0  0
   -2.0477    2.0053    0.2664 C   0  0  0  0  0  0  0  0  0  0  0  0
   -1.9706    2.7096   -0.9358 N   0  0  0  0  0  0  0  0  0  0  0  0
   -3.1972    3.2065   -1.1520 C   0  0  0  0  0  0  0  0  0  0  0  0
   -3.4695    3.8170   -2.0038 H   0  0  0  0  0  0  0  0  0  0  0  0
   -4.0351    2.8319   -0.1708 N   0  0  0  0  0  0  0  0  0  0  0  0
   -5.0176    3.0636   -0.1185 H   0  0  0  0  0  0  0  0  0  0  0  0
   -3.3284    2.0693    0.7323 C   0  0  0  0  0  0  0  0  0  0  0  0
   -3.7023    1.5894    1.6280 H   0  0  0  0  0  0  0  0  0  0  0  0
    0.6131   -0.8144    0.7402 C   0  0  0  0  0  0  0  0  0  0  0  0
    0.8504   -1.9818    0.4301 O   0  0  0  0  0  0  0  0  0  0  0  0
    1.4230   -0.1065    1.5337 N   0  0  0  0  0  0  0  0  0  0  0  0
    1.0979    0.8093    1.8228 H   0  0  0  0  0  0  0  0  0  0  0  0
    2.6644   -0.6078    2.1188 C   0  0  0  0  0  0  0  0  0  0  0  0
    3.1631   -1.2835    1.4192 H   0  0  0  0  0  0  0  0  0  0  0  0
    3.3303    0.2257    2.3462 H   0  0  0  0  0  0  0  0  0  0  0  0
    2.4411   -1.1536    3.0370 H   0  0  0  0  0  0  0  0  0  0  0  0
  5  6  2  0  0  0  0
  5  7  1  0  0  0  0
  2  3  1  0  0  0  0
  2  4  1  0  0  0  0
  2  5  1  0  0  0  0
  1  2  1  0  0  0  0
 22 23  2  0  0  0  0
 22 24  1  0  0  0  0
 20 21  1  0  0  0  0
 18 19  1  0  0  0  0
 18 20  1  0  0  0  0
 16 17  1  0  0  0  0
 16 18  1  0  0  0  0
 15 16  2  0  0  0  0
 14 15  1  0  0  0  0
 14 20  2  0  0  0  0
 11 12  1  0  0  0  0
 11 13  1  0  0  0  0
 11 14  1  0  0  0  0
  9 10  1  0  0  0  0
  9 11  1  0  0  0  0
  9 22  1  0  0  0  0
  7  8  1  0  0  0  0
  7  9  1  0  0  0  0
 26 27  1  0  0  0  0
 26 28  1  0  0  0  0
 26 29  1  0  0  0  0
 24 25  1  0  0  0  0
 24 26  1  0  0  0  0
M  END
$$$$
default_name
  -OEChem-01062215323D

 29 29  0     1  0  0  0  0  0999 V2000
   -2.9561   -3.9186    1.3887 H   0  0  0  0  0  0  0  0  0  0  0  0
   -3.1191   -2.9346    0.9517 C   0  0  0  0  0  0  0  0  0  0  0  0
   -3.7811   -2.3546    1.5917 H   0  0  0  0  0  0  0  0  0  0  0  0
   -3.5591   -3.0406   -0.0383 H   0  0  0  0  0  0  0  0  0  0  0  0
   -1.7921   -2.2226    0.8327 C   0  0  0  0  0  0  0  0  0  0  0  0
   -0.7611   -2.7766    1.1927 O   0  0  0  0  0  0  0  0  0  0  0  0
   -1.8201   -0.9926    0.3247 N   0  0  0  0  0  0  0  0  0  0  0  0
   -2.7141   -0.5816    0.0927 H   0  0  0  0  0  0  0  0  0  0  0  0
   -0.6481   -0.1156    0.2017 C   0  0  1  0  0  0  0  0  0  0  0  0
   -0.4827    0.0849   -0.8588 H   0  0  0  0  0  0  0  0  0  0  0  0
   -0.9259    1.2256    0.9080 C   0  0  0  0  0  0  0  0  0  0  0  0
   -1.2089    1.0446    1.9460 H   0  0  0  0  0  0  0  0  0  0  0  0
   -0.0198    1.8331    0.9160 H   0  0  0  0  0  0  0  0  0  0  0  0
   -2.0477    2.0053    0.2664 C   0  0  0  0  0  0  0  0  0  0  0  0
   -1.9706    2.7096   -0.9358 N   0  0  0  0  0  0  0  0  0  0  0  0
   -3.1972    3.2065   -1.1520 C   0  0  0  0  0  0  0  0  0  0  0  0
   -3.4695    3.8170   -2.0038 H   0  0  0  0  0  0  0  0  0  0  0  0
   -4.0351    2.8319   -0.1708 N   0  0  0  0  0  0  0  0  0  0  0  0
   -5.0176    3.0636   -0.1185 H   0  0  0  0  0  0  0  0  0  0  0  0
   -3.3284    2.0693    0.7323 C   0  0  0  0  0  0  0  0  0  0  0  0
   -3.7023    1.5894    1.6280 H   0  0  0  0  0  0  0  0  0  0  0  0
    0.6131   -0.8144    0.7402 C   0  0  0  0  0  0  0  0  0  0  0  0
    1.0017   -1.8643    0.2283 O   0  0  0  0  0  0  0  0  0  0  0  0
    1.2554   -0.2351    1.7594 N   0  0  0  0  0  0  0  0  0  0  0  0
    0.8083    0.5677    2.1877 H   0  0  0  0  0  0  0  0  0  0  0  0
    2.4715   -0.7535    2.3813 C   0  0  0  0  0  0  0  0  0  0  0  0
    3.1099   -1.2198    1.6265 H   0  0  0  0  0  0  0  0  0  0  0  0
    3.0195    0.0599    2.8590 H   0  0  0  0  0  0  0  0  0  0  0  0
    2.2082   -1.5015    3.1309 H   0  0  0  0  0  0  0  0  0  0  0  0
  5  6  2  0  0  0  0
  5  7  1  0  0  0  0
  2  3  1  0  0  0  0
  2  4  1  0  0  0  0
  2  5  1  0  0  0  0
  1  2  1  0  0  0  0
 22 23  2  0  0  0  0
 22 24  1  0  0  0  0
 20 21  1  0  0  0  0
 18 19  1  0  0  0  0
 18 20  1  0  0  0  0
 16 17  1  0  0  0  0
 16 18  1  0  0  0  0
 15 16  2  0  0  0  0
 14 15  1  0  0  0  0
 14 20  2  0  0  0  0
 11 12  1  0  0  0  0
 11 13  1  0  0  0  0
 11 14  1  0  0  0  0
  9 10  1  0  0  0  0
  9 11  1  0  0  0  0
  9 22  1  0  0  0  0
  7  8  1  0  0  0  0
  7  9  1  0  0  0  0
 26 27  1  0  0  0  0
 26 28  1  0  0  0  0
 26 29  1  0  0  0  0
 24 25  1  0  0  0  0
 24 26  1  0  0  0  0
M  END
$$$$
default_name
  -OEChem-01062215323D

 29 29  0     1  0  0  0  0  0999 V2000
   -2.9561   -3.9186    1.3887 H   0  0  0  0  0  0  0  0  0  0  0  0
   -3.1191   -2.9346    0.9517 C   0  0  0  0  0  0  0  0  0  0  0  0
   -3.7811   -2.3546    1.5917 H   0  0  0  0  0  0  0  0  0  0  0  0
   -3.5591   -3.0406   -0.0383 H   0  0  0  0  0  0  0  0  0  0  0  0
   -1.7921   -2.2226    0.8327 C   0  0  0  0  0  0  0  0  0  0  0  0
   -0.7611   -2.7766    1.1927 O   0  0  0  0  0  0  0  0  0  0  0  0
   -1.8201   -0.9926    0.3247 N   0  0  0  0  0  0  0  0  0  0  0  0
   -2.7141   -0.5816    0.0927 H   0  0  0  0  0  0  0  0  0  0  0  0
   -0.6481   -0.1156    0.2017 C   0  0  1  0  0  0  0  0  0  0  0  0
   -0.4827    0.0849   -0.8588 H   0  0  0  0  0  0  0  0  0  0  0  0
   -0.9259    1.2256    0.9080 C   0  0  0  0  0  0  0  0  0  0  0  0
   -1.2089    1.0446    1.9460 H   0  0  0  0  0  0  0  0  0  0  0  0
   -0.0198    1.8331    0.9160 H   0  0  0  0  0  0  0  0  0  0  0  0
   -2.0477    2.0053    0.2664 C   0  0  0  0  0  0  0  0  0  0  0  0
   -1.9706    2.7096   -0.9358 N   0  0  0  0  0  0  0  0  0  0  0  0
   -3.1972    3.2065   -1.1520 C   0  0  0  0  0  0  0  0  0  0  0  0
   -3.4695    3.8170   -2.0038 H   0  0  0  0  0  0  0  0  0  0  0  0
   -4.0351    2.8319   -0.1708 N   0  0  0  0  0  0  0  0  0  0  0  0
   -5.0176    3.0636   -0.1185 H   0  0  0  0  0  0  0  0  0  0  0  0
   -3.3284    2.0693    0.7323 C   0  0  0  0  0  0  0  0  0  0  0  0
   -3.7023    1.5894    1.6280 H   0  0  0  0  0  0  0  0  0  0  0  0
    0.6131   -0.8144    0.7402 C   0  0  0  0  0  0  0  0  0  0  0  0
    1.1608   -1.6943    0.0761 O   0  0  0  0  0  0  0  0  0  0  0  0
    1.0786   -0.4224    1.9304 N   0  0  0  0  0  0  0  0  0  0  0  0
    0.5074    0.2307    2.4549 H   0  0  0  0  0  0  0  0  0  0  0  0
    2.2676   -0.9673    2.5814 C   0  0  0  0  0  0  0  0  0  0  0  0
    3.0283   -1.2072    1.8340 H   0  0  0  0  0  0  0  0  0  0  0  0
    2.6740   -0.2371    3.2827 H   0  0  0  0  0  0  0  0  0  0  0  0
    2.0037   -1.8787    3.1204 H   0  0  0  0  0  0  0  0  0  0  0  0
  5  6  2  0  0  0  0
  5  7  1  0  0  0  0
  2  3  1  0  0  0  0
  2  4  1  0  0  0  0
  2  5  1  0  0  0  0
  1  2  1  0  0  0  0
 22 23  2  0  0  0  0
 22 24  1  0  0  0  0
 20 21  1  0  0  0  0
 18 19  1  0  0  0  0
 18 20  1  0  0  0  0
 16 17  1  0  0  0  0
 16 18  1  0  0  0  0
 15 16  2  0  0  0  0
 14 15  1  0  0  0  0
 14 20  2  0  0  0  0
 11 12  1  0  0  0  0
 11 13  1  0  0  0  0
 11 14  1  0  0  0  0
  9 10  1  0  0  0  0
  9 11  1  0  0  0  0
  9 22  1  0  0  0  0
  7  8  1  0  0  0  0
  7  9  1  0  0  0  0
 26 27  1  0  0  0  0
 26 28  1  0  0  0  0
 26 29  1  0  0  0  0
 24 25  1  0  0  0  0
 24 26  1  0  0  0  0
M  END
$$$$
default_name
  -OEChem-01062215323D

 29 29  0     1  0  0  0  0  0999 V2000
   -2.9561   -3.9186    1.3887 H   0  0  0  0  0  0  0  0  0  0  0  0
   -3.1191   -2.9346    0.9517 C   0  0  0  0  0  0  0  0  0  0  0  0
   -3.7811   -2.3546    1.5917 H   0  0  0  0  0  0  0  0  0  0  0  0
   -3.5591   -3.0406   -0.0383 H   0  0  0  0  0  0  0  0  0  0  0  0
   -1.7921   -2.2226    0.8327 C   0  0  0  0  0  0  0  0  0  0  0  0
   -0.7611   -2.7766    1.1927 O   0  0  0  0  0  0  0  0  0  0  0  0
   -1.8201   -0.9926    0.3247 N   0  0  0  0  0  0  0  0  0  0  0  0
   -2.7141   -0.5816    0.0927 H   0  0  0  0  0  0  0  0  0  0  0  0
   -0.6481   -0.1156    0.2017 C   0  0  1  0  0  0  0  0  0  0  0  0
   -0.4827    0.0849   -0.8588 H   0  0  0  0  0  0  0  0  0  0  0  0
   -0.9259    1.2256    0.9080 C   0  0  0  0  0  0  0  0  0  0  0  0
   -1.2089    1.0446    1.9460 H   0  0  0  0  0  0  0  0  0  0  0  0
   -0.0198    1.8331    0.9160 H   0  0  0  0  0  0  0  0  0  0  0  0
   -2.0477    2.0053    0.2664 C   0  0  0  0  0  0  0  0  0  0  0  0
   -1.9706    2.7096   -0.9358 N   0  0  0  0  0  0  0  0  0  0  0  0
   -3.1972    3.2065   -1.1520 C   0  0  0  0  0  0  0  0  0  0  0  0
   -3.4695    3.8170   -2.0038 H   0  0  0  0  0  0  0  0  0  0  0  0
   -4.0351    2.8319   -0.1708 N   0  0  0  0  0  0  0  0  0  0  0  0
   -5.0176    3.0636   -0.1185 H   0  0  0  0  0  0  0  0  0  0  0  0
   -3.3284    2.0693    0.7323 C   0  0  0  0  0  0  0  0  0  0  0  0
   -3.7023    1.5894    1.6280 H   0  0  0  0  0  0  0  0  0  0  0  0
    0.6131   -0.8144    0.7402 C   0  0  0  0  0  0  0  0  0  0  0  0
    1.3171   -1.4834   -0.0162 O   0  0  0  0  0  0  0  0  0  0  0  0
    0.9047   -0.6556    2.0350 N   0  0  0  0  0  0  0  0  0  0  0  0
    0.2160   -0.1787    2.6062 H   0  0  0  0  0  0  0  0  0  0  0  0
    2.0665   -1.2348    2.7053 C   0  0  0  0  0  0  0  0  0  0  0  0
    2.9239   -1.2463    2.0275 H   0  0  0  0  0  0  0  0  0  0  0  0
    2.3174   -0.6452    3.5883 H   0  0  0  0  0  0  0  0  0  0  0  0
    1.8415   -2.2593    3.0063 H   0  0  0  0  0  0  0  0  0  0  0  0
  5  6  2  0  0  0  0
  5  7  1  0  0  0  0
  2  3  1  0  0  0  0
  2  4  1  0  0  0  0
  2  5  1  0  0  0  0
  1  2  1  0  0  0  0
 22 23  2  0  0  0  0
 22 24  1  0  0  0  0
 20 21  1  0  0  0  0
 18 19  1  0  0  0  0
 18 20  1  0  0  0  0
 16 17  1  0  0  0  0
 16 18  1  0  0  0  0
 15 16  2  0  0  0  0
 14 15  1  0  0  0  0
 14 20  2  0  0  0  0
 11 12  1  0  0  0  0
 11 13  1  0  0  0  0
 11 14  1  0  0  0  0
  9 10  1  0  0  0  0
  9 11  1  0  0  0  0
  9 22  1  0  0  0  0
  7  8  1  0  0  0  0
  7  9  1  0  0  0  0
 26 27  1  0  0  0  0
 26 28  1  0  0  0  0
 26 29  1  0  0  0  0
 24 25  1  0  0  0  0
 24 26  1  0  0  0  0
M  END
$$$$
default_name
  -OEChem-01062215323D

 29 29  0     1  0  0  0  0  0999 V2000
   -2.9561   -3.9186    1.3887 H   0  0  0  0  0  0  0  0  0  0  0  0
   -3.1191   -2.9346    0.9517 C   0  0  0  0  0  0  0  0  0  0  0  0
   -3.7811   -2.3546    1.5917 H   0  0  0  0  0  0  0  0  0  0  0  0
   -3.5591   -3.0406   -0.0383 H   0  0  0  0  0  0  0  0  0  0  0  0
   -1.7921   -2.2226    0.8327 C   0  0  0  0  0  0  0  0  0  0  0  0
   -0.7611   -2.7766    1.1927 O   0  0  0  0  0  0  0  0  0  0  0  0
   -1.8201   -0.9926    0.3247 N   0  0  0  0  0  0  0  0  0  0  0  0
   -2.7141   -0.5816    0.0927 H   0  0  0  0  0  0  0  0  0  0  0  0
   -0.6481   -0.1156    0.2017 C   0  0  1  0  0  0  0  0  0  0  0  0
   -0.4827    0.0849   -0.8588 H   0  0  0  0  0  0  0  0  0  0  0  0
   -0.9259    1.2256    0.9080 C   0  0  0  0  0  0  0  0  0  0  0  0
   -1.2089    1.0446    1.9460 H   0  0  0  0  0  0  0  0  0  0  0  0
   -0.0198    1.8331    0.9160 H   0  0  0  0  0  0  0  0  0  0  0  0
   -2.0477    2.0053    0.2664 C   0  0  0  0  0  0  0  0  0  0  0  0
   -1.9706    2.7096   -0.9358 N   0  0  0  0  0  0  0  0  0  0  0  0
   -3.1972    3.2065   -1.1520 C   0  0  0  0  0  0  0  0  0  0  0  0
   -3.4695    3.8170   -2.0038 H   0  0  0  0  0  0  0  0  0  0  0  0
   -4.0351    2.8319   -0.1708 N   0  0  0  0  0  0  0  0  0  0  0  0
   -5.0176    3.0636   -0.1185 H   0  0  0  0  0  0  0  0  0  0  0  0
   -3.3284    2.0693    0.7323 C   0  0  0  0  0  0  0  0  0  0  0  0
   -3.7023    1.5894    1.6280 H   0  0  0  0  0  0  0  0  0  0  0  0
    0.6131   -0.8144    0.7402 C   0  0  0  0  0  0  0  0  0  0  0  0
    1.4598   -1.2460   -0.0422 O   0  0  0  0  0  0  0  0  0  0  0  0
    0.7455   -0.9188    2.0663 N   0  0  0  0  0  0  0  0  0  0  0  0
   -0.0462   -0.6327    2.6312 H   0  0  0  0  0  0  0  0  0  0  0  0
    1.8819   -1.5376    2.7447 C   0  0  0  0  0  0  0  0  0  0  0  0
    2.8040   -1.3347    2.1939 H   0  0  0  0  0  0  0  0  0  0  0  0
    1.9740   -1.1365    3.7550 H   0  0  0  0  0  0  0  0  0  0  0  0
    1.7328   -2.6174    2.7963 H   0  0  0  0  0  0  0  0  0  0  0  0
  5  6  2  0  0  0  0
  5  7  1  0  0  0  0
  2  3  1  0  0  0  0
  2  4  1  0  0  0  0
  2  5  1  0  0  0  0
  1  2  1  0  0  0  0
 22 23  2  0  0  0  0
 22 24  1  0  0  0  0
 20 21  1  0  0  0  0
 18 19  1  0  0  0  0
 18 20  1  0  0  0  0
 16 17  1  0  0  0  0
 16 18  1  0  0  0  0
 15 16  2  0  0  0  0
 14 15  1  0  0  0  0
 14 20  2  0  0  0  0
 11 12  1  0  0  0  0
 11 13  1  0  0  0  0
 11 14  1  0  0  0  0
  9 10  1  0  0  0  0
  9 11  1  0  0  0  0
  9 22  1  0  0  0  0
  7  8  1  0  0  0  0
  7  9  1  0  0  0  0
 26 27  1  0  0  0  0
 26 28  1  0  0  0  0
 26 29  1  0  0  0  0
 24 25  1  0  0  0  0
 24 26  1  0  0  0  0
M  END
$$$$
default_name
  -OEChem-01062215323D

 29 29  0     1  0  0  0  0  0999 V2000
   -2.9561   -3.9186    1.3887 H   0  0  0  0  0  0  0  0  0  0  0  0
   -3.1191   -2.9346    0.9517 C   0  0  0  0  0  0  0  0  0  0  0  0
   -3.7811   -2.3546    1.5917 H   0  0  0  0  0  0  0  0  0  0  0  0
   -3.5591   -3.0406   -0.0383 H   0  0  0  0  0  0  0  0  0  0  0  0
   -1.7921   -2.2226    0.8327 C   0  0  0  0  0  0  0  0  0  0  0  0
   -0.7611   -2.7766    1.1927 O   0  0  0  0  0  0  0  0  0  0  0  0
   -1.8201   -0.9926    0.3247 N   0  0  0  0  0  0  0  0  0  0  0  0
   -2.7141   -0.5816    0.0927 H   0  0  0  0  0  0  0  0  0  0  0  0
   -0.6481   -0.1156    0.2017 C   0  0  1  0  0  0  0  0  0  0  0  0
   -0.4827    0.0849   -0.8588 H   0  0  0  0  0  0  0  0  0  0  0  0
   -0.9259    1.2256    0.9080 C   0  0  0  0  0  0  0  0  0  0  0  0
   -1.2089    1.0446    1.9460 H   0  0  0  0  0  0  0  0  0  0  0  0
   -0.0198    1.8331    0.9160 H   0  0  0  0  0  0  0  0  0  0  0  0
   -2.0477    2.0053    0.2664 C   0  0  0  0  0  0  0  0  0  0  0  0
   -1.9706    2.7096   -0.9358 N   0  0  0  0  0  0  0  0  0  0  0  0
   -3.1972    3.2065   -1.1520 C   0  0  0  0  0  0  0  0  0  0  0  0
   -3.4695    3.8170   -2.0038 H   0  0  0  0  0  0  0  0  0  0  0  0
   -4.0351    2.8319   -0.1708 N   0  0  0  0  0  0  0  0  0  0  0  0
   -5.0176    3.0636   -0.1185 H   0  0  0  0  0  0  0  0  0  0  0  0
   -3.3284    2.0693    0.7323 C   0  0  0  0  0  0  0  0  0  0  0  0
   -3.7023    1.5894    1.6280 H   0  0  0  0  0  0  0  0  0  0  0  0
    0.6131   -0.8144    0.7402 C   0  0  0  0  0  0  0  0  0  0  0  0
    1.5792   -0.9982   -0.0002 O   0  0  0  0  0  0  0  0  0  0  0  0
    0.6120   -1.1941    2.0219 N   0  0  0  0  0  0  0  0  0  0  0  0
   -0.2614   -1.1002    2.5283 H   0  0  0  0  0  0  0  0  0  0  0  0
    1.7264   -1.8552    2.6968 C   0  0  0  0  0  0  0  0  0  0  0  0
    2.6765   -1.4661    2.3218 H   0  0  0  0  0  0  0  0  0  0  0  0
    1.6672   -1.6775    3.7715 H   0  0  0  0  0  0  0  0  0  0  0  0
    1.6849   -2.9286    2.5047 H   0  0  0  0  0  0  0  0  0  0  0  0
  5  6  2  0  0  0  0
  5  7  1  0  0  0  0
  2  3  1  0  0  0  0
  2  4  1  0  0  0  0
  2  5  1  0  0  0  0
  1  2  1  0  0  0  0
 22 23  2  0  0  0  0
 22 24  1  0  0  0  0
 20 21  1  0  0  0  0
 18 19  1  0  0  0  0
 18 20  1  0  0  0  0
 16 17  1  0  0  0  0
 16 18  1  0  0  0  0
 15 16  2  0  0  0  0
 14 15  1  0  0  0  0
 14 20  2  0  0  0  0
 11 12  1  0  0  0  0
 11 13  1  0  0  0  0
 11 14  1  0  0  0  0
  9 10  1  0  0  0  0
  9 11  1  0  0  0  0
  9 22  1  0  0  0  0
  7  8  1  0  0  0  0
  7  9  1  0  0  0  0
 26 27  1  0  0  0  0
 26 28  1  0  0  0  0
 26 29  1  0  0  0  0
 24 25  1  0  0  0  0
 24 26  1  0  0  0  0
M  END
$$$$
default_name
  -OEChem-01062215323D

 29 29  0     1  0  0  0  0  0999 V2000
   -2.9561   -3.9186    1.3887 H   0  0  0  0  0  0  0  0  0  0  0  0
   -3.1191   -2.9346    0.9517 C   0  0  0  0  0  0  0  0  0  0  0  0
   -3.7811   -2.3546    1.5917 H   0  0  0  0  0  0  0  0  0  0  0  0
   -3.5591   -3.0406   -0.0383 H   0  0  0  0  0  0  0  0  0  0  0  0
   -1.7921   -2.2226    0.8327 C   0  0  0  0  0  0  0  0  0  0  0  0
   -0.7611   -2.7766    1.1927 O   0  0  0  0  0  0  0  0  0  0  0  0
   -1.8201   -0.9926    0.3247 N   0  0  0  0  0  0  0  0  0  0  0  0
   -2.7141   -0.5816    0.0927 H   0  0  0  0  0  0  0  0  0  0  0  0
   -0.6481   -0.1156    0.2017 C   0  0  1  0  0  0  0  0  0  0  0  0
   -0.4827    0.0849   -0.8588 H   0  0  0  0  0  0  0  0  0  0  0  0
   -0.9259    1.2256    0.9080 C   0  0  0  0  0  0  0  0  0  0  0  0
   -1.2089    1.0446    1.9460 H   0  0  0  0  0  0  0  0  0  0  0  0
   -0.0198    1.8331    0.9160 H   0  0  0  0  0  0  0  0  0  0  0  0
   -2.0477    2.0053    0.2664 C   0  0  0  0  0  0  0  0  0  0  0  0
   -1.9706    2.7096   -0.9358 N   0  0  0  0  0  0  0  0  0  0  0  0
   -3.1972    3.2065   -1.1520 C   0  0  0  0  0  0  0  0  0  0  0  0
   -3.4695    3.8170   -2.0038 H   0  0  0  0  0  0  0  0  0  0  0  0
   -4.0351    2.8319   -0.1708 N   0  0  0  0  0  0  0  0  0  0  0  0
   -5.0176    3.0636   -0.1185 H   0  0  0  0  0  0  0  0  0  0  0  0
   -3.3284    2.0693    0.7323 C   0  0  0  0  0  0  0  0  0  0  0  0
   -3.7023    1.5894    1.6280 H   0  0  0  0  0  0  0  0  0  0  0  0
    0.6131   -0.8144    0.7402 C   0  0  0  0  0  0  0  0  0  0  0  0
    1.6671   -0.7570    0.1069 O   0  0  0  0  0  0  0  0  0  0  0  0
    0.5131   -1.4626    1.9050 N   0  0  0  0  0  0  0  0  0  0  0  0
   -0.4147   -1.5495    2.3045 H   0  0  0  0  0  0  0  0  0  0  0  0
    1.6106   -2.1659    2.5649 C   0  0  0  0  0  0  0  0  0  0  0  0
    2.5503   -1.6318    2.4024 H   0  0  0  0  0  0  0  0  0  0  0  0
    1.4179   -2.2313    3.6367 H   0  0  0  0  0  0  0  0  0  0  0  0
    1.7010   -3.1717    2.1514 H   0  0  0  0  0  0  0  0  0  0  0  0
  5  6  2  0  0  0  0
  5  7  1  0  0  0  0
  2  3  1  0  0  0  0
  2  4  1  0  0  0  0
  2  5  1  0  0  0  0
  1  2  1  0  0  0  0
 22 23  2  0  0  0  0
 22 24  1  0  0  0  0
 20 21  1  0  0  0  0
 18 19  1  0  0  0  0
 18 20  1  0  0  0  0
 16 17  1  0  0  0  0
 16 18  1  0  0  0  0
 15 16  2  0  0  0  0
 14 15  1  0  0  0  0
 14 20  2  0  0  0  0
 11 12  1  0  0  0  0
 11 13  1  0  0  0  0
 11 14  1  0  0  0  0
  9 10  1  0  0  0  0
  9 11  1  0  0  0  0
  9 22  1  0  0  0  0
  7  8  1  0  0  0  0
  7  9  1  0  0  0  0
 26 27  1  0  0  0  0
 26 28  1  0  0  0  0
 26 29  1  0  0  0  0
 24 25  1  0  0  0  0
 24 26  1  0  0  0  0
M  END
$$$$
default_name
  -OEChem-01062215323D

 29 29  0     1  0  0  0  0  0999 V2000
   -2.9561   -3.9186    1.3887 H   0  0  0  0  0  0  0  0  0  0  0  0
   -3.1191   -2.9346    0.9517 C   0  0  0  0  0  0  0  0  0  0  0  0
   -3.7811   -2.3546    1.5917 H   0  0  0  0  0  0  0  0  0  0  0  0
   -3.5591   -3.0406   -0.0383 H   0  0  0  0  0  0  0  0  0  0  0  0
   -1.7921   -2.2226    0.8327 C   0  0  0  0  0  0  0  0  0  0  0  0
   -0.7611   -2.7766    1.1927 O   0  0  0  0  0  0  0  0  0  0  0  0
   -1.8201   -0.9926    0.3247 N   0  0  0  0  0  0  0  0  0  0  0  0
   -2.7141   -0.5816    0.0927 H   0  0  0  0  0  0  0  0  0  0  0  0
   -0.6481   -0.1156    0.2017 C   0  0  1  0  0  0  0  0  0  0  0  0
   -0.4827    0.0849   -0.8588 H   0  0  0  0  0  0  0  0  0  0  0  0
   -0.9259    1.2256    0.9080 C   0  0  0  0  0  0  0  0  0  0  0  0
   -1.2089    1.0446    1.9460 H   0  0  0  0  0  0  0  0  0  0  0  0
   -0.0198    1.8331    0.9160 H   0  0  0  0  0  0  0  0  0  0  0  0
   -2.0477    2.0053    0.2664 C   0  0  0  0  0  0  0  0  0  0  0  0
   -1.9706    2.7096   -0.9358 N   0  0  0  0  0  0  0  0  0  0  0  0
   -3.1972    3.2065   -1.1520 C   0  0  0  0  0  0  0  0  0  0  0  0
   -3.4695    3.8170   -2.0038 H   0  0  0  0  0  0  0  0  0  0  0  0
   -4.0351    2.8319   -0.1708 N   0  0  0  0  0  0  0  0  0  0  0  0
   -5.0176    3.0636   -0.1185 H   0  0  0  0  0  0  0  0  0  0  0  0
   -3.3284    2.0693    0.7323 C   0  0  0  0  0  0  0  0  0  0  0  0
   -3.7023    1.5894    1.6280 H   0  0  0  0  0  0  0  0  0  0  0  0
    0.6131   -0.8144    0.7402 C   0  0  0  0  0  0  0  0  0  0  0  0
    1.7176   -0.5387    0.2718 O   0  0  0  0  0  0  0  0  0  0  0  0
    0.4556   -1.7062    1.7234 N   0  0  0  0  0  0  0  0  0  0  0  0
   -0.4959   -1.9499    1.9750 H   0  0  0  0  0  0  0  0  0  0  0  0
    1.5423   -2.4485    2.3580 C   0  0  0  0  0  0  0  0  0  0  0  0
    2.4339   -1.8203    2.4304 H   0  0  0  0  0  0  0  0  0  0  0  0
    1.2431   -2.7603    3.3597 H   0  0  0  0  0  0  0  0  0  0  0  0
    1.7801   -3.3301    1.7605 H   0  0  0  0  0  0  0  0  0  0  0  0
  5  6  2  0  0  0  0
  5  7  1  0  0  0  0
  2  3  1  0  0  0  0
  2  4  1  0  0  0  0
  2  5  1  0  0  0  0
  1  2  1  0  0  0  0
 22 23  2  0  0  0  0
 22 24  1  0  0  0  0
 20 21  1  0  0  0  0
 18 19  1  0  0  0  0
 18 20  1  0  0  0  0
 16 17  1  0  0  0  0
 16 18  1  0  0  0  0
 15 16  2  0  0  0  0
 14 15  1  0  0  0  0
 14 20  2  0  0  0  0
 11 12  1  0  0  0  0
 11 13  1  0  0  0  0
 11 14  1  0  0  0  0
  9 10  1  0  0  0  0
  9 11  1  0  0  0  0
  9 22  1  0  0  0  0
  7  8  1  0  0  0  0
  7  9  1  0  0  0  0
 26 27  1  0  0  0  0
 26 28  1  0  0  0  0
 26 29  1  0  0  0  0
 24 25  1  0  0  0  0
 24 26  1  0  0  0  0
M  END
$$$$
default_name
  -OEChem-01062215323D

 29 29  0     1  0  0  0  0  0999 V2000
   -2.9561   -3.9186    1.3887 H   0  0  0  0  0  0  0  0  0  0  0  0
   -3.1191   -2.9346    0.9517 C   0  0  0  0  0  0  0  0  0  0  0  0
   -3.7811   -2.3546    1.5917 H   0  0  0  0  0  0  0  0  0  0  0  0
   -3.5591   -3.0406   -0.0383 H   0  0  0  0  0  0  0  0  0  0  0  0
   -1.7921   -2.2226    0.8327 C   0  0  0  0  0  0  0  0  0  0  0  0
   -0.7611   -2.7766    1.1927 O   0  0  0  0  0  0  0  0  0  0  0  0
   -1.8201   -0.9926    0.3247 N   0  0  0  0  0  0  0  0  0  0  0  0
   -2.7141   -0.5816    0.0927 H   0  0  0  0  0  0  0  0  0  0  0  0
   -0.6481   -0.1156    0.2017 C   0  0  1  0  0  0  0  0  0  0  0  0
   -0.4827    0.0849   -0.8588 H   0  0  0  0  0  0  0  0  0  0  0  0
   -0.9259    1.2256    0.9080 C   0  0  0  0  0  0  0  0  0  0  0  0
   -1.2089    1.0446    1.9460 H   0  0  0  0  0  0  0  0  0  0  0  0
   -0.0198    1.8331    0.9160 H   0  0  0  0  0  0  0  0  0  0  0  0
   -2.0477    2.0053    0.2664 C   0  0  0  0  0  0  0  0  0  0  0  0
   -1.9706    2.7096   -0.9358 N   0  0  0  0  0  0  0  0  0  0  0  0
   -3.1972    3.2065   -1.1520 C   0  0  0  0  0  0  0  0  0  0  0  0
   -3.4695    3.8170   -2.0038 H   0  0  0  0  0  0  0  0  0  0  0  0
   -4.0351    2.8319   -0.1708 N   0  0  0  0  0  0  0  0  0  0  0  0
   -5.0176    3.0636   -0.1185 H   0  0  0  0  0  0  0  0  0  0  0  0
   -3.3284    2.0693    0.7323 C   0  0  0  0  0  0  0  0  0  0  0  0
   -3.7023    1.5894    1.6280 H   0  0  0  0  0  0  0  0  0  0  0  0
    0.6131   -0.8144    0.7402 C   0  0  0  0  0  0  0  0  0  0  0  0
    1.7272   -0.3583    0.4834 O   0  0  0  0  0  0  0  0  0  0  0  0
    0.4435   -1.9082    1.4897 N   0  0  0  0  0  0  0  0  0  0  0  0
   -0.4993   -2.2741    1.5622 H   0  0  0  0  0  0  0  0  0  0  0  0
    1.5263   -2.6837    2.0902 C   0  0  0  0  0  0  0  0  0  0  0  0
    2.3353   -2.0189    2.4037 H   0  0  0  0  0  0  0  0  0  0  0  0
    1.1547   -3.2283    2.9594 H   0  0  0  0  0  0  0  0  0  0  0  0
    1.9168   -3.3931    1.3586 H   0  0  0  0  0  0  0  0  0  0  0  0
  5  6  2  0  0  0  0
  5  7  1  0  0  0  0
  2  3  1  0  0  0  0
  2  4  1  0  0  0  0
  2  5  1  0  0  0  0
  1  2  1  0  0  0  0
 22 23  2  0  0  0  0
 22 24  1  0  0  0  0
 20 21  1  0  0  0  0
 18 19  1  0  0  0  0
 18 20  1  0  0  0  0
 16 17  1  0  0  0  0
 16 18  1  0  0  0  0
 15 16  2  0  0  0  0
 14 15  1  0  0  0  0
 14 20  2  0  0  0  0
 11 12  1  0  0  0  0
 11 13  1  0  0  0  0
 11 14  1  0  0  0  0
  9 10  1  0  0  0  0
  9 11  1  0  0  0  0
  9 22  1  0  0  0  0
  7  8  1  0  0  0  0
  7  9  1  0  0  0  0
 26 27  1  0  0  0  0
 26 28  1  0  0  0  0
 26 29  1  0  0  0  0
 24 25  1  0  0  0  0
 24 26  1  0  0  0  0
M  END
$$$$
default_name
  -OEChem-01062215323D

 29 29  0     1  0  0  0  0  0999 V2000
   -2.9561   -3.9186    1.3887 H   0  0  0  0  0  0  0  0  0  0  0  0
   -3.1191   -2.9346    0.9517 C   0  0  0  0  0  0  0  0  0  0  0  0
   -3.7811   -2.3546    1.5917 H   0  0  0  0  0  0  0  0  0  0  0  0
   -3.5591   -3.0406   -0.0383 H   0  0  0  0  0  0  0  0  0  0  0  0
   -1.7921   -2.2226    0.8327 C   0  0  0  0  0  0  0  0  0  0  0  0
   -0.7611   -2.7766    1.1927 O   0  0  0  0  0  0  0  0  0  0  0  0
   -1.8201   -0.9926    0.3247 N   0  0  0  0  0  0  0  0  0  0  0  0
   -2.7141   -0.5816    0.0927 H   0  0  0  0  0  0  0  0  0  0  0  0
   -0.6481   -0.1156    0.2017 C   0  0  1  0  0  0  0  0  0  0  0  0
   -0.4827    0.0849   -0.8588 H   0  0  0  0  0  0  0  0  0  0  0  0
   -0.9259    1.2256    0.9080 C   0  0  0  0  0  0  0  0  0  0  0  0
   -1.2089    1.0446    1.9460 H   0  0  0  0  0  0  0  0  0  0  0  0
   -0.0198    1.8331    0.9160 H   0  0  0  0  0  0  0  0  0  0  0  0
   -2.0477    2.0053    0.2664 C   0  0  0  0  0  0  0  0  0  0  0  0
   -1.9706    2.7096   -0.9358 N   0  0  0  0  0  0  0  0  0  0  0  0
   -3.1972    3.2065   -1.1520 C   0  0  0  0  0  0  0  0  0  0  0  0
   -3.4695    3.8170   -2.0038 H   0  0  0  0  0  0  0  0  0  0  0  0
   -4.0351    2.8319   -0.1708 N   0  0  0  0  0  0  0  0  0  0  0  0
   -5.0176    3.0636   -0.1185 H   0  0  0  0  0  0  0  0  0  0  0  0
   -3.3284    2.0693    0.7323 C   0  0  0  0  0  0  0  0  0  0  0  0
   -3.7023    1.5894    1.6280 H   0  0  0  0  0  0  0  0  0  0  0  0
    0.6131   -0.8144    0.7402 C   0  0  0  0  0  0  0  0  0  0  0  0
    1.6953   -0.2280    0.7272 O   0  0  0  0  0  0  0  0  0  0  0  0
    0.4776   -2.0548    1.2197 N   0  0  0  0  0  0  0  0  0  0  0  0
   -0.4247   -2.5000    1.0944 H   0  0  0  0  0  0  0  0  0  0  0  0
    1.5636   -2.8557    1.7797 C   0  0  0  0  0  0  0  0  0  0  0  0
    2.2611   -2.2140    2.3242 H   0  0  0  0  0  0  0  0  0  0  0  0
    1.1587   -3.6034    2.4631 H   0  0  0  0  0  0  0  0  0  0  0  0
    2.1018   -3.3563    0.9732 H   0  0  0  0  0  0  0  0  0  0  0  0
  5  6  2  0  0  0  0
  5  7  1  0  0  0  0
  2  3  1  0  0  0  0
  2  4  1  0  0  0  0
  2  5  1  0  0  0  0
  1  2  1  0  0  0  0
 22 23  2  0  0  0  0
 22 24  1  0  0  0  0
 20 21  1  0  0  0  0
 18 19  1  0  0  0  0
 18 20  1  0  0  0  0
 16 17  1  0  0  0  0
 16 18  1  0  0  0  0
 15 16  2  0  0  0  0
 14 15  1  0  0  0  0
 14 20  2  0  0  0  0
 11 12  1  0  0  0  0
 11 13  1  0  0  0  0
 11 14  1  0  0  0  0
  9 10  1  0  0  0  0
  9 11  1  0  0  0  0
  9 22  1  0  0  0  0
  7  8  1  0  0  0  0
  7  9  1  0  0  0  0
 26 27  1  0  0  0  0
 26 28  1  0  0  0  0
 26 29  1  0  0  0  0
 24 25  1  0  0  0  0
 24 26  1  0  0  0  0
M  END
$$$$
default_name
  -OEChem-01062215323D

 29 29  0     1  0  0  0  0  0999 V2000
   -2.9561   -3.9186    1.3887 H   0  0  0  0  0  0  0  0  0  0  0  0
   -3.1191   -2.9346    0.9517 C   0  0  0  0  0  0  0  0  0  0  0  0
   -3.7811   -2.3546    1.5917 H   0  0  0  0  0  0  0  0  0  0  0  0
   -3.5591   -3.0406   -0.0383 H   0  0  0  0  0  0  0  0  0  0  0  0
   -1.7921   -2.2226    0.8327 C   0  0  0  0  0  0  0  0  0  0  0  0
   -0.7611   -2.7766    1.1927 O   0  0  0  0  0  0  0  0  0  0  0  0
   -1.8201   -0.9926    0.3247 N   0  0  0  0  0  0  0  0  0  0  0  0
   -2.7141   -0.5816    0.0927 H   0  0  0  0  0  0  0  0  0  0  0  0
   -0.6481   -0.1156    0.2017 C   0  0  1  0  0  0  0  0  0  0  0  0
   -0.4827    0.0849   -0.8588 H   0  0  0  0  0  0  0  0  0  0  0  0
   -0.9259    1.2256    0.9080 C   0  0  0  0  0  0  0  0  0  0  0  0
   -1.2089    1.0446    1.9460 H   0  0  0  0  0  0  0  0  0  0  0  0
   -0.0198    1.8331    0.9160 H   0  0  0  0  0  0  0  0  0  0  0  0
   -2.0477    2.0053    0.2664 C   0  0  0  0  0  0  0  0  0  0  0  0
   -1.9706    2.7096   -0.9358 N   0  0  0  0  0  0  0  0  0  0  0  0
   -3.1972    3.2065   -1.1520 C   0  0  0  0  0  0  0  0  0  0  0  0
   -3.4695    3.8170   -2.0038 H   0  0  0  0  0  0  0  0  0  0  0  0
   -4.0351    2.8319   -0.1708 N   0  0  0  0  0  0  0  0  0  0  0  0
   -5.0176    3.0636   -0.1185 H   0  0  0  0  0  0  0  0  0  0  0  0
   -3.3284    2.0693    0.7323 C   0  0  0  0  0  0  0  0  0  0  0  0
   -3.7023    1.5894    1.6280 H   0  0  0  0  0  0  0  0  0  0  0  0
    0.6131   -0.8144    0.7402 C   0  0  0  0  0  0  0  0  0  0  0  0
    1.6241   -0.1567    0.9865 O   0  0  0  0  0  0  0  0  0  0  0  0
    0.5555   -2.1361    0.9317 N   0  0  0  0  0  0  0  0  0  0  0  0
   -0.2772   -2.6123    0.6034 H   0  0  0  0  0  0  0  0  0  0  0  0
    1.6517   -2.9525    1.4478 C   0  0  0  0  0  0  0  0  0  0  0  0
    2.2165   -2.3923    2.1974 H   0  0  0  0  0  0  0  0  0  0  0  0
    1.2549   -3.8602    1.9046 H   0  0  0  0  0  0  0  0  0  0  0  0
    2.3224   -3.2222    0.6304 H   0  0  0  0  0  0  0  0  0  0  0  0
  5  6  2  0  0  0  0
  5  7  1  0  0  0  0
  2  3  1  0  0  0  0
  2  4  1  0  0  0  0
  2  5  1  0  0  0  0
  1  2  1  0  0  0  0
 22 23  2  0  0  0  0
 22 24  1  0  0  0  0
 20 21  1  0  0  0  0
 18 19  1  0  0  0  0
 18 20  1  0  0  0  0
 16 17  1  0  0  0  0
 16 18  1  0  0  0  0
 15 16  2  0  0  0  0
 14 15  1  0  0  0  0
 14 20  2  0  0  0  0
 11 12  1  0  0  0  0
 11 13  1  0  0  0  0
 11 14  1  0  0  0  0
  9 10  1  0  0  0  0
  9 11  1  0  0  0  0
  9 22  1  0  0  0  0
  7  8  1  0  0  0  0
  7  9  1  0  0  0  0
 26 27  1  0  0  0  0
 26 28  1  0  0  0  0
 26 29  1  0  0  0  0
 24 25  1  0  0  0  0
 24 26  1  0  0  0  0
M  END
$$$$
default_name
  -OEChem-01062215323D

 29 29  0     1  0  0  0  0  0999 V2000
   -2.9561   -3.9186    1.3887 H   0  0  0  0  0  0  0  0  0  0  0  0
   -3.1191   -2.9346    0.9517 C   0  0  0  0  0  0  0  0  0  0  0  0
   -3.7811   -2.3546    1.5917 H   0  0  0  0  0  0  0  0  0  0  0  0
   -3.5591   -3.0406   -0.0383 H   0  0  0  0  0  0  0  0  0  0  0  0
   -1.7921   -2.2226    0.8327 C   0  0  0  0  0  0  0  0  0  0  0  0
   -0.7611   -2.7766    1.1927 O   0  0  0  0  0  0  0  0  0  0  0  0
   -1.8201   -0.9926    0.3247 N   0  0  0  0  0  0  0  0  0  0  0  0
   -2.7141   -0.5816    0.0927 H   0  0  0  0  0  0  0  0  0  0  0  0
   -0.6481   -0.1156    0.2017 C   0  0  1  0  0  0  0  0  0  0  0  0
   -0.4827    0.0849   -0.8588 H   0  0  0  0  0  0  0  0  0  0  0  0
   -0.9259    1.2256    0.9080 C   0  0  0  0  0  0  0  0  0  0  0  0
   -1.2089    1.0446    1.9460 H   0  0  0  0  0  0  0  0  0  0  0  0
   -0.0198    1.8331    0.9160 H   0  0  0  0  0  0  0  0  0  0  0  0
   -2.0477    2.0053    0.2664 C   0  0  0  0  0  0  0  0  0  0  0  0
   -1.9706    2.7096   -0.9358 N   0  0  0  0  0  0  0  0  0  0  0  0
   -3.1972    3.2065   -1.1520 C   0  0  0  0  0  0  0  0  0  0  0  0
   -3.4695    3.8170   -2.0038 H   0  0  0  0  0  0  0  0  0  0  0  0
   -4.0351    2.8319   -0.1708 N   0  0  0  0  0  0  0  0  0  0  0  0
   -5.0176    3.0636   -0.1185 H   0  0  0  0  0  0  0  0  0  0  0  0
   -3.3284    2.0693    0.7323 C   0  0  0  0  0  0  0  0  0  0  0  0
   -3.7023    1.5894    1.6280 H   0  0  0  0  0  0  0  0  0  0  0  0
    0.6131   -0.8144    0.7402 C   0  0  0  0  0  0  0  0  0  0  0  0
    1.5183   -0.1493    1.2438 O   0  0  0  0  0  0  0  0  0  0  0  0
    0.6719   -2.1465    0.6455 N   0  0  0  0  0  0  0  0  0  0  0  0
   -0.0669   -2.6032    0.1226 H   0  0  0  0  0  0  0  0  0  0  0  0
    1.7846   -2.9677    1.1169 C   0  0  0  0  0  0  0  0  0  0  0  0
    2.2044   -2.5416    2.0318 H   0  0  0  0  0  0  0  0  0  0  0  0
    1.4367   -3.9811    1.3220 H   0  0  0  0  0  0  0  0  0  0  0  0
    2.5637   -3.0001    0.3536 H   0  0  0  0  0  0  0  0  0  0  0  0
  5  6  2  0  0  0  0
  5  7  1  0  0  0  0
  2  3  1  0  0  0  0
  2  4  1  0  0  0  0
  2  5  1  0  0  0  0
  1  2  1  0  0  0  0
 22 23  2  0  0  0  0
 22 24  1  0  0  0  0
 20 21  1  0  0  0  0
 18 19  1  0  0  0  0
 18 20  1  0  0  0  0
 16 17  1  0  0  0  0
 16 18  1  0  0  0  0
 15 16  2  0  0  0  0
 14 15  1  0  0  0  0
 14 20  2  0  0  0  0
 11 12  1  0  0  0  0
 11 13  1  0  0  0  0
 11 14  1  0  0  0  0
  9 10  1  0  0  0  0
  9 11  1  0  0  0  0
  9 22  1  0  0  0  0
  7  8  1  0  0  0  0
  7  9  1  0  0  0  0
 26 27  1  0  0  0  0
 26 28  1  0  0  0  0
 26 29  1  0  0  0  0
 24 25  1  0  0  0  0
 24 26  1  0  0  0  0
M  END
$$$$
default_name
  -OEChem-01062215323D

 29 29  0     1  0  0  0  0  0999 V2000
   -2.9561   -3.9186    1.3887 H   0  0  0  0  0  0  0  0  0  0  0  0
   -3.1191   -2.9346    0.9517 C   0  0  0  0  0  0  0  0  0  0  0  0
   -3.7811   -2.3546    1.5917 H   0  0  0  0  0  0  0  0  0  0  0  0
   -3.5591   -3.0406   -0.0383 H   0  0  0  0  0  0  0  0  0  0  0  0
   -1.7921   -2.2226    0.8327 C   0  0  0  0  0  0  0  0  0  0  0  0
   -0.7611   -2.7766    1.1927 O   0  0  0  0  0  0  0  0  0  0  0  0
   -1.8201   -0.9926    0.3247 N   0  0  0  0  0  0  0  0  0  0  0  0
   -2.7141   -0.5816    0.0927 H   0  0  0  0  0  0  0  0  0  0  0  0
   -0.6481   -0.1156    0.2017 C   0  0  1  0  0  0  0  0  0  0  0  0
   -0.4827    0.0849   -0.8588 H   0  0  0  0  0  0  0  0  0  0  0  0
   -0.9259    1.2256    0.9080 C   0  0  0  0  0  0  0  0  0  0  0  0
   -1.2089    1.0446    1.9460 H   0  0  0  0  0  0  0  0  0  0  0  0
   -0.0198    1.8331    0.9160 H   0  0  0  0  0  0  0  0  0  0  0  0
   -2.0477    2.0053    0.2664 C   0  0  0  0  0  0  0  0  0  0  0  0
   -1.9706    2.7096   -0.9358 N   0  0  0  0  0  0  0  0  0  0  0  0
   -3.1972    3.2065   -1.1520 C   0  0  0  0  0  0  0  0  0  0  0  0
   -3.4695    3.8170   -2.0038 H   0  0  0  0  0  0  0  0  0  0  0  0
   -4.0351    2.8319   -0.1708 N   0  0  0  0  0  0  0  0  0  0  0  0
   -5.0176    3.0636   -0.1185 H   0  0  0  0  0  0  0  0  0  0  0  0
   -3.3284    2.0693    0.7323 C   0  0  0  0  0  0  0  0  0  0  0  0
   -3.7023    1.5894    1.6280 H   0  0  0  0  0  0  0  0  0  0  0  0
    0.6131   -0.8144    0.7402 C   0  0  0  0  0  0  0  0  0  0  0  0
    1.3853   -0.2063    1.4814 O   0  0  0  0  0  0  0  0  0  0  0  0
    0.8190   -2.0853    0.3805 N   0  0  0  0  0  0  0  0  0  0  0  0
    0.1919   -2.4735   -0.3152 H   0  0  0  0  0  0  0  0  0  0  0  0
    1.9532   -2.9001    0.8098 C   0  0  0  0  0  0  0  0  0  0  0  0
    2.2258   -2.6519    1.8388 H   0  0  0  0  0  0  0  0  0  0  0  0
    1.6917   -3.9578    0.7550 H   0  0  0  0  0  0  0  0  0  0  0  0
    2.8092   -2.7050    0.1617 H   0  0  0  0  0  0  0  0  0  0  0  0
  5  6  2  0  0  0  0
  5  7  1  0  0  0  0
  2  3  1  0  0  0  0
  2  4  1  0  0  0  0
  2  5  1  0  0  0  0
  1  2  1  0  0  0  0
 22 23  2  0  0  0  0
 22 24  1  0  0  0  0
 20 21  1  0  0  0  0
 18 19  1  0  0  0  0
 18 20  1  0  0  0  0
 16 17  1  0  0  0  0
 16 18  1  0  0  0  0
 15 16  2  0  0  0  0
 14 15  1  0  0  0  0
 14 20  2  0  0  0  0
 11 12  1  0  0  0  0
 11 13  1  0  0  0  0
 11 14  1  0  0  0  0
  9 10  1  0  0  0  0
  9 11  1  0  0  0  0
  9 22  1  0  0  0  0
  7  8  1  0  0  0  0
  7  9  1  0  0  0  0
 26 27  1  0  0  0  0
 26 28  1  0  0  0  0
 26 29  1  0  0  0  0
 24 25  1  0  0  0  0
 24 26  1  0  0  0  0
M  END
$$$$
default_name
  -OEChem-01062215323D

 29 29  0     1  0  0  0  0  0999 V2000
   -2.9561   -3.9186    1.3887 H   0  0  0  0  0  0  0  0  0  0  0  0
   -3.1191   -2.9346    0.9517 C   0  0  0  0  0  0  0  0  0  0  0  0
   -3.7811   -2.3546    1.5917 H   0  0  0  0  0  0  0  0  0  0  0  0
   -3.5591   -3.0406   -0.0383 H   0  0  0  0  0  0  0  0  0  0  0  0
   -1.7921   -2.2226    0.8327 C   0  0  0  0  0  0  0  0  0  0  0  0
   -0.7611   -2.7766    1.1927 O   0  0  0  0  0  0  0  0  0  0  0  0
   -1.8201   -0.9926    0.3247 N   0  0  0  0  0  0  0  0  0  0  0  0
   -2.7141   -0.5816    0.0927 H   0  0  0  0  0  0  0  0  0  0  0  0
   -0.6481   -0.1156    0.2017 C   0  0  1  0  0  0  0  0  0  0  0  0
   -0.4827    0.0849   -0.8588 H   0  0  0  0  0  0  0  0  0  0  0  0
   -0.9259    1.2256    0.9080 C   0  0  0  0  0  0  0  0  0  0  0  0
   -1.2089    1.0446    1.9460 H   0  0  0  0  0  0  0  0  0  0  0  0
   -0.0198    1.8331    0.9160 H   0  0  0  0  0  0  0  0  0  0  0  0
   -2.0477    2.0053    0.2664 C   0  0  0  0  0  0  0  0  0  0  0  0
   -1.9706    2.7096   -0.9358 N   0  0  0  0  0  0  0  0  0  0  0  0
   -3.1972    3.2065   -1.1520 C   0  0  0  0  0  0  0  0  0  0  0  0
   -3.4695    3.8170   -2.0038 H   0  0  0  0  0  0  0  0  0  0  0  0
   -4.0351    2.8319   -0.1708 N   0  0  0  0  0  0  0  0  0  0  0  0
   -5.0176    3.0636   -0.1185 H   0  0  0  0  0  0  0  0  0  0  0  0
   -3.3284    2.0693    0.7323 C   0  0  0  0  0  0  0  0  0  0  0  0
   -3.7023    1.5894    1.6280 H   0  0  0  0  0  0  0  0  0  0  0  0
    0.6131   -0.8144    0.7402 C   0  0  0  0  0  0  0  0  0  0  0  0
    1.2340   -0.3238    1.6832 O   0  0  0  0  0  0  0  0  0  0  0  0
    0.9866   -1.9566    0.1549 N   0  0  0  0  0  0  0  0  0  0  0  0
    0.4816   -2.2318   -0.6801 H   0  0  0  0  0  0  0  0  0  0  0  0
    2.1460   -2.7545    0.5472 C   0  0  0  0  0  0  0  0  0  0  0  0
    2.2790   -2.7155    1.6314 H   0  0  0  0  0  0  0  0  0  0  0  0
    2.0025   -3.7920    0.2422 H   0  0  0  0  0  0  0  0  0  0  0  0
    3.0421   -2.3570    0.0678 H   0  0  0  0  0  0  0  0  0  0  0  0
  5  6  2  0  0  0  0
  5  7  1  0  0  0  0
  2  3  1  0  0  0  0
  2  4  1  0  0  0  0
  2  5  1  0  0  0  0
  1  2  1  0  0  0  0
 22 23  2  0  0  0  0
 22 24  1  0  0  0  0
 20 21  1  0  0  0  0
 18 19  1  0  0  0  0
 18 20  1  0  0  0  0
 16 17  1  0  0  0  0
 16 18  1  0  0  0  0
 15 16  2  0  0  0  0
 14 15  1  0  0  0  0
 14 20  2  0  0  0  0
 11 12  1  0  0  0  0
 11 13  1  0  0  0  0
 11 14  1  0  0  0  0
  9 10  1  0  0  0  0
  9 11  1  0  0  0  0
  9 22  1  0  0  0  0
  7  8  1  0  0  0  0
  7  9  1  0  0  0  0
 26 27  1  0  0  0  0
 26 28  1  0  0  0  0
 26 29  1  0  0  0  0
 24 25  1  0  0  0  0
 24 26  1  0  0  0  0
M  END
$$$$
default_name
  -OEChem-01062215323D

 29 29  0     1  0  0  0  0  0999 V2000
   -2.9561   -3.9186    1.3887 H   0  0  0  0  0  0  0  0  0  0  0  0
   -3.1191   -2.9346    0.9517 C   0  0  0  0  0  0  0  0  0  0  0  0
   -3.7811   -2.3546    1.5917 H   0  0  0  0  0  0  0  0  0  0  0  0
   -3.5591   -3.0406   -0.0383 H   0  0  0  0  0  0  0  0  0  0  0  0
   -1.7921   -2.2226    0.8327 C   0  0  0  0  0  0  0  0  0  0  0  0
   -0.7611   -2.7766    1.1927 O   0  0  0  0  0  0  0  0  0  0  0  0
   -1.8201   -0.9926    0.3247 N   0  0  0  0  0  0  0  0  0  0  0  0
   -2.7141   -0.5816    0.0927 H   0  0  0  0  0  0  0  0  0  0  0  0
   -0.6481   -0.1156    0.2017 C   0  0  1  0  0  0  0  0  0  0  0  0
   -0.4827    0.0849   -0.8588 H   0  0  0  0  0  0  0  0  0  0  0  0
   -0.9259    1.2256    0.9080 C   0  0  0  0  0  0  0  0  0  0  0  0
   -1.2089    1.0446    1.9460 H   0  0  0  0  0  0  0  0  0  0  0  0
   -0.0198    1.8331    0.9160 H   0  0  0  0  0  0  0  0  0  0  0  0
   -2.0477    2.0053    0.2664 C   0  0  0  0  0  0  0  0  0  0  0  0
   -1.9706    2.7096   -0.9358 N   0  0  0  0  0  0  0  0  0  0  0  0
   -3.1972    3.2065   -1.1520 C   0  0  0  0  0  0  0  0  0  0  0  0
   -3.4695    3.8170   -2.0038 H   0  0  0  0  0  0  0  0  0  0  0  0
   -4.0351    2.8319   -0.1708 N   0  0  0  0  0  0  0  0  0  0  0  0
   -5.0176    3.0636   -0.1185 H   0  0  0  0  0  0  0  0  0  0  0  0
   -3.3284    2.0693    0.7323 C   0  0  0  0  0  0  0  0  0  0  0  0
   -3.7023    1.5894    1.6280 H   0  0  0  0  0  0  0  0  0  0  0  0
    0.6131   -0.8144    0.7402 C   0  0  0  0  0  0  0  0  0  0  0  0
    1.0748   -0.4938    1.8354 O   0  0  0  0  0  0  0  0  0  0  0  0
    1.1634   -1.7693   -0.0161 N   0  0  0  0  0  0  0  0  0  0  0  0
    0.7824   -1.8948   -0.9473 H   0  0  0  0  0  0  0  0  0  0  0  0
    2.3499   -2.5406    0.3472 C   0  0  0  0  0  0  0  0  0  0  0  0
    2.3606   -2.7282    1.4239 H   0  0  0  0  0  0  0  0  0  0  0  0
    2.3480   -3.4949   -0.1814 H   0  0  0  0  0  0  0  0  0  0  0  0
    3.2466   -1.9798    0.0783 H   0  0  0  0  0  0  0  0  0  0  0  0
  5  6  2  0  0  0  0
  5  7  1  0  0  0  0
  2  3  1  0  0  0  0
  2  4  1  0  0  0  0
  2  5  1  0  0  0  0
  1  2  1  0  0  0  0
 22 23  2  0  0  0  0
 22 24  1  0  0  0  0
 20 21  1  0  0  0  0
 18 19  1  0  0  0  0
 18 20  1  0  0  0  0
 16 17  1  0  0  0  0
 16 18  1  0  0  0  0
 15 16  2  0  0  0  0
 14 15  1  0  0  0  0
 14 20  2  0  0  0  0
 11 12  1  0  0  0  0
 11 13  1  0  0  0  0
 11 14  1  0  0  0  0
  9 10  1  0  0  0  0
  9 11  1  0  0  0  0
  9 22  1  0  0  0  0
  7  8  1  0  0  0  0
  7  9  1  0  0  0  0
 26 27  1  0  0  0  0
 26 28  1  0  0  0  0
 26 29  1  0  0  0  0
 24 25  1  0  0  0  0
 24 26  1  0  0  0  0
M  END
$$$$
default_name
  -OEChem-01062215323D

 29 29  0     1  0  0  0  0  0999 V2000
   -2.9561   -3.9186    1.3887 H   0  0  0  0  0  0  0  0  0  0  0  0
   -3.1191   -2.9346    0.9517 C   0  0  0  0  0  0  0  0  0  0  0  0
   -3.7811   -2.3546    1.5917 H   0  0  0  0  0  0  0  0  0  0  0  0
   -3.5591   -3.0406   -0.0383 H   0  0  0  0  0  0  0  0  0  0  0  0
   -1.7921   -2.2226    0.8327 C   0  0  0  0  0  0  0  0  0  0  0  0
   -0.7611   -2.7766    1.1927 O   0  0  0  0  0  0  0  0  0  0  0  0
   -1.8201   -0.9926    0.3247 N   0  0  0  0  0  0  0  0  0  0  0  0
   -2.7141   -0.5816    0.0927 H   0  0  0  0  0  0  0  0  0  0  0  0
   -0.6481   -0.1156    0.2017 C   0  0  1  0  0  0  0  0  0  0  0  0
   -0.4827    0.0849   -0.8588 H   0  0  0  0  0  0  0  0  0  0  0  0
   -0.9259    1.2256    0.9080 C   0  0  0  0  0  0  0  0  0  0  0  0
   -1.2089    1.0446    1.9460 H   0  0  0  0  0  0  0  0  0  0  0  0
   -0.0198    1.8331    0.9160 H   0  0  0  0  0  0  0  0  0  0  0  0
   -2.0477    2.0053    0.2664 C   0  0  0  0  0  0  0  0  0  0  0  0
   -1.9706    2.7096   -0.9358 N   0  0  0  0  0  0  0  0  0  0  0  0
   -3.1972    3.2065   -1.1520 C   0  0  0  0  0  0  0  0  0  0  0  0
   -3.4695    3.8170   -2.0038 H   0  0  0  0  0  0  0  0  0  0  0  0
   -4.0351    2.8319   -0.1708 N   0  0  0  0  0  0  0  0  0  0  0  0
   -5.0176    3.0636   -0.1185 H   0  0  0  0  0  0  0  0  0  0  0  0
   -3.3284    2.0693    0.7323 C   0  0  0  0  0  0  0  0  0  0  0  0
   -3.7023    1.5894    1.6280 H   0  0  0  0  0  0  0  0  0  0  0  0
    0.6131   -0.8144    0.7402 C   0  0  0  0  0  0  0  0  0  0  0  0
    0.9186   -0.7047    1.9277 O   0  0  0  0  0  0  0  0  0  0  0  0
    1.3373   -1.5361   -0.1208 N   0  0  0  0  0  0  0  0  0  0  0  0
    1.0739   -1.4854   -1.0986 H   0  0  0  0  0  0  0  0  0  0  0  0
    2.5510   -2.2732    0.2232 C   0  0  0  0  0  0  0  0  0  0  0  0
    2.4650   -2.6890    1.2304 H   0  0  0  0  0  0  0  0  0  0  0  0
    2.7046   -3.0869   -0.4870 H   0  0  0  0  0  0  0  0  0  0  0  0
    3.4087   -1.5993    0.1924 H   0  0  0  0  0  0  0  0  0  0  0  0
  5  6  2  0  0  0  0
  5  7  1  0  0  0  0
  2  3  1  0  0  0  0
  2  4  1  0  0  0  0
  2  5  1  0  0  0  0
  1  2  1  0  0  0  0
 22 23  2  0  0  0  0
 22 24  1  0  0  0  0
 20 21  1  0  0  0  0
 18 19  1  0  0  0  0
 18 20  1  0  0  0  0
 16 17  1  0  0  0  0
 16 18  1  0  0  0  0
 15 16  2  0  0  0  0
 14 15  1  0  0  0  0
 14 20  2  0  0  0  0
 11 12  1  0  0  0  0
 11 13  1  0  0  0  0
 11 14  1  0  0  0  0
  9 10  1  0  0  0  0
  9 11  1  0  0  0  0
  9 22  1  0  0  0  0
  7  8  1  0  0  0  0
  7  9  1  0  0  0  0
 26 27  1  0  0  0  0
 26 28  1  0  0  0  0
 26 29  1  0  0  0  0
 24 25  1  0  0  0  0
 24 26  1  0  0  0  0
M  END
$$$$
default_name
  -OEChem-01062215323D

 29 29  0     1  0  0  0  0  0999 V2000
   -2.9561   -3.9186    1.3887 H   0  0  0  0  0  0  0  0  0  0  0  0
   -3.1191   -2.9346    0.9517 C   0  0  0  0  0  0  0  0  0  0  0  0
   -3.7811   -2.3546    1.5917 H   0  0  0  0  0  0  0  0  0  0  0  0
   -3.5591   -3.0406   -0.0383 H   0  0  0  0  0  0  0  0  0  0  0  0
   -1.7921   -2.2226    0.8327 C   0  0  0  0  0  0  0  0  0  0  0  0
   -0.7611   -2.7766    1.1927 O   0  0  0  0  0  0  0  0  0  0  0  0
   -1.8201   -0.9926    0.3247 N   0  0  0  0  0  0  0  0  0  0  0  0
   -2.7141   -0.5816    0.0927 H   0  0  0  0  0  0  0  0  0  0  0  0
   -0.6481   -0.1156    0.2017 C   0  0  1  0  0  0  0  0  0  0  0  0
   -0.4827    0.0849   -0.8588 H   0  0  0  0  0  0  0  0  0  0  0  0
   -0.9259    1.2256    0.9080 C   0  0  0  0  0  0  0  0  0  0  0  0
   -1.2089    1.0446    1.9460 H   0  0  0  0  0  0  0  0  0  0  0  0
   -0.0198    1.8331    0.9160 H   0  0  0  0  0  0  0  0  0  0  0  0
   -2.0477    2.0053    0.2664 C   0  0  0  0  0  0  0  0  0  0  0  0
   -1.9706    2.7096   -0.9358 N   0  0  0  0  0  0  0  0  0  0  0  0
   -3.1972    3.2065   -1.1520 C   0  0  0  0  0  0  0  0  0  0  0  0
   -3.4695    3.8170   -2.0038 H   0  0  0  0  0  0  0  0  0  0  0  0
   -4.0351    2.8319   -0.1708 N   0  0  0  0  0  0  0  0  0  0  0  0
   -5.0176    3.0636   -0.1185 H   0  0  0  0  0  0  0  0  0  0  0  0
   -3.3284    2.0693    0.7323 C   0  0  0  0  0  0  0  0  0  0  0  0
   -3.7023    1.5894    1.6280 H   0  0  0  0  0  0  0  0  0  0  0  0
    0.6131   -0.8144    0.7402 C   0  0  0  0  0  0  0  0  0  0  0  0
    0.7759   -0.9422    1.9537 O   0  0  0  0  0  0  0  0  0  0  0  0
    1.4965   -1.2729   -0.1520 N   0  0  0  0  0  0  0  0  0  0  0  0
    1.3361   -1.0314   -1.1236 H   0  0  0  0  0  0  0  0  0  0  0  0
    2.7356   -1.9703    0.1839 C   0  0  0  0  0  0  0  0  0  0  0  0
    2.5849   -2.6007    1.0640 H   0  0  0  0  0  0  0  0  0  0  0  0
    3.0480   -2.5956   -0.6537 H   0  0  0  0  0  0  0  0  0  0  0  0
    3.5175   -1.2412    0.4025 H   0  0  0  0  0  0  0  0  0  0  0  0
  5  6  2  0  0  0  0
  5  7  1  0  0  0  0
  2  3  1  0  0  0  0
  2  4  1  0  0  0  0
  2  5  1  0  0  0  0
  1  2  1  0  0  0  0
 22 23  2  0  0  0  0
 22 24  1  0  0  0  0
 20 21  1  0  0  0  0
 18 19  1  0  0  0  0
 18 20  1  0  0  0  0
 16 17  1  0  0  0  0
 16 18  1  0  0  0  0
 15 16  2  0  0  0  0
 14 15  1  0  0  0  0
 14 20  2  0  0  0  0
 11 12  1  0  0  0  0
 11 13  1  0  0  0  0
 11 14  1  0  0  0  0
  9 10  1  0  0  0  0
  9 11  1  0  0  0  0
  9 22  1  0  0  0  0
  7  8  1  0  0  0  0
  7  9  1  0  0  0  0
 26 27  1  0  0  0  0
 26 28  1  0  0  0  0
 26 29  1  0  0  0  0
 24 25  1  0  0  0  0
 24 26  1  0  0  0  0
M  END
$$$$
default_name
  -OEChem-01062215323D

 29 29  0     1  0  0  0  0  0999 V2000
   -2.9561   -3.9186    1.3887 H   0  0  0  0  0  0  0  0  0  0  0  0
   -3.1191   -2.9346    0.9517 C   0  0  0  0  0  0  0  0  0  0  0  0
   -3.7811   -2.3546    1.5917 H   0  0  0  0  0  0  0  0  0  0  0  0
   -3.5591   -3.0406   -0.0383 H   0  0  0  0  0  0  0  0  0  0  0  0
   -1.7921   -2.2226    0.8327 C   0  0  0  0  0  0  0  0  0  0  0  0
   -0.7611   -2.7766    1.1927 O   0  0  0  0  0  0  0  0  0  0  0  0
   -1.8201   -0.9926    0.3247 N   0  0  0  0  0  0  0  0  0  0  0  0
   -2.7141   -0.5816    0.0927 H   0  0  0  0  0  0  0  0  0  0  0  0
   -0.6481   -0.1156    0.2017 C   0  0  1  0  0  0  0  0  0  0  0  0
   -0.4827    0.0849   -0.8588 H   0  0  0  0  0  0  0  0  0  0  0  0
   -0.9259    1.2256    0.9080 C   0  0  0  0  0  0  0  0  0  0  0  0
   -1.2089    1.0446    1.9460 H   0  0  0  0  0  0  0  0  0  0  0  0
   -0.0198    1.8331    0.9160 H   0  0  0  0  0  0  0  0  0  0  0  0
   -2.0477    2.0053    0.2664 C   0  0  0  0  0  0  0  0  0  0  0  0
   -1.9706    2.7096   -0.9358 N   0  0  0  0  0  0  0  0  0  0  0  0
   -3.1972    3.2065   -1.1520 C   0  0  0  0  0  0  0  0  0  0  0  0
   -3.4695    3.8170   -2.0038 H   0  0  0  0  0  0  0  0  0  0  0  0
   -4.0351    2.8319   -0.1708 N   0  0  0  0  0  0  0  0  0  0  0  0
   -5.0176    3.0636   -0.1185 H   0  0  0  0  0  0  0  0  0  0  0  0
   -3.3284    2.0693    0.7323 C   0  0  0  0  0  0  0  0  0  0  0  0
   -3.7023    1.5894    1.6280 H   0  0  0  0  0  0  0  0  0  0  0  0
    0.6131   -0.8144    0.7402 C   0  0  0  0  0  0  0  0  0  0  0  0
    0.6565   -1.1900    1.9117 O   0  0  0  0  0  0  0  0  0  0  0  0
    1.6301   -0.9977   -0.1077 N   0  0  0  0  0  0  0  0  0  0  0  0
    1.5512   -0.5639   -1.0207 H   0  0  0  0  0  0  0  0  0  0  0  0
    2.8911   -1.6528    0.2318 C   0  0  0  0  0  0  0  0  0  0  0  0
    2.7124   -2.4692    0.9362 H   0  0  0  0  0  0  0  0  0  0  0  0
    3.3548   -2.0546   -0.6702 H   0  0  0  0  0  0  0  0  0  0  0  0
    3.5654   -0.9300    0.6940 H   0  0  0  0  0  0  0  0  0  0  0  0
  5  6  2  0  0  0  0
  5  7  1  0  0  0  0
  2  3  1  0  0  0  0
  2  4  1  0  0  0  0
  2  5  1  0  0  0  0
  1  2  1  0  0  0  0
 22 23  2  0  0  0  0
 22 24  1  0  0  0  0
 20 21  1  0  0  0  0
 18 19  1  0  0  0  0
 18 20  1  0  0  0  0
 16 17  1  0  0  0  0
 16 18  1  0  0  0  0
 15 16  2  0  0  0  0
 14 15  1  0  0  0  0
 14 20  2  0  0  0  0
 11 12  1  0  0  0  0
 11 13  1  0  0  0  0
 11 14  1  0  0  0  0
  9 10  1  0  0  0  0
  9 11  1  0  0  0  0
  9 22  1  0  0  0  0
  7  8  1  0  0  0  0
  7  9  1  0  0  0  0
 26 27  1  0  0  0  0
 26 28  1  0  0  0  0
 26 29  1  0  0  0  0
 24 25  1  0  0  0  0
 24 26  1  0  0  0  0
M  END
$$$$
default_name
  -OEChem-01062215323D

 29 29  0     1  0  0  0  0  0999 V2000
   -2.9561   -3.9186    1.3887 H   0  0  0  0  0  0  0  0  0  0  0  0
   -3.1191   -2.9346    0.9517 C   0  0  0  0  0  0  0  0  0  0  0  0
   -3.7811   -2.3546    1.5917 H   0  0  0  0  0  0  0  0  0  0  0  0
   -3.5591   -3.0406   -0.0383 H   0  0  0  0  0  0  0  0  0  0  0  0
   -1.7921   -2.2226    0.8327 C   0  0  0  0  0  0  0  0  0  0  0  0
   -0.7611   -2.7766    1.1927 O   0  0  0  0  0  0  0  0  0  0  0  0
   -1.8201   -0.9926    0.3247 N   0  0  0  0  0  0  0  0  0  0  0  0
   -2.7141   -0.5816    0.0927 H   0  0  0  0  0  0  0  0  0  0  0  0
   -0.6481   -0.1156    0.2017 C   0  0  1  0  0  0  0  0  0  0  0  0
   -0.4827    0.0849   -0.8588 H   0  0  0  0  0  0  0  0  0  0  0  0
   -0.9259    1.2256    0.9080 C   0  0  0  0  0  0  0  0  0  0  0  0
   -1.2089    1.0446    1.9460 H   0  0  0  0  0  0  0  0  0  0  0  0
   -0.0198    1.8331    0.9160 H   0  0  0  0  0  0  0  0  0  0  0  0
   -2.0477    2.0053    0.2664 C   0  0  0  0  0  0  0  0  0  0  0  0
   -1.9706    2.7096   -0.9358 N   0  0  0  0  0  0  0  0  0  0  0  0
   -3.1972    3.2065   -1.1520 C   0  0  0  0  0  0  0  0  0  0  0  0
   -3.4695    3.8170   -2.0038 H   0  0  0  0  0  0  0  0  0  0  0  0
   -4.0351    2.8319   -0.1708 N   0  0  0  0  0  0  0  0  0  0  0  0
   -5.0176    3.0636   -0.1185 H   0  0  0  0  0  0  0  0  0  0  0  0
   -3.3284    2.0693    0.7323 C   0  0  0  0  0  0  0  0  0  0  0  0
   -3.7023    1.5894    1.6280 H   0  0  0  0  0  0  0  0  0  0  0  0
    0.6131   -0.8144    0.7402 C   0  0  0  0  0  0  0  0  0  0  0  0
    0.5686   -1.4312    1.8046 O   0  0  0  0  0  0  0  0  0  0  0  0
    1.7290   -0.7291    0.0093 N   0  0  0  0  0  0  0  0  0  0  0  0
    1.7046   -0.1146   -0.7968 H   0  0  0  0  0  0  0  0  0  0  0  0
    3.0069   -1.3421    0.3637 C   0  0  0  0  0  0  0  0  0  0  0  0
    2.8386   -2.3036    0.8555 H   0  0  0  0  0  0  0  0  0  0  0  0
    3.6041   -1.5008   -0.5354 H   0  0  0  0  0  0  0  0  0  0  0  0
    3.5492   -0.6869    1.0473 H   0  0  0  0  0  0  0  0  0  0  0  0
  5  6  2  0  0  0  0
  5  7  1  0  0  0  0
  2  3  1  0  0  0  0
  2  4  1  0  0  0  0
  2  5  1  0  0  0  0
  1  2  1  0  0  0  0
 22 23  2  0  0  0  0
 22 24  1  0  0  0  0
 20 21  1  0  0  0  0
 18 19  1  0  0  0  0
 18 20  1  0  0  0  0
 16 17  1  0  0  0  0
 16 18  1  0  0  0  0
 15 16  2  0  0  0  0
 14 15  1  0  0  0  0
 14 20  2  0  0  0  0
 11 12  1  0  0  0  0
 11 13  1  0  0  0  0
 11 14  1  0  0  0  0
  9 10  1  0  0  0  0
  9 11  1  0  0  0  0
  9 22  1  0  0  0  0
  7  8  1  0  0  0  0
  7  9  1  0  0  0  0
 26 27  1  0  0  0  0
 26 28  1  0  0  0  0
 26 29  1  0  0  0  0
 24 25  1  0  0  0  0
 24 26  1  0  0  0  0
M  END
$$$$
default_name
  -OEChem-01062215323D

 29 29  0     1  0  0  0  0  0999 V2000
   -2.9561   -3.9186    1.3887 H   0  0  0  0  0  0  0  0  0  0  0  0
   -3.1191   -2.9346    0.9517 C   0  0  0  0  0  0  0  0  0  0  0  0
   -3.7811   -2.3546    1.5917 H   0  0  0  0  0  0  0  0  0  0  0  0
   -3.5591   -3.0406   -0.0383 H   0  0  0  0  0  0  0  0  0  0  0  0
   -1.7921   -2.2226    0.8327 C   0  0  0  0  0  0  0  0  0  0  0  0
   -0.7611   -2.7766    1.1927 O   0  0  0  0  0  0  0  0  0  0  0  0
   -1.8201   -0.9926    0.3247 N   0  0  0  0  0  0  0  0  0  0  0  0
   -2.7141   -0.5816    0.0927 H   0  0  0  0  0  0  0  0  0  0  0  0
   -0.6481   -0.1156    0.2017 C   0  0  1  0  0  0  0  0  0  0  0  0
   -0.4827    0.0849   -0.8588 H   0  0  0  0  0  0  0  0  0  0  0  0
   -0.9259    1.2256    0.9080 C   0  0  0  0  0  0  0  0  0  0  0  0
   -1.2089    1.0446    1.9460 H   0  0  0  0  0  0  0  0  0  0  0  0
   -0.0198    1.8331    0.9160 H   0  0  0  0  0  0  0  0  0  0  0  0
   -2.0477    2.0053    0.2664 C   0  0  0  0  0  0  0  0  0  0  0  0
   -1.9706    2.7096   -0.9358 N   0  0  0  0  0  0  0  0  0  0  0  0
   -3.1972    3.2065   -1.1520 C   0  0  0  0  0  0  0  0  0  0  0  0
   -3.4695    3.8170   -2.0038 H   0  0  0  0  0  0  0  0  0  0  0  0
   -4.0351    2.8319   -0.1708 N   0  0  0  0  0  0  0  0  0  0  0  0
   -5.0176    3.0636   -0.1185 H   0  0  0  0  0  0  0  0  0  0  0  0
   -3.3284    2.0693    0.7323 C   0  0  0  0  0  0  0  0  0  0  0  0
   -3.7023    1.5894    1.6280 H   0  0  0  0  0  0  0  0  0  0  0  0
    0.6131   -0.8144    0.7402 C   0  0  0  0  0  0  0  0  0  0  0  0
    0.5181   -1.6495    1.6397 O   0  0  0  0  0  0  0  0  0  0  0  0
    1.7864   -0.4855    0.1908 N   0  0  0  0  0  0  0  0  0  0  0  0
    1.7857    0.2858   -0.4673 H   0  0  0  0  0  0  0  0  0  0  0  0
    3.0752   -1.0595    0.5705 C   0  0  0  0  0  0  0  0  0  0  0  0
    2.9550   -2.1150    0.8276 H   0  0  0  0  0  0  0  0  0  0  0  0
    3.7789   -0.9718   -0.2584 H   0  0  0  0  0  0  0  0  0  0  0  0
    3.4701   -0.5284    1.4382 H   0  0  0  0  0  0  0  0  0  0  0  0
  5  6  2  0  0  0  0
  5  7  1  0  0  0  0
  2  3  1  0  0  0  0
  2  4  1  0  0  0  0
  2  5  1  0  0  0  0
  1  2  1  0  0  0  0
 22 23  2  0  0  0  0
 22 24  1  0  0  0  0
 20 21  1  0  0  0  0
 18 19  1  0  0  0  0
 18 20  1  0  0  0  0
 16 17  1  0  0  0  0
 16 18  1  0  0  0  0
 15 16  2  0  0  0  0
 14 15  1  0  0  0  0
 14 20  2  0  0  0  0
 11 12  1  0  0  0  0
 11 13  1  0  0  0  0
 11 14  1  0  0  0  0
  9 10  1  0  0  0  0
  9 11  1  0  0  0  0
  9 22  1  0  0  0  0
  7  8  1  0  0  0  0
  7  9  1  0  0  0  0
 26 27  1  0  0  0  0
 26 28  1  0  0  0  0
 26 29  1  0  0  0  0
 24 25  1  0  0  0  0
 24 26  1  0  0  0  0
M  END
$$$$
default_name
  -OEChem-01062215323D

 29 29  0     1  0  0  0  0  0999 V2000
   -2.9561   -3.9186    1.3887 H   0  0  0  0  0  0  0  0  0  0  0  0
   -3.1191   -2.9346    0.9517 C   0  0  0  0  0  0  0  0  0  0  0  0
   -3.7811   -2.3546    1.5917 H   0  0  0  0  0  0  0  0  0  0  0  0
   -3.5591   -3.0406   -0.0383 H   0  0  0  0  0  0  0  0  0  0  0  0
   -1.7921   -2.2226    0.8327 C   0  0  0  0  0  0  0  0  0  0  0  0
   -0.7611   -2.7766    1.1927 O   0  0  0  0  0  0  0  0  0  0  0  0
   -1.8201   -0.9926    0.3247 N   0  0  0  0  0  0  0  0  0  0  0  0
   -2.7141   -0.5816    0.0927 H   0  0  0  0  0  0  0  0  0  0  0  0
   -0.6481   -0.1156    0.2017 C   0  0  1  0  0  0  0  0  0  0  0  0
   -0.4827    0.0849   -0.8588 H   0  0  0  0  0  0  0  0  0  0  0  0
   -0.9259    1.2256    0.9080 C   0  0  0  0  0  0  0  0  0  0  0  0
   -1.2089    1.0446    1.9460 H   0  0  0  0  0  0  0  0  0  0  0  0
   -0.0198    1.8331    0.9160 H   0  0  0  0  0  0  0  0  0  0  0  0
   -2.0477    2.0053    0.2664 C   0  0  0  0  0  0  0  0  0  0  0  0
   -1.9706    2.7096   -0.9358 N   0  0  0  0  0  0  0  0  0  0  0  0
   -3.1972    3.2065   -1.1520 C   0  0  0  0  0  0  0  0  0  0  0  0
   -3.4695    3.8170   -2.0038 H   0  0  0  0  0  0  0  0  0  0  0  0
   -4.0351    2.8319   -0.1708 N   0  0  0  0  0  0  0  0  0  0  0  0
   -5.0176    3.0636   -0.1185 H   0  0  0  0  0  0  0  0  0  0  0  0
   -3.3284    2.0693    0.7323 C   0  0  0  0  0  0  0  0  0  0  0  0
   -3.7023    1.5894    1.6280 H   0  0  0  0  0  0  0  0  0  0  0  0
    0.6131   -0.8144    0.7402 C   0  0  0  0  0  0  0  0  0  0  0  0
    0.5084   -1.8299    1.4281 O   0  0  0  0  0  0  0  0  0  0  0  0
    1.7985   -0.2835    0.4245 N   0  0  0  0  0  0  0  0  0  0  0  0
    1.7891    0.6100   -0.0546 H   0  0  0  0  0  0  0  0  0  0  0  0
    3.0912   -0.8242    0.8384 C   0  0  0  0  0  0  0  0  0  0  0  0
    3.0536   -1.9165    0.8542 H   0  0  0  0  0  0  0  0  0  0  0  0
    3.8673   -0.5038    0.1419 H   0  0  0  0  0  0  0  0  0  0  0  0
    3.3334   -0.4655    1.8401 H   0  0  0  0  0  0  0  0  0  0  0  0
  5  6  2  0  0  0  0
  5  7  1  0  0  0  0
  2  3  1  0  0  0  0
  2  4  1  0  0  0  0
  2  5  1  0  0  0  0
  1  2  1  0  0  0  0
 22 23  2  0  0  0  0
 22 24  1  0  0  0  0
 20 21  1  0  0  0  0
 18 19  1  0  0  0  0
 18 20  1  0  0  0  0
 16 17  1  0  0  0  0
 16 18  1  0  0  0  0
 15 16  2  0  0  0  0
 14 15  1  0  0  0  0
 14 20  2  0  0  0  0
 11 12  1  0  0  0  0
 11 13  1  0  0  0  0
 11 14  1  0  0  0  0
  9 10  1  0  0  0  0
  9 11  1  0  0  0  0
  9 22  1  0  0  0  0
  7  8  1  0  0  0  0
  7  9  1  0  0  0  0
 26 27  1  0  0  0  0
 26 28  1  0  0  0  0
 26 29  1  0  0  0  0
 24 25  1  0  0  0  0
 24 26  1  0  0  0  0
M  END
$$$$
default_name
  -OEChem-01062215323D

 29 29  0     1  0  0  0  0  0999 V2000
   -2.9561   -3.9186    1.3887 H   0  0  0  0  0  0  0  0  0  0  0  0
   -3.1191   -2.9346    0.9517 C   0  0  0  0  0  0  0  0  0  0  0  0
   -3.7811   -2.3546    1.5917 H   0  0  0  0  0  0  0  0  0  0  0  0
   -3.5591   -3.0406   -0.0383 H   0  0  0  0  0  0  0  0  0  0  0  0
   -1.7921   -2.2226    0.8327 C   0  0  0  0  0  0  0  0  0  0  0  0
   -0.7611   -2.7766    1.1927 O   0  0  0  0  0  0  0  0  0  0  0  0
   -1.8201   -0.9926    0.3247 N   0  0  0  0  0  0  0  0  0  0  0  0
   -2.7141   -0.5816    0.0927 H   0  0  0  0  0  0  0  0  0  0  0  0
   -0.6481   -0.1156    0.2017 C   0  0  1  0  0  0  0  0  0  0  0  0
   -0.6386    0.3004   -0.8078 H   0  0  0  0  0  0  0  0  0  0  0  0
   -0.7641    1.0507    1.2023 C   0  0  0  0  0  0  0  0  0  0  0  0
   -0.8925    0.6591    2.2125 H   0  0  0  0  0  0  0  0  0  0  0  0
    0.1550    1.6382    1.1924 H   0  0  0  0  0  0  0  0  0  0  0  0
   -1.9402    1.9529    0.9180 C   0  0  0  0  0  0  0  0  0  0  0  0
   -2.0203    2.8917   -0.1114 N   0  0  0  0  0  0  0  0  0  0  0  0
   -3.2459    3.4294   -0.0262 C   0  0  0  0  0  0  0  0  0  0  0  0
   -3.6212    4.2053   -0.6814 H   0  0  0  0  0  0  0  0  0  0  0  0
   -3.9381    2.8632    0.9765 N   0  0  0  0  0  0  0  0  0  0  0  0
   -4.8918    3.0843    1.2286 H   0  0  0  0  0  0  0  0  0  0  0  0
   -3.1316    1.9254    1.5821 C   0  0  0  0  0  0  0  0  0  0  0  0
   -3.3827    1.2717    2.4078 H   0  0  0  0  0  0  0  0  0  0  0  0
    0.6529   -0.9181    0.3811 C   0  0  0  0  0  0  0  0  0  0  0  0
    0.6053   -2.1308    0.5870 O   0  0  0  0  0  0  0  0  0  0  0  0
    1.8088   -0.2522    0.2952 N   0  0  0  0  0  0  0  0  0  0  0  0
    1.7536    0.7581    0.2305 H   0  0  0  0  0  0  0  0  0  0  0  0
    3.1319   -0.8578    0.4264 C   0  0  0  0  0  0  0  0  0  0  0  0
    3.1316   -1.8591   -0.0120 H   0  0  0  0  0  0  0  0  0  0  0  0
    3.8734   -0.2438   -0.0867 H   0  0  0  0  0  0  0  0  0  0  0  0
    3.3949   -0.9358    1.4826 H   0  0  0  0  0  0  0  0  0  0  0  0
  5  6  2  0  0  0  0
  5  7  1  0  0  0  0
  2  3  1  0  0  0  0
  2  4  1  0  0  0  0
  2  5  1  0  0  0  0
  1  2  1  0  0  0  0
 22 23  2  0  0  0  0
 22 24  1  0  0  0  0
 20 21  1  0  0  0  0
 18 19  1  0  0  0  0
 18 20  1  0  0  0  0
 16 17  1  0  0  0  0
 16 18  1  0  0  0  0
 15 16  2  0  0  0  0
 14 15  1  0  0  0  0
 14 20  2  0  0  0  0
 11 12  1  0  0  0  0
 11 13  1  0  0  0  0
 11 14  1  0  0  0  0
  9 10  1  0  0  0  0
  9 11  1  0  0  0  0
  9 22  1  0  0  0  0
  7  8  1  0  0  0  0
  7  9  1  0  0  0  0
 26 27  1  0  0  0  0
 26 28  1  0  0  0  0
 26 29  1  0  0  0  0
 24 25  1  0  0  0  0
 24 26  1  0  0  0  0
M  END
$$$$
default_name
  -OEChem-01062215323D

 29 29  0     1  0  0  0  0  0999 V2000
   -2.9561   -3.9186    1.3887 H   0  0  0  0  0  0  0  0  0  0  0  0
   -3.1191   -2.9346    0.9517 C   0  0  0  0  0  0  0  0  0  0  0  0
   -3.7811   -2.3546    1.5917 H   0  0  0  0  0  0  0  0  0  0  0  0
   -3.5591   -3.0406   -0.0383 H   0  0  0  0  0  0  0  0  0  0  0  0
   -1.7921   -2.2226    0.8327 C   0  0  0  0  0  0  0  0  0  0  0  0
   -0.7611   -2.7766    1.1927 O   0  0  0  0  0  0  0  0  0  0  0  0
   -1.8201   -0.9926    0.3247 N   0  0  0  0  0  0  0  0  0  0  0  0
   -2.7141   -0.5816    0.0927 H   0  0  0  0  0  0  0  0  0  0  0  0
   -0.6481   -0.1156    0.2017 C   0  0  1  0  0  0  0  0  0  0  0  0
   -0.6386    0.3004   -0.8078 H   0  0  0  0  0  0  0  0  0  0  0  0
   -0.7641    1.0507    1.2023 C   0  0  0  0  0  0  0  0  0  0  0  0
   -0.8925    0.6591    2.2125 H   0  0  0  0  0  0  0  0  0  0  0  0
    0.1550    1.6382    1.1924 H   0  0  0  0  0  0  0  0  0  0  0  0
   -1.9402    1.9529    0.9180 C   0  0  0  0  0  0  0  0  0  0  0  0
   -2.0203    2.8917   -0.1114 N   0  0  0  0  0  0  0  0  0  0  0  0
   -3.2459    3.4294   -0.0262 C   0  0  0  0  0  0  0  0  0  0  0  0
   -3.6212    4.2053   -0.6814 H   0  0  0  0  0  0  0  0  0  0  0  0
   -3.9381    2.8632    0.9765 N   0  0  0  0  0  0  0  0  0  0  0  0
   -4.8918    3.0843    1.2286 H   0  0  0  0  0  0  0  0  0  0  0  0
   -3.1316    1.9254    1.5821 C   0  0  0  0  0  0  0  0  0  0  0  0
   -3.3827    1.2717    2.4078 H   0  0  0  0  0  0  0  0  0  0  0  0
    0.6529   -0.9181    0.3811 C   0  0  0  0  0  0  0  0  0  0  0  0
    0.6335   -2.1469    0.3106 O   0  0  0  0  0  0  0  0  0  0  0  0
    1.7788   -0.2322    0.6023 N   0  0  0  0  0  0  0  0  0  0  0  0
    1.6869    0.7665    0.7510 H   0  0  0  0  0  0  0  0  0  0  0  0
    3.0991   -0.8318    0.7808 C   0  0  0  0  0  0  0  0  0  0  0  0
    3.2018   -1.7114    0.1401 H   0  0  0  0  0  0  0  0  0  0  0  0
    3.8732   -0.1084    0.5206 H   0  0  0  0  0  0  0  0  0  0  0  0
    3.2241   -1.1371    1.8209 H   0  0  0  0  0  0  0  0  0  0  0  0
  5  6  2  0  0  0  0
  5  7  1  0  0  0  0
  2  3  1  0  0  0  0
  2  4  1  0  0  0  0
  2  5  1  0  0  0  0
  1  2  1  0  0  0  0
 22 23  2  0  0  0  0
 22 24  1  0  0  0  0
 20 21  1  0  0  0  0
 18 19  1  0  0  0  0
 18 20  1  0  0  0  0
 16 17  1  0  0  0  0
 16 18  1  0  0  0  0
 15 16  2  0  0  0  0
 14 15  1  0  0  0  0
 14 20  2  0  0  0  0
 11 12  1  0  0  0  0
 11 13  1  0  0  0  0
 11 14  1  0  0  0  0
  9 10  1  0  0  0  0
  9 11  1  0  0  0  0
  9 22  1  0  0  0  0
  7  8  1  0  0  0  0
  7  9  1  0  0  0  0
 26 27  1  0  0  0  0
 26 28  1  0  0  0  0
 26 29  1  0  0  0  0
 24 25  1  0  0  0  0
 24 26  1  0  0  0  0
M  END
$$$$
default_name
  -OEChem-01062215323D

 29 29  0     1  0  0  0  0  0999 V2000
   -2.9561   -3.9186    1.3887 H   0  0  0  0  0  0  0  0  0  0  0  0
   -3.1191   -2.9346    0.9517 C   0  0  0  0  0  0  0  0  0  0  0  0
   -3.7811   -2.3546    1.5917 H   0  0  0  0  0  0  0  0  0  0  0  0
   -3.5591   -3.0406   -0.0383 H   0  0  0  0  0  0  0  0  0  0  0  0
   -1.7921   -2.2226    0.8327 C   0  0  0  0  0  0  0  0  0  0  0  0
   -0.7611   -2.7766    1.1927 O   0  0  0  0  0  0  0  0  0  0  0  0
   -1.8201   -0.9926    0.3247 N   0  0  0  0  0  0  0  0  0  0  0  0
   -2.7141   -0.5816    0.0927 H   0  0  0  0  0  0  0  0  0  0  0  0
   -0.6481   -0.1156    0.2017 C   0  0  1  0  0  0  0  0  0  0  0  0
   -0.6386    0.3004   -0.8078 H   0  0  0  0  0  0  0  0  0  0  0  0
   -0.7641    1.0507    1.2023 C   0  0  0  0  0  0  0  0  0  0  0  0
   -0.8925    0.6591    2.2125 H   0  0  0  0  0  0  0  0  0  0  0  0
    0.1550    1.6382    1.1924 H   0  0  0  0  0  0  0  0  0  0  0  0
   -1.9402    1.9529    0.9180 C   0  0  0  0  0  0  0  0  0  0  0  0
   -2.0203    2.8917   -0.1114 N   0  0  0  0  0  0  0  0  0  0  0  0
   -3.2459    3.4294   -0.0262 C   0  0  0  0  0  0  0  0  0  0  0  0
   -3.6212    4.2053   -0.6814 H   0  0  0  0  0  0  0  0  0  0  0  0
   -3.9381    2.8632    0.9765 N   0  0  0  0  0  0  0  0  0  0  0  0
   -4.8918    3.0843    1.2286 H   0  0  0  0  0  0  0  0  0  0  0  0
   -3.1316    1.9254    1.5821 C   0  0  0  0  0  0  0  0  0  0  0  0
   -3.3827    1.2717    2.4078 H   0  0  0  0  0  0  0  0  0  0  0  0
    0.6529   -0.9181    0.3811 C   0  0  0  0  0  0  0  0  0  0  0  0
    0.6985   -2.1011    0.0440 O   0  0  0  0  0  0  0  0  0  0  0  0
    1.7077   -0.2810    0.8992 N   0  0  0  0  0  0  0  0  0  0  0  0
    1.5521    0.6587    1.2467 H   0  0  0  0  0  0  0  0  0  0  0  0
    3.0188   -0.8851    1.1243 C   0  0  0  0  0  0  0  0  0  0  0  0
    3.2445   -1.5998    0.3288 H   0  0  0  0  0  0  0  0  0  0  0  0
    3.7869   -0.1105    1.1367 H   0  0  0  0  0  0  0  0  0  0  0  0
    3.0195   -1.4107    2.0807 H   0  0  0  0  0  0  0  0  0  0  0  0
  5  6  2  0  0  0  0
  5  7  1  0  0  0  0
  2  3  1  0  0  0  0
  2  4  1  0  0  0  0
  2  5  1  0  0  0  0
  1  2  1  0  0  0  0
 22 23  2  0  0  0  0
 22 24  1  0  0  0  0
 20 21  1  0  0  0  0
 18 19  1  0  0  0  0
 18 20  1  0  0  0  0
 16 17  1  0  0  0  0
 16 18  1  0  0  0  0
 15 16  2  0  0  0  0
 14 15  1  0  0  0  0
 14 20  2  0  0  0  0
 11 12  1  0  0  0  0
 11 13  1  0  0  0  0
 11 14  1  0  0  0  0
  9 10  1  0  0  0  0
  9 11  1  0  0  0  0
  9 22  1  0  0  0  0
  7  8  1  0  0  0  0
  7  9  1  0  0  0  0
 26 27  1  0  0  0  0
 26 28  1  0  0  0  0
 26 29  1  0  0  0  0
 24 25  1  0  0  0  0
 24 26  1  0  0  0  0
M  END
$$$$
default_name
  -OEChem-01062215323D

 29 29  0     1  0  0  0  0  0999 V2000
   -2.9561   -3.9186    1.3887 H   0  0  0  0  0  0  0  0  0  0  0  0
   -3.1191   -2.9346    0.9517 C   0  0  0  0  0  0  0  0  0  0  0  0
   -3.7811   -2.3546    1.5917 H   0  0  0  0  0  0  0  0  0  0  0  0
   -3.5591   -3.0406   -0.0383 H   0  0  0  0  0  0  0  0  0  0  0  0
   -1.7921   -2.2226    0.8327 C   0  0  0  0  0  0  0  0  0  0  0  0
   -0.7611   -2.7766    1.1927 O   0  0  0  0  0  0  0  0  0  0  0  0
   -1.8201   -0.9926    0.3247 N   0  0  0  0  0  0  0  0  0  0  0  0
   -2.7141   -0.5816    0.0927 H   0  0  0  0  0  0  0  0  0  0  0  0
   -0.6481   -0.1156    0.2017 C   0  0  1  0  0  0  0  0  0  0  0  0
   -0.6386    0.3004   -0.8078 H   0  0  0  0  0  0  0  0  0  0  0  0
   -0.7641    1.0507    1.2023 C   0  0  0  0  0  0  0  0  0  0  0  0
   -0.8925    0.6591    2.2125 H   0  0  0  0  0  0  0  0  0  0  0  0
    0.1550    1.6382    1.1924 H   0  0  0  0  0  0  0  0  0  0  0  0
   -1.9402    1.9529    0.9180 C   0  0  0  0  0  0  0  0  0  0  0  0
   -2.0203    2.8917   -0.1114 N   0  0  0  0  0  0  0  0  0  0  0  0
   -3.2459    3.4294   -0.0262 C   0  0  0  0  0  0  0  0  0  0  0  0
   -3.6212    4.2053   -0.6814 H   0  0  0  0  0  0  0  0  0  0  0  0
   -3.9381    2.8632    0.9765 N   0  0  0  0  0  0  0  0  0  0  0  0
   -4.8918    3.0843    1.2286 H   0  0  0  0  0  0  0  0  0  0  0  0
   -3.1316    1.9254    1.5821 C   0  0  0  0  0  0  0  0  0  0  0  0
   -3.3827    1.2717    2.4078 H   0  0  0  0  0  0  0  0  0  0  0  0
    0.6529   -0.9181    0.3811 C   0  0  0  0  0  0  0  0  0  0  0  0
    0.7959   -1.9966   -0.1948 O   0  0  0  0  0  0  0  0  0  0  0  0
    1.6005   -0.3952    1.1657 N   0  0  0  0  0  0  0  0  0  0  0  0
    1.3582    0.4420    1.6836 H   0  0  0  0  0  0  0  0  0  0  0  0
    2.8965   -1.0142    1.4337 C   0  0  0  0  0  0  0  0  0  0  0  0
    3.2570   -1.5321    0.5412 H   0  0  0  0  0  0  0  0  0  0  0  0
    3.6205   -0.2499    1.7198 H   0  0  0  0  0  0  0  0  0  0  0  0
    2.7951   -1.7379    2.2441 H   0  0  0  0  0  0  0  0  0  0  0  0
  5  6  2  0  0  0  0
  5  7  1  0  0  0  0
  2  3  1  0  0  0  0
  2  4  1  0  0  0  0
  2  5  1  0  0  0  0
  1  2  1  0  0  0  0
 22 23  2  0  0  0  0
 22 24  1  0  0  0  0
 20 21  1  0  0  0  0
 18 19  1  0  0  0  0
 18 20  1  0  0  0  0
 16 17  1  0  0  0  0
 16 18  1  0  0  0  0
 15 16  2  0  0  0  0
 14 15  1  0  0  0  0
 14 20  2  0  0  0  0
 11 12  1  0  0  0  0
 11 13  1  0  0  0  0
 11 14  1  0  0  0  0
  9 10  1  0  0  0  0
  9 11  1  0  0  0  0
  9 22  1  0  0  0  0
  7  8  1  0  0  0  0
  7  9  1  0  0  0  0
 26 27  1  0  0  0  0
 26 28  1  0  0  0  0
 26 29  1  0  0  0  0
 24 25  1  0  0  0  0
 24 26  1  0  0  0  0
M  END
$$$$
default_name
  -OEChem-01062215323D

 29 29  0     1  0  0  0  0  0999 V2000
   -2.9561   -3.9186    1.3887 H   0  0  0  0  0  0  0  0  0  0  0  0
   -3.1191   -2.9346    0.9517 C   0  0  0  0  0  0  0  0  0  0  0  0
   -3.7811   -2.3546    1.5917 H   0  0  0  0  0  0  0  0  0  0  0  0
   -3.5591   -3.0406   -0.0383 H   0  0  0  0  0  0  0  0  0  0  0  0
   -1.7921   -2.2226    0.8327 C   0  0  0  0  0  0  0  0  0  0  0  0
   -0.7611   -2.7766    1.1927 O   0  0  0  0  0  0  0  0  0  0  0  0
   -1.8201   -0.9926    0.3247 N   0  0  0  0  0  0  0  0  0  0  0  0
   -2.7141   -0.5816    0.0927 H   0  0  0  0  0  0  0  0  0  0  0  0
   -0.6481   -0.1156    0.2017 C   0  0  1  0  0  0  0  0  0  0  0  0
   -0.6386    0.3004   -0.8078 H   0  0  0  0  0  0  0  0  0  0  0  0
   -0.7641    1.0507    1.2023 C   0  0  0  0  0  0  0  0  0  0  0  0
   -0.8925    0.6591    2.2125 H   0  0  0  0  0  0  0  0  0  0  0  0
    0.1550    1.6382    1.1924 H   0  0  0  0  0  0  0  0  0  0  0  0
   -1.9402    1.9529    0.9180 C   0  0  0  0  0  0  0  0  0  0  0  0
   -2.0203    2.8917   -0.1114 N   0  0  0  0  0  0  0  0  0  0  0  0
   -3.2459    3.4294   -0.0262 C   0  0  0  0  0  0  0  0  0  0  0  0
   -3.6212    4.2053   -0.6814 H   0  0  0  0  0  0  0  0  0  0  0  0
   -3.9381    2.8632    0.9765 N   0  0  0  0  0  0  0  0  0  0  0  0
   -4.8918    3.0843    1.2286 H   0  0  0  0  0  0  0  0  0  0  0  0
   -3.1316    1.9254    1.5821 C   0  0  0  0  0  0  0  0  0  0  0  0
   -3.3827    1.2717    2.4078 H   0  0  0  0  0  0  0  0  0  0  0  0
    0.6529   -0.9181    0.3811 C   0  0  0  0  0  0  0  0  0  0  0  0
    0.9190   -1.8405   -0.3894 O   0  0  0  0  0  0  0  0  0  0  0  0
    1.4644   -0.5671    1.3837 N   0  0  0  0  0  0  0  0  0  0  0  0
    1.1185    0.1313    2.0321 H   0  0  0  0  0  0  0  0  0  0  0  0
    2.7406   -1.2103    1.6878 C   0  0  0  0  0  0  0  0  0  0  0  0
    3.2384   -1.5127    0.7629 H   0  0  0  0  0  0  0  0  0  0  0  0
    3.3853   -0.5171    2.2300 H   0  0  0  0  0  0  0  0  0  0  0  0
    2.5662   -2.0966    2.3001 H   0  0  0  0  0  0  0  0  0  0  0  0
  5  6  2  0  0  0  0
  5  7  1  0  0  0  0
  2  3  1  0  0  0  0
  2  4  1  0  0  0  0
  2  5  1  0  0  0  0
  1  2  1  0  0  0  0
 22 23  2  0  0  0  0
 22 24  1  0  0  0  0
 20 21  1  0  0  0  0
 18 19  1  0  0  0  0
 18 20  1  0  0  0  0
 16 17  1  0  0  0  0
 16 18  1  0  0  0  0
 15 16  2  0  0  0  0
 14 15  1  0  0  0  0
 14 20  2  0  0  0  0
 11 12  1  0  0  0  0
 11 13  1  0  0  0  0
 11 14  1  0  0  0  0
  9 10  1  0  0  0  0
  9 11  1  0  0  0  0
  9 22  1  0  0  0  0
  7  8  1  0  0  0  0
  7  9  1  0  0  0  0
 26 27  1  0  0  0  0
 26 28  1  0  0  0  0
 26 29  1  0  0  0  0
 24 25  1  0  0  0  0
 24 26  1  0  0  0  0
M  END
$$$$
default_name
  -OEChem-01062215323D

 29 29  0     1  0  0  0  0  0999 V2000
   -2.9561   -3.9186    1.3887 H   0  0  0  0  0  0  0  0  0  0  0  0
   -3.1191   -2.9346    0.9517 C   0  0  0  0  0  0  0  0  0  0  0  0
   -3.7811   -2.3546    1.5917 H   0  0  0  0  0  0  0  0  0  0  0  0
   -3.5591   -3.0406   -0.0383 H   0  0  0  0  0  0  0  0  0  0  0  0
   -1.7921   -2.2226    0.8327 C   0  0  0  0  0  0  0  0  0  0  0  0
   -0.7611   -2.7766    1.1927 O   0  0  0  0  0  0  0  0  0  0  0  0
   -1.8201   -0.9926    0.3247 N   0  0  0  0  0  0  0  0  0  0  0  0
   -2.7141   -0.5816    0.0927 H   0  0  0  0  0  0  0  0  0  0  0  0
   -0.6481   -0.1156    0.2017 C   0  0  1  0  0  0  0  0  0  0  0  0
   -0.6386    0.3004   -0.8078 H   0  0  0  0  0  0  0  0  0  0  0  0
   -0.7641    1.0507    1.2023 C   0  0  0  0  0  0  0  0  0  0  0  0
   -0.8925    0.6591    2.2125 H   0  0  0  0  0  0  0  0  0  0  0  0
    0.1550    1.6382    1.1924 H   0  0  0  0  0  0  0  0  0  0  0  0
   -1.9402    1.9529    0.9180 C   0  0  0  0  0  0  0  0  0  0  0  0
   -2.0203    2.8917   -0.1114 N   0  0  0  0  0  0  0  0  0  0  0  0
   -3.2459    3.4294   -0.0262 C   0  0  0  0  0  0  0  0  0  0  0  0
   -3.6212    4.2053   -0.6814 H   0  0  0  0  0  0  0  0  0  0  0  0
   -3.9381    2.8632    0.9765 N   0  0  0  0  0  0  0  0  0  0  0  0
   -4.8918    3.0843    1.2286 H   0  0  0  0  0  0  0  0  0  0  0  0
   -3.1316    1.9254    1.5821 C   0  0  0  0  0  0  0  0  0  0  0  0
   -3.3827    1.2717    2.4078 H   0  0  0  0  0  0  0  0  0  0  0  0
    0.6529   -0.9181    0.3811 C   0  0  0  0  0  0  0  0  0  0  0  0
    1.0595   -1.6434   -0.5266 O   0  0  0  0  0  0  0  0  0  0  0  0
    1.3088   -0.7850    1.5383 N   0  0  0  0  0  0  0  0  0  0  0  0
    0.8493   -0.2523    2.2684 H   0  0  0  0  0  0  0  0  0  0  0  0
    2.5615   -1.4600    1.8693 C   0  0  0  0  0  0  0  0  0  0  0  0
    3.1899   -1.5431    0.9788 H   0  0  0  0  0  0  0  0  0  0  0  0
    3.0973   -0.8940    2.6326 H   0  0  0  0  0  0  0  0  0  0  0  0
    2.3484   -2.4621    2.2448 H   0  0  0  0  0  0  0  0  0  0  0  0
  5  6  2  0  0  0  0
  5  7  1  0  0  0  0
  2  3  1  0  0  0  0
  2  4  1  0  0  0  0
  2  5  1  0  0  0  0
  1  2  1  0  0  0  0
 22 23  2  0  0  0  0
 22 24  1  0  0  0  0
 20 21  1  0  0  0  0
 18 19  1  0  0  0  0
 18 20  1  0  0  0  0
 16 17  1  0  0  0  0
 16 18  1  0  0  0  0
 15 16  2  0  0  0  0
 14 15  1  0  0  0  0
 14 20  2  0  0  0  0
 11 12  1  0  0  0  0
 11 13  1  0  0  0  0
 11 14  1  0  0  0  0
  9 10  1  0  0  0  0
  9 11  1  0  0  0  0
  9 22  1  0  0  0  0
  7  8  1  0  0  0  0
  7  9  1  0  0  0  0
 26 27  1  0  0  0  0
 26 28  1  0  0  0  0
 26 29  1  0  0  0  0
 24 25  1  0  0  0  0
 24 26  1  0  0  0  0
M  END
$$$$
default_name
  -OEChem-01062215323D

 29 29  0     1  0  0  0  0  0999 V2000
   -2.9561   -3.9186    1.3887 H   0  0  0  0  0  0  0  0  0  0  0  0
   -3.1191   -2.9346    0.9517 C   0  0  0  0  0  0  0  0  0  0  0  0
   -3.7811   -2.3546    1.5917 H   0  0  0  0  0  0  0  0  0  0  0  0
   -3.5591   -3.0406   -0.0383 H   0  0  0  0  0  0  0  0  0  0  0  0
   -1.7921   -2.2226    0.8327 C   0  0  0  0  0  0  0  0  0  0  0  0
   -0.7611   -2.7766    1.1927 O   0  0  0  0  0  0  0  0  0  0  0  0
   -1.8201   -0.9926    0.3247 N   0  0  0  0  0  0  0  0  0  0  0  0
   -2.7141   -0.5816    0.0927 H   0  0  0  0  0  0  0  0  0  0  0  0
   -0.6481   -0.1156    0.2017 C   0  0  1  0  0  0  0  0  0  0  0  0
   -0.6386    0.3004   -0.8078 H   0  0  0  0  0  0  0  0  0  0  0  0
   -0.7641    1.0507    1.2023 C   0  0  0  0  0  0  0  0  0  0  0  0
   -0.8925    0.6591    2.2125 H   0  0  0  0  0  0  0  0  0  0  0  0
    0.1550    1.6382    1.1924 H   0  0  0  0  0  0  0  0  0  0  0  0
   -1.9402    1.9529    0.9180 C   0  0  0  0  0  0  0  0  0  0  0  0
   -2.0203    2.8917   -0.1114 N   0  0  0  0  0  0  0  0  0  0  0  0
   -3.2459    3.4294   -0.0262 C   0  0  0  0  0  0  0  0  0  0  0  0
   -3.6212    4.2053   -0.6814 H   0  0  0  0  0  0  0  0  0  0  0  0
   -3.9381    2.8632    0.9765 N   0  0  0  0  0  0  0  0  0  0  0  0
   -4.8918    3.0843    1.2286 H   0  0  0  0  0  0  0  0  0  0  0  0
   -3.1316    1.9254    1.5821 C   0  0  0  0  0  0  0  0  0  0  0  0
   -3.3827    1.2717    2.4078 H   0  0  0  0  0  0  0  0  0  0  0  0
    0.6529   -0.9181    0.3811 C   0  0  0  0  0  0  0  0  0  0  0  0
    1.2078   -1.4188   -0.5971 O   0  0  0  0  0  0  0  0  0  0  0  0
    1.1441   -1.0339    1.6189 N   0  0  0  0  0  0  0  0  0  0  0  0
    0.5690   -0.6827    2.3764 H   0  0  0  0  0  0  0  0  0  0  0  0
    2.3716   -1.7463    1.9658 C   0  0  0  0  0  0  0  0  0  0  0  0
    3.1148   -1.6211    1.1741 H   0  0  0  0  0  0  0  0  0  0  0  0
    2.7762   -1.3548    2.9002 H   0  0  0  0  0  0  0  0  0  0  0  0
    2.1564   -2.8097    2.0820 H   0  0  0  0  0  0  0  0  0  0  0  0
  5  6  2  0  0  0  0
  5  7  1  0  0  0  0
  2  3  1  0  0  0  0
  2  4  1  0  0  0  0
  2  5  1  0  0  0  0
  1  2  1  0  0  0  0
 22 23  2  0  0  0  0
 22 24  1  0  0  0  0
 20 21  1  0  0  0  0
 18 19  1  0  0  0  0
 18 20  1  0  0  0  0
 16 17  1  0  0  0  0
 16 18  1  0  0  0  0
 15 16  2  0  0  0  0
 14 15  1  0  0  0  0
 14 20  2  0  0  0  0
 11 12  1  0  0  0  0
 11 13  1  0  0  0  0
 11 14  1  0  0  0  0
  9 10  1  0  0  0  0
  9 11  1  0  0  0  0
  9 22  1  0  0  0  0
  7  8  1  0  0  0  0
  7  9  1  0  0  0  0
 26 27  1  0  0  0  0
 26 28  1  0  0  0  0
 26 29  1  0  0  0  0
 24 25  1  0  0  0  0
 24 26  1  0  0  0  0
M  END
$$$$
default_name
  -OEChem-01062215323D

 29 29  0     1  0  0  0  0  0999 V2000
   -2.9561   -3.9186    1.3887 H   0  0  0  0  0  0  0  0  0  0  0  0
   -3.1191   -2.9346    0.9517 C   0  0  0  0  0  0  0  0  0  0  0  0
   -3.7811   -2.3546    1.5917 H   0  0  0  0  0  0  0  0  0  0  0  0
   -3.5591   -3.0406   -0.0383 H   0  0  0  0  0  0  0  0  0  0  0  0
   -1.7921   -2.2226    0.8327 C   0  0  0  0  0  0  0  0  0  0  0  0
   -0.7611   -2.7766    1.1927 O   0  0  0  0  0  0  0  0  0  0  0  0
   -1.8201   -0.9926    0.3247 N   0  0  0  0  0  0  0  0  0  0  0  0
   -2.7141   -0.5816    0.0927 H   0  0  0  0  0  0  0  0  0  0  0  0
   -0.6481   -0.1156    0.2017 C   0  0  1  0  0  0  0  0  0  0  0  0
   -0.6386    0.3004   -0.8078 H   0  0  0  0  0  0  0  0  0  0  0  0
   -0.7641    1.0507    1.2023 C   0  0  0  0  0  0  0  0  0  0  0  0
   -0.8925    0.6591    2.2125 H   0  0  0  0  0  0  0  0  0  0  0  0
    0.1550    1.6382    1.1924 H   0  0  0  0  0  0  0  0  0  0  0  0
   -1.9402    1.9529    0.9180 C   0  0  0  0  0  0  0  0  0  0  0  0
   -2.0203    2.8917   -0.1114 N   0  0  0  0  0  0  0  0  0  0  0  0
   -3.2459    3.4294   -0.0262 C   0  0  0  0  0  0  0  0  0  0  0  0
   -3.6212    4.2053   -0.6814 H   0  0  0  0  0  0  0  0  0  0  0  0
   -3.9381    2.8632    0.9765 N   0  0  0  0  0  0  0  0  0  0  0  0
   -4.8918    3.0843    1.2286 H   0  0  0  0  0  0  0  0  0  0  0  0
   -3.1316    1.9254    1.5821 C   0  0  0  0  0  0  0  0  0  0  0  0
   -3.3827    1.2717    2.4078 H   0  0  0  0  0  0  0  0  0  0  0  0
    0.6529   -0.9181    0.3811 C   0  0  0  0  0  0  0  0  0  0  0  0
    1.3537   -1.1819   -0.5960 O   0  0  0  0  0  0  0  0  0  0  0  0
    0.9817   -1.2970    1.6202 N   0  0  0  0  0  0  0  0  0  0  0  0
    0.2966   -1.1305    2.3488 H   0  0  0  0  0  0  0  0  0  0  0  0
    2.1838   -2.0496    1.9707 C   0  0  0  0  0  0  0  0  0  0  0  0
    3.0183   -1.7415    1.3355 H   0  0  0  0  0  0  0  0  0  0  0  0
    2.4438   -1.8682    3.0145 H   0  0  0  0  0  0  0  0  0  0  0  0
    2.0035   -3.1156    1.8228 H   0  0  0  0  0  0  0  0  0  0  0  0
  5  6  2  0  0  0  0
  5  7  1  0  0  0  0
  2  3  1  0  0  0  0
  2  4  1  0  0  0  0
  2  5  1  0  0  0  0
  1  2  1  0  0  0  0
 22 23  2  0  0  0  0
 22 24  1  0  0  0  0
 20 21  1  0  0  0  0
 18 19  1  0  0  0  0
 18 20  1  0  0  0  0
 16 17  1  0  0  0  0
 16 18  1  0  0  0  0
 15 16  2  0  0  0  0
 14 15  1  0  0  0  0
 14 20  2  0  0  0  0
 11 12  1  0  0  0  0
 11 13  1  0  0  0  0
 11 14  1  0  0  0  0
  9 10  1  0  0  0  0
  9 11  1  0  0  0  0
  9 22  1  0  0  0  0
  7  8  1  0  0  0  0
  7  9  1  0  0  0  0
 26 27  1  0  0  0  0
 26 28  1  0  0  0  0
 26 29  1  0  0  0  0
 24 25  1  0  0  0  0
 24 26  1  0  0  0  0
M  END
$$$$
default_name
  -OEChem-01062215323D

 29 29  0     1  0  0  0  0  0999 V2000
   -2.9561   -3.9186    1.3887 H   0  0  0  0  0  0  0  0  0  0  0  0
   -3.1191   -2.9346    0.9517 C   0  0  0  0  0  0  0  0  0  0  0  0
   -3.7811   -2.3546    1.5917 H   0  0  0  0  0  0  0  0  0  0  0  0
   -3.5591   -3.0406   -0.0383 H   0  0  0  0  0  0  0  0  0  0  0  0
   -1.7921   -2.2226    0.8327 C   0  0  0  0  0  0  0  0  0  0  0  0
   -0.7611   -2.7766    1.1927 O   0  0  0  0  0  0  0  0  0  0  0  0
   -1.8201   -0.9926    0.3247 N   0  0  0  0  0  0  0  0  0  0  0  0
   -2.7141   -0.5816    0.0927 H   0  0  0  0  0  0  0  0  0  0  0  0
   -0.6481   -0.1156    0.2017 C   0  0  1  0  0  0  0  0  0  0  0  0
   -0.6386    0.3004   -0.8078 H   0  0  0  0  0  0  0  0  0  0  0  0
   -0.7641    1.0507    1.2023 C   0  0  0  0  0  0  0  0  0  0  0  0
   -0.8925    0.6591    2.2125 H   0  0  0  0  0  0  0  0  0  0  0  0
    0.1550    1.6382    1.1924 H   0  0  0  0  0  0  0  0  0  0  0  0
   -1.9402    1.9529    0.9180 C   0  0  0  0  0  0  0  0  0  0  0  0
   -2.0203    2.8917   -0.1114 N   0  0  0  0  0  0  0  0  0  0  0  0
   -3.2459    3.4294   -0.0262 C   0  0  0  0  0  0  0  0  0  0  0  0
   -3.6212    4.2053   -0.6814 H   0  0  0  0  0  0  0  0  0  0  0  0
   -3.9381    2.8632    0.9765 N   0  0  0  0  0  0  0  0  0  0  0  0
   -4.8918    3.0843    1.2286 H   0  0  0  0  0  0  0  0  0  0  0  0
   -3.1316    1.9254    1.5821 C   0  0  0  0  0  0  0  0  0  0  0  0
   -3.3827    1.2717    2.4078 H   0  0  0  0  0  0  0  0  0  0  0  0
    0.6529   -0.9181    0.3811 C   0  0  0  0  0  0  0  0  0  0  0  0
    1.4874   -0.9489   -0.5234 O   0  0  0  0  0  0  0  0  0  0  0  0
    0.8326   -1.5562    1.5419 N   0  0  0  0  0  0  0  0  0  0  0  0
    0.0507   -1.5652    2.1873 H   0  0  0  0  0  0  0  0  0  0  0  0
    2.0109   -2.3494    1.8838 C   0  0  0  0  0  0  0  0  0  0  0  0
    2.9069   -1.8960    1.4521 H   0  0  0  0  0  0  0  0  0  0  0  0
    2.1228   -2.3991    2.9678 H   0  0  0  0  0  0  0  0  0  0  0  0
    1.9000   -3.3590    1.4849 H   0  0  0  0  0  0  0  0  0  0  0  0
  5  6  2  0  0  0  0
  5  7  1  0  0  0  0
  2  3  1  0  0  0  0
  2  4  1  0  0  0  0
  2  5  1  0  0  0  0
  1  2  1  0  0  0  0
 22 23  2  0  0  0  0
 22 24  1  0  0  0  0
 20 21  1  0  0  0  0
 18 19  1  0  0  0  0
 18 20  1  0  0  0  0
 16 17  1  0  0  0  0
 16 18  1  0  0  0  0
 15 16  2  0  0  0  0
 14 15  1  0  0  0  0
 14 20  2  0  0  0  0
 11 12  1  0  0  0  0
 11 13  1  0  0  0  0
 11 14  1  0  0  0  0
  9 10  1  0  0  0  0
  9 11  1  0  0  0  0
  9 22  1  0  0  0  0
  7  8  1  0  0  0  0
  7  9  1  0  0  0  0
 26 27  1  0  0  0  0
 26 28  1  0  0  0  0
 26 29  1  0  0  0  0
 24 25  1  0  0  0  0
 24 26  1  0  0  0  0
M  END
$$$$
default_name
  -OEChem-01062215323D

 29 29  0     1  0  0  0  0  0999 V2000
   -2.9561   -3.9186    1.3887 H   0  0  0  0  0  0  0  0  0  0  0  0
   -3.1191   -2.9346    0.9517 C   0  0  0  0  0  0  0  0  0  0  0  0
   -3.7811   -2.3546    1.5917 H   0  0  0  0  0  0  0  0  0  0  0  0
   -3.5591   -3.0406   -0.0383 H   0  0  0  0  0  0  0  0  0  0  0  0
   -1.7921   -2.2226    0.8327 C   0  0  0  0  0  0  0  0  0  0  0  0
   -0.7611   -2.7766    1.1927 O   0  0  0  0  0  0  0  0  0  0  0  0
   -1.8201   -0.9926    0.3247 N   0  0  0  0  0  0  0  0  0  0  0  0
   -2.7141   -0.5816    0.0927 H   0  0  0  0  0  0  0  0  0  0  0  0
   -0.6481   -0.1156    0.2017 C   0  0  1  0  0  0  0  0  0  0  0  0
   -0.6386    0.3004   -0.8078 H   0  0  0  0  0  0  0  0  0  0  0  0
   -0.7641    1.0507    1.2023 C   0  0  0  0  0  0  0  0  0  0  0  0
   -0.8925    0.6591    2.2125 H   0  0  0  0  0  0  0  0  0  0  0  0
    0.1550    1.6382    1.1924 H   0  0  0  0  0  0  0  0  0  0  0  0
   -1.9402    1.9529    0.9180 C   0  0  0  0  0  0  0  0  0  0  0  0
   -2.0203    2.8917   -0.1114 N   0  0  0  0  0  0  0  0  0  0  0  0
   -3.2459    3.4294   -0.0262 C   0  0  0  0  0  0  0  0  0  0  0  0
   -3.6212    4.2053   -0.6814 H   0  0  0  0  0  0  0  0  0  0  0  0
   -3.9381    2.8632    0.9765 N   0  0  0  0  0  0  0  0  0  0  0  0
   -4.8918    3.0843    1.2286 H   0  0  0  0  0  0  0  0  0  0  0  0
   -3.1316    1.9254    1.5821 C   0  0  0  0  0  0  0  0  0  0  0  0
   -3.3827    1.2717    2.4078 H   0  0  0  0  0  0  0  0  0  0  0  0
    0.6529   -0.9181    0.3811 C   0  0  0  0  0  0  0  0  0  0  0  0
    1.5997   -0.7358   -0.3843 O   0  0  0  0  0  0  0  0  0  0  0  0
    0.7069   -1.7940    1.3894 N   0  0  0  0  0  0  0  0  0  0  0  0
   -0.1518   -1.9571    1.9031 H   0  0  0  0  0  0  0  0  0  0  0  0
    1.8647   -2.6252    1.7109 C   0  0  0  0  0  0  0  0  0  0  0  0
    2.7883   -2.0741    1.5159 H   0  0  0  0  0  0  0  0  0  0  0  0
    1.8351   -2.9113    2.7632 H   0  0  0  0  0  0  0  0  0  0  0  0
    1.8529   -3.5234    1.0912 H   0  0  0  0  0  0  0  0  0  0  0  0
  5  6  2  0  0  0  0
  5  7  1  0  0  0  0
  2  3  1  0  0  0  0
  2  4  1  0  0  0  0
  2  5  1  0  0  0  0
  1  2  1  0  0  0  0
 22 23  2  0  0  0  0
 22 24  1  0  0  0  0
 20 21  1  0  0  0  0
 18 19  1  0  0  0  0
 18 20  1  0  0  0  0
 16 17  1  0  0  0  0
 16 18  1  0  0  0  0
 15 16  2  0  0  0  0
 14 15  1  0  0  0  0
 14 20  2  0  0  0  0
 11 12  1  0  0  0  0
 11 13  1  0  0  0  0
 11 14  1  0  0  0  0
  9 10  1  0  0  0  0
  9 11  1  0  0  0  0
  9 22  1  0  0  0  0
  7  8  1  0  0  0  0
  7  9  1  0  0  0  0
 26 27  1  0  0  0  0
 26 28  1  0  0  0  0
 26 29  1  0  0  0  0
 24 25  1  0  0  0  0
 24 26  1  0  0  0  0
M  END
$$$$
default_name
  -OEChem-01062215323D

 29 29  0     1  0  0  0  0  0999 V2000
   -2.9561   -3.9186    1.3887 H   0  0  0  0  0  0  0  0  0  0  0  0
   -3.1191   -2.9346    0.9517 C   0  0  0  0  0  0  0  0  0  0  0  0
   -3.7811   -2.3546    1.5917 H   0  0  0  0  0  0  0  0  0  0  0  0
   -3.5591   -3.0406   -0.0383 H   0  0  0  0  0  0  0  0  0  0  0  0
   -1.7921   -2.2226    0.8327 C   0  0  0  0  0  0  0  0  0  0  0  0
   -0.7611   -2.7766    1.1927 O   0  0  0  0  0  0  0  0  0  0  0  0
   -1.8201   -0.9926    0.3247 N   0  0  0  0  0  0  0  0  0  0  0  0
   -2.7141   -0.5816    0.0927 H   0  0  0  0  0  0  0  0  0  0  0  0
   -0.6481   -0.1156    0.2017 C   0  0  1  0  0  0  0  0  0  0  0  0
   -0.6386    0.3004   -0.8078 H   0  0  0  0  0  0  0  0  0  0  0  0
   -0.7641    1.0507    1.2023 C   0  0  0  0  0  0  0  0  0  0  0  0
   -0.8925    0.6591    2.2125 H   0  0  0  0  0  0  0  0  0  0  0  0
    0.1550    1.6382    1.1924 H   0  0  0  0  0  0  0  0  0  0  0  0
   -1.9402    1.9529    0.9180 C   0  0  0  0  0  0  0  0  0  0  0  0
   -2.0203    2.8917   -0.1114 N   0  0  0  0  0  0  0  0  0  0  0  0
   -3.2459    3.4294   -0.0262 C   0  0  0  0  0  0  0  0  0  0  0  0
   -3.6212    4.2053   -0.6814 H   0  0  0  0  0  0  0  0  0  0  0  0
   -3.9381    2.8632    0.9765 N   0  0  0  0  0  0  0  0  0  0  0  0
   -4.8918    3.0843    1.2286 H   0  0  0  0  0  0  0  0  0  0  0  0
   -3.1316    1.9254    1.5821 C   0  0  0  0  0  0  0  0  0  0  0  0
   -3.3827    1.2717    2.4078 H   0  0  0  0  0  0  0  0  0  0  0  0
    0.6529   -0.9181    0.3811 C   0  0  0  0  0  0  0  0  0  0  0  0
    1.6830   -0.5569   -0.1881 O   0  0  0  0  0  0  0  0  0  0  0  0
    0.6133   -1.9942    1.1731 N   0  0  0  0  0  0  0  0  0  0  0  0
   -0.2973   -2.2797    1.5154 H   0  0  0  0  0  0  0  0  0  0  0  0
    1.7551   -2.8582    1.4638 C   0  0  0  0  0  0  0  0  0  0  0  0
    2.6704   -2.2637    1.5226 H   0  0  0  0  0  0  0  0  0  0  0  0
    1.6002   -3.3700    2.4147 H   0  0  0  0  0  0  0  0  0  0  0  0
    1.8655   -3.5974    0.6687 H   0  0  0  0  0  0  0  0  0  0  0  0
  5  6  2  0  0  0  0
  5  7  1  0  0  0  0
  2  3  1  0  0  0  0
  2  4  1  0  0  0  0
  2  5  1  0  0  0  0
  1  2  1  0  0  0  0
 22 23  2  0  0  0  0
 22 24  1  0  0  0  0
 20 21  1  0  0  0  0
 18 19  1  0  0  0  0
 18 20  1  0  0  0  0
 16 17  1  0  0  0  0
 16 18  1  0  0  0  0
 15 16  2  0  0  0  0
 14 15  1  0  0  0  0
 14 20  2  0  0  0  0
 11 12  1  0  0  0  0
 11 13  1  0  0  0  0
 11 14  1  0  0  0  0
  9 10  1  0  0  0  0
  9 11  1  0  0  0  0
  9 22  1  0  0  0  0
  7  8  1  0  0  0  0
  7  9  1  0  0  0  0
 26 27  1  0  0  0  0
 26 28  1  0  0  0  0
 26 29  1  0  0  0  0
 24 25  1  0  0  0  0
 24 26  1  0  0  0  0
M  END
$$$$
default_name
  -OEChem-01062215323D

 29 29  0     1  0  0  0  0  0999 V2000
   -2.9561   -3.9186    1.3887 H   0  0  0  0  0  0  0  0  0  0  0  0
   -3.1191   -2.9346    0.9517 C   0  0  0  0  0  0  0  0  0  0  0  0
   -3.7811   -2.3546    1.5917 H   0  0  0  0  0  0  0  0  0  0  0  0
   -3.5591   -3.0406   -0.0383 H   0  0  0  0  0  0  0  0  0  0  0  0
   -1.7921   -2.2226    0.8327 C   0  0  0  0  0  0  0  0  0  0  0  0
   -0.7611   -2.7766    1.1927 O   0  0  0  0  0  0  0  0  0  0  0  0
   -1.8201   -0.9926    0.3247 N   0  0  0  0  0  0  0  0  0  0  0  0
   -2.7141   -0.5816    0.0927 H   0  0  0  0  0  0  0  0  0  0  0  0
   -0.6481   -0.1156    0.2017 C   0  0  1  0  0  0  0  0  0  0  0  0
   -0.6386    0.3004   -0.8078 H   0  0  0  0  0  0  0  0  0  0  0  0
   -0.7641    1.0507    1.2023 C   0  0  0  0  0  0  0  0  0  0  0  0
   -0.8925    0.6591    2.2125 H   0  0  0  0  0  0  0  0  0  0  0  0
    0.1550    1.6382    1.1924 H   0  0  0  0  0  0  0  0  0  0  0  0
   -1.9402    1.9529    0.9180 C   0  0  0  0  0  0  0  0  0  0  0  0
   -2.0203    2.8917   -0.1114 N   0  0  0  0  0  0  0  0  0  0  0  0
   -3.2459    3.4294   -0.0262 C   0  0  0  0  0  0  0  0  0  0  0  0
   -3.6212    4.2053   -0.6814 H   0  0  0  0  0  0  0  0  0  0  0  0
   -3.9381    2.8632    0.9765 N   0  0  0  0  0  0  0  0  0  0  0  0
   -4.8918    3.0843    1.2286 H   0  0  0  0  0  0  0  0  0  0  0  0
   -3.1316    1.9254    1.5821 C   0  0  0  0  0  0  0  0  0  0  0  0
   -3.3827    1.2717    2.4078 H   0  0  0  0  0  0  0  0  0  0  0  0
    0.6529   -0.9181    0.3811 C   0  0  0  0  0  0  0  0  0  0  0  0
    1.7315   -0.4245    0.0517 O   0  0  0  0  0  0  0  0  0  0  0  0
    0.5581   -2.1430    0.9078 N   0  0  0  0  0  0  0  0  0  0  0  0
   -0.3758   -2.5108    1.0508 H   0  0  0  0  0  0  0  0  0  0  0  0
    1.6896   -3.0324    1.1594 C   0  0  0  0  0  0  0  0  0  0  0  0
    2.5614   -2.4518    1.4716 H   0  0  0  0  0  0  0  0  0  0  0  0
    1.4342   -3.7440    1.9459 H   0  0  0  0  0  0  0  0  0  0  0  0
    1.9370   -3.5760    0.2461 H   0  0  0  0  0  0  0  0  0  0  0  0
  5  6  2  0  0  0  0
  5  7  1  0  0  0  0
  2  3  1  0  0  0  0
  2  4  1  0  0  0  0
  2  5  1  0  0  0  0
  1  2  1  0  0  0  0
 22 23  2  0  0  0  0
 22 24  1  0  0  0  0
 20 21  1  0  0  0  0
 18 19  1  0  0  0  0
 18 20  1  0  0  0  0
 16 17  1  0  0  0  0
 16 18  1  0  0  0  0
 15 16  2  0  0  0  0
 14 15  1  0  0  0  0
 14 20  2  0  0  0  0
 11 12  1  0  0  0  0
 11 13  1  0  0  0  0
 11 14  1  0  0  0  0
  9 10  1  0  0  0  0
  9 11  1  0  0  0  0
  9 22  1  0  0  0  0
  7  8  1  0  0  0  0
  7  9  1  0  0  0  0
 26 27  1  0  0  0  0
 26 28  1  0  0  0  0
 26 29  1  0  0  0  0
 24 25  1  0  0  0  0
 24 26  1  0  0  0  0
M  END
$$$$
default_name
  -OEChem-01062215323D

 29 29  0     1  0  0  0  0  0999 V2000
   -2.9561   -3.9186    1.3887 H   0  0  0  0  0  0  0  0  0  0  0  0
   -3.1191   -2.9346    0.9517 C   0  0  0  0  0  0  0  0  0  0  0  0
   -3.7811   -2.3546    1.5917 H   0  0  0  0  0  0  0  0  0  0  0  0
   -3.5591   -3.0406   -0.0383 H   0  0  0  0  0  0  0  0  0  0  0  0
   -1.7921   -2.2226    0.8327 C   0  0  0  0  0  0  0  0  0  0  0  0
   -0.7611   -2.7766    1.1927 O   0  0  0  0  0  0  0  0  0  0  0  0
   -1.8201   -0.9926    0.3247 N   0  0  0  0  0  0  0  0  0  0  0  0
   -2.7141   -0.5816    0.0927 H   0  0  0  0  0  0  0  0  0  0  0  0
   -0.6481   -0.1156    0.2017 C   0  0  1  0  0  0  0  0  0  0  0  0
   -0.6386    0.3004   -0.8078 H   0  0  0  0  0  0  0  0  0  0  0  0
   -0.7641    1.0507    1.2023 C   0  0  0  0  0  0  0  0  0  0  0  0
   -0.8925    0.6591    2.2125 H   0  0  0  0  0  0  0  0  0  0  0  0
    0.1550    1.6382    1.1924 H   0  0  0  0  0  0  0  0  0  0  0  0
   -1.9402    1.9529    0.9180 C   0  0  0  0  0  0  0  0  0  0  0  0
   -2.0203    2.8917   -0.1114 N   0  0  0  0  0  0  0  0  0  0  0  0
   -3.2459    3.4294   -0.0262 C   0  0  0  0  0  0  0  0  0  0  0  0
   -3.6212    4.2053   -0.6814 H   0  0  0  0  0  0  0  0  0  0  0  0
   -3.9381    2.8632    0.9765 N   0  0  0  0  0  0  0  0  0  0  0  0
   -4.8918    3.0843    1.2286 H   0  0  0  0  0  0  0  0  0  0  0  0
   -3.1316    1.9254    1.5821 C   0  0  0  0  0  0  0  0  0  0  0  0
   -3.3827    1.2717    2.4078 H   0  0  0  0  0  0  0  0  0  0  0  0
    0.6529   -0.9181    0.3811 C   0  0  0  0  0  0  0  0  0  0  0  0
    1.7421   -0.3477    0.3189 O   0  0  0  0  0  0  0  0  0  0  0  0
    0.5451   -2.2304    0.6116 N   0  0  0  0  0  0  0  0  0  0  0  0
   -0.3819   -2.6348    0.5408 H   0  0  0  0  0  0  0  0  0  0  0  0
    1.6726   -3.1362    0.8184 C   0  0  0  0  0  0  0  0  0  0  0  0
    2.4687   -2.6257    1.3665 H   0  0  0  0  0  0  0  0  0  0  0  0
    1.3484   -4.0076    1.3890 H   0  0  0  0  0  0  0  0  0  0  0  0
    2.0624   -3.4608   -0.1478 H   0  0  0  0  0  0  0  0  0  0  0  0
  5  6  2  0  0  0  0
  5  7  1  0  0  0  0
  2  3  1  0  0  0  0
  2  4  1  0  0  0  0
  2  5  1  0  0  0  0
  1  2  1  0  0  0  0
 22 23  2  0  0  0  0
 22 24  1  0  0  0  0
 20 21  1  0  0  0  0
 18 19  1  0  0  0  0
 18 20  1  0  0  0  0
 16 17  1  0  0  0  0
 16 18  1  0  0  0  0
 15 16  2  0  0  0  0
 14 15  1  0  0  0  0
 14 20  2  0  0  0  0
 11 12  1  0  0  0  0
 11 13  1  0  0  0  0
 11 14  1  0  0  0  0
  9 10  1  0  0  0  0
  9 11  1  0  0  0  0
  9 22  1  0  0  0  0
  7  8  1  0  0  0  0
  7  9  1  0  0  0  0
 26 27  1  0  0  0  0
 26 28  1  0  0  0  0
 26 29  1  0  0  0  0
 24 25  1  0  0  0  0
 24 26  1  0  0  0  0
M  END
$$$$
default_name
  -OEChem-01062215323D

 29 29  0     1  0  0  0  0  0999 V2000
   -2.9561   -3.9186    1.3887 H   0  0  0  0  0  0  0  0  0  0  0  0
   -3.1191   -2.9346    0.9517 C   0  0  0  0  0  0  0  0  0  0  0  0
   -3.7811   -2.3546    1.5917 H   0  0  0  0  0  0  0  0  0  0  0  0
   -3.5591   -3.0406   -0.0383 H   0  0  0  0  0  0  0  0  0  0  0  0
   -1.7921   -2.2226    0.8327 C   0  0  0  0  0  0  0  0  0  0  0  0
   -0.7611   -2.7766    1.1927 O   0  0  0  0  0  0  0  0  0  0  0  0
   -1.8201   -0.9926    0.3247 N   0  0  0  0  0  0  0  0  0  0  0  0
   -2.7141   -0.5816    0.0927 H   0  0  0  0  0  0  0  0  0  0  0  0
   -0.6481   -0.1156    0.2017 C   0  0  1  0  0  0  0  0  0  0  0  0
   -0.6386    0.3004   -0.8078 H   0  0  0  0  0  0  0  0  0  0  0  0
   -0.7641    1.0507    1.2023 C   0  0  0  0  0  0  0  0  0  0  0  0
   -0.8925    0.6591    2.2125 H   0  0  0  0  0  0  0  0  0  0  0  0
    0.1550    1.6382    1.1924 H   0  0  0  0  0  0  0  0  0  0  0  0
   -1.9402    1.9529    0.9180 C   0  0  0  0  0  0  0  0  0  0  0  0
   -2.0203    2.8917   -0.1114 N   0  0  0  0  0  0  0  0  0  0  0  0
   -3.2459    3.4294   -0.0262 C   0  0  0  0  0  0  0  0  0  0  0  0
   -3.6212    4.2053   -0.6814 H   0  0  0  0  0  0  0  0  0  0  0  0
   -3.9381    2.8632    0.9765 N   0  0  0  0  0  0  0  0  0  0  0  0
   -4.8918    3.0843    1.2286 H   0  0  0  0  0  0  0  0  0  0  0  0
   -3.1316    1.9254    1.5821 C   0  0  0  0  0  0  0  0  0  0  0  0
   -3.3827    1.2717    2.4078 H   0  0  0  0  0  0  0  0  0  0  0  0
    0.6529   -0.9181    0.3811 C   0  0  0  0  0  0  0  0  0  0  0  0
    1.7139   -0.3316    0.5953 O   0  0  0  0  0  0  0  0  0  0  0  0
    0.5751   -2.2503    0.3045 N   0  0  0  0  0  0  0  0  0  0  0  0
   -0.3153   -2.6432    0.0203 H   0  0  0  0  0  0  0  0  0  0  0  0
    1.7054   -3.1622    0.4640 C   0  0  0  0  0  0  0  0  0  0  0  0
    2.3985   -2.7734    1.2144 H   0  0  0  0  0  0  0  0  0  0  0  0
    1.3487   -4.1430    0.7817 H   0  0  0  0  0  0  0  0  0  0  0  0
    2.2332   -3.2595   -0.4861 H   0  0  0  0  0  0  0  0  0  0  0  0
  5  6  2  0  0  0  0
  5  7  1  0  0  0  0
  2  3  1  0  0  0  0
  2  4  1  0  0  0  0
  2  5  1  0  0  0  0
  1  2  1  0  0  0  0
 22 23  2  0  0  0  0
 22 24  1  0  0  0  0
 20 21  1  0  0  0  0
 18 19  1  0  0  0  0
 18 20  1  0  0  0  0
 16 17  1  0  0  0  0
 16 18  1  0  0  0  0
 15 16  2  0  0  0  0
 14 15  1  0  0  0  0
 14 20  2  0  0  0  0
 11 12  1  0  0  0  0
 11 13  1  0  0  0  0
 11 14  1  0  0  0  0
  9 10  1  0  0  0  0
  9 11  1  0  0  0  0
  9 22  1  0  0  0  0
  7  8  1  0  0  0  0
  7  9  1  0  0  0  0
 26 27  1  0  0  0  0
 26 28  1  0  0  0  0
 26 29  1  0  0  0  0
 24 25  1  0  0  0  0
 24 26  1  0  0  0  0
M  END
$$$$
default_name
  -OEChem-01062215323D

 29 29  0     1  0  0  0  0  0999 V2000
   -2.9561   -3.9186    1.3887 H   0  0  0  0  0  0  0  0  0  0  0  0
   -3.1191   -2.9346    0.9517 C   0  0  0  0  0  0  0  0  0  0  0  0
   -3.7811   -2.3546    1.5917 H   0  0  0  0  0  0  0  0  0  0  0  0
   -3.5591   -3.0406   -0.0383 H   0  0  0  0  0  0  0  0  0  0  0  0
   -1.7921   -2.2226    0.8327 C   0  0  0  0  0  0  0  0  0  0  0  0
   -0.7611   -2.7766    1.1927 O   0  0  0  0  0  0  0  0  0  0  0  0
   -1.8201   -0.9926    0.3247 N   0  0  0  0  0  0  0  0  0  0  0  0
   -2.7141   -0.5816    0.0927 H   0  0  0  0  0  0  0  0  0  0  0  0
   -0.6481   -0.1156    0.2017 C   0  0  1  0  0  0  0  0  0  0  0  0
   -0.6386    0.3004   -0.8078 H   0  0  0  0  0  0  0  0  0  0  0  0
   -0.7641    1.0507    1.2023 C   0  0  0  0  0  0  0  0  0  0  0  0
   -0.8925    0.6591    2.2125 H   0  0  0  0  0  0  0  0  0  0  0  0
    0.1550    1.6382    1.1924 H   0  0  0  0  0  0  0  0  0  0  0  0
   -1.9402    1.9529    0.9180 C   0  0  0  0  0  0  0  0  0  0  0  0
   -2.0203    2.8917   -0.1114 N   0  0  0  0  0  0  0  0  0  0  0  0
   -3.2459    3.4294   -0.0262 C   0  0  0  0  0  0  0  0  0  0  0  0
   -3.6212    4.2053   -0.6814 H   0  0  0  0  0  0  0  0  0  0  0  0
   -3.9381    2.8632    0.9765 N   0  0  0  0  0  0  0  0  0  0  0  0
   -4.8918    3.0843    1.2286 H   0  0  0  0  0  0  0  0  0  0  0  0
   -3.1316    1.9254    1.5821 C   0  0  0  0  0  0  0  0  0  0  0  0
   -3.3827    1.2717    2.4078 H   0  0  0  0  0  0  0  0  0  0  0  0
    0.6529   -0.9181    0.3811 C   0  0  0  0  0  0  0  0  0  0  0  0
    1.6489   -0.3773    0.8619 O   0  0  0  0  0  0  0  0  0  0  0  0
    0.6462   -2.2015    0.0076 N   0  0  0  0  0  0  0  0  0  0  0  0
   -0.1804   -2.5354   -0.4753 H   0  0  0  0  0  0  0  0  0  0  0  0
    1.7857   -3.1089    0.1204 C   0  0  0  0  0  0  0  0  0  0  0  0
    2.3558   -2.8850    1.0258 H   0  0  0  0  0  0  0  0  0  0  0  0
    1.4349   -4.1409    0.1656 H   0  0  0  0  0  0  0  0  0  0  0  0
    2.4377   -2.9859   -0.7459 H   0  0  0  0  0  0  0  0  0  0  0  0
  5  6  2  0  0  0  0
  5  7  1  0  0  0  0
  2  3  1  0  0  0  0
  2  4  1  0  0  0  0
  2  5  1  0  0  0  0
  1  2  1  0  0  0  0
 22 23  2  0  0  0  0
 22 24  1  0  0  0  0
 20 21  1  0  0  0  0
 18 19  1  0  0  0  0
 18 20  1  0  0  0  0
 16 17  1  0  0  0  0
 16 18  1  0  0  0  0
 15 16  2  0  0  0  0
 14 15  1  0  0  0  0
 14 20  2  0  0  0  0
 11 12  1  0  0  0  0
 11 13  1  0  0  0  0
 11 14  1  0  0  0  0
  9 10  1  0  0  0  0
  9 11  1  0  0  0  0
  9 22  1  0  0  0  0
  7  8  1  0  0  0  0
  7  9  1  0  0  0  0
 26 27  1  0  0  0  0
 26 28  1  0  0  0  0
 26 29  1  0  0  0  0
 24 25  1  0  0  0  0
 24 26  1  0  0  0  0
M  END
$$$$
default_name
  -OEChem-01062215323D

 29 29  0     1  0  0  0  0  0999 V2000
   -2.9561   -3.9186    1.3887 H   0  0  0  0  0  0  0  0  0  0  0  0
   -3.1191   -2.9346    0.9517 C   0  0  0  0  0  0  0  0  0  0  0  0
   -3.7811   -2.3546    1.5917 H   0  0  0  0  0  0  0  0  0  0  0  0
   -3.5591   -3.0406   -0.0383 H   0  0  0  0  0  0  0  0  0  0  0  0
   -1.7921   -2.2226    0.8327 C   0  0  0  0  0  0  0  0  0  0  0  0
   -0.7611   -2.7766    1.1927 O   0  0  0  0  0  0  0  0  0  0  0  0
   -1.8201   -0.9926    0.3247 N   0  0  0  0  0  0  0  0  0  0  0  0
   -2.7141   -0.5816    0.0927 H   0  0  0  0  0  0  0  0  0  0  0  0
   -0.6481   -0.1156    0.2017 C   0  0  1  0  0  0  0  0  0  0  0  0
   -0.6386    0.3004   -0.8078 H   0  0  0  0  0  0  0  0  0  0  0  0
   -0.7641    1.0507    1.2023 C   0  0  0  0  0  0  0  0  0  0  0  0
   -0.8925    0.6591    2.2125 H   0  0  0  0  0  0  0  0  0  0  0  0
    0.1550    1.6382    1.1924 H   0  0  0  0  0  0  0  0  0  0  0  0
   -1.9402    1.9529    0.9180 C   0  0  0  0  0  0  0  0  0  0  0  0
   -2.0203    2.8917   -0.1114 N   0  0  0  0  0  0  0  0  0  0  0  0
   -3.2459    3.4294   -0.0262 C   0  0  0  0  0  0  0  0  0  0  0  0
   -3.6212    4.2053   -0.6814 H   0  0  0  0  0  0  0  0  0  0  0  0
   -3.9381    2.8632    0.9765 N   0  0  0  0  0  0  0  0  0  0  0  0
   -4.8918    3.0843    1.2286 H   0  0  0  0  0  0  0  0  0  0  0  0
   -3.1316    1.9254    1.5821 C   0  0  0  0  0  0  0  0  0  0  0  0
   -3.3827    1.2717    2.4078 H   0  0  0  0  0  0  0  0  0  0  0  0
    0.6529   -0.9181    0.3811 C   0  0  0  0  0  0  0  0  0  0  0  0
    1.5515   -0.4818    1.1007 O   0  0  0  0  0  0  0  0  0  0  0  0
    0.7534   -2.0873   -0.2589 N   0  0  0  0  0  0  0  0  0  0  0  0
    0.0135   -2.3187   -0.9123 H   0  0  0  0  0  0  0  0  0  0  0  0
    1.9080   -2.9798   -0.1889 C   0  0  0  0  0  0  0  0  0  0  0  0
    2.3433   -2.9527    0.8133 H   0  0  0  0  0  0  0  0  0  0  0  0
    1.6013   -4.0015   -0.4174 H   0  0  0  0  0  0  0  0  0  0  0  0
    2.6621   -2.6587   -0.9093 H   0  0  0  0  0  0  0  0  0  0  0  0
  5  6  2  0  0  0  0
  5  7  1  0  0  0  0
  2  3  1  0  0  0  0
  2  4  1  0  0  0  0
  2  5  1  0  0  0  0
  1  2  1  0  0  0  0
 22 23  2  0  0  0  0
 22 24  1  0  0  0  0
 20 21  1  0  0  0  0
 18 19  1  0  0  0  0
 18 20  1  0  0  0  0
 16 17  1  0  0  0  0
 16 18  1  0  0  0  0
 15 16  2  0  0  0  0
 14 15  1  0  0  0  0
 14 20  2  0  0  0  0
 11 12  1  0  0  0  0
 11 13  1  0  0  0  0
 11 14  1  0  0  0  0
  9 10  1  0  0  0  0
  9 11  1  0  0  0  0
  9 22  1  0  0  0  0
  7  8  1  0  0  0  0
  7  9  1  0  0  0  0
 26 27  1  0  0  0  0
 26 28  1  0  0  0  0
 26 29  1  0  0  0  0
 24 25  1  0  0  0  0
 24 26  1  0  0  0  0
M  END
$$$$
default_name
  -OEChem-01062215323D

 29 29  0     1  0  0  0  0  0999 V2000
   -2.9561   -3.9186    1.3887 H   0  0  0  0  0  0  0  0  0  0  0  0
   -3.1191   -2.9346    0.9517 C   0  0  0  0  0  0  0  0  0  0  0  0
   -3.7811   -2.3546    1.5917 H   0  0  0  0  0  0  0  0  0  0  0  0
   -3.5591   -3.0406   -0.0383 H   0  0  0  0  0  0  0  0  0  0  0  0
   -1.7921   -2.2226    0.8327 C   0  0  0  0  0  0  0  0  0  0  0  0
   -0.7611   -2.7766    1.1927 O   0  0  0  0  0  0  0  0  0  0  0  0
   -1.8201   -0.9926    0.3247 N   0  0  0  0  0  0  0  0  0  0  0  0
   -2.7141   -0.5816    0.0927 H   0  0  0  0  0  0  0  0  0  0  0  0
   -0.6481   -0.1156    0.2017 C   0  0  1  0  0  0  0  0  0  0  0  0
   -0.6386    0.3004   -0.8078 H   0  0  0  0  0  0  0  0  0  0  0  0
   -0.7641    1.0507    1.2023 C   0  0  0  0  0  0  0  0  0  0  0  0
   -0.8925    0.6591    2.2125 H   0  0  0  0  0  0  0  0  0  0  0  0
    0.1550    1.6382    1.1924 H   0  0  0  0  0  0  0  0  0  0  0  0
   -1.9402    1.9529    0.9180 C   0  0  0  0  0  0  0  0  0  0  0  0
   -2.0203    2.8917   -0.1114 N   0  0  0  0  0  0  0  0  0  0  0  0
   -3.2459    3.4294   -0.0262 C   0  0  0  0  0  0  0  0  0  0  0  0
   -3.6212    4.2053   -0.6814 H   0  0  0  0  0  0  0  0  0  0  0  0
   -3.9381    2.8632    0.9765 N   0  0  0  0  0  0  0  0  0  0  0  0
   -4.8918    3.0843    1.2286 H   0  0  0  0  0  0  0  0  0  0  0  0
   -3.1316    1.9254    1.5821 C   0  0  0  0  0  0  0  0  0  0  0  0
   -3.3827    1.2717    2.4078 H   0  0  0  0  0  0  0  0  0  0  0  0
    0.6529   -0.9181    0.3811 C   0  0  0  0  0  0  0  0  0  0  0  0
    1.4284   -0.6380    1.2953 O   0  0  0  0  0  0  0  0  0  0  0  0
    0.8895   -1.9154   -0.4769 N   0  0  0  0  0  0  0  0  0  0  0  0
    0.2532   -2.0080   -1.2608 H   0  0  0  0  0  0  0  0  0  0  0  0
    2.0640   -2.7837   -0.4430 C   0  0  0  0  0  0  0  0  0  0  0  0
    2.3619   -2.9721    0.5916 H   0  0  0  0  0  0  0  0  0  0  0  0
    1.8365   -3.7343   -0.9277 H   0  0  0  0  0  0  0  0  0  0  0  0
    2.8910   -2.3000   -0.9653 H   0  0  0  0  0  0  0  0  0  0  0  0
  5  6  2  0  0  0  0
  5  7  1  0  0  0  0
  2  3  1  0  0  0  0
  2  4  1  0  0  0  0
  2  5  1  0  0  0  0
  1  2  1  0  0  0  0
 22 23  2  0  0  0  0
 22 24  1  0  0  0  0
 20 21  1  0  0  0  0
 18 19  1  0  0  0  0
 18 20  1  0  0  0  0
 16 17  1  0  0  0  0
 16 18  1  0  0  0  0
 15 16  2  0  0  0  0
 14 15  1  0  0  0  0
 14 20  2  0  0  0  0
 11 12  1  0  0  0  0
 11 13  1  0  0  0  0
 11 14  1  0  0  0  0
  9 10  1  0  0  0  0
  9 11  1  0  0  0  0
  9 22  1  0  0  0  0
  7  8  1  0  0  0  0
  7  9  1  0  0  0  0
 26 27  1  0  0  0  0
 26 28  1  0  0  0  0
 26 29  1  0  0  0  0
 24 25  1  0  0  0  0
 24 26  1  0  0  0  0
M  END
$$$$
default_name
  -OEChem-01062215323D

 29 29  0     1  0  0  0  0  0999 V2000
   -2.9561   -3.9186    1.3887 H   0  0  0  0  0  0  0  0  0  0  0  0
   -3.1191   -2.9346    0.9517 C   0  0  0  0  0  0  0  0  0  0  0  0
   -3.7811   -2.3546    1.5917 H   0  0  0  0  0  0  0  0  0  0  0  0
   -3.5591   -3.0406   -0.0383 H   0  0  0  0  0  0  0  0  0  0  0  0
   -1.7921   -2.2226    0.8327 C   0  0  0  0  0  0  0  0  0  0  0  0
   -0.7611   -2.7766    1.1927 O   0  0  0  0  0  0  0  0  0  0  0  0
   -1.8201   -0.9926    0.3247 N   0  0  0  0  0  0  0  0  0  0  0  0
   -2.7141   -0.5816    0.0927 H   0  0  0  0  0  0  0  0  0  0  0  0
   -0.6481   -0.1156    0.2017 C   0  0  1  0  0  0  0  0  0  0  0  0
   -0.6386    0.3004   -0.8078 H   0  0  0  0  0  0  0  0  0  0  0  0
   -0.7641    1.0507    1.2023 C   0  0  0  0  0  0  0  0  0  0  0  0
   -0.8925    0.6591    2.2125 H   0  0  0  0  0  0  0  0  0  0  0  0
    0.1550    1.6382    1.1924 H   0  0  0  0  0  0  0  0  0  0  0  0
   -1.9402    1.9529    0.9180 C   0  0  0  0  0  0  0  0  0  0  0  0
   -2.0203    2.8917   -0.1114 N   0  0  0  0  0  0  0  0  0  0  0  0
   -3.2459    3.4294   -0.0262 C   0  0  0  0  0  0  0  0  0  0  0  0
   -3.6212    4.2053   -0.6814 H   0  0  0  0  0  0  0  0  0  0  0  0
   -3.9381    2.8632    0.9765 N   0  0  0  0  0  0  0  0  0  0  0  0
   -4.8918    3.0843    1.2286 H   0  0  0  0  0  0  0  0  0  0  0  0
   -3.1316    1.9254    1.5821 C   0  0  0  0  0  0  0  0  0  0  0  0
   -3.3827    1.2717    2.4078 H   0  0  0  0  0  0  0  0  0  0  0  0
    0.6529   -0.9181    0.3811 C   0  0  0  0  0  0  0  0  0  0  0  0
    1.2879   -0.8351    1.4325 O   0  0  0  0  0  0  0  0  0  0  0  0
    1.0452   -1.6976   -0.6315 N   0  0  0  0  0  0  0  0  0  0  0  0
    0.5224   -1.6244   -1.4971 H   0  0  0  0  0  0  0  0  0  0  0  0
    2.2430   -2.5340   -0.6245 C   0  0  0  0  0  0  0  0  0  0  0  0
    2.4104   -2.9417    0.3758 H   0  0  0  0  0  0  0  0  0  0  0  0
    2.1245   -3.3574   -1.3303 H   0  0  0  0  0  0  0  0  0  0  0  0
    3.1089   -1.9345   -0.9100 H   0  0  0  0  0  0  0  0  0  0  0  0
  5  6  2  0  0  0  0
  5  7  1  0  0  0  0
  2  3  1  0  0  0  0
  2  4  1  0  0  0  0
  2  5  1  0  0  0  0
  1  2  1  0  0  0  0
 22 23  2  0  0  0  0
 22 24  1  0  0  0  0
 20 21  1  0  0  0  0
 18 19  1  0  0  0  0
 18 20  1  0  0  0  0
 16 17  1  0  0  0  0
 16 18  1  0  0  0  0
 15 16  2  0  0  0  0
 14 15  1  0  0  0  0
 14 20  2  0  0  0  0
 11 12  1  0  0  0  0
 11 13  1  0  0  0  0
 11 14  1  0  0  0  0
  9 10  1  0  0  0  0
  9 11  1  0  0  0  0
  9 22  1  0  0  0  0
  7  8  1  0  0  0  0
  7  9  1  0  0  0  0
 26 27  1  0  0  0  0
 26 28  1  0  0  0  0
 26 29  1  0  0  0  0
 24 25  1  0  0  0  0
 24 26  1  0  0  0  0
M  END
$$$$
default_name
  -OEChem-01062215323D

 29 29  0     1  0  0  0  0  0999 V2000
   -2.9561   -3.9186    1.3887 H   0  0  0  0  0  0  0  0  0  0  0  0
   -3.1191   -2.9346    0.9517 C   0  0  0  0  0  0  0  0  0  0  0  0
   -3.7811   -2.3546    1.5917 H   0  0  0  0  0  0  0  0  0  0  0  0
   -3.5591   -3.0406   -0.0383 H   0  0  0  0  0  0  0  0  0  0  0  0
   -1.7921   -2.2226    0.8327 C   0  0  0  0  0  0  0  0  0  0  0  0
   -0.7611   -2.7766    1.1927 O   0  0  0  0  0  0  0  0  0  0  0  0
   -1.8201   -0.9926    0.3247 N   0  0  0  0  0  0  0  0  0  0  0  0
   -2.7141   -0.5816    0.0927 H   0  0  0  0  0  0  0  0  0  0  0  0
   -0.6481   -0.1156    0.2017 C   0  0  1  0  0  0  0  0  0  0  0  0
   -0.6386    0.3004   -0.8078 H   0  0  0  0  0  0  0  0  0  0  0  0
   -0.7641    1.0507    1.2023 C   0  0  0  0  0  0  0  0  0  0  0  0
   -0.8925    0.6591    2.2125 H   0  0  0  0  0  0  0  0  0  0  0  0
    0.1550    1.6382    1.1924 H   0  0  0  0  0  0  0  0  0  0  0  0
   -1.9402    1.9529    0.9180 C   0  0  0  0  0  0  0  0  0  0  0  0
   -2.0203    2.8917   -0.1114 N   0  0  0  0  0  0  0  0  0  0  0  0
   -3.2459    3.4294   -0.0262 C   0  0  0  0  0  0  0  0  0  0  0  0
   -3.6212    4.2053   -0.6814 H   0  0  0  0  0  0  0  0  0  0  0  0
   -3.9381    2.8632    0.9765 N   0  0  0  0  0  0  0  0  0  0  0  0
   -4.8918    3.0843    1.2286 H   0  0  0  0  0  0  0  0  0  0  0  0
   -3.1316    1.9254    1.5821 C   0  0  0  0  0  0  0  0  0  0  0  0
   -3.3827    1.2717    2.4078 H   0  0  0  0  0  0  0  0  0  0  0  0
    0.6529   -0.9181    0.3811 C   0  0  0  0  0  0  0  0  0  0  0  0
    1.1396   -1.0597    1.5030 O   0  0  0  0  0  0  0  0  0  0  0  0
    1.2098   -1.4486   -0.7121 N   0  0  0  0  0  0  0  0  0  0  0  0
    0.8027   -1.1940   -1.6051 H   0  0  0  0  0  0  0  0  0  0  0  0
    2.4329   -2.2477   -0.7210 C   0  0  0  0  0  0  0  0  0  0  0  0
    2.4855   -2.8637    0.1804 H   0  0  0  0  0  0  0  0  0  0  0  0
    2.4456   -2.8966   -1.5979 H   0  0  0  0  0  0  0  0  0  0  0  0
    3.3008   -1.5869   -0.7472 H   0  0  0  0  0  0  0  0  0  0  0  0
  5  6  2  0  0  0  0
  5  7  1  0  0  0  0
  2  3  1  0  0  0  0
  2  4  1  0  0  0  0
  2  5  1  0  0  0  0
  1  2  1  0  0  0  0
 22 23  2  0  0  0  0
 22 24  1  0  0  0  0
 20 21  1  0  0  0  0
 18 19  1  0  0  0  0
 18 20  1  0  0  0  0
 16 17  1  0  0  0  0
 16 18  1  0  0  0  0
 15 16  2  0  0  0  0
 14 15  1  0  0  0  0
 14 20  2  0  0  0  0
 11 12  1  0  0  0  0
 11 13  1  0  0  0  0
 11 14  1  0  0  0  0
  9 10  1  0  0  0  0
  9 11  1  0  0  0  0
  9 22  1  0  0  0  0
  7  8  1  0  0  0  0
  7  9  1  0  0  0  0
 26 27  1  0  0  0  0
 26 28  1  0  0  0  0
 26 29  1  0  0  0  0
 24 25  1  0  0  0  0
 24 26  1  0  0  0  0
M  END
$$$$
default_name
  -OEChem-01062215323D

 29 29  0     1  0  0  0  0  0999 V2000
   -2.9561   -3.9186    1.3887 H   0  0  0  0  0  0  0  0  0  0  0  0
   -3.1191   -2.9346    0.9517 C   0  0  0  0  0  0  0  0  0  0  0  0
   -3.7811   -2.3546    1.5917 H   0  0  0  0  0  0  0  0  0  0  0  0
   -3.5591   -3.0406   -0.0383 H   0  0  0  0  0  0  0  0  0  0  0  0
   -1.7921   -2.2226    0.8327 C   0  0  0  0  0  0  0  0  0  0  0  0
   -0.7611   -2.7766    1.1927 O   0  0  0  0  0  0  0  0  0  0  0  0
   -1.8201   -0.9926    0.3247 N   0  0  0  0  0  0  0  0  0  0  0  0
   -2.7141   -0.5816    0.0927 H   0  0  0  0  0  0  0  0  0  0  0  0
   -0.6481   -0.1156    0.2017 C   0  0  1  0  0  0  0  0  0  0  0  0
   -0.6386    0.3004   -0.8078 H   0  0  0  0  0  0  0  0  0  0  0  0
   -0.7641    1.0507    1.2023 C   0  0  0  0  0  0  0  0  0  0  0  0
   -0.8925    0.6591    2.2125 H   0  0  0  0  0  0  0  0  0  0  0  0
    0.1550    1.6382    1.1924 H   0  0  0  0  0  0  0  0  0  0  0  0
   -1.9402    1.9529    0.9180 C   0  0  0  0  0  0  0  0  0  0  0  0
   -2.0203    2.8917   -0.1114 N   0  0  0  0  0  0  0  0  0  0  0  0
   -3.2459    3.4294   -0.0262 C   0  0  0  0  0  0  0  0  0  0  0  0
   -3.6212    4.2053   -0.6814 H   0  0  0  0  0  0  0  0  0  0  0  0
   -3.9381    2.8632    0.9765 N   0  0  0  0  0  0  0  0  0  0  0  0
   -4.8918    3.0843    1.2286 H   0  0  0  0  0  0  0  0  0  0  0  0
   -3.1316    1.9254    1.5821 C   0  0  0  0  0  0  0  0  0  0  0  0
   -3.3827    1.2717    2.4078 H   0  0  0  0  0  0  0  0  0  0  0  0
    0.6529   -0.9181    0.3811 C   0  0  0  0  0  0  0  0  0  0  0  0
    0.9937   -1.2966    1.5019 O   0  0  0  0  0  0  0  0  0  0  0  0
    1.3722   -1.1856   -0.7134 N   0  0  0  0  0  0  0  0  0  0  0  0
    1.0751   -0.7462   -1.5774 H   0  0  0  0  0  0  0  0  0  0  0  0
    2.6207   -1.9444   -0.7259 C   0  0  0  0  0  0  0  0  0  0  0  0
    2.5820   -2.7433    0.0190 H   0  0  0  0  0  0  0  0  0  0  0  0
    2.7780   -2.3832   -1.7122 H   0  0  0  0  0  0  0  0  0  0  0  0
    3.4538   -1.2810   -0.4880 H   0  0  0  0  0  0  0  0  0  0  0  0
  5  6  2  0  0  0  0
  5  7  1  0  0  0  0
  2  3  1  0  0  0  0
  2  4  1  0  0  0  0
  2  5  1  0  0  0  0
  1  2  1  0  0  0  0
 22 23  2  0  0  0  0
 22 24  1  0  0  0  0
 20 21  1  0  0  0  0
 18 19  1  0  0  0  0
 18 20  1  0  0  0  0
 16 17  1  0  0  0  0
 16 18  1  0  0  0  0
 15 16  2  0  0  0  0
 14 15  1  0  0  0  0
 14 20  2  0  0  0  0
 11 12  1  0  0  0  0
 11 13  1  0  0  0  0
 11 14  1  0  0  0  0
  9 10  1  0  0  0  0
  9 11  1  0  0  0  0
  9 22  1  0  0  0  0
  7  8  1  0  0  0  0
  7  9  1  0  0  0  0
 26 27  1  0  0  0  0
 26 28  1  0  0  0  0
 26 29  1  0  0  0  0
 24 25  1  0  0  0  0
 24 26  1  0  0  0  0
M  END
$$$$
default_name
  -OEChem-01062215323D

 29 29  0     1  0  0  0  0  0999 V2000
   -2.9561   -3.9186    1.3887 H   0  0  0  0  0  0  0  0  0  0  0  0
   -3.1191   -2.9346    0.9517 C   0  0  0  0  0  0  0  0  0  0  0  0
   -3.7811   -2.3546    1.5917 H   0  0  0  0  0  0  0  0  0  0  0  0
   -3.5591   -3.0406   -0.0383 H   0  0  0  0  0  0  0  0  0  0  0  0
   -1.7921   -2.2226    0.8327 C   0  0  0  0  0  0  0  0  0  0  0  0
   -0.7611   -2.7766    1.1927 O   0  0  0  0  0  0  0  0  0  0  0  0
   -1.8201   -0.9926    0.3247 N   0  0  0  0  0  0  0  0  0  0  0  0
   -2.7141   -0.5816    0.0927 H   0  0  0  0  0  0  0  0  0  0  0  0
   -0.6481   -0.1156    0.2017 C   0  0  1  0  0  0  0  0  0  0  0  0
   -0.6386    0.3004   -0.8078 H   0  0  0  0  0  0  0  0  0  0  0  0
   -0.7641    1.0507    1.2023 C   0  0  0  0  0  0  0  0  0  0  0  0
   -0.8925    0.6591    2.2125 H   0  0  0  0  0  0  0  0  0  0  0  0
    0.1550    1.6382    1.1924 H   0  0  0  0  0  0  0  0  0  0  0  0
   -1.9402    1.9529    0.9180 C   0  0  0  0  0  0  0  0  0  0  0  0
   -2.0203    2.8917   -0.1114 N   0  0  0  0  0  0  0  0  0  0  0  0
   -3.2459    3.4294   -0.0262 C   0  0  0  0  0  0  0  0  0  0  0  0
   -3.6212    4.2053   -0.6814 H   0  0  0  0  0  0  0  0  0  0  0  0
   -3.9381    2.8632    0.9765 N   0  0  0  0  0  0  0  0  0  0  0  0
   -4.8918    3.0843    1.2286 H   0  0  0  0  0  0  0  0  0  0  0  0
   -3.1316    1.9254    1.5821 C   0  0  0  0  0  0  0  0  0  0  0  0
   -3.3827    1.2717    2.4078 H   0  0  0  0  0  0  0  0  0  0  0  0
    0.6529   -0.9181    0.3811 C   0  0  0  0  0  0  0  0  0  0  0  0
    0.8600   -1.5295    1.4293 O   0  0  0  0  0  0  0  0  0  0  0  0
    1.5213   -0.9263   -0.6351 N   0  0  0  0  0  0  0  0  0  0  0  0
    1.3209   -0.3115   -1.4160 H   0  0  0  0  0  0  0  0  0  0  0  0
    2.7936   -1.6446   -0.6390 C   0  0  0  0  0  0  0  0  0  0  0  0
    2.6934   -2.5888   -0.0976 H   0  0  0  0  0  0  0  0  0  0  0  0
    3.0990   -1.8523   -1.6655 H   0  0  0  0  0  0  0  0  0  0  0  0
    3.5573   -1.0375   -0.1501 H   0  0  0  0  0  0  0  0  0  0  0  0
  5  6  2  0  0  0  0
  5  7  1  0  0  0  0
  2  3  1  0  0  0  0
  2  4  1  0  0  0  0
  2  5  1  0  0  0  0
  1  2  1  0  0  0  0
 22 23  2  0  0  0  0
 22 24  1  0  0  0  0
 20 21  1  0  0  0  0
 18 19  1  0  0  0  0
 18 20  1  0  0  0  0
 16 17  1  0  0  0  0
 16 18  1  0  0  0  0
 15 16  2  0  0  0  0
 14 15  1  0  0  0  0
 14 20  2  0  0  0  0
 11 12  1  0  0  0  0
 11 13  1  0  0  0  0
 11 14  1  0  0  0  0
  9 10  1  0  0  0  0
  9 11  1  0  0  0  0
  9 22  1  0  0  0  0
  7  8  1  0  0  0  0
  7  9  1  0  0  0  0
 26 27  1  0  0  0  0
 26 28  1  0  0  0  0
 26 29  1  0  0  0  0
 24 25  1  0  0  0  0
 24 26  1  0  0  0  0
M  END
$$$$
default_name
  -OEChem-01062215323D

 29 29  0     1  0  0  0  0  0999 V2000
   -2.9561   -3.9186    1.3887 H   0  0  0  0  0  0  0  0  0  0  0  0
   -3.1191   -2.9346    0.9517 C   0  0  0  0  0  0  0  0  0  0  0  0
   -3.7811   -2.3546    1.5917 H   0  0  0  0  0  0  0  0  0  0  0  0
   -3.5591   -3.0406   -0.0383 H   0  0  0  0  0  0  0  0  0  0  0  0
   -1.7921   -2.2226    0.8327 C   0  0  0  0  0  0  0  0  0  0  0  0
   -0.7611   -2.7766    1.1927 O   0  0  0  0  0  0  0  0  0  0  0  0
   -1.8201   -0.9926    0.3247 N   0  0  0  0  0  0  0  0  0  0  0  0
   -2.7141   -0.5816    0.0927 H   0  0  0  0  0  0  0  0  0  0  0  0
   -0.6481   -0.1156    0.2017 C   0  0  1  0  0  0  0  0  0  0  0  0
   -0.6386    0.3004   -0.8078 H   0  0  0  0  0  0  0  0  0  0  0  0
   -0.7641    1.0507    1.2023 C   0  0  0  0  0  0  0  0  0  0  0  0
   -0.8925    0.6591    2.2125 H   0  0  0  0  0  0  0  0  0  0  0  0
    0.1550    1.6382    1.1924 H   0  0  0  0  0  0  0  0  0  0  0  0
   -1.9402    1.9529    0.9180 C   0  0  0  0  0  0  0  0  0  0  0  0
   -2.0203    2.8917   -0.1114 N   0  0  0  0  0  0  0  0  0  0  0  0
   -3.2459    3.4294   -0.0262 C   0  0  0  0  0  0  0  0  0  0  0  0
   -3.6212    4.2053   -0.6814 H   0  0  0  0  0  0  0  0  0  0  0  0
   -3.9381    2.8632    0.9765 N   0  0  0  0  0  0  0  0  0  0  0  0
   -4.8918    3.0843    1.2286 H   0  0  0  0  0  0  0  0  0  0  0  0
   -3.1316    1.9254    1.5821 C   0  0  0  0  0  0  0  0  0  0  0  0
   -3.3827    1.2717    2.4078 H   0  0  0  0  0  0  0  0  0  0  0  0
    0.6529   -0.9181    0.3811 C   0  0  0  0  0  0  0  0  0  0  0  0
    0.7477   -1.7427    1.2902 O   0  0  0  0  0  0  0  0  0  0  0  0
    1.6470   -0.6885   -0.4826 N   0  0  0  0  0  0  0  0  0  0  0  0
    1.5235    0.0805   -1.1317 H   0  0  0  0  0  0  0  0  0  0  0  0
    2.9398   -1.3688   -0.4661 C   0  0  0  0  0  0  0  0  0  0  0  0
    2.8120   -2.4107   -0.1614 H   0  0  0  0  0  0  0  0  0  0  0  0
    3.3868   -1.3401   -1.4609 H   0  0  0  0  0  0  0  0  0  0  0  0
    3.6043   -0.8732    0.2436 H   0  0  0  0  0  0  0  0  0  0  0  0
  5  6  2  0  0  0  0
  5  7  1  0  0  0  0
  2  3  1  0  0  0  0
  2  4  1  0  0  0  0
  2  5  1  0  0  0  0
  1  2  1  0  0  0  0
 22 23  2  0  0  0  0
 22 24  1  0  0  0  0
 20 21  1  0  0  0  0
 18 19  1  0  0  0  0
 18 20  1  0  0  0  0
 16 17  1  0  0  0  0
 16 18  1  0  0  0  0
 15 16  2  0  0  0  0
 14 15  1  0  0  0  0
 14 20  2  0  0  0  0
 11 12  1  0  0  0  0
 11 13  1  0  0  0  0
 11 14  1  0  0  0  0
  9 10  1  0  0  0  0
  9 11  1  0  0  0  0
  9 22  1  0  0  0  0
  7  8  1  0  0  0  0
  7  9  1  0  0  0  0
 26 27  1  0  0  0  0
 26 28  1  0  0  0  0
 26 29  1  0  0  0  0
 24 25  1  0  0  0  0
 24 26  1  0  0  0  0
M  END
$$$$
default_name
  -OEChem-01062215323D

 29 29  0     1  0  0  0  0  0999 V2000
   -2.9561   -3.9186    1.3887 H   0  0  0  0  0  0  0  0  0  0  0  0
   -3.1191   -2.9346    0.9517 C   0  0  0  0  0  0  0  0  0  0  0  0
   -3.7811   -2.3546    1.5917 H   0  0  0  0  0  0  0  0  0  0  0  0
   -3.5591   -3.0406   -0.0383 H   0  0  0  0  0  0  0  0  0  0  0  0
   -1.7921   -2.2226    0.8327 C   0  0  0  0  0  0  0  0  0  0  0  0
   -0.7611   -2.7766    1.1927 O   0  0  0  0  0  0  0  0  0  0  0  0
   -1.8201   -0.9926    0.3247 N   0  0  0  0  0  0  0  0  0  0  0  0
   -2.7141   -0.5816    0.0927 H   0  0  0  0  0  0  0  0  0  0  0  0
   -0.6481   -0.1156    0.2017 C   0  0  1  0  0  0  0  0  0  0  0  0
   -0.6386    0.3004   -0.8078 H   0  0  0  0  0  0  0  0  0  0  0  0
   -0.7641    1.0507    1.2023 C   0  0  0  0  0  0  0  0  0  0  0  0
   -0.8925    0.6591    2.2125 H   0  0  0  0  0  0  0  0  0  0  0  0
    0.1550    1.6382    1.1924 H   0  0  0  0  0  0  0  0  0  0  0  0
   -1.9402    1.9529    0.9180 C   0  0  0  0  0  0  0  0  0  0  0  0
   -2.0203    2.8917   -0.1114 N   0  0  0  0  0  0  0  0  0  0  0  0
   -3.2459    3.4294   -0.0262 C   0  0  0  0  0  0  0  0  0  0  0  0
   -3.6212    4.2053   -0.6814 H   0  0  0  0  0  0  0  0  0  0  0  0
   -3.9381    2.8632    0.9765 N   0  0  0  0  0  0  0  0  0  0  0  0
   -4.8918    3.0843    1.2286 H   0  0  0  0  0  0  0  0  0  0  0  0
   -3.1316    1.9254    1.5821 C   0  0  0  0  0  0  0  0  0  0  0  0
   -3.3827    1.2717    2.4078 H   0  0  0  0  0  0  0  0  0  0  0  0
    0.6529   -0.9181    0.3811 C   0  0  0  0  0  0  0  0  0  0  0  0
    0.6644   -1.9216    1.0940 O   0  0  0  0  0  0  0  0  0  0  0  0
    1.7406   -0.4884   -0.2663 N   0  0  0  0  0  0  0  0  0  0  0  0
    1.6690    0.4030   -0.7441 H   0  0  0  0  0  0  0  0  0  0  0  0
    3.0495   -1.1358   -0.2190 C   0  0  0  0  0  0  0  0  0  0  0  0
    2.9299   -2.2211   -0.1681 H   0  0  0  0  0  0  0  0  0  0  0  0
    3.6216   -0.8813   -1.1123 H   0  0  0  0  0  0  0  0  0  0  0  0
    3.5917   -0.7992    0.6661 H   0  0  0  0  0  0  0  0  0  0  0  0
  5  6  2  0  0  0  0
  5  7  1  0  0  0  0
  2  3  1  0  0  0  0
  2  4  1  0  0  0  0
  2  5  1  0  0  0  0
  1  2  1  0  0  0  0
 22 23  2  0  0  0  0
 22 24  1  0  0  0  0
 20 21  1  0  0  0  0
 18 19  1  0  0  0  0
 18 20  1  0  0  0  0
 16 17  1  0  0  0  0
 16 18  1  0  0  0  0
 15 16  2  0  0  0  0
 14 15  1  0  0  0  0
 14 20  2  0  0  0  0
 11 12  1  0  0  0  0
 11 13  1  0  0  0  0
 11 14  1  0  0  0  0
  9 10  1  0  0  0  0
  9 11  1  0  0  0  0
  9 22  1  0  0  0  0
  7  8  1  0  0  0  0
  7  9  1  0  0  0  0
 26 27  1  0  0  0  0
 26 28  1  0  0  0  0
 26 29  1  0  0  0  0
 24 25  1  0  0  0  0
 24 26  1  0  0  0  0
M  END
$$$$
default_name
  -OEChem-01062215323D

 29 29  0     1  0  0  0  0  0999 V2000
   -2.9561   -3.9186    1.3887 H   0  0  0  0  0  0  0  0  0  0  0  0
   -3.1191   -2.9346    0.9517 C   0  0  0  0  0  0  0  0  0  0  0  0
   -3.7811   -2.3546    1.5917 H   0  0  0  0  0  0  0  0  0  0  0  0
   -3.5591   -3.0406   -0.0383 H   0  0  0  0  0  0  0  0  0  0  0  0
   -1.7921   -2.2226    0.8327 C   0  0  0  0  0  0  0  0  0  0  0  0
   -0.7611   -2.7766    1.1927 O   0  0  0  0  0  0  0  0  0  0  0  0
   -1.8201   -0.9926    0.3247 N   0  0  0  0  0  0  0  0  0  0  0  0
   -2.7141   -0.5816    0.0927 H   0  0  0  0  0  0  0  0  0  0  0  0
   -0.6481   -0.1156    0.2017 C   0  0  1  0  0  0  0  0  0  0  0  0
   -0.6386    0.3004   -0.8078 H   0  0  0  0  0  0  0  0  0  0  0  0
   -0.7641    1.0507    1.2023 C   0  0  0  0  0  0  0  0  0  0  0  0
   -0.8925    0.6591    2.2125 H   0  0  0  0  0  0  0  0  0  0  0  0
    0.1550    1.6382    1.1924 H   0  0  0  0  0  0  0  0  0  0  0  0
   -1.9402    1.9529    0.9180 C   0  0  0  0  0  0  0  0  0  0  0  0
   -2.0203    2.8917   -0.1114 N   0  0  0  0  0  0  0  0  0  0  0  0
   -3.2459    3.4294   -0.0262 C   0  0  0  0  0  0  0  0  0  0  0  0
   -3.6212    4.2053   -0.6814 H   0  0  0  0  0  0  0  0  0  0  0  0
   -3.9381    2.8632    0.9765 N   0  0  0  0  0  0  0  0  0  0  0  0
   -4.8918    3.0843    1.2286 H   0  0  0  0  0  0  0  0  0  0  0  0
   -3.1316    1.9254    1.5821 C   0  0  0  0  0  0  0  0  0  0  0  0
   -3.3827    1.2717    2.4078 H   0  0  0  0  0  0  0  0  0  0  0  0
    0.6529   -0.9181    0.3811 C   0  0  0  0  0  0  0  0  0  0  0  0
    0.6158   -2.0540    0.8542 O   0  0  0  0  0  0  0  0  0  0  0  0
    1.7958   -0.3395   -0.0010 N   0  0  0  0  0  0  0  0  0  0  0  0
    1.7474    0.6342   -0.2795 H   0  0  0  0  0  0  0  0  0  0  0  0
    3.1150   -0.9616    0.0854 C   0  0  0  0  0  0  0  0  0  0  0  0
    3.0389   -2.0330   -0.1171 H   0  0  0  0  0  0  0  0  0  0  0  0
    3.7876   -0.5074   -0.6436 H   0  0  0  0  0  0  0  0  0  0  0  0
    3.5203   -0.8206    1.0887 H   0  0  0  0  0  0  0  0  0  0  0  0
  5  6  2  0  0  0  0
  5  7  1  0  0  0  0
  2  3  1  0  0  0  0
  2  4  1  0  0  0  0
  2  5  1  0  0  0  0
  1  2  1  0  0  0  0
 22 23  2  0  0  0  0
 22 24  1  0  0  0  0
 20 21  1  0  0  0  0
 18 19  1  0  0  0  0
 18 20  1  0  0  0  0
 16 17  1  0  0  0  0
 16 18  1  0  0  0  0
 15 16  2  0  0  0  0
 14 15  1  0  0  0  0
 14 20  2  0  0  0  0
 11 12  1  0  0  0  0
 11 13  1  0  0  0  0
 11 14  1  0  0  0  0
  9 10  1  0  0  0  0
  9 11  1  0  0  0  0
  9 22  1  0  0  0  0
  7  8  1  0  0  0  0
  7  9  1  0  0  0  0
 26 27  1  0  0  0  0
 26 28  1  0  0  0  0
 26 29  1  0  0  0  0
 24 25  1  0  0  0  0
 24 26  1  0  0  0  0
M  END
$$$$
default_name
  -OEChem-01062215323D

 29 29  0     1  0  0  0  0  0999 V2000
   -2.9561   -3.9186    1.3887 H   0  0  0  0  0  0  0  0  0  0  0  0
   -3.1191   -2.9346    0.9517 C   0  0  0  0  0  0  0  0  0  0  0  0
   -3.7811   -2.3546    1.5917 H   0  0  0  0  0  0  0  0  0  0  0  0
   -3.5591   -3.0406   -0.0383 H   0  0  0  0  0  0  0  0  0  0  0  0
   -1.7921   -2.2226    0.8327 C   0  0  0  0  0  0  0  0  0  0  0  0
   -0.7611   -2.7766    1.1927 O   0  0  0  0  0  0  0  0  0  0  0  0
   -1.8201   -0.9926    0.3247 N   0  0  0  0  0  0  0  0  0  0  0  0
   -2.7141   -0.5816    0.0927 H   0  0  0  0  0  0  0  0  0  0  0  0
   -0.6481   -0.1156    0.2017 C   0  0  1  0  0  0  0  0  0  0  0  0
   -0.7766    0.5014   -0.6900 H   0  0  0  0  0  0  0  0  0  0  0  0
   -0.5661    0.8174    1.4255 C   0  0  0  0  0  0  0  0  0  0  0  0
   -0.5539    0.2248    2.3414 H   0  0  0  0  0  0  0  0  0  0  0  0
    0.3624    1.3891    1.3921 H   0  0  0  0  0  0  0  0  0  0  0  0
   -1.7367    1.7654    1.5200 C   0  0  0  0  0  0  0  0  0  0  0  0
   -1.9370    2.8984    0.7302 N   0  0  0  0  0  0  0  0  0  0  0  0
   -3.1140    3.4132    1.1148 C   0  0  0  0  0  0  0  0  0  0  0  0
   -3.5551    4.3106    0.6995 H   0  0  0  0  0  0  0  0  0  0  0  0
   -3.6665    2.6545    2.0762 N   0  0  0  0  0  0  0  0  0  0  0  0
   -4.5616    2.8235    2.5145 H   0  0  0  0  0  0  0  0  0  0  0  0
   -2.8133    1.6068    2.3428 C   0  0  0  0  0  0  0  0  0  0  0  0
   -2.9604    0.7968    3.0461 H   0  0  0  0  0  0  0  0  0  0  0  0
    0.6337   -0.9449    0.0067 C   0  0  0  0  0  0  0  0  0  0  0  0
    0.5720   -2.1737   -0.0353 O   0  0  0  0  0  0  0  0  0  0  0  0
    1.7875   -0.2820   -0.1211 N   0  0  0  0  0  0  0  0  0  0  0  0
    1.7613    0.7199    0.0319 H   0  0  0  0  0  0  0  0  0  0  0  0
    3.0912   -0.9089   -0.3259 C   0  0  0  0  0  0  0  0  0  0  0  0
    2.9862   -1.7970   -0.9545 H   0  0  0  0  0  0  0  0  0  0  0  0
    3.7686   -0.2055   -0.8121 H   0  0  0  0  0  0  0  0  0  0  0  0
    3.5087   -1.2065    0.6373 H   0  0  0  0  0  0  0  0  0  0  0  0
  5  6  2  0  0  0  0
  5  7  1  0  0  0  0
  2  3  1  0  0  0  0
  2  4  1  0  0  0  0
  2  5  1  0  0  0  0
  1  2  1  0  0  0  0
 22 23  2  0  0  0  0
 22 24  1  0  0  0  0
 20 21  1  0  0  0  0
 18 19  1  0  0  0  0
 18 20  1  0  0  0  0
 16 17  1  0  0  0  0
 16 18  1  0  0  0  0
 15 16  2  0  0  0  0
 14 15  1  0  0  0  0
 14 20  2  0  0  0  0
 11 12  1  0  0  0  0
 11 13  1  0  0  0  0
 11 14  1  0  0  0  0
  9 10  1  0  0  0  0
  9 11  1  0  0  0  0
  9 22  1  0  0  0  0
  7  8  1  0  0  0  0
  7  9  1  0  0  0  0
 26 27  1  0  0  0  0
 26 28  1  0  0  0  0
 26 29  1  0  0  0  0
 24 25  1  0  0  0  0
 24 26  1  0  0  0  0
M  END
$$$$
default_name
  -OEChem-01062215323D

 29 29  0     1  0  0  0  0  0999 V2000
   -2.9561   -3.9186    1.3887 H   0  0  0  0  0  0  0  0  0  0  0  0
   -3.1191   -2.9346    0.9517 C   0  0  0  0  0  0  0  0  0  0  0  0
   -3.7811   -2.3546    1.5917 H   0  0  0  0  0  0  0  0  0  0  0  0
   -3.5591   -3.0406   -0.0383 H   0  0  0  0  0  0  0  0  0  0  0  0
   -1.7921   -2.2226    0.8327 C   0  0  0  0  0  0  0  0  0  0  0  0
   -0.7611   -2.7766    1.1927 O   0  0  0  0  0  0  0  0  0  0  0  0
   -1.8201   -0.9926    0.3247 N   0  0  0  0  0  0  0  0  0  0  0  0
   -2.7141   -0.5816    0.0927 H   0  0  0  0  0  0  0  0  0  0  0  0
   -0.6481   -0.1156    0.2017 C   0  0  1  0  0  0  0  0  0  0  0  0
   -0.7766    0.5014   -0.6900 H   0  0  0  0  0  0  0  0  0  0  0  0
   -0.5661    0.8174    1.4255 C   0  0  0  0  0  0  0  0  0  0  0  0
   -0.5539    0.2248    2.3414 H   0  0  0  0  0  0  0  0  0  0  0  0
    0.3624    1.3891    1.3921 H   0  0  0  0  0  0  0  0  0  0  0  0
   -1.7367    1.7654    1.5200 C   0  0  0  0  0  0  0  0  0  0  0  0
   -1.9370    2.8984    0.7302 N   0  0  0  0  0  0  0  0  0  0  0  0
   -3.1140    3.4132    1.1148 C   0  0  0  0  0  0  0  0  0  0  0  0
   -3.5551    4.3106    0.6995 H   0  0  0  0  0  0  0  0  0  0  0  0
   -3.6665    2.6545    2.0762 N   0  0  0  0  0  0  0  0  0  0  0  0
   -4.5616    2.8235    2.5145 H   0  0  0  0  0  0  0  0  0  0  0  0
   -2.8133    1.6068    2.3428 C   0  0  0  0  0  0  0  0  0  0  0  0
   -2.9604    0.7968    3.0461 H   0  0  0  0  0  0  0  0  0  0  0  0
    0.6337   -0.9449    0.0067 C   0  0  0  0  0  0  0  0  0  0  0  0
    0.5572   -2.1320   -0.3100 O   0  0  0  0  0  0  0  0  0  0  0  0
    1.8053   -0.3263    0.1843 N   0  0  0  0  0  0  0  0  0  0  0  0
    1.7751    0.6201    0.5469 H   0  0  0  0  0  0  0  0  0  0  0  0
    3.1137   -0.9570    0.0269 C   0  0  0  0  0  0  0  0  0  0  0  0
    3.0842   -1.6845   -0.7883 H   0  0  0  0  0  0  0  0  0  0  0  0
    3.8660   -0.1995   -0.1977 H   0  0  0  0  0  0  0  0  0  0  0  0
    3.3839   -1.4729    0.9498 H   0  0  0  0  0  0  0  0  0  0  0  0
  5  6  2  0  0  0  0
  5  7  1  0  0  0  0
  2  3  1  0  0  0  0
  2  4  1  0  0  0  0
  2  5  1  0  0  0  0
  1  2  1  0  0  0  0
 22 23  2  0  0  0  0
 22 24  1  0  0  0  0
 20 21  1  0  0  0  0
 18 19  1  0  0  0  0
 18 20  1  0  0  0  0
 16 17  1  0  0  0  0
 16 18  1  0  0  0  0
 15 16  2  0  0  0  0
 14 15  1  0  0  0  0
 14 20  2  0  0  0  0
 11 12  1  0  0  0  0
 11 13  1  0  0  0  0
 11 14  1  0  0  0  0
  9 10  1  0  0  0  0
  9 11  1  0  0  0  0
  9 22  1  0  0  0  0
  7  8  1  0  0  0  0
  7  9  1  0  0  0  0
 26 27  1  0  0  0  0
 26 28  1  0  0  0  0
 26 29  1  0  0  0  0
 24 25  1  0  0  0  0
 24 26  1  0  0  0  0
M  END
$$$$
default_name
  -OEChem-01062215323D

 29 29  0     1  0  0  0  0  0999 V2000
   -2.9561   -3.9186    1.3887 H   0  0  0  0  0  0  0  0  0  0  0  0
   -3.1191   -2.9346    0.9517 C   0  0  0  0  0  0  0  0  0  0  0  0
   -3.7811   -2.3546    1.5917 H   0  0  0  0  0  0  0  0  0  0  0  0
   -3.5591   -3.0406   -0.0383 H   0  0  0  0  0  0  0  0  0  0  0  0
   -1.7921   -2.2226    0.8327 C   0  0  0  0  0  0  0  0  0  0  0  0
   -0.7611   -2.7766    1.1927 O   0  0  0  0  0  0  0  0  0  0  0  0
   -1.8201   -0.9926    0.3247 N   0  0  0  0  0  0  0  0  0  0  0  0
   -2.7141   -0.5816    0.0927 H   0  0  0  0  0  0  0  0  0  0  0  0
   -0.6481   -0.1156    0.2017 C   0  0  1  0  0  0  0  0  0  0  0  0
   -0.7766    0.5014   -0.6900 H   0  0  0  0  0  0  0  0  0  0  0  0
   -0.5661    0.8174    1.4255 C   0  0  0  0  0  0  0  0  0  0  0  0
   -0.5539    0.2248    2.3414 H   0  0  0  0  0  0  0  0  0  0  0  0
    0.3624    1.3891    1.3921 H   0  0  0  0  0  0  0  0  0  0  0  0
   -1.7367    1.7654    1.5200 C   0  0  0  0  0  0  0  0  0  0  0  0
   -1.9370    2.8984    0.7302 N   0  0  0  0  0  0  0  0  0  0  0  0
   -3.1140    3.4132    1.1148 C   0  0  0  0  0  0  0  0  0  0  0  0
   -3.5551    4.3106    0.6995 H   0  0  0  0  0  0  0  0  0  0  0  0
   -3.6665    2.6545    2.0762 N   0  0  0  0  0  0  0  0  0  0  0  0
   -4.5616    2.8235    2.5145 H   0  0  0  0  0  0  0  0  0  0  0  0
   -2.8133    1.6068    2.3428 C   0  0  0  0  0  0  0  0  0  0  0  0
   -2.9604    0.7968    3.0461 H   0  0  0  0  0  0  0  0  0  0  0  0
    0.6337   -0.9449    0.0067 C   0  0  0  0  0  0  0  0  0  0  0  0
    0.5825   -2.0321   -0.5684 O   0  0  0  0  0  0  0  0  0  0  0  0
    1.7785   -0.4354    0.4723 N   0  0  0  0  0  0  0  0  0  0  0  0
    1.7133    0.4122    1.0249 H   0  0  0  0  0  0  0  0  0  0  0  0
    3.0847   -1.0803    0.3606 C   0  0  0  0  0  0  0  0  0  0  0  0
    3.1594   -1.6149   -0.5899 H   0  0  0  0  0  0  0  0  0  0  0  0
    3.8745   -0.3294    0.4107 H   0  0  0  0  0  0  0  0  0  0  0  0
    3.2111   -1.7934    1.1768 H   0  0  0  0  0  0  0  0  0  0  0  0
  5  6  2  0  0  0  0
  5  7  1  0  0  0  0
  2  3  1  0  0  0  0
  2  4  1  0  0  0  0
  2  5  1  0  0  0  0
  1  2  1  0  0  0  0
 22 23  2  0  0  0  0
 22 24  1  0  0  0  0
 20 21  1  0  0  0  0
 18 19  1  0  0  0  0
 18 20  1  0  0  0  0
 16 17  1  0  0  0  0
 16 18  1  0  0  0  0
 15 16  2  0  0  0  0
 14 15  1  0  0  0  0
 14 20  2  0  0  0  0
 11 12  1  0  0  0  0
 11 13  1  0  0  0  0
 11 14  1  0  0  0  0
  9 10  1  0  0  0  0
  9 11  1  0  0  0  0
  9 22  1  0  0  0  0
  7  8  1  0  0  0  0
  7  9  1  0  0  0  0
 26 27  1  0  0  0  0
 26 28  1  0  0  0  0
 26 29  1  0  0  0  0
 24 25  1  0  0  0  0
 24 26  1  0  0  0  0
M  END
$$$$
default_name
  -OEChem-01062215323D

 29 29  0     1  0  0  0  0  0999 V2000
   -2.9561   -3.9186    1.3887 H   0  0  0  0  0  0  0  0  0  0  0  0
   -3.1191   -2.9346    0.9517 C   0  0  0  0  0  0  0  0  0  0  0  0
   -3.7811   -2.3546    1.5917 H   0  0  0  0  0  0  0  0  0  0  0  0
   -3.5591   -3.0406   -0.0383 H   0  0  0  0  0  0  0  0  0  0  0  0
   -1.7921   -2.2226    0.8327 C   0  0  0  0  0  0  0  0  0  0  0  0
   -0.7611   -2.7766    1.1927 O   0  0  0  0  0  0  0  0  0  0  0  0
   -1.8201   -0.9926    0.3247 N   0  0  0  0  0  0  0  0  0  0  0  0
   -2.7141   -0.5816    0.0927 H   0  0  0  0  0  0  0  0  0  0  0  0
   -0.6481   -0.1156    0.2017 C   0  0  1  0  0  0  0  0  0  0  0  0
   -0.7766    0.5014   -0.6900 H   0  0  0  0  0  0  0  0  0  0  0  0
   -0.5661    0.8174    1.4255 C   0  0  0  0  0  0  0  0  0  0  0  0
   -0.5539    0.2248    2.3414 H   0  0  0  0  0  0  0  0  0  0  0  0
    0.3624    1.3891    1.3921 H   0  0  0  0  0  0  0  0  0  0  0  0
   -1.7367    1.7654    1.5200 C   0  0  0  0  0  0  0  0  0  0  0  0
   -1.9370    2.8984    0.7302 N   0  0  0  0  0  0  0  0  0  0  0  0
   -3.1140    3.4132    1.1148 C   0  0  0  0  0  0  0  0  0  0  0  0
   -3.5551    4.3106    0.6995 H   0  0  0  0  0  0  0  0  0  0  0  0
   -3.6665    2.6545    2.0762 N   0  0  0  0  0  0  0  0  0  0  0  0
   -4.5616    2.8235    2.5145 H   0  0  0  0  0  0  0  0  0  0  0  0
   -2.8133    1.6068    2.3428 C   0  0  0  0  0  0  0  0  0  0  0  0
   -2.9604    0.7968    3.0461 H   0  0  0  0  0  0  0  0  0  0  0  0
    0.6337   -0.9449    0.0067 C   0  0  0  0  0  0  0  0  0  0  0  0
    0.6463   -1.8807   -0.7930 O   0  0  0  0  0  0  0  0  0  0  0  0
    1.7089   -0.6021    0.7232 N   0  0  0  0  0  0  0  0  0  0  0  0
    1.5801    0.1103    1.4331 H   0  0  0  0  0  0  0  0  0  0  0  0
    3.0062   -1.2703    0.6522 C   0  0  0  0  0  0  0  0  0  0  0  0
    3.2067   -1.5929   -0.3727 H   0  0  0  0  0  0  0  0  0  0  0  0
    3.7937   -0.5862    0.9716 H   0  0  0  0  0  0  0  0  0  0  0  0
    3.0019   -2.1463    1.3028 H   0  0  0  0  0  0  0  0  0  0  0  0
  5  6  2  0  0  0  0
  5  7  1  0  0  0  0
  2  3  1  0  0  0  0
  2  4  1  0  0  0  0
  2  5  1  0  0  0  0
  1  2  1  0  0  0  0
 22 23  2  0  0  0  0
 22 24  1  0  0  0  0
 20 21  1  0  0  0  0
 18 19  1  0  0  0  0
 18 20  1  0  0  0  0
 16 17  1  0  0  0  0
 16 18  1  0  0  0  0
 15 16  2  0  0  0  0
 14 15  1  0  0  0  0
 14 20  2  0  0  0  0
 11 12  1  0  0  0  0
 11 13  1  0  0  0  0
 11 14  1  0  0  0  0
  9 10  1  0  0  0  0
  9 11  1  0  0  0  0
  9 22  1  0  0  0  0
  7  8  1  0  0  0  0
  7  9  1  0  0  0  0
 26 27  1  0  0  0  0
 26 28  1  0  0  0  0
 26 29  1  0  0  0  0
 24 25  1  0  0  0  0
 24 26  1  0  0  0  0
M  END
$$$$
default_name
  -OEChem-01062215323D

 29 29  0     1  0  0  0  0  0999 V2000
   -2.9561   -3.9186    1.3887 H   0  0  0  0  0  0  0  0  0  0  0  0
   -3.1191   -2.9346    0.9517 C   0  0  0  0  0  0  0  0  0  0  0  0
   -3.7811   -2.3546    1.5917 H   0  0  0  0  0  0  0  0  0  0  0  0
   -3.5591   -3.0406   -0.0383 H   0  0  0  0  0  0  0  0  0  0  0  0
   -1.7921   -2.2226    0.8327 C   0  0  0  0  0  0  0  0  0  0  0  0
   -0.7611   -2.7766    1.1927 O   0  0  0  0  0  0  0  0  0  0  0  0
   -1.8201   -0.9926    0.3247 N   0  0  0  0  0  0  0  0  0  0  0  0
   -2.7141   -0.5816    0.0927 H   0  0  0  0  0  0  0  0  0  0  0  0
   -0.6481   -0.1156    0.2017 C   0  0  1  0  0  0  0  0  0  0  0  0
   -0.7766    0.5014   -0.6900 H   0  0  0  0  0  0  0  0  0  0  0  0
   -0.5661    0.8174    1.4255 C   0  0  0  0  0  0  0  0  0  0  0  0
   -0.5539    0.2248    2.3414 H   0  0  0  0  0  0  0  0  0  0  0  0
    0.3624    1.3891    1.3921 H   0  0  0  0  0  0  0  0  0  0  0  0
   -1.7367    1.7654    1.5200 C   0  0  0  0  0  0  0  0  0  0  0  0
   -1.9370    2.8984    0.7302 N   0  0  0  0  0  0  0  0  0  0  0  0
   -3.1140    3.4132    1.1148 C   0  0  0  0  0  0  0  0  0  0  0  0
   -3.5551    4.3106    0.6995 H   0  0  0  0  0  0  0  0  0  0  0  0
   -3.6665    2.6545    2.0762 N   0  0  0  0  0  0  0  0  0  0  0  0
   -4.5616    2.8235    2.5145 H   0  0  0  0  0  0  0  0  0  0  0  0
   -2.8133    1.6068    2.3428 C   0  0  0  0  0  0  0  0  0  0  0  0
   -2.9604    0.7968    3.0461 H   0  0  0  0  0  0  0  0  0  0  0  0
    0.6337   -0.9449    0.0067 C   0  0  0  0  0  0  0  0  0  0  0  0
    0.7442   -1.6882   -0.9684 O   0  0  0  0  0  0  0  0  0  0  0  0
    1.6011   -0.8148    0.9200 N   0  0  0  0  0  0  0  0  0  0  0  0
    1.3846   -0.2648    1.7438 H   0  0  0  0  0  0  0  0  0  0  0  0
    2.8834   -1.5141    0.8820 C   0  0  0  0  0  0  0  0  0  0  0  0
    3.2227   -1.6201   -0.1516 H   0  0  0  0  0  0  0  0  0  0  0  0
    3.6289   -0.9526    1.4467 H   0  0  0  0  0  0  0  0  0  0  0  0
    2.7708   -2.5075    1.3194 H   0  0  0  0  0  0  0  0  0  0  0  0
  5  6  2  0  0  0  0
  5  7  1  0  0  0  0
  2  3  1  0  0  0  0
  2  4  1  0  0  0  0
  2  5  1  0  0  0  0
  1  2  1  0  0  0  0
 22 23  2  0  0  0  0
 22 24  1  0  0  0  0
 20 21  1  0  0  0  0
 18 19  1  0  0  0  0
 18 20  1  0  0  0  0
 16 17  1  0  0  0  0
 16 18  1  0  0  0  0
 15 16  2  0  0  0  0
 14 15  1  0  0  0  0
 14 20  2  0  0  0  0
 11 12  1  0  0  0  0
 11 13  1  0  0  0  0
 11 14  1  0  0  0  0
  9 10  1  0  0  0  0
  9 11  1  0  0  0  0
  9 22  1  0  0  0  0
  7  8  1  0  0  0  0
  7  9  1  0  0  0  0
 26 27  1  0  0  0  0
 26 28  1  0  0  0  0
 26 29  1  0  0  0  0
 24 25  1  0  0  0  0
 24 26  1  0  0  0  0
M  END
$$$$
default_name
  -OEChem-01062215323D

 29 29  0     1  0  0  0  0  0999 V2000
   -2.9561   -3.9186    1.3887 H   0  0  0  0  0  0  0  0  0  0  0  0
   -3.1191   -2.9346    0.9517 C   0  0  0  0  0  0  0  0  0  0  0  0
   -3.7811   -2.3546    1.5917 H   0  0  0  0  0  0  0  0  0  0  0  0
   -3.5591   -3.0406   -0.0383 H   0  0  0  0  0  0  0  0  0  0  0  0
   -1.7921   -2.2226    0.8327 C   0  0  0  0  0  0  0  0  0  0  0  0
   -0.7611   -2.7766    1.1927 O   0  0  0  0  0  0  0  0  0  0  0  0
   -1.8201   -0.9926    0.3247 N   0  0  0  0  0  0  0  0  0  0  0  0
   -2.7141   -0.5816    0.0927 H   0  0  0  0  0  0  0  0  0  0  0  0
   -0.6481   -0.1156    0.2017 C   0  0  1  0  0  0  0  0  0  0  0  0
   -0.7766    0.5014   -0.6900 H   0  0  0  0  0  0  0  0  0  0  0  0
   -0.5661    0.8174    1.4255 C   0  0  0  0  0  0  0  0  0  0  0  0
   -0.5539    0.2248    2.3414 H   0  0  0  0  0  0  0  0  0  0  0  0
    0.3624    1.3891    1.3921 H   0  0  0  0  0  0  0  0  0  0  0  0
   -1.7367    1.7654    1.5200 C   0  0  0  0  0  0  0  0  0  0  0  0
   -1.9370    2.8984    0.7302 N   0  0  0  0  0  0  0  0  0  0  0  0
   -3.1140    3.4132    1.1148 C   0  0  0  0  0  0  0  0  0  0  0  0
   -3.5551    4.3106    0.6995 H   0  0  0  0  0  0  0  0  0  0  0  0
   -3.6665    2.6545    2.0762 N   0  0  0  0  0  0  0  0  0  0  0  0
   -4.5616    2.8235    2.5145 H   0  0  0  0  0  0  0  0  0  0  0  0
   -2.8133    1.6068    2.3428 C   0  0  0  0  0  0  0  0  0  0  0  0
   -2.9604    0.7968    3.0461 H   0  0  0  0  0  0  0  0  0  0  0  0
    0.6337   -0.9449    0.0067 C   0  0  0  0  0  0  0  0  0  0  0  0
    0.8695   -1.4676   -1.0826 O   0  0  0  0  0  0  0  0  0  0  0  0
    1.4627   -1.0592    1.0491 N   0  0  0  0  0  0  0  0  0  0  0  0
    1.1402   -0.6878    1.9357 H   0  0  0  0  0  0  0  0  0  0  0  0
    2.7247   -1.7951    1.0342 C   0  0  0  0  0  0  0  0  0  0  0  0
    3.2066   -1.6945    0.0583 H   0  0  0  0  0  0  0  0  0  0  0  0
    3.3915   -1.4034    1.8037 H   0  0  0  0  0  0  0  0  0  0  0  0
    2.5334   -2.8523    1.2252 H   0  0  0  0  0  0  0  0  0  0  0  0
  5  6  2  0  0  0  0
  5  7  1  0  0  0  0
  2  3  1  0  0  0  0
  2  4  1  0  0  0  0
  2  5  1  0  0  0  0
  1  2  1  0  0  0  0
 22 23  2  0  0  0  0
 22 24  1  0  0  0  0
 20 21  1  0  0  0  0
 18 19  1  0  0  0  0
 18 20  1  0  0  0  0
 16 17  1  0  0  0  0
 16 18  1  0  0  0  0
 15 16  2  0  0  0  0
 14 15  1  0  0  0  0
 14 20  2  0  0  0  0
 11 12  1  0  0  0  0
 11 13  1  0  0  0  0
 11 14  1  0  0  0  0
  9 10  1  0  0  0  0
  9 11  1  0  0  0  0
  9 22  1  0  0  0  0
  7  8  1  0  0  0  0
  7  9  1  0  0  0  0
 26 27  1  0  0  0  0
 26 28  1  0  0  0  0
 26 29  1  0  0  0  0
 24 25  1  0  0  0  0
 24 26  1  0  0  0  0
M  END
$$$$
default_name
  -OEChem-01062215323D

 29 29  0     1  0  0  0  0  0999 V2000
   -2.9561   -3.9186    1.3887 H   0  0  0  0  0  0  0  0  0  0  0  0
   -3.1191   -2.9346    0.9517 C   0  0  0  0  0  0  0  0  0  0  0  0
   -3.7811   -2.3546    1.5917 H   0  0  0  0  0  0  0  0  0  0  0  0
   -3.5591   -3.0406   -0.0383 H   0  0  0  0  0  0  0  0  0  0  0  0
   -1.7921   -2.2226    0.8327 C   0  0  0  0  0  0  0  0  0  0  0  0
   -0.7611   -2.7766    1.1927 O   0  0  0  0  0  0  0  0  0  0  0  0
   -1.8201   -0.9926    0.3247 N   0  0  0  0  0  0  0  0  0  0  0  0
   -2.7141   -0.5816    0.0927 H   0  0  0  0  0  0  0  0  0  0  0  0
   -0.6481   -0.1156    0.2017 C   0  0  1  0  0  0  0  0  0  0  0  0
   -0.7766    0.5014   -0.6900 H   0  0  0  0  0  0  0  0  0  0  0  0
   -0.5661    0.8174    1.4255 C   0  0  0  0  0  0  0  0  0  0  0  0
   -0.5539    0.2248    2.3414 H   0  0  0  0  0  0  0  0  0  0  0  0
    0.3624    1.3891    1.3921 H   0  0  0  0  0  0  0  0  0  0  0  0
   -1.7367    1.7654    1.5200 C   0  0  0  0  0  0  0  0  0  0  0  0
   -1.9370    2.8984    0.7302 N   0  0  0  0  0  0  0  0  0  0  0  0
   -3.1140    3.4132    1.1148 C   0  0  0  0  0  0  0  0  0  0  0  0
   -3.5551    4.3106    0.6995 H   0  0  0  0  0  0  0  0  0  0  0  0
   -3.6665    2.6545    2.0762 N   0  0  0  0  0  0  0  0  0  0  0  0
   -4.5616    2.8235    2.5145 H   0  0  0  0  0  0  0  0  0  0  0  0
   -2.8133    1.6068    2.3428 C   0  0  0  0  0  0  0  0  0  0  0  0
   -2.9604    0.7968    3.0461 H   0  0  0  0  0  0  0  0  0  0  0  0
    0.6337   -0.9449    0.0067 C   0  0  0  0  0  0  0  0  0  0  0  0
    1.0138   -1.2340   -1.1279 O   0  0  0  0  0  0  0  0  0  0  0  0
    1.3029   -1.3186    1.1019 N   0  0  0  0  0  0  0  0  0  0  0  0
    0.8635   -1.1296    1.9959 H   0  0  0  0  0  0  0  0  0  0  0  0
    2.5410   -2.0942    1.0986 C   0  0  0  0  0  0  0  0  0  0  0  0
    3.1592   -1.8110    0.2428 H   0  0  0  0  0  0  0  0  0  0  0  0
    3.0977   -1.9081    2.0182 H   0  0  0  0  0  0  0  0  0  0  0  0
    2.3058   -3.1574    1.0269 H   0  0  0  0  0  0  0  0  0  0  0  0
  5  6  2  0  0  0  0
  5  7  1  0  0  0  0
  2  3  1  0  0  0  0
  2  4  1  0  0  0  0
  2  5  1  0  0  0  0
  1  2  1  0  0  0  0
 22 23  2  0  0  0  0
 22 24  1  0  0  0  0
 20 21  1  0  0  0  0
 18 19  1  0  0  0  0
 18 20  1  0  0  0  0
 16 17  1  0  0  0  0
 16 18  1  0  0  0  0
 15 16  2  0  0  0  0
 14 15  1  0  0  0  0
 14 20  2  0  0  0  0
 11 12  1  0  0  0  0
 11 13  1  0  0  0  0
 11 14  1  0  0  0  0
  9 10  1  0  0  0  0
  9 11  1  0  0  0  0
  9 22  1  0  0  0  0
  7  8  1  0  0  0  0
  7  9  1  0  0  0  0
 26 27  1  0  0  0  0
 26 28  1  0  0  0  0
 26 29  1  0  0  0  0
 24 25  1  0  0  0  0
 24 26  1  0  0  0  0
M  END
$$$$
default_name
  -OEChem-01062215323D

 29 29  0     1  0  0  0  0  0999 V2000
   -2.9561   -3.9186    1.3887 H   0  0  0  0  0  0  0  0  0  0  0  0
   -3.1191   -2.9346    0.9517 C   0  0  0  0  0  0  0  0  0  0  0  0
   -3.7811   -2.3546    1.5917 H   0  0  0  0  0  0  0  0  0  0  0  0
   -3.5591   -3.0406   -0.0383 H   0  0  0  0  0  0  0  0  0  0  0  0
   -1.7921   -2.2226    0.8327 C   0  0  0  0  0  0  0  0  0  0  0  0
   -0.7611   -2.7766    1.1927 O   0  0  0  0  0  0  0  0  0  0  0  0
   -1.8201   -0.9926    0.3247 N   0  0  0  0  0  0  0  0  0  0  0  0
   -2.7141   -0.5816    0.0927 H   0  0  0  0  0  0  0  0  0  0  0  0
   -0.6481   -0.1156    0.2017 C   0  0  1  0  0  0  0  0  0  0  0  0
   -0.7766    0.5014   -0.6900 H   0  0  0  0  0  0  0  0  0  0  0  0
   -0.5661    0.8174    1.4255 C   0  0  0  0  0  0  0  0  0  0  0  0
   -0.5539    0.2248    2.3414 H   0  0  0  0  0  0  0  0  0  0  0  0
    0.3624    1.3891    1.3921 H   0  0  0  0  0  0  0  0  0  0  0  0
   -1.7367    1.7654    1.5200 C   0  0  0  0  0  0  0  0  0  0  0  0
   -1.9370    2.8984    0.7302 N   0  0  0  0  0  0  0  0  0  0  0  0
   -3.1140    3.4132    1.1148 C   0  0  0  0  0  0  0  0  0  0  0  0
   -3.5551    4.3106    0.6995 H   0  0  0  0  0  0  0  0  0  0  0  0
   -3.6665    2.6545    2.0762 N   0  0  0  0  0  0  0  0  0  0  0  0
   -4.5616    2.8235    2.5145 H   0  0  0  0  0  0  0  0  0  0  0  0
   -2.8133    1.6068    2.3428 C   0  0  0  0  0  0  0  0  0  0  0  0
   -2.9604    0.7968    3.0461 H   0  0  0  0  0  0  0  0  0  0  0  0
    0.6337   -0.9449    0.0067 C   0  0  0  0  0  0  0  0  0  0  0  0
    1.1671   -1.0033   -1.1012 O   0  0  0  0  0  0  0  0  0  0  0  0
    1.1327   -1.5752    1.0747 N   0  0  0  0  0  0  0  0  0  0  0  0
    0.5733   -1.5604    1.9201 H   0  0  0  0  0  0  0  0  0  0  0  0
    2.3448   -2.3909    1.0707 C   0  0  0  0  0  0  0  0  0  0  0  0
    3.0839   -1.9619    0.3893 H   0  0  0  0  0  0  0  0  0  0  0  0
    2.7673   -2.4322    2.0757 H   0  0  0  0  0  0  0  0  0  0  0  0
    2.1037   -3.4018    0.7378 H   0  0  0  0  0  0  0  0  0  0  0  0
  5  6  2  0  0  0  0
  5  7  1  0  0  0  0
  2  3  1  0  0  0  0
  2  4  1  0  0  0  0
  2  5  1  0  0  0  0
  1  2  1  0  0  0  0
 22 23  2  0  0  0  0
 22 24  1  0  0  0  0
 20 21  1  0  0  0  0
 18 19  1  0  0  0  0
 18 20  1  0  0  0  0
 16 17  1  0  0  0  0
 16 18  1  0  0  0  0
 15 16  2  0  0  0  0
 14 15  1  0  0  0  0
 14 20  2  0  0  0  0
 11 12  1  0  0  0  0
 11 13  1  0  0  0  0
 11 14  1  0  0  0  0
  9 10  1  0  0  0  0
  9 11  1  0  0  0  0
  9 22  1  0  0  0  0
  7  8  1  0  0  0  0
  7  9  1  0  0  0  0
 26 27  1  0  0  0  0
 26 28  1  0  0  0  0
 26 29  1  0  0  0  0
 24 25  1  0  0  0  0
 24 26  1  0  0  0  0
M  END
$$$$
default_name
  -OEChem-01062215323D

 29 29  0     1  0  0  0  0  0999 V2000
   -2.9561   -3.9186    1.3887 H   0  0  0  0  0  0  0  0  0  0  0  0
   -3.1191   -2.9346    0.9517 C   0  0  0  0  0  0  0  0  0  0  0  0
   -3.7811   -2.3546    1.5917 H   0  0  0  0  0  0  0  0  0  0  0  0
   -3.5591   -3.0406   -0.0383 H   0  0  0  0  0  0  0  0  0  0  0  0
   -1.7921   -2.2226    0.8327 C   0  0  0  0  0  0  0  0  0  0  0  0
   -0.7611   -2.7766    1.1927 O   0  0  0  0  0  0  0  0  0  0  0  0
   -1.8201   -0.9926    0.3247 N   0  0  0  0  0  0  0  0  0  0  0  0
   -2.7141   -0.5816    0.0927 H   0  0  0  0  0  0  0  0  0  0  0  0
   -0.6481   -0.1156    0.2017 C   0  0  1  0  0  0  0  0  0  0  0  0
   -0.7766    0.5014   -0.6900 H   0  0  0  0  0  0  0  0  0  0  0  0
   -0.5661    0.8174    1.4255 C   0  0  0  0  0  0  0  0  0  0  0  0
   -0.5539    0.2248    2.3414 H   0  0  0  0  0  0  0  0  0  0  0  0
    0.3624    1.3891    1.3921 H   0  0  0  0  0  0  0  0  0  0  0  0
   -1.7367    1.7654    1.5200 C   0  0  0  0  0  0  0  0  0  0  0  0
   -1.9370    2.8984    0.7302 N   0  0  0  0  0  0  0  0  0  0  0  0
   -3.1140    3.4132    1.1148 C   0  0  0  0  0  0  0  0  0  0  0  0
   -3.5551    4.3106    0.6995 H   0  0  0  0  0  0  0  0  0  0  0  0
   -3.6665    2.6545    2.0762 N   0  0  0  0  0  0  0  0  0  0  0  0
   -4.5616    2.8235    2.5145 H   0  0  0  0  0  0  0  0  0  0  0  0
   -2.8133    1.6068    2.3428 C   0  0  0  0  0  0  0  0  0  0  0  0
   -2.9604    0.7968    3.0461 H   0  0  0  0  0  0  0  0  0  0  0  0
    0.6337   -0.9449    0.0067 C   0  0  0  0  0  0  0  0  0  0  0  0
    1.3190   -0.7913   -1.0044 O   0  0  0  0  0  0  0  0  0  0  0  0
    0.9637   -1.8117    0.9693 N   0  0  0  0  0  0  0  0  0  0  0  0
    0.2894   -1.9506    1.7137 H   0  0  0  0  0  0  0  0  0  0  0  0
    2.1494   -2.6651    0.9525 C   0  0  0  0  0  0  0  0  0  0  0  0
    2.9858   -2.1366    0.4878 H   0  0  0  0  0  0  0  0  0  0  0  0
    2.4231   -2.9400    1.9721 H   0  0  0  0  0  0  0  0  0  0  0  0
    1.9408   -3.5689    0.3777 H   0  0  0  0  0  0  0  0  0  0  0  0
  5  6  2  0  0  0  0
  5  7  1  0  0  0  0
  2  3  1  0  0  0  0
  2  4  1  0  0  0  0
  2  5  1  0  0  0  0
  1  2  1  0  0  0  0
 22 23  2  0  0  0  0
 22 24  1  0  0  0  0
 20 21  1  0  0  0  0
 18 19  1  0  0  0  0
 18 20  1  0  0  0  0
 16 17  1  0  0  0  0
 16 18  1  0  0  0  0
 15 16  2  0  0  0  0
 14 15  1  0  0  0  0
 14 20  2  0  0  0  0
 11 12  1  0  0  0  0
 11 13  1  0  0  0  0
 11 14  1  0  0  0  0
  9 10  1  0  0  0  0
  9 11  1  0  0  0  0
  9 22  1  0  0  0  0
  7  8  1  0  0  0  0
  7  9  1  0  0  0  0
 26 27  1  0  0  0  0
 26 28  1  0  0  0  0
 26 29  1  0  0  0  0
 24 25  1  0  0  0  0
 24 26  1  0  0  0  0
M  END
$$$$
default_name
  -OEChem-01062215323D

 29 29  0     1  0  0  0  0  0999 V2000
   -2.9561   -3.9186    1.3887 H   0  0  0  0  0  0  0  0  0  0  0  0
   -3.1191   -2.9346    0.9517 C   0  0  0  0  0  0  0  0  0  0  0  0
   -3.7811   -2.3546    1.5917 H   0  0  0  0  0  0  0  0  0  0  0  0
   -3.5591   -3.0406   -0.0383 H   0  0  0  0  0  0  0  0  0  0  0  0
   -1.7921   -2.2226    0.8327 C   0  0  0  0  0  0  0  0  0  0  0  0
   -0.7611   -2.7766    1.1927 O   0  0  0  0  0  0  0  0  0  0  0  0
   -1.8201   -0.9926    0.3247 N   0  0  0  0  0  0  0  0  0  0  0  0
   -2.7141   -0.5816    0.0927 H   0  0  0  0  0  0  0  0  0  0  0  0
   -0.6481   -0.1156    0.2017 C   0  0  1  0  0  0  0  0  0  0  0  0
   -0.7766    0.5014   -0.6900 H   0  0  0  0  0  0  0  0  0  0  0  0
   -0.5661    0.8174    1.4255 C   0  0  0  0  0  0  0  0  0  0  0  0
   -0.5539    0.2248    2.3414 H   0  0  0  0  0  0  0  0  0  0  0  0
    0.3624    1.3891    1.3921 H   0  0  0  0  0  0  0  0  0  0  0  0
   -1.7367    1.7654    1.5200 C   0  0  0  0  0  0  0  0  0  0  0  0
   -1.9370    2.8984    0.7302 N   0  0  0  0  0  0  0  0  0  0  0  0
   -3.1140    3.4132    1.1148 C   0  0  0  0  0  0  0  0  0  0  0  0
   -3.5551    4.3106    0.6995 H   0  0  0  0  0  0  0  0  0  0  0  0
   -3.6665    2.6545    2.0762 N   0  0  0  0  0  0  0  0  0  0  0  0
   -4.5616    2.8235    2.5145 H   0  0  0  0  0  0  0  0  0  0  0  0
   -2.8133    1.6068    2.3428 C   0  0  0  0  0  0  0  0  0  0  0  0
   -2.9604    0.7968    3.0461 H   0  0  0  0  0  0  0  0  0  0  0  0
    0.6337   -0.9449    0.0067 C   0  0  0  0  0  0  0  0  0  0  0  0
    1.4591   -0.6124   -0.8439 O   0  0  0  0  0  0  0  0  0  0  0  0
    0.8074   -2.0119    0.7930 N   0  0  0  0  0  0  0  0  0  0  0  0
    0.0313   -2.2737    1.3905 H   0  0  0  0  0  0  0  0  0  0  0  0
    1.9682   -2.8981    0.7519 C   0  0  0  0  0  0  0  0  0  0  0  0
    2.8716   -2.3235    0.5316 H   0  0  0  0  0  0  0  0  0  0  0  0
    2.0883   -3.3968    1.7146 H   0  0  0  0  0  0  0  0  0  0  0  0
    1.8282   -3.6474   -0.0289 H   0  0  0  0  0  0  0  0  0  0  0  0
  5  6  2  0  0  0  0
  5  7  1  0  0  0  0
  2  3  1  0  0  0  0
  2  4  1  0  0  0  0
  2  5  1  0  0  0  0
  1  2  1  0  0  0  0
 22 23  2  0  0  0  0
 22 24  1  0  0  0  0
 20 21  1  0  0  0  0
 18 19  1  0  0  0  0
 18 20  1  0  0  0  0
 16 17  1  0  0  0  0
 16 18  1  0  0  0  0
 15 16  2  0  0  0  0
 14 15  1  0  0  0  0
 14 20  2  0  0  0  0
 11 12  1  0  0  0  0
 11 13  1  0  0  0  0
 11 14  1  0  0  0  0
  9 10  1  0  0  0  0
  9 11  1  0  0  0  0
  9 22  1  0  0  0  0
  7  8  1  0  0  0  0
  7  9  1  0  0  0  0
 26 27  1  0  0  0  0
 26 28  1  0  0  0  0
 26 29  1  0  0  0  0
 24 25  1  0  0  0  0
 24 26  1  0  0  0  0
M  END
$$$$
default_name
  -OEChem-01062215323D

 29 29  0     1  0  0  0  0  0999 V2000
   -2.9561   -3.9186    1.3887 H   0  0  0  0  0  0  0  0  0  0  0  0
   -3.1191   -2.9346    0.9517 C   0  0  0  0  0  0  0  0  0  0  0  0
   -3.7811   -2.3546    1.5917 H   0  0  0  0  0  0  0  0  0  0  0  0
   -3.5591   -3.0406   -0.0383 H   0  0  0  0  0  0  0  0  0  0  0  0
   -1.7921   -2.2226    0.8327 C   0  0  0  0  0  0  0  0  0  0  0  0
   -0.7611   -2.7766    1.1927 O   0  0  0  0  0  0  0  0  0  0  0  0
   -1.8201   -0.9926    0.3247 N   0  0  0  0  0  0  0  0  0  0  0  0
   -2.7141   -0.5816    0.0927 H   0  0  0  0  0  0  0  0  0  0  0  0
   -0.6481   -0.1156    0.2017 C   0  0  1  0  0  0  0  0  0  0  0  0
   -0.7766    0.5014   -0.6900 H   0  0  0  0  0  0  0  0  0  0  0  0
   -0.5661    0.8174    1.4255 C   0  0  0  0  0  0  0  0  0  0  0  0
   -0.5539    0.2248    2.3414 H   0  0  0  0  0  0  0  0  0  0  0  0
    0.3624    1.3891    1.3921 H   0  0  0  0  0  0  0  0  0  0  0  0
   -1.7367    1.7654    1.5200 C   0  0  0  0  0  0  0  0  0  0  0  0
   -1.9370    2.8984    0.7302 N   0  0  0  0  0  0  0  0  0  0  0  0
   -3.1140    3.4132    1.1148 C   0  0  0  0  0  0  0  0  0  0  0  0
   -3.5551    4.3106    0.6995 H   0  0  0  0  0  0  0  0  0  0  0  0
   -3.6665    2.6545    2.0762 N   0  0  0  0  0  0  0  0  0  0  0  0
   -4.5616    2.8235    2.5145 H   0  0  0  0  0  0  0  0  0  0  0  0
   -2.8133    1.6068    2.3428 C   0  0  0  0  0  0  0  0  0  0  0  0
   -2.9604    0.7968    3.0461 H   0  0  0  0  0  0  0  0  0  0  0  0
    0.6337   -0.9449    0.0067 C   0  0  0  0  0  0  0  0  0  0  0  0
    1.5780   -0.4787   -0.6308 O   0  0  0  0  0  0  0  0  0  0  0  0
    0.6744   -2.1621    0.5578 N   0  0  0  0  0  0  0  0  0  0  0  0
   -0.1837   -2.5077    0.9728 H   0  0  0  0  0  0  0  0  0  0  0  0
    1.8135   -3.0739    0.4826 C   0  0  0  0  0  0  0  0  0  0  0  0
    2.7490   -2.5097    0.5176 H   0  0  0  0  0  0  0  0  0  0  0  0
    1.7859   -3.7717    1.3208 H   0  0  0  0  0  0  0  0  0  0  0  0
    1.7735   -3.6319   -0.4543 H   0  0  0  0  0  0  0  0  0  0  0  0
  5  6  2  0  0  0  0
  5  7  1  0  0  0  0
  2  3  1  0  0  0  0
  2  4  1  0  0  0  0
  2  5  1  0  0  0  0
  1  2  1  0  0  0  0
 22 23  2  0  0  0  0
 22 24  1  0  0  0  0
 20 21  1  0  0  0  0
 18 19  1  0  0  0  0
 18 20  1  0  0  0  0
 16 17  1  0  0  0  0
 16 18  1  0  0  0  0
 15 16  2  0  0  0  0
 14 15  1  0  0  0  0
 14 20  2  0  0  0  0
 11 12  1  0  0  0  0
 11 13  1  0  0  0  0
 11 14  1  0  0  0  0
  9 10  1  0  0  0  0
  9 11  1  0  0  0  0
  9 22  1  0  0  0  0
  7  8  1  0  0  0  0
  7  9  1  0  0  0  0
 26 27  1  0  0  0  0
 26 28  1  0  0  0  0
 26 29  1  0  0  0  0
 24 25  1  0  0  0  0
 24 26  1  0  0  0  0
M  END
$$$$
default_name
  -OEChem-01062215323D

 29 29  0     1  0  0  0  0  0999 V2000
   -2.9561   -3.9186    1.3887 H   0  0  0  0  0  0  0  0  0  0  0  0
   -3.1191   -2.9346    0.9517 C   0  0  0  0  0  0  0  0  0  0  0  0
   -3.7811   -2.3546    1.5917 H   0  0  0  0  0  0  0  0  0  0  0  0
   -3.5591   -3.0406   -0.0383 H   0  0  0  0  0  0  0  0  0  0  0  0
   -1.7921   -2.2226    0.8327 C   0  0  0  0  0  0  0  0  0  0  0  0
   -0.7611   -2.7766    1.1927 O   0  0  0  0  0  0  0  0  0  0  0  0
   -1.8201   -0.9926    0.3247 N   0  0  0  0  0  0  0  0  0  0  0  0
   -2.7141   -0.5816    0.0927 H   0  0  0  0  0  0  0  0  0  0  0  0
   -0.6481   -0.1156    0.2017 C   0  0  1  0  0  0  0  0  0  0  0  0
   -0.7766    0.5014   -0.6900 H   0  0  0  0  0  0  0  0  0  0  0  0
   -0.5661    0.8174    1.4255 C   0  0  0  0  0  0  0  0  0  0  0  0
   -0.5539    0.2248    2.3414 H   0  0  0  0  0  0  0  0  0  0  0  0
    0.3624    1.3891    1.3921 H   0  0  0  0  0  0  0  0  0  0  0  0
   -1.7367    1.7654    1.5200 C   0  0  0  0  0  0  0  0  0  0  0  0
   -1.9370    2.8984    0.7302 N   0  0  0  0  0  0  0  0  0  0  0  0
   -3.1140    3.4132    1.1148 C   0  0  0  0  0  0  0  0  0  0  0  0
   -3.5551    4.3106    0.6995 H   0  0  0  0  0  0  0  0  0  0  0  0
   -3.6665    2.6545    2.0762 N   0  0  0  0  0  0  0  0  0  0  0  0
   -4.5616    2.8235    2.5145 H   0  0  0  0  0  0  0  0  0  0  0  0
   -2.8133    1.6068    2.3428 C   0  0  0  0  0  0  0  0  0  0  0  0
   -2.9604    0.7968    3.0461 H   0  0  0  0  0  0  0  0  0  0  0  0
    0.6337   -0.9449    0.0067 C   0  0  0  0  0  0  0  0  0  0  0  0
    1.6675   -0.3995   -0.3796 O   0  0  0  0  0  0  0  0  0  0  0  0
    0.5739   -2.2521    0.2796 N   0  0  0  0  0  0  0  0  0  0  0  0
   -0.3407   -2.6366    0.4888 H   0  0  0  0  0  0  0  0  0  0  0  0
    1.6959   -3.1806    0.1631 C   0  0  0  0  0  0  0  0  0  0  0  0
    2.6265   -2.6825    0.4469 H   0  0  0  0  0  0  0  0  0  0  0  0
    1.5365   -4.0389    0.8173 H   0  0  0  0  0  0  0  0  0  0  0  0
    1.7806   -3.5234   -0.8694 H   0  0  0  0  0  0  0  0  0  0  0  0
  5  6  2  0  0  0  0
  5  7  1  0  0  0  0
  2  3  1  0  0  0  0
  2  4  1  0  0  0  0
  2  5  1  0  0  0  0
  1  2  1  0  0  0  0
 22 23  2  0  0  0  0
 22 24  1  0  0  0  0
 20 21  1  0  0  0  0
 18 19  1  0  0  0  0
 18 20  1  0  0  0  0
 16 17  1  0  0  0  0
 16 18  1  0  0  0  0
 15 16  2  0  0  0  0
 14 15  1  0  0  0  0
 14 20  2  0  0  0  0
 11 12  1  0  0  0  0
 11 13  1  0  0  0  0
 11 14  1  0  0  0  0
  9 10  1  0  0  0  0
  9 11  1  0  0  0  0
  9 22  1  0  0  0  0
  7  8  1  0  0  0  0
  7  9  1  0  0  0  0
 26 27  1  0  0  0  0
 26 28  1  0  0  0  0
 26 29  1  0  0  0  0
 24 25  1  0  0  0  0
 24 26  1  0  0  0  0
M  END
$$$$
default_name
  -OEChem-01062215323D

 29 29  0     1  0  0  0  0  0999 V2000
   -2.9561   -3.9186    1.3887 H   0  0  0  0  0  0  0  0  0  0  0  0
   -3.1191   -2.9346    0.9517 C   0  0  0  0  0  0  0  0  0  0  0  0
   -3.7811   -2.3546    1.5917 H   0  0  0  0  0  0  0  0  0  0  0  0
   -3.5591   -3.0406   -0.0383 H   0  0  0  0  0  0  0  0  0  0  0  0
   -1.7921   -2.2226    0.8327 C   0  0  0  0  0  0  0  0  0  0  0  0
   -0.7611   -2.7766    1.1927 O   0  0  0  0  0  0  0  0  0  0  0  0
   -1.8201   -0.9926    0.3247 N   0  0  0  0  0  0  0  0  0  0  0  0
   -2.7141   -0.5816    0.0927 H   0  0  0  0  0  0  0  0  0  0  0  0
   -0.6481   -0.1156    0.2017 C   0  0  1  0  0  0  0  0  0  0  0  0
   -0.7766    0.5014   -0.6900 H   0  0  0  0  0  0  0  0  0  0  0  0
   -0.5661    0.8174    1.4255 C   0  0  0  0  0  0  0  0  0  0  0  0
   -0.5539    0.2248    2.3414 H   0  0  0  0  0  0  0  0  0  0  0  0
    0.3624    1.3891    1.3921 H   0  0  0  0  0  0  0  0  0  0  0  0
   -1.7367    1.7654    1.5200 C   0  0  0  0  0  0  0  0  0  0  0  0
   -1.9370    2.8984    0.7302 N   0  0  0  0  0  0  0  0  0  0  0  0
   -3.1140    3.4132    1.1148 C   0  0  0  0  0  0  0  0  0  0  0  0
   -3.5551    4.3106    0.6995 H   0  0  0  0  0  0  0  0  0  0  0  0
   -3.6665    2.6545    2.0762 N   0  0  0  0  0  0  0  0  0  0  0  0
   -4.5616    2.8235    2.5145 H   0  0  0  0  0  0  0  0  0  0  0  0
   -2.8133    1.6068    2.3428 C   0  0  0  0  0  0  0  0  0  0  0  0
   -2.9604    0.7968    3.0461 H   0  0  0  0  0  0  0  0  0  0  0  0
    0.6337   -0.9449    0.0067 C   0  0  0  0  0  0  0  0  0  0  0  0
    1.7215   -0.3800   -0.1073 O   0  0  0  0  0  0  0  0  0  0  0  0
    0.5126   -2.2758   -0.0225 N   0  0  0  0  0  0  0  0  0  0  0  0
   -0.4291   -2.6516   -0.0283 H   0  0  0  0  0  0  0  0  0  0  0  0
    1.6233   -3.2109   -0.1850 C   0  0  0  0  0  0  0  0  0  0  0  0
    2.5123   -2.8301    0.3243 H   0  0  0  0  0  0  0  0  0  0  0  0
    1.3570   -4.1803    0.2387 H   0  0  0  0  0  0  0  0  0  0  0  0
    1.8488   -3.3294   -1.2460 H   0  0  0  0  0  0  0  0  0  0  0  0
  5  6  2  0  0  0  0
  5  7  1  0  0  0  0
  2  3  1  0  0  0  0
  2  4  1  0  0  0  0
  2  5  1  0  0  0  0
  1  2  1  0  0  0  0
 22 23  2  0  0  0  0
 22 24  1  0  0  0  0
 20 21  1  0  0  0  0
 18 19  1  0  0  0  0
 18 20  1  0  0  0  0
 16 17  1  0  0  0  0
 16 18  1  0  0  0  0
 15 16  2  0  0  0  0
 14 15  1  0  0  0  0
 14 20  2  0  0  0  0
 11 12  1  0  0  0  0
 11 13  1  0  0  0  0
 11 14  1  0  0  0  0
  9 10  1  0  0  0  0
  9 11  1  0  0  0  0
  9 22  1  0  0  0  0
  7  8  1  0  0  0  0
  7  9  1  0  0  0  0
 26 27  1  0  0  0  0
 26 28  1  0  0  0  0
 26 29  1  0  0  0  0
 24 25  1  0  0  0  0
 24 26  1  0  0  0  0
M  END
$$$$
default_name
  -OEChem-01062215323D

 29 29  0     1  0  0  0  0  0999 V2000
   -2.9561   -3.9186    1.3887 H   0  0  0  0  0  0  0  0  0  0  0  0
   -3.1191   -2.9346    0.9517 C   0  0  0  0  0  0  0  0  0  0  0  0
   -3.7811   -2.3546    1.5917 H   0  0  0  0  0  0  0  0  0  0  0  0
   -3.5591   -3.0406   -0.0383 H   0  0  0  0  0  0  0  0  0  0  0  0
   -1.7921   -2.2226    0.8327 C   0  0  0  0  0  0  0  0  0  0  0  0
   -0.7611   -2.7766    1.1927 O   0  0  0  0  0  0  0  0  0  0  0  0
   -1.8201   -0.9926    0.3247 N   0  0  0  0  0  0  0  0  0  0  0  0
   -2.7141   -0.5816    0.0927 H   0  0  0  0  0  0  0  0  0  0  0  0
   -0.6481   -0.1156    0.2017 C   0  0  1  0  0  0  0  0  0  0  0  0
   -0.7766    0.5014   -0.6900 H   0  0  0  0  0  0  0  0  0  0  0  0
   -0.5661    0.8174    1.4255 C   0  0  0  0  0  0  0  0  0  0  0  0
   -0.5539    0.2248    2.3414 H   0  0  0  0  0  0  0  0  0  0  0  0
    0.3624    1.3891    1.3921 H   0  0  0  0  0  0  0  0  0  0  0  0
   -1.7367    1.7654    1.5200 C   0  0  0  0  0  0  0  0  0  0  0  0
   -1.9370    2.8984    0.7302 N   0  0  0  0  0  0  0  0  0  0  0  0
   -3.1140    3.4132    1.1148 C   0  0  0  0  0  0  0  0  0  0  0  0
   -3.5551    4.3106    0.6995 H   0  0  0  0  0  0  0  0  0  0  0  0
   -3.6665    2.6545    2.0762 N   0  0  0  0  0  0  0  0  0  0  0  0
   -4.5616    2.8235    2.5145 H   0  0  0  0  0  0  0  0  0  0  0  0
   -2.8133    1.6068    2.3428 C   0  0  0  0  0  0  0  0  0  0  0  0
   -2.9604    0.7968    3.0461 H   0  0  0  0  0  0  0  0  0  0  0  0
    0.6337   -0.9449    0.0067 C   0  0  0  0  0  0  0  0  0  0  0  0
    1.7364   -0.4216    0.1674 O   0  0  0  0  0  0  0  0  0  0  0  0
    0.4947   -2.2316   -0.3280 N   0  0  0  0  0  0  0  0  0  0  0  0
   -0.4428   -2.5518   -0.5434 H   0  0  0  0  0  0  0  0  0  0  0  0
    1.6007   -3.1629   -0.5378 C   0  0  0  0  0  0  0  0  0  0  0  0
    2.4143   -2.9426    0.1582 H   0  0  0  0  0  0  0  0  0  0  0  0
    1.2596   -4.1863   -0.3758 H   0  0  0  0  0  0  0  0  0  0  0  0
    1.9736   -3.0631   -1.5585 H   0  0  0  0  0  0  0  0  0  0  0  0
  5  6  2  0  0  0  0
  5  7  1  0  0  0  0
  2  3  1  0  0  0  0
  2  4  1  0  0  0  0
  2  5  1  0  0  0  0
  1  2  1  0  0  0  0
 22 23  2  0  0  0  0
 22 24  1  0  0  0  0
 20 21  1  0  0  0  0
 18 19  1  0  0  0  0
 18 20  1  0  0  0  0
 16 17  1  0  0  0  0
 16 18  1  0  0  0  0
 15 16  2  0  0  0  0
 14 15  1  0  0  0  0
 14 20  2  0  0  0  0
 11 12  1  0  0  0  0
 11 13  1  0  0  0  0
 11 14  1  0  0  0  0
  9 10  1  0  0  0  0
  9 11  1  0  0  0  0
  9 22  1  0  0  0  0
  7  8  1  0  0  0  0
  7  9  1  0  0  0  0
 26 27  1  0  0  0  0
 26 28  1  0  0  0  0
 26 29  1  0  0  0  0
 24 25  1  0  0  0  0
 24 26  1  0  0  0  0
M  END
$$$$
default_name
  -OEChem-01062215323D

 29 29  0     1  0  0  0  0  0999 V2000
   -2.9561   -3.9186    1.3887 H   0  0  0  0  0  0  0  0  0  0  0  0
   -3.1191   -2.9346    0.9517 C   0  0  0  0  0  0  0  0  0  0  0  0
   -3.7811   -2.3546    1.5917 H   0  0  0  0  0  0  0  0  0  0  0  0
   -3.5591   -3.0406   -0.0383 H   0  0  0  0  0  0  0  0  0  0  0  0
   -1.7921   -2.2226    0.8327 C   0  0  0  0  0  0  0  0  0  0  0  0
   -0.7611   -2.7766    1.1927 O   0  0  0  0  0  0  0  0  0  0  0  0
   -1.8201   -0.9926    0.3247 N   0  0  0  0  0  0  0  0  0  0  0  0
   -2.7141   -0.5816    0.0927 H   0  0  0  0  0  0  0  0  0  0  0  0
   -0.6481   -0.1156    0.2017 C   0  0  1  0  0  0  0  0  0  0  0  0
   -0.7766    0.5014   -0.6900 H   0  0  0  0  0  0  0  0  0  0  0  0
   -0.5661    0.8174    1.4255 C   0  0  0  0  0  0  0  0  0  0  0  0
   -0.5539    0.2248    2.3414 H   0  0  0  0  0  0  0  0  0  0  0  0
    0.3624    1.3891    1.3921 H   0  0  0  0  0  0  0  0  0  0  0  0
   -1.7367    1.7654    1.5200 C   0  0  0  0  0  0  0  0  0  0  0  0
   -1.9370    2.8984    0.7302 N   0  0  0  0  0  0  0  0  0  0  0  0
   -3.1140    3.4132    1.1148 C   0  0  0  0  0  0  0  0  0  0  0  0
   -3.5551    4.3106    0.6995 H   0  0  0  0  0  0  0  0  0  0  0  0
   -3.6665    2.6545    2.0762 N   0  0  0  0  0  0  0  0  0  0  0  0
   -4.5616    2.8235    2.5145 H   0  0  0  0  0  0  0  0  0  0  0  0
   -2.8133    1.6068    2.3428 C   0  0  0  0  0  0  0  0  0  0  0  0
   -2.9604    0.7968    3.0461 H   0  0  0  0  0  0  0  0  0  0  0  0
    0.6337   -0.9449    0.0067 C   0  0  0  0  0  0  0  0  0  0  0  0
    1.7110   -0.5216    0.4258 O   0  0  0  0  0  0  0  0  0  0  0  0
    0.5215   -2.1224   -0.6160 N   0  0  0  0  0  0  0  0  0  0  0  0
   -0.3810   -2.3439   -1.0213 H   0  0  0  0  0  0  0  0  0  0  0  0
    1.6297   -3.0396   -0.8714 C   0  0  0  0  0  0  0  0  0  0  0  0
    2.3391   -3.0122   -0.0403 H   0  0  0  0  0  0  0  0  0  0  0  0
    1.2511   -4.0565   -0.9842 H   0  0  0  0  0  0  0  0  0  0  0  0
    2.1465   -2.7425   -1.7855 H   0  0  0  0  0  0  0  0  0  0  0  0
  5  6  2  0  0  0  0
  5  7  1  0  0  0  0
  2  3  1  0  0  0  0
  2  4  1  0  0  0  0
  2  5  1  0  0  0  0
  1  2  1  0  0  0  0
 22 23  2  0  0  0  0
 22 24  1  0  0  0  0
 20 21  1  0  0  0  0
 18 19  1  0  0  0  0
 18 20  1  0  0  0  0
 16 17  1  0  0  0  0
 16 18  1  0  0  0  0
 15 16  2  0  0  0  0
 14 15  1  0  0  0  0
 14 20  2  0  0  0  0
 11 12  1  0  0  0  0
 11 13  1  0  0  0  0
 11 14  1  0  0  0  0
  9 10  1  0  0  0  0
  9 11  1  0  0  0  0
  9 22  1  0  0  0  0
  7  8  1  0  0  0  0
  7  9  1  0  0  0  0
 26 27  1  0  0  0  0
 26 28  1  0  0  0  0
 26 29  1  0  0  0  0
 24 25  1  0  0  0  0
 24 26  1  0  0  0  0
M  END
$$$$
default_name
  -OEChem-01062215323D

 29 29  0     1  0  0  0  0  0999 V2000
   -2.9561   -3.9186    1.3887 H   0  0  0  0  0  0  0  0  0  0  0  0
   -3.1191   -2.9346    0.9517 C   0  0  0  0  0  0  0  0  0  0  0  0
   -3.7811   -2.3546    1.5917 H   0  0  0  0  0  0  0  0  0  0  0  0
   -3.5591   -3.0406   -0.0383 H   0  0  0  0  0  0  0  0  0  0  0  0
   -1.7921   -2.2226    0.8327 C   0  0  0  0  0  0  0  0  0  0  0  0
   -0.7611   -2.7766    1.1927 O   0  0  0  0  0  0  0  0  0  0  0  0
   -1.8201   -0.9926    0.3247 N   0  0  0  0  0  0  0  0  0  0  0  0
   -2.7141   -0.5816    0.0927 H   0  0  0  0  0  0  0  0  0  0  0  0
   -0.6481   -0.1156    0.2017 C   0  0  1  0  0  0  0  0  0  0  0  0
   -0.7766    0.5014   -0.6900 H   0  0  0  0  0  0  0  0  0  0  0  0
   -0.5661    0.8174    1.4255 C   0  0  0  0  0  0  0  0  0  0  0  0
   -0.5539    0.2248    2.3414 H   0  0  0  0  0  0  0  0  0  0  0  0
    0.3624    1.3891    1.3921 H   0  0  0  0  0  0  0  0  0  0  0  0
   -1.7367    1.7654    1.5200 C   0  0  0  0  0  0  0  0  0  0  0  0
   -1.9370    2.8984    0.7302 N   0  0  0  0  0  0  0  0  0  0  0  0
   -3.1140    3.4132    1.1148 C   0  0  0  0  0  0  0  0  0  0  0  0
   -3.5551    4.3106    0.6995 H   0  0  0  0  0  0  0  0  0  0  0  0
   -3.6665    2.6545    2.0762 N   0  0  0  0  0  0  0  0  0  0  0  0
   -4.5616    2.8235    2.5145 H   0  0  0  0  0  0  0  0  0  0  0  0
   -2.8133    1.6068    2.3428 C   0  0  0  0  0  0  0  0  0  0  0  0
   -2.9604    0.7968    3.0461 H   0  0  0  0  0  0  0  0  0  0  0  0
    0.6337   -0.9449    0.0067 C   0  0  0  0  0  0  0  0  0  0  0  0
    1.6472   -0.6729    0.6503 O   0  0  0  0  0  0  0  0  0  0  0  0
    0.5912   -1.9558   -0.8669 N   0  0  0  0  0  0  0  0  0  0  0  0
   -0.2478   -2.0421   -1.4295 H   0  0  0  0  0  0  0  0  0  0  0  0
    1.7083   -2.8496   -1.1631 C   0  0  0  0  0  0  0  0  0  0  0  0
    2.2918   -3.0342   -0.2574 H   0  0  0  0  0  0  0  0  0  0  0  0
    1.3319   -3.7996   -1.5450 H   0  0  0  0  0  0  0  0  0  0  0  0
    2.3556   -2.3896   -1.9115 H   0  0  0  0  0  0  0  0  0  0  0  0
  5  6  2  0  0  0  0
  5  7  1  0  0  0  0
  2  3  1  0  0  0  0
  2  4  1  0  0  0  0
  2  5  1  0  0  0  0
  1  2  1  0  0  0  0
 22 23  2  0  0  0  0
 22 24  1  0  0  0  0
 20 21  1  0  0  0  0
 18 19  1  0  0  0  0
 18 20  1  0  0  0  0
 16 17  1  0  0  0  0
 16 18  1  0  0  0  0
 15 16  2  0  0  0  0
 14 15  1  0  0  0  0
 14 20  2  0  0  0  0
 11 12  1  0  0  0  0
 11 13  1  0  0  0  0
 11 14  1  0  0  0  0
  9 10  1  0  0  0  0
  9 11  1  0  0  0  0
  9 22  1  0  0  0  0
  7  8  1  0  0  0  0
  7  9  1  0  0  0  0
 26 27  1  0  0  0  0
 26 28  1  0  0  0  0
 26 29  1  0  0  0  0
 24 25  1  0  0  0  0
 24 26  1  0  0  0  0
M  END
$$$$
default_name
  -OEChem-01062215323D

 29 29  0     1  0  0  0  0  0999 V2000
   -2.9561   -3.9186    1.3887 H   0  0  0  0  0  0  0  0  0  0  0  0
   -3.1191   -2.9346    0.9517 C   0  0  0  0  0  0  0  0  0  0  0  0
   -3.7811   -2.3546    1.5917 H   0  0  0  0  0  0  0  0  0  0  0  0
   -3.5591   -3.0406   -0.0383 H   0  0  0  0  0  0  0  0  0  0  0  0
   -1.7921   -2.2226    0.8327 C   0  0  0  0  0  0  0  0  0  0  0  0
   -0.7611   -2.7766    1.1927 O   0  0  0  0  0  0  0  0  0  0  0  0
   -1.8201   -0.9926    0.3247 N   0  0  0  0  0  0  0  0  0  0  0  0
   -2.7141   -0.5816    0.0927 H   0  0  0  0  0  0  0  0  0  0  0  0
   -0.6481   -0.1156    0.2017 C   0  0  1  0  0  0  0  0  0  0  0  0
   -0.7766    0.5014   -0.6900 H   0  0  0  0  0  0  0  0  0  0  0  0
   -0.5661    0.8174    1.4255 C   0  0  0  0  0  0  0  0  0  0  0  0
   -0.5539    0.2248    2.3414 H   0  0  0  0  0  0  0  0  0  0  0  0
    0.3624    1.3891    1.3921 H   0  0  0  0  0  0  0  0  0  0  0  0
   -1.7367    1.7654    1.5200 C   0  0  0  0  0  0  0  0  0  0  0  0
   -1.9370    2.8984    0.7302 N   0  0  0  0  0  0  0  0  0  0  0  0
   -3.1140    3.4132    1.1148 C   0  0  0  0  0  0  0  0  0  0  0  0
   -3.5551    4.3106    0.6995 H   0  0  0  0  0  0  0  0  0  0  0  0
   -3.6665    2.6545    2.0762 N   0  0  0  0  0  0  0  0  0  0  0  0
   -4.5616    2.8235    2.5145 H   0  0  0  0  0  0  0  0  0  0  0  0
   -2.8133    1.6068    2.3428 C   0  0  0  0  0  0  0  0  0  0  0  0
   -2.9604    0.7968    3.0461 H   0  0  0  0  0  0  0  0  0  0  0  0
    0.6337   -0.9449    0.0067 C   0  0  0  0  0  0  0  0  0  0  0  0
    1.5493   -0.8655    0.8257 O   0  0  0  0  0  0  0  0  0  0  0  0
    0.6989   -1.7430   -1.0636 N   0  0  0  0  0  0  0  0  0  0  0  0
   -0.0524   -1.6669   -1.7402 H   0  0  0  0  0  0  0  0  0  0  0  0
    1.8311   -2.6058   -1.3929 C   0  0  0  0  0  0  0  0  0  0  0  0
    2.2757   -3.0070   -0.4785 H   0  0  0  0  0  0  0  0  0  0  0  0
    1.4967   -3.4333   -2.0201 H   0  0  0  0  0  0  0  0  0  0  0  0
    2.5868   -2.0284   -1.9281 H   0  0  0  0  0  0  0  0  0  0  0  0
  5  6  2  0  0  0  0
  5  7  1  0  0  0  0
  2  3  1  0  0  0  0
  2  4  1  0  0  0  0
  2  5  1  0  0  0  0
  1  2  1  0  0  0  0
 22 23  2  0  0  0  0
 22 24  1  0  0  0  0
 20 21  1  0  0  0  0
 18 19  1  0  0  0  0
 18 20  1  0  0  0  0
 16 17  1  0  0  0  0
 16 18  1  0  0  0  0
 15 16  2  0  0  0  0
 14 15  1  0  0  0  0
 14 20  2  0  0  0  0
 11 12  1  0  0  0  0
 11 13  1  0  0  0  0
 11 14  1  0  0  0  0
  9 10  1  0  0  0  0
  9 11  1  0  0  0  0
  9 22  1  0  0  0  0
  7  8  1  0  0  0  0
  7  9  1  0  0  0  0
 26 27  1  0  0  0  0
 26 28  1  0  0  0  0
 26 29  1  0  0  0  0
 24 25  1  0  0  0  0
 24 26  1  0  0  0  0
M  END
$$$$
default_name
  -OEChem-01062215323D

 29 29  0     1  0  0  0  0  0999 V2000
   -2.9561   -3.9186    1.3887 H   0  0  0  0  0  0  0  0  0  0  0  0
   -3.1191   -2.9346    0.9517 C   0  0  0  0  0  0  0  0  0  0  0  0
   -3.7811   -2.3546    1.5917 H   0  0  0  0  0  0  0  0  0  0  0  0
   -3.5591   -3.0406   -0.0383 H   0  0  0  0  0  0  0  0  0  0  0  0
   -1.7921   -2.2226    0.8327 C   0  0  0  0  0  0  0  0  0  0  0  0
   -0.7611   -2.7766    1.1927 O   0  0  0  0  0  0  0  0  0  0  0  0
   -1.8201   -0.9926    0.3247 N   0  0  0  0  0  0  0  0  0  0  0  0
   -2.7141   -0.5816    0.0927 H   0  0  0  0  0  0  0  0  0  0  0  0
   -0.6481   -0.1156    0.2017 C   0  0  1  0  0  0  0  0  0  0  0  0
   -0.7766    0.5014   -0.6900 H   0  0  0  0  0  0  0  0  0  0  0  0
   -0.5661    0.8174    1.4255 C   0  0  0  0  0  0  0  0  0  0  0  0
   -0.5539    0.2248    2.3414 H   0  0  0  0  0  0  0  0  0  0  0  0
    0.3624    1.3891    1.3921 H   0  0  0  0  0  0  0  0  0  0  0  0
   -1.7367    1.7654    1.5200 C   0  0  0  0  0  0  0  0  0  0  0  0
   -1.9370    2.8984    0.7302 N   0  0  0  0  0  0  0  0  0  0  0  0
   -3.1140    3.4132    1.1148 C   0  0  0  0  0  0  0  0  0  0  0  0
   -3.5551    4.3106    0.6995 H   0  0  0  0  0  0  0  0  0  0  0  0
   -3.6665    2.6545    2.0762 N   0  0  0  0  0  0  0  0  0  0  0  0
   -4.5616    2.8235    2.5145 H   0  0  0  0  0  0  0  0  0  0  0  0
   -2.8133    1.6068    2.3428 C   0  0  0  0  0  0  0  0  0  0  0  0
   -2.9604    0.7968    3.0461 H   0  0  0  0  0  0  0  0  0  0  0  0
    0.6337   -0.9449    0.0067 C   0  0  0  0  0  0  0  0  0  0  0  0
    1.4240   -1.0861    0.9399 O   0  0  0  0  0  0  0  0  0  0  0  0
    0.8374   -1.4986   -1.1928 N   0  0  0  0  0  0  0  0  0  0  0  0
    0.1920   -1.2440   -1.9321 H   0  0  0  0  0  0  0  0  0  0  0  0
    1.9897   -2.3247   -1.5451 C   0  0  0  0  0  0  0  0  0  0  0  0
    2.2919   -2.9326   -0.6885 H   0  0  0  0  0  0  0  0  0  0  0  0
    1.7341   -2.9824   -2.3771 H   0  0  0  0  0  0  0  0  0  0  0  0
    2.8242   -1.6836   -1.8339 H   0  0  0  0  0  0  0  0  0  0  0  0
  5  6  2  0  0  0  0
  5  7  1  0  0  0  0
  2  3  1  0  0  0  0
  2  4  1  0  0  0  0
  2  5  1  0  0  0  0
  1  2  1  0  0  0  0
 22 23  2  0  0  0  0
 22 24  1  0  0  0  0
 20 21  1  0  0  0  0
 18 19  1  0  0  0  0
 18 20  1  0  0  0  0
 16 17  1  0  0  0  0
 16 18  1  0  0  0  0
 15 16  2  0  0  0  0
 14 15  1  0  0  0  0
 14 20  2  0  0  0  0
 11 12  1  0  0  0  0
 11 13  1  0  0  0  0
 11 14  1  0  0  0  0
  9 10  1  0  0  0  0
  9 11  1  0  0  0  0
  9 22  1  0  0  0  0
  7  8  1  0  0  0  0
  7  9  1  0  0  0  0
 26 27  1  0  0  0  0
 26 28  1  0  0  0  0
 26 29  1  0  0  0  0
 24 25  1  0  0  0  0
 24 26  1  0  0  0  0
M  END
$$$$
default_name
  -OEChem-01062215323D

 29 29  0     1  0  0  0  0  0999 V2000
   -2.9561   -3.9186    1.3887 H   0  0  0  0  0  0  0  0  0  0  0  0
   -3.1191   -2.9346    0.9517 C   0  0  0  0  0  0  0  0  0  0  0  0
   -3.7811   -2.3546    1.5917 H   0  0  0  0  0  0  0  0  0  0  0  0
   -3.5591   -3.0406   -0.0383 H   0  0  0  0  0  0  0  0  0  0  0  0
   -1.7921   -2.2226    0.8327 C   0  0  0  0  0  0  0  0  0  0  0  0
   -0.7611   -2.7766    1.1927 O   0  0  0  0  0  0  0  0  0  0  0  0
   -1.8201   -0.9926    0.3247 N   0  0  0  0  0  0  0  0  0  0  0  0
   -2.7141   -0.5816    0.0927 H   0  0  0  0  0  0  0  0  0  0  0  0
   -0.6481   -0.1156    0.2017 C   0  0  1  0  0  0  0  0  0  0  0  0
   -0.7766    0.5014   -0.6900 H   0  0  0  0  0  0  0  0  0  0  0  0
   -0.5661    0.8174    1.4255 C   0  0  0  0  0  0  0  0  0  0  0  0
   -0.5539    0.2248    2.3414 H   0  0  0  0  0  0  0  0  0  0  0  0
    0.3624    1.3891    1.3921 H   0  0  0  0  0  0  0  0  0  0  0  0
   -1.7367    1.7654    1.5200 C   0  0  0  0  0  0  0  0  0  0  0  0
   -1.9370    2.8984    0.7302 N   0  0  0  0  0  0  0  0  0  0  0  0
   -3.1140    3.4132    1.1148 C   0  0  0  0  0  0  0  0  0  0  0  0
   -3.5551    4.3106    0.6995 H   0  0  0  0  0  0  0  0  0  0  0  0
   -3.6665    2.6545    2.0762 N   0  0  0  0  0  0  0  0  0  0  0  0
   -4.5616    2.8235    2.5145 H   0  0  0  0  0  0  0  0  0  0  0  0
   -2.8133    1.6068    2.3428 C   0  0  0  0  0  0  0  0  0  0  0  0
   -2.9604    0.7968    3.0461 H   0  0  0  0  0  0  0  0  0  0  0  0
    0.6337   -0.9449    0.0067 C   0  0  0  0  0  0  0  0  0  0  0  0
    1.2798   -1.3196    0.9853 O   0  0  0  0  0  0  0  0  0  0  0  0
    0.9972   -1.2392   -1.2455 N   0  0  0  0  0  0  0  0  0  0  0  0
    0.4688   -0.8021   -1.9923 H   0  0  0  0  0  0  0  0  0  0  0  0
    2.1734   -2.0257   -1.6095 C   0  0  0  0  0  0  0  0  0  0  0  0
    2.3393   -2.8161   -0.8730 H   0  0  0  0  0  0  0  0  0  0  0  0
    2.0279   -2.4778   -2.5916 H   0  0  0  0  0  0  0  0  0  0  0  0
    3.0517   -1.3785   -1.6356 H   0  0  0  0  0  0  0  0  0  0  0  0
  5  6  2  0  0  0  0
  5  7  1  0  0  0  0
  2  3  1  0  0  0  0
  2  4  1  0  0  0  0
  2  5  1  0  0  0  0
  1  2  1  0  0  0  0
 22 23  2  0  0  0  0
 22 24  1  0  0  0  0
 20 21  1  0  0  0  0
 18 19  1  0  0  0  0
 18 20  1  0  0  0  0
 16 17  1  0  0  0  0
 16 18  1  0  0  0  0
 15 16  2  0  0  0  0
 14 15  1  0  0  0  0
 14 20  2  0  0  0  0
 11 12  1  0  0  0  0
 11 13  1  0  0  0  0
 11 14  1  0  0  0  0
  9 10  1  0  0  0  0
  9 11  1  0  0  0  0
  9 22  1  0  0  0  0
  7  8  1  0  0  0  0
  7  9  1  0  0  0  0
 26 27  1  0  0  0  0
 26 28  1  0  0  0  0
 26 29  1  0  0  0  0
 24 25  1  0  0  0  0
 24 26  1  0  0  0  0
M  END
$$$$
default_name
  -OEChem-01062215323D

 29 29  0     1  0  0  0  0  0999 V2000
   -2.9561   -3.9186    1.3887 H   0  0  0  0  0  0  0  0  0  0  0  0
   -3.1191   -2.9346    0.9517 C   0  0  0  0  0  0  0  0  0  0  0  0
   -3.7811   -2.3546    1.5917 H   0  0  0  0  0  0  0  0  0  0  0  0
   -3.5591   -3.0406   -0.0383 H   0  0  0  0  0  0  0  0  0  0  0  0
   -1.7921   -2.2226    0.8327 C   0  0  0  0  0  0  0  0  0  0  0  0
   -0.7611   -2.7766    1.1927 O   0  0  0  0  0  0  0  0  0  0  0  0
   -1.8201   -0.9926    0.3247 N   0  0  0  0  0  0  0  0  0  0  0  0
   -2.7141   -0.5816    0.0927 H   0  0  0  0  0  0  0  0  0  0  0  0
   -0.6481   -0.1156    0.2017 C   0  0  1  0  0  0  0  0  0  0  0  0
   -0.7766    0.5014   -0.6900 H   0  0  0  0  0  0  0  0  0  0  0  0
   -0.5661    0.8174    1.4255 C   0  0  0  0  0  0  0  0  0  0  0  0
   -0.5539    0.2248    2.3414 H   0  0  0  0  0  0  0  0  0  0  0  0
    0.3624    1.3891    1.3921 H   0  0  0  0  0  0  0  0  0  0  0  0
   -1.7367    1.7654    1.5200 C   0  0  0  0  0  0  0  0  0  0  0  0
   -1.9370    2.8984    0.7302 N   0  0  0  0  0  0  0  0  0  0  0  0
   -3.1140    3.4132    1.1148 C   0  0  0  0  0  0  0  0  0  0  0  0
   -3.5551    4.3106    0.6995 H   0  0  0  0  0  0  0  0  0  0  0  0
   -3.6665    2.6545    2.0762 N   0  0  0  0  0  0  0  0  0  0  0  0
   -4.5616    2.8235    2.5145 H   0  0  0  0  0  0  0  0  0  0  0  0
   -2.8133    1.6068    2.3428 C   0  0  0  0  0  0  0  0  0  0  0  0
   -2.9604    0.7968    3.0461 H   0  0  0  0  0  0  0  0  0  0  0  0
    0.6337   -0.9449    0.0067 C   0  0  0  0  0  0  0  0  0  0  0  0
    1.1265   -1.5503    0.9586 O   0  0  0  0  0  0  0  0  0  0  0  0
    1.1673   -0.9826   -1.2183 N   0  0  0  0  0  0  0  0  0  0  0  0
    0.7590   -0.3713   -1.9166 H   0  0  0  0  0  0  0  0  0  0  0  0
    2.3697   -1.7289   -1.5816 C   0  0  0  0  0  0  0  0  0  0  0  0
    2.4146   -2.6652   -1.0195 H   0  0  0  0  0  0  0  0  0  0  0  0
    2.3583   -1.9537   -2.6491 H   0  0  0  0  0  0  0  0  0  0  0  0
    3.2538   -1.1341   -1.3465 H   0  0  0  0  0  0  0  0  0  0  0  0
  5  6  2  0  0  0  0
  5  7  1  0  0  0  0
  2  3  1  0  0  0  0
  2  4  1  0  0  0  0
  2  5  1  0  0  0  0
  1  2  1  0  0  0  0
 22 23  2  0  0  0  0
 22 24  1  0  0  0  0
 20 21  1  0  0  0  0
 18 19  1  0  0  0  0
 18 20  1  0  0  0  0
 16 17  1  0  0  0  0
 16 18  1  0  0  0  0
 15 16  2  0  0  0  0
 14 15  1  0  0  0  0
 14 20  2  0  0  0  0
 11 12  1  0  0  0  0
 11 13  1  0  0  0  0
 11 14  1  0  0  0  0
  9 10  1  0  0  0  0
  9 11  1  0  0  0  0
  9 22  1  0  0  0  0
  7  8  1  0  0  0  0
  7  9  1  0  0  0  0
 26 27  1  0  0  0  0
 26 28  1  0  0  0  0
 26 29  1  0  0  0  0
 24 25  1  0  0  0  0
 24 26  1  0  0  0  0
M  END
$$$$
default_name
  -OEChem-01062215323D

 29 29  0     1  0  0  0  0  0999 V2000
   -2.9561   -3.9186    1.3887 H   0  0  0  0  0  0  0  0  0  0  0  0
   -3.1191   -2.9346    0.9517 C   0  0  0  0  0  0  0  0  0  0  0  0
   -3.7811   -2.3546    1.5917 H   0  0  0  0  0  0  0  0  0  0  0  0
   -3.5591   -3.0406   -0.0383 H   0  0  0  0  0  0  0  0  0  0  0  0
   -1.7921   -2.2226    0.8327 C   0  0  0  0  0  0  0  0  0  0  0  0
   -0.7611   -2.7766    1.1927 O   0  0  0  0  0  0  0  0  0  0  0  0
   -1.8201   -0.9926    0.3247 N   0  0  0  0  0  0  0  0  0  0  0  0
   -2.7141   -0.5816    0.0927 H   0  0  0  0  0  0  0  0  0  0  0  0
   -0.6481   -0.1156    0.2017 C   0  0  1  0  0  0  0  0  0  0  0  0
   -0.7766    0.5014   -0.6900 H   0  0  0  0  0  0  0  0  0  0  0  0
   -0.5661    0.8174    1.4255 C   0  0  0  0  0  0  0  0  0  0  0  0
   -0.5539    0.2248    2.3414 H   0  0  0  0  0  0  0  0  0  0  0  0
    0.3624    1.3891    1.3921 H   0  0  0  0  0  0  0  0  0  0  0  0
   -1.7367    1.7654    1.5200 C   0  0  0  0  0  0  0  0  0  0  0  0
   -1.9370    2.8984    0.7302 N   0  0  0  0  0  0  0  0  0  0  0  0
   -3.1140    3.4132    1.1148 C   0  0  0  0  0  0  0  0  0  0  0  0
   -3.5551    4.3106    0.6995 H   0  0  0  0  0  0  0  0  0  0  0  0
   -3.6665    2.6545    2.0762 N   0  0  0  0  0  0  0  0  0  0  0  0
   -4.5616    2.8235    2.5145 H   0  0  0  0  0  0  0  0  0  0  0  0
   -2.8133    1.6068    2.3428 C   0  0  0  0  0  0  0  0  0  0  0  0
   -2.9604    0.7968    3.0461 H   0  0  0  0  0  0  0  0  0  0  0  0
    0.6337   -0.9449    0.0067 C   0  0  0  0  0  0  0  0  0  0  0  0
    0.9746   -1.7623    0.8617 O   0  0  0  0  0  0  0  0  0  0  0  0
    1.3364   -0.7461   -1.1130 N   0  0  0  0  0  0  0  0  0  0  0  0
    1.0428    0.0189   -1.7101 H   0  0  0  0  0  0  0  0  0  0  0  0
    2.5650   -1.4547   -1.4633 C   0  0  0  0  0  0  0  0  0  0  0  0
    2.5127   -2.4904   -1.1179 H   0  0  0  0  0  0  0  0  0  0  0  0
    2.7025   -1.4459   -2.5455 H   0  0  0  0  0  0  0  0  0  0  0  0
    3.4167   -0.9670   -0.9864 H   0  0  0  0  0  0  0  0  0  0  0  0
  5  6  2  0  0  0  0
  5  7  1  0  0  0  0
  2  3  1  0  0  0  0
  2  4  1  0  0  0  0
  2  5  1  0  0  0  0
  1  2  1  0  0  0  0
 22 23  2  0  0  0  0
 22 24  1  0  0  0  0
 20 21  1  0  0  0  0
 18 19  1  0  0  0  0
 18 20  1  0  0  0  0
 16 17  1  0  0  0  0
 16 18  1  0  0  0  0
 15 16  2  0  0  0  0
 14 15  1  0  0  0  0
 14 20  2  0  0  0  0
 11 12  1  0  0  0  0
 11 13  1  0  0  0  0
 11 14  1  0  0  0  0
  9 10  1  0  0  0  0
  9 11  1  0  0  0  0
  9 22  1  0  0  0  0
  7  8  1  0  0  0  0
  7  9  1  0  0  0  0
 26 27  1  0  0  0  0
 26 28  1  0  0  0  0
 26 29  1  0  0  0  0
 24 25  1  0  0  0  0
 24 26  1  0  0  0  0
M  END
$$$$
default_name
  -OEChem-01062215323D

 29 29  0     1  0  0  0  0  0999 V2000
   -2.9561   -3.9186    1.3887 H   0  0  0  0  0  0  0  0  0  0  0  0
   -3.1191   -2.9346    0.9517 C   0  0  0  0  0  0  0  0  0  0  0  0
   -3.7811   -2.3546    1.5917 H   0  0  0  0  0  0  0  0  0  0  0  0
   -3.5591   -3.0406   -0.0383 H   0  0  0  0  0  0  0  0  0  0  0  0
   -1.7921   -2.2226    0.8327 C   0  0  0  0  0  0  0  0  0  0  0  0
   -0.7611   -2.7766    1.1927 O   0  0  0  0  0  0  0  0  0  0  0  0
   -1.8201   -0.9926    0.3247 N   0  0  0  0  0  0  0  0  0  0  0  0
   -2.7141   -0.5816    0.0927 H   0  0  0  0  0  0  0  0  0  0  0  0
   -0.6481   -0.1156    0.2017 C   0  0  1  0  0  0  0  0  0  0  0  0
   -0.7766    0.5014   -0.6900 H   0  0  0  0  0  0  0  0  0  0  0  0
   -0.5661    0.8174    1.4255 C   0  0  0  0  0  0  0  0  0  0  0  0
   -0.5539    0.2248    2.3414 H   0  0  0  0  0  0  0  0  0  0  0  0
    0.3624    1.3891    1.3921 H   0  0  0  0  0  0  0  0  0  0  0  0
   -1.7367    1.7654    1.5200 C   0  0  0  0  0  0  0  0  0  0  0  0
   -1.9370    2.8984    0.7302 N   0  0  0  0  0  0  0  0  0  0  0  0
   -3.1140    3.4132    1.1148 C   0  0  0  0  0  0  0  0  0  0  0  0
   -3.5551    4.3106    0.6995 H   0  0  0  0  0  0  0  0  0  0  0  0
   -3.6665    2.6545    2.0762 N   0  0  0  0  0  0  0  0  0  0  0  0
   -4.5616    2.8235    2.5145 H   0  0  0  0  0  0  0  0  0  0  0  0
   -2.8133    1.6068    2.3428 C   0  0  0  0  0  0  0  0  0  0  0  0
   -2.9604    0.7968    3.0461 H   0  0  0  0  0  0  0  0  0  0  0  0
    0.6337   -0.9449    0.0067 C   0  0  0  0  0  0  0  0  0  0  0  0
    0.8344   -1.9413    0.7013 O   0  0  0  0  0  0  0  0  0  0  0  0
    1.4927   -0.5460   -0.9366 N   0  0  0  0  0  0  0  0  0  0  0  0
    1.3010    0.3420   -1.3870 H   0  0  0  0  0  0  0  0  0  0  0  0
    2.7462   -1.2218   -1.2628 C   0  0  0  0  0  0  0  0  0  0  0  0
    2.6269   -2.3036   -1.1617 H   0  0  0  0  0  0  0  0  0  0  0  0
    3.0373   -0.9890   -2.2881 H   0  0  0  0  0  0  0  0  0  0  0  0
    3.5293   -0.8885   -0.5798 H   0  0  0  0  0  0  0  0  0  0  0  0
  5  6  2  0  0  0  0
  5  7  1  0  0  0  0
  2  3  1  0  0  0  0
  2  4  1  0  0  0  0
  2  5  1  0  0  0  0
  1  2  1  0  0  0  0
 22 23  2  0  0  0  0
 22 24  1  0  0  0  0
 20 21  1  0  0  0  0
 18 19  1  0  0  0  0
 18 20  1  0  0  0  0
 16 17  1  0  0  0  0
 16 18  1  0  0  0  0
 15 16  2  0  0  0  0
 14 15  1  0  0  0  0
 14 20  2  0  0  0  0
 11 12  1  0  0  0  0
 11 13  1  0  0  0  0
 11 14  1  0  0  0  0
  9 10  1  0  0  0  0
  9 11  1  0  0  0  0
  9 22  1  0  0  0  0
  7  8  1  0  0  0  0
  7  9  1  0  0  0  0
 26 27  1  0  0  0  0
 26 28  1  0  0  0  0
 26 29  1  0  0  0  0
 24 25  1  0  0  0  0
 24 26  1  0  0  0  0
M  END
$$$$
default_name
  -OEChem-01062215323D

 29 29  0     1  0  0  0  0  0999 V2000
   -2.9561   -3.9186    1.3887 H   0  0  0  0  0  0  0  0  0  0  0  0
   -3.1191   -2.9346    0.9517 C   0  0  0  0  0  0  0  0  0  0  0  0
   -3.7811   -2.3546    1.5917 H   0  0  0  0  0  0  0  0  0  0  0  0
   -3.5591   -3.0406   -0.0383 H   0  0  0  0  0  0  0  0  0  0  0  0
   -1.7921   -2.2226    0.8327 C   0  0  0  0  0  0  0  0  0  0  0  0
   -0.7611   -2.7766    1.1927 O   0  0  0  0  0  0  0  0  0  0  0  0
   -1.8201   -0.9926    0.3247 N   0  0  0  0  0  0  0  0  0  0  0  0
   -2.7141   -0.5816    0.0927 H   0  0  0  0  0  0  0  0  0  0  0  0
   -0.6481   -0.1156    0.2017 C   0  0  1  0  0  0  0  0  0  0  0  0
   -0.7766    0.5014   -0.6900 H   0  0  0  0  0  0  0  0  0  0  0  0
   -0.5661    0.8174    1.4255 C   0  0  0  0  0  0  0  0  0  0  0  0
   -0.5539    0.2248    2.3414 H   0  0  0  0  0  0  0  0  0  0  0  0
    0.3624    1.3891    1.3921 H   0  0  0  0  0  0  0  0  0  0  0  0
   -1.7367    1.7654    1.5200 C   0  0  0  0  0  0  0  0  0  0  0  0
   -1.9370    2.8984    0.7302 N   0  0  0  0  0  0  0  0  0  0  0  0
   -3.1140    3.4132    1.1148 C   0  0  0  0  0  0  0  0  0  0  0  0
   -3.5551    4.3106    0.6995 H   0  0  0  0  0  0  0  0  0  0  0  0
   -3.6665    2.6545    2.0762 N   0  0  0  0  0  0  0  0  0  0  0  0
   -4.5616    2.8235    2.5145 H   0  0  0  0  0  0  0  0  0  0  0  0
   -2.8133    1.6068    2.3428 C   0  0  0  0  0  0  0  0  0  0  0  0
   -2.9604    0.7968    3.0461 H   0  0  0  0  0  0  0  0  0  0  0  0
    0.6337   -0.9449    0.0067 C   0  0  0  0  0  0  0  0  0  0  0  0
    0.7156   -2.0749    0.4882 O   0  0  0  0  0  0  0  0  0  0  0  0
    1.6256   -0.3957   -0.7014 N   0  0  0  0  0  0  0  0  0  0  0  0
    1.5159    0.5759   -0.9692 H   0  0  0  0  0  0  0  0  0  0  0  0
    2.9009   -1.0460   -0.9935 C   0  0  0  0  0  0  0  0  0  0  0  0
    2.7495   -2.1174   -1.1478 H   0  0  0  0  0  0  0  0  0  0  0  0
    3.3397   -0.6142   -1.8942 H   0  0  0  0  0  0  0  0  0  0  0  0
    3.5840   -0.9040   -0.1544 H   0  0  0  0  0  0  0  0  0  0  0  0
  5  6  2  0  0  0  0
  5  7  1  0  0  0  0
  2  3  1  0  0  0  0
  2  4  1  0  0  0  0
  2  5  1  0  0  0  0
  1  2  1  0  0  0  0
 22 23  2  0  0  0  0
 22 24  1  0  0  0  0
 20 21  1  0  0  0  0
 18 19  1  0  0  0  0
 18 20  1  0  0  0  0
 16 17  1  0  0  0  0
 16 18  1  0  0  0  0
 15 16  2  0  0  0  0
 14 15  1  0  0  0  0
 14 20  2  0  0  0  0
 11 12  1  0  0  0  0
 11 13  1  0  0  0  0
 11 14  1  0  0  0  0
  9 10  1  0  0  0  0
  9 11  1  0  0  0  0
  9 22  1  0  0  0  0
  7  8  1  0  0  0  0
  7  9  1  0  0  0  0
 26 27  1  0  0  0  0
 26 28  1  0  0  0  0
 26 29  1  0  0  0  0
 24 25  1  0  0  0  0
 24 26  1  0  0  0  0
M  END
$$$$
default_name
  -OEChem-01062215323D

 29 29  0     1  0  0  0  0  0999 V2000
   -2.9561   -3.9186    1.3887 H   0  0  0  0  0  0  0  0  0  0  0  0
   -3.1191   -2.9346    0.9517 C   0  0  0  0  0  0  0  0  0  0  0  0
   -3.7811   -2.3546    1.5917 H   0  0  0  0  0  0  0  0  0  0  0  0
   -3.5591   -3.0406   -0.0383 H   0  0  0  0  0  0  0  0  0  0  0  0
   -1.7921   -2.2226    0.8327 C   0  0  0  0  0  0  0  0  0  0  0  0
   -0.7611   -2.7766    1.1927 O   0  0  0  0  0  0  0  0  0  0  0  0
   -1.8201   -0.9926    0.3247 N   0  0  0  0  0  0  0  0  0  0  0  0
   -2.7141   -0.5816    0.0927 H   0  0  0  0  0  0  0  0  0  0  0  0
   -0.6481   -0.1156    0.2017 C   0  0  1  0  0  0  0  0  0  0  0  0
   -0.7766    0.5014   -0.6900 H   0  0  0  0  0  0  0  0  0  0  0  0
   -0.5661    0.8174    1.4255 C   0  0  0  0  0  0  0  0  0  0  0  0
   -0.5539    0.2248    2.3414 H   0  0  0  0  0  0  0  0  0  0  0  0
    0.3624    1.3891    1.3921 H   0  0  0  0  0  0  0  0  0  0  0  0
   -1.7367    1.7654    1.5200 C   0  0  0  0  0  0  0  0  0  0  0  0
   -1.9370    2.8984    0.7302 N   0  0  0  0  0  0  0  0  0  0  0  0
   -3.1140    3.4132    1.1148 C   0  0  0  0  0  0  0  0  0  0  0  0
   -3.5551    4.3106    0.6995 H   0  0  0  0  0  0  0  0  0  0  0  0
   -3.6665    2.6545    2.0762 N   0  0  0  0  0  0  0  0  0  0  0  0
   -4.5616    2.8235    2.5145 H   0  0  0  0  0  0  0  0  0  0  0  0
   -2.8133    1.6068    2.3428 C   0  0  0  0  0  0  0  0  0  0  0  0
   -2.9604    0.7968    3.0461 H   0  0  0  0  0  0  0  0  0  0  0  0
    0.6337   -0.9449    0.0067 C   0  0  0  0  0  0  0  0  0  0  0  0
    0.6261   -2.1542    0.2369 O   0  0  0  0  0  0  0  0  0  0  0  0
    1.7262   -0.3057   -0.4232 N   0  0  0  0  0  0  0  0  0  0  0  0
    1.6729    0.7049   -0.4853 H   0  0  0  0  0  0  0  0  0  0  0  0
    3.0186   -0.9393   -0.6740 C   0  0  0  0  0  0  0  0  0  0  0  0
    2.8720   -1.9446   -1.0771 H   0  0  0  0  0  0  0  0  0  0  0  0
    3.5891   -0.3470   -1.3908 H   0  0  0  0  0  0  0  0  0  0  0  0
    3.5770   -1.0125    0.2607 H   0  0  0  0  0  0  0  0  0  0  0  0
  5  6  2  0  0  0  0
  5  7  1  0  0  0  0
  2  3  1  0  0  0  0
  2  4  1  0  0  0  0
  2  5  1  0  0  0  0
  1  2  1  0  0  0  0
 22 23  2  0  0  0  0
 22 24  1  0  0  0  0
 20 21  1  0  0  0  0
 18 19  1  0  0  0  0
 18 20  1  0  0  0  0
 16 17  1  0  0  0  0
 16 18  1  0  0  0  0
 15 16  2  0  0  0  0
 14 15  1  0  0  0  0
 14 20  2  0  0  0  0
 11 12  1  0  0  0  0
 11 13  1  0  0  0  0
 11 14  1  0  0  0  0
  9 10  1  0  0  0  0
  9 11  1  0  0  0  0
  9 22  1  0  0  0  0
  7  8  1  0  0  0  0
  7  9  1  0  0  0  0
 26 27  1  0  0  0  0
 26 28  1  0  0  0  0
 26 29  1  0  0  0  0
 24 25  1  0  0  0  0
 24 26  1  0  0  0  0
M  END
$$$$
default_name
  -OEChem-01062215323D

 29 29  0     1  0  0  0  0  0999 V2000
   -2.9561   -3.9186    1.3887 H   0  0  0  0  0  0  0  0  0  0  0  0
   -3.1191   -2.9346    0.9517 C   0  0  0  0  0  0  0  0  0  0  0  0
   -3.7811   -2.3546    1.5917 H   0  0  0  0  0  0  0  0  0  0  0  0
   -3.5591   -3.0406   -0.0383 H   0  0  0  0  0  0  0  0  0  0  0  0
   -1.7921   -2.2226    0.8327 C   0  0  0  0  0  0  0  0  0  0  0  0
   -0.7611   -2.7766    1.1927 O   0  0  0  0  0  0  0  0  0  0  0  0
   -1.8201   -0.9926    0.3247 N   0  0  0  0  0  0  0  0  0  0  0  0
   -2.7141   -0.5816    0.0927 H   0  0  0  0  0  0  0  0  0  0  0  0
   -0.6481   -0.1156    0.2017 C   0  0  1  0  0  0  0  0  0  0  0  0
   -0.8874    0.6742   -0.5133 H   0  0  0  0  0  0  0  0  0  0  0  0
   -0.3454    0.5417    1.5623 C   0  0  0  0  0  0  0  0  0  0  0  0
   -0.2164   -0.2287    2.3239 H   0  0  0  0  0  0  0  0  0  0  0  0
    0.5881    1.1027    1.5015 H   0  0  0  0  0  0  0  0  0  0  0  0
   -1.4512    1.4556    2.0313 C   0  0  0  0  0  0  0  0  0  0  0  0
   -1.7263    2.7293    1.5317 N   0  0  0  0  0  0  0  0  0  0  0  0
   -2.8107    3.1591    2.1932 C   0  0  0  0  0  0  0  0  0  0  0  0
   -3.2755    4.1257    2.0450 H   0  0  0  0  0  0  0  0  0  0  0  0
   -3.2388    2.2199    3.0533 N   0  0  0  0  0  0  0  0  0  0  0  0
   -4.0496    2.2988    3.6518 H   0  0  0  0  0  0  0  0  0  0  0  0
   -2.3953    1.1350    2.9626 C   0  0  0  0  0  0  0  0  0  0  0  0
   -2.4642    0.1972    3.4992 H   0  0  0  0  0  0  0  0  0  0  0  0
    0.5567   -0.8931   -0.3575 C   0  0  0  0  0  0  0  0  0  0  0  0
    0.4428   -2.0858   -0.6401 O   0  0  0  0  0  0  0  0  0  0  0  0
    1.7018   -0.2244   -0.5262 N   0  0  0  0  0  0  0  0  0  0  0  0
    1.7373    0.7238   -0.1691 H   0  0  0  0  0  0  0  0  0  0  0  0
    2.9345   -0.8020   -1.0569 C   0  0  0  0  0  0  0  0  0  0  0  0
    2.7014   -1.5392   -1.8295 H   0  0  0  0  0  0  0  0  0  0  0  0
    3.5562   -0.0165   -1.4888 H   0  0  0  0  0  0  0  0  0  0  0  0
    3.4822   -1.2959   -0.2526 H   0  0  0  0  0  0  0  0  0  0  0  0
  5  6  2  0  0  0  0
  5  7  1  0  0  0  0
  2  3  1  0  0  0  0
  2  4  1  0  0  0  0
  2  5  1  0  0  0  0
  1  2  1  0  0  0  0
 22 23  2  0  0  0  0
 22 24  1  0  0  0  0
 20 21  1  0  0  0  0
 18 19  1  0  0  0  0
 18 20  1  0  0  0  0
 16 17  1  0  0  0  0
 16 18  1  0  0  0  0
 15 16  2  0  0  0  0
 14 15  1  0  0  0  0
 14 20  2  0  0  0  0
 11 12  1  0  0  0  0
 11 13  1  0  0  0  0
 11 14  1  0  0  0  0
  9 10  1  0  0  0  0
  9 11  1  0  0  0  0
  9 22  1  0  0  0  0
  7  8  1  0  0  0  0
  7  9  1  0  0  0  0
 26 27  1  0  0  0  0
 26 28  1  0  0  0  0
 26 29  1  0  0  0  0
 24 25  1  0  0  0  0
 24 26  1  0  0  0  0
M  END
$$$$
default_name
  -OEChem-01062215323D

 29 29  0     1  0  0  0  0  0999 V2000
   -2.9561   -3.9186    1.3887 H   0  0  0  0  0  0  0  0  0  0  0  0
   -3.1191   -2.9346    0.9517 C   0  0  0  0  0  0  0  0  0  0  0  0
   -3.7811   -2.3546    1.5917 H   0  0  0  0  0  0  0  0  0  0  0  0
   -3.5591   -3.0406   -0.0383 H   0  0  0  0  0  0  0  0  0  0  0  0
   -1.7921   -2.2226    0.8327 C   0  0  0  0  0  0  0  0  0  0  0  0
   -0.7611   -2.7766    1.1927 O   0  0  0  0  0  0  0  0  0  0  0  0
   -1.8201   -0.9926    0.3247 N   0  0  0  0  0  0  0  0  0  0  0  0
   -2.7141   -0.5816    0.0927 H   0  0  0  0  0  0  0  0  0  0  0  0
   -0.6481   -0.1156    0.2017 C   0  0  1  0  0  0  0  0  0  0  0  0
   -0.8874    0.6742   -0.5133 H   0  0  0  0  0  0  0  0  0  0  0  0
   -0.3454    0.5417    1.5623 C   0  0  0  0  0  0  0  0  0  0  0  0
   -0.2164   -0.2287    2.3239 H   0  0  0  0  0  0  0  0  0  0  0  0
    0.5881    1.1027    1.5015 H   0  0  0  0  0  0  0  0  0  0  0  0
   -1.4512    1.4556    2.0313 C   0  0  0  0  0  0  0  0  0  0  0  0
   -1.7263    2.7293    1.5317 N   0  0  0  0  0  0  0  0  0  0  0  0
   -2.8107    3.1591    2.1932 C   0  0  0  0  0  0  0  0  0  0  0  0
   -3.2755    4.1257    2.0450 H   0  0  0  0  0  0  0  0  0  0  0  0
   -3.2388    2.2199    3.0533 N   0  0  0  0  0  0  0  0  0  0  0  0
   -4.0496    2.2988    3.6518 H   0  0  0  0  0  0  0  0  0  0  0  0
   -2.3953    1.1350    2.9626 C   0  0  0  0  0  0  0  0  0  0  0  0
   -2.4642    0.1972    3.4992 H   0  0  0  0  0  0  0  0  0  0  0  0
    0.5567   -0.8931   -0.3575 C   0  0  0  0  0  0  0  0  0  0  0  0
    0.3879   -1.9878   -0.8946 O   0  0  0  0  0  0  0  0  0  0  0  0
    1.7643   -0.3314   -0.2429 N   0  0  0  0  0  0  0  0  0  0  0  0
    1.8255    0.5189    0.3060 H   0  0  0  0  0  0  0  0  0  0  0  0
    3.0086   -0.9226   -0.7293 C   0  0  0  0  0  0  0  0  0  0  0  0
    2.8278   -1.4643   -1.6613 H   0  0  0  0  0  0  0  0  0  0  0  0
    3.7461   -0.1391   -0.9091 H   0  0  0  0  0  0  0  0  0  0  0  0
    3.3964   -1.6208    0.0143 H   0  0  0  0  0  0  0  0  0  0  0  0
  5  6  2  0  0  0  0
  5  7  1  0  0  0  0
  2  3  1  0  0  0  0
  2  4  1  0  0  0  0
  2  5  1  0  0  0  0
  1  2  1  0  0  0  0
 22 23  2  0  0  0  0
 22 24  1  0  0  0  0
 20 21  1  0  0  0  0
 18 19  1  0  0  0  0
 18 20  1  0  0  0  0
 16 17  1  0  0  0  0
 16 18  1  0  0  0  0
 15 16  2  0  0  0  0
 14 15  1  0  0  0  0
 14 20  2  0  0  0  0
 11 12  1  0  0  0  0
 11 13  1  0  0  0  0
 11 14  1  0  0  0  0
  9 10  1  0  0  0  0
  9 11  1  0  0  0  0
  9 22  1  0  0  0  0
  7  8  1  0  0  0  0
  7  9  1  0  0  0  0
 26 27  1  0  0  0  0
 26 28  1  0  0  0  0
 26 29  1  0  0  0  0
 24 25  1  0  0  0  0
 24 26  1  0  0  0  0
M  END
$$$$
default_name
  -OEChem-01062215323D

 29 29  0     1  0  0  0  0  0999 V2000
   -2.9561   -3.9186    1.3887 H   0  0  0  0  0  0  0  0  0  0  0  0
   -3.1191   -2.9346    0.9517 C   0  0  0  0  0  0  0  0  0  0  0  0
   -3.7811   -2.3546    1.5917 H   0  0  0  0  0  0  0  0  0  0  0  0
   -3.5591   -3.0406   -0.0383 H   0  0  0  0  0  0  0  0  0  0  0  0
   -1.7921   -2.2226    0.8327 C   0  0  0  0  0  0  0  0  0  0  0  0
   -0.7611   -2.7766    1.1927 O   0  0  0  0  0  0  0  0  0  0  0  0
   -1.8201   -0.9926    0.3247 N   0  0  0  0  0  0  0  0  0  0  0  0
   -2.7141   -0.5816    0.0927 H   0  0  0  0  0  0  0  0  0  0  0  0
   -0.6481   -0.1156    0.2017 C   0  0  1  0  0  0  0  0  0  0  0  0
   -0.8874    0.6742   -0.5133 H   0  0  0  0  0  0  0  0  0  0  0  0
   -0.3454    0.5417    1.5623 C   0  0  0  0  0  0  0  0  0  0  0  0
   -0.2164   -0.2287    2.3239 H   0  0  0  0  0  0  0  0  0  0  0  0
    0.5881    1.1027    1.5015 H   0  0  0  0  0  0  0  0  0  0  0  0
   -1.4512    1.4556    2.0313 C   0  0  0  0  0  0  0  0  0  0  0  0
   -1.7263    2.7293    1.5317 N   0  0  0  0  0  0  0  0  0  0  0  0
   -2.8107    3.1591    2.1932 C   0  0  0  0  0  0  0  0  0  0  0  0
   -3.2755    4.1257    2.0450 H   0  0  0  0  0  0  0  0  0  0  0  0
   -3.2388    2.2199    3.0533 N   0  0  0  0  0  0  0  0  0  0  0  0
   -4.0496    2.2988    3.6518 H   0  0  0  0  0  0  0  0  0  0  0  0
   -2.3953    1.1350    2.9626 C   0  0  0  0  0  0  0  0  0  0  0  0
   -2.4642    0.1972    3.4992 H   0  0  0  0  0  0  0  0  0  0  0  0
    0.5567   -0.8931   -0.3575 C   0  0  0  0  0  0  0  0  0  0  0  0
    0.3774   -1.8364   -1.1278 O   0  0  0  0  0  0  0  0  0  0  0  0
    1.7775   -0.4980    0.0172 N   0  0  0  0  0  0  0  0  0  0  0  0
    1.8294    0.2164    0.7348 H   0  0  0  0  0  0  0  0  0  0  0  0
    3.0261   -1.1125   -0.4277 C   0  0  0  0  0  0  0  0  0  0  0  0
    2.9349   -1.4380   -1.4671 H   0  0  0  0  0  0  0  0  0  0  0  0
    3.8422   -0.3928   -0.3493 H   0  0  0  0  0  0  0  0  0  0  0  0
    3.2481   -1.9806    0.1951 H   0  0  0  0  0  0  0  0  0  0  0  0
  5  6  2  0  0  0  0
  5  7  1  0  0  0  0
  2  3  1  0  0  0  0
  2  4  1  0  0  0  0
  2  5  1  0  0  0  0
  1  2  1  0  0  0  0
 22 23  2  0  0  0  0
 22 24  1  0  0  0  0
 20 21  1  0  0  0  0
 18 19  1  0  0  0  0
 18 20  1  0  0  0  0
 16 17  1  0  0  0  0
 16 18  1  0  0  0  0
 15 16  2  0  0  0  0
 14 15  1  0  0  0  0
 14 20  2  0  0  0  0
 11 12  1  0  0  0  0
 11 13  1  0  0  0  0
 11 14  1  0  0  0  0
  9 10  1  0  0  0  0
  9 11  1  0  0  0  0
  9 22  1  0  0  0  0
  7  8  1  0  0  0  0
  7  9  1  0  0  0  0
 26 27  1  0  0  0  0
 26 28  1  0  0  0  0
 26 29  1  0  0  0  0
 24 25  1  0  0  0  0
 24 26  1  0  0  0  0
M  END
$$$$
default_name
  -OEChem-01062215323D

 29 29  0     1  0  0  0  0  0999 V2000
   -2.9561   -3.9186    1.3887 H   0  0  0  0  0  0  0  0  0  0  0  0
   -3.1191   -2.9346    0.9517 C   0  0  0  0  0  0  0  0  0  0  0  0
   -3.7811   -2.3546    1.5917 H   0  0  0  0  0  0  0  0  0  0  0  0
   -3.5591   -3.0406   -0.0383 H   0  0  0  0  0  0  0  0  0  0  0  0
   -1.7921   -2.2226    0.8327 C   0  0  0  0  0  0  0  0  0  0  0  0
   -0.7611   -2.7766    1.1927 O   0  0  0  0  0  0  0  0  0  0  0  0
   -1.8201   -0.9926    0.3247 N   0  0  0  0  0  0  0  0  0  0  0  0
   -2.7141   -0.5816    0.0927 H   0  0  0  0  0  0  0  0  0  0  0  0
   -0.6481   -0.1156    0.2017 C   0  0  1  0  0  0  0  0  0  0  0  0
   -0.8874    0.6742   -0.5133 H   0  0  0  0  0  0  0  0  0  0  0  0
   -0.3454    0.5417    1.5623 C   0  0  0  0  0  0  0  0  0  0  0  0
   -0.2164   -0.2287    2.3239 H   0  0  0  0  0  0  0  0  0  0  0  0
    0.5881    1.1027    1.5015 H   0  0  0  0  0  0  0  0  0  0  0  0
   -1.4512    1.4556    2.0313 C   0  0  0  0  0  0  0  0  0  0  0  0
   -1.7263    2.7293    1.5317 N   0  0  0  0  0  0  0  0  0  0  0  0
   -2.8107    3.1591    2.1932 C   0  0  0  0  0  0  0  0  0  0  0  0
   -3.2755    4.1257    2.0450 H   0  0  0  0  0  0  0  0  0  0  0  0
   -3.2388    2.2199    3.0533 N   0  0  0  0  0  0  0  0  0  0  0  0
   -4.0496    2.2988    3.6518 H   0  0  0  0  0  0  0  0  0  0  0  0
   -2.3953    1.1350    2.9626 C   0  0  0  0  0  0  0  0  0  0  0  0
   -2.4642    0.1972    3.4992 H   0  0  0  0  0  0  0  0  0  0  0  0
    0.5567   -0.8931   -0.3575 C   0  0  0  0  0  0  0  0  0  0  0  0
    0.4120   -1.6419   -1.3238 O   0  0  0  0  0  0  0  0  0  0  0  0
    1.7406   -0.7128    0.2364 N   0  0  0  0  0  0  0  0  0  0  0  0
    1.7485   -0.1631    1.0883 H   0  0  0  0  0  0  0  0  0  0  0  0
    2.9857   -1.3586   -0.1725 C   0  0  0  0  0  0  0  0  0  0  0  0
    3.0155   -1.4619   -1.2602 H   0  0  0  0  0  0  0  0  0  0  0  0
    3.8380   -0.7604    0.1527 H   0  0  0  0  0  0  0  0  0  0  0  0
    3.0474   -2.3509    0.2774 H   0  0  0  0  0  0  0  0  0  0  0  0
  5  6  2  0  0  0  0
  5  7  1  0  0  0  0
  2  3  1  0  0  0  0
  2  4  1  0  0  0  0
  2  5  1  0  0  0  0
  1  2  1  0  0  0  0
 22 23  2  0  0  0  0
 22 24  1  0  0  0  0
 20 21  1  0  0  0  0
 18 19  1  0  0  0  0
 18 20  1  0  0  0  0
 16 17  1  0  0  0  0
 16 18  1  0  0  0  0
 15 16  2  0  0  0  0
 14 15  1  0  0  0  0
 14 20  2  0  0  0  0
 11 12  1  0  0  0  0
 11 13  1  0  0  0  0
 11 14  1  0  0  0  0
  9 10  1  0  0  0  0
  9 11  1  0  0  0  0
  9 22  1  0  0  0  0
  7  8  1  0  0  0  0
  7  9  1  0  0  0  0
 26 27  1  0  0  0  0
 26 28  1  0  0  0  0
 26 29  1  0  0  0  0
 24 25  1  0  0  0  0
 24 26  1  0  0  0  0
M  END
$$$$
default_name
  -OEChem-01062215323D

 29 29  0     1  0  0  0  0  0999 V2000
   -2.9561   -3.9186    1.3887 H   0  0  0  0  0  0  0  0  0  0  0  0
   -3.1191   -2.9346    0.9517 C   0  0  0  0  0  0  0  0  0  0  0  0
   -3.7811   -2.3546    1.5917 H   0  0  0  0  0  0  0  0  0  0  0  0
   -3.5591   -3.0406   -0.0383 H   0  0  0  0  0  0  0  0  0  0  0  0
   -1.7921   -2.2226    0.8327 C   0  0  0  0  0  0  0  0  0  0  0  0
   -0.7611   -2.7766    1.1927 O   0  0  0  0  0  0  0  0  0  0  0  0
   -1.8201   -0.9926    0.3247 N   0  0  0  0  0  0  0  0  0  0  0  0
   -2.7141   -0.5816    0.0927 H   0  0  0  0  0  0  0  0  0  0  0  0
   -0.6481   -0.1156    0.2017 C   0  0  1  0  0  0  0  0  0  0  0  0
   -0.8874    0.6742   -0.5133 H   0  0  0  0  0  0  0  0  0  0  0  0
   -0.3454    0.5417    1.5623 C   0  0  0  0  0  0  0  0  0  0  0  0
   -0.2164   -0.2287    2.3239 H   0  0  0  0  0  0  0  0  0  0  0  0
    0.5881    1.1027    1.5015 H   0  0  0  0  0  0  0  0  0  0  0  0
   -1.4512    1.4556    2.0313 C   0  0  0  0  0  0  0  0  0  0  0  0
   -1.7263    2.7293    1.5317 N   0  0  0  0  0  0  0  0  0  0  0  0
   -2.8107    3.1591    2.1932 C   0  0  0  0  0  0  0  0  0  0  0  0
   -3.2755    4.1257    2.0450 H   0  0  0  0  0  0  0  0  0  0  0  0
   -3.2388    2.2199    3.0533 N   0  0  0  0  0  0  0  0  0  0  0  0
   -4.0496    2.2988    3.6518 H   0  0  0  0  0  0  0  0  0  0  0  0
   -2.3953    1.1350    2.9626 C   0  0  0  0  0  0  0  0  0  0  0  0
   -2.4642    0.1972    3.4992 H   0  0  0  0  0  0  0  0  0  0  0  0
    0.5567   -0.8931   -0.3575 C   0  0  0  0  0  0  0  0  0  0  0  0
    0.4892   -1.4176   -1.4691 O   0  0  0  0  0  0  0  0  0  0  0  0
    1.6561   -0.9613    0.3998 N   0  0  0  0  0  0  0  0  0  0  0  0
    1.5886   -0.5937    1.3423 H   0  0  0  0  0  0  0  0  0  0  0  0
    2.8902   -1.6443    0.0188 C   0  0  0  0  0  0  0  0  0  0  0  0
    3.0640   -1.5346   -1.0547 H   0  0  0  0  0  0  0  0  0  0  0  0
    3.7338   -1.2167    0.5625 H   0  0  0  0  0  0  0  0  0  0  0  0
    2.8079   -2.7063    0.2556 H   0  0  0  0  0  0  0  0  0  0  0  0
  5  6  2  0  0  0  0
  5  7  1  0  0  0  0
  2  3  1  0  0  0  0
  2  4  1  0  0  0  0
  2  5  1  0  0  0  0
  1  2  1  0  0  0  0
 22 23  2  0  0  0  0
 22 24  1  0  0  0  0
 20 21  1  0  0  0  0
 18 19  1  0  0  0  0
 18 20  1  0  0  0  0
 16 17  1  0  0  0  0
 16 18  1  0  0  0  0
 15 16  2  0  0  0  0
 14 15  1  0  0  0  0
 14 20  2  0  0  0  0
 11 12  1  0  0  0  0
 11 13  1  0  0  0  0
 11 14  1  0  0  0  0
  9 10  1  0  0  0  0
  9 11  1  0  0  0  0
  9 22  1  0  0  0  0
  7  8  1  0  0  0  0
  7  9  1  0  0  0  0
 26 27  1  0  0  0  0
 26 28  1  0  0  0  0
 26 29  1  0  0  0  0
 24 25  1  0  0  0  0
 24 26  1  0  0  0  0
M  END
$$$$
default_name
  -OEChem-01062215323D

 29 29  0     1  0  0  0  0  0999 V2000
   -2.9561   -3.9186    1.3887 H   0  0  0  0  0  0  0  0  0  0  0  0
   -3.1191   -2.9346    0.9517 C   0  0  0  0  0  0  0  0  0  0  0  0
   -3.7811   -2.3546    1.5917 H   0  0  0  0  0  0  0  0  0  0  0  0
   -3.5591   -3.0406   -0.0383 H   0  0  0  0  0  0  0  0  0  0  0  0
   -1.7921   -2.2226    0.8327 C   0  0  0  0  0  0  0  0  0  0  0  0
   -0.7611   -2.7766    1.1927 O   0  0  0  0  0  0  0  0  0  0  0  0
   -1.8201   -0.9926    0.3247 N   0  0  0  0  0  0  0  0  0  0  0  0
   -2.7141   -0.5816    0.0927 H   0  0  0  0  0  0  0  0  0  0  0  0
   -0.6481   -0.1156    0.2017 C   0  0  1  0  0  0  0  0  0  0  0  0
   -0.8874    0.6742   -0.5133 H   0  0  0  0  0  0  0  0  0  0  0  0
   -0.3454    0.5417    1.5623 C   0  0  0  0  0  0  0  0  0  0  0  0
   -0.2164   -0.2287    2.3239 H   0  0  0  0  0  0  0  0  0  0  0  0
    0.5881    1.1027    1.5015 H   0  0  0  0  0  0  0  0  0  0  0  0
   -1.4512    1.4556    2.0313 C   0  0  0  0  0  0  0  0  0  0  0  0
   -1.7263    2.7293    1.5317 N   0  0  0  0  0  0  0  0  0  0  0  0
   -2.8107    3.1591    2.1932 C   0  0  0  0  0  0  0  0  0  0  0  0
   -3.2755    4.1257    2.0450 H   0  0  0  0  0  0  0  0  0  0  0  0
   -3.2388    2.2199    3.0533 N   0  0  0  0  0  0  0  0  0  0  0  0
   -4.0496    2.2988    3.6518 H   0  0  0  0  0  0  0  0  0  0  0  0
   -2.3953    1.1350    2.9626 C   0  0  0  0  0  0  0  0  0  0  0  0
   -2.4642    0.1972    3.4992 H   0  0  0  0  0  0  0  0  0  0  0  0
    0.5567   -0.8931   -0.3575 C   0  0  0  0  0  0  0  0  0  0  0  0
    0.6040   -1.1788   -1.5540 O   0  0  0  0  0  0  0  0  0  0  0  0
    1.5298   -1.2265    0.4962 N   0  0  0  0  0  0  0  0  0  0  0  0
    1.3604   -1.0460    1.4795 H   0  0  0  0  0  0  0  0  0  0  0  0
    2.7460   -1.9500    0.1333 C   0  0  0  0  0  0  0  0  0  0  0  0
    3.0772   -1.6510   -0.8646 H   0  0  0  0  0  0  0  0  0  0  0  0
    3.5366   -1.7307    0.8523 H   0  0  0  0  0  0  0  0  0  0  0  0
    2.5461   -3.0227    0.1313 H   0  0  0  0  0  0  0  0  0  0  0  0
  5  6  2  0  0  0  0
  5  7  1  0  0  0  0
  2  3  1  0  0  0  0
  2  4  1  0  0  0  0
  2  5  1  0  0  0  0
  1  2  1  0  0  0  0
 22 23  2  0  0  0  0
 22 24  1  0  0  0  0
 20 21  1  0  0  0  0
 18 19  1  0  0  0  0
 18 20  1  0  0  0  0
 16 17  1  0  0  0  0
 16 18  1  0  0  0  0
 15 16  2  0  0  0  0
 14 15  1  0  0  0  0
 14 20  2  0  0  0  0
 11 12  1  0  0  0  0
 11 13  1  0  0  0  0
 11 14  1  0  0  0  0
  9 10  1  0  0  0  0
  9 11  1  0  0  0  0
  9 22  1  0  0  0  0
  7  8  1  0  0  0  0
  7  9  1  0  0  0  0
 26 27  1  0  0  0  0
 26 28  1  0  0  0  0
 26 29  1  0  0  0  0
 24 25  1  0  0  0  0
 24 26  1  0  0  0  0
M  END
$$$$
default_name
  -OEChem-01062215323D

 29 29  0     1  0  0  0  0  0999 V2000
   -2.9561   -3.9186    1.3887 H   0  0  0  0  0  0  0  0  0  0  0  0
   -3.1191   -2.9346    0.9517 C   0  0  0  0  0  0  0  0  0  0  0  0
   -3.7811   -2.3546    1.5917 H   0  0  0  0  0  0  0  0  0  0  0  0
   -3.5591   -3.0406   -0.0383 H   0  0  0  0  0  0  0  0  0  0  0  0
   -1.7921   -2.2226    0.8327 C   0  0  0  0  0  0  0  0  0  0  0  0
   -0.7611   -2.7766    1.1927 O   0  0  0  0  0  0  0  0  0  0  0  0
   -1.8201   -0.9926    0.3247 N   0  0  0  0  0  0  0  0  0  0  0  0
   -2.7141   -0.5816    0.0927 H   0  0  0  0  0  0  0  0  0  0  0  0
   -0.6481   -0.1156    0.2017 C   0  0  1  0  0  0  0  0  0  0  0  0
   -0.8874    0.6742   -0.5133 H   0  0  0  0  0  0  0  0  0  0  0  0
   -0.3454    0.5417    1.5623 C   0  0  0  0  0  0  0  0  0  0  0  0
   -0.2164   -0.2287    2.3239 H   0  0  0  0  0  0  0  0  0  0  0  0
    0.5881    1.1027    1.5015 H   0  0  0  0  0  0  0  0  0  0  0  0
   -1.4512    1.4556    2.0313 C   0  0  0  0  0  0  0  0  0  0  0  0
   -1.7263    2.7293    1.5317 N   0  0  0  0  0  0  0  0  0  0  0  0
   -2.8107    3.1591    2.1932 C   0  0  0  0  0  0  0  0  0  0  0  0
   -3.2755    4.1257    2.0450 H   0  0  0  0  0  0  0  0  0  0  0  0
   -3.2388    2.2199    3.0533 N   0  0  0  0  0  0  0  0  0  0  0  0
   -4.0496    2.2988    3.6518 H   0  0  0  0  0  0  0  0  0  0  0  0
   -2.3953    1.1350    2.9626 C   0  0  0  0  0  0  0  0  0  0  0  0
   -2.4642    0.1972    3.4992 H   0  0  0  0  0  0  0  0  0  0  0  0
    0.5567   -0.8931   -0.3575 C   0  0  0  0  0  0  0  0  0  0  0  0
    0.7484   -0.9417   -1.5726 O   0  0  0  0  0  0  0  0  0  0  0  0
    1.3702   -1.4902    0.5192 N   0  0  0  0  0  0  0  0  0  0  0  0
    1.0795   -1.4892    1.4905 H   0  0  0  0  0  0  0  0  0  0  0  0
    2.5631   -2.2549    0.1630 C   0  0  0  0  0  0  0  0  0  0  0  0
    3.0541   -1.8031   -0.7028 H   0  0  0  0  0  0  0  0  0  0  0  0
    3.2599   -2.2674    1.0023 H   0  0  0  0  0  0  0  0  0  0  0  0
    2.2796   -3.2785   -0.0872 H   0  0  0  0  0  0  0  0  0  0  0  0
  5  6  2  0  0  0  0
  5  7  1  0  0  0  0
  2  3  1  0  0  0  0
  2  4  1  0  0  0  0
  2  5  1  0  0  0  0
  1  2  1  0  0  0  0
 22 23  2  0  0  0  0
 22 24  1  0  0  0  0
 20 21  1  0  0  0  0
 18 19  1  0  0  0  0
 18 20  1  0  0  0  0
 16 17  1  0  0  0  0
 16 18  1  0  0  0  0
 15 16  2  0  0  0  0
 14 15  1  0  0  0  0
 14 20  2  0  0  0  0
 11 12  1  0  0  0  0
 11 13  1  0  0  0  0
 11 14  1  0  0  0  0
  9 10  1  0  0  0  0
  9 11  1  0  0  0  0
  9 22  1  0  0  0  0
  7  8  1  0  0  0  0
  7  9  1  0  0  0  0
 26 27  1  0  0  0  0
 26 28  1  0  0  0  0
 26 29  1  0  0  0  0
 24 25  1  0  0  0  0
 24 26  1  0  0  0  0
M  END
$$$$
default_name
  -OEChem-01062215323D

 29 29  0     1  0  0  0  0  0999 V2000
   -2.9561   -3.9186    1.3887 H   0  0  0  0  0  0  0  0  0  0  0  0
   -3.1191   -2.9346    0.9517 C   0  0  0  0  0  0  0  0  0  0  0  0
   -3.7811   -2.3546    1.5917 H   0  0  0  0  0  0  0  0  0  0  0  0
   -3.5591   -3.0406   -0.0383 H   0  0  0  0  0  0  0  0  0  0  0  0
   -1.7921   -2.2226    0.8327 C   0  0  0  0  0  0  0  0  0  0  0  0
   -0.7611   -2.7766    1.1927 O   0  0  0  0  0  0  0  0  0  0  0  0
   -1.8201   -0.9926    0.3247 N   0  0  0  0  0  0  0  0  0  0  0  0
   -2.7141   -0.5816    0.0927 H   0  0  0  0  0  0  0  0  0  0  0  0
   -0.6481   -0.1156    0.2017 C   0  0  1  0  0  0  0  0  0  0  0  0
   -0.8874    0.6742   -0.5133 H   0  0  0  0  0  0  0  0  0  0  0  0
   -0.3454    0.5417    1.5623 C   0  0  0  0  0  0  0  0  0  0  0  0
   -0.2164   -0.2287    2.3239 H   0  0  0  0  0  0  0  0  0  0  0  0
    0.5881    1.1027    1.5015 H   0  0  0  0  0  0  0  0  0  0  0  0
   -1.4512    1.4556    2.0313 C   0  0  0  0  0  0  0  0  0  0  0  0
   -1.7263    2.7293    1.5317 N   0  0  0  0  0  0  0  0  0  0  0  0
   -2.8107    3.1591    2.1932 C   0  0  0  0  0  0  0  0  0  0  0  0
   -3.2755    4.1257    2.0450 H   0  0  0  0  0  0  0  0  0  0  0  0
   -3.2388    2.2199    3.0533 N   0  0  0  0  0  0  0  0  0  0  0  0
   -4.0496    2.2988    3.6518 H   0  0  0  0  0  0  0  0  0  0  0  0
   -2.3953    1.1350    2.9626 C   0  0  0  0  0  0  0  0  0  0  0  0
   -2.4642    0.1972    3.4992 H   0  0  0  0  0  0  0  0  0  0  0  0
    0.5567   -0.8931   -0.3575 C   0  0  0  0  0  0  0  0  0  0  0  0
    0.9126   -0.7225   -1.5236 O   0  0  0  0  0  0  0  0  0  0  0  0
    1.1882   -1.7347    0.4670 N   0  0  0  0  0  0  0  0  0  0  0  0
    0.7650   -1.8931    1.3746 H   0  0  0  0  0  0  0  0  0  0  0  0
    2.3538   -2.5383    0.1061 C   0  0  0  0  0  0  0  0  0  0  0  0
    2.9963   -1.9807   -0.5803 H   0  0  0  0  0  0  0  0  0  0  0  0
    2.9225   -2.7901    1.0023 H   0  0  0  0  0  0  0  0  0  0  0  0
    2.0267   -3.4563   -0.3848 H   0  0  0  0  0  0  0  0  0  0  0  0
  5  6  2  0  0  0  0
  5  7  1  0  0  0  0
  2  3  1  0  0  0  0
  2  4  1  0  0  0  0
  2  5  1  0  0  0  0
  1  2  1  0  0  0  0
 22 23  2  0  0  0  0
 22 24  1  0  0  0  0
 20 21  1  0  0  0  0
 18 19  1  0  0  0  0
 18 20  1  0  0  0  0
 16 17  1  0  0  0  0
 16 18  1  0  0  0  0
 15 16  2  0  0  0  0
 14 15  1  0  0  0  0
 14 20  2  0  0  0  0
 11 12  1  0  0  0  0
 11 13  1  0  0  0  0
 11 14  1  0  0  0  0
  9 10  1  0  0  0  0
  9 11  1  0  0  0  0
  9 22  1  0  0  0  0
  7  8  1  0  0  0  0
  7  9  1  0  0  0  0
 26 27  1  0  0  0  0
 26 28  1  0  0  0  0
 26 29  1  0  0  0  0
 24 25  1  0  0  0  0
 24 26  1  0  0  0  0
M  END
$$$$
default_name
  -OEChem-01062215323D

 29 29  0     1  0  0  0  0  0999 V2000
   -2.9561   -3.9186    1.3887 H   0  0  0  0  0  0  0  0  0  0  0  0
   -3.1191   -2.9346    0.9517 C   0  0  0  0  0  0  0  0  0  0  0  0
   -3.7811   -2.3546    1.5917 H   0  0  0  0  0  0  0  0  0  0  0  0
   -3.5591   -3.0406   -0.0383 H   0  0  0  0  0  0  0  0  0  0  0  0
   -1.7921   -2.2226    0.8327 C   0  0  0  0  0  0  0  0  0  0  0  0
   -0.7611   -2.7766    1.1927 O   0  0  0  0  0  0  0  0  0  0  0  0
   -1.8201   -0.9926    0.3247 N   0  0  0  0  0  0  0  0  0  0  0  0
   -2.7141   -0.5816    0.0927 H   0  0  0  0  0  0  0  0  0  0  0  0
   -0.6481   -0.1156    0.2017 C   0  0  1  0  0  0  0  0  0  0  0  0
   -0.8874    0.6742   -0.5133 H   0  0  0  0  0  0  0  0  0  0  0  0
   -0.3454    0.5417    1.5623 C   0  0  0  0  0  0  0  0  0  0  0  0
   -0.2164   -0.2287    2.3239 H   0  0  0  0  0  0  0  0  0  0  0  0
    0.5881    1.1027    1.5015 H   0  0  0  0  0  0  0  0  0  0  0  0
   -1.4512    1.4556    2.0313 C   0  0  0  0  0  0  0  0  0  0  0  0
   -1.7263    2.7293    1.5317 N   0  0  0  0  0  0  0  0  0  0  0  0
   -2.8107    3.1591    2.1932 C   0  0  0  0  0  0  0  0  0  0  0  0
   -3.2755    4.1257    2.0450 H   0  0  0  0  0  0  0  0  0  0  0  0
   -3.2388    2.2199    3.0533 N   0  0  0  0  0  0  0  0  0  0  0  0
   -4.0496    2.2988    3.6518 H   0  0  0  0  0  0  0  0  0  0  0  0
   -2.3953    1.1350    2.9626 C   0  0  0  0  0  0  0  0  0  0  0  0
   -2.4642    0.1972    3.4992 H   0  0  0  0  0  0  0  0  0  0  0  0
    0.5567   -0.8931   -0.3575 C   0  0  0  0  0  0  0  0  0  0  0  0
    1.0854   -0.5361   -1.4104 O   0  0  0  0  0  0  0  0  0  0  0  0
    0.9963   -1.9431    0.3433 N   0  0  0  0  0  0  0  0  0  0  0  0
    0.4385   -2.2302    1.1397 H   0  0  0  0  0  0  0  0  0  0  0  0
    2.1324   -2.7807   -0.0337 C   0  0  0  0  0  0  0  0  0  0  0  0
    2.9078   -2.1717   -0.5056 H   0  0  0  0  0  0  0  0  0  0  0  0
    2.5475   -3.2633    0.8522 H   0  0  0  0  0  0  0  0  0  0  0  0
    1.8047   -3.5439   -0.7414 H   0  0  0  0  0  0  0  0  0  0  0  0
  5  6  2  0  0  0  0
  5  7  1  0  0  0  0
  2  3  1  0  0  0  0
  2  4  1  0  0  0  0
  2  5  1  0  0  0  0
  1  2  1  0  0  0  0
 22 23  2  0  0  0  0
 22 24  1  0  0  0  0
 20 21  1  0  0  0  0
 18 19  1  0  0  0  0
 18 20  1  0  0  0  0
 16 17  1  0  0  0  0
 16 18  1  0  0  0  0
 15 16  2  0  0  0  0
 14 15  1  0  0  0  0
 14 20  2  0  0  0  0
 11 12  1  0  0  0  0
 11 13  1  0  0  0  0
 11 14  1  0  0  0  0
  9 10  1  0  0  0  0
  9 11  1  0  0  0  0
  9 22  1  0  0  0  0
  7  8  1  0  0  0  0
  7  9  1  0  0  0  0
 26 27  1  0  0  0  0
 26 28  1  0  0  0  0
 26 29  1  0  0  0  0
 24 25  1  0  0  0  0
 24 26  1  0  0  0  0
M  END
$$$$
default_name
  -OEChem-01062215323D

 29 29  0     1  0  0  0  0  0999 V2000
   -2.9561   -3.9186    1.3887 H   0  0  0  0  0  0  0  0  0  0  0  0
   -3.1191   -2.9346    0.9517 C   0  0  0  0  0  0  0  0  0  0  0  0
   -3.7811   -2.3546    1.5917 H   0  0  0  0  0  0  0  0  0  0  0  0
   -3.5591   -3.0406   -0.0383 H   0  0  0  0  0  0  0  0  0  0  0  0
   -1.7921   -2.2226    0.8327 C   0  0  0  0  0  0  0  0  0  0  0  0
   -0.7611   -2.7766    1.1927 O   0  0  0  0  0  0  0  0  0  0  0  0
   -1.8201   -0.9926    0.3247 N   0  0  0  0  0  0  0  0  0  0  0  0
   -2.7141   -0.5816    0.0927 H   0  0  0  0  0  0  0  0  0  0  0  0
   -0.6481   -0.1156    0.2017 C   0  0  1  0  0  0  0  0  0  0  0  0
   -0.8874    0.6742   -0.5133 H   0  0  0  0  0  0  0  0  0  0  0  0
   -0.3454    0.5417    1.5623 C   0  0  0  0  0  0  0  0  0  0  0  0
   -0.2164   -0.2287    2.3239 H   0  0  0  0  0  0  0  0  0  0  0  0
    0.5881    1.1027    1.5015 H   0  0  0  0  0  0  0  0  0  0  0  0
   -1.4512    1.4556    2.0313 C   0  0  0  0  0  0  0  0  0  0  0  0
   -1.7263    2.7293    1.5317 N   0  0  0  0  0  0  0  0  0  0  0  0
   -2.8107    3.1591    2.1932 C   0  0  0  0  0  0  0  0  0  0  0  0
   -3.2755    4.1257    2.0450 H   0  0  0  0  0  0  0  0  0  0  0  0
   -3.2388    2.2199    3.0533 N   0  0  0  0  0  0  0  0  0  0  0  0
   -4.0496    2.2988    3.6518 H   0  0  0  0  0  0  0  0  0  0  0  0
   -2.3953    1.1350    2.9626 C   0  0  0  0  0  0  0  0  0  0  0  0
   -2.4642    0.1972    3.4992 H   0  0  0  0  0  0  0  0  0  0  0  0
    0.5567   -0.8931   -0.3575 C   0  0  0  0  0  0  0  0  0  0  0  0
    1.2550   -0.3953   -1.2407 O   0  0  0  0  0  0  0  0  0  0  0  0
    0.8075   -2.1013    0.1564 N   0  0  0  0  0  0  0  0  0  0  0  0
    0.1220   -2.4776    0.8018 H   0  0  0  0  0  0  0  0  0  0  0  0
    1.9141   -2.9658   -0.2468 C   0  0  0  0  0  0  0  0  0  0  0  0
    2.7945   -2.3629   -0.4837 H   0  0  0  0  0  0  0  0  0  0  0  0
    2.1604   -3.6548    0.5624 H   0  0  0  0  0  0  0  0  0  0  0  0
    1.6286   -3.5355   -1.1327 H   0  0  0  0  0  0  0  0  0  0  0  0
  5  6  2  0  0  0  0
  5  7  1  0  0  0  0
  2  3  1  0  0  0  0
  2  4  1  0  0  0  0
  2  5  1  0  0  0  0
  1  2  1  0  0  0  0
 22 23  2  0  0  0  0
 22 24  1  0  0  0  0
 20 21  1  0  0  0  0
 18 19  1  0  0  0  0
 18 20  1  0  0  0  0
 16 17  1  0  0  0  0
 16 18  1  0  0  0  0
 15 16  2  0  0  0  0
 14 15  1  0  0  0  0
 14 20  2  0  0  0  0
 11 12  1  0  0  0  0
 11 13  1  0  0  0  0
 11 14  1  0  0  0  0
  9 10  1  0  0  0  0
  9 11  1  0  0  0  0
  9 22  1  0  0  0  0
  7  8  1  0  0  0  0
  7  9  1  0  0  0  0
 26 27  1  0  0  0  0
 26 28  1  0  0  0  0
 26 29  1  0  0  0  0
 24 25  1  0  0  0  0
 24 26  1  0  0  0  0
M  END
$$$$
default_name
  -OEChem-01062215323D

 29 29  0     1  0  0  0  0  0999 V2000
   -2.9561   -3.9186    1.3887 H   0  0  0  0  0  0  0  0  0  0  0  0
   -3.1191   -2.9346    0.9517 C   0  0  0  0  0  0  0  0  0  0  0  0
   -3.7811   -2.3546    1.5917 H   0  0  0  0  0  0  0  0  0  0  0  0
   -3.5591   -3.0406   -0.0383 H   0  0  0  0  0  0  0  0  0  0  0  0
   -1.7921   -2.2226    0.8327 C   0  0  0  0  0  0  0  0  0  0  0  0
   -0.7611   -2.7766    1.1927 O   0  0  0  0  0  0  0  0  0  0  0  0
   -1.8201   -0.9926    0.3247 N   0  0  0  0  0  0  0  0  0  0  0  0
   -2.7141   -0.5816    0.0927 H   0  0  0  0  0  0  0  0  0  0  0  0
   -0.6481   -0.1156    0.2017 C   0  0  1  0  0  0  0  0  0  0  0  0
   -0.8874    0.6742   -0.5133 H   0  0  0  0  0  0  0  0  0  0  0  0
   -0.3454    0.5417    1.5623 C   0  0  0  0  0  0  0  0  0  0  0  0
   -0.2164   -0.2287    2.3239 H   0  0  0  0  0  0  0  0  0  0  0  0
    0.5881    1.1027    1.5015 H   0  0  0  0  0  0  0  0  0  0  0  0
   -1.4512    1.4556    2.0313 C   0  0  0  0  0  0  0  0  0  0  0  0
   -1.7263    2.7293    1.5317 N   0  0  0  0  0  0  0  0  0  0  0  0
   -2.8107    3.1591    2.1932 C   0  0  0  0  0  0  0  0  0  0  0  0
   -3.2755    4.1257    2.0450 H   0  0  0  0  0  0  0  0  0  0  0  0
   -3.2388    2.2199    3.0533 N   0  0  0  0  0  0  0  0  0  0  0  0
   -4.0496    2.2988    3.6518 H   0  0  0  0  0  0  0  0  0  0  0  0
   -2.3953    1.1350    2.9626 C   0  0  0  0  0  0  0  0  0  0  0  0
   -2.4642    0.1972    3.4992 H   0  0  0  0  0  0  0  0  0  0  0  0
    0.5567   -0.8931   -0.3575 C   0  0  0  0  0  0  0  0  0  0  0  0
    1.4099   -0.3096   -1.0261 O   0  0  0  0  0  0  0  0  0  0  0  0
    0.6347   -2.1985   -0.0808 N   0  0  0  0  0  0  0  0  0  0  0  0
   -0.1627   -2.6183    0.3840 H   0  0  0  0  0  0  0  0  0  0  0  0
    1.7137   -3.0809   -0.5187 C   0  0  0  0  0  0  0  0  0  0  0  0
    2.6643   -2.5414   -0.5160 H   0  0  0  0  0  0  0  0  0  0  0  0
    1.7876   -3.9377    0.1525 H   0  0  0  0  0  0  0  0  0  0  0  0
    1.5104   -3.4314   -1.5319 H   0  0  0  0  0  0  0  0  0  0  0  0
  5  6  2  0  0  0  0
  5  7  1  0  0  0  0
  2  3  1  0  0  0  0
  2  4  1  0  0  0  0
  2  5  1  0  0  0  0
  1  2  1  0  0  0  0
 22 23  2  0  0  0  0
 22 24  1  0  0  0  0
 20 21  1  0  0  0  0
 18 19  1  0  0  0  0
 18 20  1  0  0  0  0
 16 17  1  0  0  0  0
 16 18  1  0  0  0  0
 15 16  2  0  0  0  0
 14 15  1  0  0  0  0
 14 20  2  0  0  0  0
 11 12  1  0  0  0  0
 11 13  1  0  0  0  0
 11 14  1  0  0  0  0
  9 10  1  0  0  0  0
  9 11  1  0  0  0  0
  9 22  1  0  0  0  0
  7  8  1  0  0  0  0
  7  9  1  0  0  0  0
 26 27  1  0  0  0  0
 26 28  1  0  0  0  0
 26 29  1  0  0  0  0
 24 25  1  0  0  0  0
 24 26  1  0  0  0  0
M  END
$$$$
default_name
  -OEChem-01062215323D

 29 29  0     1  0  0  0  0  0999 V2000
   -2.9561   -3.9186    1.3887 H   0  0  0  0  0  0  0  0  0  0  0  0
   -3.1191   -2.9346    0.9517 C   0  0  0  0  0  0  0  0  0  0  0  0
   -3.7811   -2.3546    1.5917 H   0  0  0  0  0  0  0  0  0  0  0  0
   -3.5591   -3.0406   -0.0383 H   0  0  0  0  0  0  0  0  0  0  0  0
   -1.7921   -2.2226    0.8327 C   0  0  0  0  0  0  0  0  0  0  0  0
   -0.7611   -2.7766    1.1927 O   0  0  0  0  0  0  0  0  0  0  0  0
   -1.8201   -0.9926    0.3247 N   0  0  0  0  0  0  0  0  0  0  0  0
   -2.7141   -0.5816    0.0927 H   0  0  0  0  0  0  0  0  0  0  0  0
   -0.6481   -0.1156    0.2017 C   0  0  1  0  0  0  0  0  0  0  0  0
   -0.8874    0.6742   -0.5133 H   0  0  0  0  0  0  0  0  0  0  0  0
   -0.3454    0.5417    1.5623 C   0  0  0  0  0  0  0  0  0  0  0  0
   -0.2164   -0.2287    2.3239 H   0  0  0  0  0  0  0  0  0  0  0  0
    0.5881    1.1027    1.5015 H   0  0  0  0  0  0  0  0  0  0  0  0
   -1.4512    1.4556    2.0313 C   0  0  0  0  0  0  0  0  0  0  0  0
   -1.7263    2.7293    1.5317 N   0  0  0  0  0  0  0  0  0  0  0  0
   -2.8107    3.1591    2.1932 C   0  0  0  0  0  0  0  0  0  0  0  0
   -3.2755    4.1257    2.0450 H   0  0  0  0  0  0  0  0  0  0  0  0
   -3.2388    2.2199    3.0533 N   0  0  0  0  0  0  0  0  0  0  0  0
   -4.0496    2.2988    3.6518 H   0  0  0  0  0  0  0  0  0  0  0  0
   -2.3953    1.1350    2.9626 C   0  0  0  0  0  0  0  0  0  0  0  0
   -2.4642    0.1972    3.4992 H   0  0  0  0  0  0  0  0  0  0  0  0
    0.5567   -0.8931   -0.3575 C   0  0  0  0  0  0  0  0  0  0  0  0
    1.5396   -0.2848   -0.7811 O   0  0  0  0  0  0  0  0  0  0  0  0
    0.4896   -2.2281   -0.3522 N   0  0  0  0  0  0  0  0  0  0  0  0
   -0.3963   -2.6428   -0.0854 H   0  0  0  0  0  0  0  0  0  0  0  0
    1.5448   -3.1181   -0.8308 C   0  0  0  0  0  0  0  0  0  0  0  0
    2.5260   -2.6951   -0.6005 H   0  0  0  0  0  0  0  0  0  0  0  0
    1.4545   -4.0929   -0.3495 H   0  0  0  0  0  0  0  0  0  0  0  0
    1.4583   -3.2389   -1.9119 H   0  0  0  0  0  0  0  0  0  0  0  0
  5  6  2  0  0  0  0
  5  7  1  0  0  0  0
  2  3  1  0  0  0  0
  2  4  1  0  0  0  0
  2  5  1  0  0  0  0
  1  2  1  0  0  0  0
 22 23  2  0  0  0  0
 22 24  1  0  0  0  0
 20 21  1  0  0  0  0
 18 19  1  0  0  0  0
 18 20  1  0  0  0  0
 16 17  1  0  0  0  0
 16 18  1  0  0  0  0
 15 16  2  0  0  0  0
 14 15  1  0  0  0  0
 14 20  2  0  0  0  0
 11 12  1  0  0  0  0
 11 13  1  0  0  0  0
 11 14  1  0  0  0  0
  9 10  1  0  0  0  0
  9 11  1  0  0  0  0
  9 22  1  0  0  0  0
  7  8  1  0  0  0  0
  7  9  1  0  0  0  0
 26 27  1  0  0  0  0
 26 28  1  0  0  0  0
 26 29  1  0  0  0  0
 24 25  1  0  0  0  0
 24 26  1  0  0  0  0
M  END
$$$$
default_name
  -OEChem-01062215323D

 29 29  0     1  0  0  0  0  0999 V2000
   -2.9561   -3.9186    1.3887 H   0  0  0  0  0  0  0  0  0  0  0  0
   -3.1191   -2.9346    0.9517 C   0  0  0  0  0  0  0  0  0  0  0  0
   -3.7811   -2.3546    1.5917 H   0  0  0  0  0  0  0  0  0  0  0  0
   -3.5591   -3.0406   -0.0383 H   0  0  0  0  0  0  0  0  0  0  0  0
   -1.7921   -2.2226    0.8327 C   0  0  0  0  0  0  0  0  0  0  0  0
   -0.7611   -2.7766    1.1927 O   0  0  0  0  0  0  0  0  0  0  0  0
   -1.8201   -0.9926    0.3247 N   0  0  0  0  0  0  0  0  0  0  0  0
   -2.7141   -0.5816    0.0927 H   0  0  0  0  0  0  0  0  0  0  0  0
   -0.6481   -0.1156    0.2017 C   0  0  1  0  0  0  0  0  0  0  0  0
   -0.8874    0.6742   -0.5133 H   0  0  0  0  0  0  0  0  0  0  0  0
   -0.3454    0.5417    1.5623 C   0  0  0  0  0  0  0  0  0  0  0  0
   -0.2164   -0.2287    2.3239 H   0  0  0  0  0  0  0  0  0  0  0  0
    0.5881    1.1027    1.5015 H   0  0  0  0  0  0  0  0  0  0  0  0
   -1.4512    1.4556    2.0313 C   0  0  0  0  0  0  0  0  0  0  0  0
   -1.7263    2.7293    1.5317 N   0  0  0  0  0  0  0  0  0  0  0  0
   -2.8107    3.1591    2.1932 C   0  0  0  0  0  0  0  0  0  0  0  0
   -3.2755    4.1257    2.0450 H   0  0  0  0  0  0  0  0  0  0  0  0
   -3.2388    2.2199    3.0533 N   0  0  0  0  0  0  0  0  0  0  0  0
   -4.0496    2.2988    3.6518 H   0  0  0  0  0  0  0  0  0  0  0  0
   -2.3953    1.1350    2.9626 C   0  0  0  0  0  0  0  0  0  0  0  0
   -2.4642    0.1972    3.4992 H   0  0  0  0  0  0  0  0  0  0  0  0
    0.5567   -0.8931   -0.3575 C   0  0  0  0  0  0  0  0  0  0  0  0
    1.6351   -0.3227   -0.5226 O   0  0  0  0  0  0  0  0  0  0  0  0
    0.3822   -2.1881   -0.6393 N   0  0  0  0  0  0  0  0  0  0  0  0
   -0.5629   -2.5493   -0.5742 H   0  0  0  0  0  0  0  0  0  0  0  0
    1.4190   -3.0749   -1.1619 C   0  0  0  0  0  0  0  0  0  0  0  0
    2.3889   -2.8133   -0.7313 H   0  0  0  0  0  0  0  0  0  0  0  0
    1.1837   -4.1098   -0.9094 H   0  0  0  0  0  0  0  0  0  0  0  0
    1.4757   -2.9711   -2.2467 H   0  0  0  0  0  0  0  0  0  0  0  0
  5  6  2  0  0  0  0
  5  7  1  0  0  0  0
  2  3  1  0  0  0  0
  2  4  1  0  0  0  0
  2  5  1  0  0  0  0
  1  2  1  0  0  0  0
 22 23  2  0  0  0  0
 22 24  1  0  0  0  0
 20 21  1  0  0  0  0
 18 19  1  0  0  0  0
 18 20  1  0  0  0  0
 16 17  1  0  0  0  0
 16 18  1  0  0  0  0
 15 16  2  0  0  0  0
 14 15  1  0  0  0  0
 14 20  2  0  0  0  0
 11 12  1  0  0  0  0
 11 13  1  0  0  0  0
 11 14  1  0  0  0  0
  9 10  1  0  0  0  0
  9 11  1  0  0  0  0
  9 22  1  0  0  0  0
  7  8  1  0  0  0  0
  7  9  1  0  0  0  0
 26 27  1  0  0  0  0
 26 28  1  0  0  0  0
 26 29  1  0  0  0  0
 24 25  1  0  0  0  0
 24 26  1  0  0  0  0
M  END
$$$$
default_name
  -OEChem-01062215323D

 29 29  0     1  0  0  0  0  0999 V2000
   -2.9561   -3.9186    1.3887 H   0  0  0  0  0  0  0  0  0  0  0  0
   -3.1191   -2.9346    0.9517 C   0  0  0  0  0  0  0  0  0  0  0  0
   -3.7811   -2.3546    1.5917 H   0  0  0  0  0  0  0  0  0  0  0  0
   -3.5591   -3.0406   -0.0383 H   0  0  0  0  0  0  0  0  0  0  0  0
   -1.7921   -2.2226    0.8327 C   0  0  0  0  0  0  0  0  0  0  0  0
   -0.7611   -2.7766    1.1927 O   0  0  0  0  0  0  0  0  0  0  0  0
   -1.8201   -0.9926    0.3247 N   0  0  0  0  0  0  0  0  0  0  0  0
   -2.7141   -0.5816    0.0927 H   0  0  0  0  0  0  0  0  0  0  0  0
   -0.6481   -0.1156    0.2017 C   0  0  1  0  0  0  0  0  0  0  0  0
   -0.8874    0.6742   -0.5133 H   0  0  0  0  0  0  0  0  0  0  0  0
   -0.3454    0.5417    1.5623 C   0  0  0  0  0  0  0  0  0  0  0  0
   -0.2164   -0.2287    2.3239 H   0  0  0  0  0  0  0  0  0  0  0  0
    0.5881    1.1027    1.5015 H   0  0  0  0  0  0  0  0  0  0  0  0
   -1.4512    1.4556    2.0313 C   0  0  0  0  0  0  0  0  0  0  0  0
   -1.7263    2.7293    1.5317 N   0  0  0  0  0  0  0  0  0  0  0  0
   -2.8107    3.1591    2.1932 C   0  0  0  0  0  0  0  0  0  0  0  0
   -3.2755    4.1257    2.0450 H   0  0  0  0  0  0  0  0  0  0  0  0
   -3.2388    2.2199    3.0533 N   0  0  0  0  0  0  0  0  0  0  0  0
   -4.0496    2.2988    3.6518 H   0  0  0  0  0  0  0  0  0  0  0  0
   -2.3953    1.1350    2.9626 C   0  0  0  0  0  0  0  0  0  0  0  0
   -2.4642    0.1972    3.4992 H   0  0  0  0  0  0  0  0  0  0  0  0
    0.5567   -0.8931   -0.3575 C   0  0  0  0  0  0  0  0  0  0  0  0
    1.6900   -0.4207   -0.2680 O   0  0  0  0  0  0  0  0  0  0  0  0
    0.3197   -2.0811   -0.9226 N   0  0  0  0  0  0  0  0  0  0  0  0
   -0.6511   -2.3444   -1.0493 H   0  0  0  0  0  0  0  0  0  0  0  0
    1.3448   -2.9543   -1.4895 C   0  0  0  0  0  0  0  0  0  0  0  0
    2.2626   -2.8882   -0.8995 H   0  0  0  0  0  0  0  0  0  0  0  0
    0.9938   -3.9872   -1.4890 H   0  0  0  0  0  0  0  0  0  0  0  0
    1.5615   -2.6462   -2.5136 H   0  0  0  0  0  0  0  0  0  0  0  0
  5  6  2  0  0  0  0
  5  7  1  0  0  0  0
  2  3  1  0  0  0  0
  2  4  1  0  0  0  0
  2  5  1  0  0  0  0
  1  2  1  0  0  0  0
 22 23  2  0  0  0  0
 22 24  1  0  0  0  0
 20 21  1  0  0  0  0
 18 19  1  0  0  0  0
 18 20  1  0  0  0  0
 16 17  1  0  0  0  0
 16 18  1  0  0  0  0
 15 16  2  0  0  0  0
 14 15  1  0  0  0  0
 14 20  2  0  0  0  0
 11 12  1  0  0  0  0
 11 13  1  0  0  0  0
 11 14  1  0  0  0  0
  9 10  1  0  0  0  0
  9 11  1  0  0  0  0
  9 22  1  0  0  0  0
  7  8  1  0  0  0  0
  7  9  1  0  0  0  0
 26 27  1  0  0  0  0
 26 28  1  0  0  0  0
 26 29  1  0  0  0  0
 24 25  1  0  0  0  0
 24 26  1  0  0  0  0
M  END
$$$$
default_name
  -OEChem-01062215323D

 29 29  0     1  0  0  0  0  0999 V2000
   -2.9561   -3.9186    1.3887 H   0  0  0  0  0  0  0  0  0  0  0  0
   -3.1191   -2.9346    0.9517 C   0  0  0  0  0  0  0  0  0  0  0  0
   -3.7811   -2.3546    1.5917 H   0  0  0  0  0  0  0  0  0  0  0  0
   -3.5591   -3.0406   -0.0383 H   0  0  0  0  0  0  0  0  0  0  0  0
   -1.7921   -2.2226    0.8327 C   0  0  0  0  0  0  0  0  0  0  0  0
   -0.7611   -2.7766    1.1927 O   0  0  0  0  0  0  0  0  0  0  0  0
   -1.8201   -0.9926    0.3247 N   0  0  0  0  0  0  0  0  0  0  0  0
   -2.7141   -0.5816    0.0927 H   0  0  0  0  0  0  0  0  0  0  0  0
   -0.6481   -0.1156    0.2017 C   0  0  1  0  0  0  0  0  0  0  0  0
   -0.8874    0.6742   -0.5133 H   0  0  0  0  0  0  0  0  0  0  0  0
   -0.3454    0.5417    1.5623 C   0  0  0  0  0  0  0  0  0  0  0  0
   -0.2164   -0.2287    2.3239 H   0  0  0  0  0  0  0  0  0  0  0  0
    0.5881    1.1027    1.5015 H   0  0  0  0  0  0  0  0  0  0  0  0
   -1.4512    1.4556    2.0313 C   0  0  0  0  0  0  0  0  0  0  0  0
   -1.7263    2.7293    1.5317 N   0  0  0  0  0  0  0  0  0  0  0  0
   -2.8107    3.1591    2.1932 C   0  0  0  0  0  0  0  0  0  0  0  0
   -3.2755    4.1257    2.0450 H   0  0  0  0  0  0  0  0  0  0  0  0
   -3.2388    2.2199    3.0533 N   0  0  0  0  0  0  0  0  0  0  0  0
   -4.0496    2.2988    3.6518 H   0  0  0  0  0  0  0  0  0  0  0  0
   -2.3953    1.1350    2.9626 C   0  0  0  0  0  0  0  0  0  0  0  0
   -2.4642    0.1972    3.4992 H   0  0  0  0  0  0  0  0  0  0  0  0
    0.5567   -0.8931   -0.3575 C   0  0  0  0  0  0  0  0  0  0  0  0
    1.7005   -0.5721   -0.0348 O   0  0  0  0  0  0  0  0  0  0  0  0
    0.3065   -1.9145   -1.1827 N   0  0  0  0  0  0  0  0  0  0  0  0
   -0.6550   -2.0418   -1.4782 H   0  0  0  0  0  0  0  0  0  0  0  0
    1.3273   -2.7644   -1.7911 C   0  0  0  0  0  0  0  0  0  0  0  0
    2.1554   -2.9145   -1.0937 H   0  0  0  0  0  0  0  0  0  0  0  0
    0.8977   -3.7335   -2.0489 H   0  0  0  0  0  0  0  0  0  0  0  0
    1.7098   -2.2864   -2.6944 H   0  0  0  0  0  0  0  0  0  0  0  0
  5  6  2  0  0  0  0
  5  7  1  0  0  0  0
  2  3  1  0  0  0  0
  2  4  1  0  0  0  0
  2  5  1  0  0  0  0
  1  2  1  0  0  0  0
 22 23  2  0  0  0  0
 22 24  1  0  0  0  0
 20 21  1  0  0  0  0
 18 19  1  0  0  0  0
 18 20  1  0  0  0  0
 16 17  1  0  0  0  0
 16 18  1  0  0  0  0
 15 16  2  0  0  0  0
 14 15  1  0  0  0  0
 14 20  2  0  0  0  0
 11 12  1  0  0  0  0
 11 13  1  0  0  0  0
 11 14  1  0  0  0  0
  9 10  1  0  0  0  0
  9 11  1  0  0  0  0
  9 22  1  0  0  0  0
  7  8  1  0  0  0  0
  7  9  1  0  0  0  0
 26 27  1  0  0  0  0
 26 28  1  0  0  0  0
 26 29  1  0  0  0  0
 24 25  1  0  0  0  0
 24 26  1  0  0  0  0
M  END
$$$$
default_name
  -OEChem-01062215323D

 29 29  0     1  0  0  0  0  0999 V2000
   -2.9561   -3.9186    1.3887 H   0  0  0  0  0  0  0  0  0  0  0  0
   -3.1191   -2.9346    0.9517 C   0  0  0  0  0  0  0  0  0  0  0  0
   -3.7811   -2.3546    1.5917 H   0  0  0  0  0  0  0  0  0  0  0  0
   -3.5591   -3.0406   -0.0383 H   0  0  0  0  0  0  0  0  0  0  0  0
   -1.7921   -2.2226    0.8327 C   0  0  0  0  0  0  0  0  0  0  0  0
   -0.7611   -2.7766    1.1927 O   0  0  0  0  0  0  0  0  0  0  0  0
   -1.8201   -0.9926    0.3247 N   0  0  0  0  0  0  0  0  0  0  0  0
   -2.7141   -0.5816    0.0927 H   0  0  0  0  0  0  0  0  0  0  0  0
   -0.6481   -0.1156    0.2017 C   0  0  1  0  0  0  0  0  0  0  0  0
   -0.8874    0.6742   -0.5133 H   0  0  0  0  0  0  0  0  0  0  0  0
   -0.3454    0.5417    1.5623 C   0  0  0  0  0  0  0  0  0  0  0  0
   -0.2164   -0.2287    2.3239 H   0  0  0  0  0  0  0  0  0  0  0  0
    0.5881    1.1027    1.5015 H   0  0  0  0  0  0  0  0  0  0  0  0
   -1.4512    1.4556    2.0313 C   0  0  0  0  0  0  0  0  0  0  0  0
   -1.7263    2.7293    1.5317 N   0  0  0  0  0  0  0  0  0  0  0  0
   -2.8107    3.1591    2.1932 C   0  0  0  0  0  0  0  0  0  0  0  0
   -3.2755    4.1257    2.0450 H   0  0  0  0  0  0  0  0  0  0  0  0
   -3.2388    2.2199    3.0533 N   0  0  0  0  0  0  0  0  0  0  0  0
   -4.0496    2.2988    3.6518 H   0  0  0  0  0  0  0  0  0  0  0  0
   -2.3953    1.1350    2.9626 C   0  0  0  0  0  0  0  0  0  0  0  0
   -2.4642    0.1972    3.4992 H   0  0  0  0  0  0  0  0  0  0  0  0
    0.5567   -0.8931   -0.3575 C   0  0  0  0  0  0  0  0  0  0  0  0
    1.6660   -0.7666    0.1611 O   0  0  0  0  0  0  0  0  0  0  0  0
    0.3434   -1.6997   -1.4019 N   0  0  0  0  0  0  0  0  0  0  0  0
   -0.5742   -1.6624   -1.8316 H   0  0  0  0  0  0  0  0  0  0  0  0
    1.3677   -2.5183   -2.0463 C   0  0  0  0  0  0  0  0  0  0  0  0
    2.0749   -2.8906   -1.3006 H   0  0  0  0  0  0  0  0  0  0  0  0
    0.9019   -3.3660   -2.5509 H   0  0  0  0  0  0  0  0  0  0  0  0
    1.9105   -1.9161   -2.7767 H   0  0  0  0  0  0  0  0  0  0  0  0
  5  6  2  0  0  0  0
  5  7  1  0  0  0  0
  2  3  1  0  0  0  0
  2  4  1  0  0  0  0
  2  5  1  0  0  0  0
  1  2  1  0  0  0  0
 22 23  2  0  0  0  0
 22 24  1  0  0  0  0
 20 21  1  0  0  0  0
 18 19  1  0  0  0  0
 18 20  1  0  0  0  0
 16 17  1  0  0  0  0
 16 18  1  0  0  0  0
 15 16  2  0  0  0  0
 14 15  1  0  0  0  0
 14 20  2  0  0  0  0
 11 12  1  0  0  0  0
 11 13  1  0  0  0  0
 11 14  1  0  0  0  0
  9 10  1  0  0  0  0
  9 11  1  0  0  0  0
  9 22  1  0  0  0  0
  7  8  1  0  0  0  0
  7  9  1  0  0  0  0
 26 27  1  0  0  0  0
 26 28  1  0  0  0  0
 26 29  1  0  0  0  0
 24 25  1  0  0  0  0
 24 26  1  0  0  0  0
M  END
$$$$
default_name
  -OEChem-01062215323D

 29 29  0     1  0  0  0  0  0999 V2000
   -2.9561   -3.9186    1.3887 H   0  0  0  0  0  0  0  0  0  0  0  0
   -3.1191   -2.9346    0.9517 C   0  0  0  0  0  0  0  0  0  0  0  0
   -3.7811   -2.3546    1.5917 H   0  0  0  0  0  0  0  0  0  0  0  0
   -3.5591   -3.0406   -0.0383 H   0  0  0  0  0  0  0  0  0  0  0  0
   -1.7921   -2.2226    0.8327 C   0  0  0  0  0  0  0  0  0  0  0  0
   -0.7611   -2.7766    1.1927 O   0  0  0  0  0  0  0  0  0  0  0  0
   -1.8201   -0.9926    0.3247 N   0  0  0  0  0  0  0  0  0  0  0  0
   -2.7141   -0.5816    0.0927 H   0  0  0  0  0  0  0  0  0  0  0  0
   -0.6481   -0.1156    0.2017 C   0  0  1  0  0  0  0  0  0  0  0  0
   -0.8874    0.6742   -0.5133 H   0  0  0  0  0  0  0  0  0  0  0  0
   -0.3454    0.5417    1.5623 C   0  0  0  0  0  0  0  0  0  0  0  0
   -0.2164   -0.2287    2.3239 H   0  0  0  0  0  0  0  0  0  0  0  0
    0.5881    1.1027    1.5015 H   0  0  0  0  0  0  0  0  0  0  0  0
   -1.4512    1.4556    2.0313 C   0  0  0  0  0  0  0  0  0  0  0  0
   -1.7263    2.7293    1.5317 N   0  0  0  0  0  0  0  0  0  0  0  0
   -2.8107    3.1591    2.1932 C   0  0  0  0  0  0  0  0  0  0  0  0
   -3.2755    4.1257    2.0450 H   0  0  0  0  0  0  0  0  0  0  0  0
   -3.2388    2.2199    3.0533 N   0  0  0  0  0  0  0  0  0  0  0  0
   -4.0496    2.2988    3.6518 H   0  0  0  0  0  0  0  0  0  0  0  0
   -2.3953    1.1350    2.9626 C   0  0  0  0  0  0  0  0  0  0  0  0
   -2.4642    0.1972    3.4992 H   0  0  0  0  0  0  0  0  0  0  0  0
    0.5567   -0.8931   -0.3575 C   0  0  0  0  0  0  0  0  0  0  0  0
    1.5887   -0.9909    0.3065 O   0  0  0  0  0  0  0  0  0  0  0  0
    0.4279   -1.4512   -1.5653 N   0  0  0  0  0  0  0  0  0  0  0  0
   -0.4142   -1.2318   -2.0856 H   0  0  0  0  0  0  0  0  0  0  0  0
    1.4632   -2.2327   -2.2376 C   0  0  0  0  0  0  0  0  0  0  0  0
    2.0264   -2.8179   -1.5061 H   0  0  0  0  0  0  0  0  0  0  0  0
    1.0061   -2.9096   -2.9607 H   0  0  0  0  0  0  0  0  0  0  0  0
    2.1500   -1.5607   -2.7550 H   0  0  0  0  0  0  0  0  0  0  0  0
  5  6  2  0  0  0  0
  5  7  1  0  0  0  0
  2  3  1  0  0  0  0
  2  4  1  0  0  0  0
  2  5  1  0  0  0  0
  1  2  1  0  0  0  0
 22 23  2  0  0  0  0
 22 24  1  0  0  0  0
 20 21  1  0  0  0  0
 18 19  1  0  0  0  0
 18 20  1  0  0  0  0
 16 17  1  0  0  0  0
 16 18  1  0  0  0  0
 15 16  2  0  0  0  0
 14 15  1  0  0  0  0
 14 20  2  0  0  0  0
 11 12  1  0  0  0  0
 11 13  1  0  0  0  0
 11 14  1  0  0  0  0
  9 10  1  0  0  0  0
  9 11  1  0  0  0  0
  9 22  1  0  0  0  0
  7  8  1  0  0  0  0
  7  9  1  0  0  0  0
 26 27  1  0  0  0  0
 26 28  1  0  0  0  0
 26 29  1  0  0  0  0
 24 25  1  0  0  0  0
 24 26  1  0  0  0  0
M  END
$$$$
default_name
  -OEChem-01062215323D

 29 29  0     1  0  0  0  0  0999 V2000
   -2.9561   -3.9186    1.3887 H   0  0  0  0  0  0  0  0  0  0  0  0
   -3.1191   -2.9346    0.9517 C   0  0  0  0  0  0  0  0  0  0  0  0
   -3.7811   -2.3546    1.5917 H   0  0  0  0  0  0  0  0  0  0  0  0
   -3.5591   -3.0406   -0.0383 H   0  0  0  0  0  0  0  0  0  0  0  0
   -1.7921   -2.2226    0.8327 C   0  0  0  0  0  0  0  0  0  0  0  0
   -0.7611   -2.7766    1.1927 O   0  0  0  0  0  0  0  0  0  0  0  0
   -1.8201   -0.9926    0.3247 N   0  0  0  0  0  0  0  0  0  0  0  0
   -2.7141   -0.5816    0.0927 H   0  0  0  0  0  0  0  0  0  0  0  0
   -0.6481   -0.1156    0.2017 C   0  0  1  0  0  0  0  0  0  0  0  0
   -0.8874    0.6742   -0.5133 H   0  0  0  0  0  0  0  0  0  0  0  0
   -0.3454    0.5417    1.5623 C   0  0  0  0  0  0  0  0  0  0  0  0
   -0.2164   -0.2287    2.3239 H   0  0  0  0  0  0  0  0  0  0  0  0
    0.5881    1.1027    1.5015 H   0  0  0  0  0  0  0  0  0  0  0  0
   -1.4512    1.4556    2.0313 C   0  0  0  0  0  0  0  0  0  0  0  0
   -1.7263    2.7293    1.5317 N   0  0  0  0  0  0  0  0  0  0  0  0
   -2.8107    3.1591    2.1932 C   0  0  0  0  0  0  0  0  0  0  0  0
   -3.2755    4.1257    2.0450 H   0  0  0  0  0  0  0  0  0  0  0  0
   -3.2388    2.2199    3.0533 N   0  0  0  0  0  0  0  0  0  0  0  0
   -4.0496    2.2988    3.6518 H   0  0  0  0  0  0  0  0  0  0  0  0
   -2.3953    1.1350    2.9626 C   0  0  0  0  0  0  0  0  0  0  0  0
   -2.4642    0.1972    3.4992 H   0  0  0  0  0  0  0  0  0  0  0  0
    0.5567   -0.8931   -0.3575 C   0  0  0  0  0  0  0  0  0  0  0  0
    1.4740   -1.2298    0.3913 O   0  0  0  0  0  0  0  0  0  0  0  0
    0.5543   -1.1860   -1.6618 N   0  0  0  0  0  0  0  0  0  0  0  0
   -0.1860   -0.7795   -2.2228 H   0  0  0  0  0  0  0  0  0  0  0  0
    1.6074   -1.9269   -2.3521 C   0  0  0  0  0  0  0  0  0  0  0  0
    2.0132   -2.7015   -1.6963 H   0  0  0  0  0  0  0  0  0  0  0  0
    1.2033   -2.3956   -3.2505 H   0  0  0  0  0  0  0  0  0  0  0  0
    2.4118   -1.2443   -2.6306 H   0  0  0  0  0  0  0  0  0  0  0  0
  5  6  2  0  0  0  0
  5  7  1  0  0  0  0
  2  3  1  0  0  0  0
  2  4  1  0  0  0  0
  2  5  1  0  0  0  0
  1  2  1  0  0  0  0
 22 23  2  0  0  0  0
 22 24  1  0  0  0  0
 20 21  1  0  0  0  0
 18 19  1  0  0  0  0
 18 20  1  0  0  0  0
 16 17  1  0  0  0  0
 16 18  1  0  0  0  0
 15 16  2  0  0  0  0
 14 15  1  0  0  0  0
 14 20  2  0  0  0  0
 11 12  1  0  0  0  0
 11 13  1  0  0  0  0
 11 14  1  0  0  0  0
  9 10  1  0  0  0  0
  9 11  1  0  0  0  0
  9 22  1  0  0  0  0
  7  8  1  0  0  0  0
  7  9  1  0  0  0  0
 26 27  1  0  0  0  0
 26 28  1  0  0  0  0
 26 29  1  0  0  0  0
 24 25  1  0  0  0  0
 24 26  1  0  0  0  0
M  END
$$$$
default_name
  -OEChem-01062215323D

 29 29  0     1  0  0  0  0  0999 V2000
   -2.9561   -3.9186    1.3887 H   0  0  0  0  0  0  0  0  0  0  0  0
   -3.1191   -2.9346    0.9517 C   0  0  0  0  0  0  0  0  0  0  0  0
   -3.7811   -2.3546    1.5917 H   0  0  0  0  0  0  0  0  0  0  0  0
   -3.5591   -3.0406   -0.0383 H   0  0  0  0  0  0  0  0  0  0  0  0
   -1.7921   -2.2226    0.8327 C   0  0  0  0  0  0  0  0  0  0  0  0
   -0.7611   -2.7766    1.1927 O   0  0  0  0  0  0  0  0  0  0  0  0
   -1.8201   -0.9926    0.3247 N   0  0  0  0  0  0  0  0  0  0  0  0
   -2.7141   -0.5816    0.0927 H   0  0  0  0  0  0  0  0  0  0  0  0
   -0.6481   -0.1156    0.2017 C   0  0  1  0  0  0  0  0  0  0  0  0
   -0.8874    0.6742   -0.5133 H   0  0  0  0  0  0  0  0  0  0  0  0
   -0.3454    0.5417    1.5623 C   0  0  0  0  0  0  0  0  0  0  0  0
   -0.2164   -0.2287    2.3239 H   0  0  0  0  0  0  0  0  0  0  0  0
    0.5881    1.1027    1.5015 H   0  0  0  0  0  0  0  0  0  0  0  0
   -1.4512    1.4556    2.0313 C   0  0  0  0  0  0  0  0  0  0  0  0
   -1.7263    2.7293    1.5317 N   0  0  0  0  0  0  0  0  0  0  0  0
   -2.8107    3.1591    2.1932 C   0  0  0  0  0  0  0  0  0  0  0  0
   -3.2755    4.1257    2.0450 H   0  0  0  0  0  0  0  0  0  0  0  0
   -3.2388    2.2199    3.0533 N   0  0  0  0  0  0  0  0  0  0  0  0
   -4.0496    2.2988    3.6518 H   0  0  0  0  0  0  0  0  0  0  0  0
   -2.3953    1.1350    2.9626 C   0  0  0  0  0  0  0  0  0  0  0  0
   -2.4642    0.1972    3.4992 H   0  0  0  0  0  0  0  0  0  0  0  0
    0.5567   -0.8931   -0.3575 C   0  0  0  0  0  0  0  0  0  0  0  0
    1.3296   -1.4669    0.4099 O   0  0  0  0  0  0  0  0  0  0  0  0
    0.7139   -0.9222   -1.6847 N   0  0  0  0  0  0  0  0  0  0  0  0
    0.0949   -0.3363   -2.2338 H   0  0  0  0  0  0  0  0  0  0  0  0
    1.7904   -1.6220   -2.3818 C   0  0  0  0  0  0  0  0  0  0  0  0
    2.0363   -2.5493   -1.8581 H   0  0  0  0  0  0  0  0  0  0  0  0
    1.4800   -1.8589   -3.4005 H   0  0  0  0  0  0  0  0  0  0  0  0
    2.6783   -0.9885   -2.4122 H   0  0  0  0  0  0  0  0  0  0  0  0
  5  6  2  0  0  0  0
  5  7  1  0  0  0  0
  2  3  1  0  0  0  0
  2  4  1  0  0  0  0
  2  5  1  0  0  0  0
  1  2  1  0  0  0  0
 22 23  2  0  0  0  0
 22 24  1  0  0  0  0
 20 21  1  0  0  0  0
 18 19  1  0  0  0  0
 18 20  1  0  0  0  0
 16 17  1  0  0  0  0
 16 18  1  0  0  0  0
 15 16  2  0  0  0  0
 14 15  1  0  0  0  0
 14 20  2  0  0  0  0
 11 12  1  0  0  0  0
 11 13  1  0  0  0  0
 11 14  1  0  0  0  0
  9 10  1  0  0  0  0
  9 11  1  0  0  0  0
  9 22  1  0  0  0  0
  7  8  1  0  0  0  0
  7  9  1  0  0  0  0
 26 27  1  0  0  0  0
 26 28  1  0  0  0  0
 26 29  1  0  0  0  0
 24 25  1  0  0  0  0
 24 26  1  0  0  0  0
M  END
$$$$
default_name
  -OEChem-01062215323D

 29 29  0     1  0  0  0  0  0999 V2000
   -2.9561   -3.9186    1.3887 H   0  0  0  0  0  0  0  0  0  0  0  0
   -3.1191   -2.9346    0.9517 C   0  0  0  0  0  0  0  0  0  0  0  0
   -3.7811   -2.3546    1.5917 H   0  0  0  0  0  0  0  0  0  0  0  0
   -3.5591   -3.0406   -0.0383 H   0  0  0  0  0  0  0  0  0  0  0  0
   -1.7921   -2.2226    0.8327 C   0  0  0  0  0  0  0  0  0  0  0  0
   -0.7611   -2.7766    1.1927 O   0  0  0  0  0  0  0  0  0  0  0  0
   -1.8201   -0.9926    0.3247 N   0  0  0  0  0  0  0  0  0  0  0  0
   -2.7141   -0.5816    0.0927 H   0  0  0  0  0  0  0  0  0  0  0  0
   -0.6481   -0.1156    0.2017 C   0  0  1  0  0  0  0  0  0  0  0  0
   -0.8874    0.6742   -0.5133 H   0  0  0  0  0  0  0  0  0  0  0  0
   -0.3454    0.5417    1.5623 C   0  0  0  0  0  0  0  0  0  0  0  0
   -0.2164   -0.2287    2.3239 H   0  0  0  0  0  0  0  0  0  0  0  0
    0.5881    1.1027    1.5015 H   0  0  0  0  0  0  0  0  0  0  0  0
   -1.4512    1.4556    2.0313 C   0  0  0  0  0  0  0  0  0  0  0  0
   -1.7263    2.7293    1.5317 N   0  0  0  0  0  0  0  0  0  0  0  0
   -2.8107    3.1591    2.1932 C   0  0  0  0  0  0  0  0  0  0  0  0
   -3.2755    4.1257    2.0450 H   0  0  0  0  0  0  0  0  0  0  0  0
   -3.2388    2.2199    3.0533 N   0  0  0  0  0  0  0  0  0  0  0  0
   -4.0496    2.2988    3.6518 H   0  0  0  0  0  0  0  0  0  0  0  0
   -2.3953    1.1350    2.9626 C   0  0  0  0  0  0  0  0  0  0  0  0
   -2.4642    0.1972    3.4992 H   0  0  0  0  0  0  0  0  0  0  0  0
    0.5567   -0.8931   -0.3575 C   0  0  0  0  0  0  0  0  0  0  0  0
    1.1654   -1.6861    0.3609 O   0  0  0  0  0  0  0  0  0  0  0  0
    0.8958   -0.6778   -1.6325 N   0  0  0  0  0  0  0  0  0  0  0  0
    0.4093    0.0676   -2.1179 H   0  0  0  0  0  0  0  0  0  0  0  0
    1.9996   -1.3387   -2.3249 C   0  0  0  0  0  0  0  0  0  0  0  0
    2.0941   -2.3717   -1.9805 H   0  0  0  0  0  0  0  0  0  0  0  0
    1.8174   -1.3362   -3.4004 H   0  0  0  0  0  0  0  0  0  0  0  0
    2.9312   -0.8107   -2.1145 H   0  0  0  0  0  0  0  0  0  0  0  0
  5  6  2  0  0  0  0
  5  7  1  0  0  0  0
  2  3  1  0  0  0  0
  2  4  1  0  0  0  0
  2  5  1  0  0  0  0
  1  2  1  0  0  0  0
 22 23  2  0  0  0  0
 22 24  1  0  0  0  0
 20 21  1  0  0  0  0
 18 19  1  0  0  0  0
 18 20  1  0  0  0  0
 16 17  1  0  0  0  0
 16 18  1  0  0  0  0
 15 16  2  0  0  0  0
 14 15  1  0  0  0  0
 14 20  2  0  0  0  0
 11 12  1  0  0  0  0
 11 13  1  0  0  0  0
 11 14  1  0  0  0  0
  9 10  1  0  0  0  0
  9 11  1  0  0  0  0
  9 22  1  0  0  0  0
  7  8  1  0  0  0  0
  7  9  1  0  0  0  0
 26 27  1  0  0  0  0
 26 28  1  0  0  0  0
 26 29  1  0  0  0  0
 24 25  1  0  0  0  0
 24 26  1  0  0  0  0
M  END
$$$$
default_name
  -OEChem-01062215323D

 29 29  0     1  0  0  0  0  0999 V2000
   -2.9561   -3.9186    1.3887 H   0  0  0  0  0  0  0  0  0  0  0  0
   -3.1191   -2.9346    0.9517 C   0  0  0  0  0  0  0  0  0  0  0  0
   -3.7811   -2.3546    1.5917 H   0  0  0  0  0  0  0  0  0  0  0  0
   -3.5591   -3.0406   -0.0383 H   0  0  0  0  0  0  0  0  0  0  0  0
   -1.7921   -2.2226    0.8327 C   0  0  0  0  0  0  0  0  0  0  0  0
   -0.7611   -2.7766    1.1927 O   0  0  0  0  0  0  0  0  0  0  0  0
   -1.8201   -0.9926    0.3247 N   0  0  0  0  0  0  0  0  0  0  0  0
   -2.7141   -0.5816    0.0927 H   0  0  0  0  0  0  0  0  0  0  0  0
   -0.6481   -0.1156    0.2017 C   0  0  1  0  0  0  0  0  0  0  0  0
   -0.8874    0.6742   -0.5133 H   0  0  0  0  0  0  0  0  0  0  0  0
   -0.3454    0.5417    1.5623 C   0  0  0  0  0  0  0  0  0  0  0  0
   -0.2164   -0.2287    2.3239 H   0  0  0  0  0  0  0  0  0  0  0  0
    0.5881    1.1027    1.5015 H   0  0  0  0  0  0  0  0  0  0  0  0
   -1.4512    1.4556    2.0313 C   0  0  0  0  0  0  0  0  0  0  0  0
   -1.7263    2.7293    1.5317 N   0  0  0  0  0  0  0  0  0  0  0  0
   -2.8107    3.1591    2.1932 C   0  0  0  0  0  0  0  0  0  0  0  0
   -3.2755    4.1257    2.0450 H   0  0  0  0  0  0  0  0  0  0  0  0
   -3.2388    2.2199    3.0533 N   0  0  0  0  0  0  0  0  0  0  0  0
   -4.0496    2.2988    3.6518 H   0  0  0  0  0  0  0  0  0  0  0  0
   -2.3953    1.1350    2.9626 C   0  0  0  0  0  0  0  0  0  0  0  0
   -2.4642    0.1972    3.4992 H   0  0  0  0  0  0  0  0  0  0  0  0
    0.5567   -0.8931   -0.3575 C   0  0  0  0  0  0  0  0  0  0  0  0
    0.9926   -1.8725    0.2477 O   0  0  0  0  0  0  0  0  0  0  0  0
    1.0877   -0.4694   -1.5088 N   0  0  0  0  0  0  0  0  0  0  0  0
    0.7359    0.4048   -1.8830 H   0  0  0  0  0  0  0  0  0  0  0  0
    2.2210   -1.0962   -2.1851 C   0  0  0  0  0  0  0  0  0  0  0  0
    2.1826   -2.1808   -2.0552 H   0  0  0  0  0  0  0  0  0  0  0  0
    2.1924   -0.8630   -3.2504 H   0  0  0  0  0  0  0  0  0  0  0  0
    3.1532   -0.7231   -1.7579 H   0  0  0  0  0  0  0  0  0  0  0  0
  5  6  2  0  0  0  0
  5  7  1  0  0  0  0
  2  3  1  0  0  0  0
  2  4  1  0  0  0  0
  2  5  1  0  0  0  0
  1  2  1  0  0  0  0
 22 23  2  0  0  0  0
 22 24  1  0  0  0  0
 20 21  1  0  0  0  0
 18 19  1  0  0  0  0
 18 20  1  0  0  0  0
 16 17  1  0  0  0  0
 16 18  1  0  0  0  0
 15 16  2  0  0  0  0
 14 15  1  0  0  0  0
 14 20  2  0  0  0  0
 11 12  1  0  0  0  0
 11 13  1  0  0  0  0
 11 14  1  0  0  0  0
  9 10  1  0  0  0  0
  9 11  1  0  0  0  0
  9 22  1  0  0  0  0
  7  8  1  0  0  0  0
  7  9  1  0  0  0  0
 26 27  1  0  0  0  0
 26 28  1  0  0  0  0
 26 29  1  0  0  0  0
 24 25  1  0  0  0  0
 24 26  1  0  0  0  0
M  END
$$$$
default_name
  -OEChem-01062215323D

 29 29  0     1  0  0  0  0  0999 V2000
   -2.9561   -3.9186    1.3887 H   0  0  0  0  0  0  0  0  0  0  0  0
   -3.1191   -2.9346    0.9517 C   0  0  0  0  0  0  0  0  0  0  0  0
   -3.7811   -2.3546    1.5917 H   0  0  0  0  0  0  0  0  0  0  0  0
   -3.5591   -3.0406   -0.0383 H   0  0  0  0  0  0  0  0  0  0  0  0
   -1.7921   -2.2226    0.8327 C   0  0  0  0  0  0  0  0  0  0  0  0
   -0.7611   -2.7766    1.1927 O   0  0  0  0  0  0  0  0  0  0  0  0
   -1.8201   -0.9926    0.3247 N   0  0  0  0  0  0  0  0  0  0  0  0
   -2.7141   -0.5816    0.0927 H   0  0  0  0  0  0  0  0  0  0  0  0
   -0.6481   -0.1156    0.2017 C   0  0  1  0  0  0  0  0  0  0  0  0
   -0.8874    0.6742   -0.5133 H   0  0  0  0  0  0  0  0  0  0  0  0
   -0.3454    0.5417    1.5623 C   0  0  0  0  0  0  0  0  0  0  0  0
   -0.2164   -0.2287    2.3239 H   0  0  0  0  0  0  0  0  0  0  0  0
    0.5881    1.1027    1.5015 H   0  0  0  0  0  0  0  0  0  0  0  0
   -1.4512    1.4556    2.0313 C   0  0  0  0  0  0  0  0  0  0  0  0
   -1.7263    2.7293    1.5317 N   0  0  0  0  0  0  0  0  0  0  0  0
   -2.8107    3.1591    2.1932 C   0  0  0  0  0  0  0  0  0  0  0  0
   -3.2755    4.1257    2.0450 H   0  0  0  0  0  0  0  0  0  0  0  0
   -3.2388    2.2199    3.0533 N   0  0  0  0  0  0  0  0  0  0  0  0
   -4.0496    2.2988    3.6518 H   0  0  0  0  0  0  0  0  0  0  0  0
   -2.3953    1.1350    2.9626 C   0  0  0  0  0  0  0  0  0  0  0  0
   -2.4642    0.1972    3.4992 H   0  0  0  0  0  0  0  0  0  0  0  0
    0.5567   -0.8931   -0.3575 C   0  0  0  0  0  0  0  0  0  0  0  0
    0.8229   -2.0133    0.0780 O   0  0  0  0  0  0  0  0  0  0  0  0
    1.2765   -0.3112   -1.3219 N   0  0  0  0  0  0  0  0  0  0  0  0
    1.0523    0.6521   -1.5451 H   0  0  0  0  0  0  0  0  0  0  0  0
    2.4393   -0.9111   -1.9720 C   0  0  0  0  0  0  0  0  0  0  0  0
    2.2958   -1.9896   -2.0772 H   0  0  0  0  0  0  0  0  0  0  0  0
    2.5795   -0.4716   -2.9605 H   0  0  0  0  0  0  0  0  0  0  0  0
    3.3293   -0.7316   -1.3667 H   0  0  0  0  0  0  0  0  0  0  0  0
  5  6  2  0  0  0  0
  5  7  1  0  0  0  0
  2  3  1  0  0  0  0
  2  4  1  0  0  0  0
  2  5  1  0  0  0  0
  1  2  1  0  0  0  0
 22 23  2  0  0  0  0
 22 24  1  0  0  0  0
 20 21  1  0  0  0  0
 18 19  1  0  0  0  0
 18 20  1  0  0  0  0
 16 17  1  0  0  0  0
 16 18  1  0  0  0  0
 15 16  2  0  0  0  0
 14 15  1  0  0  0  0
 14 20  2  0  0  0  0
 11 12  1  0  0  0  0
 11 13  1  0  0  0  0
 11 14  1  0  0  0  0
  9 10  1  0  0  0  0
  9 11  1  0  0  0  0
  9 22  1  0  0  0  0
  7  8  1  0  0  0  0
  7  9  1  0  0  0  0
 26 27  1  0  0  0  0
 26 28  1  0  0  0  0
 26 29  1  0  0  0  0
 24 25  1  0  0  0  0
 24 26  1  0  0  0  0
M  END
$$$$
default_name
  -OEChem-01062215323D

 29 29  0     1  0  0  0  0  0999 V2000
   -2.9561   -3.9186    1.3887 H   0  0  0  0  0  0  0  0  0  0  0  0
   -3.1191   -2.9346    0.9517 C   0  0  0  0  0  0  0  0  0  0  0  0
   -3.7811   -2.3546    1.5917 H   0  0  0  0  0  0  0  0  0  0  0  0
   -3.5591   -3.0406   -0.0383 H   0  0  0  0  0  0  0  0  0  0  0  0
   -1.7921   -2.2226    0.8327 C   0  0  0  0  0  0  0  0  0  0  0  0
   -0.7611   -2.7766    1.1927 O   0  0  0  0  0  0  0  0  0  0  0  0
   -1.8201   -0.9926    0.3247 N   0  0  0  0  0  0  0  0  0  0  0  0
   -2.7141   -0.5816    0.0927 H   0  0  0  0  0  0  0  0  0  0  0  0
   -0.6481   -0.1156    0.2017 C   0  0  1  0  0  0  0  0  0  0  0  0
   -0.8874    0.6742   -0.5133 H   0  0  0  0  0  0  0  0  0  0  0  0
   -0.3454    0.5417    1.5623 C   0  0  0  0  0  0  0  0  0  0  0  0
   -0.2164   -0.2287    2.3239 H   0  0  0  0  0  0  0  0  0  0  0  0
    0.5881    1.1027    1.5015 H   0  0  0  0  0  0  0  0  0  0  0  0
   -1.4512    1.4556    2.0313 C   0  0  0  0  0  0  0  0  0  0  0  0
   -1.7263    2.7293    1.5317 N   0  0  0  0  0  0  0  0  0  0  0  0
   -2.8107    3.1591    2.1932 C   0  0  0  0  0  0  0  0  0  0  0  0
   -3.2755    4.1257    2.0450 H   0  0  0  0  0  0  0  0  0  0  0  0
   -3.2388    2.2199    3.0533 N   0  0  0  0  0  0  0  0  0  0  0  0
   -4.0496    2.2988    3.6518 H   0  0  0  0  0  0  0  0  0  0  0  0
   -2.3953    1.1350    2.9626 C   0  0  0  0  0  0  0  0  0  0  0  0
   -2.4642    0.1972    3.4992 H   0  0  0  0  0  0  0  0  0  0  0  0
    0.5567   -0.8931   -0.3575 C   0  0  0  0  0  0  0  0  0  0  0  0
    0.6680   -2.0990   -0.1366 O   0  0  0  0  0  0  0  0  0  0  0  0
    1.4494   -0.2140   -1.0847 N   0  0  0  0  0  0  0  0  0  0  0  0
    1.3371    0.7928   -1.1273 H   0  0  0  0  0  0  0  0  0  0  0  0
    2.6398   -0.7961   -1.7001 C   0  0  0  0  0  0  0  0  0  0  0  0
    2.4261   -1.8111   -2.0448 H   0  0  0  0  0  0  0  0  0  0  0  0
    2.9523   -0.1886   -2.5507 H   0  0  0  0  0  0  0  0  0  0  0  0
    3.4475   -0.8356   -0.9674 H   0  0  0  0  0  0  0  0  0  0  0  0
  5  6  2  0  0  0  0
  5  7  1  0  0  0  0
  2  3  1  0  0  0  0
  2  4  1  0  0  0  0
  2  5  1  0  0  0  0
  1  2  1  0  0  0  0
 22 23  2  0  0  0  0
 22 24  1  0  0  0  0
 20 21  1  0  0  0  0
 18 19  1  0  0  0  0
 18 20  1  0  0  0  0
 16 17  1  0  0  0  0
 16 18  1  0  0  0  0
 15 16  2  0  0  0  0
 14 15  1  0  0  0  0
 14 20  2  0  0  0  0
 11 12  1  0  0  0  0
 11 13  1  0  0  0  0
 11 14  1  0  0  0  0
  9 10  1  0  0  0  0
  9 11  1  0  0  0  0
  9 22  1  0  0  0  0
  7  8  1  0  0  0  0
  7  9  1  0  0  0  0
 26 27  1  0  0  0  0
 26 28  1  0  0  0  0
 26 29  1  0  0  0  0
 24 25  1  0  0  0  0
 24 26  1  0  0  0  0
M  END
$$$$
default_name
  -OEChem-01062215323D

 29 29  0     1  0  0  0  0  0999 V2000
   -2.9561   -3.9186    1.3887 H   0  0  0  0  0  0  0  0  0  0  0  0
   -3.1191   -2.9346    0.9517 C   0  0  0  0  0  0  0  0  0  0  0  0
   -3.7811   -2.3546    1.5917 H   0  0  0  0  0  0  0  0  0  0  0  0
   -3.5591   -3.0406   -0.0383 H   0  0  0  0  0  0  0  0  0  0  0  0
   -1.7921   -2.2226    0.8327 C   0  0  0  0  0  0  0  0  0  0  0  0
   -0.7611   -2.7766    1.1927 O   0  0  0  0  0  0  0  0  0  0  0  0
   -1.8201   -0.9926    0.3247 N   0  0  0  0  0  0  0  0  0  0  0  0
   -2.7141   -0.5816    0.0927 H   0  0  0  0  0  0  0  0  0  0  0  0
   -0.6481   -0.1156    0.2017 C   0  0  1  0  0  0  0  0  0  0  0  0
   -0.8874    0.6742   -0.5133 H   0  0  0  0  0  0  0  0  0  0  0  0
   -0.3454    0.5417    1.5623 C   0  0  0  0  0  0  0  0  0  0  0  0
   -0.2164   -0.2287    2.3239 H   0  0  0  0  0  0  0  0  0  0  0  0
    0.5881    1.1027    1.5015 H   0  0  0  0  0  0  0  0  0  0  0  0
   -1.4512    1.4556    2.0313 C   0  0  0  0  0  0  0  0  0  0  0  0
   -1.7263    2.7293    1.5317 N   0  0  0  0  0  0  0  0  0  0  0  0
   -2.8107    3.1591    2.1932 C   0  0  0  0  0  0  0  0  0  0  0  0
   -3.2755    4.1257    2.0450 H   0  0  0  0  0  0  0  0  0  0  0  0
   -3.2388    2.2199    3.0533 N   0  0  0  0  0  0  0  0  0  0  0  0
   -4.0496    2.2988    3.6518 H   0  0  0  0  0  0  0  0  0  0  0  0
   -2.3953    1.1350    2.9626 C   0  0  0  0  0  0  0  0  0  0  0  0
   -2.4642    0.1972    3.4992 H   0  0  0  0  0  0  0  0  0  0  0  0
    0.5567   -0.8931   -0.3575 C   0  0  0  0  0  0  0  0  0  0  0  0
    0.5384   -2.1237   -0.3816 O   0  0  0  0  0  0  0  0  0  0  0  0
    1.5944   -0.1844   -0.8133 N   0  0  0  0  0  0  0  0  0  0  0  0
    1.5707    0.8173   -0.6579 H   0  0  0  0  0  0  0  0  0  0  0  0
    2.8086   -0.7588   -1.3880 C   0  0  0  0  0  0  0  0  0  0  0  0
    2.5644   -1.6574   -1.9603 H   0  0  0  0  0  0  0  0  0  0  0  0
    3.2854   -0.0334   -2.0487 H   0  0  0  0  0  0  0  0  0  0  0  0
    3.4996   -1.0281   -0.5875 H   0  0  0  0  0  0  0  0  0  0  0  0
  5  6  2  0  0  0  0
  5  7  1  0  0  0  0
  2  3  1  0  0  0  0
  2  4  1  0  0  0  0
  2  5  1  0  0  0  0
  1  2  1  0  0  0  0
 22 23  2  0  0  0  0
 22 24  1  0  0  0  0
 20 21  1  0  0  0  0
 18 19  1  0  0  0  0
 18 20  1  0  0  0  0
 16 17  1  0  0  0  0
 16 18  1  0  0  0  0
 15 16  2  0  0  0  0
 14 15  1  0  0  0  0
 14 20  2  0  0  0  0
 11 12  1  0  0  0  0
 11 13  1  0  0  0  0
 11 14  1  0  0  0  0
  9 10  1  0  0  0  0
  9 11  1  0  0  0  0
  9 22  1  0  0  0  0
  7  8  1  0  0  0  0
  7  9  1  0  0  0  0
 26 27  1  0  0  0  0
 26 28  1  0  0  0  0
 26 29  1  0  0  0  0
 24 25  1  0  0  0  0
 24 26  1  0  0  0  0
M  END
$$$$
default_name
  -OEChem-01062215323D

 29 29  0     1  0  0  0  0  0999 V2000
   -2.9561   -3.9186    1.3887 H   0  0  0  0  0  0  0  0  0  0  0  0
   -3.1191   -2.9346    0.9517 C   0  0  0  0  0  0  0  0  0  0  0  0
   -3.7811   -2.3546    1.5917 H   0  0  0  0  0  0  0  0  0  0  0  0
   -3.5591   -3.0406   -0.0383 H   0  0  0  0  0  0  0  0  0  0  0  0
   -1.7921   -2.2226    0.8327 C   0  0  0  0  0  0  0  0  0  0  0  0
   -0.7611   -2.7766    1.1927 O   0  0  0  0  0  0  0  0  0  0  0  0
   -1.8201   -0.9926    0.3247 N   0  0  0  0  0  0  0  0  0  0  0  0
   -2.7141   -0.5816    0.0927 H   0  0  0  0  0  0  0  0  0  0  0  0
   -0.6481   -0.1156    0.2017 C   0  0  1  0  0  0  0  0  0  0  0  0
   -0.9634    0.8070   -0.2898 H   0  0  0  0  0  0  0  0  0  0  0  0
   -0.1171    0.2424    1.6034 C   0  0  0  0  0  0  0  0  0  0  0  0
    0.0970   -0.6704    2.1613 H   0  0  0  0  0  0  0  0  0  0  0  0
    0.8169    0.7987    1.5132 H   0  0  0  0  0  0  0  0  0  0  0  0
   -1.1032    1.0446    2.4171 C   0  0  0  0  0  0  0  0  0  0  0  0
   -1.4027    2.3958    2.2384 N   0  0  0  0  0  0  0  0  0  0  0  0
   -2.3566    2.6845    3.1356 C   0  0  0  0  0  0  0  0  0  0  0  0
   -2.8016    3.6632    3.2631 H   0  0  0  0  0  0  0  0  0  0  0  0
   -2.6840    1.5890    3.8413 N   0  0  0  0  0  0  0  0  0  0  0  0
   -3.3907    1.5460    4.5628 H   0  0  0  0  0  0  0  0  0  0  0  0
   -1.9059    0.5423    3.3992 C   0  0  0  0  0  0  0  0  0  0  0  0
   -1.9278   -0.4864    3.7365 H   0  0  0  0  0  0  0  0  0  0  0  0
    0.4272   -0.7662   -0.6868 C   0  0  0  0  0  0  0  0  0  0  0  0
    0.2265   -1.8733   -1.1862 O   0  0  0  0  0  0  0  0  0  0  0  0
    1.5578   -0.0833   -0.8923 N   0  0  0  0  0  0  0  0  0  0  0  0
    1.6831    0.7696   -0.3587 H   0  0  0  0  0  0  0  0  0  0  0  0
    2.6725   -0.5444   -1.7166 C   0  0  0  0  0  0  0  0  0  0  0  0
    2.2967   -1.1033   -2.5776 H   0  0  0  0  0  0  0  0  0  0  0  0
    3.2505    0.3104   -2.0705 H   0  0  0  0  0  0  0  0  0  0  0  0
    3.3172   -1.1979   -1.1266 H   0  0  0  0  0  0  0  0  0  0  0  0
  5  6  2  0  0  0  0
  5  7  1  0  0  0  0
  2  3  1  0  0  0  0
  2  4  1  0  0  0  0
  2  5  1  0  0  0  0
  1  2  1  0  0  0  0
 22 23  2  0  0  0  0
 22 24  1  0  0  0  0
 20 21  1  0  0  0  0
 18 19  1  0  0  0  0
 18 20  1  0  0  0  0
 16 17  1  0  0  0  0
 16 18  1  0  0  0  0
 15 16  2  0  0  0  0
 14 15  1  0  0  0  0
 14 20  2  0  0  0  0
 11 12  1  0  0  0  0
 11 13  1  0  0  0  0
 11 14  1  0  0  0  0
  9 10  1  0  0  0  0
  9 11  1  0  0  0  0
  9 22  1  0  0  0  0
  7  8  1  0  0  0  0
  7  9  1  0  0  0  0
 26 27  1  0  0  0  0
 26 28  1  0  0  0  0
 26 29  1  0  0  0  0
 24 25  1  0  0  0  0
 24 26  1  0  0  0  0
M  END
$$$$
default_name
  -OEChem-01062215323D

 29 29  0     1  0  0  0  0  0999 V2000
   -2.9561   -3.9186    1.3887 H   0  0  0  0  0  0  0  0  0  0  0  0
   -3.1191   -2.9346    0.9517 C   0  0  0  0  0  0  0  0  0  0  0  0
   -3.7811   -2.3546    1.5917 H   0  0  0  0  0  0  0  0  0  0  0  0
   -3.5591   -3.0406   -0.0383 H   0  0  0  0  0  0  0  0  0  0  0  0
   -1.7921   -2.2226    0.8327 C   0  0  0  0  0  0  0  0  0  0  0  0
   -0.7611   -2.7766    1.1927 O   0  0  0  0  0  0  0  0  0  0  0  0
   -1.8201   -0.9926    0.3247 N   0  0  0  0  0  0  0  0  0  0  0  0
   -2.7141   -0.5816    0.0927 H   0  0  0  0  0  0  0  0  0  0  0  0
   -0.6481   -0.1156    0.2017 C   0  0  1  0  0  0  0  0  0  0  0  0
   -0.9634    0.8070   -0.2898 H   0  0  0  0  0  0  0  0  0  0  0  0
   -0.1171    0.2424    1.6034 C   0  0  0  0  0  0  0  0  0  0  0  0
    0.0970   -0.6704    2.1613 H   0  0  0  0  0  0  0  0  0  0  0  0
    0.8169    0.7987    1.5132 H   0  0  0  0  0  0  0  0  0  0  0  0
   -1.1032    1.0446    2.4171 C   0  0  0  0  0  0  0  0  0  0  0  0
   -1.4027    2.3958    2.2384 N   0  0  0  0  0  0  0  0  0  0  0  0
   -2.3566    2.6845    3.1356 C   0  0  0  0  0  0  0  0  0  0  0  0
   -2.8016    3.6632    3.2631 H   0  0  0  0  0  0  0  0  0  0  0  0
   -2.6840    1.5890    3.8413 N   0  0  0  0  0  0  0  0  0  0  0  0
   -3.3907    1.5460    4.5628 H   0  0  0  0  0  0  0  0  0  0  0  0
   -1.9059    0.5423    3.3992 C   0  0  0  0  0  0  0  0  0  0  0  0
   -1.9278   -0.4864    3.7365 H   0  0  0  0  0  0  0  0  0  0  0  0
    0.4272   -0.7662   -0.6868 C   0  0  0  0  0  0  0  0  0  0  0  0
    0.1372   -1.7241   -1.4034 O   0  0  0  0  0  0  0  0  0  0  0  0
    1.6585   -0.2472   -0.6503 N   0  0  0  0  0  0  0  0  0  0  0  0
    1.8348    0.4698    0.0445 H   0  0  0  0  0  0  0  0  0  0  0  0
    2.7910   -0.7310   -1.4365 C   0  0  0  0  0  0  0  0  0  0  0  0
    2.4500   -1.0658   -2.4195 H   0  0  0  0  0  0  0  0  0  0  0  0
    3.5217    0.0688   -1.5654 H   0  0  0  0  0  0  0  0  0  0  0  0
    3.2608   -1.5708   -0.9218 H   0  0  0  0  0  0  0  0  0  0  0  0
  5  6  2  0  0  0  0
  5  7  1  0  0  0  0
  2  3  1  0  0  0  0
  2  4  1  0  0  0  0
  2  5  1  0  0  0  0
  1  2  1  0  0  0  0
 22 23  2  0  0  0  0
 22 24  1  0  0  0  0
 20 21  1  0  0  0  0
 18 19  1  0  0  0  0
 18 20  1  0  0  0  0
 16 17  1  0  0  0  0
 16 18  1  0  0  0  0
 15 16  2  0  0  0  0
 14 15  1  0  0  0  0
 14 20  2  0  0  0  0
 11 12  1  0  0  0  0
 11 13  1  0  0  0  0
 11 14  1  0  0  0  0
  9 10  1  0  0  0  0
  9 11  1  0  0  0  0
  9 22  1  0  0  0  0
  7  8  1  0  0  0  0
  7  9  1  0  0  0  0
 26 27  1  0  0  0  0
 26 28  1  0  0  0  0
 26 29  1  0  0  0  0
 24 25  1  0  0  0  0
 24 26  1  0  0  0  0
M  END
$$$$
default_name
  -OEChem-01062215323D

 29 29  0     1  0  0  0  0  0999 V2000
   -2.9561   -3.9186    1.3887 H   0  0  0  0  0  0  0  0  0  0  0  0
   -3.1191   -2.9346    0.9517 C   0  0  0  0  0  0  0  0  0  0  0  0
   -3.7811   -2.3546    1.5917 H   0  0  0  0  0  0  0  0  0  0  0  0
   -3.5591   -3.0406   -0.0383 H   0  0  0  0  0  0  0  0  0  0  0  0
   -1.7921   -2.2226    0.8327 C   0  0  0  0  0  0  0  0  0  0  0  0
   -0.7611   -2.7766    1.1927 O   0  0  0  0  0  0  0  0  0  0  0  0
   -1.8201   -0.9926    0.3247 N   0  0  0  0  0  0  0  0  0  0  0  0
   -2.7141   -0.5816    0.0927 H   0  0  0  0  0  0  0  0  0  0  0  0
   -0.6481   -0.1156    0.2017 C   0  0  1  0  0  0  0  0  0  0  0  0
   -0.9634    0.8070   -0.2898 H   0  0  0  0  0  0  0  0  0  0  0  0
   -0.1171    0.2424    1.6034 C   0  0  0  0  0  0  0  0  0  0  0  0
    0.0970   -0.6704    2.1613 H   0  0  0  0  0  0  0  0  0  0  0  0
    0.8169    0.7987    1.5132 H   0  0  0  0  0  0  0  0  0  0  0  0
   -1.1032    1.0446    2.4171 C   0  0  0  0  0  0  0  0  0  0  0  0
   -1.4027    2.3958    2.2384 N   0  0  0  0  0  0  0  0  0  0  0  0
   -2.3566    2.6845    3.1356 C   0  0  0  0  0  0  0  0  0  0  0  0
   -2.8016    3.6632    3.2631 H   0  0  0  0  0  0  0  0  0  0  0  0
   -2.6840    1.5890    3.8413 N   0  0  0  0  0  0  0  0  0  0  0  0
   -3.3907    1.5460    4.5628 H   0  0  0  0  0  0  0  0  0  0  0  0
   -1.9059    0.5423    3.3992 C   0  0  0  0  0  0  0  0  0  0  0  0
   -1.9278   -0.4864    3.7365 H   0  0  0  0  0  0  0  0  0  0  0  0
    0.4272   -0.7662   -0.6868 C   0  0  0  0  0  0  0  0  0  0  0  0
    0.0971   -1.5275   -1.5961 O   0  0  0  0  0  0  0  0  0  0  0  0
    1.7049   -0.4644   -0.4352 N   0  0  0  0  0  0  0  0  0  0  0  0
    1.8924    0.0846    0.3963 H   0  0  0  0  0  0  0  0  0  0  0  0
    2.8470   -0.9796   -1.1867 C   0  0  0  0  0  0  0  0  0  0  0  0
    2.5864   -1.0810   -2.2433 H   0  0  0  0  0  0  0  0  0  0  0  0
    3.6922   -0.2965   -1.0915 H   0  0  0  0  0  0  0  0  0  0  0  0
    3.1282   -1.9596   -0.7976 H   0  0  0  0  0  0  0  0  0  0  0  0
  5  6  2  0  0  0  0
  5  7  1  0  0  0  0
  2  3  1  0  0  0  0
  2  4  1  0  0  0  0
  2  5  1  0  0  0  0
  1  2  1  0  0  0  0
 22 23  2  0  0  0  0
 22 24  1  0  0  0  0
 20 21  1  0  0  0  0
 18 19  1  0  0  0  0
 18 20  1  0  0  0  0
 16 17  1  0  0  0  0
 16 18  1  0  0  0  0
 15 16  2  0  0  0  0
 14 15  1  0  0  0  0
 14 20  2  0  0  0  0
 11 12  1  0  0  0  0
 11 13  1  0  0  0  0
 11 14  1  0  0  0  0
  9 10  1  0  0  0  0
  9 11  1  0  0  0  0
  9 22  1  0  0  0  0
  7  8  1  0  0  0  0
  7  9  1  0  0  0  0
 26 27  1  0  0  0  0
 26 28  1  0  0  0  0
 26 29  1  0  0  0  0
 24 25  1  0  0  0  0
 24 26  1  0  0  0  0
M  END
$$$$
default_name
  -OEChem-01062215323D

 29 29  0     1  0  0  0  0  0999 V2000
   -2.9561   -3.9186    1.3887 H   0  0  0  0  0  0  0  0  0  0  0  0
   -3.1191   -2.9346    0.9517 C   0  0  0  0  0  0  0  0  0  0  0  0
   -3.7811   -2.3546    1.5917 H   0  0  0  0  0  0  0  0  0  0  0  0
   -3.5591   -3.0406   -0.0383 H   0  0  0  0  0  0  0  0  0  0  0  0
   -1.7921   -2.2226    0.8327 C   0  0  0  0  0  0  0  0  0  0  0  0
   -0.7611   -2.7766    1.1927 O   0  0  0  0  0  0  0  0  0  0  0  0
   -1.8201   -0.9926    0.3247 N   0  0  0  0  0  0  0  0  0  0  0  0
   -2.7141   -0.5816    0.0927 H   0  0  0  0  0  0  0  0  0  0  0  0
   -0.6481   -0.1156    0.2017 C   0  0  1  0  0  0  0  0  0  0  0  0
   -0.9634    0.8070   -0.2898 H   0  0  0  0  0  0  0  0  0  0  0  0
   -0.1171    0.2424    1.6034 C   0  0  0  0  0  0  0  0  0  0  0  0
    0.0970   -0.6704    2.1613 H   0  0  0  0  0  0  0  0  0  0  0  0
    0.8169    0.7987    1.5132 H   0  0  0  0  0  0  0  0  0  0  0  0
   -1.1032    1.0446    2.4171 C   0  0  0  0  0  0  0  0  0  0  0  0
   -1.4027    2.3958    2.2384 N   0  0  0  0  0  0  0  0  0  0  0  0
   -2.3566    2.6845    3.1356 C   0  0  0  0  0  0  0  0  0  0  0  0
   -2.8016    3.6632    3.2631 H   0  0  0  0  0  0  0  0  0  0  0  0
   -2.6840    1.5890    3.8413 N   0  0  0  0  0  0  0  0  0  0  0  0
   -3.3907    1.5460    4.5628 H   0  0  0  0  0  0  0  0  0  0  0  0
   -1.9059    0.5423    3.3992 C   0  0  0  0  0  0  0  0  0  0  0  0
   -1.9278   -0.4864    3.7365 H   0  0  0  0  0  0  0  0  0  0  0  0
    0.4272   -0.7662   -0.6868 C   0  0  0  0  0  0  0  0  0  0  0  0
    0.1087   -1.2966   -1.7510 O   0  0  0  0  0  0  0  0  0  0  0  0
    1.6937   -0.7199   -0.2616 N   0  0  0  0  0  0  0  0  0  0  0  0
    1.8520   -0.3597    0.6728 H   0  0  0  0  0  0  0  0  0  0  0  0
    2.8366   -1.2732   -0.9842 C   0  0  0  0  0  0  0  0  0  0  0  0
    2.6965   -1.1480   -2.0609 H   0  0  0  0  0  0  0  0  0  0  0  0
    3.7506   -0.7604   -0.6811 H   0  0  0  0  0  0  0  0  0  0  0  0
    2.9284   -2.3377   -0.7624 H   0  0  0  0  0  0  0  0  0  0  0  0
  5  6  2  0  0  0  0
  5  7  1  0  0  0  0
  2  3  1  0  0  0  0
  2  4  1  0  0  0  0
  2  5  1  0  0  0  0
  1  2  1  0  0  0  0
 22 23  2  0  0  0  0
 22 24  1  0  0  0  0
 20 21  1  0  0  0  0
 18 19  1  0  0  0  0
 18 20  1  0  0  0  0
 16 17  1  0  0  0  0
 16 18  1  0  0  0  0
 15 16  2  0  0  0  0
 14 15  1  0  0  0  0
 14 20  2  0  0  0  0
 11 12  1  0  0  0  0
 11 13  1  0  0  0  0
 11 14  1  0  0  0  0
  9 10  1  0  0  0  0
  9 11  1  0  0  0  0
  9 22  1  0  0  0  0
  7  8  1  0  0  0  0
  7  9  1  0  0  0  0
 26 27  1  0  0  0  0
 26 28  1  0  0  0  0
 26 29  1  0  0  0  0
 24 25  1  0  0  0  0
 24 26  1  0  0  0  0
M  END
$$$$
default_name
  -OEChem-01062215323D

 29 29  0     1  0  0  0  0  0999 V2000
   -2.9561   -3.9186    1.3887 H   0  0  0  0  0  0  0  0  0  0  0  0
   -3.1191   -2.9346    0.9517 C   0  0  0  0  0  0  0  0  0  0  0  0
   -3.7811   -2.3546    1.5917 H   0  0  0  0  0  0  0  0  0  0  0  0
   -3.5591   -3.0406   -0.0383 H   0  0  0  0  0  0  0  0  0  0  0  0
   -1.7921   -2.2226    0.8327 C   0  0  0  0  0  0  0  0  0  0  0  0
   -0.7611   -2.7766    1.1927 O   0  0  0  0  0  0  0  0  0  0  0  0
   -1.8201   -0.9926    0.3247 N   0  0  0  0  0  0  0  0  0  0  0  0
   -2.7141   -0.5816    0.0927 H   0  0  0  0  0  0  0  0  0  0  0  0
   -0.6481   -0.1156    0.2017 C   0  0  1  0  0  0  0  0  0  0  0  0
   -0.9634    0.8070   -0.2898 H   0  0  0  0  0  0  0  0  0  0  0  0
   -0.1171    0.2424    1.6034 C   0  0  0  0  0  0  0  0  0  0  0  0
    0.0970   -0.6704    2.1613 H   0  0  0  0  0  0  0  0  0  0  0  0
    0.8169    0.7987    1.5132 H   0  0  0  0  0  0  0  0  0  0  0  0
   -1.1032    1.0446    2.4171 C   0  0  0  0  0  0  0  0  0  0  0  0
   -1.4027    2.3958    2.2384 N   0  0  0  0  0  0  0  0  0  0  0  0
   -2.3566    2.6845    3.1356 C   0  0  0  0  0  0  0  0  0  0  0  0
   -2.8016    3.6632    3.2631 H   0  0  0  0  0  0  0  0  0  0  0  0
   -2.6840    1.5890    3.8413 N   0  0  0  0  0  0  0  0  0  0  0  0
   -3.3907    1.5460    4.5628 H   0  0  0  0  0  0  0  0  0  0  0  0
   -1.9059    0.5423    3.3992 C   0  0  0  0  0  0  0  0  0  0  0  0
   -1.9278   -0.4864    3.7365 H   0  0  0  0  0  0  0  0  0  0  0  0
    0.4272   -0.7662   -0.6868 C   0  0  0  0  0  0  0  0  0  0  0  0
    0.1714   -1.0474   -1.8576 O   0  0  0  0  0  0  0  0  0  0  0  0
    1.6257   -0.9965   -0.1414 N   0  0  0  0  0  0  0  0  0  0  0  0
    1.7164   -0.8328    0.8551 H   0  0  0  0  0  0  0  0  0  0  0  0
    2.7606   -1.5919   -0.8429 C   0  0  0  0  0  0  0  0  0  0  0  0
    2.7730   -1.2621   -1.8849 H   0  0  0  0  0  0  0  0  0  0  0  0
    3.6927   -1.2915   -0.3622 H   0  0  0  0  0  0  0  0  0  0  0  0
    2.6752   -2.6796   -0.8187 H   0  0  0  0  0  0  0  0  0  0  0  0
  5  6  2  0  0  0  0
  5  7  1  0  0  0  0
  2  3  1  0  0  0  0
  2  4  1  0  0  0  0
  2  5  1  0  0  0  0
  1  2  1  0  0  0  0
 22 23  2  0  0  0  0
 22 24  1  0  0  0  0
 20 21  1  0  0  0  0
 18 19  1  0  0  0  0
 18 20  1  0  0  0  0
 16 17  1  0  0  0  0
 16 18  1  0  0  0  0
 15 16  2  0  0  0  0
 14 15  1  0  0  0  0
 14 20  2  0  0  0  0
 11 12  1  0  0  0  0
 11 13  1  0  0  0  0
 11 14  1  0  0  0  0
  9 10  1  0  0  0  0
  9 11  1  0  0  0  0
  9 22  1  0  0  0  0
  7  8  1  0  0  0  0
  7  9  1  0  0  0  0
 26 27  1  0  0  0  0
 26 28  1  0  0  0  0
 26 29  1  0  0  0  0
 24 25  1  0  0  0  0
 24 26  1  0  0  0  0
M  END
$$$$
default_name
  -OEChem-01062215323D

 29 29  0     1  0  0  0  0  0999 V2000
   -2.9561   -3.9186    1.3887 H   0  0  0  0  0  0  0  0  0  0  0  0
   -3.1191   -2.9346    0.9517 C   0  0  0  0  0  0  0  0  0  0  0  0
   -3.7811   -2.3546    1.5917 H   0  0  0  0  0  0  0  0  0  0  0  0
   -3.5591   -3.0406   -0.0383 H   0  0  0  0  0  0  0  0  0  0  0  0
   -1.7921   -2.2226    0.8327 C   0  0  0  0  0  0  0  0  0  0  0  0
   -0.7611   -2.7766    1.1927 O   0  0  0  0  0  0  0  0  0  0  0  0
   -1.8201   -0.9926    0.3247 N   0  0  0  0  0  0  0  0  0  0  0  0
   -2.7141   -0.5816    0.0927 H   0  0  0  0  0  0  0  0  0  0  0  0
   -0.6481   -0.1156    0.2017 C   0  0  1  0  0  0  0  0  0  0  0  0
   -0.9634    0.8070   -0.2898 H   0  0  0  0  0  0  0  0  0  0  0  0
   -0.1171    0.2424    1.6034 C   0  0  0  0  0  0  0  0  0  0  0  0
    0.0970   -0.6704    2.1613 H   0  0  0  0  0  0  0  0  0  0  0  0
    0.8169    0.7987    1.5132 H   0  0  0  0  0  0  0  0  0  0  0  0
   -1.1032    1.0446    2.4171 C   0  0  0  0  0  0  0  0  0  0  0  0
   -1.4027    2.3958    2.2384 N   0  0  0  0  0  0  0  0  0  0  0  0
   -2.3566    2.6845    3.1356 C   0  0  0  0  0  0  0  0  0  0  0  0
   -2.8016    3.6632    3.2631 H   0  0  0  0  0  0  0  0  0  0  0  0
   -2.6840    1.5890    3.8413 N   0  0  0  0  0  0  0  0  0  0  0  0
   -3.3907    1.5460    4.5628 H   0  0  0  0  0  0  0  0  0  0  0  0
   -1.9059    0.5423    3.3992 C   0  0  0  0  0  0  0  0  0  0  0  0
   -1.9278   -0.4864    3.7365 H   0  0  0  0  0  0  0  0  0  0  0  0
    0.4272   -0.7662   -0.6868 C   0  0  0  0  0  0  0  0  0  0  0  0
    0.2809   -0.7968   -1.9087 O   0  0  0  0  0  0  0  0  0  0  0  0
    1.5055   -1.2753   -0.0827 N   0  0  0  0  0  0  0  0  0  0  0  0
    1.4948   -1.3025    0.9308 H   0  0  0  0  0  0  0  0  0  0  0  0
    2.6241   -1.9140   -0.7723 C   0  0  0  0  0  0  0  0  0  0  0  0
    2.8105   -1.4156   -1.7270 H   0  0  0  0  0  0  0  0  0  0  0  0
    3.5226   -1.8535   -0.1566 H   0  0  0  0  0  0  0  0  0  0  0  0
    2.3856   -2.9617   -0.9625 H   0  0  0  0  0  0  0  0  0  0  0  0
  5  6  2  0  0  0  0
  5  7  1  0  0  0  0
  2  3  1  0  0  0  0
  2  4  1  0  0  0  0
  2  5  1  0  0  0  0
  1  2  1  0  0  0  0
 22 23  2  0  0  0  0
 22 24  1  0  0  0  0
 20 21  1  0  0  0  0
 18 19  1  0  0  0  0
 18 20  1  0  0  0  0
 16 17  1  0  0  0  0
 16 18  1  0  0  0  0
 15 16  2  0  0  0  0
 14 15  1  0  0  0  0
 14 20  2  0  0  0  0
 11 12  1  0  0  0  0
 11 13  1  0  0  0  0
 11 14  1  0  0  0  0
  9 10  1  0  0  0  0
  9 11  1  0  0  0  0
  9 22  1  0  0  0  0
  7  8  1  0  0  0  0
  7  9  1  0  0  0  0
 26 27  1  0  0  0  0
 26 28  1  0  0  0  0
 26 29  1  0  0  0  0
 24 25  1  0  0  0  0
 24 26  1  0  0  0  0
M  END
$$$$
default_name
  -OEChem-01062215323D

 29 29  0     1  0  0  0  0  0999 V2000
   -2.9561   -3.9186    1.3887 H   0  0  0  0  0  0  0  0  0  0  0  0
   -3.1191   -2.9346    0.9517 C   0  0  0  0  0  0  0  0  0  0  0  0
   -3.7811   -2.3546    1.5917 H   0  0  0  0  0  0  0  0  0  0  0  0
   -3.5591   -3.0406   -0.0383 H   0  0  0  0  0  0  0  0  0  0  0  0
   -1.7921   -2.2226    0.8327 C   0  0  0  0  0  0  0  0  0  0  0  0
   -0.7611   -2.7766    1.1927 O   0  0  0  0  0  0  0  0  0  0  0  0
   -1.8201   -0.9926    0.3247 N   0  0  0  0  0  0  0  0  0  0  0  0
   -2.7141   -0.5816    0.0927 H   0  0  0  0  0  0  0  0  0  0  0  0
   -0.6481   -0.1156    0.2017 C   0  0  1  0  0  0  0  0  0  0  0  0
   -0.9634    0.8070   -0.2898 H   0  0  0  0  0  0  0  0  0  0  0  0
   -0.1171    0.2424    1.6034 C   0  0  0  0  0  0  0  0  0  0  0  0
    0.0970   -0.6704    2.1613 H   0  0  0  0  0  0  0  0  0  0  0  0
    0.8169    0.7987    1.5132 H   0  0  0  0  0  0  0  0  0  0  0  0
   -1.1032    1.0446    2.4171 C   0  0  0  0  0  0  0  0  0  0  0  0
   -1.4027    2.3958    2.2384 N   0  0  0  0  0  0  0  0  0  0  0  0
   -2.3566    2.6845    3.1356 C   0  0  0  0  0  0  0  0  0  0  0  0
   -2.8016    3.6632    3.2631 H   0  0  0  0  0  0  0  0  0  0  0  0
   -2.6840    1.5890    3.8413 N   0  0  0  0  0  0  0  0  0  0  0  0
   -3.3907    1.5460    4.5628 H   0  0  0  0  0  0  0  0  0  0  0  0
   -1.9059    0.5423    3.3992 C   0  0  0  0  0  0  0  0  0  0  0  0
   -1.9278   -0.4864    3.7365 H   0  0  0  0  0  0  0  0  0  0  0  0
    0.4272   -0.7662   -0.6868 C   0  0  0  0  0  0  0  0  0  0  0  0
    0.4296   -0.5618   -1.9007 O   0  0  0  0  0  0  0  0  0  0  0  0
    1.3414   -1.5372   -0.0896 N   0  0  0  0  0  0  0  0  0  0  0  0
    1.2022   -1.7368    0.8947 H   0  0  0  0  0  0  0  0  0  0  0  0
    2.4363   -2.2174   -0.7773 C   0  0  0  0  0  0  0  0  0  0  0  0
    2.8065   -1.5980   -1.5982 H   0  0  0  0  0  0  0  0  0  0  0  0
    3.2518   -2.4082   -0.0782 H   0  0  0  0  0  0  0  0  0  0  0  0
    2.0795   -3.1650   -1.1842 H   0  0  0  0  0  0  0  0  0  0  0  0
  5  6  2  0  0  0  0
  5  7  1  0  0  0  0
  2  3  1  0  0  0  0
  2  4  1  0  0  0  0
  2  5  1  0  0  0  0
  1  2  1  0  0  0  0
 22 23  2  0  0  0  0
 22 24  1  0  0  0  0
 20 21  1  0  0  0  0
 18 19  1  0  0  0  0
 18 20  1  0  0  0  0
 16 17  1  0  0  0  0
 16 18  1  0  0  0  0
 15 16  2  0  0  0  0
 14 15  1  0  0  0  0
 14 20  2  0  0  0  0
 11 12  1  0  0  0  0
 11 13  1  0  0  0  0
 11 14  1  0  0  0  0
  9 10  1  0  0  0  0
  9 11  1  0  0  0  0
  9 22  1  0  0  0  0
  7  8  1  0  0  0  0
  7  9  1  0  0  0  0
 26 27  1  0  0  0  0
 26 28  1  0  0  0  0
 26 29  1  0  0  0  0
 24 25  1  0  0  0  0
 24 26  1  0  0  0  0
M  END
$$$$
default_name
  -OEChem-01062215323D

 29 29  0     1  0  0  0  0  0999 V2000
   -2.9561   -3.9186    1.3887 H   0  0  0  0  0  0  0  0  0  0  0  0
   -3.1191   -2.9346    0.9517 C   0  0  0  0  0  0  0  0  0  0  0  0
   -3.7811   -2.3546    1.5917 H   0  0  0  0  0  0  0  0  0  0  0  0
   -3.5591   -3.0406   -0.0383 H   0  0  0  0  0  0  0  0  0  0  0  0
   -1.7921   -2.2226    0.8327 C   0  0  0  0  0  0  0  0  0  0  0  0
   -0.7611   -2.7766    1.1927 O   0  0  0  0  0  0  0  0  0  0  0  0
   -1.8201   -0.9926    0.3247 N   0  0  0  0  0  0  0  0  0  0  0  0
   -2.7141   -0.5816    0.0927 H   0  0  0  0  0  0  0  0  0  0  0  0
   -0.6481   -0.1156    0.2017 C   0  0  1  0  0  0  0  0  0  0  0  0
   -0.9634    0.8070   -0.2898 H   0  0  0  0  0  0  0  0  0  0  0  0
   -0.1171    0.2424    1.6034 C   0  0  0  0  0  0  0  0  0  0  0  0
    0.0970   -0.6704    2.1613 H   0  0  0  0  0  0  0  0  0  0  0  0
    0.8169    0.7987    1.5132 H   0  0  0  0  0  0  0  0  0  0  0  0
   -1.1032    1.0446    2.4171 C   0  0  0  0  0  0  0  0  0  0  0  0
   -1.4027    2.3958    2.2384 N   0  0  0  0  0  0  0  0  0  0  0  0
   -2.3566    2.6845    3.1356 C   0  0  0  0  0  0  0  0  0  0  0  0
   -2.8016    3.6632    3.2631 H   0  0  0  0  0  0  0  0  0  0  0  0
   -2.6840    1.5890    3.8413 N   0  0  0  0  0  0  0  0  0  0  0  0
   -3.3907    1.5460    4.5628 H   0  0  0  0  0  0  0  0  0  0  0  0
   -1.9059    0.5423    3.3992 C   0  0  0  0  0  0  0  0  0  0  0  0
   -1.9278   -0.4864    3.7365 H   0  0  0  0  0  0  0  0  0  0  0  0
    0.4272   -0.7662   -0.6868 C   0  0  0  0  0  0  0  0  0  0  0  0
    0.6076   -0.3585   -1.8342 O   0  0  0  0  0  0  0  0  0  0  0  0
    1.1445   -1.7644   -0.1615 N   0  0  0  0  0  0  0  0  0  0  0  0
    0.8587   -2.1060    0.7493 H   0  0  0  0  0  0  0  0  0  0  0  0
    2.2102   -2.4816   -0.8575 C   0  0  0  0  0  0  0  0  0  0  0  0
    2.7614   -1.7969   -1.5073 H   0  0  0  0  0  0  0  0  0  0  0  0
    2.8988   -2.9176   -0.1324 H   0  0  0  0  0  0  0  0  0  0  0  0
    1.7777   -3.2755   -1.4686 H   0  0  0  0  0  0  0  0  0  0  0  0
  5  6  2  0  0  0  0
  5  7  1  0  0  0  0
  2  3  1  0  0  0  0
  2  4  1  0  0  0  0
  2  5  1  0  0  0  0
  1  2  1  0  0  0  0
 22 23  2  0  0  0  0
 22 24  1  0  0  0  0
 20 21  1  0  0  0  0
 18 19  1  0  0  0  0
 18 20  1  0  0  0  0
 16 17  1  0  0  0  0
 16 18  1  0  0  0  0
 15 16  2  0  0  0  0
 14 15  1  0  0  0  0
 14 20  2  0  0  0  0
 11 12  1  0  0  0  0
 11 13  1  0  0  0  0
 11 14  1  0  0  0  0
  9 10  1  0  0  0  0
  9 11  1  0  0  0  0
  9 22  1  0  0  0  0
  7  8  1  0  0  0  0
  7  9  1  0  0  0  0
 26 27  1  0  0  0  0
 26 28  1  0  0  0  0
 26 29  1  0  0  0  0
 24 25  1  0  0  0  0
 24 26  1  0  0  0  0
M  END
$$$$
default_name
  -OEChem-01062215323D

 29 29  0     1  0  0  0  0  0999 V2000
   -2.9561   -3.9186    1.3887 H   0  0  0  0  0  0  0  0  0  0  0  0
   -3.1191   -2.9346    0.9517 C   0  0  0  0  0  0  0  0  0  0  0  0
   -3.7811   -2.3546    1.5917 H   0  0  0  0  0  0  0  0  0  0  0  0
   -3.5591   -3.0406   -0.0383 H   0  0  0  0  0  0  0  0  0  0  0  0
   -1.7921   -2.2226    0.8327 C   0  0  0  0  0  0  0  0  0  0  0  0
   -0.7611   -2.7766    1.1927 O   0  0  0  0  0  0  0  0  0  0  0  0
   -1.8201   -0.9926    0.3247 N   0  0  0  0  0  0  0  0  0  0  0  0
   -2.7141   -0.5816    0.0927 H   0  0  0  0  0  0  0  0  0  0  0  0
   -0.6481   -0.1156    0.2017 C   0  0  1  0  0  0  0  0  0  0  0  0
   -0.9634    0.8070   -0.2898 H   0  0  0  0  0  0  0  0  0  0  0  0
   -0.1171    0.2424    1.6034 C   0  0  0  0  0  0  0  0  0  0  0  0
    0.0970   -0.6704    2.1613 H   0  0  0  0  0  0  0  0  0  0  0  0
    0.8169    0.7987    1.5132 H   0  0  0  0  0  0  0  0  0  0  0  0
   -1.1032    1.0446    2.4171 C   0  0  0  0  0  0  0  0  0  0  0  0
   -1.4027    2.3958    2.2384 N   0  0  0  0  0  0  0  0  0  0  0  0
   -2.3566    2.6845    3.1356 C   0  0  0  0  0  0  0  0  0  0  0  0
   -2.8016    3.6632    3.2631 H   0  0  0  0  0  0  0  0  0  0  0  0
   -2.6840    1.5890    3.8413 N   0  0  0  0  0  0  0  0  0  0  0  0
   -3.3907    1.5460    4.5628 H   0  0  0  0  0  0  0  0  0  0  0  0
   -1.9059    0.5423    3.3992 C   0  0  0  0  0  0  0  0  0  0  0  0
   -1.9278   -0.4864    3.7365 H   0  0  0  0  0  0  0  0  0  0  0  0
    0.4272   -0.7662   -0.6868 C   0  0  0  0  0  0  0  0  0  0  0  0
    0.8025   -0.2007   -1.7138 O   0  0  0  0  0  0  0  0  0  0  0  0
    0.9282   -1.9415   -0.2936 N   0  0  0  0  0  0  0  0  0  0  0  0
    0.4877   -2.3851    0.5045 H   0  0  0  0  0  0  0  0  0  0  0  0
    1.9612   -2.6884   -1.0076 C   0  0  0  0  0  0  0  0  0  0  0  0
    2.6781   -1.9987   -1.4603 H   0  0  0  0  0  0  0  0  0  0  0  0
    2.4877   -3.3471   -0.3155 H   0  0  0  0  0  0  0  0  0  0  0  0
    1.5008   -3.2858   -1.7962 H   0  0  0  0  0  0  0  0  0  0  0  0
  5  6  2  0  0  0  0
  5  7  1  0  0  0  0
  2  3  1  0  0  0  0
  2  4  1  0  0  0  0
  2  5  1  0  0  0  0
  1  2  1  0  0  0  0
 22 23  2  0  0  0  0
 22 24  1  0  0  0  0
 20 21  1  0  0  0  0
 18 19  1  0  0  0  0
 18 20  1  0  0  0  0
 16 17  1  0  0  0  0
 16 18  1  0  0  0  0
 15 16  2  0  0  0  0
 14 15  1  0  0  0  0
 14 20  2  0  0  0  0
 11 12  1  0  0  0  0
 11 13  1  0  0  0  0
 11 14  1  0  0  0  0
  9 10  1  0  0  0  0
  9 11  1  0  0  0  0
  9 22  1  0  0  0  0
  7  8  1  0  0  0  0
  7  9  1  0  0  0  0
 26 27  1  0  0  0  0
 26 28  1  0  0  0  0
 26 29  1  0  0  0  0
 24 25  1  0  0  0  0
 24 26  1  0  0  0  0
M  END
$$$$
default_name
  -OEChem-01062215323D

 29 29  0     1  0  0  0  0  0999 V2000
   -2.9561   -3.9186    1.3887 H   0  0  0  0  0  0  0  0  0  0  0  0
   -3.1191   -2.9346    0.9517 C   0  0  0  0  0  0  0  0  0  0  0  0
   -3.7811   -2.3546    1.5917 H   0  0  0  0  0  0  0  0  0  0  0  0
   -3.5591   -3.0406   -0.0383 H   0  0  0  0  0  0  0  0  0  0  0  0
   -1.7921   -2.2226    0.8327 C   0  0  0  0  0  0  0  0  0  0  0  0
   -0.7611   -2.7766    1.1927 O   0  0  0  0  0  0  0  0  0  0  0  0
   -1.8201   -0.9926    0.3247 N   0  0  0  0  0  0  0  0  0  0  0  0
   -2.7141   -0.5816    0.0927 H   0  0  0  0  0  0  0  0  0  0  0  0
   -0.6481   -0.1156    0.2017 C   0  0  1  0  0  0  0  0  0  0  0  0
   -0.9634    0.8070   -0.2898 H   0  0  0  0  0  0  0  0  0  0  0  0
   -0.1171    0.2424    1.6034 C   0  0  0  0  0  0  0  0  0  0  0  0
    0.0970   -0.6704    2.1613 H   0  0  0  0  0  0  0  0  0  0  0  0
    0.8169    0.7987    1.5132 H   0  0  0  0  0  0  0  0  0  0  0  0
   -1.1032    1.0446    2.4171 C   0  0  0  0  0  0  0  0  0  0  0  0
   -1.4027    2.3958    2.2384 N   0  0  0  0  0  0  0  0  0  0  0  0
   -2.3566    2.6845    3.1356 C   0  0  0  0  0  0  0  0  0  0  0  0
   -2.8016    3.6632    3.2631 H   0  0  0  0  0  0  0  0  0  0  0  0
   -2.6840    1.5890    3.8413 N   0  0  0  0  0  0  0  0  0  0  0  0
   -3.3907    1.5460    4.5628 H   0  0  0  0  0  0  0  0  0  0  0  0
   -1.9059    0.5423    3.3992 C   0  0  0  0  0  0  0  0  0  0  0  0
   -1.9278   -0.4864    3.7365 H   0  0  0  0  0  0  0  0  0  0  0  0
    0.4272   -0.7662   -0.6868 C   0  0  0  0  0  0  0  0  0  0  0  0
    1.0012   -0.0992   -1.5476 O   0  0  0  0  0  0  0  0  0  0  0  0
    0.7073   -2.0563   -0.4769 N   0  0  0  0  0  0  0  0  0  0  0  0
    0.1143   -2.5549    0.1770 H   0  0  0  0  0  0  0  0  0  0  0  0
    1.7061   -2.8239   -1.2171 C   0  0  0  0  0  0  0  0  0  0  0  0
    2.5624   -2.1897   -1.4605 H   0  0  0  0  0  0  0  0  0  0  0  0
    2.0464   -3.6675   -0.6150 H   0  0  0  0  0  0  0  0  0  0  0  0
    1.2676   -3.1950   -2.1449 H   0  0  0  0  0  0  0  0  0  0  0  0
  5  6  2  0  0  0  0
  5  7  1  0  0  0  0
  2  3  1  0  0  0  0
  2  4  1  0  0  0  0
  2  5  1  0  0  0  0
  1  2  1  0  0  0  0
 22 23  2  0  0  0  0
 22 24  1  0  0  0  0
 20 21  1  0  0  0  0
 18 19  1  0  0  0  0
 18 20  1  0  0  0  0
 16 17  1  0  0  0  0
 16 18  1  0  0  0  0
 15 16  2  0  0  0  0
 14 15  1  0  0  0  0
 14 20  2  0  0  0  0
 11 12  1  0  0  0  0
 11 13  1  0  0  0  0
 11 14  1  0  0  0  0
  9 10  1  0  0  0  0
  9 11  1  0  0  0  0
  9 22  1  0  0  0  0
  7  8  1  0  0  0  0
  7  9  1  0  0  0  0
 26 27  1  0  0  0  0
 26 28  1  0  0  0  0
 26 29  1  0  0  0  0
 24 25  1  0  0  0  0
 24 26  1  0  0  0  0
M  END
$$$$
default_name
  -OEChem-01062215323D

 29 29  0     1  0  0  0  0  0999 V2000
   -2.9561   -3.9186    1.3887 H   0  0  0  0  0  0  0  0  0  0  0  0
   -3.1191   -2.9346    0.9517 C   0  0  0  0  0  0  0  0  0  0  0  0
   -3.7811   -2.3546    1.5917 H   0  0  0  0  0  0  0  0  0  0  0  0
   -3.5591   -3.0406   -0.0383 H   0  0  0  0  0  0  0  0  0  0  0  0
   -1.7921   -2.2226    0.8327 C   0  0  0  0  0  0  0  0  0  0  0  0
   -0.7611   -2.7766    1.1927 O   0  0  0  0  0  0  0  0  0  0  0  0
   -1.8201   -0.9926    0.3247 N   0  0  0  0  0  0  0  0  0  0  0  0
   -2.7141   -0.5816    0.0927 H   0  0  0  0  0  0  0  0  0  0  0  0
   -0.6481   -0.1156    0.2017 C   0  0  1  0  0  0  0  0  0  0  0  0
   -0.9634    0.8070   -0.2898 H   0  0  0  0  0  0  0  0  0  0  0  0
   -0.1171    0.2424    1.6034 C   0  0  0  0  0  0  0  0  0  0  0  0
    0.0970   -0.6704    2.1613 H   0  0  0  0  0  0  0  0  0  0  0  0
    0.8169    0.7987    1.5132 H   0  0  0  0  0  0  0  0  0  0  0  0
   -1.1032    1.0446    2.4171 C   0  0  0  0  0  0  0  0  0  0  0  0
   -1.4027    2.3958    2.2384 N   0  0  0  0  0  0  0  0  0  0  0  0
   -2.3566    2.6845    3.1356 C   0  0  0  0  0  0  0  0  0  0  0  0
   -2.8016    3.6632    3.2631 H   0  0  0  0  0  0  0  0  0  0  0  0
   -2.6840    1.5890    3.8413 N   0  0  0  0  0  0  0  0  0  0  0  0
   -3.3907    1.5460    4.5628 H   0  0  0  0  0  0  0  0  0  0  0  0
   -1.9059    0.5423    3.3992 C   0  0  0  0  0  0  0  0  0  0  0  0
   -1.9278   -0.4864    3.7365 H   0  0  0  0  0  0  0  0  0  0  0  0
    0.4272   -0.7662   -0.6868 C   0  0  0  0  0  0  0  0  0  0  0  0
    1.1902   -0.0609   -1.3470 O   0  0  0  0  0  0  0  0  0  0  0  0
    0.4968   -2.1010   -0.6989 N   0  0  0  0  0  0  0  0  0  0  0  0
   -0.2358   -2.6040   -0.2108 H   0  0  0  0  0  0  0  0  0  0  0  0
    1.4624   -2.8787   -1.4719 C   0  0  0  0  0  0  0  0  0  0  0  0
    2.4221   -2.3568   -1.5079 H   0  0  0  0  0  0  0  0  0  0  0  0
    1.6051   -3.8569   -1.0105 H   0  0  0  0  0  0  0  0  0  0  0  0
    1.0941   -3.0095   -2.4908 H   0  0  0  0  0  0  0  0  0  0  0  0
  5  6  2  0  0  0  0
  5  7  1  0  0  0  0
  2  3  1  0  0  0  0
  2  4  1  0  0  0  0
  2  5  1  0  0  0  0
  1  2  1  0  0  0  0
 22 23  2  0  0  0  0
 22 24  1  0  0  0  0
 20 21  1  0  0  0  0
 18 19  1  0  0  0  0
 18 20  1  0  0  0  0
 16 17  1  0  0  0  0
 16 18  1  0  0  0  0
 15 16  2  0  0  0  0
 14 15  1  0  0  0  0
 14 20  2  0  0  0  0
 11 12  1  0  0  0  0
 11 13  1  0  0  0  0
 11 14  1  0  0  0  0
  9 10  1  0  0  0  0
  9 11  1  0  0  0  0
  9 22  1  0  0  0  0
  7  8  1  0  0  0  0
  7  9  1  0  0  0  0
 26 27  1  0  0  0  0
 26 28  1  0  0  0  0
 26 29  1  0  0  0  0
 24 25  1  0  0  0  0
 24 26  1  0  0  0  0
M  END
$$$$
default_name
  -OEChem-01062215323D

 29 29  0     1  0  0  0  0  0999 V2000
   -2.9561   -3.9186    1.3887 H   0  0  0  0  0  0  0  0  0  0  0  0
   -3.1191   -2.9346    0.9517 C   0  0  0  0  0  0  0  0  0  0  0  0
   -3.7811   -2.3546    1.5917 H   0  0  0  0  0  0  0  0  0  0  0  0
   -3.5591   -3.0406   -0.0383 H   0  0  0  0  0  0  0  0  0  0  0  0
   -1.7921   -2.2226    0.8327 C   0  0  0  0  0  0  0  0  0  0  0  0
   -0.7611   -2.7766    1.1927 O   0  0  0  0  0  0  0  0  0  0  0  0
   -1.8201   -0.9926    0.3247 N   0  0  0  0  0  0  0  0  0  0  0  0
   -2.7141   -0.5816    0.0927 H   0  0  0  0  0  0  0  0  0  0  0  0
   -0.6481   -0.1156    0.2017 C   0  0  1  0  0  0  0  0  0  0  0  0
   -0.9634    0.8070   -0.2898 H   0  0  0  0  0  0  0  0  0  0  0  0
   -0.1171    0.2424    1.6034 C   0  0  0  0  0  0  0  0  0  0  0  0
    0.0970   -0.6704    2.1613 H   0  0  0  0  0  0  0  0  0  0  0  0
    0.8169    0.7987    1.5132 H   0  0  0  0  0  0  0  0  0  0  0  0
   -1.1032    1.0446    2.4171 C   0  0  0  0  0  0  0  0  0  0  0  0
   -1.4027    2.3958    2.2384 N   0  0  0  0  0  0  0  0  0  0  0  0
   -2.3566    2.6845    3.1356 C   0  0  0  0  0  0  0  0  0  0  0  0
   -2.8016    3.6632    3.2631 H   0  0  0  0  0  0  0  0  0  0  0  0
   -2.6840    1.5890    3.8413 N   0  0  0  0  0  0  0  0  0  0  0  0
   -3.3907    1.5460    4.5628 H   0  0  0  0  0  0  0  0  0  0  0  0
   -1.9059    0.5423    3.3992 C   0  0  0  0  0  0  0  0  0  0  0  0
   -1.9278   -0.4864    3.7365 H   0  0  0  0  0  0  0  0  0  0  0  0
    0.4272   -0.7662   -0.6868 C   0  0  0  0  0  0  0  0  0  0  0  0
    1.3564   -0.0884   -1.1256 O   0  0  0  0  0  0  0  0  0  0  0  0
    0.3111   -2.0727   -0.9445 N   0  0  0  0  0  0  0  0  0  0  0  0
   -0.5389   -2.5289   -0.6327 H   0  0  0  0  0  0  0  0  0  0  0  0
    1.2466   -2.8492   -1.7546 C   0  0  0  0  0  0  0  0  0  0  0  0
    2.2668   -2.4888   -1.5993 H   0  0  0  0  0  0  0  0  0  0  0  0
    1.1938   -3.9024   -1.4751 H   0  0  0  0  0  0  0  0  0  0  0  0
    0.9920   -2.7419   -2.8103 H   0  0  0  0  0  0  0  0  0  0  0  0
  5  6  2  0  0  0  0
  5  7  1  0  0  0  0
  2  3  1  0  0  0  0
  2  4  1  0  0  0  0
  2  5  1  0  0  0  0
  1  2  1  0  0  0  0
 22 23  2  0  0  0  0
 22 24  1  0  0  0  0
 20 21  1  0  0  0  0
 18 19  1  0  0  0  0
 18 20  1  0  0  0  0
 16 17  1  0  0  0  0
 16 18  1  0  0  0  0
 15 16  2  0  0  0  0
 14 15  1  0  0  0  0
 14 20  2  0  0  0  0
 11 12  1  0  0  0  0
 11 13  1  0  0  0  0
 11 14  1  0  0  0  0
  9 10  1  0  0  0  0
  9 11  1  0  0  0  0
  9 22  1  0  0  0  0
  7  8  1  0  0  0  0
  7  9  1  0  0  0  0
 26 27  1  0  0  0  0
 26 28  1  0  0  0  0
 26 29  1  0  0  0  0
 24 25  1  0  0  0  0
 24 26  1  0  0  0  0
M  END
$$$$
default_name
  -OEChem-01062215323D

 29 29  0     1  0  0  0  0  0999 V2000
   -2.9561   -3.9186    1.3887 H   0  0  0  0  0  0  0  0  0  0  0  0
   -3.1191   -2.9346    0.9517 C   0  0  0  0  0  0  0  0  0  0  0  0
   -3.7811   -2.3546    1.5917 H   0  0  0  0  0  0  0  0  0  0  0  0
   -3.5591   -3.0406   -0.0383 H   0  0  0  0  0  0  0  0  0  0  0  0
   -1.7921   -2.2226    0.8327 C   0  0  0  0  0  0  0  0  0  0  0  0
   -0.7611   -2.7766    1.1927 O   0  0  0  0  0  0  0  0  0  0  0  0
   -1.8201   -0.9926    0.3247 N   0  0  0  0  0  0  0  0  0  0  0  0
   -2.7141   -0.5816    0.0927 H   0  0  0  0  0  0  0  0  0  0  0  0
   -0.6481   -0.1156    0.2017 C   0  0  1  0  0  0  0  0  0  0  0  0
   -0.9634    0.8070   -0.2898 H   0  0  0  0  0  0  0  0  0  0  0  0
   -0.1171    0.2424    1.6034 C   0  0  0  0  0  0  0  0  0  0  0  0
    0.0970   -0.6704    2.1613 H   0  0  0  0  0  0  0  0  0  0  0  0
    0.8169    0.7987    1.5132 H   0  0  0  0  0  0  0  0  0  0  0  0
   -1.1032    1.0446    2.4171 C   0  0  0  0  0  0  0  0  0  0  0  0
   -1.4027    2.3958    2.2384 N   0  0  0  0  0  0  0  0  0  0  0  0
   -2.3566    2.6845    3.1356 C   0  0  0  0  0  0  0  0  0  0  0  0
   -2.8016    3.6632    3.2631 H   0  0  0  0  0  0  0  0  0  0  0  0
   -2.6840    1.5890    3.8413 N   0  0  0  0  0  0  0  0  0  0  0  0
   -3.3907    1.5460    4.5628 H   0  0  0  0  0  0  0  0  0  0  0  0
   -1.9059    0.5423    3.3992 C   0  0  0  0  0  0  0  0  0  0  0  0
   -1.9278   -0.4864    3.7365 H   0  0  0  0  0  0  0  0  0  0  0  0
    0.4272   -0.7662   -0.6868 C   0  0  0  0  0  0  0  0  0  0  0  0
    1.4887   -0.1798   -0.8985 O   0  0  0  0  0  0  0  0  0  0  0  0
    0.1628   -1.9731   -1.1968 N   0  0  0  0  0  0  0  0  0  0  0  0
   -0.7743   -2.3349   -1.0597 H   0  0  0  0  0  0  0  0  0  0  0  0
    1.0736   -2.7374   -2.0460 C   0  0  0  0  0  0  0  0  0  0  0  0
    2.1070   -2.5765   -1.7284 H   0  0  0  0  0  0  0  0  0  0  0  0
    0.8405   -3.8009   -1.9770 H   0  0  0  0  0  0  0  0  0  0  0  0
    0.9684   -2.4103   -3.0817 H   0  0  0  0  0  0  0  0  0  0  0  0
  5  6  2  0  0  0  0
  5  7  1  0  0  0  0
  2  3  1  0  0  0  0
  2  4  1  0  0  0  0
  2  5  1  0  0  0  0
  1  2  1  0  0  0  0
 22 23  2  0  0  0  0
 22 24  1  0  0  0  0
 20 21  1  0  0  0  0
 18 19  1  0  0  0  0
 18 20  1  0  0  0  0
 16 17  1  0  0  0  0
 16 18  1  0  0  0  0
 15 16  2  0  0  0  0
 14 15  1  0  0  0  0
 14 20  2  0  0  0  0
 11 12  1  0  0  0  0
 11 13  1  0  0  0  0
 11 14  1  0  0  0  0
  9 10  1  0  0  0  0
  9 11  1  0  0  0  0
  9 22  1  0  0  0  0
  7  8  1  0  0  0  0
  7  9  1  0  0  0  0
 26 27  1  0  0  0  0
 26 28  1  0  0  0  0
 26 29  1  0  0  0  0
 24 25  1  0  0  0  0
 24 26  1  0  0  0  0
M  END
$$$$
default_name
  -OEChem-01062215323D

 29 29  0     1  0  0  0  0  0999 V2000
   -2.9561   -3.9186    1.3887 H   0  0  0  0  0  0  0  0  0  0  0  0
   -3.1191   -2.9346    0.9517 C   0  0  0  0  0  0  0  0  0  0  0  0
   -3.7811   -2.3546    1.5917 H   0  0  0  0  0  0  0  0  0  0  0  0
   -3.5591   -3.0406   -0.0383 H   0  0  0  0  0  0  0  0  0  0  0  0
   -1.7921   -2.2226    0.8327 C   0  0  0  0  0  0  0  0  0  0  0  0
   -0.7611   -2.7766    1.1927 O   0  0  0  0  0  0  0  0  0  0  0  0
   -1.8201   -0.9926    0.3247 N   0  0  0  0  0  0  0  0  0  0  0  0
   -2.7141   -0.5816    0.0927 H   0  0  0  0  0  0  0  0  0  0  0  0
   -0.6481   -0.1156    0.2017 C   0  0  1  0  0  0  0  0  0  0  0  0
   -0.9634    0.8070   -0.2898 H   0  0  0  0  0  0  0  0  0  0  0  0
   -0.1171    0.2424    1.6034 C   0  0  0  0  0  0  0  0  0  0  0  0
    0.0970   -0.6704    2.1613 H   0  0  0  0  0  0  0  0  0  0  0  0
    0.8169    0.7987    1.5132 H   0  0  0  0  0  0  0  0  0  0  0  0
   -1.1032    1.0446    2.4171 C   0  0  0  0  0  0  0  0  0  0  0  0
   -1.4027    2.3958    2.2384 N   0  0  0  0  0  0  0  0  0  0  0  0
   -2.3566    2.6845    3.1356 C   0  0  0  0  0  0  0  0  0  0  0  0
   -2.8016    3.6632    3.2631 H   0  0  0  0  0  0  0  0  0  0  0  0
   -2.6840    1.5890    3.8413 N   0  0  0  0  0  0  0  0  0  0  0  0
   -3.3907    1.5460    4.5628 H   0  0  0  0  0  0  0  0  0  0  0  0
   -1.9059    0.5423    3.3992 C   0  0  0  0  0  0  0  0  0  0  0  0
   -1.9278   -0.4864    3.7365 H   0  0  0  0  0  0  0  0  0  0  0  0
    0.4272   -0.7662   -0.6868 C   0  0  0  0  0  0  0  0  0  0  0  0
    1.5780   -0.3290   -0.6813 O   0  0  0  0  0  0  0  0  0  0  0  0
    0.0621   -1.8092   -1.4388 N   0  0  0  0  0  0  0  0  0  0  0  0
   -0.9260   -2.0350   -1.4629 H   0  0  0  0  0  0  0  0  0  0  0  0
    0.9550   -2.5508   -2.3261 C   0  0  0  0  0  0  0  0  0  0  0  0
    1.9538   -2.6140   -1.8864 H   0  0  0  0  0  0  0  0  0  0  0  0
    0.5693   -3.5592   -2.4821 H   0  0  0  0  0  0  0  0  0  0  0  0
    1.0248   -2.0374   -3.2865 H   0  0  0  0  0  0  0  0  0  0  0  0
  5  6  2  0  0  0  0
  5  7  1  0  0  0  0
  2  3  1  0  0  0  0
  2  4  1  0  0  0  0
  2  5  1  0  0  0  0
  1  2  1  0  0  0  0
 22 23  2  0  0  0  0
 22 24  1  0  0  0  0
 20 21  1  0  0  0  0
 18 19  1  0  0  0  0
 18 20  1  0  0  0  0
 16 17  1  0  0  0  0
 16 18  1  0  0  0  0
 15 16  2  0  0  0  0
 14 15  1  0  0  0  0
 14 20  2  0  0  0  0
 11 12  1  0  0  0  0
 11 13  1  0  0  0  0
 11 14  1  0  0  0  0
  9 10  1  0  0  0  0
  9 11  1  0  0  0  0
  9 22  1  0  0  0  0
  7  8  1  0  0  0  0
  7  9  1  0  0  0  0
 26 27  1  0  0  0  0
 26 28  1  0  0  0  0
 26 29  1  0  0  0  0
 24 25  1  0  0  0  0
 24 26  1  0  0  0  0
M  END
$$$$
default_name
  -OEChem-01062215323D

 29 29  0     1  0  0  0  0  0999 V2000
   -2.9561   -3.9186    1.3887 H   0  0  0  0  0  0  0  0  0  0  0  0
   -3.1191   -2.9346    0.9517 C   0  0  0  0  0  0  0  0  0  0  0  0
   -3.7811   -2.3546    1.5917 H   0  0  0  0  0  0  0  0  0  0  0  0
   -3.5591   -3.0406   -0.0383 H   0  0  0  0  0  0  0  0  0  0  0  0
   -1.7921   -2.2226    0.8327 C   0  0  0  0  0  0  0  0  0  0  0  0
   -0.7611   -2.7766    1.1927 O   0  0  0  0  0  0  0  0  0  0  0  0
   -1.8201   -0.9926    0.3247 N   0  0  0  0  0  0  0  0  0  0  0  0
   -2.7141   -0.5816    0.0927 H   0  0  0  0  0  0  0  0  0  0  0  0
   -0.6481   -0.1156    0.2017 C   0  0  1  0  0  0  0  0  0  0  0  0
   -0.9634    0.8070   -0.2898 H   0  0  0  0  0  0  0  0  0  0  0  0
   -0.1171    0.2424    1.6034 C   0  0  0  0  0  0  0  0  0  0  0  0
    0.0970   -0.6704    2.1613 H   0  0  0  0  0  0  0  0  0  0  0  0
    0.8169    0.7987    1.5132 H   0  0  0  0  0  0  0  0  0  0  0  0
   -1.1032    1.0446    2.4171 C   0  0  0  0  0  0  0  0  0  0  0  0
   -1.4027    2.3958    2.2384 N   0  0  0  0  0  0  0  0  0  0  0  0
   -2.3566    2.6845    3.1356 C   0  0  0  0  0  0  0  0  0  0  0  0
   -2.8016    3.6632    3.2631 H   0  0  0  0  0  0  0  0  0  0  0  0
   -2.6840    1.5890    3.8413 N   0  0  0  0  0  0  0  0  0  0  0  0
   -3.3907    1.5460    4.5628 H   0  0  0  0  0  0  0  0  0  0  0  0
   -1.9059    0.5423    3.3992 C   0  0  0  0  0  0  0  0  0  0  0  0
   -1.9278   -0.4864    3.7365 H   0  0  0  0  0  0  0  0  0  0  0  0
    0.4272   -0.7662   -0.6868 C   0  0  0  0  0  0  0  0  0  0  0  0
    1.6181   -0.5257   -0.4886 O   0  0  0  0  0  0  0  0  0  0  0  0
    0.0157   -1.5921   -1.6539 N   0  0  0  0  0  0  0  0  0  0  0  0
   -0.9836   -1.6498   -1.8147 H   0  0  0  0  0  0  0  0  0  0  0  0
    0.8991   -2.3022   -2.5759 C   0  0  0  0  0  0  0  0  0  0  0  0
    1.8174   -2.5987   -2.0626 H   0  0  0  0  0  0  0  0  0  0  0  0
    0.3987   -3.1940   -2.9560 H   0  0  0  0  0  0  0  0  0  0  0  0
    1.1574   -1.6486   -3.4107 H   0  0  0  0  0  0  0  0  0  0  0  0
  5  6  2  0  0  0  0
  5  7  1  0  0  0  0
  2  3  1  0  0  0  0
  2  4  1  0  0  0  0
  2  5  1  0  0  0  0
  1  2  1  0  0  0  0
 22 23  2  0  0  0  0
 22 24  1  0  0  0  0
 20 21  1  0  0  0  0
 18 19  1  0  0  0  0
 18 20  1  0  0  0  0
 16 17  1  0  0  0  0
 16 18  1  0  0  0  0
 15 16  2  0  0  0  0
 14 15  1  0  0  0  0
 14 20  2  0  0  0  0
 11 12  1  0  0  0  0
 11 13  1  0  0  0  0
 11 14  1  0  0  0  0
  9 10  1  0  0  0  0
  9 11  1  0  0  0  0
  9 22  1  0  0  0  0
  7  8  1  0  0  0  0
  7  9  1  0  0  0  0
 26 27  1  0  0  0  0
 26 28  1  0  0  0  0
 26 29  1  0  0  0  0
 24 25  1  0  0  0  0
 24 26  1  0  0  0  0
M  END
$$$$
default_name
  -OEChem-01062215323D

 29 29  0     1  0  0  0  0  0999 V2000
   -2.9561   -3.9186    1.3887 H   0  0  0  0  0  0  0  0  0  0  0  0
   -3.1191   -2.9346    0.9517 C   0  0  0  0  0  0  0  0  0  0  0  0
   -3.7811   -2.3546    1.5917 H   0  0  0  0  0  0  0  0  0  0  0  0
   -3.5591   -3.0406   -0.0383 H   0  0  0  0  0  0  0  0  0  0  0  0
   -1.7921   -2.2226    0.8327 C   0  0  0  0  0  0  0  0  0  0  0  0
   -0.7611   -2.7766    1.1927 O   0  0  0  0  0  0  0  0  0  0  0  0
   -1.8201   -0.9926    0.3247 N   0  0  0  0  0  0  0  0  0  0  0  0
   -2.7141   -0.5816    0.0927 H   0  0  0  0  0  0  0  0  0  0  0  0
   -0.6481   -0.1156    0.2017 C   0  0  1  0  0  0  0  0  0  0  0  0
   -0.9634    0.8070   -0.2898 H   0  0  0  0  0  0  0  0  0  0  0  0
   -0.1171    0.2424    1.6034 C   0  0  0  0  0  0  0  0  0  0  0  0
    0.0970   -0.6704    2.1613 H   0  0  0  0  0  0  0  0  0  0  0  0
    0.8169    0.7987    1.5132 H   0  0  0  0  0  0  0  0  0  0  0  0
   -1.1032    1.0446    2.4171 C   0  0  0  0  0  0  0  0  0  0  0  0
   -1.4027    2.3958    2.2384 N   0  0  0  0  0  0  0  0  0  0  0  0
   -2.3566    2.6845    3.1356 C   0  0  0  0  0  0  0  0  0  0  0  0
   -2.8016    3.6632    3.2631 H   0  0  0  0  0  0  0  0  0  0  0  0
   -2.6840    1.5890    3.8413 N   0  0  0  0  0  0  0  0  0  0  0  0
   -3.3907    1.5460    4.5628 H   0  0  0  0  0  0  0  0  0  0  0  0
   -1.9059    0.5423    3.3992 C   0  0  0  0  0  0  0  0  0  0  0  0
   -1.9278   -0.4864    3.7365 H   0  0  0  0  0  0  0  0  0  0  0  0
    0.4272   -0.7662   -0.6868 C   0  0  0  0  0  0  0  0  0  0  0  0
    1.6065   -0.7565   -0.3337 O   0  0  0  0  0  0  0  0  0  0  0  0
    0.0269   -1.3365   -1.8275 N   0  0  0  0  0  0  0  0  0  0  0  0
   -0.9433   -1.2055   -2.0912 H   0  0  0  0  0  0  0  0  0  0  0  0
    0.9094   -2.0086   -2.7784 C   0  0  0  0  0  0  0  0  0  0  0  0
    1.7073   -2.5317   -2.2450 H   0  0  0  0  0  0  0  0  0  0  0  0
    0.3404   -2.7300   -3.3664 H   0  0  0  0  0  0  0  0  0  0  0  0
    1.3571   -1.2704   -3.4459 H   0  0  0  0  0  0  0  0  0  0  0  0
  5  6  2  0  0  0  0
  5  7  1  0  0  0  0
  2  3  1  0  0  0  0
  2  4  1  0  0  0  0
  2  5  1  0  0  0  0
  1  2  1  0  0  0  0
 22 23  2  0  0  0  0
 22 24  1  0  0  0  0
 20 21  1  0  0  0  0
 18 19  1  0  0  0  0
 18 20  1  0  0  0  0
 16 17  1  0  0  0  0
 16 18  1  0  0  0  0
 15 16  2  0  0  0  0
 14 15  1  0  0  0  0
 14 20  2  0  0  0  0
 11 12  1  0  0  0  0
 11 13  1  0  0  0  0
 11 14  1  0  0  0  0
  9 10  1  0  0  0  0
  9 11  1  0  0  0  0
  9 22  1  0  0  0  0
  7  8  1  0  0  0  0
  7  9  1  0  0  0  0
 26 27  1  0  0  0  0
 26 28  1  0  0  0  0
 26 29  1  0  0  0  0
 24 25  1  0  0  0  0
 24 26  1  0  0  0  0
M  END
$$$$
default_name
  -OEChem-01062215323D

 29 29  0     1  0  0  0  0  0999 V2000
   -2.9561   -3.9186    1.3887 H   0  0  0  0  0  0  0  0  0  0  0  0
   -3.1191   -2.9346    0.9517 C   0  0  0  0  0  0  0  0  0  0  0  0
   -3.7811   -2.3546    1.5917 H   0  0  0  0  0  0  0  0  0  0  0  0
   -3.5591   -3.0406   -0.0383 H   0  0  0  0  0  0  0  0  0  0  0  0
   -1.7921   -2.2226    0.8327 C   0  0  0  0  0  0  0  0  0  0  0  0
   -0.7611   -2.7766    1.1927 O   0  0  0  0  0  0  0  0  0  0  0  0
   -1.8201   -0.9926    0.3247 N   0  0  0  0  0  0  0  0  0  0  0  0
   -2.7141   -0.5816    0.0927 H   0  0  0  0  0  0  0  0  0  0  0  0
   -0.6481   -0.1156    0.2017 C   0  0  1  0  0  0  0  0  0  0  0  0
   -0.9634    0.8070   -0.2898 H   0  0  0  0  0  0  0  0  0  0  0  0
   -0.1171    0.2424    1.6034 C   0  0  0  0  0  0  0  0  0  0  0  0
    0.0970   -0.6704    2.1613 H   0  0  0  0  0  0  0  0  0  0  0  0
    0.8169    0.7987    1.5132 H   0  0  0  0  0  0  0  0  0  0  0  0
   -1.1032    1.0446    2.4171 C   0  0  0  0  0  0  0  0  0  0  0  0
   -1.4027    2.3958    2.2384 N   0  0  0  0  0  0  0  0  0  0  0  0
   -2.3566    2.6845    3.1356 C   0  0  0  0  0  0  0  0  0  0  0  0
   -2.8016    3.6632    3.2631 H   0  0  0  0  0  0  0  0  0  0  0  0
   -2.6840    1.5890    3.8413 N   0  0  0  0  0  0  0  0  0  0  0  0
   -3.3907    1.5460    4.5628 H   0  0  0  0  0  0  0  0  0  0  0  0
   -1.9059    0.5423    3.3992 C   0  0  0  0  0  0  0  0  0  0  0  0
   -1.9278   -0.4864    3.7365 H   0  0  0  0  0  0  0  0  0  0  0  0
    0.4272   -0.7662   -0.6868 C   0  0  0  0  0  0  0  0  0  0  0  0
    1.5438   -1.0057   -0.2271 O   0  0  0  0  0  0  0  0  0  0  0  0
    0.0949   -1.0599   -1.9478 N   0  0  0  0  0  0  0  0  0  0  0  0
   -0.8076   -0.7324   -2.2735 H   0  0  0  0  0  0  0  0  0  0  0  0
    0.9855   -1.6899   -2.9197 C   0  0  0  0  0  0  0  0  0  0  0  0
    1.6308   -2.4176   -2.4211 H   0  0  0  0  0  0  0  0  0  0  0  0
    0.3983   -2.1989   -3.6853 H   0  0  0  0  0  0  0  0  0  0  0  0
    1.6104   -0.9286   -3.3896 H   0  0  0  0  0  0  0  0  0  0  0  0
  5  6  2  0  0  0  0
  5  7  1  0  0  0  0
  2  3  1  0  0  0  0
  2  4  1  0  0  0  0
  2  5  1  0  0  0  0
  1  2  1  0  0  0  0
 22 23  2  0  0  0  0
 22 24  1  0  0  0  0
 20 21  1  0  0  0  0
 18 19  1  0  0  0  0
 18 20  1  0  0  0  0
 16 17  1  0  0  0  0
 16 18  1  0  0  0  0
 15 16  2  0  0  0  0
 14 15  1  0  0  0  0
 14 20  2  0  0  0  0
 11 12  1  0  0  0  0
 11 13  1  0  0  0  0
 11 14  1  0  0  0  0
  9 10  1  0  0  0  0
  9 11  1  0  0  0  0
  9 22  1  0  0  0  0
  7  8  1  0  0  0  0
  7  9  1  0  0  0  0
 26 27  1  0  0  0  0
 26 28  1  0  0  0  0
 26 29  1  0  0  0  0
 24 25  1  0  0  0  0
 24 26  1  0  0  0  0
M  END
$$$$
default_name
  -OEChem-01062215323D

 29 29  0     1  0  0  0  0  0999 V2000
   -2.9561   -3.9186    1.3887 H   0  0  0  0  0  0  0  0  0  0  0  0
   -3.1191   -2.9346    0.9517 C   0  0  0  0  0  0  0  0  0  0  0  0
   -3.7811   -2.3546    1.5917 H   0  0  0  0  0  0  0  0  0  0  0  0
   -3.5591   -3.0406   -0.0383 H   0  0  0  0  0  0  0  0  0  0  0  0
   -1.7921   -2.2226    0.8327 C   0  0  0  0  0  0  0  0  0  0  0  0
   -0.7611   -2.7766    1.1927 O   0  0  0  0  0  0  0  0  0  0  0  0
   -1.8201   -0.9926    0.3247 N   0  0  0  0  0  0  0  0  0  0  0  0
   -2.7141   -0.5816    0.0927 H   0  0  0  0  0  0  0  0  0  0  0  0
   -0.6481   -0.1156    0.2017 C   0  0  1  0  0  0  0  0  0  0  0  0
   -0.9634    0.8070   -0.2898 H   0  0  0  0  0  0  0  0  0  0  0  0
   -0.1171    0.2424    1.6034 C   0  0  0  0  0  0  0  0  0  0  0  0
    0.0970   -0.6704    2.1613 H   0  0  0  0  0  0  0  0  0  0  0  0
    0.8169    0.7987    1.5132 H   0  0  0  0  0  0  0  0  0  0  0  0
   -1.1032    1.0446    2.4171 C   0  0  0  0  0  0  0  0  0  0  0  0
   -1.4027    2.3958    2.2384 N   0  0  0  0  0  0  0  0  0  0  0  0
   -2.3566    2.6845    3.1356 C   0  0  0  0  0  0  0  0  0  0  0  0
   -2.8016    3.6632    3.2631 H   0  0  0  0  0  0  0  0  0  0  0  0
   -2.6840    1.5890    3.8413 N   0  0  0  0  0  0  0  0  0  0  0  0
   -3.3907    1.5460    4.5628 H   0  0  0  0  0  0  0  0  0  0  0  0
   -1.9059    0.5423    3.3992 C   0  0  0  0  0  0  0  0  0  0  0  0
   -1.9278   -0.4864    3.7365 H   0  0  0  0  0  0  0  0  0  0  0  0
    0.4272   -0.7662   -0.6868 C   0  0  0  0  0  0  0  0  0  0  0  0
    1.4343   -1.2564   -0.1760 O   0  0  0  0  0  0  0  0  0  0  0  0
    0.2151   -0.7811   -2.0065 N   0  0  0  0  0  0  0  0  0  0  0  0
   -0.5860   -0.2627   -2.3492 H   0  0  0  0  0  0  0  0  0  0  0  0
    1.1220   -1.3678   -2.9903 C   0  0  0  0  0  0  0  0  0  0  0  0
    1.5933   -2.2641   -2.5789 H   0  0  0  0  0  0  0  0  0  0  0  0
    0.5684   -1.6369   -3.8909 H   0  0  0  0  0  0  0  0  0  0  0  0
    1.9000   -0.6465   -3.2457 H   0  0  0  0  0  0  0  0  0  0  0  0
  5  6  2  0  0  0  0
  5  7  1  0  0  0  0
  2  3  1  0  0  0  0
  2  4  1  0  0  0  0
  2  5  1  0  0  0  0
  1  2  1  0  0  0  0
 22 23  2  0  0  0  0
 22 24  1  0  0  0  0
 20 21  1  0  0  0  0
 18 19  1  0  0  0  0
 18 20  1  0  0  0  0
 16 17  1  0  0  0  0
 16 18  1  0  0  0  0
 15 16  2  0  0  0  0
 14 15  1  0  0  0  0
 14 20  2  0  0  0  0
 11 12  1  0  0  0  0
 11 13  1  0  0  0  0
 11 14  1  0  0  0  0
  9 10  1  0  0  0  0
  9 11  1  0  0  0  0
  9 22  1  0  0  0  0
  7  8  1  0  0  0  0
  7  9  1  0  0  0  0
 26 27  1  0  0  0  0
 26 28  1  0  0  0  0
 26 29  1  0  0  0  0
 24 25  1  0  0  0  0
 24 26  1  0  0  0  0
M  END
$$$$
default_name
  -OEChem-01062215323D

 29 29  0     1  0  0  0  0  0999 V2000
   -2.9561   -3.9186    1.3887 H   0  0  0  0  0  0  0  0  0  0  0  0
   -3.1191   -2.9346    0.9517 C   0  0  0  0  0  0  0  0  0  0  0  0
   -3.7811   -2.3546    1.5917 H   0  0  0  0  0  0  0  0  0  0  0  0
   -3.5591   -3.0406   -0.0383 H   0  0  0  0  0  0  0  0  0  0  0  0
   -1.7921   -2.2226    0.8327 C   0  0  0  0  0  0  0  0  0  0  0  0
   -0.7611   -2.7766    1.1927 O   0  0  0  0  0  0  0  0  0  0  0  0
   -1.8201   -0.9926    0.3247 N   0  0  0  0  0  0  0  0  0  0  0  0
   -2.7141   -0.5816    0.0927 H   0  0  0  0  0  0  0  0  0  0  0  0
   -0.6481   -0.1156    0.2017 C   0  0  1  0  0  0  0  0  0  0  0  0
   -0.9634    0.8070   -0.2898 H   0  0  0  0  0  0  0  0  0  0  0  0
   -0.1171    0.2424    1.6034 C   0  0  0  0  0  0  0  0  0  0  0  0
    0.0970   -0.6704    2.1613 H   0  0  0  0  0  0  0  0  0  0  0  0
    0.8169    0.7987    1.5132 H   0  0  0  0  0  0  0  0  0  0  0  0
   -1.1032    1.0446    2.4171 C   0  0  0  0  0  0  0  0  0  0  0  0
   -1.4027    2.3958    2.2384 N   0  0  0  0  0  0  0  0  0  0  0  0
   -2.3566    2.6845    3.1356 C   0  0  0  0  0  0  0  0  0  0  0  0
   -2.8016    3.6632    3.2631 H   0  0  0  0  0  0  0  0  0  0  0  0
   -2.6840    1.5890    3.8413 N   0  0  0  0  0  0  0  0  0  0  0  0
   -3.3907    1.5460    4.5628 H   0  0  0  0  0  0  0  0  0  0  0  0
   -1.9059    0.5423    3.3992 C   0  0  0  0  0  0  0  0  0  0  0  0
   -1.9278   -0.4864    3.7365 H   0  0  0  0  0  0  0  0  0  0  0  0
    0.4272   -0.7662   -0.6868 C   0  0  0  0  0  0  0  0  0  0  0  0
    1.2856   -1.4913   -0.1840 O   0  0  0  0  0  0  0  0  0  0  0  0
    0.3792   -0.5192   -1.9996 N   0  0  0  0  0  0  0  0  0  0  0  0
   -0.2934    0.1716   -2.3131 H   0  0  0  0  0  0  0  0  0  0  0  0
    1.3097   -1.0644   -2.9853 C   0  0  0  0  0  0  0  0  0  0  0  0
    1.5972   -2.0817   -2.7077 H   0  0  0  0  0  0  0  0  0  0  0  0
    0.8392   -1.0823   -3.9693 H   0  0  0  0  0  0  0  0  0  0  0  0
    2.2061   -0.4432   -3.0241 H   0  0  0  0  0  0  0  0  0  0  0  0
  5  6  2  0  0  0  0
  5  7  1  0  0  0  0
  2  3  1  0  0  0  0
  2  4  1  0  0  0  0
  2  5  1  0  0  0  0
  1  2  1  0  0  0  0
 22 23  2  0  0  0  0
 22 24  1  0  0  0  0
 20 21  1  0  0  0  0
 18 19  1  0  0  0  0
 18 20  1  0  0  0  0
 16 17  1  0  0  0  0
 16 18  1  0  0  0  0
 15 16  2  0  0  0  0
 14 15  1  0  0  0  0
 14 20  2  0  0  0  0
 11 12  1  0  0  0  0
 11 13  1  0  0  0  0
 11 14  1  0  0  0  0
  9 10  1  0  0  0  0
  9 11  1  0  0  0  0
  9 22  1  0  0  0  0
  7  8  1  0  0  0  0
  7  9  1  0  0  0  0
 26 27  1  0  0  0  0
 26 28  1  0  0  0  0
 26 29  1  0  0  0  0
 24 25  1  0  0  0  0
 24 26  1  0  0  0  0
M  END
$$$$
default_name
  -OEChem-01062215323D

 29 29  0     1  0  0  0  0  0999 V2000
   -2.9561   -3.9186    1.3887 H   0  0  0  0  0  0  0  0  0  0  0  0
   -3.1191   -2.9346    0.9517 C   0  0  0  0  0  0  0  0  0  0  0  0
   -3.7811   -2.3546    1.5917 H   0  0  0  0  0  0  0  0  0  0  0  0
   -3.5591   -3.0406   -0.0383 H   0  0  0  0  0  0  0  0  0  0  0  0
   -1.7921   -2.2226    0.8327 C   0  0  0  0  0  0  0  0  0  0  0  0
   -0.7611   -2.7766    1.1927 O   0  0  0  0  0  0  0  0  0  0  0  0
   -1.8201   -0.9926    0.3247 N   0  0  0  0  0  0  0  0  0  0  0  0
   -2.7141   -0.5816    0.0927 H   0  0  0  0  0  0  0  0  0  0  0  0
   -0.6481   -0.1156    0.2017 C   0  0  1  0  0  0  0  0  0  0  0  0
   -0.9634    0.8070   -0.2898 H   0  0  0  0  0  0  0  0  0  0  0  0
   -0.1171    0.2424    1.6034 C   0  0  0  0  0  0  0  0  0  0  0  0
    0.0970   -0.6704    2.1613 H   0  0  0  0  0  0  0  0  0  0  0  0
    0.8169    0.7987    1.5132 H   0  0  0  0  0  0  0  0  0  0  0  0
   -1.1032    1.0446    2.4171 C   0  0  0  0  0  0  0  0  0  0  0  0
   -1.4027    2.3958    2.2384 N   0  0  0  0  0  0  0  0  0  0  0  0
   -2.3566    2.6845    3.1356 C   0  0  0  0  0  0  0  0  0  0  0  0
   -2.8016    3.6632    3.2631 H   0  0  0  0  0  0  0  0  0  0  0  0
   -2.6840    1.5890    3.8413 N   0  0  0  0  0  0  0  0  0  0  0  0
   -3.3907    1.5460    4.5628 H   0  0  0  0  0  0  0  0  0  0  0  0
   -1.9059    0.5423    3.3992 C   0  0  0  0  0  0  0  0  0  0  0  0
   -1.9278   -0.4864    3.7365 H   0  0  0  0  0  0  0  0  0  0  0  0
    0.4272   -0.7662   -0.6868 C   0  0  0  0  0  0  0  0  0  0  0  0
    1.1076   -1.6947   -0.2505 O   0  0  0  0  0  0  0  0  0  0  0  0
    0.5761   -0.2920   -1.9277 N   0  0  0  0  0  0  0  0  0  0  0  0
    0.0501    0.5408   -2.1677 H   0  0  0  0  0  0  0  0  0  0  0  0
    1.5358   -0.8002   -2.9050 C   0  0  0  0  0  0  0  0  0  0  0  0
    1.6424   -1.8829   -2.7987 H   0  0  0  0  0  0  0  0  0  0  0  0
    1.1922   -0.5729   -3.9151 H   0  0  0  0  0  0  0  0  0  0  0  0
    2.5079   -0.3327   -2.7397 H   0  0  0  0  0  0  0  0  0  0  0  0
  5  6  2  0  0  0  0
  5  7  1  0  0  0  0
  2  3  1  0  0  0  0
  2  4  1  0  0  0  0
  2  5  1  0  0  0  0
  1  2  1  0  0  0  0
 22 23  2  0  0  0  0
 22 24  1  0  0  0  0
 20 21  1  0  0  0  0
 18 19  1  0  0  0  0
 18 20  1  0  0  0  0
 16 17  1  0  0  0  0
 16 18  1  0  0  0  0
 15 16  2  0  0  0  0
 14 15  1  0  0  0  0
 14 20  2  0  0  0  0
 11 12  1  0  0  0  0
 11 13  1  0  0  0  0
 11 14  1  0  0  0  0
  9 10  1  0  0  0  0
  9 11  1  0  0  0  0
  9 22  1  0  0  0  0
  7  8  1  0  0  0  0
  7  9  1  0  0  0  0
 26 27  1  0  0  0  0
 26 28  1  0  0  0  0
 26 29  1  0  0  0  0
 24 25  1  0  0  0  0
 24 26  1  0  0  0  0
M  END
$$$$
default_name
  -OEChem-01062215323D

 29 29  0     1  0  0  0  0  0999 V2000
   -2.9561   -3.9186    1.3887 H   0  0  0  0  0  0  0  0  0  0  0  0
   -3.1191   -2.9346    0.9517 C   0  0  0  0  0  0  0  0  0  0  0  0
   -3.7811   -2.3546    1.5917 H   0  0  0  0  0  0  0  0  0  0  0  0
   -3.5591   -3.0406   -0.0383 H   0  0  0  0  0  0  0  0  0  0  0  0
   -1.7921   -2.2226    0.8327 C   0  0  0  0  0  0  0  0  0  0  0  0
   -0.7611   -2.7766    1.1927 O   0  0  0  0  0  0  0  0  0  0  0  0
   -1.8201   -0.9926    0.3247 N   0  0  0  0  0  0  0  0  0  0  0  0
   -2.7141   -0.5816    0.0927 H   0  0  0  0  0  0  0  0  0  0  0  0
   -0.6481   -0.1156    0.2017 C   0  0  1  0  0  0  0  0  0  0  0  0
   -0.9634    0.8070   -0.2898 H   0  0  0  0  0  0  0  0  0  0  0  0
   -0.1171    0.2424    1.6034 C   0  0  0  0  0  0  0  0  0  0  0  0
    0.0970   -0.6704    2.1613 H   0  0  0  0  0  0  0  0  0  0  0  0
    0.8169    0.7987    1.5132 H   0  0  0  0  0  0  0  0  0  0  0  0
   -1.1032    1.0446    2.4171 C   0  0  0  0  0  0  0  0  0  0  0  0
   -1.4027    2.3958    2.2384 N   0  0  0  0  0  0  0  0  0  0  0  0
   -2.3566    2.6845    3.1356 C   0  0  0  0  0  0  0  0  0  0  0  0
   -2.8016    3.6632    3.2631 H   0  0  0  0  0  0  0  0  0  0  0  0
   -2.6840    1.5890    3.8413 N   0  0  0  0  0  0  0  0  0  0  0  0
   -3.3907    1.5460    4.5628 H   0  0  0  0  0  0  0  0  0  0  0  0
   -1.9059    0.5423    3.3992 C   0  0  0  0  0  0  0  0  0  0  0  0
   -1.9278   -0.4864    3.7365 H   0  0  0  0  0  0  0  0  0  0  0  0
    0.4272   -0.7662   -0.6868 C   0  0  0  0  0  0  0  0  0  0  0  0
    0.9127   -1.8524   -0.3709 O   0  0  0  0  0  0  0  0  0  0  0  0
    0.7924   -0.1149   -1.7955 N   0  0  0  0  0  0  0  0  0  0  0  0
    0.4211    0.8199   -1.9229 H   0  0  0  0  0  0  0  0  0  0  0  0
    1.7849   -0.5934   -2.7550 C   0  0  0  0  0  0  0  0  0  0  0  0
    1.7257   -1.6810   -2.8457 H   0  0  0  0  0  0  0  0  0  0  0  0
    1.6033   -0.1433   -3.7320 H   0  0  0  0  0  0  0  0  0  0  0  0
    2.7848   -0.3224   -2.4121 H   0  0  0  0  0  0  0  0  0  0  0  0
  5  6  2  0  0  0  0
  5  7  1  0  0  0  0
  2  3  1  0  0  0  0
  2  4  1  0  0  0  0
  2  5  1  0  0  0  0
  1  2  1  0  0  0  0
 22 23  2  0  0  0  0
 22 24  1  0  0  0  0
 20 21  1  0  0  0  0
 18 19  1  0  0  0  0
 18 20  1  0  0  0  0
 16 17  1  0  0  0  0
 16 18  1  0  0  0  0
 15 16  2  0  0  0  0
 14 15  1  0  0  0  0
 14 20  2  0  0  0  0
 11 12  1  0  0  0  0
 11 13  1  0  0  0  0
 11 14  1  0  0  0  0
  9 10  1  0  0  0  0
  9 11  1  0  0  0  0
  9 22  1  0  0  0  0
  7  8  1  0  0  0  0
  7  9  1  0  0  0  0
 26 27  1  0  0  0  0
 26 28  1  0  0  0  0
 26 29  1  0  0  0  0
 24 25  1  0  0  0  0
 24 26  1  0  0  0  0
M  END
$$$$
default_name
  -OEChem-01062215323D

 29 29  0     1  0  0  0  0  0999 V2000
   -2.9561   -3.9186    1.3887 H   0  0  0  0  0  0  0  0  0  0  0  0
   -3.1191   -2.9346    0.9517 C   0  0  0  0  0  0  0  0  0  0  0  0
   -3.7811   -2.3546    1.5917 H   0  0  0  0  0  0  0  0  0  0  0  0
   -3.5591   -3.0406   -0.0383 H   0  0  0  0  0  0  0  0  0  0  0  0
   -1.7921   -2.2226    0.8327 C   0  0  0  0  0  0  0  0  0  0  0  0
   -0.7611   -2.7766    1.1927 O   0  0  0  0  0  0  0  0  0  0  0  0
   -1.8201   -0.9926    0.3247 N   0  0  0  0  0  0  0  0  0  0  0  0
   -2.7141   -0.5816    0.0927 H   0  0  0  0  0  0  0  0  0  0  0  0
   -0.6481   -0.1156    0.2017 C   0  0  1  0  0  0  0  0  0  0  0  0
   -0.9634    0.8070   -0.2898 H   0  0  0  0  0  0  0  0  0  0  0  0
   -0.1171    0.2424    1.6034 C   0  0  0  0  0  0  0  0  0  0  0  0
    0.0970   -0.6704    2.1613 H   0  0  0  0  0  0  0  0  0  0  0  0
    0.8169    0.7987    1.5132 H   0  0  0  0  0  0  0  0  0  0  0  0
   -1.1032    1.0446    2.4171 C   0  0  0  0  0  0  0  0  0  0  0  0
   -1.4027    2.3958    2.2384 N   0  0  0  0  0  0  0  0  0  0  0  0
   -2.3566    2.6845    3.1356 C   0  0  0  0  0  0  0  0  0  0  0  0
   -2.8016    3.6632    3.2631 H   0  0  0  0  0  0  0  0  0  0  0  0
   -2.6840    1.5890    3.8413 N   0  0  0  0  0  0  0  0  0  0  0  0
   -3.3907    1.5460    4.5628 H   0  0  0  0  0  0  0  0  0  0  0  0
   -1.9059    0.5423    3.3992 C   0  0  0  0  0  0  0  0  0  0  0  0
   -1.9278   -0.4864    3.7365 H   0  0  0  0  0  0  0  0  0  0  0  0
    0.4272   -0.7662   -0.6868 C   0  0  0  0  0  0  0  0  0  0  0  0
    0.7140   -1.9539   -0.5371 O   0  0  0  0  0  0  0  0  0  0  0  0
    1.0133   -0.0001   -1.6122 N   0  0  0  0  0  0  0  0  0  0  0  0
    0.7944    0.9897   -1.5955 H   0  0  0  0  0  0  0  0  0  0  0  0
    2.0400   -0.4579   -2.5455 C   0  0  0  0  0  0  0  0  0  0  0  0
    1.8414   -1.4900   -2.8455 H   0  0  0  0  0  0  0  0  0  0  0  0
    2.0446    0.1771   -3.4325 H   0  0  0  0  0  0  0  0  0  0  0  0
    3.0180   -0.4132   -2.0634 H   0  0  0  0  0  0  0  0  0  0  0  0
  5  6  2  0  0  0  0
  5  7  1  0  0  0  0
  2  3  1  0  0  0  0
  2  4  1  0  0  0  0
  2  5  1  0  0  0  0
  1  2  1  0  0  0  0
 22 23  2  0  0  0  0
 22 24  1  0  0  0  0
 20 21  1  0  0  0  0
 18 19  1  0  0  0  0
 18 20  1  0  0  0  0
 16 17  1  0  0  0  0
 16 18  1  0  0  0  0
 15 16  2  0  0  0  0
 14 15  1  0  0  0  0
 14 20  2  0  0  0  0
 11 12  1  0  0  0  0
 11 13  1  0  0  0  0
 11 14  1  0  0  0  0
  9 10  1  0  0  0  0
  9 11  1  0  0  0  0
  9 22  1  0  0  0  0
  7  8  1  0  0  0  0
  7  9  1  0  0  0  0
 26 27  1  0  0  0  0
 26 28  1  0  0  0  0
 26 29  1  0  0  0  0
 24 25  1  0  0  0  0
 24 26  1  0  0  0  0
M  END
$$$$
default_name
  -OEChem-01062215323D

 29 29  0     1  0  0  0  0  0999 V2000
   -2.9561   -3.9186    1.3887 H   0  0  0  0  0  0  0  0  0  0  0  0
   -3.1191   -2.9346    0.9517 C   0  0  0  0  0  0  0  0  0  0  0  0
   -3.7811   -2.3546    1.5917 H   0  0  0  0  0  0  0  0  0  0  0  0
   -3.5591   -3.0406   -0.0383 H   0  0  0  0  0  0  0  0  0  0  0  0
   -1.7921   -2.2226    0.8327 C   0  0  0  0  0  0  0  0  0  0  0  0
   -0.7611   -2.7766    1.1927 O   0  0  0  0  0  0  0  0  0  0  0  0
   -1.8201   -0.9926    0.3247 N   0  0  0  0  0  0  0  0  0  0  0  0
   -2.7141   -0.5816    0.0927 H   0  0  0  0  0  0  0  0  0  0  0  0
   -0.6481   -0.1156    0.2017 C   0  0  1  0  0  0  0  0  0  0  0  0
   -0.9634    0.8070   -0.2898 H   0  0  0  0  0  0  0  0  0  0  0  0
   -0.1171    0.2424    1.6034 C   0  0  0  0  0  0  0  0  0  0  0  0
    0.0970   -0.6704    2.1613 H   0  0  0  0  0  0  0  0  0  0  0  0
    0.8169    0.7987    1.5132 H   0  0  0  0  0  0  0  0  0  0  0  0
   -1.1032    1.0446    2.4171 C   0  0  0  0  0  0  0  0  0  0  0  0
   -1.4027    2.3958    2.2384 N   0  0  0  0  0  0  0  0  0  0  0  0
   -2.3566    2.6845    3.1356 C   0  0  0  0  0  0  0  0  0  0  0  0
   -2.8016    3.6632    3.2631 H   0  0  0  0  0  0  0  0  0  0  0  0
   -2.6840    1.5890    3.8413 N   0  0  0  0  0  0  0  0  0  0  0  0
   -3.3907    1.5460    4.5628 H   0  0  0  0  0  0  0  0  0  0  0  0
   -1.9059    0.5423    3.3992 C   0  0  0  0  0  0  0  0  0  0  0  0
   -1.9278   -0.4864    3.7365 H   0  0  0  0  0  0  0  0  0  0  0  0
    0.4272   -0.7662   -0.6868 C   0  0  0  0  0  0  0  0  0  0  0  0
    0.5250   -1.9922   -0.7377 O   0  0  0  0  0  0  0  0  0  0  0  0
    1.2238    0.0446   -1.3902 N   0  0  0  0  0  0  0  0  0  0  0  0
    1.1446    1.0388   -1.2076 H   0  0  0  0  0  0  0  0  0  0  0  0
    2.2837   -0.4031   -2.2906 C   0  0  0  0  0  0  0  0  0  0  0  0
    1.9817   -1.3229   -2.7980 H   0  0  0  0  0  0  0  0  0  0  0  0
    2.4859    0.3664   -3.0370 H   0  0  0  0  0  0  0  0  0  0  0  0
    3.1915   -0.5987   -1.7175 H   0  0  0  0  0  0  0  0  0  0  0  0
  5  6  2  0  0  0  0
  5  7  1  0  0  0  0
  2  3  1  0  0  0  0
  2  4  1  0  0  0  0
  2  5  1  0  0  0  0
  1  2  1  0  0  0  0
 22 23  2  0  0  0  0
 22 24  1  0  0  0  0
 20 21  1  0  0  0  0
 18 19  1  0  0  0  0
 18 20  1  0  0  0  0
 16 17  1  0  0  0  0
 16 18  1  0  0  0  0
 15 16  2  0  0  0  0
 14 15  1  0  0  0  0
 14 20  2  0  0  0  0
 11 12  1  0  0  0  0
 11 13  1  0  0  0  0
 11 14  1  0  0  0  0
  9 10  1  0  0  0  0
  9 11  1  0  0  0  0
  9 22  1  0  0  0  0
  7  8  1  0  0  0  0
  7  9  1  0  0  0  0
 26 27  1  0  0  0  0
 26 28  1  0  0  0  0
 26 29  1  0  0  0  0
 24 25  1  0  0  0  0
 24 26  1  0  0  0  0
M  END
$$$$
default_name
  -OEChem-01062215323D

 29 29  0     1  0  0  0  0  0999 V2000
   -2.9561   -3.9186    1.3887 H   0  0  0  0  0  0  0  0  0  0  0  0
   -3.1191   -2.9346    0.9517 C   0  0  0  0  0  0  0  0  0  0  0  0
   -3.7811   -2.3546    1.5917 H   0  0  0  0  0  0  0  0  0  0  0  0
   -3.5591   -3.0406   -0.0383 H   0  0  0  0  0  0  0  0  0  0  0  0
   -1.7921   -2.2226    0.8327 C   0  0  0  0  0  0  0  0  0  0  0  0
   -0.7611   -2.7766    1.1927 O   0  0  0  0  0  0  0  0  0  0  0  0
   -1.8201   -0.9926    0.3247 N   0  0  0  0  0  0  0  0  0  0  0  0
   -2.7141   -0.5816    0.0927 H   0  0  0  0  0  0  0  0  0  0  0  0
   -0.6481   -0.1156    0.2017 C   0  0  1  0  0  0  0  0  0  0  0  0
   -0.9634    0.8070   -0.2898 H   0  0  0  0  0  0  0  0  0  0  0  0
   -0.1171    0.2424    1.6034 C   0  0  0  0  0  0  0  0  0  0  0  0
    0.0970   -0.6704    2.1613 H   0  0  0  0  0  0  0  0  0  0  0  0
    0.8169    0.7987    1.5132 H   0  0  0  0  0  0  0  0  0  0  0  0
   -1.1032    1.0446    2.4171 C   0  0  0  0  0  0  0  0  0  0  0  0
   -1.4027    2.3958    2.2384 N   0  0  0  0  0  0  0  0  0  0  0  0
   -2.3566    2.6845    3.1356 C   0  0  0  0  0  0  0  0  0  0  0  0
   -2.8016    3.6632    3.2631 H   0  0  0  0  0  0  0  0  0  0  0  0
   -2.6840    1.5890    3.8413 N   0  0  0  0  0  0  0  0  0  0  0  0
   -3.3907    1.5460    4.5628 H   0  0  0  0  0  0  0  0  0  0  0  0
   -1.9059    0.5423    3.3992 C   0  0  0  0  0  0  0  0  0  0  0  0
   -1.9278   -0.4864    3.7365 H   0  0  0  0  0  0  0  0  0  0  0  0
    0.4272   -0.7662   -0.6868 C   0  0  0  0  0  0  0  0  0  0  0  0
    0.3588   -1.9647   -0.9591 O   0  0  0  0  0  0  0  0  0  0  0  0
    1.4095    0.0163   -1.1447 N   0  0  0  0  0  0  0  0  0  0  0  0
    1.4477    0.9637   -0.7857 H   0  0  0  0  0  0  0  0  0  0  0  0
    2.4994   -0.4326   -2.0079 C   0  0  0  0  0  0  0  0  0  0  0  0
    2.1370   -1.1910   -2.7067 H   0  0  0  0  0  0  0  0  0  0  0  0
    2.8972    0.4119   -2.5725 H   0  0  0  0  0  0  0  0  0  0  0  0
    3.2935   -0.8663   -1.3980 H   0  0  0  0  0  0  0  0  0  0  0  0
  5  6  2  0  0  0  0
  5  7  1  0  0  0  0
  2  3  1  0  0  0  0
  2  4  1  0  0  0  0
  2  5  1  0  0  0  0
  1  2  1  0  0  0  0
 22 23  2  0  0  0  0
 22 24  1  0  0  0  0
 20 21  1  0  0  0  0
 18 19  1  0  0  0  0
 18 20  1  0  0  0  0
 16 17  1  0  0  0  0
 16 18  1  0  0  0  0
 15 16  2  0  0  0  0
 14 15  1  0  0  0  0
 14 20  2  0  0  0  0
 11 12  1  0  0  0  0
 11 13  1  0  0  0  0
 11 14  1  0  0  0  0
  9 10  1  0  0  0  0
  9 11  1  0  0  0  0
  9 22  1  0  0  0  0
  7  8  1  0  0  0  0
  7  9  1  0  0  0  0
 26 27  1  0  0  0  0
 26 28  1  0  0  0  0
 26 29  1  0  0  0  0
 24 25  1  0  0  0  0
 24 26  1  0  0  0  0
M  END
$$$$
default_name
  -OEChem-01062215323D

 29 29  0     1  0  0  0  0  0999 V2000
   -2.9561   -3.9186    1.3887 H   0  0  0  0  0  0  0  0  0  0  0  0
   -3.1191   -2.9346    0.9517 C   0  0  0  0  0  0  0  0  0  0  0  0
   -3.7811   -2.3546    1.5917 H   0  0  0  0  0  0  0  0  0  0  0  0
   -3.5591   -3.0406   -0.0383 H   0  0  0  0  0  0  0  0  0  0  0  0
   -1.7921   -2.2226    0.8327 C   0  0  0  0  0  0  0  0  0  0  0  0
   -0.7611   -2.7766    1.1927 O   0  0  0  0  0  0  0  0  0  0  0  0
   -1.8201   -0.9926    0.3247 N   0  0  0  0  0  0  0  0  0  0  0  0
   -2.7141   -0.5816    0.0927 H   0  0  0  0  0  0  0  0  0  0  0  0
   -0.6481   -0.1156    0.2017 C   0  0  1  0  0  0  0  0  0  0  0  0
   -0.9993    0.8908   -0.0348 H   0  0  0  0  0  0  0  0  0  0  0  0
    0.1033   -0.0602    1.5460 C   0  0  0  0  0  0  0  0  0  0  0  0
    0.3651   -1.0703    1.8645 H   0  0  0  0  0  0  0  0  0  0  0  0
    1.0331    0.4976    1.4264 H   0  0  0  0  0  0  0  0  0  0  0  0
   -0.7163    0.5604    2.6511 C   0  0  0  0  0  0  0  0  0  0  0  0
   -0.9881    1.9208    2.8021 N   0  0  0  0  0  0  0  0  0  0  0  0
   -1.7827    2.0215    3.8776 C   0  0  0  0  0  0  0  0  0  0  0  0
   -2.1656    2.9547    4.2711 H   0  0  0  0  0  0  0  0  0  0  0  0
   -2.0401    0.8049    4.3865 N   0  0  0  0  0  0  0  0  0  0  0  0
   -2.6298    0.6165    5.1856 H   0  0  0  0  0  0  0  0  0  0  0  0
   -1.3786   -0.1310    3.6230 C   0  0  0  0  0  0  0  0  0  0  0  0
   -1.3879   -1.2072    3.7416 H   0  0  0  0  0  0  0  0  0  0  0  0
    0.2540   -0.5728   -0.9585 C   0  0  0  0  0  0  0  0  0  0  0  0
   -0.0622   -1.5505   -1.6363 O   0  0  0  0  0  0  0  0  0  0  0  0
    1.3651    0.1318   -1.1946 N   0  0  0  0  0  0  0  0  0  0  0  0
    1.6025    0.8542   -0.5240 H   0  0  0  0  0  0  0  0  0  0  0  0
    2.3230   -0.1537   -2.2602 C   0  0  0  0  0  0  0  0  0  0  0  0
    1.7997   -0.5190   -3.1475 H   0  0  0  0  0  0  0  0  0  0  0  0
    2.8725    0.7529   -2.5177 H   0  0  0  0  0  0  0  0  0  0  0  0
    3.0248   -0.9192   -1.9250 H   0  0  0  0  0  0  0  0  0  0  0  0
  5  6  2  0  0  0  0
  5  7  1  0  0  0  0
  2  3  1  0  0  0  0
  2  4  1  0  0  0  0
  2  5  1  0  0  0  0
  1  2  1  0  0  0  0
 22 23  2  0  0  0  0
 22 24  1  0  0  0  0
 20 21  1  0  0  0  0
 18 19  1  0  0  0  0
 18 20  1  0  0  0  0
 16 17  1  0  0  0  0
 16 18  1  0  0  0  0
 15 16  2  0  0  0  0
 14 15  1  0  0  0  0
 14 20  2  0  0  0  0
 11 12  1  0  0  0  0
 11 13  1  0  0  0  0
 11 14  1  0  0  0  0
  9 10  1  0  0  0  0
  9 11  1  0  0  0  0
  9 22  1  0  0  0  0
  7  8  1  0  0  0  0
  7  9  1  0  0  0  0
 26 27  1  0  0  0  0
 26 28  1  0  0  0  0
 26 29  1  0  0  0  0
 24 25  1  0  0  0  0
 24 26  1  0  0  0  0
M  END
$$$$
default_name
  -OEChem-01062215323D

 29 29  0     1  0  0  0  0  0999 V2000
   -2.9561   -3.9186    1.3887 H   0  0  0  0  0  0  0  0  0  0  0  0
   -3.1191   -2.9346    0.9517 C   0  0  0  0  0  0  0  0  0  0  0  0
   -3.7811   -2.3546    1.5917 H   0  0  0  0  0  0  0  0  0  0  0  0
   -3.5591   -3.0406   -0.0383 H   0  0  0  0  0  0  0  0  0  0  0  0
   -1.7921   -2.2226    0.8327 C   0  0  0  0  0  0  0  0  0  0  0  0
   -0.7611   -2.7766    1.1927 O   0  0  0  0  0  0  0  0  0  0  0  0
   -1.8201   -0.9926    0.3247 N   0  0  0  0  0  0  0  0  0  0  0  0
   -2.7141   -0.5816    0.0927 H   0  0  0  0  0  0  0  0  0  0  0  0
   -0.6481   -0.1156    0.2017 C   0  0  1  0  0  0  0  0  0  0  0  0
   -0.9993    0.8908   -0.0348 H   0  0  0  0  0  0  0  0  0  0  0  0
    0.1033   -0.0602    1.5460 C   0  0  0  0  0  0  0  0  0  0  0  0
    0.3651   -1.0703    1.8645 H   0  0  0  0  0  0  0  0  0  0  0  0
    1.0331    0.4976    1.4264 H   0  0  0  0  0  0  0  0  0  0  0  0
   -0.7163    0.5604    2.6511 C   0  0  0  0  0  0  0  0  0  0  0  0
   -0.9881    1.9208    2.8021 N   0  0  0  0  0  0  0  0  0  0  0  0
   -1.7827    2.0215    3.8776 C   0  0  0  0  0  0  0  0  0  0  0  0
   -2.1656    2.9547    4.2711 H   0  0  0  0  0  0  0  0  0  0  0  0
   -2.0401    0.8049    4.3865 N   0  0  0  0  0  0  0  0  0  0  0  0
   -2.6298    0.6165    5.1856 H   0  0  0  0  0  0  0  0  0  0  0  0
   -1.3786   -0.1310    3.6230 C   0  0  0  0  0  0  0  0  0  0  0  0
   -1.3879   -1.2072    3.7416 H   0  0  0  0  0  0  0  0  0  0  0  0
    0.2540   -0.5728   -0.9585 C   0  0  0  0  0  0  0  0  0  0  0  0
   -0.1778   -1.3590   -1.8017 O   0  0  0  0  0  0  0  0  0  0  0  0
    1.4953   -0.0795   -1.0102 N   0  0  0  0  0  0  0  0  0  0  0  0
    1.8023    0.4762   -0.2196 H   0  0  0  0  0  0  0  0  0  0  0  0
    2.4757   -0.3952   -2.0463 C   0  0  0  0  0  0  0  0  0  0  0  0
    1.9766   -0.5160   -3.0112 H   0  0  0  0  0  0  0  0  0  0  0  0
    3.2080    0.4099   -2.1217 H   0  0  0  0  0  0  0  0  0  0  0  0
    2.9862   -1.3262   -1.7947 H   0  0  0  0  0  0  0  0  0  0  0  0
  5  6  2  0  0  0  0
  5  7  1  0  0  0  0
  2  3  1  0  0  0  0
  2  4  1  0  0  0  0
  2  5  1  0  0  0  0
  1  2  1  0  0  0  0
 22 23  2  0  0  0  0
 22 24  1  0  0  0  0
 20 21  1  0  0  0  0
 18 19  1  0  0  0  0
 18 20  1  0  0  0  0
 16 17  1  0  0  0  0
 16 18  1  0  0  0  0
 15 16  2  0  0  0  0
 14 15  1  0  0  0  0
 14 20  2  0  0  0  0
 11 12  1  0  0  0  0
 11 13  1  0  0  0  0
 11 14  1  0  0  0  0
  9 10  1  0  0  0  0
  9 11  1  0  0  0  0
  9 22  1  0  0  0  0
  7  8  1  0  0  0  0
  7  9  1  0  0  0  0
 26 27  1  0  0  0  0
 26 28  1  0  0  0  0
 26 29  1  0  0  0  0
 24 25  1  0  0  0  0
 24 26  1  0  0  0  0
M  END
$$$$
default_name
  -OEChem-01062215323D

 29 29  0     1  0  0  0  0  0999 V2000
   -2.9561   -3.9186    1.3887 H   0  0  0  0  0  0  0  0  0  0  0  0
   -3.1191   -2.9346    0.9517 C   0  0  0  0  0  0  0  0  0  0  0  0
   -3.7811   -2.3546    1.5917 H   0  0  0  0  0  0  0  0  0  0  0  0
   -3.5591   -3.0406   -0.0383 H   0  0  0  0  0  0  0  0  0  0  0  0
   -1.7921   -2.2226    0.8327 C   0  0  0  0  0  0  0  0  0  0  0  0
   -0.7611   -2.7766    1.1927 O   0  0  0  0  0  0  0  0  0  0  0  0
   -1.8201   -0.9926    0.3247 N   0  0  0  0  0  0  0  0  0  0  0  0
   -2.7141   -0.5816    0.0927 H   0  0  0  0  0  0  0  0  0  0  0  0
   -0.6481   -0.1156    0.2017 C   0  0  1  0  0  0  0  0  0  0  0  0
   -0.9993    0.8908   -0.0348 H   0  0  0  0  0  0  0  0  0  0  0  0
    0.1033   -0.0602    1.5460 C   0  0  0  0  0  0  0  0  0  0  0  0
    0.3651   -1.0703    1.8645 H   0  0  0  0  0  0  0  0  0  0  0  0
    1.0331    0.4976    1.4264 H   0  0  0  0  0  0  0  0  0  0  0  0
   -0.7163    0.5604    2.6511 C   0  0  0  0  0  0  0  0  0  0  0  0
   -0.9881    1.9208    2.8021 N   0  0  0  0  0  0  0  0  0  0  0  0
   -1.7827    2.0215    3.8776 C   0  0  0  0  0  0  0  0  0  0  0  0
   -2.1656    2.9547    4.2711 H   0  0  0  0  0  0  0  0  0  0  0  0
   -2.0401    0.8049    4.3865 N   0  0  0  0  0  0  0  0  0  0  0  0
   -2.6298    0.6165    5.1856 H   0  0  0  0  0  0  0  0  0  0  0  0
   -1.3786   -0.1310    3.6230 C   0  0  0  0  0  0  0  0  0  0  0  0
   -1.3879   -1.2072    3.7416 H   0  0  0  0  0  0  0  0  0  0  0  0
    0.2540   -0.5728   -0.9585 C   0  0  0  0  0  0  0  0  0  0  0  0
   -0.2394   -1.1263   -1.9412 O   0  0  0  0  0  0  0  0  0  0  0  0
    1.5656   -0.3369   -0.8540 N   0  0  0  0  0  0  0  0  0  0  0  0
    1.8982    0.0259    0.0324 H   0  0  0  0  0  0  0  0  0  0  0  0
    2.5596   -0.6906   -1.8647 C   0  0  0  0  0  0  0  0  0  0  0  0
    2.1375   -0.5684   -2.8655 H   0  0  0  0  0  0  0  0  0  0  0  0
    3.4348   -0.0469   -1.7653 H   0  0  0  0  0  0  0  0  0  0  0  0
    2.8594   -1.7316   -1.7335 H   0  0  0  0  0  0  0  0  0  0  0  0
  5  6  2  0  0  0  0
  5  7  1  0  0  0  0
  2  3  1  0  0  0  0
  2  4  1  0  0  0  0
  2  5  1  0  0  0  0
  1  2  1  0  0  0  0
 22 23  2  0  0  0  0
 22 24  1  0  0  0  0
 20 21  1  0  0  0  0
 18 19  1  0  0  0  0
 18 20  1  0  0  0  0
 16 17  1  0  0  0  0
 16 18  1  0  0  0  0
 15 16  2  0  0  0  0
 14 15  1  0  0  0  0
 14 20  2  0  0  0  0
 11 12  1  0  0  0  0
 11 13  1  0  0  0  0
 11 14  1  0  0  0  0
  9 10  1  0  0  0  0
  9 11  1  0  0  0  0
  9 22  1  0  0  0  0
  7  8  1  0  0  0  0
  7  9  1  0  0  0  0
 26 27  1  0  0  0  0
 26 28  1  0  0  0  0
 26 29  1  0  0  0  0
 24 25  1  0  0  0  0
 24 26  1  0  0  0  0
M  END
$$$$
default_name
  -OEChem-01062215323D

 29 29  0     1  0  0  0  0  0999 V2000
   -2.9561   -3.9186    1.3887 H   0  0  0  0  0  0  0  0  0  0  0  0
   -3.1191   -2.9346    0.9517 C   0  0  0  0  0  0  0  0  0  0  0  0
   -3.7811   -2.3546    1.5917 H   0  0  0  0  0  0  0  0  0  0  0  0
   -3.5591   -3.0406   -0.0383 H   0  0  0  0  0  0  0  0  0  0  0  0
   -1.7921   -2.2226    0.8327 C   0  0  0  0  0  0  0  0  0  0  0  0
   -0.7611   -2.7766    1.1927 O   0  0  0  0  0  0  0  0  0  0  0  0
   -1.8201   -0.9926    0.3247 N   0  0  0  0  0  0  0  0  0  0  0  0
   -2.7141   -0.5816    0.0927 H   0  0  0  0  0  0  0  0  0  0  0  0
   -0.6481   -0.1156    0.2017 C   0  0  1  0  0  0  0  0  0  0  0  0
   -0.9993    0.8908   -0.0348 H   0  0  0  0  0  0  0  0  0  0  0  0
    0.1033   -0.0602    1.5460 C   0  0  0  0  0  0  0  0  0  0  0  0
    0.3651   -1.0703    1.8645 H   0  0  0  0  0  0  0  0  0  0  0  0
    1.0331    0.4976    1.4264 H   0  0  0  0  0  0  0  0  0  0  0  0
   -0.7163    0.5604    2.6511 C   0  0  0  0  0  0  0  0  0  0  0  0
   -0.9881    1.9208    2.8021 N   0  0  0  0  0  0  0  0  0  0  0  0
   -1.7827    2.0215    3.8776 C   0  0  0  0  0  0  0  0  0  0  0  0
   -2.1656    2.9547    4.2711 H   0  0  0  0  0  0  0  0  0  0  0  0
   -2.0401    0.8049    4.3865 N   0  0  0  0  0  0  0  0  0  0  0  0
   -2.6298    0.6165    5.1856 H   0  0  0  0  0  0  0  0  0  0  0  0
   -1.3786   -0.1310    3.6230 C   0  0  0  0  0  0  0  0  0  0  0  0
   -1.3879   -1.2072    3.7416 H   0  0  0  0  0  0  0  0  0  0  0  0
    0.2540   -0.5728   -0.9585 C   0  0  0  0  0  0  0  0  0  0  0  0
   -0.2427   -0.8683   -2.0455 O   0  0  0  0  0  0  0  0  0  0  0  0
    1.5712   -0.6230   -0.7369 N   0  0  0  0  0  0  0  0  0  0  0  0
    1.8835   -0.4660    0.2148 H   0  0  0  0  0  0  0  0  0  0  0  0
    2.5691   -1.0199   -1.7275 C   0  0  0  0  0  0  0  0  0  0  0  0
    2.2715   -0.6724   -2.7202 H   0  0  0  0  0  0  0  0  0  0  0  0
    3.5373   -0.5864   -1.4730 H   0  0  0  0  0  0  0  0  0  0  0  0
    2.6532   -2.1077   -1.7457 H   0  0  0  0  0  0  0  0  0  0  0  0
  5  6  2  0  0  0  0
  5  7  1  0  0  0  0
  2  3  1  0  0  0  0
  2  4  1  0  0  0  0
  2  5  1  0  0  0  0
  1  2  1  0  0  0  0
 22 23  2  0  0  0  0
 22 24  1  0  0  0  0
 20 21  1  0  0  0  0
 18 19  1  0  0  0  0
 18 20  1  0  0  0  0
 16 17  1  0  0  0  0
 16 18  1  0  0  0  0
 15 16  2  0  0  0  0
 14 15  1  0  0  0  0
 14 20  2  0  0  0  0
 11 12  1  0  0  0  0
 11 13  1  0  0  0  0
 11 14  1  0  0  0  0
  9 10  1  0  0  0  0
  9 11  1  0  0  0  0
  9 22  1  0  0  0  0
  7  8  1  0  0  0  0
  7  9  1  0  0  0  0
 26 27  1  0  0  0  0
 26 28  1  0  0  0  0
 26 29  1  0  0  0  0
 24 25  1  0  0  0  0
 24 26  1  0  0  0  0
M  END
$$$$
default_name
  -OEChem-01062215323D

 29 29  0     1  0  0  0  0  0999 V2000
   -2.9561   -3.9186    1.3887 H   0  0  0  0  0  0  0  0  0  0  0  0
   -3.1191   -2.9346    0.9517 C   0  0  0  0  0  0  0  0  0  0  0  0
   -3.7811   -2.3546    1.5917 H   0  0  0  0  0  0  0  0  0  0  0  0
   -3.5591   -3.0406   -0.0383 H   0  0  0  0  0  0  0  0  0  0  0  0
   -1.7921   -2.2226    0.8327 C   0  0  0  0  0  0  0  0  0  0  0  0
   -0.7611   -2.7766    1.1927 O   0  0  0  0  0  0  0  0  0  0  0  0
   -1.8201   -0.9926    0.3247 N   0  0  0  0  0  0  0  0  0  0  0  0
   -2.7141   -0.5816    0.0927 H   0  0  0  0  0  0  0  0  0  0  0  0
   -0.6481   -0.1156    0.2017 C   0  0  1  0  0  0  0  0  0  0  0  0
   -0.9993    0.8908   -0.0348 H   0  0  0  0  0  0  0  0  0  0  0  0
    0.1033   -0.0602    1.5460 C   0  0  0  0  0  0  0  0  0  0  0  0
    0.3651   -1.0703    1.8645 H   0  0  0  0  0  0  0  0  0  0  0  0
    1.0331    0.4976    1.4264 H   0  0  0  0  0  0  0  0  0  0  0  0
   -0.7163    0.5604    2.6511 C   0  0  0  0  0  0  0  0  0  0  0  0
   -0.9881    1.9208    2.8021 N   0  0  0  0  0  0  0  0  0  0  0  0
   -1.7827    2.0215    3.8776 C   0  0  0  0  0  0  0  0  0  0  0  0
   -2.1656    2.9547    4.2711 H   0  0  0  0  0  0  0  0  0  0  0  0
   -2.0401    0.8049    4.3865 N   0  0  0  0  0  0  0  0  0  0  0  0
   -2.6298    0.6165    5.1856 H   0  0  0  0  0  0  0  0  0  0  0  0
   -1.3786   -0.1310    3.6230 C   0  0  0  0  0  0  0  0  0  0  0  0
   -1.3879   -1.2072    3.7416 H   0  0  0  0  0  0  0  0  0  0  0  0
    0.2540   -0.5728   -0.9585 C   0  0  0  0  0  0  0  0  0  0  0  0
   -0.1876   -0.6027   -2.1073 O   0  0  0  0  0  0  0  0  0  0  0  0
    1.5119   -0.9181   -0.6667 N   0  0  0  0  0  0  0  0  0  0  0  0
    1.7594   -0.9660    0.3153 H   0  0  0  0  0  0  0  0  0  0  0  0
    2.5034   -1.3606   -1.6443 C   0  0  0  0  0  0  0  0  0  0  0  0
    2.3695   -0.8211   -2.5855 H   0  0  0  0  0  0  0  0  0  0  0  0
    3.5085   -1.1719   -1.2646 H   0  0  0  0  0  0  0  0  0  0  0  0
    2.3815   -2.4290   -1.8303 H   0  0  0  0  0  0  0  0  0  0  0  0
  5  6  2  0  0  0  0
  5  7  1  0  0  0  0
  2  3  1  0  0  0  0
  2  4  1  0  0  0  0
  2  5  1  0  0  0  0
  1  2  1  0  0  0  0
 22 23  2  0  0  0  0
 22 24  1  0  0  0  0
 20 21  1  0  0  0  0
 18 19  1  0  0  0  0
 18 20  1  0  0  0  0
 16 17  1  0  0  0  0
 16 18  1  0  0  0  0
 15 16  2  0  0  0  0
 14 15  1  0  0  0  0
 14 20  2  0  0  0  0
 11 12  1  0  0  0  0
 11 13  1  0  0  0  0
 11 14  1  0  0  0  0
  9 10  1  0  0  0  0
  9 11  1  0  0  0  0
  9 22  1  0  0  0  0
  7  8  1  0  0  0  0
  7  9  1  0  0  0  0
 26 27  1  0  0  0  0
 26 28  1  0  0  0  0
 26 29  1  0  0  0  0
 24 25  1  0  0  0  0
 24 26  1  0  0  0  0
M  END
$$$$
default_name
  -OEChem-01062215323D

 29 29  0     1  0  0  0  0  0999 V2000
   -2.9561   -3.9186    1.3887 H   0  0  0  0  0  0  0  0  0  0  0  0
   -3.1191   -2.9346    0.9517 C   0  0  0  0  0  0  0  0  0  0  0  0
   -3.7811   -2.3546    1.5917 H   0  0  0  0  0  0  0  0  0  0  0  0
   -3.5591   -3.0406   -0.0383 H   0  0  0  0  0  0  0  0  0  0  0  0
   -1.7921   -2.2226    0.8327 C   0  0  0  0  0  0  0  0  0  0  0  0
   -0.7611   -2.7766    1.1927 O   0  0  0  0  0  0  0  0  0  0  0  0
   -1.8201   -0.9926    0.3247 N   0  0  0  0  0  0  0  0  0  0  0  0
   -2.7141   -0.5816    0.0927 H   0  0  0  0  0  0  0  0  0  0  0  0
   -0.6481   -0.1156    0.2017 C   0  0  1  0  0  0  0  0  0  0  0  0
   -0.9993    0.8908   -0.0348 H   0  0  0  0  0  0  0  0  0  0  0  0
    0.1033   -0.0602    1.5460 C   0  0  0  0  0  0  0  0  0  0  0  0
    0.3651   -1.0703    1.8645 H   0  0  0  0  0  0  0  0  0  0  0  0
    1.0331    0.4976    1.4264 H   0  0  0  0  0  0  0  0  0  0  0  0
   -0.7163    0.5604    2.6511 C   0  0  0  0  0  0  0  0  0  0  0  0
   -0.9881    1.9208    2.8021 N   0  0  0  0  0  0  0  0  0  0  0  0
   -1.7827    2.0215    3.8776 C   0  0  0  0  0  0  0  0  0  0  0  0
   -2.1656    2.9547    4.2711 H   0  0  0  0  0  0  0  0  0  0  0  0
   -2.0401    0.8049    4.3865 N   0  0  0  0  0  0  0  0  0  0  0  0
   -2.6298    0.6165    5.1856 H   0  0  0  0  0  0  0  0  0  0  0  0
   -1.3786   -0.1310    3.6230 C   0  0  0  0  0  0  0  0  0  0  0  0
   -1.3879   -1.2072    3.7416 H   0  0  0  0  0  0  0  0  0  0  0  0
    0.2540   -0.5728   -0.9585 C   0  0  0  0  0  0  0  0  0  0  0  0
   -0.0777   -0.3475   -2.1224 O   0  0  0  0  0  0  0  0  0  0  0  0
    1.3916   -1.2023   -0.6483 N   0  0  0  0  0  0  0  0  0  0  0  0
    1.5342   -1.4399    0.3270 H   0  0  0  0  0  0  0  0  0  0  0  0
    2.3671   -1.6896   -1.6207 C   0  0  0  0  0  0  0  0  0  0  0  0
    2.4248   -1.0043   -2.4703 H   0  0  0  0  0  0  0  0  0  0  0  0
    3.3505   -1.7635   -1.1544 H   0  0  0  0  0  0  0  0  0  0  0  0
    2.0629   -2.6734   -1.9817 H   0  0  0  0  0  0  0  0  0  0  0  0
  5  6  2  0  0  0  0
  5  7  1  0  0  0  0
  2  3  1  0  0  0  0
  2  4  1  0  0  0  0
  2  5  1  0  0  0  0
  1  2  1  0  0  0  0
 22 23  2  0  0  0  0
 22 24  1  0  0  0  0
 20 21  1  0  0  0  0
 18 19  1  0  0  0  0
 18 20  1  0  0  0  0
 16 17  1  0  0  0  0
 16 18  1  0  0  0  0
 15 16  2  0  0  0  0
 14 15  1  0  0  0  0
 14 20  2  0  0  0  0
 11 12  1  0  0  0  0
 11 13  1  0  0  0  0
 11 14  1  0  0  0  0
  9 10  1  0  0  0  0
  9 11  1  0  0  0  0
  9 22  1  0  0  0  0
  7  8  1  0  0  0  0
  7  9  1  0  0  0  0
 26 27  1  0  0  0  0
 26 28  1  0  0  0  0
 26 29  1  0  0  0  0
 24 25  1  0  0  0  0
 24 26  1  0  0  0  0
M  END
$$$$
default_name
  -OEChem-01062215323D

 29 29  0     1  0  0  0  0  0999 V2000
   -2.9561   -3.9186    1.3887 H   0  0  0  0  0  0  0  0  0  0  0  0
   -3.1191   -2.9346    0.9517 C   0  0  0  0  0  0  0  0  0  0  0  0
   -3.7811   -2.3546    1.5917 H   0  0  0  0  0  0  0  0  0  0  0  0
   -3.5591   -3.0406   -0.0383 H   0  0  0  0  0  0  0  0  0  0  0  0
   -1.7921   -2.2226    0.8327 C   0  0  0  0  0  0  0  0  0  0  0  0
   -0.7611   -2.7766    1.1927 O   0  0  0  0  0  0  0  0  0  0  0  0
   -1.8201   -0.9926    0.3247 N   0  0  0  0  0  0  0  0  0  0  0  0
   -2.7141   -0.5816    0.0927 H   0  0  0  0  0  0  0  0  0  0  0  0
   -0.6481   -0.1156    0.2017 C   0  0  1  0  0  0  0  0  0  0  0  0
   -0.9993    0.8908   -0.0348 H   0  0  0  0  0  0  0  0  0  0  0  0
    0.1033   -0.0602    1.5460 C   0  0  0  0  0  0  0  0  0  0  0  0
    0.3651   -1.0703    1.8645 H   0  0  0  0  0  0  0  0  0  0  0  0
    1.0331    0.4976    1.4264 H   0  0  0  0  0  0  0  0  0  0  0  0
   -0.7163    0.5604    2.6511 C   0  0  0  0  0  0  0  0  0  0  0  0
   -0.9881    1.9208    2.8021 N   0  0  0  0  0  0  0  0  0  0  0  0
   -1.7827    2.0215    3.8776 C   0  0  0  0  0  0  0  0  0  0  0  0
   -2.1656    2.9547    4.2711 H   0  0  0  0  0  0  0  0  0  0  0  0
   -2.0401    0.8049    4.3865 N   0  0  0  0  0  0  0  0  0  0  0  0
   -2.6298    0.6165    5.1856 H   0  0  0  0  0  0  0  0  0  0  0  0
   -1.3786   -0.1310    3.6230 C   0  0  0  0  0  0  0  0  0  0  0  0
   -1.3879   -1.2072    3.7416 H   0  0  0  0  0  0  0  0  0  0  0  0
    0.2540   -0.5728   -0.9585 C   0  0  0  0  0  0  0  0  0  0  0  0
    0.0793   -0.1201   -2.0899 O   0  0  0  0  0  0  0  0  0  0  0  0
    1.2185   -1.4562   -0.6828 N   0  0  0  0  0  0  0  0  0  0  0  0
    1.2234   -1.8556    0.2491 H   0  0  0  0  0  0  0  0  0  0  0  0
    2.1694   -1.9843   -1.6583 C   0  0  0  0  0  0  0  0  0  0  0  0
    2.4335   -1.2095   -2.3826 H   0  0  0  0  0  0  0  0  0  0  0  0
    3.0740   -2.3208   -1.1498 H   0  0  0  0  0  0  0  0  0  0  0  0
    1.7191   -2.8244   -2.1895 H   0  0  0  0  0  0  0  0  0  0  0  0
  5  6  2  0  0  0  0
  5  7  1  0  0  0  0
  2  3  1  0  0  0  0
  2  4  1  0  0  0  0
  2  5  1  0  0  0  0
  1  2  1  0  0  0  0
 22 23  2  0  0  0  0
 22 24  1  0  0  0  0
 20 21  1  0  0  0  0
 18 19  1  0  0  0  0
 18 20  1  0  0  0  0
 16 17  1  0  0  0  0
 16 18  1  0  0  0  0
 15 16  2  0  0  0  0
 14 15  1  0  0  0  0
 14 20  2  0  0  0  0
 11 12  1  0  0  0  0
 11 13  1  0  0  0  0
 11 14  1  0  0  0  0
  9 10  1  0  0  0  0
  9 11  1  0  0  0  0
  9 22  1  0  0  0  0
  7  8  1  0  0  0  0
  7  9  1  0  0  0  0
 26 27  1  0  0  0  0
 26 28  1  0  0  0  0
 26 29  1  0  0  0  0
 24 25  1  0  0  0  0
 24 26  1  0  0  0  0
M  END
$$$$
default_name
  -OEChem-01062215323D

 29 29  0     1  0  0  0  0  0999 V2000
   -2.9561   -3.9186    1.3887 H   0  0  0  0  0  0  0  0  0  0  0  0
   -3.1191   -2.9346    0.9517 C   0  0  0  0  0  0  0  0  0  0  0  0
   -3.7811   -2.3546    1.5917 H   0  0  0  0  0  0  0  0  0  0  0  0
   -3.5591   -3.0406   -0.0383 H   0  0  0  0  0  0  0  0  0  0  0  0
   -1.7921   -2.2226    0.8327 C   0  0  0  0  0  0  0  0  0  0  0  0
   -0.7611   -2.7766    1.1927 O   0  0  0  0  0  0  0  0  0  0  0  0
   -1.8201   -0.9926    0.3247 N   0  0  0  0  0  0  0  0  0  0  0  0
   -2.7141   -0.5816    0.0927 H   0  0  0  0  0  0  0  0  0  0  0  0
   -0.6481   -0.1156    0.2017 C   0  0  1  0  0  0  0  0  0  0  0  0
   -0.9993    0.8908   -0.0348 H   0  0  0  0  0  0  0  0  0  0  0  0
    0.1033   -0.0602    1.5460 C   0  0  0  0  0  0  0  0  0  0  0  0
    0.3651   -1.0703    1.8645 H   0  0  0  0  0  0  0  0  0  0  0  0
    1.0331    0.4976    1.4264 H   0  0  0  0  0  0  0  0  0  0  0  0
   -0.7163    0.5604    2.6511 C   0  0  0  0  0  0  0  0  0  0  0  0
   -0.9881    1.9208    2.8021 N   0  0  0  0  0  0  0  0  0  0  0  0
   -1.7827    2.0215    3.8776 C   0  0  0  0  0  0  0  0  0  0  0  0
   -2.1656    2.9547    4.2711 H   0  0  0  0  0  0  0  0  0  0  0  0
   -2.0401    0.8049    4.3865 N   0  0  0  0  0  0  0  0  0  0  0  0
   -2.6298    0.6165    5.1856 H   0  0  0  0  0  0  0  0  0  0  0  0
   -1.3786   -0.1310    3.6230 C   0  0  0  0  0  0  0  0  0  0  0  0
   -1.3879   -1.2072    3.7416 H   0  0  0  0  0  0  0  0  0  0  0  0
    0.2540   -0.5728   -0.9585 C   0  0  0  0  0  0  0  0  0  0  0  0
    0.2729    0.0639   -2.0120 O   0  0  0  0  0  0  0  0  0  0  0  0
    1.0045   -1.6624   -0.7680 N   0  0  0  0  0  0  0  0  0  0  0  0
    0.8480   -2.1846    0.0869 H   0  0  0  0  0  0  0  0  0  0  0  0
    1.9239   -2.2247   -1.7544 C   0  0  0  0  0  0  0  0  0  0  0  0
    2.3953   -1.4227   -2.3284 H   0  0  0  0  0  0  0  0  0  0  0  0
    2.6978   -2.8059   -1.2511 H   0  0  0  0  0  0  0  0  0  0  0  0
    1.3736   -2.8717   -2.4395 H   0  0  0  0  0  0  0  0  0  0  0  0
  5  6  2  0  0  0  0
  5  7  1  0  0  0  0
  2  3  1  0  0  0  0
  2  4  1  0  0  0  0
  2  5  1  0  0  0  0
  1  2  1  0  0  0  0
 22 23  2  0  0  0  0
 22 24  1  0  0  0  0
 20 21  1  0  0  0  0
 18 19  1  0  0  0  0
 18 20  1  0  0  0  0
 16 17  1  0  0  0  0
 16 18  1  0  0  0  0
 15 16  2  0  0  0  0
 14 15  1  0  0  0  0
 14 20  2  0  0  0  0
 11 12  1  0  0  0  0
 11 13  1  0  0  0  0
 11 14  1  0  0  0  0
  9 10  1  0  0  0  0
  9 11  1  0  0  0  0
  9 22  1  0  0  0  0
  7  8  1  0  0  0  0
  7  9  1  0  0  0  0
 26 27  1  0  0  0  0
 26 28  1  0  0  0  0
 26 29  1  0  0  0  0
 24 25  1  0  0  0  0
 24 26  1  0  0  0  0
M  END
$$$$
default_name
  -OEChem-01062215323D

 29 29  0     1  0  0  0  0  0999 V2000
   -2.9561   -3.9186    1.3887 H   0  0  0  0  0  0  0  0  0  0  0  0
   -3.1191   -2.9346    0.9517 C   0  0  0  0  0  0  0  0  0  0  0  0
   -3.7811   -2.3546    1.5917 H   0  0  0  0  0  0  0  0  0  0  0  0
   -3.5591   -3.0406   -0.0383 H   0  0  0  0  0  0  0  0  0  0  0  0
   -1.7921   -2.2226    0.8327 C   0  0  0  0  0  0  0  0  0  0  0  0
   -0.7611   -2.7766    1.1927 O   0  0  0  0  0  0  0  0  0  0  0  0
   -1.8201   -0.9926    0.3247 N   0  0  0  0  0  0  0  0  0  0  0  0
   -2.7141   -0.5816    0.0927 H   0  0  0  0  0  0  0  0  0  0  0  0
   -0.6481   -0.1156    0.2017 C   0  0  1  0  0  0  0  0  0  0  0  0
   -0.9993    0.8908   -0.0348 H   0  0  0  0  0  0  0  0  0  0  0  0
    0.1033   -0.0602    1.5460 C   0  0  0  0  0  0  0  0  0  0  0  0
    0.3651   -1.0703    1.8645 H   0  0  0  0  0  0  0  0  0  0  0  0
    1.0331    0.4976    1.4264 H   0  0  0  0  0  0  0  0  0  0  0  0
   -0.7163    0.5604    2.6511 C   0  0  0  0  0  0  0  0  0  0  0  0
   -0.9881    1.9208    2.8021 N   0  0  0  0  0  0  0  0  0  0  0  0
   -1.7827    2.0215    3.8776 C   0  0  0  0  0  0  0  0  0  0  0  0
   -2.1656    2.9547    4.2711 H   0  0  0  0  0  0  0  0  0  0  0  0
   -2.0401    0.8049    4.3865 N   0  0  0  0  0  0  0  0  0  0  0  0
   -2.6298    0.6165    5.1856 H   0  0  0  0  0  0  0  0  0  0  0  0
   -1.3786   -0.1310    3.6230 C   0  0  0  0  0  0  0  0  0  0  0  0
   -1.3879   -1.2072    3.7416 H   0  0  0  0  0  0  0  0  0  0  0  0
    0.2540   -0.5728   -0.9585 C   0  0  0  0  0  0  0  0  0  0  0  0
    0.4897    0.1921   -1.8939 O   0  0  0  0  0  0  0  0  0  0  0  0
    0.7641   -1.8069   -0.8980 N   0  0  0  0  0  0  0  0  0  0  0  0
    0.4337   -2.4045   -0.1486 H   0  0  0  0  0  0  0  0  0  0  0  0
    1.6472   -2.3944   -1.9027 C   0  0  0  0  0  0  0  0  0  0  0  0
    2.3125   -1.6295   -2.3112 H   0  0  0  0  0  0  0  0  0  0  0  0
    2.2476   -3.1857   -1.4515 H   0  0  0  0  0  0  0  0  0  0  0  0
    1.0498   -2.8120   -2.7148 H   0  0  0  0  0  0  0  0  0  0  0  0
  5  6  2  0  0  0  0
  5  7  1  0  0  0  0
  2  3  1  0  0  0  0
  2  4  1  0  0  0  0
  2  5  1  0  0  0  0
  1  2  1  0  0  0  0
 22 23  2  0  0  0  0
 22 24  1  0  0  0  0
 20 21  1  0  0  0  0
 18 19  1  0  0  0  0
 18 20  1  0  0  0  0
 16 17  1  0  0  0  0
 16 18  1  0  0  0  0
 15 16  2  0  0  0  0
 14 15  1  0  0  0  0
 14 20  2  0  0  0  0
 11 12  1  0  0  0  0
 11 13  1  0  0  0  0
 11 14  1  0  0  0  0
  9 10  1  0  0  0  0
  9 11  1  0  0  0  0
  9 22  1  0  0  0  0
  7  8  1  0  0  0  0
  7  9  1  0  0  0  0
 26 27  1  0  0  0  0
 26 28  1  0  0  0  0
 26 29  1  0  0  0  0
 24 25  1  0  0  0  0
 24 26  1  0  0  0  0
M  END
$$$$
default_name
  -OEChem-01062215323D

 29 29  0     1  0  0  0  0  0999 V2000
   -2.9561   -3.9186    1.3887 H   0  0  0  0  0  0  0  0  0  0  0  0
   -3.1191   -2.9346    0.9517 C   0  0  0  0  0  0  0  0  0  0  0  0
   -3.7811   -2.3546    1.5917 H   0  0  0  0  0  0  0  0  0  0  0  0
   -3.5591   -3.0406   -0.0383 H   0  0  0  0  0  0  0  0  0  0  0  0
   -1.7921   -2.2226    0.8327 C   0  0  0  0  0  0  0  0  0  0  0  0
   -0.7611   -2.7766    1.1927 O   0  0  0  0  0  0  0  0  0  0  0  0
   -1.8201   -0.9926    0.3247 N   0  0  0  0  0  0  0  0  0  0  0  0
   -2.7141   -0.5816    0.0927 H   0  0  0  0  0  0  0  0  0  0  0  0
   -0.6481   -0.1156    0.2017 C   0  0  1  0  0  0  0  0  0  0  0  0
   -0.9993    0.8908   -0.0348 H   0  0  0  0  0  0  0  0  0  0  0  0
    0.1033   -0.0602    1.5460 C   0  0  0  0  0  0  0  0  0  0  0  0
    0.3651   -1.0703    1.8645 H   0  0  0  0  0  0  0  0  0  0  0  0
    1.0331    0.4976    1.4264 H   0  0  0  0  0  0  0  0  0  0  0  0
   -0.7163    0.5604    2.6511 C   0  0  0  0  0  0  0  0  0  0  0  0
   -0.9881    1.9208    2.8021 N   0  0  0  0  0  0  0  0  0  0  0  0
   -1.7827    2.0215    3.8776 C   0  0  0  0  0  0  0  0  0  0  0  0
   -2.1656    2.9547    4.2711 H   0  0  0  0  0  0  0  0  0  0  0  0
   -2.0401    0.8049    4.3865 N   0  0  0  0  0  0  0  0  0  0  0  0
   -2.6298    0.6165    5.1856 H   0  0  0  0  0  0  0  0  0  0  0  0
   -1.3786   -0.1310    3.6230 C   0  0  0  0  0  0  0  0  0  0  0  0
   -1.3879   -1.2072    3.7416 H   0  0  0  0  0  0  0  0  0  0  0  0
    0.2540   -0.5728   -0.9585 C   0  0  0  0  0  0  0  0  0  0  0  0
    0.7151    0.2557   -1.7437 O   0  0  0  0  0  0  0  0  0  0  0  0
    0.5137   -1.8798   -1.0640 N   0  0  0  0  0  0  0  0  0  0  0  0
    0.0087   -2.5005   -0.4412 H   0  0  0  0  0  0  0  0  0  0  0  0
    1.3583   -2.4819   -2.0929 C   0  0  0  0  0  0  0  0  0  0  0  0
    2.1909   -1.8156   -2.3324 H   0  0  0  0  0  0  0  0  0  0  0  0
    1.7541   -3.4343   -1.7373 H   0  0  0  0  0  0  0  0  0  0  0  0
    0.7699   -2.6494   -2.9965 H   0  0  0  0  0  0  0  0  0  0  0  0
  5  6  2  0  0  0  0
  5  7  1  0  0  0  0
  2  3  1  0  0  0  0
  2  4  1  0  0  0  0
  2  5  1  0  0  0  0
  1  2  1  0  0  0  0
 22 23  2  0  0  0  0
 22 24  1  0  0  0  0
 20 21  1  0  0  0  0
 18 19  1  0  0  0  0
 18 20  1  0  0  0  0
 16 17  1  0  0  0  0
 16 18  1  0  0  0  0
 15 16  2  0  0  0  0
 14 15  1  0  0  0  0
 14 20  2  0  0  0  0
 11 12  1  0  0  0  0
 11 13  1  0  0  0  0
 11 14  1  0  0  0  0
  9 10  1  0  0  0  0
  9 11  1  0  0  0  0
  9 22  1  0  0  0  0
  7  8  1  0  0  0  0
  7  9  1  0  0  0  0
 26 27  1  0  0  0  0
 26 28  1  0  0  0  0
 26 29  1  0  0  0  0
 24 25  1  0  0  0  0
 24 26  1  0  0  0  0
M  END
$$$$
default_name
  -OEChem-01062215323D

 29 29  0     1  0  0  0  0  0999 V2000
   -2.9561   -3.9186    1.3887 H   0  0  0  0  0  0  0  0  0  0  0  0
   -3.1191   -2.9346    0.9517 C   0  0  0  0  0  0  0  0  0  0  0  0
   -3.7811   -2.3546    1.5917 H   0  0  0  0  0  0  0  0  0  0  0  0
   -3.5591   -3.0406   -0.0383 H   0  0  0  0  0  0  0  0  0  0  0  0
   -1.7921   -2.2226    0.8327 C   0  0  0  0  0  0  0  0  0  0  0  0
   -0.7611   -2.7766    1.1927 O   0  0  0  0  0  0  0  0  0  0  0  0
   -1.8201   -0.9926    0.3247 N   0  0  0  0  0  0  0  0  0  0  0  0
   -2.7141   -0.5816    0.0927 H   0  0  0  0  0  0  0  0  0  0  0  0
   -0.6481   -0.1156    0.2017 C   0  0  1  0  0  0  0  0  0  0  0  0
   -0.9993    0.8908   -0.0348 H   0  0  0  0  0  0  0  0  0  0  0  0
    0.1033   -0.0602    1.5460 C   0  0  0  0  0  0  0  0  0  0  0  0
    0.3651   -1.0703    1.8645 H   0  0  0  0  0  0  0  0  0  0  0  0
    1.0331    0.4976    1.4264 H   0  0  0  0  0  0  0  0  0  0  0  0
   -0.7163    0.5604    2.6511 C   0  0  0  0  0  0  0  0  0  0  0  0
   -0.9881    1.9208    2.8021 N   0  0  0  0  0  0  0  0  0  0  0  0
   -1.7827    2.0215    3.8776 C   0  0  0  0  0  0  0  0  0  0  0  0
   -2.1656    2.9547    4.2711 H   0  0  0  0  0  0  0  0  0  0  0  0
   -2.0401    0.8049    4.3865 N   0  0  0  0  0  0  0  0  0  0  0  0
   -2.6298    0.6165    5.1856 H   0  0  0  0  0  0  0  0  0  0  0  0
   -1.3786   -0.1310    3.6230 C   0  0  0  0  0  0  0  0  0  0  0  0
   -1.3879   -1.2072    3.7416 H   0  0  0  0  0  0  0  0  0  0  0  0
    0.2540   -0.5728   -0.9585 C   0  0  0  0  0  0  0  0  0  0  0  0
    0.9337    0.2503   -1.5716 O   0  0  0  0  0  0  0  0  0  0  0  0
    0.2703   -1.8762   -1.2546 N   0  0  0  0  0  0  0  0  0  0  0  0
   -0.3980   -2.4658   -0.7711 H   0  0  0  0  0  0  0  0  0  0  0  0
    1.0767   -2.4812   -2.3121 C   0  0  0  0  0  0  0  0  0  0  0  0
    2.0388   -1.9684   -2.3905 H   0  0  0  0  0  0  0  0  0  0  0  0
    1.2508   -3.5348   -2.0890 H   0  0  0  0  0  0  0  0  0  0  0  0
    0.5529   -2.3950   -3.2655 H   0  0  0  0  0  0  0  0  0  0  0  0
  5  6  2  0  0  0  0
  5  7  1  0  0  0  0
  2  3  1  0  0  0  0
  2  4  1  0  0  0  0
  2  5  1  0  0  0  0
  1  2  1  0  0  0  0
 22 23  2  0  0  0  0
 22 24  1  0  0  0  0
 20 21  1  0  0  0  0
 18 19  1  0  0  0  0
 18 20  1  0  0  0  0
 16 17  1  0  0  0  0
 16 18  1  0  0  0  0
 15 16  2  0  0  0  0
 14 15  1  0  0  0  0
 14 20  2  0  0  0  0
 11 12  1  0  0  0  0
 11 13  1  0  0  0  0
 11 14  1  0  0  0  0
  9 10  1  0  0  0  0
  9 11  1  0  0  0  0
  9 22  1  0  0  0  0
  7  8  1  0  0  0  0
  7  9  1  0  0  0  0
 26 27  1  0  0  0  0
 26 28  1  0  0  0  0
 26 29  1  0  0  0  0
 24 25  1  0  0  0  0
 24 26  1  0  0  0  0
M  END
$$$$
default_name
  -OEChem-01062215323D

 29 29  0     1  0  0  0  0  0999 V2000
   -2.9561   -3.9186    1.3887 H   0  0  0  0  0  0  0  0  0  0  0  0
   -3.1191   -2.9346    0.9517 C   0  0  0  0  0  0  0  0  0  0  0  0
   -3.7811   -2.3546    1.5917 H   0  0  0  0  0  0  0  0  0  0  0  0
   -3.5591   -3.0406   -0.0383 H   0  0  0  0  0  0  0  0  0  0  0  0
   -1.7921   -2.2226    0.8327 C   0  0  0  0  0  0  0  0  0  0  0  0
   -0.7611   -2.7766    1.1927 O   0  0  0  0  0  0  0  0  0  0  0  0
   -1.8201   -0.9926    0.3247 N   0  0  0  0  0  0  0  0  0  0  0  0
   -2.7141   -0.5816    0.0927 H   0  0  0  0  0  0  0  0  0  0  0  0
   -0.6481   -0.1156    0.2017 C   0  0  1  0  0  0  0  0  0  0  0  0
   -0.9993    0.8908   -0.0348 H   0  0  0  0  0  0  0  0  0  0  0  0
    0.1033   -0.0602    1.5460 C   0  0  0  0  0  0  0  0  0  0  0  0
    0.3651   -1.0703    1.8645 H   0  0  0  0  0  0  0  0  0  0  0  0
    1.0331    0.4976    1.4264 H   0  0  0  0  0  0  0  0  0  0  0  0
   -0.7163    0.5604    2.6511 C   0  0  0  0  0  0  0  0  0  0  0  0
   -0.9881    1.9208    2.8021 N   0  0  0  0  0  0  0  0  0  0  0  0
   -1.7827    2.0215    3.8776 C   0  0  0  0  0  0  0  0  0  0  0  0
   -2.1656    2.9547    4.2711 H   0  0  0  0  0  0  0  0  0  0  0  0
   -2.0401    0.8049    4.3865 N   0  0  0  0  0  0  0  0  0  0  0  0
   -2.6298    0.6165    5.1856 H   0  0  0  0  0  0  0  0  0  0  0  0
   -1.3786   -0.1310    3.6230 C   0  0  0  0  0  0  0  0  0  0  0  0
   -1.3879   -1.2072    3.7416 H   0  0  0  0  0  0  0  0  0  0  0  0
    0.2540   -0.5728   -0.9585 C   0  0  0  0  0  0  0  0  0  0  0  0
    1.1306    0.1764   -1.3894 O   0  0  0  0  0  0  0  0  0  0  0  0
    0.0506   -1.7964   -1.4569 N   0  0  0  0  0  0  0  0  0  0  0  0
   -0.7588   -2.3029   -1.1158 H   0  0  0  0  0  0  0  0  0  0  0  0
    0.8217   -2.3923   -2.5454 C   0  0  0  0  0  0  0  0  0  0  0  0
    1.8665   -2.0776   -2.4814 H   0  0  0  0  0  0  0  0  0  0  0  0
    0.7721   -3.4803   -2.4826 H   0  0  0  0  0  0  0  0  0  0  0  0
    0.4136   -2.0661   -3.5034 H   0  0  0  0  0  0  0  0  0  0  0  0
  5  6  2  0  0  0  0
  5  7  1  0  0  0  0
  2  3  1  0  0  0  0
  2  4  1  0  0  0  0
  2  5  1  0  0  0  0
  1  2  1  0  0  0  0
 22 23  2  0  0  0  0
 22 24  1  0  0  0  0
 20 21  1  0  0  0  0
 18 19  1  0  0  0  0
 18 20  1  0  0  0  0
 16 17  1  0  0  0  0
 16 18  1  0  0  0  0
 15 16  2  0  0  0  0
 14 15  1  0  0  0  0
 14 20  2  0  0  0  0
 11 12  1  0  0  0  0
 11 13  1  0  0  0  0
 11 14  1  0  0  0  0
  9 10  1  0  0  0  0
  9 11  1  0  0  0  0
  9 22  1  0  0  0  0
  7  8  1  0  0  0  0
  7  9  1  0  0  0  0
 26 27  1  0  0  0  0
 26 28  1  0  0  0  0
 26 29  1  0  0  0  0
 24 25  1  0  0  0  0
 24 26  1  0  0  0  0
M  END
$$$$
default_name
  -OEChem-01062215323D

 29 29  0     1  0  0  0  0  0999 V2000
   -2.9561   -3.9186    1.3887 H   0  0  0  0  0  0  0  0  0  0  0  0
   -3.1191   -2.9346    0.9517 C   0  0  0  0  0  0  0  0  0  0  0  0
   -3.7811   -2.3546    1.5917 H   0  0  0  0  0  0  0  0  0  0  0  0
   -3.5591   -3.0406   -0.0383 H   0  0  0  0  0  0  0  0  0  0  0  0
   -1.7921   -2.2226    0.8327 C   0  0  0  0  0  0  0  0  0  0  0  0
   -0.7611   -2.7766    1.1927 O   0  0  0  0  0  0  0  0  0  0  0  0
   -1.8201   -0.9926    0.3247 N   0  0  0  0  0  0  0  0  0  0  0  0
   -2.7141   -0.5816    0.0927 H   0  0  0  0  0  0  0  0  0  0  0  0
   -0.6481   -0.1156    0.2017 C   0  0  1  0  0  0  0  0  0  0  0  0
   -0.9993    0.8908   -0.0348 H   0  0  0  0  0  0  0  0  0  0  0  0
    0.1033   -0.0602    1.5460 C   0  0  0  0  0  0  0  0  0  0  0  0
    0.3651   -1.0703    1.8645 H   0  0  0  0  0  0  0  0  0  0  0  0
    1.0331    0.4976    1.4264 H   0  0  0  0  0  0  0  0  0  0  0  0
   -0.7163    0.5604    2.6511 C   0  0  0  0  0  0  0  0  0  0  0  0
   -0.9881    1.9208    2.8021 N   0  0  0  0  0  0  0  0  0  0  0  0
   -1.7827    2.0215    3.8776 C   0  0  0  0  0  0  0  0  0  0  0  0
   -2.1656    2.9547    4.2711 H   0  0  0  0  0  0  0  0  0  0  0  0
   -2.0401    0.8049    4.3865 N   0  0  0  0  0  0  0  0  0  0  0  0
   -2.6298    0.6165    5.1856 H   0  0  0  0  0  0  0  0  0  0  0  0
   -1.3786   -0.1310    3.6230 C   0  0  0  0  0  0  0  0  0  0  0  0
   -1.3879   -1.2072    3.7416 H   0  0  0  0  0  0  0  0  0  0  0  0
    0.2540   -0.5728   -0.9585 C   0  0  0  0  0  0  0  0  0  0  0  0
    1.2923    0.0390   -1.2095 O   0  0  0  0  0  0  0  0  0  0  0  0
   -0.1305   -1.6456   -1.6571 N   0  0  0  0  0  0  0  0  0  0  0  0
   -1.0489   -2.0229   -1.4518 H   0  0  0  0  0  0  0  0  0  0  0  0
    0.6107   -2.2213   -2.7768 C   0  0  0  0  0  0  0  0  0  0  0  0
    1.6858   -2.1356   -2.5991 H   0  0  0  0  0  0  0  0  0  0  0  0
    0.3507   -3.2745   -2.8914 H   0  0  0  0  0  0  0  0  0  0  0  0
    0.3615   -1.6852   -3.6940 H   0  0  0  0  0  0  0  0  0  0  0  0
  5  6  2  0  0  0  0
  5  7  1  0  0  0  0
  2  3  1  0  0  0  0
  2  4  1  0  0  0  0
  2  5  1  0  0  0  0
  1  2  1  0  0  0  0
 22 23  2  0  0  0  0
 22 24  1  0  0  0  0
 20 21  1  0  0  0  0
 18 19  1  0  0  0  0
 18 20  1  0  0  0  0
 16 17  1  0  0  0  0
 16 18  1  0  0  0  0
 15 16  2  0  0  0  0
 14 15  1  0  0  0  0
 14 20  2  0  0  0  0
 11 12  1  0  0  0  0
 11 13  1  0  0  0  0
 11 14  1  0  0  0  0
  9 10  1  0  0  0  0
  9 11  1  0  0  0  0
  9 22  1  0  0  0  0
  7  8  1  0  0  0  0
  7  9  1  0  0  0  0
 26 27  1  0  0  0  0
 26 28  1  0  0  0  0
 26 29  1  0  0  0  0
 24 25  1  0  0  0  0
 24 26  1  0  0  0  0
M  END
$$$$
default_name
  -OEChem-01062215323D

 29 29  0     1  0  0  0  0  0999 V2000
   -2.9561   -3.9186    1.3887 H   0  0  0  0  0  0  0  0  0  0  0  0
   -3.1191   -2.9346    0.9517 C   0  0  0  0  0  0  0  0  0  0  0  0
   -3.7811   -2.3546    1.5917 H   0  0  0  0  0  0  0  0  0  0  0  0
   -3.5591   -3.0406   -0.0383 H   0  0  0  0  0  0  0  0  0  0  0  0
   -1.7921   -2.2226    0.8327 C   0  0  0  0  0  0  0  0  0  0  0  0
   -0.7611   -2.7766    1.1927 O   0  0  0  0  0  0  0  0  0  0  0  0
   -1.8201   -0.9926    0.3247 N   0  0  0  0  0  0  0  0  0  0  0  0
   -2.7141   -0.5816    0.0927 H   0  0  0  0  0  0  0  0  0  0  0  0
   -0.6481   -0.1156    0.2017 C   0  0  1  0  0  0  0  0  0  0  0  0
   -0.9993    0.8908   -0.0348 H   0  0  0  0  0  0  0  0  0  0  0  0
    0.1033   -0.0602    1.5460 C   0  0  0  0  0  0  0  0  0  0  0  0
    0.3651   -1.0703    1.8645 H   0  0  0  0  0  0  0  0  0  0  0  0
    1.0331    0.4976    1.4264 H   0  0  0  0  0  0  0  0  0  0  0  0
   -0.7163    0.5604    2.6511 C   0  0  0  0  0  0  0  0  0  0  0  0
   -0.9881    1.9208    2.8021 N   0  0  0  0  0  0  0  0  0  0  0  0
   -1.7827    2.0215    3.8776 C   0  0  0  0  0  0  0  0  0  0  0  0
   -2.1656    2.9547    4.2711 H   0  0  0  0  0  0  0  0  0  0  0  0
   -2.0401    0.8049    4.3865 N   0  0  0  0  0  0  0  0  0  0  0  0
   -2.6298    0.6165    5.1856 H   0  0  0  0  0  0  0  0  0  0  0  0
   -1.3786   -0.1310    3.6230 C   0  0  0  0  0  0  0  0  0  0  0  0
   -1.3879   -1.2072    3.7416 H   0  0  0  0  0  0  0  0  0  0  0  0
    0.2540   -0.5728   -0.9585 C   0  0  0  0  0  0  0  0  0  0  0  0
    1.4079   -0.1526   -1.0441 O   0  0  0  0  0  0  0  0  0  0  0  0
   -0.2607   -1.4344   -1.8415 N   0  0  0  0  0  0  0  0  0  0  0  0
   -1.2488   -1.6448   -1.7561 H   0  0  0  0  0  0  0  0  0  0  0  0
    0.4581   -1.9798   -2.9907 C   0  0  0  0  0  0  0  0  0  0  0  0
    1.5089   -2.1386   -2.7354 H   0  0  0  0  0  0  0  0  0  0  0  0
    0.0151   -2.9316   -3.2875 H   0  0  0  0  0  0  0  0  0  0  0  0
    0.4002   -1.2781   -3.8243 H   0  0  0  0  0  0  0  0  0  0  0  0
  5  6  2  0  0  0  0
  5  7  1  0  0  0  0
  2  3  1  0  0  0  0
  2  4  1  0  0  0  0
  2  5  1  0  0  0  0
  1  2  1  0  0  0  0
 22 23  2  0  0  0  0
 22 24  1  0  0  0  0
 20 21  1  0  0  0  0
 18 19  1  0  0  0  0
 18 20  1  0  0  0  0
 16 17  1  0  0  0  0
 16 18  1  0  0  0  0
 15 16  2  0  0  0  0
 14 15  1  0  0  0  0
 14 20  2  0  0  0  0
 11 12  1  0  0  0  0
 11 13  1  0  0  0  0
 11 14  1  0  0  0  0
  9 10  1  0  0  0  0
  9 11  1  0  0  0  0
  9 22  1  0  0  0  0
  7  8  1  0  0  0  0
  7  9  1  0  0  0  0
 26 27  1  0  0  0  0
 26 28  1  0  0  0  0
 26 29  1  0  0  0  0
 24 25  1  0  0  0  0
 24 26  1  0  0  0  0
M  END
$$$$
default_name
  -OEChem-01062215323D

 29 29  0     1  0  0  0  0  0999 V2000
   -2.9561   -3.9186    1.3887 H   0  0  0  0  0  0  0  0  0  0  0  0
   -3.1191   -2.9346    0.9517 C   0  0  0  0  0  0  0  0  0  0  0  0
   -3.7811   -2.3546    1.5917 H   0  0  0  0  0  0  0  0  0  0  0  0
   -3.5591   -3.0406   -0.0383 H   0  0  0  0  0  0  0  0  0  0  0  0
   -1.7921   -2.2226    0.8327 C   0  0  0  0  0  0  0  0  0  0  0  0
   -0.7611   -2.7766    1.1927 O   0  0  0  0  0  0  0  0  0  0  0  0
   -1.8201   -0.9926    0.3247 N   0  0  0  0  0  0  0  0  0  0  0  0
   -2.7141   -0.5816    0.0927 H   0  0  0  0  0  0  0  0  0  0  0  0
   -0.6481   -0.1156    0.2017 C   0  0  1  0  0  0  0  0  0  0  0  0
   -0.9993    0.8908   -0.0348 H   0  0  0  0  0  0  0  0  0  0  0  0
    0.1033   -0.0602    1.5460 C   0  0  0  0  0  0  0  0  0  0  0  0
    0.3651   -1.0703    1.8645 H   0  0  0  0  0  0  0  0  0  0  0  0
    1.0331    0.4976    1.4264 H   0  0  0  0  0  0  0  0  0  0  0  0
   -0.7163    0.5604    2.6511 C   0  0  0  0  0  0  0  0  0  0  0  0
   -0.9881    1.9208    2.8021 N   0  0  0  0  0  0  0  0  0  0  0  0
   -1.7827    2.0215    3.8776 C   0  0  0  0  0  0  0  0  0  0  0  0
   -2.1656    2.9547    4.2711 H   0  0  0  0  0  0  0  0  0  0  0  0
   -2.0401    0.8049    4.3865 N   0  0  0  0  0  0  0  0  0  0  0  0
   -2.6298    0.6165    5.1856 H   0  0  0  0  0  0  0  0  0  0  0  0
   -1.3786   -0.1310    3.6230 C   0  0  0  0  0  0  0  0  0  0  0  0
   -1.3879   -1.2072    3.7416 H   0  0  0  0  0  0  0  0  0  0  0  0
    0.2540   -0.5728   -0.9585 C   0  0  0  0  0  0  0  0  0  0  0  0
    1.4694   -0.3853   -0.9046 O   0  0  0  0  0  0  0  0  0  0  0  0
   -0.3310   -1.1769   -1.9976 N   0  0  0  0  0  0  0  0  0  0  0  0
   -1.3446   -1.1945   -2.0081 H   0  0  0  0  0  0  0  0  0  0  0  0
    0.3741   -1.6844   -3.1723 C   0  0  0  0  0  0  0  0  0  0  0  0
    1.3480   -2.0862   -2.8812 H   0  0  0  0  0  0  0  0  0  0  0  0
   -0.2116   -2.4747   -3.6438 H   0  0  0  0  0  0  0  0  0  0  0  0
    0.5269   -0.8727   -3.8855 H   0  0  0  0  0  0  0  0  0  0  0  0
  5  6  2  0  0  0  0
  5  7  1  0  0  0  0
  2  3  1  0  0  0  0
  2  4  1  0  0  0  0
  2  5  1  0  0  0  0
  1  2  1  0  0  0  0
 22 23  2  0  0  0  0
 22 24  1  0  0  0  0
 20 21  1  0  0  0  0
 18 19  1  0  0  0  0
 18 20  1  0  0  0  0
 16 17  1  0  0  0  0
 16 18  1  0  0  0  0
 15 16  2  0  0  0  0
 14 15  1  0  0  0  0
 14 20  2  0  0  0  0
 11 12  1  0  0  0  0
 11 13  1  0  0  0  0
 11 14  1  0  0  0  0
  9 10  1  0  0  0  0
  9 11  1  0  0  0  0
  9 22  1  0  0  0  0
  7  8  1  0  0  0  0
  7  9  1  0  0  0  0
 26 27  1  0  0  0  0
 26 28  1  0  0  0  0
 26 29  1  0  0  0  0
 24 25  1  0  0  0  0
 24 26  1  0  0  0  0
M  END
$$$$
default_name
  -OEChem-01062215323D

 29 29  0     1  0  0  0  0  0999 V2000
   -2.9561   -3.9186    1.3887 H   0  0  0  0  0  0  0  0  0  0  0  0
   -3.1191   -2.9346    0.9517 C   0  0  0  0  0  0  0  0  0  0  0  0
   -3.7811   -2.3546    1.5917 H   0  0  0  0  0  0  0  0  0  0  0  0
   -3.5591   -3.0406   -0.0383 H   0  0  0  0  0  0  0  0  0  0  0  0
   -1.7921   -2.2226    0.8327 C   0  0  0  0  0  0  0  0  0  0  0  0
   -0.7611   -2.7766    1.1927 O   0  0  0  0  0  0  0  0  0  0  0  0
   -1.8201   -0.9926    0.3247 N   0  0  0  0  0  0  0  0  0  0  0  0
   -2.7141   -0.5816    0.0927 H   0  0  0  0  0  0  0  0  0  0  0  0
   -0.6481   -0.1156    0.2017 C   0  0  1  0  0  0  0  0  0  0  0  0
   -0.9993    0.8908   -0.0348 H   0  0  0  0  0  0  0  0  0  0  0  0
    0.1033   -0.0602    1.5460 C   0  0  0  0  0  0  0  0  0  0  0  0
    0.3651   -1.0703    1.8645 H   0  0  0  0  0  0  0  0  0  0  0  0
    1.0331    0.4976    1.4264 H   0  0  0  0  0  0  0  0  0  0  0  0
   -0.7163    0.5604    2.6511 C   0  0  0  0  0  0  0  0  0  0  0  0
   -0.9881    1.9208    2.8021 N   0  0  0  0  0  0  0  0  0  0  0  0
   -1.7827    2.0215    3.8776 C   0  0  0  0  0  0  0  0  0  0  0  0
   -2.1656    2.9547    4.2711 H   0  0  0  0  0  0  0  0  0  0  0  0
   -2.0401    0.8049    4.3865 N   0  0  0  0  0  0  0  0  0  0  0  0
   -2.6298    0.6165    5.1856 H   0  0  0  0  0  0  0  0  0  0  0  0
   -1.3786   -0.1310    3.6230 C   0  0  0  0  0  0  0  0  0  0  0  0
   -1.3879   -1.2072    3.7416 H   0  0  0  0  0  0  0  0  0  0  0  0
    0.2540   -0.5728   -0.9585 C   0  0  0  0  0  0  0  0  0  0  0  0
    1.4728   -0.6432   -0.8004 O   0  0  0  0  0  0  0  0  0  0  0  0
   -0.3366   -0.8909   -2.1148 N   0  0  0  0  0  0  0  0  0  0  0  0
   -1.3300   -0.7026   -2.1906 H   0  0  0  0  0  0  0  0  0  0  0  0
    0.3647   -1.3551   -3.3094 C   0  0  0  0  0  0  0  0  0  0  0  0
    1.2140   -1.9822   -3.0264 H   0  0  0  0  0  0  0  0  0  0  0  0
   -0.3142   -1.9352   -3.9361 H   0  0  0  0  0  0  0  0  0  0  0  0
    0.7332   -0.4966   -3.8734 H   0  0  0  0  0  0  0  0  0  0  0  0
  5  6  2  0  0  0  0
  5  7  1  0  0  0  0
  2  3  1  0  0  0  0
  2  4  1  0  0  0  0
  2  5  1  0  0  0  0
  1  2  1  0  0  0  0
 22 23  2  0  0  0  0
 22 24  1  0  0  0  0
 20 21  1  0  0  0  0
 18 19  1  0  0  0  0
 18 20  1  0  0  0  0
 16 17  1  0  0  0  0
 16 18  1  0  0  0  0
 15 16  2  0  0  0  0
 14 15  1  0  0  0  0
 14 20  2  0  0  0  0
 11 12  1  0  0  0  0
 11 13  1  0  0  0  0
 11 14  1  0  0  0  0
  9 10  1  0  0  0  0
  9 11  1  0  0  0  0
  9 22  1  0  0  0  0
  7  8  1  0  0  0  0
  7  9  1  0  0  0  0
 26 27  1  0  0  0  0
 26 28  1  0  0  0  0
 26 29  1  0  0  0  0
 24 25  1  0  0  0  0
 24 26  1  0  0  0  0
M  END
$$$$
default_name
  -OEChem-01062215323D

 29 29  0     1  0  0  0  0  0999 V2000
   -2.9561   -3.9186    1.3887 H   0  0  0  0  0  0  0  0  0  0  0  0
   -3.1191   -2.9346    0.9517 C   0  0  0  0  0  0  0  0  0  0  0  0
   -3.7811   -2.3546    1.5917 H   0  0  0  0  0  0  0  0  0  0  0  0
   -3.5591   -3.0406   -0.0383 H   0  0  0  0  0  0  0  0  0  0  0  0
   -1.7921   -2.2226    0.8327 C   0  0  0  0  0  0  0  0  0  0  0  0
   -0.7611   -2.7766    1.1927 O   0  0  0  0  0  0  0  0  0  0  0  0
   -1.8201   -0.9926    0.3247 N   0  0  0  0  0  0  0  0  0  0  0  0
   -2.7141   -0.5816    0.0927 H   0  0  0  0  0  0  0  0  0  0  0  0
   -0.6481   -0.1156    0.2017 C   0  0  1  0  0  0  0  0  0  0  0  0
   -0.9993    0.8908   -0.0348 H   0  0  0  0  0  0  0  0  0  0  0  0
    0.1033   -0.0602    1.5460 C   0  0  0  0  0  0  0  0  0  0  0  0
    0.3651   -1.0703    1.8645 H   0  0  0  0  0  0  0  0  0  0  0  0
    1.0331    0.4976    1.4264 H   0  0  0  0  0  0  0  0  0  0  0  0
   -0.7163    0.5604    2.6511 C   0  0  0  0  0  0  0  0  0  0  0  0
   -0.9881    1.9208    2.8021 N   0  0  0  0  0  0  0  0  0  0  0  0
   -1.7827    2.0215    3.8776 C   0  0  0  0  0  0  0  0  0  0  0  0
   -2.1656    2.9547    4.2711 H   0  0  0  0  0  0  0  0  0  0  0  0
   -2.0401    0.8049    4.3865 N   0  0  0  0  0  0  0  0  0  0  0  0
   -2.6298    0.6165    5.1856 H   0  0  0  0  0  0  0  0  0  0  0  0
   -1.3786   -0.1310    3.6230 C   0  0  0  0  0  0  0  0  0  0  0  0
   -1.3879   -1.2072    3.7416 H   0  0  0  0  0  0  0  0  0  0  0  0
    0.2540   -0.5728   -0.9585 C   0  0  0  0  0  0  0  0  0  0  0  0
    1.4176   -0.9088   -0.7386 O   0  0  0  0  0  0  0  0  0  0  0  0
   -0.2773   -0.5957   -2.1849 N   0  0  0  0  0  0  0  0  0  0  0  0
   -1.2059   -0.2027   -2.2911 H   0  0  0  0  0  0  0  0  0  0  0  0
    0.4304   -1.0143   -3.3926 C   0  0  0  0  0  0  0  0  0  0  0  0
    1.1160   -1.8335   -3.1611 H   0  0  0  0  0  0  0  0  0  0  0  0
   -0.2854   -1.3497   -4.1445 H   0  0  0  0  0  0  0  0  0  0  0  0
    1.0049   -0.1754   -3.7887 H   0  0  0  0  0  0  0  0  0  0  0  0
  5  6  2  0  0  0  0
  5  7  1  0  0  0  0
  2  3  1  0  0  0  0
  2  4  1  0  0  0  0
  2  5  1  0  0  0  0
  1  2  1  0  0  0  0
 22 23  2  0  0  0  0
 22 24  1  0  0  0  0
 20 21  1  0  0  0  0
 18 19  1  0  0  0  0
 18 20  1  0  0  0  0
 16 17  1  0  0  0  0
 16 18  1  0  0  0  0
 15 16  2  0  0  0  0
 14 15  1  0  0  0  0
 14 20  2  0  0  0  0
 11 12  1  0  0  0  0
 11 13  1  0  0  0  0
 11 14  1  0  0  0  0
  9 10  1  0  0  0  0
  9 11  1  0  0  0  0
  9 22  1  0  0  0  0
  7  8  1  0  0  0  0
  7  9  1  0  0  0  0
 26 27  1  0  0  0  0
 26 28  1  0  0  0  0
 26 29  1  0  0  0  0
 24 25  1  0  0  0  0
 24 26  1  0  0  0  0
M  END
$$$$
default_name
  -OEChem-01062215323D

 29 29  0     1  0  0  0  0  0999 V2000
   -2.9561   -3.9186    1.3887 H   0  0  0  0  0  0  0  0  0  0  0  0
   -3.1191   -2.9346    0.9517 C   0  0  0  0  0  0  0  0  0  0  0  0
   -3.7811   -2.3546    1.5917 H   0  0  0  0  0  0  0  0  0  0  0  0
   -3.5591   -3.0406   -0.0383 H   0  0  0  0  0  0  0  0  0  0  0  0
   -1.7921   -2.2226    0.8327 C   0  0  0  0  0  0  0  0  0  0  0  0
   -0.7611   -2.7766    1.1927 O   0  0  0  0  0  0  0  0  0  0  0  0
   -1.8201   -0.9926    0.3247 N   0  0  0  0  0  0  0  0  0  0  0  0
   -2.7141   -0.5816    0.0927 H   0  0  0  0  0  0  0  0  0  0  0  0
   -0.6481   -0.1156    0.2017 C   0  0  1  0  0  0  0  0  0  0  0  0
   -0.9993    0.8908   -0.0348 H   0  0  0  0  0  0  0  0  0  0  0  0
    0.1033   -0.0602    1.5460 C   0  0  0  0  0  0  0  0  0  0  0  0
    0.3651   -1.0703    1.8645 H   0  0  0  0  0  0  0  0  0  0  0  0
    1.0331    0.4976    1.4264 H   0  0  0  0  0  0  0  0  0  0  0  0
   -0.7163    0.5604    2.6511 C   0  0  0  0  0  0  0  0  0  0  0  0
   -0.9881    1.9208    2.8021 N   0  0  0  0  0  0  0  0  0  0  0  0
   -1.7827    2.0215    3.8776 C   0  0  0  0  0  0  0  0  0  0  0  0
   -2.1656    2.9547    4.2711 H   0  0  0  0  0  0  0  0  0  0  0  0
   -2.0401    0.8049    4.3865 N   0  0  0  0  0  0  0  0  0  0  0  0
   -2.6298    0.6165    5.1856 H   0  0  0  0  0  0  0  0  0  0  0  0
   -1.3786   -0.1310    3.6230 C   0  0  0  0  0  0  0  0  0  0  0  0
   -1.3879   -1.2072    3.7416 H   0  0  0  0  0  0  0  0  0  0  0  0
    0.2540   -0.5728   -0.9585 C   0  0  0  0  0  0  0  0  0  0  0  0
    1.3078   -1.1640   -0.7234 O   0  0  0  0  0  0  0  0  0  0  0  0
   -0.1570   -0.3115   -2.2034 N   0  0  0  0  0  0  0  0  0  0  0  0
   -0.9807    0.2713   -2.3027 H   0  0  0  0  0  0  0  0  0  0  0  0
    0.5667   -0.6854   -3.4163 C   0  0  0  0  0  0  0  0  0  0  0  0
    1.0608   -1.6503   -3.2763 H   0  0  0  0  0  0  0  0  0  0  0  0
   -0.1274   -0.7581   -4.2548 H   0  0  0  0  0  0  0  0  0  0  0  0
    1.3234    0.0691   -3.6374 H   0  0  0  0  0  0  0  0  0  0  0  0
  5  6  2  0  0  0  0
  5  7  1  0  0  0  0
  2  3  1  0  0  0  0
  2  4  1  0  0  0  0
  2  5  1  0  0  0  0
  1  2  1  0  0  0  0
 22 23  2  0  0  0  0
 22 24  1  0  0  0  0
 20 21  1  0  0  0  0
 18 19  1  0  0  0  0
 18 20  1  0  0  0  0
 16 17  1  0  0  0  0
 16 18  1  0  0  0  0
 15 16  2  0  0  0  0
 14 15  1  0  0  0  0
 14 20  2  0  0  0  0
 11 12  1  0  0  0  0
 11 13  1  0  0  0  0
 11 14  1  0  0  0  0
  9 10  1  0  0  0  0
  9 11  1  0  0  0  0
  9 22  1  0  0  0  0
  7  8  1  0  0  0  0
  7  9  1  0  0  0  0
 26 27  1  0  0  0  0
 26 28  1  0  0  0  0
 26 29  1  0  0  0  0
 24 25  1  0  0  0  0
 24 26  1  0  0  0  0
M  END
$$$$
default_name
  -OEChem-01062215323D

 29 29  0     1  0  0  0  0  0999 V2000
   -2.9561   -3.9186    1.3887 H   0  0  0  0  0  0  0  0  0  0  0  0
   -3.1191   -2.9346    0.9517 C   0  0  0  0  0  0  0  0  0  0  0  0
   -3.7811   -2.3546    1.5917 H   0  0  0  0  0  0  0  0  0  0  0  0
   -3.5591   -3.0406   -0.0383 H   0  0  0  0  0  0  0  0  0  0  0  0
   -1.7921   -2.2226    0.8327 C   0  0  0  0  0  0  0  0  0  0  0  0
   -0.7611   -2.7766    1.1927 O   0  0  0  0  0  0  0  0  0  0  0  0
   -1.8201   -0.9926    0.3247 N   0  0  0  0  0  0  0  0  0  0  0  0
   -2.7141   -0.5816    0.0927 H   0  0  0  0  0  0  0  0  0  0  0  0
   -0.6481   -0.1156    0.2017 C   0  0  1  0  0  0  0  0  0  0  0  0
   -0.9993    0.8908   -0.0348 H   0  0  0  0  0  0  0  0  0  0  0  0
    0.1033   -0.0602    1.5460 C   0  0  0  0  0  0  0  0  0  0  0  0
    0.3651   -1.0703    1.8645 H   0  0  0  0  0  0  0  0  0  0  0  0
    1.0331    0.4976    1.4264 H   0  0  0  0  0  0  0  0  0  0  0  0
   -0.7163    0.5604    2.6511 C   0  0  0  0  0  0  0  0  0  0  0  0
   -0.9881    1.9208    2.8021 N   0  0  0  0  0  0  0  0  0  0  0  0
   -1.7827    2.0215    3.8776 C   0  0  0  0  0  0  0  0  0  0  0  0
   -2.1656    2.9547    4.2711 H   0  0  0  0  0  0  0  0  0  0  0  0
   -2.0401    0.8049    4.3865 N   0  0  0  0  0  0  0  0  0  0  0  0
   -2.6298    0.6165    5.1856 H   0  0  0  0  0  0  0  0  0  0  0  0
   -1.3786   -0.1310    3.6230 C   0  0  0  0  0  0  0  0  0  0  0  0
   -1.3879   -1.2072    3.7416 H   0  0  0  0  0  0  0  0  0  0  0  0
    0.2540   -0.5728   -0.9585 C   0  0  0  0  0  0  0  0  0  0  0  0
    1.1508   -1.3914   -0.7559 O   0  0  0  0  0  0  0  0  0  0  0  0
    0.0161   -0.0577   -2.1689 N   0  0  0  0  0  0  0  0  0  0  0  0
   -0.6698    0.6869   -2.2248 H   0  0  0  0  0  0  0  0  0  0  0  0
    0.7643   -0.3907   -3.3787 C   0  0  0  0  0  0  0  0  0  0  0  0
    1.0520   -1.4451   -3.3640 H   0  0  0  0  0  0  0  0  0  0  0  0
    0.1491   -0.2008   -4.2594 H   0  0  0  0  0  0  0  0  0  0  0  0
    1.6672    0.2200   -3.4296 H   0  0  0  0  0  0  0  0  0  0  0  0
  5  6  2  0  0  0  0
  5  7  1  0  0  0  0
  2  3  1  0  0  0  0
  2  4  1  0  0  0  0
  2  5  1  0  0  0  0
  1  2  1  0  0  0  0
 22 23  2  0  0  0  0
 22 24  1  0  0  0  0
 20 21  1  0  0  0  0
 18 19  1  0  0  0  0
 18 20  1  0  0  0  0
 16 17  1  0  0  0  0
 16 18  1  0  0  0  0
 15 16  2  0  0  0  0
 14 15  1  0  0  0  0
 14 20  2  0  0  0  0
 11 12  1  0  0  0  0
 11 13  1  0  0  0  0
 11 14  1  0  0  0  0
  9 10  1  0  0  0  0
  9 11  1  0  0  0  0
  9 22  1  0  0  0  0
  7  8  1  0  0  0  0
  7  9  1  0  0  0  0
 26 27  1  0  0  0  0
 26 28  1  0  0  0  0
 26 29  1  0  0  0  0
 24 25  1  0  0  0  0
 24 26  1  0  0  0  0
M  END
$$$$
default_name
  -OEChem-01062215323D

 29 29  0     1  0  0  0  0  0999 V2000
   -2.9561   -3.9186    1.3887 H   0  0  0  0  0  0  0  0  0  0  0  0
   -3.1191   -2.9346    0.9517 C   0  0  0  0  0  0  0  0  0  0  0  0
   -3.7811   -2.3546    1.5917 H   0  0  0  0  0  0  0  0  0  0  0  0
   -3.5591   -3.0406   -0.0383 H   0  0  0  0  0  0  0  0  0  0  0  0
   -1.7921   -2.2226    0.8327 C   0  0  0  0  0  0  0  0  0  0  0  0
   -0.7611   -2.7766    1.1927 O   0  0  0  0  0  0  0  0  0  0  0  0
   -1.8201   -0.9926    0.3247 N   0  0  0  0  0  0  0  0  0  0  0  0
   -2.7141   -0.5816    0.0927 H   0  0  0  0  0  0  0  0  0  0  0  0
   -0.6481   -0.1156    0.2017 C   0  0  1  0  0  0  0  0  0  0  0  0
   -0.9993    0.8908   -0.0348 H   0  0  0  0  0  0  0  0  0  0  0  0
    0.1033   -0.0602    1.5460 C   0  0  0  0  0  0  0  0  0  0  0  0
    0.3651   -1.0703    1.8645 H   0  0  0  0  0  0  0  0  0  0  0  0
    1.0331    0.4976    1.4264 H   0  0  0  0  0  0  0  0  0  0  0  0
   -0.7163    0.5604    2.6511 C   0  0  0  0  0  0  0  0  0  0  0  0
   -0.9881    1.9208    2.8021 N   0  0  0  0  0  0  0  0  0  0  0  0
   -1.7827    2.0215    3.8776 C   0  0  0  0  0  0  0  0  0  0  0  0
   -2.1656    2.9547    4.2711 H   0  0  0  0  0  0  0  0  0  0  0  0
   -2.0401    0.8049    4.3865 N   0  0  0  0  0  0  0  0  0  0  0  0
   -2.6298    0.6165    5.1856 H   0  0  0  0  0  0  0  0  0  0  0  0
   -1.3786   -0.1310    3.6230 C   0  0  0  0  0  0  0  0  0  0  0  0
   -1.3879   -1.2072    3.7416 H   0  0  0  0  0  0  0  0  0  0  0  0
    0.2540   -0.5728   -0.9585 C   0  0  0  0  0  0  0  0  0  0  0  0
    0.9572   -1.5754   -0.8339 O   0  0  0  0  0  0  0  0  0  0  0  0
    0.2301    0.1485   -2.0837 N   0  0  0  0  0  0  0  0  0  0  0  0
   -0.2944    1.0159   -2.0626 H   0  0  0  0  0  0  0  0  0  0  0  0
    1.0099   -0.1503   -3.2826 C   0  0  0  0  0  0  0  0  0  0  0  0
    1.0902   -1.2319   -3.4183 H   0  0  0  0  0  0  0  0  0  0  0  0
    0.5253    0.2843   -4.1580 H   0  0  0  0  0  0  0  0  0  0  0  0
    2.0127    0.2673   -3.1795 H   0  0  0  0  0  0  0  0  0  0  0  0
  5  6  2  0  0  0  0
  5  7  1  0  0  0  0
  2  3  1  0  0  0  0
  2  4  1  0  0  0  0
  2  5  1  0  0  0  0
  1  2  1  0  0  0  0
 22 23  2  0  0  0  0
 22 24  1  0  0  0  0
 20 21  1  0  0  0  0
 18 19  1  0  0  0  0
 18 20  1  0  0  0  0
 16 17  1  0  0  0  0
 16 18  1  0  0  0  0
 15 16  2  0  0  0  0
 14 15  1  0  0  0  0
 14 20  2  0  0  0  0
 11 12  1  0  0  0  0
 11 13  1  0  0  0  0
 11 14  1  0  0  0  0
  9 10  1  0  0  0  0
  9 11  1  0  0  0  0
  9 22  1  0  0  0  0
  7  8  1  0  0  0  0
  7  9  1  0  0  0  0
 26 27  1  0  0  0  0
 26 28  1  0  0  0  0
 26 29  1  0  0  0  0
 24 25  1  0  0  0  0
 24 26  1  0  0  0  0
M  END
$$$$
default_name
  -OEChem-01062215323D

 29 29  0     1  0  0  0  0  0999 V2000
   -2.9561   -3.9186    1.3887 H   0  0  0  0  0  0  0  0  0  0  0  0
   -3.1191   -2.9346    0.9517 C   0  0  0  0  0  0  0  0  0  0  0  0
   -3.7811   -2.3546    1.5917 H   0  0  0  0  0  0  0  0  0  0  0  0
   -3.5591   -3.0406   -0.0383 H   0  0  0  0  0  0  0  0  0  0  0  0
   -1.7921   -2.2226    0.8327 C   0  0  0  0  0  0  0  0  0  0  0  0
   -0.7611   -2.7766    1.1927 O   0  0  0  0  0  0  0  0  0  0  0  0
   -1.8201   -0.9926    0.3247 N   0  0  0  0  0  0  0  0  0  0  0  0
   -2.7141   -0.5816    0.0927 H   0  0  0  0  0  0  0  0  0  0  0  0
   -0.6481   -0.1156    0.2017 C   0  0  1  0  0  0  0  0  0  0  0  0
   -0.9993    0.8908   -0.0348 H   0  0  0  0  0  0  0  0  0  0  0  0
    0.1033   -0.0602    1.5460 C   0  0  0  0  0  0  0  0  0  0  0  0
    0.3651   -1.0703    1.8645 H   0  0  0  0  0  0  0  0  0  0  0  0
    1.0331    0.4976    1.4264 H   0  0  0  0  0  0  0  0  0  0  0  0
   -0.7163    0.5604    2.6511 C   0  0  0  0  0  0  0  0  0  0  0  0
   -0.9881    1.9208    2.8021 N   0  0  0  0  0  0  0  0  0  0  0  0
   -1.7827    2.0215    3.8776 C   0  0  0  0  0  0  0  0  0  0  0  0
   -2.1656    2.9547    4.2711 H   0  0  0  0  0  0  0  0  0  0  0  0
   -2.0401    0.8049    4.3865 N   0  0  0  0  0  0  0  0  0  0  0  0
   -2.6298    0.6165    5.1856 H   0  0  0  0  0  0  0  0  0  0  0  0
   -1.3786   -0.1310    3.6230 C   0  0  0  0  0  0  0  0  0  0  0  0
   -1.3879   -1.2072    3.7416 H   0  0  0  0  0  0  0  0  0  0  0  0
    0.2540   -0.5728   -0.9585 C   0  0  0  0  0  0  0  0  0  0  0  0
    0.7403   -1.7036   -0.9520 O   0  0  0  0  0  0  0  0  0  0  0  0
    0.4705    0.2930   -1.9537 N   0  0  0  0  0  0  0  0  0  0  0  0
    0.1199    1.2359   -1.8271 H   0  0  0  0  0  0  0  0  0  0  0  0
    1.2865    0.0194   -3.1343 C   0  0  0  0  0  0  0  0  0  0  0  0
    1.1730   -1.0252   -3.4354 H   0  0  0  0  0  0  0  0  0  0  0  0
    0.9755    0.6640   -3.9576 H   0  0  0  0  0  0  0  0  0  0  0  0
    2.3365    0.2076   -2.9042 H   0  0  0  0  0  0  0  0  0  0  0  0
  5  6  2  0  0  0  0
  5  7  1  0  0  0  0
  2  3  1  0  0  0  0
  2  4  1  0  0  0  0
  2  5  1  0  0  0  0
  1  2  1  0  0  0  0
 22 23  2  0  0  0  0
 22 24  1  0  0  0  0
 20 21  1  0  0  0  0
 18 19  1  0  0  0  0
 18 20  1  0  0  0  0
 16 17  1  0  0  0  0
 16 18  1  0  0  0  0
 15 16  2  0  0  0  0
 14 15  1  0  0  0  0
 14 20  2  0  0  0  0
 11 12  1  0  0  0  0
 11 13  1  0  0  0  0
 11 14  1  0  0  0  0
  9 10  1  0  0  0  0
  9 11  1  0  0  0  0
  9 22  1  0  0  0  0
  7  8  1  0  0  0  0
  7  9  1  0  0  0  0
 26 27  1  0  0  0  0
 26 28  1  0  0  0  0
 26 29  1  0  0  0  0
 24 25  1  0  0  0  0
 24 26  1  0  0  0  0
M  END
$$$$
default_name
  -OEChem-01062215323D

 29 29  0     1  0  0  0  0  0999 V2000
   -2.9561   -3.9186    1.3887 H   0  0  0  0  0  0  0  0  0  0  0  0
   -3.1191   -2.9346    0.9517 C   0  0  0  0  0  0  0  0  0  0  0  0
   -3.7811   -2.3546    1.5917 H   0  0  0  0  0  0  0  0  0  0  0  0
   -3.5591   -3.0406   -0.0383 H   0  0  0  0  0  0  0  0  0  0  0  0
   -1.7921   -2.2226    0.8327 C   0  0  0  0  0  0  0  0  0  0  0  0
   -0.7611   -2.7766    1.1927 O   0  0  0  0  0  0  0  0  0  0  0  0
   -1.8201   -0.9926    0.3247 N   0  0  0  0  0  0  0  0  0  0  0  0
   -2.7141   -0.5816    0.0927 H   0  0  0  0  0  0  0  0  0  0  0  0
   -0.6481   -0.1156    0.2017 C   0  0  1  0  0  0  0  0  0  0  0  0
   -0.9993    0.8908   -0.0348 H   0  0  0  0  0  0  0  0  0  0  0  0
    0.1033   -0.0602    1.5460 C   0  0  0  0  0  0  0  0  0  0  0  0
    0.3651   -1.0703    1.8645 H   0  0  0  0  0  0  0  0  0  0  0  0
    1.0331    0.4976    1.4264 H   0  0  0  0  0  0  0  0  0  0  0  0
   -0.7163    0.5604    2.6511 C   0  0  0  0  0  0  0  0  0  0  0  0
   -0.9881    1.9208    2.8021 N   0  0  0  0  0  0  0  0  0  0  0  0
   -1.7827    2.0215    3.8776 C   0  0  0  0  0  0  0  0  0  0  0  0
   -2.1656    2.9547    4.2711 H   0  0  0  0  0  0  0  0  0  0  0  0
   -2.0401    0.8049    4.3865 N   0  0  0  0  0  0  0  0  0  0  0  0
   -2.6298    0.6165    5.1856 H   0  0  0  0  0  0  0  0  0  0  0  0
   -1.3786   -0.1310    3.6230 C   0  0  0  0  0  0  0  0  0  0  0  0
   -1.3879   -1.2072    3.7416 H   0  0  0  0  0  0  0  0  0  0  0  0
    0.2540   -0.5728   -0.9585 C   0  0  0  0  0  0  0  0  0  0  0  0
    0.5149   -1.7672   -1.1022 O   0  0  0  0  0  0  0  0  0  0  0  0
    0.7210    0.3660   -1.7877 N   0  0  0  0  0  0  0  0  0  0  0  0
    0.5449    1.3318   -1.5345 H   0  0  0  0  0  0  0  0  0  0  0  0
    1.5755    0.1069   -2.9441 C   0  0  0  0  0  0  0  0  0  0  0  0
    1.2946   -0.8390   -3.4142 H   0  0  0  0  0  0  0  0  0  0  0  0
    1.4690    0.9126   -3.6718 H   0  0  0  0  0  0  0  0  0  0  0  0
    2.6164    0.0450   -2.6225 H   0  0  0  0  0  0  0  0  0  0  0  0
  5  6  2  0  0  0  0
  5  7  1  0  0  0  0
  2  3  1  0  0  0  0
  2  4  1  0  0  0  0
  2  5  1  0  0  0  0
  1  2  1  0  0  0  0
 22 23  2  0  0  0  0
 22 24  1  0  0  0  0
 20 21  1  0  0  0  0
 18 19  1  0  0  0  0
 18 20  1  0  0  0  0
 16 17  1  0  0  0  0
 16 18  1  0  0  0  0
 15 16  2  0  0  0  0
 14 15  1  0  0  0  0
 14 20  2  0  0  0  0
 11 12  1  0  0  0  0
 11 13  1  0  0  0  0
 11 14  1  0  0  0  0
  9 10  1  0  0  0  0
  9 11  1  0  0  0  0
  9 22  1  0  0  0  0
  7  8  1  0  0  0  0
  7  9  1  0  0  0  0
 26 27  1  0  0  0  0
 26 28  1  0  0  0  0
 26 29  1  0  0  0  0
 24 25  1  0  0  0  0
 24 26  1  0  0  0  0
M  END
$$$$
default_name
  -OEChem-01062215323D

 29 29  0     1  0  0  0  0  0999 V2000
   -2.9561   -3.9186    1.3887 H   0  0  0  0  0  0  0  0  0  0  0  0
   -3.1191   -2.9346    0.9517 C   0  0  0  0  0  0  0  0  0  0  0  0
   -3.7811   -2.3546    1.5917 H   0  0  0  0  0  0  0  0  0  0  0  0
   -3.5591   -3.0406   -0.0383 H   0  0  0  0  0  0  0  0  0  0  0  0
   -1.7921   -2.2226    0.8327 C   0  0  0  0  0  0  0  0  0  0  0  0
   -0.7611   -2.7766    1.1927 O   0  0  0  0  0  0  0  0  0  0  0  0
   -1.8201   -0.9926    0.3247 N   0  0  0  0  0  0  0  0  0  0  0  0
   -2.7141   -0.5816    0.0927 H   0  0  0  0  0  0  0  0  0  0  0  0
   -0.6481   -0.1156    0.2017 C   0  0  1  0  0  0  0  0  0  0  0  0
   -0.9993    0.8908   -0.0348 H   0  0  0  0  0  0  0  0  0  0  0  0
    0.1033   -0.0602    1.5460 C   0  0  0  0  0  0  0  0  0  0  0  0
    0.3651   -1.0703    1.8645 H   0  0  0  0  0  0  0  0  0  0  0  0
    1.0331    0.4976    1.4264 H   0  0  0  0  0  0  0  0  0  0  0  0
   -0.7163    0.5604    2.6511 C   0  0  0  0  0  0  0  0  0  0  0  0
   -0.9881    1.9208    2.8021 N   0  0  0  0  0  0  0  0  0  0  0  0
   -1.7827    2.0215    3.8776 C   0  0  0  0  0  0  0  0  0  0  0  0
   -2.1656    2.9547    4.2711 H   0  0  0  0  0  0  0  0  0  0  0  0
   -2.0401    0.8049    4.3865 N   0  0  0  0  0  0  0  0  0  0  0  0
   -2.6298    0.6165    5.1856 H   0  0  0  0  0  0  0  0  0  0  0  0
   -1.3786   -0.1310    3.6230 C   0  0  0  0  0  0  0  0  0  0  0  0
   -1.3879   -1.2072    3.7416 H   0  0  0  0  0  0  0  0  0  0  0  0
    0.2540   -0.5728   -0.9585 C   0  0  0  0  0  0  0  0  0  0  0  0
    0.2964   -1.7619   -1.2742 O   0  0  0  0  0  0  0  0  0  0  0  0
    0.9643    0.3624   -1.5971 N   0  0  0  0  0  0  0  0  0  0  0  0
    0.9516    1.2971   -1.2046 H   0  0  0  0  0  0  0  0  0  0  0  0
    1.8571    0.1062   -2.7249 C   0  0  0  0  0  0  0  0  0  0  0  0
    1.4467   -0.6862   -3.3561 H   0  0  0  0  0  0  0  0  0  0  0  0
    1.9723    1.0131   -3.3201 H   0  0  0  0  0  0  0  0  0  0  0  0
    2.8334   -0.2094   -2.3536 H   0  0  0  0  0  0  0  0  0  0  0  0
  5  6  2  0  0  0  0
  5  7  1  0  0  0  0
  2  3  1  0  0  0  0
  2  4  1  0  0  0  0
  2  5  1  0  0  0  0
  1  2  1  0  0  0  0
 22 23  2  0  0  0  0
 22 24  1  0  0  0  0
 20 21  1  0  0  0  0
 18 19  1  0  0  0  0
 18 20  1  0  0  0  0
 16 17  1  0  0  0  0
 16 18  1  0  0  0  0
 15 16  2  0  0  0  0
 14 15  1  0  0  0  0
 14 20  2  0  0  0  0
 11 12  1  0  0  0  0
 11 13  1  0  0  0  0
 11 14  1  0  0  0  0
  9 10  1  0  0  0  0
  9 11  1  0  0  0  0
  9 22  1  0  0  0  0
  7  8  1  0  0  0  0
  7  9  1  0  0  0  0
 26 27  1  0  0  0  0
 26 28  1  0  0  0  0
 26 29  1  0  0  0  0
 24 25  1  0  0  0  0
 24 26  1  0  0  0  0
M  END
$$$$
default_name
  -OEChem-01062215323D

 29 29  0     1  0  0  0  0  0999 V2000
   -2.9561   -3.9186    1.3887 H   0  0  0  0  0  0  0  0  0  0  0  0
   -3.1191   -2.9346    0.9517 C   0  0  0  0  0  0  0  0  0  0  0  0
   -3.7811   -2.3546    1.5917 H   0  0  0  0  0  0  0  0  0  0  0  0
   -3.5591   -3.0406   -0.0383 H   0  0  0  0  0  0  0  0  0  0  0  0
   -1.7921   -2.2226    0.8327 C   0  0  0  0  0  0  0  0  0  0  0  0
   -0.7611   -2.7766    1.1927 O   0  0  0  0  0  0  0  0  0  0  0  0
   -1.8201   -0.9926    0.3247 N   0  0  0  0  0  0  0  0  0  0  0  0
   -2.7141   -0.5816    0.0927 H   0  0  0  0  0  0  0  0  0  0  0  0
   -0.6481   -0.1156    0.2017 C   0  0  1  0  0  0  0  0  0  0  0  0
   -0.9993    0.8908   -0.0348 H   0  0  0  0  0  0  0  0  0  0  0  0
    0.1033   -0.0602    1.5460 C   0  0  0  0  0  0  0  0  0  0  0  0
    0.3651   -1.0703    1.8645 H   0  0  0  0  0  0  0  0  0  0  0  0
    1.0331    0.4976    1.4264 H   0  0  0  0  0  0  0  0  0  0  0  0
   -0.7163    0.5604    2.6511 C   0  0  0  0  0  0  0  0  0  0  0  0
   -0.9881    1.9208    2.8021 N   0  0  0  0  0  0  0  0  0  0  0  0
   -1.7827    2.0215    3.8776 C   0  0  0  0  0  0  0  0  0  0  0  0
   -2.1656    2.9547    4.2711 H   0  0  0  0  0  0  0  0  0  0  0  0
   -2.0401    0.8049    4.3865 N   0  0  0  0  0  0  0  0  0  0  0  0
   -2.6298    0.6165    5.1856 H   0  0  0  0  0  0  0  0  0  0  0  0
   -1.3786   -0.1310    3.6230 C   0  0  0  0  0  0  0  0  0  0  0  0
   -1.3879   -1.2072    3.7416 H   0  0  0  0  0  0  0  0  0  0  0  0
    0.2540   -0.5728   -0.9585 C   0  0  0  0  0  0  0  0  0  0  0  0
    0.0995   -1.6880   -1.4564 O   0  0  0  0  0  0  0  0  0  0  0  0
    1.1840    0.2825   -1.3948 N   0  0  0  0  0  0  0  0  0  0  0  0
    1.3123    1.1342   -0.8599 H   0  0  0  0  0  0  0  0  0  0  0  0
    2.1120    0.0173   -2.4916 C   0  0  0  0  0  0  0  0  0  0  0  0
    1.6190   -0.5770   -3.2652 H   0  0  0  0  0  0  0  0  0  0  0  0
    2.4510    0.9586   -2.9265 H   0  0  0  0  0  0  0  0  0  0  0  0
    2.9727   -0.5383   -2.1157 H   0  0  0  0  0  0  0  0  0  0  0  0
  5  6  2  0  0  0  0
  5  7  1  0  0  0  0
  2  3  1  0  0  0  0
  2  4  1  0  0  0  0
  2  5  1  0  0  0  0
  1  2  1  0  0  0  0
 22 23  2  0  0  0  0
 22 24  1  0  0  0  0
 20 21  1  0  0  0  0
 18 19  1  0  0  0  0
 18 20  1  0  0  0  0
 16 17  1  0  0  0  0
 16 18  1  0  0  0  0
 15 16  2  0  0  0  0
 14 15  1  0  0  0  0
 14 20  2  0  0  0  0
 11 12  1  0  0  0  0
 11 13  1  0  0  0  0
 11 14  1  0  0  0  0
  9 10  1  0  0  0  0
  9 11  1  0  0  0  0
  9 22  1  0  0  0  0
  7  8  1  0  0  0  0
  7  9  1  0  0  0  0
 26 27  1  0  0  0  0
 26 28  1  0  0  0  0
 26 29  1  0  0  0  0
 24 25  1  0  0  0  0
 24 26  1  0  0  0  0
M  END
$$$$
default_name
  -OEChem-01062215323D

 29 29  0     1  0  0  0  0  0999 V2000
   -2.9561   -3.9186    1.3887 H   0  0  0  0  0  0  0  0  0  0  0  0
   -3.1191   -2.9346    0.9517 C   0  0  0  0  0  0  0  0  0  0  0  0
   -3.7811   -2.3546    1.5917 H   0  0  0  0  0  0  0  0  0  0  0  0
   -3.5591   -3.0406   -0.0383 H   0  0  0  0  0  0  0  0  0  0  0  0
   -1.7921   -2.2226    0.8327 C   0  0  0  0  0  0  0  0  0  0  0  0
   -0.7611   -2.7766    1.1927 O   0  0  0  0  0  0  0  0  0  0  0  0
   -1.8201   -0.9926    0.3247 N   0  0  0  0  0  0  0  0  0  0  0  0
   -2.7141   -0.5816    0.0927 H   0  0  0  0  0  0  0  0  0  0  0  0
   -0.6481   -0.1156    0.2017 C   0  0  1  0  0  0  0  0  0  0  0  0
   -0.9928    0.9199    0.2343 H   0  0  0  0  0  0  0  0  0  0  0  0
    0.3007   -0.3454    1.3940 C   0  0  0  0  0  0  0  0  0  0  0  0
    0.5695   -1.4011    1.4539 H   0  0  0  0  0  0  0  0  0  0  0  0
    1.2219    0.2200    1.2469 H   0  0  0  0  0  0  0  0  0  0  0  0
   -0.3169    0.0360    2.7173 C   0  0  0  0  0  0  0  0  0  0  0  0
   -0.5108    1.3366    3.1844 N   0  0  0  0  0  0  0  0  0  0  0  0
   -1.1280    1.2155    4.3688 C   0  0  0  0  0  0  0  0  0  0  0  0
   -1.4109    2.0484    5.0001 H   0  0  0  0  0  0  0  0  0  0  0  0
   -1.3508   -0.0790    4.6517 N   0  0  0  0  0  0  0  0  0  0  0  0
   -1.8188   -0.4264    5.4776 H   0  0  0  0  0  0  0  0  0  0  0  0
   -0.8493   -0.8390    3.6186 C   0  0  0  0  0  0  0  0  0  0  0  0
   -0.8811   -1.9162    3.5142 H   0  0  0  0  0  0  0  0  0  0  0  0
    0.0488   -0.3261   -1.1544 C   0  0  0  0  0  0  0  0  0  0  0  0
   -0.4037   -1.1396   -1.9599 O   0  0  0  0  0  0  0  0  0  0  0  0
    1.1370    0.4061   -1.4124 N   0  0  0  0  0  0  0  0  0  0  0  0
    1.5009    0.9718   -0.6537 H   0  0  0  0  0  0  0  0  0  0  0  0
    1.9100    0.3435   -2.6505 C   0  0  0  0  0  0  0  0  0  0  0  0
    1.2442    0.1739   -3.5006 H   0  0  0  0  0  0  0  0  0  0  0  0
    2.4478    1.2809   -2.7998 H   0  0  0  0  0  0  0  0  0  0  0  0
    2.6251   -0.4788   -2.5936 H   0  0  0  0  0  0  0  0  0  0  0  0
  5  6  2  0  0  0  0
  5  7  1  0  0  0  0
  2  3  1  0  0  0  0
  2  4  1  0  0  0  0
  2  5  1  0  0  0  0
  1  2  1  0  0  0  0
 22 23  2  0  0  0  0
 22 24  1  0  0  0  0
 20 21  1  0  0  0  0
 18 19  1  0  0  0  0
 18 20  1  0  0  0  0
 16 17  1  0  0  0  0
 16 18  1  0  0  0  0
 15 16  2  0  0  0  0
 14 15  1  0  0  0  0
 14 20  2  0  0  0  0
 11 12  1  0  0  0  0
 11 13  1  0  0  0  0
 11 14  1  0  0  0  0
  9 10  1  0  0  0  0
  9 11  1  0  0  0  0
  9 22  1  0  0  0  0
  7  8  1  0  0  0  0
  7  9  1  0  0  0  0
 26 27  1  0  0  0  0
 26 28  1  0  0  0  0
 26 29  1  0  0  0  0
 24 25  1  0  0  0  0
 24 26  1  0  0  0  0
M  END
$$$$
default_name
  -OEChem-01062215323D

 29 29  0     1  0  0  0  0  0999 V2000
   -2.9561   -3.9186    1.3887 H   0  0  0  0  0  0  0  0  0  0  0  0
   -3.1191   -2.9346    0.9517 C   0  0  0  0  0  0  0  0  0  0  0  0
   -3.7811   -2.3546    1.5917 H   0  0  0  0  0  0  0  0  0  0  0  0
   -3.5591   -3.0406   -0.0383 H   0  0  0  0  0  0  0  0  0  0  0  0
   -1.7921   -2.2226    0.8327 C   0  0  0  0  0  0  0  0  0  0  0  0
   -0.7611   -2.7766    1.1927 O   0  0  0  0  0  0  0  0  0  0  0  0
   -1.8201   -0.9926    0.3247 N   0  0  0  0  0  0  0  0  0  0  0  0
   -2.7141   -0.5816    0.0927 H   0  0  0  0  0  0  0  0  0  0  0  0
   -0.6481   -0.1156    0.2017 C   0  0  1  0  0  0  0  0  0  0  0  0
   -0.9928    0.9199    0.2343 H   0  0  0  0  0  0  0  0  0  0  0  0
    0.3007   -0.3454    1.3940 C   0  0  0  0  0  0  0  0  0  0  0  0
    0.5695   -1.4011    1.4539 H   0  0  0  0  0  0  0  0  0  0  0  0
    1.2219    0.2200    1.2469 H   0  0  0  0  0  0  0  0  0  0  0  0
   -0.3169    0.0360    2.7173 C   0  0  0  0  0  0  0  0  0  0  0  0
   -0.5108    1.3366    3.1844 N   0  0  0  0  0  0  0  0  0  0  0  0
   -1.1280    1.2155    4.3688 C   0  0  0  0  0  0  0  0  0  0  0  0
   -1.4109    2.0484    5.0001 H   0  0  0  0  0  0  0  0  0  0  0  0
   -1.3508   -0.0790    4.6517 N   0  0  0  0  0  0  0  0  0  0  0  0
   -1.8188   -0.4264    5.4776 H   0  0  0  0  0  0  0  0  0  0  0  0
   -0.8493   -0.8390    3.6186 C   0  0  0  0  0  0  0  0  0  0  0  0
   -0.8811   -1.9162    3.5142 H   0  0  0  0  0  0  0  0  0  0  0  0
    0.0488   -0.3261   -1.1544 C   0  0  0  0  0  0  0  0  0  0  0  0
   -0.5358   -0.9171   -2.0623 O   0  0  0  0  0  0  0  0  0  0  0  0
    1.2856    0.1604   -1.2978 N   0  0  0  0  0  0  0  0  0  0  0  0
    1.7303    0.5376   -0.4684 H   0  0  0  0  0  0  0  0  0  0  0  0
    2.0842    0.0620   -2.5173 C   0  0  0  0  0  0  0  0  0  0  0  0
    1.4397    0.1474   -3.3960 H   0  0  0  0  0  0  0  0  0  0  0  0
    2.8265    0.8611   -2.5400 H   0  0  0  0  0  0  0  0  0  0  0  0
    2.5913   -0.9038   -2.5449 H   0  0  0  0  0  0  0  0  0  0  0  0
  5  6  2  0  0  0  0
  5  7  1  0  0  0  0
  2  3  1  0  0  0  0
  2  4  1  0  0  0  0
  2  5  1  0  0  0  0
  1  2  1  0  0  0  0
 22 23  2  0  0  0  0
 22 24  1  0  0  0  0
 20 21  1  0  0  0  0
 18 19  1  0  0  0  0
 18 20  1  0  0  0  0
 16 17  1  0  0  0  0
 16 18  1  0  0  0  0
 15 16  2  0  0  0  0
 14 15  1  0  0  0  0
 14 20  2  0  0  0  0
 11 12  1  0  0  0  0
 11 13  1  0  0  0  0
 11 14  1  0  0  0  0
  9 10  1  0  0  0  0
  9 11  1  0  0  0  0
  9 22  1  0  0  0  0
  7  8  1  0  0  0  0
  7  9  1  0  0  0  0
 26 27  1  0  0  0  0
 26 28  1  0  0  0  0
 26 29  1  0  0  0  0
 24 25  1  0  0  0  0
 24 26  1  0  0  0  0
M  END
$$$$
default_name
  -OEChem-01062215323D

 29 29  0     1  0  0  0  0  0999 V2000
   -2.9561   -3.9186    1.3887 H   0  0  0  0  0  0  0  0  0  0  0  0
   -3.1191   -2.9346    0.9517 C   0  0  0  0  0  0  0  0  0  0  0  0
   -3.7811   -2.3546    1.5917 H   0  0  0  0  0  0  0  0  0  0  0  0
   -3.5591   -3.0406   -0.0383 H   0  0  0  0  0  0  0  0  0  0  0  0
   -1.7921   -2.2226    0.8327 C   0  0  0  0  0  0  0  0  0  0  0  0
   -0.7611   -2.7766    1.1927 O   0  0  0  0  0  0  0  0  0  0  0  0
   -1.8201   -0.9926    0.3247 N   0  0  0  0  0  0  0  0  0  0  0  0
   -2.7141   -0.5816    0.0927 H   0  0  0  0  0  0  0  0  0  0  0  0
   -0.6481   -0.1156    0.2017 C   0  0  1  0  0  0  0  0  0  0  0  0
   -0.9928    0.9199    0.2343 H   0  0  0  0  0  0  0  0  0  0  0  0
    0.3007   -0.3454    1.3940 C   0  0  0  0  0  0  0  0  0  0  0  0
    0.5695   -1.4011    1.4539 H   0  0  0  0  0  0  0  0  0  0  0  0
    1.2219    0.2200    1.2469 H   0  0  0  0  0  0  0  0  0  0  0  0
   -0.3169    0.0360    2.7173 C   0  0  0  0  0  0  0  0  0  0  0  0
   -0.5108    1.3366    3.1844 N   0  0  0  0  0  0  0  0  0  0  0  0
   -1.1280    1.2155    4.3688 C   0  0  0  0  0  0  0  0  0  0  0  0
   -1.4109    2.0484    5.0001 H   0  0  0  0  0  0  0  0  0  0  0  0
   -1.3508   -0.0790    4.6517 N   0  0  0  0  0  0  0  0  0  0  0  0
   -1.8188   -0.4264    5.4776 H   0  0  0  0  0  0  0  0  0  0  0  0
   -0.8493   -0.8390    3.6186 C   0  0  0  0  0  0  0  0  0  0  0  0
   -0.8811   -1.9162    3.5142 H   0  0  0  0  0  0  0  0  0  0  0  0
    0.0488   -0.3261   -1.1544 C   0  0  0  0  0  0  0  0  0  0  0  0
   -0.6090   -0.6602   -2.1398 O   0  0  0  0  0  0  0  0  0  0  0  0
    1.3690   -0.1243   -1.2108 N   0  0  0  0  0  0  0  0  0  0  0  0
    1.8462    0.0442   -0.3322 H   0  0  0  0  0  0  0  0  0  0  0  0
    2.1835   -0.2652   -2.4155 C   0  0  0  0  0  0  0  0  0  0  0  0
    1.6189    0.0650   -3.2912 H   0  0  0  0  0  0  0  0  0  0  0  0
    3.0873    0.3389   -2.3249 H   0  0  0  0  0  0  0  0  0  0  0  0
    2.4601   -1.3124   -2.5490 H   0  0  0  0  0  0  0  0  0  0  0  0
  5  6  2  0  0  0  0
  5  7  1  0  0  0  0
  2  3  1  0  0  0  0
  2  4  1  0  0  0  0
  2  5  1  0  0  0  0
  1  2  1  0  0  0  0
 22 23  2  0  0  0  0
 22 24  1  0  0  0  0
 20 21  1  0  0  0  0
 18 19  1  0  0  0  0
 18 20  1  0  0  0  0
 16 17  1  0  0  0  0
 16 18  1  0  0  0  0
 15 16  2  0  0  0  0
 14 15  1  0  0  0  0
 14 20  2  0  0  0  0
 11 12  1  0  0  0  0
 11 13  1  0  0  0  0
 11 14  1  0  0  0  0
  9 10  1  0  0  0  0
  9 11  1  0  0  0  0
  9 22  1  0  0  0  0
  7  8  1  0  0  0  0
  7  9  1  0  0  0  0
 26 27  1  0  0  0  0
 26 28  1  0  0  0  0
 26 29  1  0  0  0  0
 24 25  1  0  0  0  0
 24 26  1  0  0  0  0
M  END
$$$$
default_name
  -OEChem-01062215323D

 29 29  0     1  0  0  0  0  0999 V2000
   -2.9561   -3.9186    1.3887 H   0  0  0  0  0  0  0  0  0  0  0  0
   -3.1191   -2.9346    0.9517 C   0  0  0  0  0  0  0  0  0  0  0  0
   -3.7811   -2.3546    1.5917 H   0  0  0  0  0  0  0  0  0  0  0  0
   -3.5591   -3.0406   -0.0383 H   0  0  0  0  0  0  0  0  0  0  0  0
   -1.7921   -2.2226    0.8327 C   0  0  0  0  0  0  0  0  0  0  0  0
   -0.7611   -2.7766    1.1927 O   0  0  0  0  0  0  0  0  0  0  0  0
   -1.8201   -0.9926    0.3247 N   0  0  0  0  0  0  0  0  0  0  0  0
   -2.7141   -0.5816    0.0927 H   0  0  0  0  0  0  0  0  0  0  0  0
   -0.6481   -0.1156    0.2017 C   0  0  1  0  0  0  0  0  0  0  0  0
   -0.9928    0.9199    0.2343 H   0  0  0  0  0  0  0  0  0  0  0  0
    0.3007   -0.3454    1.3940 C   0  0  0  0  0  0  0  0  0  0  0  0
    0.5695   -1.4011    1.4539 H   0  0  0  0  0  0  0  0  0  0  0  0
    1.2219    0.2200    1.2469 H   0  0  0  0  0  0  0  0  0  0  0  0
   -0.3169    0.0360    2.7173 C   0  0  0  0  0  0  0  0  0  0  0  0
   -0.5108    1.3366    3.1844 N   0  0  0  0  0  0  0  0  0  0  0  0
   -1.1280    1.2155    4.3688 C   0  0  0  0  0  0  0  0  0  0  0  0
   -1.4109    2.0484    5.0001 H   0  0  0  0  0  0  0  0  0  0  0  0
   -1.3508   -0.0790    4.6517 N   0  0  0  0  0  0  0  0  0  0  0  0
   -1.8188   -0.4264    5.4776 H   0  0  0  0  0  0  0  0  0  0  0  0
   -0.8493   -0.8390    3.6186 C   0  0  0  0  0  0  0  0  0  0  0  0
   -0.8811   -1.9162    3.5142 H   0  0  0  0  0  0  0  0  0  0  0  0
    0.0488   -0.3261   -1.1544 C   0  0  0  0  0  0  0  0  0  0  0  0
   -0.6184   -0.3862   -2.1872 O   0  0  0  0  0  0  0  0  0  0  0  0
    1.3816   -0.4285   -1.1571 N   0  0  0  0  0  0  0  0  0  0  0  0
    1.8409   -0.4749   -0.2543 H   0  0  0  0  0  0  0  0  0  0  0  0
    2.2012   -0.6159   -2.3519 C   0  0  0  0  0  0  0  0  0  0  0  0
    1.7694   -0.0678   -3.1932 H   0  0  0  0  0  0  0  0  0  0  0  0
    3.2126   -0.2502   -2.1690 H   0  0  0  0  0  0  0  0  0  0  0  0
    2.2403   -1.6766   -2.6054 H   0  0  0  0  0  0  0  0  0  0  0  0
  5  6  2  0  0  0  0
  5  7  1  0  0  0  0
  2  3  1  0  0  0  0
  2  4  1  0  0  0  0
  2  5  1  0  0  0  0
  1  2  1  0  0  0  0
 22 23  2  0  0  0  0
 22 24  1  0  0  0  0
 20 21  1  0  0  0  0
 18 19  1  0  0  0  0
 18 20  1  0  0  0  0
 16 17  1  0  0  0  0
 16 18  1  0  0  0  0
 15 16  2  0  0  0  0
 14 15  1  0  0  0  0
 14 20  2  0  0  0  0
 11 12  1  0  0  0  0
 11 13  1  0  0  0  0
 11 14  1  0  0  0  0
  9 10  1  0  0  0  0
  9 11  1  0  0  0  0
  9 22  1  0  0  0  0
  7  8  1  0  0  0  0
  7  9  1  0  0  0  0
 26 27  1  0  0  0  0
 26 28  1  0  0  0  0
 26 29  1  0  0  0  0
 24 25  1  0  0  0  0
 24 26  1  0  0  0  0
M  END
$$$$
default_name
  -OEChem-01062215323D

 29 29  0     1  0  0  0  0  0999 V2000
   -2.9561   -3.9186    1.3887 H   0  0  0  0  0  0  0  0  0  0  0  0
   -3.1191   -2.9346    0.9517 C   0  0  0  0  0  0  0  0  0  0  0  0
   -3.7811   -2.3546    1.5917 H   0  0  0  0  0  0  0  0  0  0  0  0
   -3.5591   -3.0406   -0.0383 H   0  0  0  0  0  0  0  0  0  0  0  0
   -1.7921   -2.2226    0.8327 C   0  0  0  0  0  0  0  0  0  0  0  0
   -0.7611   -2.7766    1.1927 O   0  0  0  0  0  0  0  0  0  0  0  0
   -1.8201   -0.9926    0.3247 N   0  0  0  0  0  0  0  0  0  0  0  0
   -2.7141   -0.5816    0.0927 H   0  0  0  0  0  0  0  0  0  0  0  0
   -0.6481   -0.1156    0.2017 C   0  0  1  0  0  0  0  0  0  0  0  0
   -0.9928    0.9199    0.2343 H   0  0  0  0  0  0  0  0  0  0  0  0
    0.3007   -0.3454    1.3940 C   0  0  0  0  0  0  0  0  0  0  0  0
    0.5695   -1.4011    1.4539 H   0  0  0  0  0  0  0  0  0  0  0  0
    1.2219    0.2200    1.2469 H   0  0  0  0  0  0  0  0  0  0  0  0
   -0.3169    0.0360    2.7173 C   0  0  0  0  0  0  0  0  0  0  0  0
   -0.5108    1.3366    3.1844 N   0  0  0  0  0  0  0  0  0  0  0  0
   -1.1280    1.2155    4.3688 C   0  0  0  0  0  0  0  0  0  0  0  0
   -1.4109    2.0484    5.0001 H   0  0  0  0  0  0  0  0  0  0  0  0
   -1.3508   -0.0790    4.6517 N   0  0  0  0  0  0  0  0  0  0  0  0
   -1.8188   -0.4264    5.4776 H   0  0  0  0  0  0  0  0  0  0  0  0
   -0.8493   -0.8390    3.6186 C   0  0  0  0  0  0  0  0  0  0  0  0
   -0.8811   -1.9162    3.5142 H   0  0  0  0  0  0  0  0  0  0  0  0
    0.0488   -0.3261   -1.1544 C   0  0  0  0  0  0  0  0  0  0  0  0
   -0.5632   -0.1138   -2.2011 O   0  0  0  0  0  0  0  0  0  0  0  0
    1.3225   -0.7315   -1.1404 N   0  0  0  0  0  0  0  0  0  0  0  0
    1.7147   -0.9841   -0.2402 H   0  0  0  0  0  0  0  0  0  0  0  0
    2.1361   -0.9661   -2.3310 C   0  0  0  0  0  0  0  0  0  0  0  0
    1.8810   -0.2418   -3.1088 H   0  0  0  0  0  0  0  0  0  0  0  0
    3.1938   -0.8661   -2.0831 H   0  0  0  0  0  0  0  0  0  0  0  0
    1.9469   -1.9717   -2.7104 H   0  0  0  0  0  0  0  0  0  0  0  0
  5  6  2  0  0  0  0
  5  7  1  0  0  0  0
  2  3  1  0  0  0  0
  2  4  1  0  0  0  0
  2  5  1  0  0  0  0
  1  2  1  0  0  0  0
 22 23  2  0  0  0  0
 22 24  1  0  0  0  0
 20 21  1  0  0  0  0
 18 19  1  0  0  0  0
 18 20  1  0  0  0  0
 16 17  1  0  0  0  0
 16 18  1  0  0  0  0
 15 16  2  0  0  0  0
 14 15  1  0  0  0  0
 14 20  2  0  0  0  0
 11 12  1  0  0  0  0
 11 13  1  0  0  0  0
 11 14  1  0  0  0  0
  9 10  1  0  0  0  0
  9 11  1  0  0  0  0
  9 22  1  0  0  0  0
  7  8  1  0  0  0  0
  7  9  1  0  0  0  0
 26 27  1  0  0  0  0
 26 28  1  0  0  0  0
 26 29  1  0  0  0  0
 24 25  1  0  0  0  0
 24 26  1  0  0  0  0
M  END
$$$$
default_name
  -OEChem-01062215323D

 29 29  0     1  0  0  0  0  0999 V2000
   -2.9561   -3.9186    1.3887 H   0  0  0  0  0  0  0  0  0  0  0  0
   -3.1191   -2.9346    0.9517 C   0  0  0  0  0  0  0  0  0  0  0  0
   -3.7811   -2.3546    1.5917 H   0  0  0  0  0  0  0  0  0  0  0  0
   -3.5591   -3.0406   -0.0383 H   0  0  0  0  0  0  0  0  0  0  0  0
   -1.7921   -2.2226    0.8327 C   0  0  0  0  0  0  0  0  0  0  0  0
   -0.7611   -2.7766    1.1927 O   0  0  0  0  0  0  0  0  0  0  0  0
   -1.8201   -0.9926    0.3247 N   0  0  0  0  0  0  0  0  0  0  0  0
   -2.7141   -0.5816    0.0927 H   0  0  0  0  0  0  0  0  0  0  0  0
   -0.6481   -0.1156    0.2017 C   0  0  1  0  0  0  0  0  0  0  0  0
   -0.9928    0.9199    0.2343 H   0  0  0  0  0  0  0  0  0  0  0  0
    0.3007   -0.3454    1.3940 C   0  0  0  0  0  0  0  0  0  0  0  0
    0.5695   -1.4011    1.4539 H   0  0  0  0  0  0  0  0  0  0  0  0
    1.2219    0.2200    1.2469 H   0  0  0  0  0  0  0  0  0  0  0  0
   -0.3169    0.0360    2.7173 C   0  0  0  0  0  0  0  0  0  0  0  0
   -0.5108    1.3366    3.1844 N   0  0  0  0  0  0  0  0  0  0  0  0
   -1.1280    1.2155    4.3688 C   0  0  0  0  0  0  0  0  0  0  0  0
   -1.4109    2.0484    5.0001 H   0  0  0  0  0  0  0  0  0  0  0  0
   -1.3508   -0.0790    4.6517 N   0  0  0  0  0  0  0  0  0  0  0  0
   -1.8188   -0.4264    5.4776 H   0  0  0  0  0  0  0  0  0  0  0  0
   -0.8493   -0.8390    3.6186 C   0  0  0  0  0  0  0  0  0  0  0  0
   -0.8811   -1.9162    3.5142 H   0  0  0  0  0  0  0  0  0  0  0  0
    0.0488   -0.3261   -1.1544 C   0  0  0  0  0  0  0  0  0  0  0  0
   -0.4474    0.1384   -2.1807 O   0  0  0  0  0  0  0  0  0  0  0  0
    1.1958   -1.0127   -1.1619 N   0  0  0  0  0  0  0  0  0  0  0  0
    1.4761   -1.4489   -0.2906 H   0  0  0  0  0  0  0  0  0  0  0  0
    1.9926   -1.2920   -2.3542 C   0  0  0  0  0  0  0  0  0  0  0  0
    1.9462   -0.4452   -3.0437 H   0  0  0  0  0  0  0  0  0  0  0  0
    3.0321   -1.4668   -2.0729 H   0  0  0  0  0  0  0  0  0  0  0  0
    1.6000   -2.1775   -2.8567 H   0  0  0  0  0  0  0  0  0  0  0  0
  5  6  2  0  0  0  0
  5  7  1  0  0  0  0
  2  3  1  0  0  0  0
  2  4  1  0  0  0  0
  2  5  1  0  0  0  0
  1  2  1  0  0  0  0
 22 23  2  0  0  0  0
 22 24  1  0  0  0  0
 20 21  1  0  0  0  0
 18 19  1  0  0  0  0
 18 20  1  0  0  0  0
 16 17  1  0  0  0  0
 16 18  1  0  0  0  0
 15 16  2  0  0  0  0
 14 15  1  0  0  0  0
 14 20  2  0  0  0  0
 11 12  1  0  0  0  0
 11 13  1  0  0  0  0
 11 14  1  0  0  0  0
  9 10  1  0  0  0  0
  9 11  1  0  0  0  0
  9 22  1  0  0  0  0
  7  8  1  0  0  0  0
  7  9  1  0  0  0  0
 26 27  1  0  0  0  0
 26 28  1  0  0  0  0
 26 29  1  0  0  0  0
 24 25  1  0  0  0  0
 24 26  1  0  0  0  0
M  END
$$$$
default_name
  -OEChem-01062215323D

 29 29  0     1  0  0  0  0  0999 V2000
   -2.9561   -3.9186    1.3887 H   0  0  0  0  0  0  0  0  0  0  0  0
   -3.1191   -2.9346    0.9517 C   0  0  0  0  0  0  0  0  0  0  0  0
   -3.7811   -2.3546    1.5917 H   0  0  0  0  0  0  0  0  0  0  0  0
   -3.5591   -3.0406   -0.0383 H   0  0  0  0  0  0  0  0  0  0  0  0
   -1.7921   -2.2226    0.8327 C   0  0  0  0  0  0  0  0  0  0  0  0
   -0.7611   -2.7766    1.1927 O   0  0  0  0  0  0  0  0  0  0  0  0
   -1.8201   -0.9926    0.3247 N   0  0  0  0  0  0  0  0  0  0  0  0
   -2.7141   -0.5816    0.0927 H   0  0  0  0  0  0  0  0  0  0  0  0
   -0.6481   -0.1156    0.2017 C   0  0  1  0  0  0  0  0  0  0  0  0
   -0.9928    0.9199    0.2343 H   0  0  0  0  0  0  0  0  0  0  0  0
    0.3007   -0.3454    1.3940 C   0  0  0  0  0  0  0  0  0  0  0  0
    0.5695   -1.4011    1.4539 H   0  0  0  0  0  0  0  0  0  0  0  0
    1.2219    0.2200    1.2469 H   0  0  0  0  0  0  0  0  0  0  0  0
   -0.3169    0.0360    2.7173 C   0  0  0  0  0  0  0  0  0  0  0  0
   -0.5108    1.3366    3.1844 N   0  0  0  0  0  0  0  0  0  0  0  0
   -1.1280    1.2155    4.3688 C   0  0  0  0  0  0  0  0  0  0  0  0
   -1.4109    2.0484    5.0001 H   0  0  0  0  0  0  0  0  0  0  0  0
   -1.3508   -0.0790    4.6517 N   0  0  0  0  0  0  0  0  0  0  0  0
   -1.8188   -0.4264    5.4776 H   0  0  0  0  0  0  0  0  0  0  0  0
   -0.8493   -0.8390    3.6186 C   0  0  0  0  0  0  0  0  0  0  0  0
   -0.8811   -1.9162    3.5142 H   0  0  0  0  0  0  0  0  0  0  0  0
    0.0488   -0.3261   -1.1544 C   0  0  0  0  0  0  0  0  0  0  0  0
   -0.2788    0.3531   -2.1274 O   0  0  0  0  0  0  0  0  0  0  0  0
    1.0100   -1.2528   -1.2201 N   0  0  0  0  0  0  0  0  0  0  0  0
    1.1415   -1.8375   -0.4023 H   0  0  0  0  0  0  0  0  0  0  0  0
    1.7805   -1.5714   -2.4198 C   0  0  0  0  0  0  0  0  0  0  0  0
    1.9605   -0.6642   -3.0024 H   0  0  0  0  0  0  0  0  0  0  0  0
    2.7386   -2.0113   -2.1393 H   0  0  0  0  0  0  0  0  0  0  0  0
    1.2231   -2.2800   -3.0345 H   0  0  0  0  0  0  0  0  0  0  0  0
  5  6  2  0  0  0  0
  5  7  1  0  0  0  0
  2  3  1  0  0  0  0
  2  4  1  0  0  0  0
  2  5  1  0  0  0  0
  1  2  1  0  0  0  0
 22 23  2  0  0  0  0
 22 24  1  0  0  0  0
 20 21  1  0  0  0  0
 18 19  1  0  0  0  0
 18 20  1  0  0  0  0
 16 17  1  0  0  0  0
 16 18  1  0  0  0  0
 15 16  2  0  0  0  0
 14 15  1  0  0  0  0
 14 20  2  0  0  0  0
 11 12  1  0  0  0  0
 11 13  1  0  0  0  0
 11 14  1  0  0  0  0
  9 10  1  0  0  0  0
  9 11  1  0  0  0  0
  9 22  1  0  0  0  0
  7  8  1  0  0  0  0
  7  9  1  0  0  0  0
 26 27  1  0  0  0  0
 26 28  1  0  0  0  0
 26 29  1  0  0  0  0
 24 25  1  0  0  0  0
 24 26  1  0  0  0  0
M  END
$$$$
default_name
  -OEChem-01062215323D

 29 29  0     1  0  0  0  0  0999 V2000
   -2.9561   -3.9186    1.3887 H   0  0  0  0  0  0  0  0  0  0  0  0
   -3.1191   -2.9346    0.9517 C   0  0  0  0  0  0  0  0  0  0  0  0
   -3.7811   -2.3546    1.5917 H   0  0  0  0  0  0  0  0  0  0  0  0
   -3.5591   -3.0406   -0.0383 H   0  0  0  0  0  0  0  0  0  0  0  0
   -1.7921   -2.2226    0.8327 C   0  0  0  0  0  0  0  0  0  0  0  0
   -0.7611   -2.7766    1.1927 O   0  0  0  0  0  0  0  0  0  0  0  0
   -1.8201   -0.9926    0.3247 N   0  0  0  0  0  0  0  0  0  0  0  0
   -2.7141   -0.5816    0.0927 H   0  0  0  0  0  0  0  0  0  0  0  0
   -0.6481   -0.1156    0.2017 C   0  0  1  0  0  0  0  0  0  0  0  0
   -0.9928    0.9199    0.2343 H   0  0  0  0  0  0  0  0  0  0  0  0
    0.3007   -0.3454    1.3940 C   0  0  0  0  0  0  0  0  0  0  0  0
    0.5695   -1.4011    1.4539 H   0  0  0  0  0  0  0  0  0  0  0  0
    1.2219    0.2200    1.2469 H   0  0  0  0  0  0  0  0  0  0  0  0
   -0.3169    0.0360    2.7173 C   0  0  0  0  0  0  0  0  0  0  0  0
   -0.5108    1.3366    3.1844 N   0  0  0  0  0  0  0  0  0  0  0  0
   -1.1280    1.2155    4.3688 C   0  0  0  0  0  0  0  0  0  0  0  0
   -1.4109    2.0484    5.0001 H   0  0  0  0  0  0  0  0  0  0  0  0
   -1.3508   -0.0790    4.6517 N   0  0  0  0  0  0  0  0  0  0  0  0
   -1.8188   -0.4264    5.4776 H   0  0  0  0  0  0  0  0  0  0  0  0
   -0.8493   -0.8390    3.6186 C   0  0  0  0  0  0  0  0  0  0  0  0
   -0.8811   -1.9162    3.5142 H   0  0  0  0  0  0  0  0  0  0  0  0
    0.0488   -0.3261   -1.1544 C   0  0  0  0  0  0  0  0  0  0  0  0
   -0.0688    0.5158   -2.0447 O   0  0  0  0  0  0  0  0  0  0  0  0
    0.7778   -1.4356   -1.3111 N   0  0  0  0  0  0  0  0  0  0  0  0
    0.7336   -2.1235   -0.5676 H   0  0  0  0  0  0  0  0  0  0  0  0
    1.5143   -1.7852   -2.5235 C   0  0  0  0  0  0  0  0  0  0  0  0
    1.9228   -0.8839   -2.9876 H   0  0  0  0  0  0  0  0  0  0  0  0
    2.3333   -2.4626   -2.2775 H   0  0  0  0  0  0  0  0  0  0  0  0
    0.8420   -2.2723   -3.2316 H   0  0  0  0  0  0  0  0  0  0  0  0
  5  6  2  0  0  0  0
  5  7  1  0  0  0  0
  2  3  1  0  0  0  0
  2  4  1  0  0  0  0
  2  5  1  0  0  0  0
  1  2  1  0  0  0  0
 22 23  2  0  0  0  0
 22 24  1  0  0  0  0
 20 21  1  0  0  0  0
 18 19  1  0  0  0  0
 18 20  1  0  0  0  0
 16 17  1  0  0  0  0
 16 18  1  0  0  0  0
 15 16  2  0  0  0  0
 14 15  1  0  0  0  0
 14 20  2  0  0  0  0
 11 12  1  0  0  0  0
 11 13  1  0  0  0  0
 11 14  1  0  0  0  0
  9 10  1  0  0  0  0
  9 11  1  0  0  0  0
  9 22  1  0  0  0  0
  7  8  1  0  0  0  0
  7  9  1  0  0  0  0
 26 27  1  0  0  0  0
 26 28  1  0  0  0  0
 26 29  1  0  0  0  0
 24 25  1  0  0  0  0
 24 26  1  0  0  0  0
M  END
$$$$
default_name
  -OEChem-01062215323D

 29 29  0     1  0  0  0  0  0999 V2000
   -2.9561   -3.9186    1.3887 H   0  0  0  0  0  0  0  0  0  0  0  0
   -3.1191   -2.9346    0.9517 C   0  0  0  0  0  0  0  0  0  0  0  0
   -3.7811   -2.3546    1.5917 H   0  0  0  0  0  0  0  0  0  0  0  0
   -3.5591   -3.0406   -0.0383 H   0  0  0  0  0  0  0  0  0  0  0  0
   -1.7921   -2.2226    0.8327 C   0  0  0  0  0  0  0  0  0  0  0  0
   -0.7611   -2.7766    1.1927 O   0  0  0  0  0  0  0  0  0  0  0  0
   -1.8201   -0.9926    0.3247 N   0  0  0  0  0  0  0  0  0  0  0  0
   -2.7141   -0.5816    0.0927 H   0  0  0  0  0  0  0  0  0  0  0  0
   -0.6481   -0.1156    0.2017 C   0  0  1  0  0  0  0  0  0  0  0  0
   -0.9928    0.9199    0.2343 H   0  0  0  0  0  0  0  0  0  0  0  0
    0.3007   -0.3454    1.3940 C   0  0  0  0  0  0  0  0  0  0  0  0
    0.5695   -1.4011    1.4539 H   0  0  0  0  0  0  0  0  0  0  0  0
    1.2219    0.2200    1.2469 H   0  0  0  0  0  0  0  0  0  0  0  0
   -0.3169    0.0360    2.7173 C   0  0  0  0  0  0  0  0  0  0  0  0
   -0.5108    1.3366    3.1844 N   0  0  0  0  0  0  0  0  0  0  0  0
   -1.1280    1.2155    4.3688 C   0  0  0  0  0  0  0  0  0  0  0  0
   -1.4109    2.0484    5.0001 H   0  0  0  0  0  0  0  0  0  0  0  0
   -1.3508   -0.0790    4.6517 N   0  0  0  0  0  0  0  0  0  0  0  0
   -1.8188   -0.4264    5.4776 H   0  0  0  0  0  0  0  0  0  0  0  0
   -0.8493   -0.8390    3.6186 C   0  0  0  0  0  0  0  0  0  0  0  0
   -0.8811   -1.9162    3.5142 H   0  0  0  0  0  0  0  0  0  0  0  0
    0.0488   -0.3261   -1.1544 C   0  0  0  0  0  0  0  0  0  0  0  0
    0.1683    0.6154   -1.9384 O   0  0  0  0  0  0  0  0  0  0  0  0
    0.5151   -1.5485   -1.4286 N   0  0  0  0  0  0  0  0  0  0  0  0
    0.2802   -2.2873   -0.7751 H   0  0  0  0  0  0  0  0  0  0  0  0
    1.2120   -1.9188   -2.6581 C   0  0  0  0  0  0  0  0  0  0  0  0
    1.8359   -1.0892   -3.0005 H   0  0  0  0  0  0  0  0  0  0  0  0
    1.8437   -2.7899   -2.4783 H   0  0  0  0  0  0  0  0  0  0  0  0
    0.4826   -2.1549   -3.4346 H   0  0  0  0  0  0  0  0  0  0  0  0
  5  6  2  0  0  0  0
  5  7  1  0  0  0  0
  2  3  1  0  0  0  0
  2  4  1  0  0  0  0
  2  5  1  0  0  0  0
  1  2  1  0  0  0  0
 22 23  2  0  0  0  0
 22 24  1  0  0  0  0
 20 21  1  0  0  0  0
 18 19  1  0  0  0  0
 18 20  1  0  0  0  0
 16 17  1  0  0  0  0
 16 18  1  0  0  0  0
 15 16  2  0  0  0  0
 14 15  1  0  0  0  0
 14 20  2  0  0  0  0
 11 12  1  0  0  0  0
 11 13  1  0  0  0  0
 11 14  1  0  0  0  0
  9 10  1  0  0  0  0
  9 11  1  0  0  0  0
  9 22  1  0  0  0  0
  7  8  1  0  0  0  0
  7  9  1  0  0  0  0
 26 27  1  0  0  0  0
 26 28  1  0  0  0  0
 26 29  1  0  0  0  0
 24 25  1  0  0  0  0
 24 26  1  0  0  0  0
M  END
$$$$
default_name
  -OEChem-01062215323D

 29 29  0     1  0  0  0  0  0999 V2000
   -2.9561   -3.9186    1.3887 H   0  0  0  0  0  0  0  0  0  0  0  0
   -3.1191   -2.9346    0.9517 C   0  0  0  0  0  0  0  0  0  0  0  0
   -3.7811   -2.3546    1.5917 H   0  0  0  0  0  0  0  0  0  0  0  0
   -3.5591   -3.0406   -0.0383 H   0  0  0  0  0  0  0  0  0  0  0  0
   -1.7921   -2.2226    0.8327 C   0  0  0  0  0  0  0  0  0  0  0  0
   -0.7611   -2.7766    1.1927 O   0  0  0  0  0  0  0  0  0  0  0  0
   -1.8201   -0.9926    0.3247 N   0  0  0  0  0  0  0  0  0  0  0  0
   -2.7141   -0.5816    0.0927 H   0  0  0  0  0  0  0  0  0  0  0  0
   -0.6481   -0.1156    0.2017 C   0  0  1  0  0  0  0  0  0  0  0  0
   -0.9928    0.9199    0.2343 H   0  0  0  0  0  0  0  0  0  0  0  0
    0.3007   -0.3454    1.3940 C   0  0  0  0  0  0  0  0  0  0  0  0
    0.5695   -1.4011    1.4539 H   0  0  0  0  0  0  0  0  0  0  0  0
    1.2219    0.2200    1.2469 H   0  0  0  0  0  0  0  0  0  0  0  0
   -0.3169    0.0360    2.7173 C   0  0  0  0  0  0  0  0  0  0  0  0
   -0.5108    1.3366    3.1844 N   0  0  0  0  0  0  0  0  0  0  0  0
   -1.1280    1.2155    4.3688 C   0  0  0  0  0  0  0  0  0  0  0  0
   -1.4109    2.0484    5.0001 H   0  0  0  0  0  0  0  0  0  0  0  0
   -1.3508   -0.0790    4.6517 N   0  0  0  0  0  0  0  0  0  0  0  0
   -1.8188   -0.4264    5.4776 H   0  0  0  0  0  0  0  0  0  0  0  0
   -0.8493   -0.8390    3.6186 C   0  0  0  0  0  0  0  0  0  0  0  0
   -0.8811   -1.9162    3.5142 H   0  0  0  0  0  0  0  0  0  0  0  0
    0.0488   -0.3261   -1.1544 C   0  0  0  0  0  0  0  0  0  0  0  0
    0.4161    0.6451   -1.8156 O   0  0  0  0  0  0  0  0  0  0  0  0
    0.2397   -1.5839   -1.5646 N   0  0  0  0  0  0  0  0  0  0  0  0
   -0.1877   -2.3179   -1.0109 H   0  0  0  0  0  0  0  0  0  0  0  0
    0.8944   -1.9632   -2.8144 C   0  0  0  0  0  0  0  0  0  0  0  0
    1.7055   -1.2662   -3.0400 H   0  0  0  0  0  0  0  0  0  0  0  0
    1.3034   -2.9709   -2.7280 H   0  0  0  0  0  0  0  0  0  0  0  0
    0.1694   -1.9357   -3.6296 H   0  0  0  0  0  0  0  0  0  0  0  0
  5  6  2  0  0  0  0
  5  7  1  0  0  0  0
  2  3  1  0  0  0  0
  2  4  1  0  0  0  0
  2  5  1  0  0  0  0
  1  2  1  0  0  0  0
 22 23  2  0  0  0  0
 22 24  1  0  0  0  0
 20 21  1  0  0  0  0
 18 19  1  0  0  0  0
 18 20  1  0  0  0  0
 16 17  1  0  0  0  0
 16 18  1  0  0  0  0
 15 16  2  0  0  0  0
 14 15  1  0  0  0  0
 14 20  2  0  0  0  0
 11 12  1  0  0  0  0
 11 13  1  0  0  0  0
 11 14  1  0  0  0  0
  9 10  1  0  0  0  0
  9 11  1  0  0  0  0
  9 22  1  0  0  0  0
  7  8  1  0  0  0  0
  7  9  1  0  0  0  0
 26 27  1  0  0  0  0
 26 28  1  0  0  0  0
 26 29  1  0  0  0  0
 24 25  1  0  0  0  0
 24 26  1  0  0  0  0
M  END
$$$$
default_name
  -OEChem-01062215323D

 29 29  0     1  0  0  0  0  0999 V2000
   -2.9561   -3.9186    1.3887 H   0  0  0  0  0  0  0  0  0  0  0  0
   -3.1191   -2.9346    0.9517 C   0  0  0  0  0  0  0  0  0  0  0  0
   -3.7811   -2.3546    1.5917 H   0  0  0  0  0  0  0  0  0  0  0  0
   -3.5591   -3.0406   -0.0383 H   0  0  0  0  0  0  0  0  0  0  0  0
   -1.7921   -2.2226    0.8327 C   0  0  0  0  0  0  0  0  0  0  0  0
   -0.7611   -2.7766    1.1927 O   0  0  0  0  0  0  0  0  0  0  0  0
   -1.8201   -0.9926    0.3247 N   0  0  0  0  0  0  0  0  0  0  0  0
   -2.7141   -0.5816    0.0927 H   0  0  0  0  0  0  0  0  0  0  0  0
   -0.6481   -0.1156    0.2017 C   0  0  1  0  0  0  0  0  0  0  0  0
   -0.9928    0.9199    0.2343 H   0  0  0  0  0  0  0  0  0  0  0  0
    0.3007   -0.3454    1.3940 C   0  0  0  0  0  0  0  0  0  0  0  0
    0.5695   -1.4011    1.4539 H   0  0  0  0  0  0  0  0  0  0  0  0
    1.2219    0.2200    1.2469 H   0  0  0  0  0  0  0  0  0  0  0  0
   -0.3169    0.0360    2.7173 C   0  0  0  0  0  0  0  0  0  0  0  0
   -0.5108    1.3366    3.1844 N   0  0  0  0  0  0  0  0  0  0  0  0
   -1.1280    1.2155    4.3688 C   0  0  0  0  0  0  0  0  0  0  0  0
   -1.4109    2.0484    5.0001 H   0  0  0  0  0  0  0  0  0  0  0  0
   -1.3508   -0.0790    4.6517 N   0  0  0  0  0  0  0  0  0  0  0  0
   -1.8188   -0.4264    5.4776 H   0  0  0  0  0  0  0  0  0  0  0  0
   -0.8493   -0.8390    3.6186 C   0  0  0  0  0  0  0  0  0  0  0  0
   -0.8811   -1.9162    3.5142 H   0  0  0  0  0  0  0  0  0  0  0  0
    0.0488   -0.3261   -1.1544 C   0  0  0  0  0  0  0  0  0  0  0  0
    0.6580    0.6029   -1.6847 O   0  0  0  0  0  0  0  0  0  0  0  0
   -0.0295   -1.5394   -1.7099 N   0  0  0  0  0  0  0  0  0  0  0  0
   -0.6383   -2.2131   -1.2588 H   0  0  0  0  0  0  0  0  0  0  0  0
    0.5830   -1.9153   -2.9819 C   0  0  0  0  0  0  0  0  0  0  0  0
    1.5407   -1.4027   -3.1035 H   0  0  0  0  0  0  0  0  0  0  0  0
    0.7490   -2.9932   -3.0095 H   0  0  0  0  0  0  0  0  0  0  0  0
   -0.0762   -1.6296   -3.8033 H   0  0  0  0  0  0  0  0  0  0  0  0
  5  6  2  0  0  0  0
  5  7  1  0  0  0  0
  2  3  1  0  0  0  0
  2  4  1  0  0  0  0
  2  5  1  0  0  0  0
  1  2  1  0  0  0  0
 22 23  2  0  0  0  0
 22 24  1  0  0  0  0
 20 21  1  0  0  0  0
 18 19  1  0  0  0  0
 18 20  1  0  0  0  0
 16 17  1  0  0  0  0
 16 18  1  0  0  0  0
 15 16  2  0  0  0  0
 14 15  1  0  0  0  0
 14 20  2  0  0  0  0
 11 12  1  0  0  0  0
 11 13  1  0  0  0  0
 11 14  1  0  0  0  0
  9 10  1  0  0  0  0
  9 11  1  0  0  0  0
  9 22  1  0  0  0  0
  7  8  1  0  0  0  0
  7  9  1  0  0  0  0
 26 27  1  0  0  0  0
 26 28  1  0  0  0  0
 26 29  1  0  0  0  0
 24 25  1  0  0  0  0
 24 26  1  0  0  0  0
M  END
$$$$
default_name
  -OEChem-01062215323D

 29 29  0     1  0  0  0  0  0999 V2000
   -2.9561   -3.9186    1.3887 H   0  0  0  0  0  0  0  0  0  0  0  0
   -3.1191   -2.9346    0.9517 C   0  0  0  0  0  0  0  0  0  0  0  0
   -3.7811   -2.3546    1.5917 H   0  0  0  0  0  0  0  0  0  0  0  0
   -3.5591   -3.0406   -0.0383 H   0  0  0  0  0  0  0  0  0  0  0  0
   -1.7921   -2.2226    0.8327 C   0  0  0  0  0  0  0  0  0  0  0  0
   -0.7611   -2.7766    1.1927 O   0  0  0  0  0  0  0  0  0  0  0  0
   -1.8201   -0.9926    0.3247 N   0  0  0  0  0  0  0  0  0  0  0  0
   -2.7141   -0.5816    0.0927 H   0  0  0  0  0  0  0  0  0  0  0  0
   -0.6481   -0.1156    0.2017 C   0  0  1  0  0  0  0  0  0  0  0  0
   -0.9928    0.9199    0.2343 H   0  0  0  0  0  0  0  0  0  0  0  0
    0.3007   -0.3454    1.3940 C   0  0  0  0  0  0  0  0  0  0  0  0
    0.5695   -1.4011    1.4539 H   0  0  0  0  0  0  0  0  0  0  0  0
    1.2219    0.2200    1.2469 H   0  0  0  0  0  0  0  0  0  0  0  0
   -0.3169    0.0360    2.7173 C   0  0  0  0  0  0  0  0  0  0  0  0
   -0.5108    1.3366    3.1844 N   0  0  0  0  0  0  0  0  0  0  0  0
   -1.1280    1.2155    4.3688 C   0  0  0  0  0  0  0  0  0  0  0  0
   -1.4109    2.0484    5.0001 H   0  0  0  0  0  0  0  0  0  0  0  0
   -1.3508   -0.0790    4.6517 N   0  0  0  0  0  0  0  0  0  0  0  0
   -1.8188   -0.4264    5.4776 H   0  0  0  0  0  0  0  0  0  0  0  0
   -0.8493   -0.8390    3.6186 C   0  0  0  0  0  0  0  0  0  0  0  0
   -0.8811   -1.9162    3.5142 H   0  0  0  0  0  0  0  0  0  0  0  0
    0.0488   -0.3261   -1.1544 C   0  0  0  0  0  0  0  0  0  0  0  0
    0.8774    0.4916   -1.5547 O   0  0  0  0  0  0  0  0  0  0  0  0
   -0.2743   -1.4180   -1.8545 N   0  0  0  0  0  0  0  0  0  0  0  0
   -1.0409   -1.9800   -1.5018 H   0  0  0  0  0  0  0  0  0  0  0  0
    0.2990   -1.7784   -3.1491 C   0  0  0  0  0  0  0  0  0  0  0  0
    1.3525   -1.4896   -3.1867 H   0  0  0  0  0  0  0  0  0  0  0  0
    0.2183   -2.8553   -3.3036 H   0  0  0  0  0  0  0  0  0  0  0  0
   -0.2375   -1.2577   -3.9440 H   0  0  0  0  0  0  0  0  0  0  0  0
  5  6  2  0  0  0  0
  5  7  1  0  0  0  0
  2  3  1  0  0  0  0
  2  4  1  0  0  0  0
  2  5  1  0  0  0  0
  1  2  1  0  0  0  0
 22 23  2  0  0  0  0
 22 24  1  0  0  0  0
 20 21  1  0  0  0  0
 18 19  1  0  0  0  0
 18 20  1  0  0  0  0
 16 17  1  0  0  0  0
 16 18  1  0  0  0  0
 15 16  2  0  0  0  0
 14 15  1  0  0  0  0
 14 20  2  0  0  0  0
 11 12  1  0  0  0  0
 11 13  1  0  0  0  0
 11 14  1  0  0  0  0
  9 10  1  0  0  0  0
  9 11  1  0  0  0  0
  9 22  1  0  0  0  0
  7  8  1  0  0  0  0
  7  9  1  0  0  0  0
 26 27  1  0  0  0  0
 26 28  1  0  0  0  0
 26 29  1  0  0  0  0
 24 25  1  0  0  0  0
 24 26  1  0  0  0  0
M  END
$$$$
default_name
  -OEChem-01062215323D

 29 29  0     1  0  0  0  0  0999 V2000
   -2.9561   -3.9186    1.3887 H   0  0  0  0  0  0  0  0  0  0  0  0
   -3.1191   -2.9346    0.9517 C   0  0  0  0  0  0  0  0  0  0  0  0
   -3.7811   -2.3546    1.5917 H   0  0  0  0  0  0  0  0  0  0  0  0
   -3.5591   -3.0406   -0.0383 H   0  0  0  0  0  0  0  0  0  0  0  0
   -1.7921   -2.2226    0.8327 C   0  0  0  0  0  0  0  0  0  0  0  0
   -0.7611   -2.7766    1.1927 O   0  0  0  0  0  0  0  0  0  0  0  0
   -1.8201   -0.9926    0.3247 N   0  0  0  0  0  0  0  0  0  0  0  0
   -2.7141   -0.5816    0.0927 H   0  0  0  0  0  0  0  0  0  0  0  0
   -0.6481   -0.1156    0.2017 C   0  0  1  0  0  0  0  0  0  0  0  0
   -0.9928    0.9199    0.2343 H   0  0  0  0  0  0  0  0  0  0  0  0
    0.3007   -0.3454    1.3940 C   0  0  0  0  0  0  0  0  0  0  0  0
    0.5695   -1.4011    1.4539 H   0  0  0  0  0  0  0  0  0  0  0  0
    1.2219    0.2200    1.2469 H   0  0  0  0  0  0  0  0  0  0  0  0
   -0.3169    0.0360    2.7173 C   0  0  0  0  0  0  0  0  0  0  0  0
   -0.5108    1.3366    3.1844 N   0  0  0  0  0  0  0  0  0  0  0  0
   -1.1280    1.2155    4.3688 C   0  0  0  0  0  0  0  0  0  0  0  0
   -1.4109    2.0484    5.0001 H   0  0  0  0  0  0  0  0  0  0  0  0
   -1.3508   -0.0790    4.6517 N   0  0  0  0  0  0  0  0  0  0  0  0
   -1.8188   -0.4264    5.4776 H   0  0  0  0  0  0  0  0  0  0  0  0
   -0.8493   -0.8390    3.6186 C   0  0  0  0  0  0  0  0  0  0  0  0
   -0.8811   -1.9162    3.5142 H   0  0  0  0  0  0  0  0  0  0  0  0
    0.0488   -0.3261   -1.1544 C   0  0  0  0  0  0  0  0  0  0  0  0
    1.0593    0.3189   -1.4343 O   0  0  0  0  0  0  0  0  0  0  0  0
   -0.4779   -1.2279   -1.9887 N   0  0  0  0  0  0  0  0  0  0  0  0
   -1.3680   -1.6346   -1.7236 H   0  0  0  0  0  0  0  0  0  0  0  0
    0.0619   -1.5618   -3.3046 C   0  0  0  0  0  0  0  0  0  0  0  0
    1.1539   -1.5209   -3.2839 H   0  0  0  0  0  0  0  0  0  0  0  0
   -0.2524   -2.5667   -3.5903 H   0  0  0  0  0  0  0  0  0  0  0  0
   -0.3036   -0.8452   -4.0419 H   0  0  0  0  0  0  0  0  0  0  0  0
  5  6  2  0  0  0  0
  5  7  1  0  0  0  0
  2  3  1  0  0  0  0
  2  4  1  0  0  0  0
  2  5  1  0  0  0  0
  1  2  1  0  0  0  0
 22 23  2  0  0  0  0
 22 24  1  0  0  0  0
 20 21  1  0  0  0  0
 18 19  1  0  0  0  0
 18 20  1  0  0  0  0
 16 17  1  0  0  0  0
 16 18  1  0  0  0  0
 15 16  2  0  0  0  0
 14 15  1  0  0  0  0
 14 20  2  0  0  0  0
 11 12  1  0  0  0  0
 11 13  1  0  0  0  0
 11 14  1  0  0  0  0
  9 10  1  0  0  0  0
  9 11  1  0  0  0  0
  9 22  1  0  0  0  0
  7  8  1  0  0  0  0
  7  9  1  0  0  0  0
 26 27  1  0  0  0  0
 26 28  1  0  0  0  0
 26 29  1  0  0  0  0
 24 25  1  0  0  0  0
 24 26  1  0  0  0  0
M  END
$$$$
default_name
  -OEChem-01062215323D

 29 29  0     1  0  0  0  0  0999 V2000
   -2.9561   -3.9186    1.3887 H   0  0  0  0  0  0  0  0  0  0  0  0
   -3.1191   -2.9346    0.9517 C   0  0  0  0  0  0  0  0  0  0  0  0
   -3.7811   -2.3546    1.5917 H   0  0  0  0  0  0  0  0  0  0  0  0
   -3.5591   -3.0406   -0.0383 H   0  0  0  0  0  0  0  0  0  0  0  0
   -1.7921   -2.2226    0.8327 C   0  0  0  0  0  0  0  0  0  0  0  0
   -0.7611   -2.7766    1.1927 O   0  0  0  0  0  0  0  0  0  0  0  0
   -1.8201   -0.9926    0.3247 N   0  0  0  0  0  0  0  0  0  0  0  0
   -2.7141   -0.5816    0.0927 H   0  0  0  0  0  0  0  0  0  0  0  0
   -0.6481   -0.1156    0.2017 C   0  0  1  0  0  0  0  0  0  0  0  0
   -0.9928    0.9199    0.2343 H   0  0  0  0  0  0  0  0  0  0  0  0
    0.3007   -0.3454    1.3940 C   0  0  0  0  0  0  0  0  0  0  0  0
    0.5695   -1.4011    1.4539 H   0  0  0  0  0  0  0  0  0  0  0  0
    1.2219    0.2200    1.2469 H   0  0  0  0  0  0  0  0  0  0  0  0
   -0.3169    0.0360    2.7173 C   0  0  0  0  0  0  0  0  0  0  0  0
   -0.5108    1.3366    3.1844 N   0  0  0  0  0  0  0  0  0  0  0  0
   -1.1280    1.2155    4.3688 C   0  0  0  0  0  0  0  0  0  0  0  0
   -1.4109    2.0484    5.0001 H   0  0  0  0  0  0  0  0  0  0  0  0
   -1.3508   -0.0790    4.6517 N   0  0  0  0  0  0  0  0  0  0  0  0
   -1.8188   -0.4264    5.4776 H   0  0  0  0  0  0  0  0  0  0  0  0
   -0.8493   -0.8390    3.6186 C   0  0  0  0  0  0  0  0  0  0  0  0
   -0.8811   -1.9162    3.5142 H   0  0  0  0  0  0  0  0  0  0  0  0
    0.0488   -0.3261   -1.1544 C   0  0  0  0  0  0  0  0  0  0  0  0
    1.1914    0.0964   -1.3319 O   0  0  0  0  0  0  0  0  0  0  0  0
   -0.6265   -0.9822   -2.1032 N   0  0  0  0  0  0  0  0  0  0  0  0
   -1.5974   -1.2004   -1.9089 H   0  0  0  0  0  0  0  0  0  0  0  0
   -0.1123   -1.2803   -3.4379 C   0  0  0  0  0  0  0  0  0  0  0  0
    0.9584   -1.4945   -3.3886 H   0  0  0  0  0  0  0  0  0  0  0  0
   -0.6310   -2.1470   -3.8501 H   0  0  0  0  0  0  0  0  0  0  0  0
   -0.2698   -0.4201   -4.0906 H   0  0  0  0  0  0  0  0  0  0  0  0
  5  6  2  0  0  0  0
  5  7  1  0  0  0  0
  2  3  1  0  0  0  0
  2  4  1  0  0  0  0
  2  5  1  0  0  0  0
  1  2  1  0  0  0  0
 22 23  2  0  0  0  0
 22 24  1  0  0  0  0
 20 21  1  0  0  0  0
 18 19  1  0  0  0  0
 18 20  1  0  0  0  0
 16 17  1  0  0  0  0
 16 18  1  0  0  0  0
 15 16  2  0  0  0  0
 14 15  1  0  0  0  0
 14 20  2  0  0  0  0
 11 12  1  0  0  0  0
 11 13  1  0  0  0  0
 11 14  1  0  0  0  0
  9 10  1  0  0  0  0
  9 11  1  0  0  0  0
  9 22  1  0  0  0  0
  7  8  1  0  0  0  0
  7  9  1  0  0  0  0
 26 27  1  0  0  0  0
 26 28  1  0  0  0  0
 26 29  1  0  0  0  0
 24 25  1  0  0  0  0
 24 26  1  0  0  0  0
M  END
$$$$
default_name
  -OEChem-01062215323D

 29 29  0     1  0  0  0  0  0999 V2000
   -2.9561   -3.9186    1.3887 H   0  0  0  0  0  0  0  0  0  0  0  0
   -3.1191   -2.9346    0.9517 C   0  0  0  0  0  0  0  0  0  0  0  0
   -3.7811   -2.3546    1.5917 H   0  0  0  0  0  0  0  0  0  0  0  0
   -3.5591   -3.0406   -0.0383 H   0  0  0  0  0  0  0  0  0  0  0  0
   -1.7921   -2.2226    0.8327 C   0  0  0  0  0  0  0  0  0  0  0  0
   -0.7611   -2.7766    1.1927 O   0  0  0  0  0  0  0  0  0  0  0  0
   -1.8201   -0.9926    0.3247 N   0  0  0  0  0  0  0  0  0  0  0  0
   -2.7141   -0.5816    0.0927 H   0  0  0  0  0  0  0  0  0  0  0  0
   -0.6481   -0.1156    0.2017 C   0  0  1  0  0  0  0  0  0  0  0  0
   -0.9928    0.9199    0.2343 H   0  0  0  0  0  0  0  0  0  0  0  0
    0.3007   -0.3454    1.3940 C   0  0  0  0  0  0  0  0  0  0  0  0
    0.5695   -1.4011    1.4539 H   0  0  0  0  0  0  0  0  0  0  0  0
    1.2219    0.2200    1.2469 H   0  0  0  0  0  0  0  0  0  0  0  0
   -0.3169    0.0360    2.7173 C   0  0  0  0  0  0  0  0  0  0  0  0
   -0.5108    1.3366    3.1844 N   0  0  0  0  0  0  0  0  0  0  0  0
   -1.1280    1.2155    4.3688 C   0  0  0  0  0  0  0  0  0  0  0  0
   -1.4109    2.0484    5.0001 H   0  0  0  0  0  0  0  0  0  0  0  0
   -1.3508   -0.0790    4.6517 N   0  0  0  0  0  0  0  0  0  0  0  0
   -1.8188   -0.4264    5.4776 H   0  0  0  0  0  0  0  0  0  0  0  0
   -0.8493   -0.8390    3.6186 C   0  0  0  0  0  0  0  0  0  0  0  0
   -0.8811   -1.9162    3.5142 H   0  0  0  0  0  0  0  0  0  0  0  0
    0.0488   -0.3261   -1.1544 C   0  0  0  0  0  0  0  0  0  0  0  0
    1.2646   -0.1606   -1.2544 O   0  0  0  0  0  0  0  0  0  0  0  0
   -0.7099   -0.6975   -2.1903 N   0  0  0  0  0  0  0  0  0  0  0  0
   -1.7133   -0.7070   -2.0451 H   0  0  0  0  0  0  0  0  0  0  0  0
   -0.2117   -0.9531   -3.5397 C   0  0  0  0  0  0  0  0  0  0  0  0
    0.7793   -1.4120   -3.4934 H   0  0  0  0  0  0  0  0  0  0  0  0
   -0.8919   -1.6248   -4.0653 H   0  0  0  0  0  0  0  0  0  0  0  0
   -0.1386   -0.0116   -4.0865 H   0  0  0  0  0  0  0  0  0  0  0  0
  5  6  2  0  0  0  0
  5  7  1  0  0  0  0
  2  3  1  0  0  0  0
  2  4  1  0  0  0  0
  2  5  1  0  0  0  0
  1  2  1  0  0  0  0
 22 23  2  0  0  0  0
 22 24  1  0  0  0  0
 20 21  1  0  0  0  0
 18 19  1  0  0  0  0
 18 20  1  0  0  0  0
 16 17  1  0  0  0  0
 16 18  1  0  0  0  0
 15 16  2  0  0  0  0
 14 15  1  0  0  0  0
 14 20  2  0  0  0  0
 11 12  1  0  0  0  0
 11 13  1  0  0  0  0
 11 14  1  0  0  0  0
  9 10  1  0  0  0  0
  9 11  1  0  0  0  0
  9 22  1  0  0  0  0
  7  8  1  0  0  0  0
  7  9  1  0  0  0  0
 26 27  1  0  0  0  0
 26 28  1  0  0  0  0
 26 29  1  0  0  0  0
 24 25  1  0  0  0  0
 24 26  1  0  0  0  0
M  END
$$$$
default_name
  -OEChem-01062215323D

 29 29  0     1  0  0  0  0  0999 V2000
   -2.9561   -3.9186    1.3887 H   0  0  0  0  0  0  0  0  0  0  0  0
   -3.1191   -2.9346    0.9517 C   0  0  0  0  0  0  0  0  0  0  0  0
   -3.7811   -2.3546    1.5917 H   0  0  0  0  0  0  0  0  0  0  0  0
   -3.5591   -3.0406   -0.0383 H   0  0  0  0  0  0  0  0  0  0  0  0
   -1.7921   -2.2226    0.8327 C   0  0  0  0  0  0  0  0  0  0  0  0
   -0.7611   -2.7766    1.1927 O   0  0  0  0  0  0  0  0  0  0  0  0
   -1.8201   -0.9926    0.3247 N   0  0  0  0  0  0  0  0  0  0  0  0
   -2.7141   -0.5816    0.0927 H   0  0  0  0  0  0  0  0  0  0  0  0
   -0.6481   -0.1156    0.2017 C   0  0  1  0  0  0  0  0  0  0  0  0
   -0.9928    0.9199    0.2343 H   0  0  0  0  0  0  0  0  0  0  0  0
    0.3007   -0.3454    1.3940 C   0  0  0  0  0  0  0  0  0  0  0  0
    0.5695   -1.4011    1.4539 H   0  0  0  0  0  0  0  0  0  0  0  0
    1.2219    0.2200    1.2469 H   0  0  0  0  0  0  0  0  0  0  0  0
   -0.3169    0.0360    2.7173 C   0  0  0  0  0  0  0  0  0  0  0  0
   -0.5108    1.3366    3.1844 N   0  0  0  0  0  0  0  0  0  0  0  0
   -1.1280    1.2155    4.3688 C   0  0  0  0  0  0  0  0  0  0  0  0
   -1.4109    2.0484    5.0001 H   0  0  0  0  0  0  0  0  0  0  0  0
   -1.3508   -0.0790    4.6517 N   0  0  0  0  0  0  0  0  0  0  0  0
   -1.8188   -0.4264    5.4776 H   0  0  0  0  0  0  0  0  0  0  0  0
   -0.8493   -0.8390    3.6186 C   0  0  0  0  0  0  0  0  0  0  0  0
   -0.8811   -1.9162    3.5142 H   0  0  0  0  0  0  0  0  0  0  0  0
    0.0488   -0.3261   -1.1544 C   0  0  0  0  0  0  0  0  0  0  0  0
    1.2739   -0.4346   -1.2071 O   0  0  0  0  0  0  0  0  0  0  0  0
   -0.7225   -0.3933   -2.2440 N   0  0  0  0  0  0  0  0  0  0  0  0
   -1.7080   -0.1880   -2.1229 H   0  0  0  0  0  0  0  0  0  0  0  0
   -0.2294   -0.6024   -3.6033 C   0  0  0  0  0  0  0  0  0  0  0  0
    0.6288   -1.2793   -3.5914 H   0  0  0  0  0  0  0  0  0  0  0  0
   -1.0172   -1.0356   -4.2211 H   0  0  0  0  0  0  0  0  0  0  0  0
    0.0812    0.3527   -4.0301 H   0  0  0  0  0  0  0  0  0  0  0  0
  5  6  2  0  0  0  0
  5  7  1  0  0  0  0
  2  3  1  0  0  0  0
  2  4  1  0  0  0  0
  2  5  1  0  0  0  0
  1  2  1  0  0  0  0
 22 23  2  0  0  0  0
 22 24  1  0  0  0  0
 20 21  1  0  0  0  0
 18 19  1  0  0  0  0
 18 20  1  0  0  0  0
 16 17  1  0  0  0  0
 16 18  1  0  0  0  0
 15 16  2  0  0  0  0
 14 15  1  0  0  0  0
 14 20  2  0  0  0  0
 11 12  1  0  0  0  0
 11 13  1  0  0  0  0
 11 14  1  0  0  0  0
  9 10  1  0  0  0  0
  9 11  1  0  0  0  0
  9 22  1  0  0  0  0
  7  8  1  0  0  0  0
  7  9  1  0  0  0  0
 26 27  1  0  0  0  0
 26 28  1  0  0  0  0
 26 29  1  0  0  0  0
 24 25  1  0  0  0  0
 24 26  1  0  0  0  0
M  END
$$$$
default_name
  -OEChem-01062215323D

 29 29  0     1  0  0  0  0  0999 V2000
   -2.9561   -3.9186    1.3887 H   0  0  0  0  0  0  0  0  0  0  0  0
   -3.1191   -2.9346    0.9517 C   0  0  0  0  0  0  0  0  0  0  0  0
   -3.7811   -2.3546    1.5917 H   0  0  0  0  0  0  0  0  0  0  0  0
   -3.5591   -3.0406   -0.0383 H   0  0  0  0  0  0  0  0  0  0  0  0
   -1.7921   -2.2226    0.8327 C   0  0  0  0  0  0  0  0  0  0  0  0
   -0.7611   -2.7766    1.1927 O   0  0  0  0  0  0  0  0  0  0  0  0
   -1.8201   -0.9926    0.3247 N   0  0  0  0  0  0  0  0  0  0  0  0
   -2.7141   -0.5816    0.0927 H   0  0  0  0  0  0  0  0  0  0  0  0
   -0.6481   -0.1156    0.2017 C   0  0  1  0  0  0  0  0  0  0  0  0
   -0.9928    0.9199    0.2343 H   0  0  0  0  0  0  0  0  0  0  0  0
    0.3007   -0.3454    1.3940 C   0  0  0  0  0  0  0  0  0  0  0  0
    0.5695   -1.4011    1.4539 H   0  0  0  0  0  0  0  0  0  0  0  0
    1.2219    0.2200    1.2469 H   0  0  0  0  0  0  0  0  0  0  0  0
   -0.3169    0.0360    2.7173 C   0  0  0  0  0  0  0  0  0  0  0  0
   -0.5108    1.3366    3.1844 N   0  0  0  0  0  0  0  0  0  0  0  0
   -1.1280    1.2155    4.3688 C   0  0  0  0  0  0  0  0  0  0  0  0
   -1.4109    2.0484    5.0001 H   0  0  0  0  0  0  0  0  0  0  0  0
   -1.3508   -0.0790    4.6517 N   0  0  0  0  0  0  0  0  0  0  0  0
   -1.8188   -0.4264    5.4776 H   0  0  0  0  0  0  0  0  0  0  0  0
   -0.8493   -0.8390    3.6186 C   0  0  0  0  0  0  0  0  0  0  0  0
   -0.8811   -1.9162    3.5142 H   0  0  0  0  0  0  0  0  0  0  0  0
    0.0488   -0.3261   -1.1544 C   0  0  0  0  0  0  0  0  0  0  0  0
    1.2188   -0.7069   -1.1931 O   0  0  0  0  0  0  0  0  0  0  0  0
   -0.6634   -0.0903   -2.2607 N   0  0  0  0  0  0  0  0  0  0  0  0
   -1.5818    0.3213   -2.1371 H   0  0  0  0  0  0  0  0  0  0  0  0
   -0.1643   -0.2522   -3.6242 C   0  0  0  0  0  0  0  0  0  0  0  0
    0.5171   -1.1053   -3.6758 H   0  0  0  0  0  0  0  0  0  0  0  0
   -0.9984   -0.4197   -4.3071 H   0  0  0  0  0  0  0  0  0  0  0  0
    0.3746    0.6477   -3.9251 H   0  0  0  0  0  0  0  0  0  0  0  0
  5  6  2  0  0  0  0
  5  7  1  0  0  0  0
  2  3  1  0  0  0  0
  2  4  1  0  0  0  0
  2  5  1  0  0  0  0
  1  2  1  0  0  0  0
 22 23  2  0  0  0  0
 22 24  1  0  0  0  0
 20 21  1  0  0  0  0
 18 19  1  0  0  0  0
 18 20  1  0  0  0  0
 16 17  1  0  0  0  0
 16 18  1  0  0  0  0
 15 16  2  0  0  0  0
 14 15  1  0  0  0  0
 14 20  2  0  0  0  0
 11 12  1  0  0  0  0
 11 13  1  0  0  0  0
 11 14  1  0  0  0  0
  9 10  1  0  0  0  0
  9 11  1  0  0  0  0
  9 22  1  0  0  0  0
  7  8  1  0  0  0  0
  7  9  1  0  0  0  0
 26 27  1  0  0  0  0
 26 28  1  0  0  0  0
 26 29  1  0  0  0  0
 24 25  1  0  0  0  0
 24 26  1  0  0  0  0
M  END
$$$$
default_name
  -OEChem-01062215323D

 29 29  0     1  0  0  0  0  0999 V2000
   -2.9561   -3.9186    1.3887 H   0  0  0  0  0  0  0  0  0  0  0  0
   -3.1191   -2.9346    0.9517 C   0  0  0  0  0  0  0  0  0  0  0  0
   -3.7811   -2.3546    1.5917 H   0  0  0  0  0  0  0  0  0  0  0  0
   -3.5591   -3.0406   -0.0383 H   0  0  0  0  0  0  0  0  0  0  0  0
   -1.7921   -2.2226    0.8327 C   0  0  0  0  0  0  0  0  0  0  0  0
   -0.7611   -2.7766    1.1927 O   0  0  0  0  0  0  0  0  0  0  0  0
   -1.8201   -0.9926    0.3247 N   0  0  0  0  0  0  0  0  0  0  0  0
   -2.7141   -0.5816    0.0927 H   0  0  0  0  0  0  0  0  0  0  0  0
   -0.6481   -0.1156    0.2017 C   0  0  1  0  0  0  0  0  0  0  0  0
   -0.9928    0.9199    0.2343 H   0  0  0  0  0  0  0  0  0  0  0  0
    0.3007   -0.3454    1.3940 C   0  0  0  0  0  0  0  0  0  0  0  0
    0.5695   -1.4011    1.4539 H   0  0  0  0  0  0  0  0  0  0  0  0
    1.2219    0.2200    1.2469 H   0  0  0  0  0  0  0  0  0  0  0  0
   -0.3169    0.0360    2.7173 C   0  0  0  0  0  0  0  0  0  0  0  0
   -0.5108    1.3366    3.1844 N   0  0  0  0  0  0  0  0  0  0  0  0
   -1.1280    1.2155    4.3688 C   0  0  0  0  0  0  0  0  0  0  0  0
   -1.4109    2.0484    5.0001 H   0  0  0  0  0  0  0  0  0  0  0  0
   -1.3508   -0.0790    4.6517 N   0  0  0  0  0  0  0  0  0  0  0  0
   -1.8188   -0.4264    5.4776 H   0  0  0  0  0  0  0  0  0  0  0  0
   -0.8493   -0.8390    3.6186 C   0  0  0  0  0  0  0  0  0  0  0  0
   -0.8811   -1.9162    3.5142 H   0  0  0  0  0  0  0  0  0  0  0  0
    0.0488   -0.3261   -1.1544 C   0  0  0  0  0  0  0  0  0  0  0  0
    1.1030   -0.9591   -1.2135 O   0  0  0  0  0  0  0  0  0  0  0  0
   -0.5367    0.1909   -2.2392 N   0  0  0  0  0  0  0  0  0  0  0  0
   -1.3432    0.7860   -2.0866 H   0  0  0  0  0  0  0  0  0  0  0  0
   -0.0208    0.0737   -3.6010 C   0  0  0  0  0  0  0  0  0  0  0  0
    0.4519   -0.9018   -3.7409 H   0  0  0  0  0  0  0  0  0  0  0  0
   -0.8367    0.1810   -4.3172 H   0  0  0  0  0  0  0  0  0  0  0  0
    0.7215    0.8536   -3.7788 H   0  0  0  0  0  0  0  0  0  0  0  0
  5  6  2  0  0  0  0
  5  7  1  0  0  0  0
  2  3  1  0  0  0  0
  2  4  1  0  0  0  0
  2  5  1  0  0  0  0
  1  2  1  0  0  0  0
 22 23  2  0  0  0  0
 22 24  1  0  0  0  0
 20 21  1  0  0  0  0
 18 19  1  0  0  0  0
 18 20  1  0  0  0  0
 16 17  1  0  0  0  0
 16 18  1  0  0  0  0
 15 16  2  0  0  0  0
 14 15  1  0  0  0  0
 14 20  2  0  0  0  0
 11 12  1  0  0  0  0
 11 13  1  0  0  0  0
 11 14  1  0  0  0  0
  9 10  1  0  0  0  0
  9 11  1  0  0  0  0
  9 22  1  0  0  0  0
  7  8  1  0  0  0  0
  7  9  1  0  0  0  0
 26 27  1  0  0  0  0
 26 28  1  0  0  0  0
 26 29  1  0  0  0  0
 24 25  1  0  0  0  0
 24 26  1  0  0  0  0
M  END
$$$$
default_name
  -OEChem-01062215323D

 29 29  0     1  0  0  0  0  0999 V2000
   -2.9561   -3.9186    1.3887 H   0  0  0  0  0  0  0  0  0  0  0  0
   -3.1191   -2.9346    0.9517 C   0  0  0  0  0  0  0  0  0  0  0  0
   -3.7811   -2.3546    1.5917 H   0  0  0  0  0  0  0  0  0  0  0  0
   -3.5591   -3.0406   -0.0383 H   0  0  0  0  0  0  0  0  0  0  0  0
   -1.7921   -2.2226    0.8327 C   0  0  0  0  0  0  0  0  0  0  0  0
   -0.7611   -2.7766    1.1927 O   0  0  0  0  0  0  0  0  0  0  0  0
   -1.8201   -0.9926    0.3247 N   0  0  0  0  0  0  0  0  0  0  0  0
   -2.7141   -0.5816    0.0927 H   0  0  0  0  0  0  0  0  0  0  0  0
   -0.6481   -0.1156    0.2017 C   0  0  1  0  0  0  0  0  0  0  0  0
   -0.9928    0.9199    0.2343 H   0  0  0  0  0  0  0  0  0  0  0  0
    0.3007   -0.3454    1.3940 C   0  0  0  0  0  0  0  0  0  0  0  0
    0.5695   -1.4011    1.4539 H   0  0  0  0  0  0  0  0  0  0  0  0
    1.2219    0.2200    1.2469 H   0  0  0  0  0  0  0  0  0  0  0  0
   -0.3169    0.0360    2.7173 C   0  0  0  0  0  0  0  0  0  0  0  0
   -0.5108    1.3366    3.1844 N   0  0  0  0  0  0  0  0  0  0  0  0
   -1.1280    1.2155    4.3688 C   0  0  0  0  0  0  0  0  0  0  0  0
   -1.4109    2.0484    5.0001 H   0  0  0  0  0  0  0  0  0  0  0  0
   -1.3508   -0.0790    4.6517 N   0  0  0  0  0  0  0  0  0  0  0  0
   -1.8188   -0.4264    5.4776 H   0  0  0  0  0  0  0  0  0  0  0  0
   -0.8493   -0.8390    3.6186 C   0  0  0  0  0  0  0  0  0  0  0  0
   -0.8811   -1.9162    3.5142 H   0  0  0  0  0  0  0  0  0  0  0  0
    0.0488   -0.3261   -1.1544 C   0  0  0  0  0  0  0  0  0  0  0  0
    0.9343   -1.1738   -1.2668 O   0  0  0  0  0  0  0  0  0  0  0  0
   -0.3509    0.4310   -2.1809 N   0  0  0  0  0  0  0  0  0  0  0  0
   -1.0086    1.1746   -1.9750 H   0  0  0  0  0  0  0  0  0  0  0  0
    0.1913    0.3531   -3.5354 C   0  0  0  0  0  0  0  0  0  0  0  0
    0.4377   -0.6828   -3.7822 H   0  0  0  0  0  0  0  0  0  0  0  0
   -0.5432    0.7255   -4.2509 H   0  0  0  0  0  0  0  0  0  0  0  0
    1.0984    0.9561   -3.6010 H   0  0  0  0  0  0  0  0  0  0  0  0
  5  6  2  0  0  0  0
  5  7  1  0  0  0  0
  2  3  1  0  0  0  0
  2  4  1  0  0  0  0
  2  5  1  0  0  0  0
  1  2  1  0  0  0  0
 22 23  2  0  0  0  0
 22 24  1  0  0  0  0
 20 21  1  0  0  0  0
 18 19  1  0  0  0  0
 18 20  1  0  0  0  0
 16 17  1  0  0  0  0
 16 18  1  0  0  0  0
 15 16  2  0  0  0  0
 14 15  1  0  0  0  0
 14 20  2  0  0  0  0
 11 12  1  0  0  0  0
 11 13  1  0  0  0  0
 11 14  1  0  0  0  0
  9 10  1  0  0  0  0
  9 11  1  0  0  0  0
  9 22  1  0  0  0  0
  7  8  1  0  0  0  0
  7  9  1  0  0  0  0
 26 27  1  0  0  0  0
 26 28  1  0  0  0  0
 26 29  1  0  0  0  0
 24 25  1  0  0  0  0
 24 26  1  0  0  0  0
M  END
$$$$
default_name
  -OEChem-01062215323D

 29 29  0     1  0  0  0  0  0999 V2000
   -2.9561   -3.9186    1.3887 H   0  0  0  0  0  0  0  0  0  0  0  0
   -3.1191   -2.9346    0.9517 C   0  0  0  0  0  0  0  0  0  0  0  0
   -3.7811   -2.3546    1.5917 H   0  0  0  0  0  0  0  0  0  0  0  0
   -3.5591   -3.0406   -0.0383 H   0  0  0  0  0  0  0  0  0  0  0  0
   -1.7921   -2.2226    0.8327 C   0  0  0  0  0  0  0  0  0  0  0  0
   -0.7611   -2.7766    1.1927 O   0  0  0  0  0  0  0  0  0  0  0  0
   -1.8201   -0.9926    0.3247 N   0  0  0  0  0  0  0  0  0  0  0  0
   -2.7141   -0.5816    0.0927 H   0  0  0  0  0  0  0  0  0  0  0  0
   -0.6481   -0.1156    0.2017 C   0  0  1  0  0  0  0  0  0  0  0  0
   -0.9928    0.9199    0.2343 H   0  0  0  0  0  0  0  0  0  0  0  0
    0.3007   -0.3454    1.3940 C   0  0  0  0  0  0  0  0  0  0  0  0
    0.5695   -1.4011    1.4539 H   0  0  0  0  0  0  0  0  0  0  0  0
    1.2219    0.2200    1.2469 H   0  0  0  0  0  0  0  0  0  0  0  0
   -0.3169    0.0360    2.7173 C   0  0  0  0  0  0  0  0  0  0  0  0
   -0.5108    1.3366    3.1844 N   0  0  0  0  0  0  0  0  0  0  0  0
   -1.1280    1.2155    4.3688 C   0  0  0  0  0  0  0  0  0  0  0  0
   -1.4109    2.0484    5.0001 H   0  0  0  0  0  0  0  0  0  0  0  0
   -1.3508   -0.0790    4.6517 N   0  0  0  0  0  0  0  0  0  0  0  0
   -1.8188   -0.4264    5.4776 H   0  0  0  0  0  0  0  0  0  0  0  0
   -0.8493   -0.8390    3.6186 C   0  0  0  0  0  0  0  0  0  0  0  0
   -0.8811   -1.9162    3.5142 H   0  0  0  0  0  0  0  0  0  0  0  0
    0.0488   -0.3261   -1.1544 C   0  0  0  0  0  0  0  0  0  0  0  0
    0.7243   -1.3366   -1.3495 O   0  0  0  0  0  0  0  0  0  0  0  0
   -0.1187    0.6138   -2.0900 N   0  0  0  0  0  0  0  0  0  0  0  0
   -0.6007    1.4606   -1.8097 H   0  0  0  0  0  0  0  0  0  0  0  0
    0.4576    0.5669   -3.4317 C   0  0  0  0  0  0  0  0  0  0  0  0
    0.4753   -0.4632   -3.7970 H   0  0  0  0  0  0  0  0  0  0  0  0
   -0.1378    1.1768   -4.1126 H   0  0  0  0  0  0  0  0  0  0  0  0
    1.4795    0.9484   -3.4039 H   0  0  0  0  0  0  0  0  0  0  0  0
  5  6  2  0  0  0  0
  5  7  1  0  0  0  0
  2  3  1  0  0  0  0
  2  4  1  0  0  0  0
  2  5  1  0  0  0  0
  1  2  1  0  0  0  0
 22 23  2  0  0  0  0
 22 24  1  0  0  0  0
 20 21  1  0  0  0  0
 18 19  1  0  0  0  0
 18 20  1  0  0  0  0
 16 17  1  0  0  0  0
 16 18  1  0  0  0  0
 15 16  2  0  0  0  0
 14 15  1  0  0  0  0
 14 20  2  0  0  0  0
 11 12  1  0  0  0  0
 11 13  1  0  0  0  0
 11 14  1  0  0  0  0
  9 10  1  0  0  0  0
  9 11  1  0  0  0  0
  9 22  1  0  0  0  0
  7  8  1  0  0  0  0
  7  9  1  0  0  0  0
 26 27  1  0  0  0  0
 26 28  1  0  0  0  0
 26 29  1  0  0  0  0
 24 25  1  0  0  0  0
 24 26  1  0  0  0  0
M  END
$$$$
default_name
  -OEChem-01062215323D

 29 29  0     1  0  0  0  0  0999 V2000
   -2.9561   -3.9186    1.3887 H   0  0  0  0  0  0  0  0  0  0  0  0
   -3.1191   -2.9346    0.9517 C   0  0  0  0  0  0  0  0  0  0  0  0
   -3.7811   -2.3546    1.5917 H   0  0  0  0  0  0  0  0  0  0  0  0
   -3.5591   -3.0406   -0.0383 H   0  0  0  0  0  0  0  0  0  0  0  0
   -1.7921   -2.2226    0.8327 C   0  0  0  0  0  0  0  0  0  0  0  0
   -0.7611   -2.7766    1.1927 O   0  0  0  0  0  0  0  0  0  0  0  0
   -1.8201   -0.9926    0.3247 N   0  0  0  0  0  0  0  0  0  0  0  0
   -2.7141   -0.5816    0.0927 H   0  0  0  0  0  0  0  0  0  0  0  0
   -0.6481   -0.1156    0.2017 C   0  0  1  0  0  0  0  0  0  0  0  0
   -0.9928    0.9199    0.2343 H   0  0  0  0  0  0  0  0  0  0  0  0
    0.3007   -0.3454    1.3940 C   0  0  0  0  0  0  0  0  0  0  0  0
    0.5695   -1.4011    1.4539 H   0  0  0  0  0  0  0  0  0  0  0  0
    1.2219    0.2200    1.2469 H   0  0  0  0  0  0  0  0  0  0  0  0
   -0.3169    0.0360    2.7173 C   0  0  0  0  0  0  0  0  0  0  0  0
   -0.5108    1.3366    3.1844 N   0  0  0  0  0  0  0  0  0  0  0  0
   -1.1280    1.2155    4.3688 C   0  0  0  0  0  0  0  0  0  0  0  0
   -1.4109    2.0484    5.0001 H   0  0  0  0  0  0  0  0  0  0  0  0
   -1.3508   -0.0790    4.6517 N   0  0  0  0  0  0  0  0  0  0  0  0
   -1.8188   -0.4264    5.4776 H   0  0  0  0  0  0  0  0  0  0  0  0
   -0.8493   -0.8390    3.6186 C   0  0  0  0  0  0  0  0  0  0  0  0
   -0.8811   -1.9162    3.5142 H   0  0  0  0  0  0  0  0  0  0  0  0
    0.0488   -0.3261   -1.1544 C   0  0  0  0  0  0  0  0  0  0  0  0
    0.4873   -1.4362   -1.4559 O   0  0  0  0  0  0  0  0  0  0  0  0
    0.1440    0.7267   -1.9725 N   0  0  0  0  0  0  0  0  0  0  0  0
   -0.1473    1.6245   -1.6021 H   0  0  0  0  0  0  0  0  0  0  0  0
    0.7598    0.7005   -3.2971 C   0  0  0  0  0  0  0  0  0  0  0  0
    0.5622   -0.2579   -3.7841 H   0  0  0  0  0  0  0  0  0  0  0  0
    0.3517    1.5041   -3.9118 H   0  0  0  0  0  0  0  0  0  0  0  0
    1.8389    0.8309   -3.2010 H   0  0  0  0  0  0  0  0  0  0  0  0
  5  6  2  0  0  0  0
  5  7  1  0  0  0  0
  2  3  1  0  0  0  0
  2  4  1  0  0  0  0
  2  5  1  0  0  0  0
  1  2  1  0  0  0  0
 22 23  2  0  0  0  0
 22 24  1  0  0  0  0
 20 21  1  0  0  0  0
 18 19  1  0  0  0  0
 18 20  1  0  0  0  0
 16 17  1  0  0  0  0
 16 18  1  0  0  0  0
 15 16  2  0  0  0  0
 14 15  1  0  0  0  0
 14 20  2  0  0  0  0
 11 12  1  0  0  0  0
 11 13  1  0  0  0  0
 11 14  1  0  0  0  0
  9 10  1  0  0  0  0
  9 11  1  0  0  0  0
  9 22  1  0  0  0  0
  7  8  1  0  0  0  0
  7  9  1  0  0  0  0
 26 27  1  0  0  0  0
 26 28  1  0  0  0  0
 26 29  1  0  0  0  0
 24 25  1  0  0  0  0
 24 26  1  0  0  0  0
M  END
$$$$
default_name
  -OEChem-01062215323D

 29 29  0     1  0  0  0  0  0999 V2000
   -2.9561   -3.9186    1.3887 H   0  0  0  0  0  0  0  0  0  0  0  0
   -3.1191   -2.9346    0.9517 C   0  0  0  0  0  0  0  0  0  0  0  0
   -3.7811   -2.3546    1.5917 H   0  0  0  0  0  0  0  0  0  0  0  0
   -3.5591   -3.0406   -0.0383 H   0  0  0  0  0  0  0  0  0  0  0  0
   -1.7921   -2.2226    0.8327 C   0  0  0  0  0  0  0  0  0  0  0  0
   -0.7611   -2.7766    1.1927 O   0  0  0  0  0  0  0  0  0  0  0  0
   -1.8201   -0.9926    0.3247 N   0  0  0  0  0  0  0  0  0  0  0  0
   -2.7141   -0.5816    0.0927 H   0  0  0  0  0  0  0  0  0  0  0  0
   -0.6481   -0.1156    0.2017 C   0  0  1  0  0  0  0  0  0  0  0  0
   -0.9928    0.9199    0.2343 H   0  0  0  0  0  0  0  0  0  0  0  0
    0.3007   -0.3454    1.3940 C   0  0  0  0  0  0  0  0  0  0  0  0
    0.5695   -1.4011    1.4539 H   0  0  0  0  0  0  0  0  0  0  0  0
    1.2219    0.2200    1.2469 H   0  0  0  0  0  0  0  0  0  0  0  0
   -0.3169    0.0360    2.7173 C   0  0  0  0  0  0  0  0  0  0  0  0
   -0.5108    1.3366    3.1844 N   0  0  0  0  0  0  0  0  0  0  0  0
   -1.1280    1.2155    4.3688 C   0  0  0  0  0  0  0  0  0  0  0  0
   -1.4109    2.0484    5.0001 H   0  0  0  0  0  0  0  0  0  0  0  0
   -1.3508   -0.0790    4.6517 N   0  0  0  0  0  0  0  0  0  0  0  0
   -1.8188   -0.4264    5.4776 H   0  0  0  0  0  0  0  0  0  0  0  0
   -0.8493   -0.8390    3.6186 C   0  0  0  0  0  0  0  0  0  0  0  0
   -0.8811   -1.9162    3.5142 H   0  0  0  0  0  0  0  0  0  0  0  0
    0.0488   -0.3261   -1.1544 C   0  0  0  0  0  0  0  0  0  0  0  0
    0.2394   -1.4659   -1.5787 O   0  0  0  0  0  0  0  0  0  0  0  0
    0.4194    0.7621   -1.8365 N   0  0  0  0  0  0  0  0  0  0  0  0
    0.3206    1.6550   -1.3664 H   0  0  0  0  0  0  0  0  0  0  0  0
    1.0775    0.7449   -3.1408 C   0  0  0  0  0  0  0  0  0  0  0  0
    0.6926   -0.0809   -3.7446 H   0  0  0  0  0  0  0  0  0  0  0  0
    0.8921    1.6850   -3.6622 H   0  0  0  0  0  0  0  0  0  0  0  0
    2.1521    0.6117   -3.0060 H   0  0  0  0  0  0  0  0  0  0  0  0
  5  6  2  0  0  0  0
  5  7  1  0  0  0  0
  2  3  1  0  0  0  0
  2  4  1  0  0  0  0
  2  5  1  0  0  0  0
  1  2  1  0  0  0  0
 22 23  2  0  0  0  0
 22 24  1  0  0  0  0
 20 21  1  0  0  0  0
 18 19  1  0  0  0  0
 18 20  1  0  0  0  0
 16 17  1  0  0  0  0
 16 18  1  0  0  0  0
 15 16  2  0  0  0  0
 14 15  1  0  0  0  0
 14 20  2  0  0  0  0
 11 12  1  0  0  0  0
 11 13  1  0  0  0  0
 11 14  1  0  0  0  0
  9 10  1  0  0  0  0
  9 11  1  0  0  0  0
  9 22  1  0  0  0  0
  7  8  1  0  0  0  0
  7  9  1  0  0  0  0
 26 27  1  0  0  0  0
 26 28  1  0  0  0  0
 26 29  1  0  0  0  0
 24 25  1  0  0  0  0
 24 26  1  0  0  0  0
M  END
$$$$
default_name
  -OEChem-01062215323D

 29 29  0     1  0  0  0  0  0999 V2000
   -2.9561   -3.9186    1.3887 H   0  0  0  0  0  0  0  0  0  0  0  0
   -3.1191   -2.9346    0.9517 C   0  0  0  0  0  0  0  0  0  0  0  0
   -3.7811   -2.3546    1.5917 H   0  0  0  0  0  0  0  0  0  0  0  0
   -3.5591   -3.0406   -0.0383 H   0  0  0  0  0  0  0  0  0  0  0  0
   -1.7921   -2.2226    0.8327 C   0  0  0  0  0  0  0  0  0  0  0  0
   -0.7611   -2.7766    1.1927 O   0  0  0  0  0  0  0  0  0  0  0  0
   -1.8201   -0.9926    0.3247 N   0  0  0  0  0  0  0  0  0  0  0  0
   -2.7141   -0.5816    0.0927 H   0  0  0  0  0  0  0  0  0  0  0  0
   -0.6481   -0.1156    0.2017 C   0  0  1  0  0  0  0  0  0  0  0  0
   -0.9928    0.9199    0.2343 H   0  0  0  0  0  0  0  0  0  0  0  0
    0.3007   -0.3454    1.3940 C   0  0  0  0  0  0  0  0  0  0  0  0
    0.5695   -1.4011    1.4539 H   0  0  0  0  0  0  0  0  0  0  0  0
    1.2219    0.2200    1.2469 H   0  0  0  0  0  0  0  0  0  0  0  0
   -0.3169    0.0360    2.7173 C   0  0  0  0  0  0  0  0  0  0  0  0
   -0.5108    1.3366    3.1844 N   0  0  0  0  0  0  0  0  0  0  0  0
   -1.1280    1.2155    4.3688 C   0  0  0  0  0  0  0  0  0  0  0  0
   -1.4109    2.0484    5.0001 H   0  0  0  0  0  0  0  0  0  0  0  0
   -1.3508   -0.0790    4.6517 N   0  0  0  0  0  0  0  0  0  0  0  0
   -1.8188   -0.4264    5.4776 H   0  0  0  0  0  0  0  0  0  0  0  0
   -0.8493   -0.8390    3.6186 C   0  0  0  0  0  0  0  0  0  0  0  0
   -0.8811   -1.9162    3.5142 H   0  0  0  0  0  0  0  0  0  0  0  0
    0.0488   -0.3261   -1.1544 C   0  0  0  0  0  0  0  0  0  0  0  0
   -0.0024   -1.4236   -1.7095 O   0  0  0  0  0  0  0  0  0  0  0  0
    0.6886    0.7176   -1.6912 N   0  0  0  0  0  0  0  0  0  0  0  0
    0.7712    1.5502   -1.1185 H   0  0  0  0  0  0  0  0  0  0  0  0
    1.3889    0.6970   -2.9733 C   0  0  0  0  0  0  0  0  0  0  0  0
    0.8575    0.0557   -3.6811 H   0  0  0  0  0  0  0  0  0  0  0  0
    1.4464    1.7074   -3.3807 H   0  0  0  0  0  0  0  0  0  0  0  0
    2.3977    0.3057   -2.8322 H   0  0  0  0  0  0  0  0  0  0  0  0
  5  6  2  0  0  0  0
  5  7  1  0  0  0  0
  2  3  1  0  0  0  0
  2  4  1  0  0  0  0
  2  5  1  0  0  0  0
  1  2  1  0  0  0  0
 22 23  2  0  0  0  0
 22 24  1  0  0  0  0
 20 21  1  0  0  0  0
 18 19  1  0  0  0  0
 18 20  1  0  0  0  0
 16 17  1  0  0  0  0
 16 18  1  0  0  0  0
 15 16  2  0  0  0  0
 14 15  1  0  0  0  0
 14 20  2  0  0  0  0
 11 12  1  0  0  0  0
 11 13  1  0  0  0  0
 11 14  1  0  0  0  0
  9 10  1  0  0  0  0
  9 11  1  0  0  0  0
  9 22  1  0  0  0  0
  7  8  1  0  0  0  0
  7  9  1  0  0  0  0
 26 27  1  0  0  0  0
 26 28  1  0  0  0  0
 26 29  1  0  0  0  0
 24 25  1  0  0  0  0
 24 26  1  0  0  0  0
M  END
$$$$
default_name
  -OEChem-01062215323D

 29 29  0     1  0  0  0  0  0999 V2000
   -2.9561   -3.9186    1.3887 H   0  0  0  0  0  0  0  0  0  0  0  0
   -3.1191   -2.9346    0.9517 C   0  0  0  0  0  0  0  0  0  0  0  0
   -3.7811   -2.3546    1.5917 H   0  0  0  0  0  0  0  0  0  0  0  0
   -3.5591   -3.0406   -0.0383 H   0  0  0  0  0  0  0  0  0  0  0  0
   -1.7921   -2.2226    0.8327 C   0  0  0  0  0  0  0  0  0  0  0  0
   -0.7611   -2.7766    1.1927 O   0  0  0  0  0  0  0  0  0  0  0  0
   -1.8201   -0.9926    0.3247 N   0  0  0  0  0  0  0  0  0  0  0  0
   -2.7141   -0.5816    0.0927 H   0  0  0  0  0  0  0  0  0  0  0  0
   -0.6481   -0.1156    0.2017 C   0  0  1  0  0  0  0  0  0  0  0  0
   -0.9928    0.9199    0.2343 H   0  0  0  0  0  0  0  0  0  0  0  0
    0.3007   -0.3454    1.3940 C   0  0  0  0  0  0  0  0  0  0  0  0
    0.5695   -1.4011    1.4539 H   0  0  0  0  0  0  0  0  0  0  0  0
    1.2219    0.2200    1.2469 H   0  0  0  0  0  0  0  0  0  0  0  0
   -0.3169    0.0360    2.7173 C   0  0  0  0  0  0  0  0  0  0  0  0
   -0.5108    1.3366    3.1844 N   0  0  0  0  0  0  0  0  0  0  0  0
   -1.1280    1.2155    4.3688 C   0  0  0  0  0  0  0  0  0  0  0  0
   -1.4109    2.0484    5.0001 H   0  0  0  0  0  0  0  0  0  0  0  0
   -1.3508   -0.0790    4.6517 N   0  0  0  0  0  0  0  0  0  0  0  0
   -1.8188   -0.4264    5.4776 H   0  0  0  0  0  0  0  0  0  0  0  0
   -0.8493   -0.8390    3.6186 C   0  0  0  0  0  0  0  0  0  0  0  0
   -0.8811   -1.9162    3.5142 H   0  0  0  0  0  0  0  0  0  0  0  0
    0.0488   -0.3261   -1.1544 C   0  0  0  0  0  0  0  0  0  0  0  0
   -0.2218   -1.3123   -1.8396 O   0  0  0  0  0  0  0  0  0  0  0  0
    0.9334    0.5962   -1.5465 N   0  0  0  0  0  0  0  0  0  0  0  0
    1.1738    1.3172   -0.8754 H   0  0  0  0  0  0  0  0  0  0  0  0
    1.6729    0.5601   -2.8061 C   0  0  0  0  0  0  0  0  0  0  0  0
    1.0456    0.1426   -3.5979 H   0  0  0  0  0  0  0  0  0  0  0  0
    1.9771    1.5695   -3.0866 H   0  0  0  0  0  0  0  0  0  0  0  0
    2.5591   -0.0662   -2.6916 H   0  0  0  0  0  0  0  0  0  0  0  0
  5  6  2  0  0  0  0
  5  7  1  0  0  0  0
  2  3  1  0  0  0  0
  2  4  1  0  0  0  0
  2  5  1  0  0  0  0
  1  2  1  0  0  0  0
 22 23  2  0  0  0  0
 22 24  1  0  0  0  0
 20 21  1  0  0  0  0
 18 19  1  0  0  0  0
 18 20  1  0  0  0  0
 16 17  1  0  0  0  0
 16 18  1  0  0  0  0
 15 16  2  0  0  0  0
 14 15  1  0  0  0  0
 14 20  2  0  0  0  0
 11 12  1  0  0  0  0
 11 13  1  0  0  0  0
 11 14  1  0  0  0  0
  9 10  1  0  0  0  0
  9 11  1  0  0  0  0
  9 22  1  0  0  0  0
  7  8  1  0  0  0  0
  7  9  1  0  0  0  0
 26 27  1  0  0  0  0
 26 28  1  0  0  0  0
 26 29  1  0  0  0  0
 24 25  1  0  0  0  0
 24 26  1  0  0  0  0
M  END
$$$$
default_name
  -OEChem-01062215323D

 29 29  0     1  0  0  0  0  0999 V2000
   -2.9561   -3.9186    1.3887 H   0  0  0  0  0  0  0  0  0  0  0  0
   -3.1191   -2.9346    0.9517 C   0  0  0  0  0  0  0  0  0  0  0  0
   -3.7811   -2.3546    1.5917 H   0  0  0  0  0  0  0  0  0  0  0  0
   -3.5591   -3.0406   -0.0383 H   0  0  0  0  0  0  0  0  0  0  0  0
   -1.7921   -2.2226    0.8327 C   0  0  0  0  0  0  0  0  0  0  0  0
   -0.7611   -2.7766    1.1927 O   0  0  0  0  0  0  0  0  0  0  0  0
   -1.8201   -0.9926    0.3247 N   0  0  0  0  0  0  0  0  0  0  0  0
   -2.7141   -0.5816    0.0927 H   0  0  0  0  0  0  0  0  0  0  0  0
   -0.6481   -0.1156    0.2017 C   0  0  1  0  0  0  0  0  0  0  0  0
   -0.9443    0.8923    0.4993 H   0  0  0  0  0  0  0  0  0  0  0  0
    0.4618   -0.5938    1.1578 C   0  0  0  0  0  0  0  0  0  0  0  0
    0.6964   -1.6402    0.9573 H   0  0  0  0  0  0  0  0  0  0  0  0
    1.3706   -0.0151    0.9870 H   0  0  0  0  0  0  0  0  0  0  0  0
    0.0677   -0.4929    2.6113 C   0  0  0  0  0  0  0  0  0  0  0  0
   -0.0033    0.6830    3.3594 N   0  0  0  0  0  0  0  0  0  0  0  0
   -0.4372    0.3213    4.5756 C   0  0  0  0  0  0  0  0  0  0  0  0
   -0.5889    1.0060    5.4005 H   0  0  0  0  0  0  0  0  0  0  0  0
   -0.6633   -1.0024    4.6188 N   0  0  0  0  0  0  0  0  0  0  0  0
   -1.0128   -1.5117    5.4190 H   0  0  0  0  0  0  0  0  0  0  0  0
   -0.3540   -1.5334    3.3864 C   0  0  0  0  0  0  0  0  0  0  0  0
   -0.4422   -2.5652    3.0699 H   0  0  0  0  0  0  0  0  0  0  0  0
   -0.1742   -0.0430   -1.2609 C   0  0  0  0  0  0  0  0  0  0  0  0
   -0.7746   -0.6684   -2.1348 O   0  0  0  0  0  0  0  0  0  0  0  0
    0.8889    0.7210   -1.5308 N   0  0  0  0  0  0  0  0  0  0  0  0
    1.3853    1.1143   -0.7390 H   0  0  0  0  0  0  0  0  0  0  0  0
    1.4615    0.9134   -2.8611 C   0  0  0  0  0  0  0  0  0  0  0  0
    0.6681    0.9280   -3.6128 H   0  0  0  0  0  0  0  0  0  0  0  0
    2.0054    1.8583   -2.8977 H   0  0  0  0  0  0  0  0  0  0  0  0
    2.1452    0.0934   -3.0866 H   0  0  0  0  0  0  0  0  0  0  0  0
  5  6  2  0  0  0  0
  5  7  1  0  0  0  0
  2  3  1  0  0  0  0
  2  4  1  0  0  0  0
  2  5  1  0  0  0  0
  1  2  1  0  0  0  0
 22 23  2  0  0  0  0
 22 24  1  0  0  0  0
 20 21  1  0  0  0  0
 18 19  1  0  0  0  0
 18 20  1  0  0  0  0
 16 17  1  0  0  0  0
 16 18  1  0  0  0  0
 15 16  2  0  0  0  0
 14 15  1  0  0  0  0
 14 20  2  0  0  0  0
 11 12  1  0  0  0  0
 11 13  1  0  0  0  0
 11 14  1  0  0  0  0
  9 10  1  0  0  0  0
  9 11  1  0  0  0  0
  9 22  1  0  0  0  0
  7  8  1  0  0  0  0
  7  9  1  0  0  0  0
 26 27  1  0  0  0  0
 26 28  1  0  0  0  0
 26 29  1  0  0  0  0
 24 25  1  0  0  0  0
 24 26  1  0  0  0  0
M  END
$$$$
default_name
  -OEChem-01062215323D

 29 29  0     1  0  0  0  0  0999 V2000
   -2.9561   -3.9186    1.3887 H   0  0  0  0  0  0  0  0  0  0  0  0
   -3.1191   -2.9346    0.9517 C   0  0  0  0  0  0  0  0  0  0  0  0
   -3.7811   -2.3546    1.5917 H   0  0  0  0  0  0  0  0  0  0  0  0
   -3.5591   -3.0406   -0.0383 H   0  0  0  0  0  0  0  0  0  0  0  0
   -1.7921   -2.2226    0.8327 C   0  0  0  0  0  0  0  0  0  0  0  0
   -0.7611   -2.7766    1.1927 O   0  0  0  0  0  0  0  0  0  0  0  0
   -1.8201   -0.9926    0.3247 N   0  0  0  0  0  0  0  0  0  0  0  0
   -2.7141   -0.5816    0.0927 H   0  0  0  0  0  0  0  0  0  0  0  0
   -0.6481   -0.1156    0.2017 C   0  0  1  0  0  0  0  0  0  0  0  0
   -0.9443    0.8923    0.4993 H   0  0  0  0  0  0  0  0  0  0  0  0
    0.4618   -0.5938    1.1578 C   0  0  0  0  0  0  0  0  0  0  0  0
    0.6964   -1.6402    0.9573 H   0  0  0  0  0  0  0  0  0  0  0  0
    1.3706   -0.0151    0.9870 H   0  0  0  0  0  0  0  0  0  0  0  0
    0.0677   -0.4929    2.6113 C   0  0  0  0  0  0  0  0  0  0  0  0
   -0.0033    0.6830    3.3594 N   0  0  0  0  0  0  0  0  0  0  0  0
   -0.4372    0.3213    4.5756 C   0  0  0  0  0  0  0  0  0  0  0  0
   -0.5889    1.0060    5.4005 H   0  0  0  0  0  0  0  0  0  0  0  0
   -0.6633   -1.0024    4.6188 N   0  0  0  0  0  0  0  0  0  0  0  0
   -1.0128   -1.5117    5.4190 H   0  0  0  0  0  0  0  0  0  0  0  0
   -0.3540   -1.5334    3.3864 C   0  0  0  0  0  0  0  0  0  0  0  0
   -0.4422   -2.5652    3.0699 H   0  0  0  0  0  0  0  0  0  0  0  0
   -0.1742   -0.0430   -1.2609 C   0  0  0  0  0  0  0  0  0  0  0  0
   -0.9122   -0.4288   -2.1674 O   0  0  0  0  0  0  0  0  0  0  0  0
    1.0438    0.4560   -1.4938 N   0  0  0  0  0  0  0  0  0  0  0  0
    1.6235    0.6498   -0.6849 H   0  0  0  0  0  0  0  0  0  0  0  0
    1.6431    0.6093   -2.8174 C   0  0  0  0  0  0  0  0  0  0  0  0
    0.8761    0.8793   -3.5478 H   0  0  0  0  0  0  0  0  0  0  0  0
    2.4030    1.3917   -2.7921 H   0  0  0  0  0  0  0  0  0  0  0  0
    2.1032   -0.3323   -3.1214 H   0  0  0  0  0  0  0  0  0  0  0  0
  5  6  2  0  0  0  0
  5  7  1  0  0  0  0
  2  3  1  0  0  0  0
  2  4  1  0  0  0  0
  2  5  1  0  0  0  0
  1  2  1  0  0  0  0
 22 23  2  0  0  0  0
 22 24  1  0  0  0  0
 20 21  1  0  0  0  0
 18 19  1  0  0  0  0
 18 20  1  0  0  0  0
 16 17  1  0  0  0  0
 16 18  1  0  0  0  0
 15 16  2  0  0  0  0
 14 15  1  0  0  0  0
 14 20  2  0  0  0  0
 11 12  1  0  0  0  0
 11 13  1  0  0  0  0
 11 14  1  0  0  0  0
  9 10  1  0  0  0  0
  9 11  1  0  0  0  0
  9 22  1  0  0  0  0
  7  8  1  0  0  0  0
  7  9  1  0  0  0  0
 26 27  1  0  0  0  0
 26 28  1  0  0  0  0
 26 29  1  0  0  0  0
 24 25  1  0  0  0  0
 24 26  1  0  0  0  0
M  END
$$$$
default_name
  -OEChem-01062215323D

 29 29  0     1  0  0  0  0  0999 V2000
   -2.9561   -3.9186    1.3887 H   0  0  0  0  0  0  0  0  0  0  0  0
   -3.1191   -2.9346    0.9517 C   0  0  0  0  0  0  0  0  0  0  0  0
   -3.7811   -2.3546    1.5917 H   0  0  0  0  0  0  0  0  0  0  0  0
   -3.5591   -3.0406   -0.0383 H   0  0  0  0  0  0  0  0  0  0  0  0
   -1.7921   -2.2226    0.8327 C   0  0  0  0  0  0  0  0  0  0  0  0
   -0.7611   -2.7766    1.1927 O   0  0  0  0  0  0  0  0  0  0  0  0
   -1.8201   -0.9926    0.3247 N   0  0  0  0  0  0  0  0  0  0  0  0
   -2.7141   -0.5816    0.0927 H   0  0  0  0  0  0  0  0  0  0  0  0
   -0.6481   -0.1156    0.2017 C   0  0  1  0  0  0  0  0  0  0  0  0
   -0.9443    0.8923    0.4993 H   0  0  0  0  0  0  0  0  0  0  0  0
    0.4618   -0.5938    1.1578 C   0  0  0  0  0  0  0  0  0  0  0  0
    0.6964   -1.6402    0.9573 H   0  0  0  0  0  0  0  0  0  0  0  0
    1.3706   -0.0151    0.9870 H   0  0  0  0  0  0  0  0  0  0  0  0
    0.0677   -0.4929    2.6113 C   0  0  0  0  0  0  0  0  0  0  0  0
   -0.0033    0.6830    3.3594 N   0  0  0  0  0  0  0  0  0  0  0  0
   -0.4372    0.3213    4.5756 C   0  0  0  0  0  0  0  0  0  0  0  0
   -0.5889    1.0060    5.4005 H   0  0  0  0  0  0  0  0  0  0  0  0
   -0.6633   -1.0024    4.6188 N   0  0  0  0  0  0  0  0  0  0  0  0
   -1.0128   -1.5117    5.4190 H   0  0  0  0  0  0  0  0  0  0  0  0
   -0.3540   -1.5334    3.3864 C   0  0  0  0  0  0  0  0  0  0  0  0
   -0.4422   -2.5652    3.0699 H   0  0  0  0  0  0  0  0  0  0  0  0
   -0.1742   -0.0430   -1.2609 C   0  0  0  0  0  0  0  0  0  0  0  0
   -0.9866   -0.1609   -2.1782 O   0  0  0  0  0  0  0  0  0  0  0  0
    1.1287    0.1590   -1.4810 N   0  0  0  0  0  0  0  0  0  0  0  0
    1.7401    0.1382   -0.6725 H   0  0  0  0  0  0  0  0  0  0  0  0
    1.7443    0.2675   -2.8016 C   0  0  0  0  0  0  0  0  0  0  0  0
    1.0659    0.7759   -3.4915 H   0  0  0  0  0  0  0  0  0  0  0  0
    2.6736    0.8347   -2.7320 H   0  0  0  0  0  0  0  0  0  0  0  0
    1.9575   -0.7303   -3.1883 H   0  0  0  0  0  0  0  0  0  0  0  0
  5  6  2  0  0  0  0
  5  7  1  0  0  0  0
  2  3  1  0  0  0  0
  2  4  1  0  0  0  0
  2  5  1  0  0  0  0
  1  2  1  0  0  0  0
 22 23  2  0  0  0  0
 22 24  1  0  0  0  0
 20 21  1  0  0  0  0
 18 19  1  0  0  0  0
 18 20  1  0  0  0  0
 16 17  1  0  0  0  0
 16 18  1  0  0  0  0
 15 16  2  0  0  0  0
 14 15  1  0  0  0  0
 14 20  2  0  0  0  0
 11 12  1  0  0  0  0
 11 13  1  0  0  0  0
 11 14  1  0  0  0  0
  9 10  1  0  0  0  0
  9 11  1  0  0  0  0
  9 22  1  0  0  0  0
  7  8  1  0  0  0  0
  7  9  1  0  0  0  0
 26 27  1  0  0  0  0
 26 28  1  0  0  0  0
 26 29  1  0  0  0  0
 24 25  1  0  0  0  0
 24 26  1  0  0  0  0
M  END
$$$$
default_name
  -OEChem-01062215323D

 29 29  0     1  0  0  0  0  0999 V2000
   -2.9561   -3.9186    1.3887 H   0  0  0  0  0  0  0  0  0  0  0  0
   -3.1191   -2.9346    0.9517 C   0  0  0  0  0  0  0  0  0  0  0  0
   -3.7811   -2.3546    1.5917 H   0  0  0  0  0  0  0  0  0  0  0  0
   -3.5591   -3.0406   -0.0383 H   0  0  0  0  0  0  0  0  0  0  0  0
   -1.7921   -2.2226    0.8327 C   0  0  0  0  0  0  0  0  0  0  0  0
   -0.7611   -2.7766    1.1927 O   0  0  0  0  0  0  0  0  0  0  0  0
   -1.8201   -0.9926    0.3247 N   0  0  0  0  0  0  0  0  0  0  0  0
   -2.7141   -0.5816    0.0927 H   0  0  0  0  0  0  0  0  0  0  0  0
   -0.6481   -0.1156    0.2017 C   0  0  1  0  0  0  0  0  0  0  0  0
   -0.9443    0.8923    0.4993 H   0  0  0  0  0  0  0  0  0  0  0  0
    0.4618   -0.5938    1.1578 C   0  0  0  0  0  0  0  0  0  0  0  0
    0.6964   -1.6402    0.9573 H   0  0  0  0  0  0  0  0  0  0  0  0
    1.3706   -0.0151    0.9870 H   0  0  0  0  0  0  0  0  0  0  0  0
    0.0677   -0.4929    2.6113 C   0  0  0  0  0  0  0  0  0  0  0  0
   -0.0033    0.6830    3.3594 N   0  0  0  0  0  0  0  0  0  0  0  0
   -0.4372    0.3213    4.5756 C   0  0  0  0  0  0  0  0  0  0  0  0
   -0.5889    1.0060    5.4005 H   0  0  0  0  0  0  0  0  0  0  0  0
   -0.6633   -1.0024    4.6188 N   0  0  0  0  0  0  0  0  0  0  0  0
   -1.0128   -1.5117    5.4190 H   0  0  0  0  0  0  0  0  0  0  0  0
   -0.3540   -1.5334    3.3864 C   0  0  0  0  0  0  0  0  0  0  0  0
   -0.4422   -2.5652    3.0699 H   0  0  0  0  0  0  0  0  0  0  0  0
   -0.1742   -0.0430   -1.2609 C   0  0  0  0  0  0  0  0  0  0  0  0
   -0.9927    0.1170   -2.1664 O   0  0  0  0  0  0  0  0  0  0  0  0
    1.1378   -0.1498   -1.4934 N   0  0  0  0  0  0  0  0  0  0  0  0
    1.7270   -0.3856   -0.7028 H   0  0  0  0  0  0  0  0  0  0  0  0
    1.7582   -0.0888   -2.8148 C   0  0  0  0  0  0  0  0  0  0  0  0
    1.2244    0.6248   -3.4476 H   0  0  0  0  0  0  0  0  0  0  0  0
    2.7988    0.2253   -2.7217 H   0  0  0  0  0  0  0  0  0  0  0  0
    1.7180   -1.0736   -3.2830 H   0  0  0  0  0  0  0  0  0  0  0  0
  5  6  2  0  0  0  0
  5  7  1  0  0  0  0
  2  3  1  0  0  0  0
  2  4  1  0  0  0  0
  2  5  1  0  0  0  0
  1  2  1  0  0  0  0
 22 23  2  0  0  0  0
 22 24  1  0  0  0  0
 20 21  1  0  0  0  0
 18 19  1  0  0  0  0
 18 20  1  0  0  0  0
 16 17  1  0  0  0  0
 16 18  1  0  0  0  0
 15 16  2  0  0  0  0
 14 15  1  0  0  0  0
 14 20  2  0  0  0  0
 11 12  1  0  0  0  0
 11 13  1  0  0  0  0
 11 14  1  0  0  0  0
  9 10  1  0  0  0  0
  9 11  1  0  0  0  0
  9 22  1  0  0  0  0
  7  8  1  0  0  0  0
  7  9  1  0  0  0  0
 26 27  1  0  0  0  0
 26 28  1  0  0  0  0
 26 29  1  0  0  0  0
 24 25  1  0  0  0  0
 24 26  1  0  0  0  0
M  END
$$$$
default_name
  -OEChem-01062215323D

 29 29  0     1  0  0  0  0  0999 V2000
   -2.9561   -3.9186    1.3887 H   0  0  0  0  0  0  0  0  0  0  0  0
   -3.1191   -2.9346    0.9517 C   0  0  0  0  0  0  0  0  0  0  0  0
   -3.7811   -2.3546    1.5917 H   0  0  0  0  0  0  0  0  0  0  0  0
   -3.5591   -3.0406   -0.0383 H   0  0  0  0  0  0  0  0  0  0  0  0
   -1.7921   -2.2226    0.8327 C   0  0  0  0  0  0  0  0  0  0  0  0
   -0.7611   -2.7766    1.1927 O   0  0  0  0  0  0  0  0  0  0  0  0
   -1.8201   -0.9926    0.3247 N   0  0  0  0  0  0  0  0  0  0  0  0
   -2.7141   -0.5816    0.0927 H   0  0  0  0  0  0  0  0  0  0  0  0
   -0.6481   -0.1156    0.2017 C   0  0  1  0  0  0  0  0  0  0  0  0
   -0.9443    0.8923    0.4993 H   0  0  0  0  0  0  0  0  0  0  0  0
    0.4618   -0.5938    1.1578 C   0  0  0  0  0  0  0  0  0  0  0  0
    0.6964   -1.6402    0.9573 H   0  0  0  0  0  0  0  0  0  0  0  0
    1.3706   -0.0151    0.9870 H   0  0  0  0  0  0  0  0  0  0  0  0
    0.0677   -0.4929    2.6113 C   0  0  0  0  0  0  0  0  0  0  0  0
   -0.0033    0.6830    3.3594 N   0  0  0  0  0  0  0  0  0  0  0  0
   -0.4372    0.3213    4.5756 C   0  0  0  0  0  0  0  0  0  0  0  0
   -0.5889    1.0060    5.4005 H   0  0  0  0  0  0  0  0  0  0  0  0
   -0.6633   -1.0024    4.6188 N   0  0  0  0  0  0  0  0  0  0  0  0
   -1.0128   -1.5117    5.4190 H   0  0  0  0  0  0  0  0  0  0  0  0
   -0.3540   -1.5334    3.3864 C   0  0  0  0  0  0  0  0  0  0  0  0
   -0.4422   -2.5652    3.0699 H   0  0  0  0  0  0  0  0  0  0  0  0
   -0.1742   -0.0430   -1.2609 C   0  0  0  0  0  0  0  0  0  0  0  0
   -0.9300    0.3860   -2.1328 O   0  0  0  0  0  0  0  0  0  0  0  0
    1.0705   -0.4493   -1.5301 N   0  0  0  0  0  0  0  0  0  0  0  0
    1.5852   -0.8859   -0.7736 H   0  0  0  0  0  0  0  0  0  0  0  0
    1.6838   -0.4353   -2.8561 C   0  0  0  0  0  0  0  0  0  0  0  0
    1.3409    0.4365   -3.4192 H   0  0  0  0  0  0  0  0  0  0  0  0
    2.7699   -0.3949   -2.7619 H   0  0  0  0  0  0  0  0  0  0  0  0
    1.4011   -1.3388   -3.3988 H   0  0  0  0  0  0  0  0  0  0  0  0
  5  6  2  0  0  0  0
  5  7  1  0  0  0  0
  2  3  1  0  0  0  0
  2  4  1  0  0  0  0
  2  5  1  0  0  0  0
  1  2  1  0  0  0  0
 22 23  2  0  0  0  0
 22 24  1  0  0  0  0
 20 21  1  0  0  0  0
 18 19  1  0  0  0  0
 18 20  1  0  0  0  0
 16 17  1  0  0  0  0
 16 18  1  0  0  0  0
 15 16  2  0  0  0  0
 14 15  1  0  0  0  0
 14 20  2  0  0  0  0
 11 12  1  0  0  0  0
 11 13  1  0  0  0  0
 11 14  1  0  0  0  0
  9 10  1  0  0  0  0
  9 11  1  0  0  0  0
  9 22  1  0  0  0  0
  7  8  1  0  0  0  0
  7  9  1  0  0  0  0
 26 27  1  0  0  0  0
 26 28  1  0  0  0  0
 26 29  1  0  0  0  0
 24 25  1  0  0  0  0
 24 26  1  0  0  0  0
M  END
$$$$
default_name
  -OEChem-01062215323D

 29 29  0     1  0  0  0  0  0999 V2000
   -2.9561   -3.9186    1.3887 H   0  0  0  0  0  0  0  0  0  0  0  0
   -3.1191   -2.9346    0.9517 C   0  0  0  0  0  0  0  0  0  0  0  0
   -3.7811   -2.3546    1.5917 H   0  0  0  0  0  0  0  0  0  0  0  0
   -3.5591   -3.0406   -0.0383 H   0  0  0  0  0  0  0  0  0  0  0  0
   -1.7921   -2.2226    0.8327 C   0  0  0  0  0  0  0  0  0  0  0  0
   -0.7611   -2.7766    1.1927 O   0  0  0  0  0  0  0  0  0  0  0  0
   -1.8201   -0.9926    0.3247 N   0  0  0  0  0  0  0  0  0  0  0  0
   -2.7141   -0.5816    0.0927 H   0  0  0  0  0  0  0  0  0  0  0  0
   -0.6481   -0.1156    0.2017 C   0  0  1  0  0  0  0  0  0  0  0  0
   -0.9443    0.8923    0.4993 H   0  0  0  0  0  0  0  0  0  0  0  0
    0.4618   -0.5938    1.1578 C   0  0  0  0  0  0  0  0  0  0  0  0
    0.6964   -1.6402    0.9573 H   0  0  0  0  0  0  0  0  0  0  0  0
    1.3706   -0.0151    0.9870 H   0  0  0  0  0  0  0  0  0  0  0  0
    0.0677   -0.4929    2.6113 C   0  0  0  0  0  0  0  0  0  0  0  0
   -0.0033    0.6830    3.3594 N   0  0  0  0  0  0  0  0  0  0  0  0
   -0.4372    0.3213    4.5756 C   0  0  0  0  0  0  0  0  0  0  0  0
   -0.5889    1.0060    5.4005 H   0  0  0  0  0  0  0  0  0  0  0  0
   -0.6633   -1.0024    4.6188 N   0  0  0  0  0  0  0  0  0  0  0  0
   -1.0128   -1.5117    5.4190 H   0  0  0  0  0  0  0  0  0  0  0  0
   -0.3540   -1.5334    3.3864 C   0  0  0  0  0  0  0  0  0  0  0  0
   -0.4422   -2.5652    3.0699 H   0  0  0  0  0  0  0  0  0  0  0  0
   -0.1742   -0.0430   -1.2609 C   0  0  0  0  0  0  0  0  0  0  0  0
   -0.8030    0.6277   -2.0796 O   0  0  0  0  0  0  0  0  0  0  0  0
    0.9313   -0.7191   -1.5886 N   0  0  0  0  0  0  0  0  0  0  0  0
    1.3243   -1.3287   -0.8801 H   0  0  0  0  0  0  0  0  0  0  0  0
    1.5262   -0.7485   -2.9227 C   0  0  0  0  0  0  0  0  0  0  0  0
    1.4075    0.2236   -3.4082 H   0  0  0  0  0  0  0  0  0  0  0  0
    2.5890   -0.9836   -2.8498 H   0  0  0  0  0  0  0  0  0  0  0  0
    1.0284   -1.5077   -3.5280 H   0  0  0  0  0  0  0  0  0  0  0  0
  5  6  2  0  0  0  0
  5  7  1  0  0  0  0
  2  3  1  0  0  0  0
  2  4  1  0  0  0  0
  2  5  1  0  0  0  0
  1  2  1  0  0  0  0
 22 23  2  0  0  0  0
 22 24  1  0  0  0  0
 20 21  1  0  0  0  0
 18 19  1  0  0  0  0
 18 20  1  0  0  0  0
 16 17  1  0  0  0  0
 16 18  1  0  0  0  0
 15 16  2  0  0  0  0
 14 15  1  0  0  0  0
 14 20  2  0  0  0  0
 11 12  1  0  0  0  0
 11 13  1  0  0  0  0
 11 14  1  0  0  0  0
  9 10  1  0  0  0  0
  9 11  1  0  0  0  0
  9 22  1  0  0  0  0
  7  8  1  0  0  0  0
  7  9  1  0  0  0  0
 26 27  1  0  0  0  0
 26 28  1  0  0  0  0
 26 29  1  0  0  0  0
 24 25  1  0  0  0  0
 24 26  1  0  0  0  0
M  END
$$$$
default_name
  -OEChem-01062215323D

 29 29  0     1  0  0  0  0  0999 V2000
   -2.9561   -3.9186    1.3887 H   0  0  0  0  0  0  0  0  0  0  0  0
   -3.1191   -2.9346    0.9517 C   0  0  0  0  0  0  0  0  0  0  0  0
   -3.7811   -2.3546    1.5917 H   0  0  0  0  0  0  0  0  0  0  0  0
   -3.5591   -3.0406   -0.0383 H   0  0  0  0  0  0  0  0  0  0  0  0
   -1.7921   -2.2226    0.8327 C   0  0  0  0  0  0  0  0  0  0  0  0
   -0.7611   -2.7766    1.1927 O   0  0  0  0  0  0  0  0  0  0  0  0
   -1.8201   -0.9926    0.3247 N   0  0  0  0  0  0  0  0  0  0  0  0
   -2.7141   -0.5816    0.0927 H   0  0  0  0  0  0  0  0  0  0  0  0
   -0.6481   -0.1156    0.2017 C   0  0  1  0  0  0  0  0  0  0  0  0
   -0.9443    0.8923    0.4993 H   0  0  0  0  0  0  0  0  0  0  0  0
    0.4618   -0.5938    1.1578 C   0  0  0  0  0  0  0  0  0  0  0  0
    0.6964   -1.6402    0.9573 H   0  0  0  0  0  0  0  0  0  0  0  0
    1.3706   -0.0151    0.9870 H   0  0  0  0  0  0  0  0  0  0  0  0
    0.0677   -0.4929    2.6113 C   0  0  0  0  0  0  0  0  0  0  0  0
   -0.0033    0.6830    3.3594 N   0  0  0  0  0  0  0  0  0  0  0  0
   -0.4372    0.3213    4.5756 C   0  0  0  0  0  0  0  0  0  0  0  0
   -0.5889    1.0060    5.4005 H   0  0  0  0  0  0  0  0  0  0  0  0
   -0.6633   -1.0024    4.6188 N   0  0  0  0  0  0  0  0  0  0  0  0
   -1.0128   -1.5117    5.4190 H   0  0  0  0  0  0  0  0  0  0  0  0
   -0.3540   -1.5334    3.3864 C   0  0  0  0  0  0  0  0  0  0  0  0
   -0.4422   -2.5652    3.0699 H   0  0  0  0  0  0  0  0  0  0  0  0
   -0.1742   -0.0430   -1.2609 C   0  0  0  0  0  0  0  0  0  0  0  0
   -0.6202    0.8257   -2.0105 O   0  0  0  0  0  0  0  0  0  0  0  0
    0.7299   -0.9409   -1.6649 N   0  0  0  0  0  0  0  0  0  0  0  0
    0.9621   -1.6837   -1.0151 H   0  0  0  0  0  0  0  0  0  0  0  0
    1.2962   -1.0069   -3.0101 C   0  0  0  0  0  0  0  0  0  0  0  0
    1.4196    0.0007   -3.4154 H   0  0  0  0  0  0  0  0  0  0  0  0
    2.2684   -1.5008   -2.9793 H   0  0  0  0  0  0  0  0  0  0  0  0
    0.6252   -1.5690   -3.6617 H   0  0  0  0  0  0  0  0  0  0  0  0
  5  6  2  0  0  0  0
  5  7  1  0  0  0  0
  2  3  1  0  0  0  0
  2  4  1  0  0  0  0
  2  5  1  0  0  0  0
  1  2  1  0  0  0  0
 22 23  2  0  0  0  0
 22 24  1  0  0  0  0
 20 21  1  0  0  0  0
 18 19  1  0  0  0  0
 18 20  1  0  0  0  0
 16 17  1  0  0  0  0
 16 18  1  0  0  0  0
 15 16  2  0  0  0  0
 14 15  1  0  0  0  0
 14 20  2  0  0  0  0
 11 12  1  0  0  0  0
 11 13  1  0  0  0  0
 11 14  1  0  0  0  0
  9 10  1  0  0  0  0
  9 11  1  0  0  0  0
  9 22  1  0  0  0  0
  7  8  1  0  0  0  0
  7  9  1  0  0  0  0
 26 27  1  0  0  0  0
 26 28  1  0  0  0  0
 26 29  1  0  0  0  0
 24 25  1  0  0  0  0
 24 26  1  0  0  0  0
M  END
$$$$
default_name
  -OEChem-01062215323D

 29 29  0     1  0  0  0  0  0999 V2000
   -2.9561   -3.9186    1.3887 H   0  0  0  0  0  0  0  0  0  0  0  0
   -3.1191   -2.9346    0.9517 C   0  0  0  0  0  0  0  0  0  0  0  0
   -3.7811   -2.3546    1.5917 H   0  0  0  0  0  0  0  0  0  0  0  0
   -3.5591   -3.0406   -0.0383 H   0  0  0  0  0  0  0  0  0  0  0  0
   -1.7921   -2.2226    0.8327 C   0  0  0  0  0  0  0  0  0  0  0  0
   -0.7611   -2.7766    1.1927 O   0  0  0  0  0  0  0  0  0  0  0  0
   -1.8201   -0.9926    0.3247 N   0  0  0  0  0  0  0  0  0  0  0  0
   -2.7141   -0.5816    0.0927 H   0  0  0  0  0  0  0  0  0  0  0  0
   -0.6481   -0.1156    0.2017 C   0  0  1  0  0  0  0  0  0  0  0  0
   -0.9443    0.8923    0.4993 H   0  0  0  0  0  0  0  0  0  0  0  0
    0.4618   -0.5938    1.1578 C   0  0  0  0  0  0  0  0  0  0  0  0
    0.6964   -1.6402    0.9573 H   0  0  0  0  0  0  0  0  0  0  0  0
    1.3706   -0.0151    0.9870 H   0  0  0  0  0  0  0  0  0  0  0  0
    0.0677   -0.4929    2.6113 C   0  0  0  0  0  0  0  0  0  0  0  0
   -0.0033    0.6830    3.3594 N   0  0  0  0  0  0  0  0  0  0  0  0
   -0.4372    0.3213    4.5756 C   0  0  0  0  0  0  0  0  0  0  0  0
   -0.5889    1.0060    5.4005 H   0  0  0  0  0  0  0  0  0  0  0  0
   -0.6633   -1.0024    4.6188 N   0  0  0  0  0  0  0  0  0  0  0  0
   -1.0128   -1.5117    5.4190 H   0  0  0  0  0  0  0  0  0  0  0  0
   -0.3540   -1.5334    3.3864 C   0  0  0  0  0  0  0  0  0  0  0  0
   -0.4422   -2.5652    3.0699 H   0  0  0  0  0  0  0  0  0  0  0  0
   -0.1742   -0.0430   -1.2609 C   0  0  0  0  0  0  0  0  0  0  0  0
   -0.3940    0.9665   -1.9302 O   0  0  0  0  0  0  0  0  0  0  0  0
    0.4798   -1.0994   -1.7538 N   0  0  0  0  0  0  0  0  0  0  0  0
    0.5232   -1.9268   -1.1694 H   0  0  0  0  0  0  0  0  0  0  0  0
    1.0093   -1.1930   -3.1122 C   0  0  0  0  0  0  0  0  0  0  0  0
    1.3763   -0.2170   -3.4402 H   0  0  0  0  0  0  0  0  0  0  0  0
    1.8299   -1.9112   -3.1418 H   0  0  0  0  0  0  0  0  0  0  0  0
    0.2191   -1.5183   -3.7908 H   0  0  0  0  0  0  0  0  0  0  0  0
  5  6  2  0  0  0  0
  5  7  1  0  0  0  0
  2  3  1  0  0  0  0
  2  4  1  0  0  0  0
  2  5  1  0  0  0  0
  1  2  1  0  0  0  0
 22 23  2  0  0  0  0
 22 24  1  0  0  0  0
 20 21  1  0  0  0  0
 18 19  1  0  0  0  0
 18 20  1  0  0  0  0
 16 17  1  0  0  0  0
 16 18  1  0  0  0  0
 15 16  2  0  0  0  0
 14 15  1  0  0  0  0
 14 20  2  0  0  0  0
 11 12  1  0  0  0  0
 11 13  1  0  0  0  0
 11 14  1  0  0  0  0
  9 10  1  0  0  0  0
  9 11  1  0  0  0  0
  9 22  1  0  0  0  0
  7  8  1  0  0  0  0
  7  9  1  0  0  0  0
 26 27  1  0  0  0  0
 26 28  1  0  0  0  0
 26 29  1  0  0  0  0
 24 25  1  0  0  0  0
 24 26  1  0  0  0  0
M  END
$$$$
default_name
  -OEChem-01062215323D

 29 29  0     1  0  0  0  0  0999 V2000
   -2.9561   -3.9186    1.3887 H   0  0  0  0  0  0  0  0  0  0  0  0
   -3.1191   -2.9346    0.9517 C   0  0  0  0  0  0  0  0  0  0  0  0
   -3.7811   -2.3546    1.5917 H   0  0  0  0  0  0  0  0  0  0  0  0
   -3.5591   -3.0406   -0.0383 H   0  0  0  0  0  0  0  0  0  0  0  0
   -1.7921   -2.2226    0.8327 C   0  0  0  0  0  0  0  0  0  0  0  0
   -0.7611   -2.7766    1.1927 O   0  0  0  0  0  0  0  0  0  0  0  0
   -1.8201   -0.9926    0.3247 N   0  0  0  0  0  0  0  0  0  0  0  0
   -2.7141   -0.5816    0.0927 H   0  0  0  0  0  0  0  0  0  0  0  0
   -0.6481   -0.1156    0.2017 C   0  0  1  0  0  0  0  0  0  0  0  0
   -0.9443    0.8923    0.4993 H   0  0  0  0  0  0  0  0  0  0  0  0
    0.4618   -0.5938    1.1578 C   0  0  0  0  0  0  0  0  0  0  0  0
    0.6964   -1.6402    0.9573 H   0  0  0  0  0  0  0  0  0  0  0  0
    1.3706   -0.0151    0.9870 H   0  0  0  0  0  0  0  0  0  0  0  0
    0.0677   -0.4929    2.6113 C   0  0  0  0  0  0  0  0  0  0  0  0
   -0.0033    0.6830    3.3594 N   0  0  0  0  0  0  0  0  0  0  0  0
   -0.4372    0.3213    4.5756 C   0  0  0  0  0  0  0  0  0  0  0  0
   -0.5889    1.0060    5.4005 H   0  0  0  0  0  0  0  0  0  0  0  0
   -0.6633   -1.0024    4.6188 N   0  0  0  0  0  0  0  0  0  0  0  0
   -1.0128   -1.5117    5.4190 H   0  0  0  0  0  0  0  0  0  0  0  0
   -0.3540   -1.5334    3.3864 C   0  0  0  0  0  0  0  0  0  0  0  0
   -0.4422   -2.5652    3.0699 H   0  0  0  0  0  0  0  0  0  0  0  0
   -0.1742   -0.0430   -1.2609 C   0  0  0  0  0  0  0  0  0  0  0  0
   -0.1400    1.0405   -1.8442 O   0  0  0  0  0  0  0  0  0  0  0  0
    0.1982   -1.1840   -1.8492 N   0  0  0  0  0  0  0  0  0  0  0  0
    0.0377   -2.0414   -1.3324 H   0  0  0  0  0  0  0  0  0  0  0  0
    0.6853   -1.2940   -3.2223 C   0  0  0  0  0  0  0  0  0  0  0  0
    1.2807   -0.4147   -3.4810 H   0  0  0  0  0  0  0  0  0  0  0  0
    1.3035   -2.1868   -3.3261 H   0  0  0  0  0  0  0  0  0  0  0  0
   -0.1623   -1.3592   -3.9064 H   0  0  0  0  0  0  0  0  0  0  0  0
  5  6  2  0  0  0  0
  5  7  1  0  0  0  0
  2  3  1  0  0  0  0
  2  4  1  0  0  0  0
  2  5  1  0  0  0  0
  1  2  1  0  0  0  0
 22 23  2  0  0  0  0
 22 24  1  0  0  0  0
 20 21  1  0  0  0  0
 18 19  1  0  0  0  0
 18 20  1  0  0  0  0
 16 17  1  0  0  0  0
 16 18  1  0  0  0  0
 15 16  2  0  0  0  0
 14 15  1  0  0  0  0
 14 20  2  0  0  0  0
 11 12  1  0  0  0  0
 11 13  1  0  0  0  0
 11 14  1  0  0  0  0
  9 10  1  0  0  0  0
  9 11  1  0  0  0  0
  9 22  1  0  0  0  0
  7  8  1  0  0  0  0
  7  9  1  0  0  0  0
 26 27  1  0  0  0  0
 26 28  1  0  0  0  0
 26 29  1  0  0  0  0
 24 25  1  0  0  0  0
 24 26  1  0  0  0  0
M  END
$$$$
default_name
  -OEChem-01062215323D

 29 29  0     1  0  0  0  0  0999 V2000
   -2.9561   -3.9186    1.3887 H   0  0  0  0  0  0  0  0  0  0  0  0
   -3.1191   -2.9346    0.9517 C   0  0  0  0  0  0  0  0  0  0  0  0
   -3.7811   -2.3546    1.5917 H   0  0  0  0  0  0  0  0  0  0  0  0
   -3.5591   -3.0406   -0.0383 H   0  0  0  0  0  0  0  0  0  0  0  0
   -1.7921   -2.2226    0.8327 C   0  0  0  0  0  0  0  0  0  0  0  0
   -0.7611   -2.7766    1.1927 O   0  0  0  0  0  0  0  0  0  0  0  0
   -1.8201   -0.9926    0.3247 N   0  0  0  0  0  0  0  0  0  0  0  0
   -2.7141   -0.5816    0.0927 H   0  0  0  0  0  0  0  0  0  0  0  0
   -0.6481   -0.1156    0.2017 C   0  0  1  0  0  0  0  0  0  0  0  0
   -0.9443    0.8923    0.4993 H   0  0  0  0  0  0  0  0  0  0  0  0
    0.4618   -0.5938    1.1578 C   0  0  0  0  0  0  0  0  0  0  0  0
    0.6964   -1.6402    0.9573 H   0  0  0  0  0  0  0  0  0  0  0  0
    1.3706   -0.0151    0.9870 H   0  0  0  0  0  0  0  0  0  0  0  0
    0.0677   -0.4929    2.6113 C   0  0  0  0  0  0  0  0  0  0  0  0
   -0.0033    0.6830    3.3594 N   0  0  0  0  0  0  0  0  0  0  0  0
   -0.4372    0.3213    4.5756 C   0  0  0  0  0  0  0  0  0  0  0  0
   -0.5889    1.0060    5.4005 H   0  0  0  0  0  0  0  0  0  0  0  0
   -0.6633   -1.0024    4.6188 N   0  0  0  0  0  0  0  0  0  0  0  0
   -1.0128   -1.5117    5.4190 H   0  0  0  0  0  0  0  0  0  0  0  0
   -0.3540   -1.5334    3.3864 C   0  0  0  0  0  0  0  0  0  0  0  0
   -0.4422   -2.5652    3.0699 H   0  0  0  0  0  0  0  0  0  0  0  0
   -0.1742   -0.0430   -1.2609 C   0  0  0  0  0  0  0  0  0  0  0  0
    0.1247    1.0427   -1.7584 O   0  0  0  0  0  0  0  0  0  0  0  0
   -0.0958   -1.1888   -1.9448 N   0  0  0  0  0  0  0  0  0  0  0  0
   -0.4615   -2.0196   -1.4931 H   0  0  0  0  0  0  0  0  0  0  0  0
    0.3461   -1.3031   -3.3326 C   0  0  0  0  0  0  0  0  0  0  0  0
    1.1393   -0.5788   -3.5350 H   0  0  0  0  0  0  0  0  0  0  0  0
    0.7249   -2.3089   -3.5196 H   0  0  0  0  0  0  0  0  0  0  0  0
   -0.4930   -1.1025   -4.0008 H   0  0  0  0  0  0  0  0  0  0  0  0
  5  6  2  0  0  0  0
  5  7  1  0  0  0  0
  2  3  1  0  0  0  0
  2  4  1  0  0  0  0
  2  5  1  0  0  0  0
  1  2  1  0  0  0  0
 22 23  2  0  0  0  0
 22 24  1  0  0  0  0
 20 21  1  0  0  0  0
 18 19  1  0  0  0  0
 18 20  1  0  0  0  0
 16 17  1  0  0  0  0
 16 18  1  0  0  0  0
 15 16  2  0  0  0  0
 14 15  1  0  0  0  0
 14 20  2  0  0  0  0
 11 12  1  0  0  0  0
 11 13  1  0  0  0  0
 11 14  1  0  0  0  0
  9 10  1  0  0  0  0
  9 11  1  0  0  0  0
  9 22  1  0  0  0  0
  7  8  1  0  0  0  0
  7  9  1  0  0  0  0
 26 27  1  0  0  0  0
 26 28  1  0  0  0  0
 26 29  1  0  0  0  0
 24 25  1  0  0  0  0
 24 26  1  0  0  0  0
M  END
$$$$
default_name
  -OEChem-01062215323D

 29 29  0     1  0  0  0  0  0999 V2000
   -2.9561   -3.9186    1.3887 H   0  0  0  0  0  0  0  0  0  0  0  0
   -3.1191   -2.9346    0.9517 C   0  0  0  0  0  0  0  0  0  0  0  0
   -3.7811   -2.3546    1.5917 H   0  0  0  0  0  0  0  0  0  0  0  0
   -3.5591   -3.0406   -0.0383 H   0  0  0  0  0  0  0  0  0  0  0  0
   -1.7921   -2.2226    0.8327 C   0  0  0  0  0  0  0  0  0  0  0  0
   -0.7611   -2.7766    1.1927 O   0  0  0  0  0  0  0  0  0  0  0  0
   -1.8201   -0.9926    0.3247 N   0  0  0  0  0  0  0  0  0  0  0  0
   -2.7141   -0.5816    0.0927 H   0  0  0  0  0  0  0  0  0  0  0  0
   -0.6481   -0.1156    0.2017 C   0  0  1  0  0  0  0  0  0  0  0  0
   -0.9443    0.8923    0.4993 H   0  0  0  0  0  0  0  0  0  0  0  0
    0.4618   -0.5938    1.1578 C   0  0  0  0  0  0  0  0  0  0  0  0
    0.6964   -1.6402    0.9573 H   0  0  0  0  0  0  0  0  0  0  0  0
    1.3706   -0.0151    0.9870 H   0  0  0  0  0  0  0  0  0  0  0  0
    0.0677   -0.4929    2.6113 C   0  0  0  0  0  0  0  0  0  0  0  0
   -0.0033    0.6830    3.3594 N   0  0  0  0  0  0  0  0  0  0  0  0
   -0.4372    0.3213    4.5756 C   0  0  0  0  0  0  0  0  0  0  0  0
   -0.5889    1.0060    5.4005 H   0  0  0  0  0  0  0  0  0  0  0  0
   -0.6633   -1.0024    4.6188 N   0  0  0  0  0  0  0  0  0  0  0  0
   -1.0128   -1.5117    5.4190 H   0  0  0  0  0  0  0  0  0  0  0  0
   -0.3540   -1.5334    3.3864 C   0  0  0  0  0  0  0  0  0  0  0  0
   -0.4422   -2.5652    3.0699 H   0  0  0  0  0  0  0  0  0  0  0  0
   -0.1742   -0.0430   -1.2609 C   0  0  0  0  0  0  0  0  0  0  0  0
    0.3819    0.9728   -1.6785 O   0  0  0  0  0  0  0  0  0  0  0  0
   -0.3822   -1.1136   -2.0338 N   0  0  0  0  0  0  0  0  0  0  0  0
   -0.9403   -1.8631   -1.6404 H   0  0  0  0  0  0  0  0  0  0  0  0
    0.0148   -1.2197   -3.4358 C   0  0  0  0  0  0  0  0  0  0  0  0
    0.9616   -0.6983   -3.5985 H   0  0  0  0  0  0  0  0  0  0  0  0
    0.1337   -2.2691   -3.7092 H   0  0  0  0  0  0  0  0  0  0  0  0
   -0.7504   -0.7657   -4.0675 H   0  0  0  0  0  0  0  0  0  0  0  0
  5  6  2  0  0  0  0
  5  7  1  0  0  0  0
  2  3  1  0  0  0  0
  2  4  1  0  0  0  0
  2  5  1  0  0  0  0
  1  2  1  0  0  0  0
 22 23  2  0  0  0  0
 22 24  1  0  0  0  0
 20 21  1  0  0  0  0
 18 19  1  0  0  0  0
 18 20  1  0  0  0  0
 16 17  1  0  0  0  0
 16 18  1  0  0  0  0
 15 16  2  0  0  0  0
 14 15  1  0  0  0  0
 14 20  2  0  0  0  0
 11 12  1  0  0  0  0
 11 13  1  0  0  0  0
 11 14  1  0  0  0  0
  9 10  1  0  0  0  0
  9 11  1  0  0  0  0
  9 22  1  0  0  0  0
  7  8  1  0  0  0  0
  7  9  1  0  0  0  0
 26 27  1  0  0  0  0
 26 28  1  0  0  0  0
 26 29  1  0  0  0  0
 24 25  1  0  0  0  0
 24 26  1  0  0  0  0
M  END
$$$$
default_name
  -OEChem-01062215323D

 29 29  0     1  0  0  0  0  0999 V2000
   -2.9561   -3.9186    1.3887 H   0  0  0  0  0  0  0  0  0  0  0  0
   -3.1191   -2.9346    0.9517 C   0  0  0  0  0  0  0  0  0  0  0  0
   -3.7811   -2.3546    1.5917 H   0  0  0  0  0  0  0  0  0  0  0  0
   -3.5591   -3.0406   -0.0383 H   0  0  0  0  0  0  0  0  0  0  0  0
   -1.7921   -2.2226    0.8327 C   0  0  0  0  0  0  0  0  0  0  0  0
   -0.7611   -2.7766    1.1927 O   0  0  0  0  0  0  0  0  0  0  0  0
   -1.8201   -0.9926    0.3247 N   0  0  0  0  0  0  0  0  0  0  0  0
   -2.7141   -0.5816    0.0927 H   0  0  0  0  0  0  0  0  0  0  0  0
   -0.6481   -0.1156    0.2017 C   0  0  1  0  0  0  0  0  0  0  0  0
   -0.9443    0.8923    0.4993 H   0  0  0  0  0  0  0  0  0  0  0  0
    0.4618   -0.5938    1.1578 C   0  0  0  0  0  0  0  0  0  0  0  0
    0.6964   -1.6402    0.9573 H   0  0  0  0  0  0  0  0  0  0  0  0
    1.3706   -0.0151    0.9870 H   0  0  0  0  0  0  0  0  0  0  0  0
    0.0677   -0.4929    2.6113 C   0  0  0  0  0  0  0  0  0  0  0  0
   -0.0033    0.6830    3.3594 N   0  0  0  0  0  0  0  0  0  0  0  0
   -0.4372    0.3213    4.5756 C   0  0  0  0  0  0  0  0  0  0  0  0
   -0.5889    1.0060    5.4005 H   0  0  0  0  0  0  0  0  0  0  0  0
   -0.6633   -1.0024    4.6188 N   0  0  0  0  0  0  0  0  0  0  0  0
   -1.0128   -1.5117    5.4190 H   0  0  0  0  0  0  0  0  0  0  0  0
   -0.3540   -1.5334    3.3864 C   0  0  0  0  0  0  0  0  0  0  0  0
   -0.4422   -2.5652    3.0699 H   0  0  0  0  0  0  0  0  0  0  0  0
   -0.1742   -0.0430   -1.2609 C   0  0  0  0  0  0  0  0  0  0  0  0
    0.6141    0.8357   -1.6101 O   0  0  0  0  0  0  0  0  0  0  0  0
   -0.6413   -0.9633   -2.1103 N   0  0  0  0  0  0  0  0  0  0  0  0
   -1.3660   -1.5823   -1.7644 H   0  0  0  0  0  0  0  0  0  0  0  0
   -0.2859   -1.0495   -3.5248 C   0  0  0  0  0  0  0  0  0  0  0  0
    0.7598   -0.7649   -3.6672 H   0  0  0  0  0  0  0  0  0  0  0  0
   -0.4299   -2.0702   -3.8819 H   0  0  0  0  0  0  0  0  0  0  0  0
   -0.9171   -0.3718   -4.1020 H   0  0  0  0  0  0  0  0  0  0  0  0
  5  6  2  0  0  0  0
  5  7  1  0  0  0  0
  2  3  1  0  0  0  0
  2  4  1  0  0  0  0
  2  5  1  0  0  0  0
  1  2  1  0  0  0  0
 22 23  2  0  0  0  0
 22 24  1  0  0  0  0
 20 21  1  0  0  0  0
 18 19  1  0  0  0  0
 18 20  1  0  0  0  0
 16 17  1  0  0  0  0
 16 18  1  0  0  0  0
 15 16  2  0  0  0  0
 14 15  1  0  0  0  0
 14 20  2  0  0  0  0
 11 12  1  0  0  0  0
 11 13  1  0  0  0  0
 11 14  1  0  0  0  0
  9 10  1  0  0  0  0
  9 11  1  0  0  0  0
  9 22  1  0  0  0  0
  7  8  1  0  0  0  0
  7  9  1  0  0  0  0
 26 27  1  0  0  0  0
 26 28  1  0  0  0  0
 26 29  1  0  0  0  0
 24 25  1  0  0  0  0
 24 26  1  0  0  0  0
M  END
$$$$
default_name
  -OEChem-01062215323D

 29 29  0     1  0  0  0  0  0999 V2000
   -2.9561   -3.9186    1.3887 H   0  0  0  0  0  0  0  0  0  0  0  0
   -3.1191   -2.9346    0.9517 C   0  0  0  0  0  0  0  0  0  0  0  0
   -3.7811   -2.3546    1.5917 H   0  0  0  0  0  0  0  0  0  0  0  0
   -3.5591   -3.0406   -0.0383 H   0  0  0  0  0  0  0  0  0  0  0  0
   -1.7921   -2.2226    0.8327 C   0  0  0  0  0  0  0  0  0  0  0  0
   -0.7611   -2.7766    1.1927 O   0  0  0  0  0  0  0  0  0  0  0  0
   -1.8201   -0.9926    0.3247 N   0  0  0  0  0  0  0  0  0  0  0  0
   -2.7141   -0.5816    0.0927 H   0  0  0  0  0  0  0  0  0  0  0  0
   -0.6481   -0.1156    0.2017 C   0  0  1  0  0  0  0  0  0  0  0  0
   -0.9443    0.8923    0.4993 H   0  0  0  0  0  0  0  0  0  0  0  0
    0.4618   -0.5938    1.1578 C   0  0  0  0  0  0  0  0  0  0  0  0
    0.6964   -1.6402    0.9573 H   0  0  0  0  0  0  0  0  0  0  0  0
    1.3706   -0.0151    0.9870 H   0  0  0  0  0  0  0  0  0  0  0  0
    0.0677   -0.4929    2.6113 C   0  0  0  0  0  0  0  0  0  0  0  0
   -0.0033    0.6830    3.3594 N   0  0  0  0  0  0  0  0  0  0  0  0
   -0.4372    0.3213    4.5756 C   0  0  0  0  0  0  0  0  0  0  0  0
   -0.5889    1.0060    5.4005 H   0  0  0  0  0  0  0  0  0  0  0  0
   -0.6633   -1.0024    4.6188 N   0  0  0  0  0  0  0  0  0  0  0  0
   -1.0128   -1.5117    5.4190 H   0  0  0  0  0  0  0  0  0  0  0  0
   -0.3540   -1.5334    3.3864 C   0  0  0  0  0  0  0  0  0  0  0  0
   -0.4422   -2.5652    3.0699 H   0  0  0  0  0  0  0  0  0  0  0  0
   -0.1742   -0.0430   -1.2609 C   0  0  0  0  0  0  0  0  0  0  0  0
    0.8055    0.6407   -1.5577 O   0  0  0  0  0  0  0  0  0  0  0  0
   -0.8557   -0.7484   -2.1691 N   0  0  0  0  0  0  0  0  0  0  0  0
   -1.7098   -1.1966   -1.8567 H   0  0  0  0  0  0  0  0  0  0  0  0
   -0.5356   -0.8040   -3.5935 C   0  0  0  0  0  0  0  0  0  0  0  0
    0.5477   -0.7742   -3.7364 H   0  0  0  0  0  0  0  0  0  0  0  0
   -0.9275   -1.7256   -4.0260 H   0  0  0  0  0  0  0  0  0  0  0  0
   -0.9816    0.0525   -4.1018 H   0  0  0  0  0  0  0  0  0  0  0  0
  5  6  2  0  0  0  0
  5  7  1  0  0  0  0
  2  3  1  0  0  0  0
  2  4  1  0  0  0  0
  2  5  1  0  0  0  0
  1  2  1  0  0  0  0
 22 23  2  0  0  0  0
 22 24  1  0  0  0  0
 20 21  1  0  0  0  0
 18 19  1  0  0  0  0
 18 20  1  0  0  0  0
 16 17  1  0  0  0  0
 16 18  1  0  0  0  0
 15 16  2  0  0  0  0
 14 15  1  0  0  0  0
 14 20  2  0  0  0  0
 11 12  1  0  0  0  0
 11 13  1  0  0  0  0
 11 14  1  0  0  0  0
  9 10  1  0  0  0  0
  9 11  1  0  0  0  0
  9 22  1  0  0  0  0
  7  8  1  0  0  0  0
  7  9  1  0  0  0  0
 26 27  1  0  0  0  0
 26 28  1  0  0  0  0
 26 29  1  0  0  0  0
 24 25  1  0  0  0  0
 24 26  1  0  0  0  0
M  END
$$$$
default_name
  -OEChem-01062215323D

 29 29  0     1  0  0  0  0  0999 V2000
   -2.9561   -3.9186    1.3887 H   0  0  0  0  0  0  0  0  0  0  0  0
   -3.1191   -2.9346    0.9517 C   0  0  0  0  0  0  0  0  0  0  0  0
   -3.7811   -2.3546    1.5917 H   0  0  0  0  0  0  0  0  0  0  0  0
   -3.5591   -3.0406   -0.0383 H   0  0  0  0  0  0  0  0  0  0  0  0
   -1.7921   -2.2226    0.8327 C   0  0  0  0  0  0  0  0  0  0  0  0
   -0.7611   -2.7766    1.1927 O   0  0  0  0  0  0  0  0  0  0  0  0
   -1.8201   -0.9926    0.3247 N   0  0  0  0  0  0  0  0  0  0  0  0
   -2.7141   -0.5816    0.0927 H   0  0  0  0  0  0  0  0  0  0  0  0
   -0.6481   -0.1156    0.2017 C   0  0  1  0  0  0  0  0  0  0  0  0
   -0.9443    0.8923    0.4993 H   0  0  0  0  0  0  0  0  0  0  0  0
    0.4618   -0.5938    1.1578 C   0  0  0  0  0  0  0  0  0  0  0  0
    0.6964   -1.6402    0.9573 H   0  0  0  0  0  0  0  0  0  0  0  0
    1.3706   -0.0151    0.9870 H   0  0  0  0  0  0  0  0  0  0  0  0
    0.0677   -0.4929    2.6113 C   0  0  0  0  0  0  0  0  0  0  0  0
   -0.0033    0.6830    3.3594 N   0  0  0  0  0  0  0  0  0  0  0  0
   -0.4372    0.3213    4.5756 C   0  0  0  0  0  0  0  0  0  0  0  0
   -0.5889    1.0060    5.4005 H   0  0  0  0  0  0  0  0  0  0  0  0
   -0.6633   -1.0024    4.6188 N   0  0  0  0  0  0  0  0  0  0  0  0
   -1.0128   -1.5117    5.4190 H   0  0  0  0  0  0  0  0  0  0  0  0
   -0.3540   -1.5334    3.3864 C   0  0  0  0  0  0  0  0  0  0  0  0
   -0.4422   -2.5652    3.0699 H   0  0  0  0  0  0  0  0  0  0  0  0
   -0.1742   -0.0430   -1.2609 C   0  0  0  0  0  0  0  0  0  0  0  0
    0.9431    0.4011   -1.5251 O   0  0  0  0  0  0  0  0  0  0  0  0
   -1.0105   -0.4834   -2.2061 N   0  0  0  0  0  0  0  0  0  0  0  0
   -1.9480   -0.7321   -1.9108 H   0  0  0  0  0  0  0  0  0  0  0  0
   -0.7172   -0.4999   -3.6373 C   0  0  0  0  0  0  0  0  0  0  0  0
    0.3396   -0.7255   -3.8014 H   0  0  0  0  0  0  0  0  0  0  0  0
   -1.3251   -1.2589   -4.1317 H   0  0  0  0  0  0  0  0  0  0  0  0
   -0.9395    0.4782   -4.0670 H   0  0  0  0  0  0  0  0  0  0  0  0
  5  6  2  0  0  0  0
  5  7  1  0  0  0  0
  2  3  1  0  0  0  0
  2  4  1  0  0  0  0
  2  5  1  0  0  0  0
  1  2  1  0  0  0  0
 22 23  2  0  0  0  0
 22 24  1  0  0  0  0
 20 21  1  0  0  0  0
 18 19  1  0  0  0  0
 18 20  1  0  0  0  0
 16 17  1  0  0  0  0
 16 18  1  0  0  0  0
 15 16  2  0  0  0  0
 14 15  1  0  0  0  0
 14 20  2  0  0  0  0
 11 12  1  0  0  0  0
 11 13  1  0  0  0  0
 11 14  1  0  0  0  0
  9 10  1  0  0  0  0
  9 11  1  0  0  0  0
  9 22  1  0  0  0  0
  7  8  1  0  0  0  0
  7  9  1  0  0  0  0
 26 27  1  0  0  0  0
 26 28  1  0  0  0  0
 26 29  1  0  0  0  0
 24 25  1  0  0  0  0
 24 26  1  0  0  0  0
M  END
$$$$
default_name
  -OEChem-01062215323D

 29 29  0     1  0  0  0  0  0999 V2000
   -2.9561   -3.9186    1.3887 H   0  0  0  0  0  0  0  0  0  0  0  0
   -3.1191   -2.9346    0.9517 C   0  0  0  0  0  0  0  0  0  0  0  0
   -3.7811   -2.3546    1.5917 H   0  0  0  0  0  0  0  0  0  0  0  0
   -3.5591   -3.0406   -0.0383 H   0  0  0  0  0  0  0  0  0  0  0  0
   -1.7921   -2.2226    0.8327 C   0  0  0  0  0  0  0  0  0  0  0  0
   -0.7611   -2.7766    1.1927 O   0  0  0  0  0  0  0  0  0  0  0  0
   -1.8201   -0.9926    0.3247 N   0  0  0  0  0  0  0  0  0  0  0  0
   -2.7141   -0.5816    0.0927 H   0  0  0  0  0  0  0  0  0  0  0  0
   -0.6481   -0.1156    0.2017 C   0  0  1  0  0  0  0  0  0  0  0  0
   -0.9443    0.8923    0.4993 H   0  0  0  0  0  0  0  0  0  0  0  0
    0.4618   -0.5938    1.1578 C   0  0  0  0  0  0  0  0  0  0  0  0
    0.6964   -1.6402    0.9573 H   0  0  0  0  0  0  0  0  0  0  0  0
    1.3706   -0.0151    0.9870 H   0  0  0  0  0  0  0  0  0  0  0  0
    0.0677   -0.4929    2.6113 C   0  0  0  0  0  0  0  0  0  0  0  0
   -0.0033    0.6830    3.3594 N   0  0  0  0  0  0  0  0  0  0  0  0
   -0.4372    0.3213    4.5756 C   0  0  0  0  0  0  0  0  0  0  0  0
   -0.5889    1.0060    5.4005 H   0  0  0  0  0  0  0  0  0  0  0  0
   -0.6633   -1.0024    4.6188 N   0  0  0  0  0  0  0  0  0  0  0  0
   -1.0128   -1.5117    5.4190 H   0  0  0  0  0  0  0  0  0  0  0  0
   -0.3540   -1.5334    3.3864 C   0  0  0  0  0  0  0  0  0  0  0  0
   -0.4422   -2.5652    3.0699 H   0  0  0  0  0  0  0  0  0  0  0  0
   -0.1742   -0.0430   -1.2609 C   0  0  0  0  0  0  0  0  0  0  0  0
    1.0175    0.1332   -1.5143 O   0  0  0  0  0  0  0  0  0  0  0  0
   -1.0954   -0.1864   -2.2189 N   0  0  0  0  0  0  0  0  0  0  0  0
   -2.0646   -0.2205   -1.9232 H   0  0  0  0  0  0  0  0  0  0  0  0
   -0.8184   -0.1581   -3.6531 C   0  0  0  0  0  0  0  0  0  0  0  0
    0.1499   -0.6221   -3.8577 H   0  0  0  0  0  0  0  0  0  0  0  0
   -1.5957   -0.7020   -4.1917 H   0  0  0  0  0  0  0  0  0  0  0  0
   -0.7938    0.8762   -4.0000 H   0  0  0  0  0  0  0  0  0  0  0  0
  5  6  2  0  0  0  0
  5  7  1  0  0  0  0
  2  3  1  0  0  0  0
  2  4  1  0  0  0  0
  2  5  1  0  0  0  0
  1  2  1  0  0  0  0
 22 23  2  0  0  0  0
 22 24  1  0  0  0  0
 20 21  1  0  0  0  0
 18 19  1  0  0  0  0
 18 20  1  0  0  0  0
 16 17  1  0  0  0  0
 16 18  1  0  0  0  0
 15 16  2  0  0  0  0
 14 15  1  0  0  0  0
 14 20  2  0  0  0  0
 11 12  1  0  0  0  0
 11 13  1  0  0  0  0
 11 14  1  0  0  0  0
  9 10  1  0  0  0  0
  9 11  1  0  0  0  0
  9 22  1  0  0  0  0
  7  8  1  0  0  0  0
  7  9  1  0  0  0  0
 26 27  1  0  0  0  0
 26 28  1  0  0  0  0
 26 29  1  0  0  0  0
 24 25  1  0  0  0  0
 24 26  1  0  0  0  0
M  END
$$$$
default_name
  -OEChem-01062215323D

 29 29  0     1  0  0  0  0  0999 V2000
   -2.9561   -3.9186    1.3887 H   0  0  0  0  0  0  0  0  0  0  0  0
   -3.1191   -2.9346    0.9517 C   0  0  0  0  0  0  0  0  0  0  0  0
   -3.7811   -2.3546    1.5917 H   0  0  0  0  0  0  0  0  0  0  0  0
   -3.5591   -3.0406   -0.0383 H   0  0  0  0  0  0  0  0  0  0  0  0
   -1.7921   -2.2226    0.8327 C   0  0  0  0  0  0  0  0  0  0  0  0
   -0.7611   -2.7766    1.1927 O   0  0  0  0  0  0  0  0  0  0  0  0
   -1.8201   -0.9926    0.3247 N   0  0  0  0  0  0  0  0  0  0  0  0
   -2.7141   -0.5816    0.0927 H   0  0  0  0  0  0  0  0  0  0  0  0
   -0.6481   -0.1156    0.2017 C   0  0  1  0  0  0  0  0  0  0  0  0
   -0.9443    0.8923    0.4993 H   0  0  0  0  0  0  0  0  0  0  0  0
    0.4618   -0.5938    1.1578 C   0  0  0  0  0  0  0  0  0  0  0  0
    0.6964   -1.6402    0.9573 H   0  0  0  0  0  0  0  0  0  0  0  0
    1.3706   -0.0151    0.9870 H   0  0  0  0  0  0  0  0  0  0  0  0
    0.0677   -0.4929    2.6113 C   0  0  0  0  0  0  0  0  0  0  0  0
   -0.0033    0.6830    3.3594 N   0  0  0  0  0  0  0  0  0  0  0  0
   -0.4372    0.3213    4.5756 C   0  0  0  0  0  0  0  0  0  0  0  0
   -0.5889    1.0060    5.4005 H   0  0  0  0  0  0  0  0  0  0  0  0
   -0.6633   -1.0024    4.6188 N   0  0  0  0  0  0  0  0  0  0  0  0
   -1.0128   -1.5117    5.4190 H   0  0  0  0  0  0  0  0  0  0  0  0
   -0.3540   -1.5334    3.3864 C   0  0  0  0  0  0  0  0  0  0  0  0
   -0.4422   -2.5652    3.0699 H   0  0  0  0  0  0  0  0  0  0  0  0
   -0.1742   -0.0430   -1.2609 C   0  0  0  0  0  0  0  0  0  0  0  0
    1.0236   -0.1447   -1.5261 O   0  0  0  0  0  0  0  0  0  0  0  0
   -1.1045    0.1224   -2.2065 N   0  0  0  0  0  0  0  0  0  0  0  0
   -2.0515    0.3034   -1.8929 H   0  0  0  0  0  0  0  0  0  0  0  0
   -0.8323    0.1982   -3.6399 C   0  0  0  0  0  0  0  0  0  0  0  0
   -0.0086   -0.4710   -3.9016 H   0  0  0  0  0  0  0  0  0  0  0  0
   -1.7209   -0.0926   -4.2020 H   0  0  0  0  0  0  0  0  0  0  0  0
   -0.5543    1.2195   -3.9054 H   0  0  0  0  0  0  0  0  0  0  0  0
  5  6  2  0  0  0  0
  5  7  1  0  0  0  0
  2  3  1  0  0  0  0
  2  4  1  0  0  0  0
  2  5  1  0  0  0  0
  1  2  1  0  0  0  0
 22 23  2  0  0  0  0
 22 24  1  0  0  0  0
 20 21  1  0  0  0  0
 18 19  1  0  0  0  0
 18 20  1  0  0  0  0
 16 17  1  0  0  0  0
 16 18  1  0  0  0  0
 15 16  2  0  0  0  0
 14 15  1  0  0  0  0
 14 20  2  0  0  0  0
 11 12  1  0  0  0  0
 11 13  1  0  0  0  0
 11 14  1  0  0  0  0
  9 10  1  0  0  0  0
  9 11  1  0  0  0  0
  9 22  1  0  0  0  0
  7  8  1  0  0  0  0
  7  9  1  0  0  0  0
 26 27  1  0  0  0  0
 26 28  1  0  0  0  0
 26 29  1  0  0  0  0
 24 25  1  0  0  0  0
 24 26  1  0  0  0  0
M  END
$$$$
default_name
  -OEChem-01062215323D

 29 29  0     1  0  0  0  0  0999 V2000
   -2.9561   -3.9186    1.3887 H   0  0  0  0  0  0  0  0  0  0  0  0
   -3.1191   -2.9346    0.9517 C   0  0  0  0  0  0  0  0  0  0  0  0
   -3.7811   -2.3546    1.5917 H   0  0  0  0  0  0  0  0  0  0  0  0
   -3.5591   -3.0406   -0.0383 H   0  0  0  0  0  0  0  0  0  0  0  0
   -1.7921   -2.2226    0.8327 C   0  0  0  0  0  0  0  0  0  0  0  0
   -0.7611   -2.7766    1.1927 O   0  0  0  0  0  0  0  0  0  0  0  0
   -1.8201   -0.9926    0.3247 N   0  0  0  0  0  0  0  0  0  0  0  0
   -2.7141   -0.5816    0.0927 H   0  0  0  0  0  0  0  0  0  0  0  0
   -0.6481   -0.1156    0.2017 C   0  0  1  0  0  0  0  0  0  0  0  0
   -0.9443    0.8923    0.4993 H   0  0  0  0  0  0  0  0  0  0  0  0
    0.4618   -0.5938    1.1578 C   0  0  0  0  0  0  0  0  0  0  0  0
    0.6964   -1.6402    0.9573 H   0  0  0  0  0  0  0  0  0  0  0  0
    1.3706   -0.0151    0.9870 H   0  0  0  0  0  0  0  0  0  0  0  0
    0.0677   -0.4929    2.6113 C   0  0  0  0  0  0  0  0  0  0  0  0
   -0.0033    0.6830    3.3594 N   0  0  0  0  0  0  0  0  0  0  0  0
   -0.4372    0.3213    4.5756 C   0  0  0  0  0  0  0  0  0  0  0  0
   -0.5889    1.0060    5.4005 H   0  0  0  0  0  0  0  0  0  0  0  0
   -0.6633   -1.0024    4.6188 N   0  0  0  0  0  0  0  0  0  0  0  0
   -1.0128   -1.5117    5.4190 H   0  0  0  0  0  0  0  0  0  0  0  0
   -0.3540   -1.5334    3.3864 C   0  0  0  0  0  0  0  0  0  0  0  0
   -0.4422   -2.5652    3.0699 H   0  0  0  0  0  0  0  0  0  0  0  0
   -0.1742   -0.0430   -1.2609 C   0  0  0  0  0  0  0  0  0  0  0  0
    0.9609   -0.4137   -1.5597 O   0  0  0  0  0  0  0  0  0  0  0  0
   -1.0372    0.4219   -2.1698 N   0  0  0  0  0  0  0  0  0  0  0  0
   -1.9097    0.8037   -1.8221 H   0  0  0  0  0  0  0  0  0  0  0  0
   -0.7579    0.5447   -3.5986 C   0  0  0  0  0  0  0  0  0  0  0  0
   -0.1252   -0.2826   -3.9300 H   0  0  0  0  0  0  0  0  0  0  0  0
   -1.6920    0.5276   -4.1619 H   0  0  0  0  0  0  0  0  0  0  0  0
   -0.2374    1.4846   -3.7896 H   0  0  0  0  0  0  0  0  0  0  0  0
  5  6  2  0  0  0  0
  5  7  1  0  0  0  0
  2  3  1  0  0  0  0
  2  4  1  0  0  0  0
  2  5  1  0  0  0  0
  1  2  1  0  0  0  0
 22 23  2  0  0  0  0
 22 24  1  0  0  0  0
 20 21  1  0  0  0  0
 18 19  1  0  0  0  0
 18 20  1  0  0  0  0
 16 17  1  0  0  0  0
 16 18  1  0  0  0  0
 15 16  2  0  0  0  0
 14 15  1  0  0  0  0
 14 20  2  0  0  0  0
 11 12  1  0  0  0  0
 11 13  1  0  0  0  0
 11 14  1  0  0  0  0
  9 10  1  0  0  0  0
  9 11  1  0  0  0  0
  9 22  1  0  0  0  0
  7  8  1  0  0  0  0
  7  9  1  0  0  0  0
 26 27  1  0  0  0  0
 26 28  1  0  0  0  0
 26 29  1  0  0  0  0
 24 25  1  0  0  0  0
 24 26  1  0  0  0  0
M  END
$$$$
default_name
  -OEChem-01062215323D

 29 29  0     1  0  0  0  0  0999 V2000
   -2.9561   -3.9186    1.3887 H   0  0  0  0  0  0  0  0  0  0  0  0
   -3.1191   -2.9346    0.9517 C   0  0  0  0  0  0  0  0  0  0  0  0
   -3.7811   -2.3546    1.5917 H   0  0  0  0  0  0  0  0  0  0  0  0
   -3.5591   -3.0406   -0.0383 H   0  0  0  0  0  0  0  0  0  0  0  0
   -1.7921   -2.2226    0.8327 C   0  0  0  0  0  0  0  0  0  0  0  0
   -0.7611   -2.7766    1.1927 O   0  0  0  0  0  0  0  0  0  0  0  0
   -1.8201   -0.9926    0.3247 N   0  0  0  0  0  0  0  0  0  0  0  0
   -2.7141   -0.5816    0.0927 H   0  0  0  0  0  0  0  0  0  0  0  0
   -0.6481   -0.1156    0.2017 C   0  0  1  0  0  0  0  0  0  0  0  0
   -0.9443    0.8923    0.4993 H   0  0  0  0  0  0  0  0  0  0  0  0
    0.4618   -0.5938    1.1578 C   0  0  0  0  0  0  0  0  0  0  0  0
    0.6964   -1.6402    0.9573 H   0  0  0  0  0  0  0  0  0  0  0  0
    1.3706   -0.0151    0.9870 H   0  0  0  0  0  0  0  0  0  0  0  0
    0.0677   -0.4929    2.6113 C   0  0  0  0  0  0  0  0  0  0  0  0
   -0.0033    0.6830    3.3594 N   0  0  0  0  0  0  0  0  0  0  0  0
   -0.4372    0.3213    4.5756 C   0  0  0  0  0  0  0  0  0  0  0  0
   -0.5889    1.0060    5.4005 H   0  0  0  0  0  0  0  0  0  0  0  0
   -0.6633   -1.0024    4.6188 N   0  0  0  0  0  0  0  0  0  0  0  0
   -1.0128   -1.5117    5.4190 H   0  0  0  0  0  0  0  0  0  0  0  0
   -0.3540   -1.5334    3.3864 C   0  0  0  0  0  0  0  0  0  0  0  0
   -0.4422   -2.5652    3.0699 H   0  0  0  0  0  0  0  0  0  0  0  0
   -0.1742   -0.0430   -1.2609 C   0  0  0  0  0  0  0  0  0  0  0  0
    0.8339   -0.6555   -1.6129 O   0  0  0  0  0  0  0  0  0  0  0  0
   -0.8980    0.6917   -2.1113 N   0  0  0  0  0  0  0  0  0  0  0  0
   -1.6488    1.2465   -1.7156 H   0  0  0  0  0  0  0  0  0  0  0  0
   -0.6003    0.8579   -3.5320 C   0  0  0  0  0  0  0  0  0  0  0  0
   -0.1917   -0.0697   -3.9410 H   0  0  0  0  0  0  0  0  0  0  0  0
   -1.5111    1.1163   -4.0740 H   0  0  0  0  0  0  0  0  0  0  0  0
    0.1353    1.6536   -3.6604 H   0  0  0  0  0  0  0  0  0  0  0  0
  5  6  2  0  0  0  0
  5  7  1  0  0  0  0
  2  3  1  0  0  0  0
  2  4  1  0  0  0  0
  2  5  1  0  0  0  0
  1  2  1  0  0  0  0
 22 23  2  0  0  0  0
 22 24  1  0  0  0  0
 20 21  1  0  0  0  0
 18 19  1  0  0  0  0
 18 20  1  0  0  0  0
 16 17  1  0  0  0  0
 16 18  1  0  0  0  0
 15 16  2  0  0  0  0
 14 15  1  0  0  0  0
 14 20  2  0  0  0  0
 11 12  1  0  0  0  0
 11 13  1  0  0  0  0
 11 14  1  0  0  0  0
  9 10  1  0  0  0  0
  9 11  1  0  0  0  0
  9 22  1  0  0  0  0
  7  8  1  0  0  0  0
  7  9  1  0  0  0  0
 26 27  1  0  0  0  0
 26 28  1  0  0  0  0
 26 29  1  0  0  0  0
 24 25  1  0  0  0  0
 24 26  1  0  0  0  0
M  END
$$$$
default_name
  -OEChem-01062215323D

 29 29  0     1  0  0  0  0  0999 V2000
   -2.9561   -3.9186    1.3887 H   0  0  0  0  0  0  0  0  0  0  0  0
   -3.1191   -2.9346    0.9517 C   0  0  0  0  0  0  0  0  0  0  0  0
   -3.7811   -2.3546    1.5917 H   0  0  0  0  0  0  0  0  0  0  0  0
   -3.5591   -3.0406   -0.0383 H   0  0  0  0  0  0  0  0  0  0  0  0
   -1.7921   -2.2226    0.8327 C   0  0  0  0  0  0  0  0  0  0  0  0
   -0.7611   -2.7766    1.1927 O   0  0  0  0  0  0  0  0  0  0  0  0
   -1.8201   -0.9926    0.3247 N   0  0  0  0  0  0  0  0  0  0  0  0
   -2.7141   -0.5816    0.0927 H   0  0  0  0  0  0  0  0  0  0  0  0
   -0.6481   -0.1156    0.2017 C   0  0  1  0  0  0  0  0  0  0  0  0
   -0.9443    0.8923    0.4993 H   0  0  0  0  0  0  0  0  0  0  0  0
    0.4618   -0.5938    1.1578 C   0  0  0  0  0  0  0  0  0  0  0  0
    0.6964   -1.6402    0.9573 H   0  0  0  0  0  0  0  0  0  0  0  0
    1.3706   -0.0151    0.9870 H   0  0  0  0  0  0  0  0  0  0  0  0
    0.0677   -0.4929    2.6113 C   0  0  0  0  0  0  0  0  0  0  0  0
   -0.0033    0.6830    3.3594 N   0  0  0  0  0  0  0  0  0  0  0  0
   -0.4372    0.3213    4.5756 C   0  0  0  0  0  0  0  0  0  0  0  0
   -0.5889    1.0060    5.4005 H   0  0  0  0  0  0  0  0  0  0  0  0
   -0.6633   -1.0024    4.6188 N   0  0  0  0  0  0  0  0  0  0  0  0
   -1.0128   -1.5117    5.4190 H   0  0  0  0  0  0  0  0  0  0  0  0
   -0.3540   -1.5334    3.3864 C   0  0  0  0  0  0  0  0  0  0  0  0
   -0.4422   -2.5652    3.0699 H   0  0  0  0  0  0  0  0  0  0  0  0
   -0.1742   -0.0430   -1.2609 C   0  0  0  0  0  0  0  0  0  0  0  0
    0.6511   -0.8535   -1.6820 O   0  0  0  0  0  0  0  0  0  0  0  0
   -0.6966    0.9135   -2.0350 N   0  0  0  0  0  0  0  0  0  0  0  0
   -1.2866    1.6015   -1.5806 H   0  0  0  0  0  0  0  0  0  0  0  0
   -0.3703    1.1163   -3.4446 C   0  0  0  0  0  0  0  0  0  0  0  0
   -0.2038    0.1532   -3.9338 H   0  0  0  0  0  0  0  0  0  0  0  0
   -1.1905    1.6335   -3.9444 H   0  0  0  0  0  0  0  0  0  0  0  0
    0.5385    1.7148   -3.5267 H   0  0  0  0  0  0  0  0  0  0  0  0
  5  6  2  0  0  0  0
  5  7  1  0  0  0  0
  2  3  1  0  0  0  0
  2  4  1  0  0  0  0
  2  5  1  0  0  0  0
  1  2  1  0  0  0  0
 22 23  2  0  0  0  0
 22 24  1  0  0  0  0
 20 21  1  0  0  0  0
 18 19  1  0  0  0  0
 18 20  1  0  0  0  0
 16 17  1  0  0  0  0
 16 18  1  0  0  0  0
 15 16  2  0  0  0  0
 14 15  1  0  0  0  0
 14 20  2  0  0  0  0
 11 12  1  0  0  0  0
 11 13  1  0  0  0  0
 11 14  1  0  0  0  0
  9 10  1  0  0  0  0
  9 11  1  0  0  0  0
  9 22  1  0  0  0  0
  7  8  1  0  0  0  0
  7  9  1  0  0  0  0
 26 27  1  0  0  0  0
 26 28  1  0  0  0  0
 26 29  1  0  0  0  0
 24 25  1  0  0  0  0
 24 26  1  0  0  0  0
M  END
$$$$
default_name
  -OEChem-01062215323D

 29 29  0     1  0  0  0  0  0999 V2000
   -2.9561   -3.9186    1.3887 H   0  0  0  0  0  0  0  0  0  0  0  0
   -3.1191   -2.9346    0.9517 C   0  0  0  0  0  0  0  0  0  0  0  0
   -3.7811   -2.3546    1.5917 H   0  0  0  0  0  0  0  0  0  0  0  0
   -3.5591   -3.0406   -0.0383 H   0  0  0  0  0  0  0  0  0  0  0  0
   -1.7921   -2.2226    0.8327 C   0  0  0  0  0  0  0  0  0  0  0  0
   -0.7611   -2.7766    1.1927 O   0  0  0  0  0  0  0  0  0  0  0  0
   -1.8201   -0.9926    0.3247 N   0  0  0  0  0  0  0  0  0  0  0  0
   -2.7141   -0.5816    0.0927 H   0  0  0  0  0  0  0  0  0  0  0  0
   -0.6481   -0.1156    0.2017 C   0  0  1  0  0  0  0  0  0  0  0  0
   -0.9443    0.8923    0.4993 H   0  0  0  0  0  0  0  0  0  0  0  0
    0.4618   -0.5938    1.1578 C   0  0  0  0  0  0  0  0  0  0  0  0
    0.6964   -1.6402    0.9573 H   0  0  0  0  0  0  0  0  0  0  0  0
    1.3706   -0.0151    0.9870 H   0  0  0  0  0  0  0  0  0  0  0  0
    0.0677   -0.4929    2.6113 C   0  0  0  0  0  0  0  0  0  0  0  0
   -0.0033    0.6830    3.3594 N   0  0  0  0  0  0  0  0  0  0  0  0
   -0.4372    0.3213    4.5756 C   0  0  0  0  0  0  0  0  0  0  0  0
   -0.5889    1.0060    5.4005 H   0  0  0  0  0  0  0  0  0  0  0  0
   -0.6633   -1.0024    4.6188 N   0  0  0  0  0  0  0  0  0  0  0  0
   -1.0128   -1.5117    5.4190 H   0  0  0  0  0  0  0  0  0  0  0  0
   -0.3540   -1.5334    3.3864 C   0  0  0  0  0  0  0  0  0  0  0  0
   -0.4422   -2.5652    3.0699 H   0  0  0  0  0  0  0  0  0  0  0  0
   -0.1742   -0.0430   -1.2609 C   0  0  0  0  0  0  0  0  0  0  0  0
    0.4249   -0.9943   -1.7623 O   0  0  0  0  0  0  0  0  0  0  0  0
   -0.4465    1.0720   -1.9461 N   0  0  0  0  0  0  0  0  0  0  0  0
   -0.8477    1.8446   -1.4263 H   0  0  0  0  0  0  0  0  0  0  0  0
   -0.0834    1.3024   -3.3424 C   0  0  0  0  0  0  0  0  0  0  0  0
   -0.1606    0.3708   -3.9090 H   0  0  0  0  0  0  0  0  0  0  0  0
   -0.7520    2.0439   -3.7820 H   0  0  0  0  0  0  0  0  0  0  0  0
    0.9446    1.6642   -3.3976 H   0  0  0  0  0  0  0  0  0  0  0  0
  5  6  2  0  0  0  0
  5  7  1  0  0  0  0
  2  3  1  0  0  0  0
  2  4  1  0  0  0  0
  2  5  1  0  0  0  0
  1  2  1  0  0  0  0
 22 23  2  0  0  0  0
 22 24  1  0  0  0  0
 20 21  1  0  0  0  0
 18 19  1  0  0  0  0
 18 20  1  0  0  0  0
 16 17  1  0  0  0  0
 16 18  1  0  0  0  0
 15 16  2  0  0  0  0
 14 15  1  0  0  0  0
 14 20  2  0  0  0  0
 11 12  1  0  0  0  0
 11 13  1  0  0  0  0
 11 14  1  0  0  0  0
  9 10  1  0  0  0  0
  9 11  1  0  0  0  0
  9 22  1  0  0  0  0
  7  8  1  0  0  0  0
  7  9  1  0  0  0  0
 26 27  1  0  0  0  0
 26 28  1  0  0  0  0
 26 29  1  0  0  0  0
 24 25  1  0  0  0  0
 24 26  1  0  0  0  0
M  END
$$$$
default_name
  -OEChem-01062215323D

 29 29  0     1  0  0  0  0  0999 V2000
   -2.9561   -3.9186    1.3887 H   0  0  0  0  0  0  0  0  0  0  0  0
   -3.1191   -2.9346    0.9517 C   0  0  0  0  0  0  0  0  0  0  0  0
   -3.7811   -2.3546    1.5917 H   0  0  0  0  0  0  0  0  0  0  0  0
   -3.5591   -3.0406   -0.0383 H   0  0  0  0  0  0  0  0  0  0  0  0
   -1.7921   -2.2226    0.8327 C   0  0  0  0  0  0  0  0  0  0  0  0
   -0.7611   -2.7766    1.1927 O   0  0  0  0  0  0  0  0  0  0  0  0
   -1.8201   -0.9926    0.3247 N   0  0  0  0  0  0  0  0  0  0  0  0
   -2.7141   -0.5816    0.0927 H   0  0  0  0  0  0  0  0  0  0  0  0
   -0.6481   -0.1156    0.2017 C   0  0  1  0  0  0  0  0  0  0  0  0
   -0.9443    0.8923    0.4993 H   0  0  0  0  0  0  0  0  0  0  0  0
    0.4618   -0.5938    1.1578 C   0  0  0  0  0  0  0  0  0  0  0  0
    0.6964   -1.6402    0.9573 H   0  0  0  0  0  0  0  0  0  0  0  0
    1.3706   -0.0151    0.9870 H   0  0  0  0  0  0  0  0  0  0  0  0
    0.0677   -0.4929    2.6113 C   0  0  0  0  0  0  0  0  0  0  0  0
   -0.0033    0.6830    3.3594 N   0  0  0  0  0  0  0  0  0  0  0  0
   -0.4372    0.3213    4.5756 C   0  0  0  0  0  0  0  0  0  0  0  0
   -0.5889    1.0060    5.4005 H   0  0  0  0  0  0  0  0  0  0  0  0
   -0.6633   -1.0024    4.6188 N   0  0  0  0  0  0  0  0  0  0  0  0
   -1.0128   -1.5117    5.4190 H   0  0  0  0  0  0  0  0  0  0  0  0
   -0.3540   -1.5334    3.3864 C   0  0  0  0  0  0  0  0  0  0  0  0
   -0.4422   -2.5652    3.0699 H   0  0  0  0  0  0  0  0  0  0  0  0
   -0.1742   -0.0430   -1.2609 C   0  0  0  0  0  0  0  0  0  0  0  0
    0.1709   -1.0683   -1.8483 O   0  0  0  0  0  0  0  0  0  0  0  0
   -0.1649    1.1566   -1.8506 N   0  0  0  0  0  0  0  0  0  0  0  0
   -0.3622    1.9591   -1.2633 H   0  0  0  0  0  0  0  0  0  0  0  0
    0.2406    1.4034   -3.2324 C   0  0  0  0  0  0  0  0  0  0  0  0
   -0.0650    0.5685   -3.8682 H   0  0  0  0  0  0  0  0  0  0  0  0
   -0.2256    2.3196   -3.5977 H   0  0  0  0  0  0  0  0  0  0  0  0
    1.3260    1.5051   -3.2820 H   0  0  0  0  0  0  0  0  0  0  0  0
  5  6  2  0  0  0  0
  5  7  1  0  0  0  0
  2  3  1  0  0  0  0
  2  4  1  0  0  0  0
  2  5  1  0  0  0  0
  1  2  1  0  0  0  0
 22 23  2  0  0  0  0
 22 24  1  0  0  0  0
 20 21  1  0  0  0  0
 18 19  1  0  0  0  0
 18 20  1  0  0  0  0
 16 17  1  0  0  0  0
 16 18  1  0  0  0  0
 15 16  2  0  0  0  0
 14 15  1  0  0  0  0
 14 20  2  0  0  0  0
 11 12  1  0  0  0  0
 11 13  1  0  0  0  0
 11 14  1  0  0  0  0
  9 10  1  0  0  0  0
  9 11  1  0  0  0  0
  9 22  1  0  0  0  0
  7  8  1  0  0  0  0
  7  9  1  0  0  0  0
 26 27  1  0  0  0  0
 26 28  1  0  0  0  0
 26 29  1  0  0  0  0
 24 25  1  0  0  0  0
 24 26  1  0  0  0  0
M  END
$$$$
default_name
  -OEChem-01062215323D

 29 29  0     1  0  0  0  0  0999 V2000
   -2.9561   -3.9186    1.3887 H   0  0  0  0  0  0  0  0  0  0  0  0
   -3.1191   -2.9346    0.9517 C   0  0  0  0  0  0  0  0  0  0  0  0
   -3.7811   -2.3546    1.5917 H   0  0  0  0  0  0  0  0  0  0  0  0
   -3.5591   -3.0406   -0.0383 H   0  0  0  0  0  0  0  0  0  0  0  0
   -1.7921   -2.2226    0.8327 C   0  0  0  0  0  0  0  0  0  0  0  0
   -0.7611   -2.7766    1.1927 O   0  0  0  0  0  0  0  0  0  0  0  0
   -1.8201   -0.9926    0.3247 N   0  0  0  0  0  0  0  0  0  0  0  0
   -2.7141   -0.5816    0.0927 H   0  0  0  0  0  0  0  0  0  0  0  0
   -0.6481   -0.1156    0.2017 C   0  0  1  0  0  0  0  0  0  0  0  0
   -0.9443    0.8923    0.4993 H   0  0  0  0  0  0  0  0  0  0  0  0
    0.4618   -0.5938    1.1578 C   0  0  0  0  0  0  0  0  0  0  0  0
    0.6964   -1.6402    0.9573 H   0  0  0  0  0  0  0  0  0  0  0  0
    1.3706   -0.0151    0.9870 H   0  0  0  0  0  0  0  0  0  0  0  0
    0.0677   -0.4929    2.6113 C   0  0  0  0  0  0  0  0  0  0  0  0
   -0.0033    0.6830    3.3594 N   0  0  0  0  0  0  0  0  0  0  0  0
   -0.4372    0.3213    4.5756 C   0  0  0  0  0  0  0  0  0  0  0  0
   -0.5889    1.0060    5.4005 H   0  0  0  0  0  0  0  0  0  0  0  0
   -0.6633   -1.0024    4.6188 N   0  0  0  0  0  0  0  0  0  0  0  0
   -1.0128   -1.5117    5.4190 H   0  0  0  0  0  0  0  0  0  0  0  0
   -0.3540   -1.5334    3.3864 C   0  0  0  0  0  0  0  0  0  0  0  0
   -0.4422   -2.5652    3.0699 H   0  0  0  0  0  0  0  0  0  0  0  0
   -0.1742   -0.0430   -1.2609 C   0  0  0  0  0  0  0  0  0  0  0  0
   -0.0938   -1.0704   -1.9341 O   0  0  0  0  0  0  0  0  0  0  0  0
    0.1291    1.1614   -1.7551 N   0  0  0  0  0  0  0  0  0  0  0  0
    0.1370    1.9374   -1.1026 H   0  0  0  0  0  0  0  0  0  0  0  0
    0.5798    1.4125   -3.1220 C   0  0  0  0  0  0  0  0  0  0  0  0
    0.0765    0.7327   -3.8142 H   0  0  0  0  0  0  0  0  0  0  0  0
    0.3530    2.4416   -3.4042 H   0  0  0  0  0  0  0  0  0  0  0  0
    1.6567    1.2484   -3.1875 H   0  0  0  0  0  0  0  0  0  0  0  0
  5  6  2  0  0  0  0
  5  7  1  0  0  0  0
  2  3  1  0  0  0  0
  2  4  1  0  0  0  0
  2  5  1  0  0  0  0
  1  2  1  0  0  0  0
 22 23  2  0  0  0  0
 22 24  1  0  0  0  0
 20 21  1  0  0  0  0
 18 19  1  0  0  0  0
 18 20  1  0  0  0  0
 16 17  1  0  0  0  0
 16 18  1  0  0  0  0
 15 16  2  0  0  0  0
 14 15  1  0  0  0  0
 14 20  2  0  0  0  0
 11 12  1  0  0  0  0
 11 13  1  0  0  0  0
 11 14  1  0  0  0  0
  9 10  1  0  0  0  0
  9 11  1  0  0  0  0
  9 22  1  0  0  0  0
  7  8  1  0  0  0  0
  7  9  1  0  0  0  0
 26 27  1  0  0  0  0
 26 28  1  0  0  0  0
 26 29  1  0  0  0  0
 24 25  1  0  0  0  0
 24 26  1  0  0  0  0
M  END
$$$$
default_name
  -OEChem-01062215323D

 29 29  0     1  0  0  0  0  0999 V2000
   -2.9561   -3.9186    1.3887 H   0  0  0  0  0  0  0  0  0  0  0  0
   -3.1191   -2.9346    0.9517 C   0  0  0  0  0  0  0  0  0  0  0  0
   -3.7811   -2.3546    1.5917 H   0  0  0  0  0  0  0  0  0  0  0  0
   -3.5591   -3.0406   -0.0383 H   0  0  0  0  0  0  0  0  0  0  0  0
   -1.7921   -2.2226    0.8327 C   0  0  0  0  0  0  0  0  0  0  0  0
   -0.7611   -2.7766    1.1927 O   0  0  0  0  0  0  0  0  0  0  0  0
   -1.8201   -0.9926    0.3247 N   0  0  0  0  0  0  0  0  0  0  0  0
   -2.7141   -0.5816    0.0927 H   0  0  0  0  0  0  0  0  0  0  0  0
   -0.6481   -0.1156    0.2017 C   0  0  1  0  0  0  0  0  0  0  0  0
   -0.9443    0.8923    0.4993 H   0  0  0  0  0  0  0  0  0  0  0  0
    0.4618   -0.5938    1.1578 C   0  0  0  0  0  0  0  0  0  0  0  0
    0.6964   -1.6402    0.9573 H   0  0  0  0  0  0  0  0  0  0  0  0
    1.3706   -0.0151    0.9870 H   0  0  0  0  0  0  0  0  0  0  0  0
    0.0677   -0.4929    2.6113 C   0  0  0  0  0  0  0  0  0  0  0  0
   -0.0033    0.6830    3.3594 N   0  0  0  0  0  0  0  0  0  0  0  0
   -0.4372    0.3213    4.5756 C   0  0  0  0  0  0  0  0  0  0  0  0
   -0.5889    1.0060    5.4005 H   0  0  0  0  0  0  0  0  0  0  0  0
   -0.6633   -1.0024    4.6188 N   0  0  0  0  0  0  0  0  0  0  0  0
   -1.0128   -1.5117    5.4190 H   0  0  0  0  0  0  0  0  0  0  0  0
   -0.3540   -1.5334    3.3864 C   0  0  0  0  0  0  0  0  0  0  0  0
   -0.4422   -2.5652    3.0699 H   0  0  0  0  0  0  0  0  0  0  0  0
   -0.1742   -0.0430   -1.2609 C   0  0  0  0  0  0  0  0  0  0  0  0
   -0.3510   -1.0005   -2.0140 O   0  0  0  0  0  0  0  0  0  0  0  0
    0.4155    1.0862   -1.6661 N   0  0  0  0  0  0  0  0  0  0  0  0
    0.6158    1.7808   -0.9553 H   0  0  0  0  0  0  0  0  0  0  0  0
    0.9111    1.3291   -3.0188 C   0  0  0  0  0  0  0  0  0  0  0  0
    0.2542    0.8521   -3.7507 H   0  0  0  0  0  0  0  0  0  0  0  0
    0.9442    2.4018   -3.2146 H   0  0  0  0  0  0  0  0  0  0  0  0
    1.9141    0.9116   -3.1209 H   0  0  0  0  0  0  0  0  0  0  0  0
  5  6  2  0  0  0  0
  5  7  1  0  0  0  0
  2  3  1  0  0  0  0
  2  4  1  0  0  0  0
  2  5  1  0  0  0  0
  1  2  1  0  0  0  0
 22 23  2  0  0  0  0
 22 24  1  0  0  0  0
 20 21  1  0  0  0  0
 18 19  1  0  0  0  0
 18 20  1  0  0  0  0
 16 17  1  0  0  0  0
 16 18  1  0  0  0  0
 15 16  2  0  0  0  0
 14 15  1  0  0  0  0
 14 20  2  0  0  0  0
 11 12  1  0  0  0  0
 11 13  1  0  0  0  0
 11 14  1  0  0  0  0
  9 10  1  0  0  0  0
  9 11  1  0  0  0  0
  9 22  1  0  0  0  0
  7  8  1  0  0  0  0
  7  9  1  0  0  0  0
 26 27  1  0  0  0  0
 26 28  1  0  0  0  0
 26 29  1  0  0  0  0
 24 25  1  0  0  0  0
 24 26  1  0  0  0  0
M  END
$$$$
default_name
  -OEChem-01062215323D

 29 29  0     1  0  0  0  0  0999 V2000
   -2.9561   -3.9186    1.3887 H   0  0  0  0  0  0  0  0  0  0  0  0
   -3.1191   -2.9346    0.9517 C   0  0  0  0  0  0  0  0  0  0  0  0
   -3.7811   -2.3546    1.5917 H   0  0  0  0  0  0  0  0  0  0  0  0
   -3.5591   -3.0406   -0.0383 H   0  0  0  0  0  0  0  0  0  0  0  0
   -1.7921   -2.2226    0.8327 C   0  0  0  0  0  0  0  0  0  0  0  0
   -0.7611   -2.7766    1.1927 O   0  0  0  0  0  0  0  0  0  0  0  0
   -1.8201   -0.9926    0.3247 N   0  0  0  0  0  0  0  0  0  0  0  0
   -2.7141   -0.5816    0.0927 H   0  0  0  0  0  0  0  0  0  0  0  0
   -0.6481   -0.1156    0.2017 C   0  0  1  0  0  0  0  0  0  0  0  0
   -0.9443    0.8923    0.4993 H   0  0  0  0  0  0  0  0  0  0  0  0
    0.4618   -0.5938    1.1578 C   0  0  0  0  0  0  0  0  0  0  0  0
    0.6964   -1.6402    0.9573 H   0  0  0  0  0  0  0  0  0  0  0  0
    1.3706   -0.0151    0.9870 H   0  0  0  0  0  0  0  0  0  0  0  0
    0.0677   -0.4929    2.6113 C   0  0  0  0  0  0  0  0  0  0  0  0
   -0.0033    0.6830    3.3594 N   0  0  0  0  0  0  0  0  0  0  0  0
   -0.4372    0.3213    4.5756 C   0  0  0  0  0  0  0  0  0  0  0  0
   -0.5889    1.0060    5.4005 H   0  0  0  0  0  0  0  0  0  0  0  0
   -0.6633   -1.0024    4.6188 N   0  0  0  0  0  0  0  0  0  0  0  0
   -1.0128   -1.5117    5.4190 H   0  0  0  0  0  0  0  0  0  0  0  0
   -0.3540   -1.5334    3.3864 C   0  0  0  0  0  0  0  0  0  0  0  0
   -0.4422   -2.5652    3.0699 H   0  0  0  0  0  0  0  0  0  0  0  0
   -0.1742   -0.0430   -1.2609 C   0  0  0  0  0  0  0  0  0  0  0  0
   -0.5832   -0.8634   -2.0824 O   0  0  0  0  0  0  0  0  0  0  0  0
    0.6746    0.9359   -1.5896 N   0  0  0  0  0  0  0  0  0  0  0  0
    1.0415    1.5001   -0.8312 H   0  0  0  0  0  0  0  0  0  0  0  0
    1.2118    1.1589   -2.9298 C   0  0  0  0  0  0  0  0  0  0  0  0
    0.4560    0.9188   -3.6820 H   0  0  0  0  0  0  0  0  0  0  0  0
    1.5078    2.2029   -3.0418 H   0  0  0  0  0  0  0  0  0  0  0  0
    2.0807    0.5176   -3.0864 H   0  0  0  0  0  0  0  0  0  0  0  0
  5  6  2  0  0  0  0
  5  7  1  0  0  0  0
  2  3  1  0  0  0  0
  2  4  1  0  0  0  0
  2  5  1  0  0  0  0
  1  2  1  0  0  0  0
 22 23  2  0  0  0  0
 22 24  1  0  0  0  0
 20 21  1  0  0  0  0
 18 19  1  0  0  0  0
 18 20  1  0  0  0  0
 16 17  1  0  0  0  0
 16 18  1  0  0  0  0
 15 16  2  0  0  0  0
 14 15  1  0  0  0  0
 14 20  2  0  0  0  0
 11 12  1  0  0  0  0
 11 13  1  0  0  0  0
 11 14  1  0  0  0  0
  9 10  1  0  0  0  0
  9 11  1  0  0  0  0
  9 22  1  0  0  0  0
  7  8  1  0  0  0  0
  7  9  1  0  0  0  0
 26 27  1  0  0  0  0
 26 28  1  0  0  0  0
 26 29  1  0  0  0  0
 24 25  1  0  0  0  0
 24 26  1  0  0  0  0
M  END
$$$$
default_name
  -OEChem-01062215323D

 29 29  0     1  0  0  0  0  0999 V2000
   -2.9561   -3.9186    1.3887 H   0  0  0  0  0  0  0  0  0  0  0  0
   -3.1191   -2.9346    0.9517 C   0  0  0  0  0  0  0  0  0  0  0  0
   -3.7811   -2.3546    1.5917 H   0  0  0  0  0  0  0  0  0  0  0  0
   -3.5591   -3.0406   -0.0383 H   0  0  0  0  0  0  0  0  0  0  0  0
   -1.7921   -2.2226    0.8327 C   0  0  0  0  0  0  0  0  0  0  0  0
   -0.7611   -2.7766    1.1927 O   0  0  0  0  0  0  0  0  0  0  0  0
   -1.8201   -0.9926    0.3247 N   0  0  0  0  0  0  0  0  0  0  0  0
   -2.7141   -0.5816    0.0927 H   0  0  0  0  0  0  0  0  0  0  0  0
   -0.6481   -0.1156    0.2017 C   0  0  1  0  0  0  0  0  0  0  0  0
   -0.8572    0.8098    0.7421 H   0  0  0  0  0  0  0  0  0  0  0  0
    0.5755   -0.7884    0.8535 C   0  0  0  0  0  0  0  0  0  0  0  0
    0.7370   -1.7714    0.4087 H   0  0  0  0  0  0  0  0  0  0  0  0
    1.4690   -0.1918    0.6645 H   0  0  0  0  0  0  0  0  0  0  0  0
    0.4114   -0.9902    2.3403 C   0  0  0  0  0  0  0  0  0  0  0  0
    0.4997    0.0046    3.3150 N   0  0  0  0  0  0  0  0  0  0  0  0
    0.2427   -0.6001    4.4840 C   0  0  0  0  0  0  0  0  0  0  0  0
    0.2443   -0.1013    5.4450 H   0  0  0  0  0  0  0  0  0  0  0  0
   -0.0242   -1.9025    4.2901 N   0  0  0  0  0  0  0  0  0  0  0  0
   -0.2669   -2.5653    5.0137 H   0  0  0  0  0  0  0  0  0  0  0  0
    0.0735   -2.1670    2.9421 C   0  0  0  0  0  0  0  0  0  0  0  0
   -0.1009   -3.1097    2.4389 H   0  0  0  0  0  0  0  0  0  0  0  0
   -0.4000    0.2574   -1.2708 C   0  0  0  0  0  0  0  0  0  0  0  0
   -1.1497   -0.1692   -2.1491 O   0  0  0  0  0  0  0  0  0  0  0  0
    0.6379    1.0550   -1.5419 N   0  0  0  0  0  0  0  0  0  0  0  0
    1.2635    1.2721   -0.7741 H   0  0  0  0  0  0  0  0  0  0  0  0
    1.0081    1.5170   -2.8776 C   0  0  0  0  0  0  0  0  0  0  0  0
    0.1106    1.6922   -3.4764 H   0  0  0  0  0  0  0  0  0  0  0  0
    1.5755    2.4459   -2.8047 H   0  0  0  0  0  0  0  0  0  0  0  0
    1.6179    0.7582   -3.3705 H   0  0  0  0  0  0  0  0  0  0  0  0
  5  6  2  0  0  0  0
  5  7  1  0  0  0  0
  2  3  1  0  0  0  0
  2  4  1  0  0  0  0
  2  5  1  0  0  0  0
  1  2  1  0  0  0  0
 22 23  2  0  0  0  0
 22 24  1  0  0  0  0
 20 21  1  0  0  0  0
 18 19  1  0  0  0  0
 18 20  1  0  0  0  0
 16 17  1  0  0  0  0
 16 18  1  0  0  0  0
 15 16  2  0  0  0  0
 14 15  1  0  0  0  0
 14 20  2  0  0  0  0
 11 12  1  0  0  0  0
 11 13  1  0  0  0  0
 11 14  1  0  0  0  0
  9 10  1  0  0  0  0
  9 11  1  0  0  0  0
  9 22  1  0  0  0  0
  7  8  1  0  0  0  0
  7  9  1  0  0  0  0
 26 27  1  0  0  0  0
 26 28  1  0  0  0  0
 26 29  1  0  0  0  0
 24 25  1  0  0  0  0
 24 26  1  0  0  0  0
M  END
$$$$
default_name
  -OEChem-01062215323D

 29 29  0     1  0  0  0  0  0999 V2000
   -2.9561   -3.9186    1.3887 H   0  0  0  0  0  0  0  0  0  0  0  0
   -3.1191   -2.9346    0.9517 C   0  0  0  0  0  0  0  0  0  0  0  0
   -3.7811   -2.3546    1.5917 H   0  0  0  0  0  0  0  0  0  0  0  0
   -3.5591   -3.0406   -0.0383 H   0  0  0  0  0  0  0  0  0  0  0  0
   -1.7921   -2.2226    0.8327 C   0  0  0  0  0  0  0  0  0  0  0  0
   -0.7611   -2.7766    1.1927 O   0  0  0  0  0  0  0  0  0  0  0  0
   -1.8201   -0.9926    0.3247 N   0  0  0  0  0  0  0  0  0  0  0  0
   -2.7141   -0.5816    0.0927 H   0  0  0  0  0  0  0  0  0  0  0  0
   -0.6481   -0.1156    0.2017 C   0  0  1  0  0  0  0  0  0  0  0  0
   -0.8572    0.8098    0.7421 H   0  0  0  0  0  0  0  0  0  0  0  0
    0.5755   -0.7884    0.8535 C   0  0  0  0  0  0  0  0  0  0  0  0
    0.7370   -1.7714    0.4087 H   0  0  0  0  0  0  0  0  0  0  0  0
    1.4690   -0.1918    0.6645 H   0  0  0  0  0  0  0  0  0  0  0  0
    0.4114   -0.9902    2.3403 C   0  0  0  0  0  0  0  0  0  0  0  0
    0.4997    0.0046    3.3150 N   0  0  0  0  0  0  0  0  0  0  0  0
    0.2427   -0.6001    4.4840 C   0  0  0  0  0  0  0  0  0  0  0  0
    0.2443   -0.1013    5.4450 H   0  0  0  0  0  0  0  0  0  0  0  0
   -0.0242   -1.9025    4.2901 N   0  0  0  0  0  0  0  0  0  0  0  0
   -0.2669   -2.5653    5.0137 H   0  0  0  0  0  0  0  0  0  0  0  0
    0.0735   -2.1670    2.9421 C   0  0  0  0  0  0  0  0  0  0  0  0
   -0.1009   -3.1097    2.4389 H   0  0  0  0  0  0  0  0  0  0  0  0
   -0.4000    0.2574   -1.2708 C   0  0  0  0  0  0  0  0  0  0  0  0
   -1.2815    0.0727   -2.1100 O   0  0  0  0  0  0  0  0  0  0  0  0
    0.7864    0.7873   -1.5847 N   0  0  0  0  0  0  0  0  0  0  0  0
    1.4894    0.8053   -0.8543 H   0  0  0  0  0  0  0  0  0  0  0  0
    1.1826    1.2096   -2.9260 C   0  0  0  0  0  0  0  0  0  0  0  0
    0.3241    1.6298   -3.4562 H   0  0  0  0  0  0  0  0  0  0  0  0
    1.9666    1.9653   -2.8605 H   0  0  0  0  0  0  0  0  0  0  0  0
    1.5550    0.3493   -3.4847 H   0  0  0  0  0  0  0  0  0  0  0  0
  5  6  2  0  0  0  0
  5  7  1  0  0  0  0
  2  3  1  0  0  0  0
  2  4  1  0  0  0  0
  2  5  1  0  0  0  0
  1  2  1  0  0  0  0
 22 23  2  0  0  0  0
 22 24  1  0  0  0  0
 20 21  1  0  0  0  0
 18 19  1  0  0  0  0
 18 20  1  0  0  0  0
 16 17  1  0  0  0  0
 16 18  1  0  0  0  0
 15 16  2  0  0  0  0
 14 15  1  0  0  0  0
 14 20  2  0  0  0  0
 11 12  1  0  0  0  0
 11 13  1  0  0  0  0
 11 14  1  0  0  0  0
  9 10  1  0  0  0  0
  9 11  1  0  0  0  0
  9 22  1  0  0  0  0
  7  8  1  0  0  0  0
  7  9  1  0  0  0  0
 26 27  1  0  0  0  0
 26 28  1  0  0  0  0
 26 29  1  0  0  0  0
 24 25  1  0  0  0  0
 24 26  1  0  0  0  0
M  END
$$$$
default_name
  -OEChem-01062215323D

 29 29  0     1  0  0  0  0  0999 V2000
   -2.9561   -3.9186    1.3887 H   0  0  0  0  0  0  0  0  0  0  0  0
   -3.1191   -2.9346    0.9517 C   0  0  0  0  0  0  0  0  0  0  0  0
   -3.7811   -2.3546    1.5917 H   0  0  0  0  0  0  0  0  0  0  0  0
   -3.5591   -3.0406   -0.0383 H   0  0  0  0  0  0  0  0  0  0  0  0
   -1.7921   -2.2226    0.8327 C   0  0  0  0  0  0  0  0  0  0  0  0
   -0.7611   -2.7766    1.1927 O   0  0  0  0  0  0  0  0  0  0  0  0
   -1.8201   -0.9926    0.3247 N   0  0  0  0  0  0  0  0  0  0  0  0
   -2.7141   -0.5816    0.0927 H   0  0  0  0  0  0  0  0  0  0  0  0
   -0.6481   -0.1156    0.2017 C   0  0  1  0  0  0  0  0  0  0  0  0
   -0.8572    0.8098    0.7421 H   0  0  0  0  0  0  0  0  0  0  0  0
    0.5755   -0.7884    0.8535 C   0  0  0  0  0  0  0  0  0  0  0  0
    0.7370   -1.7714    0.4087 H   0  0  0  0  0  0  0  0  0  0  0  0
    1.4690   -0.1918    0.6645 H   0  0  0  0  0  0  0  0  0  0  0  0
    0.4114   -0.9902    2.3403 C   0  0  0  0  0  0  0  0  0  0  0  0
    0.4997    0.0046    3.3150 N   0  0  0  0  0  0  0  0  0  0  0  0
    0.2427   -0.6001    4.4840 C   0  0  0  0  0  0  0  0  0  0  0  0
    0.2443   -0.1013    5.4450 H   0  0  0  0  0  0  0  0  0  0  0  0
   -0.0242   -1.9025    4.2901 N   0  0  0  0  0  0  0  0  0  0  0  0
   -0.2669   -2.5653    5.0137 H   0  0  0  0  0  0  0  0  0  0  0  0
    0.0735   -2.1670    2.9421 C   0  0  0  0  0  0  0  0  0  0  0  0
   -0.1009   -3.1097    2.4389 H   0  0  0  0  0  0  0  0  0  0  0  0
   -0.4000    0.2574   -1.2708 C   0  0  0  0  0  0  0  0  0  0  0  0
   -1.3464    0.3374   -2.0539 O   0  0  0  0  0  0  0  0  0  0  0  0
    0.8609    0.4937   -1.6465 N   0  0  0  0  0  0  0  0  0  0  0  0
    1.5871    0.3017   -0.9654 H   0  0  0  0  0  0  0  0  0  0  0  0
    1.2720    0.8714   -2.9966 C   0  0  0  0  0  0  0  0  0  0  0  0
    0.5162    1.5159   -3.4527 H   0  0  0  0  0  0  0  0  0  0  0  0
    2.2219    1.4066   -2.9590 H   0  0  0  0  0  0  0  0  0  0  0  0
    1.3858   -0.0252   -3.6081 H   0  0  0  0  0  0  0  0  0  0  0  0
  5  6  2  0  0  0  0
  5  7  1  0  0  0  0
  2  3  1  0  0  0  0
  2  4  1  0  0  0  0
  2  5  1  0  0  0  0
  1  2  1  0  0  0  0
 22 23  2  0  0  0  0
 22 24  1  0  0  0  0
 20 21  1  0  0  0  0
 18 19  1  0  0  0  0
 18 20  1  0  0  0  0
 16 17  1  0  0  0  0
 16 18  1  0  0  0  0
 15 16  2  0  0  0  0
 14 15  1  0  0  0  0
 14 20  2  0  0  0  0
 11 12  1  0  0  0  0
 11 13  1  0  0  0  0
 11 14  1  0  0  0  0
  9 10  1  0  0  0  0
  9 11  1  0  0  0  0
  9 22  1  0  0  0  0
  7  8  1  0  0  0  0
  7  9  1  0  0  0  0
 26 27  1  0  0  0  0
 26 28  1  0  0  0  0
 26 29  1  0  0  0  0
 24 25  1  0  0  0  0
 24 26  1  0  0  0  0
M  END
$$$$
default_name
  -OEChem-01062215323D

 29 29  0     1  0  0  0  0  0999 V2000
   -2.9561   -3.9186    1.3887 H   0  0  0  0  0  0  0  0  0  0  0  0
   -3.1191   -2.9346    0.9517 C   0  0  0  0  0  0  0  0  0  0  0  0
   -3.7811   -2.3546    1.5917 H   0  0  0  0  0  0  0  0  0  0  0  0
   -3.5591   -3.0406   -0.0383 H   0  0  0  0  0  0  0  0  0  0  0  0
   -1.7921   -2.2226    0.8327 C   0  0  0  0  0  0  0  0  0  0  0  0
   -0.7611   -2.7766    1.1927 O   0  0  0  0  0  0  0  0  0  0  0  0
   -1.8201   -0.9926    0.3247 N   0  0  0  0  0  0  0  0  0  0  0  0
   -2.7141   -0.5816    0.0927 H   0  0  0  0  0  0  0  0  0  0  0  0
   -0.6481   -0.1156    0.2017 C   0  0  1  0  0  0  0  0  0  0  0  0
   -0.8572    0.8098    0.7421 H   0  0  0  0  0  0  0  0  0  0  0  0
    0.5755   -0.7884    0.8535 C   0  0  0  0  0  0  0  0  0  0  0  0
    0.7370   -1.7714    0.4087 H   0  0  0  0  0  0  0  0  0  0  0  0
    1.4690   -0.1918    0.6645 H   0  0  0  0  0  0  0  0  0  0  0  0
    0.4114   -0.9902    2.3403 C   0  0  0  0  0  0  0  0  0  0  0  0
    0.4997    0.0046    3.3150 N   0  0  0  0  0  0  0  0  0  0  0  0
    0.2427   -0.6001    4.4840 C   0  0  0  0  0  0  0  0  0  0  0  0
    0.2443   -0.1013    5.4450 H   0  0  0  0  0  0  0  0  0  0  0  0
   -0.0242   -1.9025    4.2901 N   0  0  0  0  0  0  0  0  0  0  0  0
   -0.2669   -2.5653    5.0137 H   0  0  0  0  0  0  0  0  0  0  0  0
    0.0735   -2.1670    2.9421 C   0  0  0  0  0  0  0  0  0  0  0  0
   -0.1009   -3.1097    2.4389 H   0  0  0  0  0  0  0  0  0  0  0  0
   -0.4000    0.2574   -1.2708 C   0  0  0  0  0  0  0  0  0  0  0  0
   -1.3401    0.6068   -1.9846 O   0  0  0  0  0  0  0  0  0  0  0  0
    0.8563    0.1942   -1.7231 N   0  0  0  0  0  0  0  0  0  0  0  0
    1.5497   -0.2043   -1.0999 H   0  0  0  0  0  0  0  0  0  0  0  0
    1.2702    0.5256   -3.0845 C   0  0  0  0  0  0  0  0  0  0  0  0
    0.6737    1.3582   -3.4661 H   0  0  0  0  0  0  0  0  0  0  0  0
    2.3239    0.8077   -3.0935 H   0  0  0  0  0  0  0  0  0  0  0  0
    1.1219   -0.3400   -3.7323 H   0  0  0  0  0  0  0  0  0  0  0  0
  5  6  2  0  0  0  0
  5  7  1  0  0  0  0
  2  3  1  0  0  0  0
  2  4  1  0  0  0  0
  2  5  1  0  0  0  0
  1  2  1  0  0  0  0
 22 23  2  0  0  0  0
 22 24  1  0  0  0  0
 20 21  1  0  0  0  0
 18 19  1  0  0  0  0
 18 20  1  0  0  0  0
 16 17  1  0  0  0  0
 16 18  1  0  0  0  0
 15 16  2  0  0  0  0
 14 15  1  0  0  0  0
 14 20  2  0  0  0  0
 11 12  1  0  0  0  0
 11 13  1  0  0  0  0
 11 14  1  0  0  0  0
  9 10  1  0  0  0  0
  9 11  1  0  0  0  0
  9 22  1  0  0  0  0
  7  8  1  0  0  0  0
  7  9  1  0  0  0  0
 26 27  1  0  0  0  0
 26 28  1  0  0  0  0
 26 29  1  0  0  0  0
 24 25  1  0  0  0  0
 24 26  1  0  0  0  0
M  END
$$$$
default_name
  -OEChem-01062215323D

 29 29  0     1  0  0  0  0  0999 V2000
   -2.9561   -3.9186    1.3887 H   0  0  0  0  0  0  0  0  0  0  0  0
   -3.1191   -2.9346    0.9517 C   0  0  0  0  0  0  0  0  0  0  0  0
   -3.7811   -2.3546    1.5917 H   0  0  0  0  0  0  0  0  0  0  0  0
   -3.5591   -3.0406   -0.0383 H   0  0  0  0  0  0  0  0  0  0  0  0
   -1.7921   -2.2226    0.8327 C   0  0  0  0  0  0  0  0  0  0  0  0
   -0.7611   -2.7766    1.1927 O   0  0  0  0  0  0  0  0  0  0  0  0
   -1.8201   -0.9926    0.3247 N   0  0  0  0  0  0  0  0  0  0  0  0
   -2.7141   -0.5816    0.0927 H   0  0  0  0  0  0  0  0  0  0  0  0
   -0.6481   -0.1156    0.2017 C   0  0  1  0  0  0  0  0  0  0  0  0
   -0.8572    0.8098    0.7421 H   0  0  0  0  0  0  0  0  0  0  0  0
    0.5755   -0.7884    0.8535 C   0  0  0  0  0  0  0  0  0  0  0  0
    0.7370   -1.7714    0.4087 H   0  0  0  0  0  0  0  0  0  0  0  0
    1.4690   -0.1918    0.6645 H   0  0  0  0  0  0  0  0  0  0  0  0
    0.4114   -0.9902    2.3403 C   0  0  0  0  0  0  0  0  0  0  0  0
    0.4997    0.0046    3.3150 N   0  0  0  0  0  0  0  0  0  0  0  0
    0.2427   -0.6001    4.4840 C   0  0  0  0  0  0  0  0  0  0  0  0
    0.2443   -0.1013    5.4450 H   0  0  0  0  0  0  0  0  0  0  0  0
   -0.0242   -1.9025    4.2901 N   0  0  0  0  0  0  0  0  0  0  0  0
   -0.2669   -2.5653    5.0137 H   0  0  0  0  0  0  0  0  0  0  0  0
    0.0735   -2.1670    2.9421 C   0  0  0  0  0  0  0  0  0  0  0  0
   -0.1009   -3.1097    2.4389 H   0  0  0  0  0  0  0  0  0  0  0  0
   -0.4000    0.2574   -1.2708 C   0  0  0  0  0  0  0  0  0  0  0  0
   -1.2629    0.8625   -1.9069 O   0  0  0  0  0  0  0  0  0  0  0  0
    0.7729   -0.0908   -1.8093 N   0  0  0  0  0  0  0  0  0  0  0  0
    1.3799   -0.6781   -1.2485 H   0  0  0  0  0  0  0  0  0  0  0  0
    1.1773    0.1956   -3.1837 C   0  0  0  0  0  0  0  0  0  0  0  0
    0.7860    1.1674   -3.4955 H   0  0  0  0  0  0  0  0  0  0  0  0
    2.2658    0.2097   -3.2548 H   0  0  0  0  0  0  0  0  0  0  0  0
    0.7812   -0.5735   -3.8488 H   0  0  0  0  0  0  0  0  0  0  0  0
  5  6  2  0  0  0  0
  5  7  1  0  0  0  0
  2  3  1  0  0  0  0
  2  4  1  0  0  0  0
  2  5  1  0  0  0  0
  1  2  1  0  0  0  0
 22 23  2  0  0  0  0
 22 24  1  0  0  0  0
 20 21  1  0  0  0  0
 18 19  1  0  0  0  0
 18 20  1  0  0  0  0
 16 17  1  0  0  0  0
 16 18  1  0  0  0  0
 15 16  2  0  0  0  0
 14 15  1  0  0  0  0
 14 20  2  0  0  0  0
 11 12  1  0  0  0  0
 11 13  1  0  0  0  0
 11 14  1  0  0  0  0
  9 10  1  0  0  0  0
  9 11  1  0  0  0  0
  9 22  1  0  0  0  0
  7  8  1  0  0  0  0
  7  9  1  0  0  0  0
 26 27  1  0  0  0  0
 26 28  1  0  0  0  0
 26 29  1  0  0  0  0
 24 25  1  0  0  0  0
 24 26  1  0  0  0  0
M  END
$$$$
default_name
  -OEChem-01062215323D

 29 29  0     1  0  0  0  0  0999 V2000
   -2.9561   -3.9186    1.3887 H   0  0  0  0  0  0  0  0  0  0  0  0
   -3.1191   -2.9346    0.9517 C   0  0  0  0  0  0  0  0  0  0  0  0
   -3.7811   -2.3546    1.5917 H   0  0  0  0  0  0  0  0  0  0  0  0
   -3.5591   -3.0406   -0.0383 H   0  0  0  0  0  0  0  0  0  0  0  0
   -1.7921   -2.2226    0.8327 C   0  0  0  0  0  0  0  0  0  0  0  0
   -0.7611   -2.7766    1.1927 O   0  0  0  0  0  0  0  0  0  0  0  0
   -1.8201   -0.9926    0.3247 N   0  0  0  0  0  0  0  0  0  0  0  0
   -2.7141   -0.5816    0.0927 H   0  0  0  0  0  0  0  0  0  0  0  0
   -0.6481   -0.1156    0.2017 C   0  0  1  0  0  0  0  0  0  0  0  0
   -0.8572    0.8098    0.7421 H   0  0  0  0  0  0  0  0  0  0  0  0
    0.5755   -0.7884    0.8535 C   0  0  0  0  0  0  0  0  0  0  0  0
    0.7370   -1.7714    0.4087 H   0  0  0  0  0  0  0  0  0  0  0  0
    1.4690   -0.1918    0.6645 H   0  0  0  0  0  0  0  0  0  0  0  0
    0.4114   -0.9902    2.3403 C   0  0  0  0  0  0  0  0  0  0  0  0
    0.4997    0.0046    3.3150 N   0  0  0  0  0  0  0  0  0  0  0  0
    0.2427   -0.6001    4.4840 C   0  0  0  0  0  0  0  0  0  0  0  0
    0.2443   -0.1013    5.4450 H   0  0  0  0  0  0  0  0  0  0  0  0
   -0.0242   -1.9025    4.2901 N   0  0  0  0  0  0  0  0  0  0  0  0
   -0.2669   -2.5653    5.0137 H   0  0  0  0  0  0  0  0  0  0  0  0
    0.0735   -2.1670    2.9421 C   0  0  0  0  0  0  0  0  0  0  0  0
   -0.1009   -3.1097    2.4389 H   0  0  0  0  0  0  0  0  0  0  0  0
   -0.4000    0.2574   -1.2708 C   0  0  0  0  0  0  0  0  0  0  0  0
   -1.1202    1.0872   -1.8259 O   0  0  0  0  0  0  0  0  0  0  0  0
    0.6163   -0.3417   -1.8993 N   0  0  0  0  0  0  0  0  0  0  0  0
    1.0892   -1.0876   -1.4012 H   0  0  0  0  0  0  0  0  0  0  0  0
    0.9996   -0.0959   -3.2875 C   0  0  0  0  0  0  0  0  0  0  0  0
    0.8453    0.9565   -3.5389 H   0  0  0  0  0  0  0  0  0  0  0  0
    2.0515   -0.3469   -3.4319 H   0  0  0  0  0  0  0  0  0  0  0  0
    0.3870   -0.7098   -3.9498 H   0  0  0  0  0  0  0  0  0  0  0  0
  5  6  2  0  0  0  0
  5  7  1  0  0  0  0
  2  3  1  0  0  0  0
  2  4  1  0  0  0  0
  2  5  1  0  0  0  0
  1  2  1  0  0  0  0
 22 23  2  0  0  0  0
 22 24  1  0  0  0  0
 20 21  1  0  0  0  0
 18 19  1  0  0  0  0
 18 20  1  0  0  0  0
 16 17  1  0  0  0  0
 16 18  1  0  0  0  0
 15 16  2  0  0  0  0
 14 15  1  0  0  0  0
 14 20  2  0  0  0  0
 11 12  1  0  0  0  0
 11 13  1  0  0  0  0
 11 14  1  0  0  0  0
  9 10  1  0  0  0  0
  9 11  1  0  0  0  0
  9 22  1  0  0  0  0
  7  8  1  0  0  0  0
  7  9  1  0  0  0  0
 26 27  1  0  0  0  0
 26 28  1  0  0  0  0
 26 29  1  0  0  0  0
 24 25  1  0  0  0  0
 24 26  1  0  0  0  0
M  END
$$$$
default_name
  -OEChem-01062215323D

 29 29  0     1  0  0  0  0  0999 V2000
   -2.9561   -3.9186    1.3887 H   0  0  0  0  0  0  0  0  0  0  0  0
   -3.1191   -2.9346    0.9517 C   0  0  0  0  0  0  0  0  0  0  0  0
   -3.7811   -2.3546    1.5917 H   0  0  0  0  0  0  0  0  0  0  0  0
   -3.5591   -3.0406   -0.0383 H   0  0  0  0  0  0  0  0  0  0  0  0
   -1.7921   -2.2226    0.8327 C   0  0  0  0  0  0  0  0  0  0  0  0
   -0.7611   -2.7766    1.1927 O   0  0  0  0  0  0  0  0  0  0  0  0
   -1.8201   -0.9926    0.3247 N   0  0  0  0  0  0  0  0  0  0  0  0
   -2.7141   -0.5816    0.0927 H   0  0  0  0  0  0  0  0  0  0  0  0
   -0.6481   -0.1156    0.2017 C   0  0  1  0  0  0  0  0  0  0  0  0
   -0.8572    0.8098    0.7421 H   0  0  0  0  0  0  0  0  0  0  0  0
    0.5755   -0.7884    0.8535 C   0  0  0  0  0  0  0  0  0  0  0  0
    0.7370   -1.7714    0.4087 H   0  0  0  0  0  0  0  0  0  0  0  0
    1.4690   -0.1918    0.6645 H   0  0  0  0  0  0  0  0  0  0  0  0
    0.4114   -0.9902    2.3403 C   0  0  0  0  0  0  0  0  0  0  0  0
    0.4997    0.0046    3.3150 N   0  0  0  0  0  0  0  0  0  0  0  0
    0.2427   -0.6001    4.4840 C   0  0  0  0  0  0  0  0  0  0  0  0
    0.2443   -0.1013    5.4450 H   0  0  0  0  0  0  0  0  0  0  0  0
   -0.0242   -1.9025    4.2901 N   0  0  0  0  0  0  0  0  0  0  0  0
   -0.2669   -2.5653    5.0137 H   0  0  0  0  0  0  0  0  0  0  0  0
    0.0735   -2.1670    2.9421 C   0  0  0  0  0  0  0  0  0  0  0  0
   -0.1009   -3.1097    2.4389 H   0  0  0  0  0  0  0  0  0  0  0  0
   -0.4000    0.2574   -1.2708 C   0  0  0  0  0  0  0  0  0  0  0  0
   -0.9216    1.2655   -1.7473 O   0  0  0  0  0  0  0  0  0  0  0  0
    0.3973   -0.5416   -1.9868 N   0  0  0  0  0  0  0  0  0  0  0  0
    0.6975   -1.4047   -1.5476 H   0  0  0  0  0  0  0  0  0  0  0  0
    0.7493   -0.3292   -3.3888 C   0  0  0  0  0  0  0  0  0  0  0  0
    0.8477    0.7400   -3.5934 H   0  0  0  0  0  0  0  0  0  0  0  0
    1.6955   -0.8240   -3.6127 H   0  0  0  0  0  0  0  0  0  0  0  0
   -0.0338   -0.7397   -4.0283 H   0  0  0  0  0  0  0  0  0  0  0  0
  5  6  2  0  0  0  0
  5  7  1  0  0  0  0
  2  3  1  0  0  0  0
  2  4  1  0  0  0  0
  2  5  1  0  0  0  0
  1  2  1  0  0  0  0
 22 23  2  0  0  0  0
 22 24  1  0  0  0  0
 20 21  1  0  0  0  0
 18 19  1  0  0  0  0
 18 20  1  0  0  0  0
 16 17  1  0  0  0  0
 16 18  1  0  0  0  0
 15 16  2  0  0  0  0
 14 15  1  0  0  0  0
 14 20  2  0  0  0  0
 11 12  1  0  0  0  0
 11 13  1  0  0  0  0
 11 14  1  0  0  0  0
  9 10  1  0  0  0  0
  9 11  1  0  0  0  0
  9 22  1  0  0  0  0
  7  8  1  0  0  0  0
  7  9  1  0  0  0  0
 26 27  1  0  0  0  0
 26 28  1  0  0  0  0
 26 29  1  0  0  0  0
 24 25  1  0  0  0  0
 24 26  1  0  0  0  0
M  END
$$$$
default_name
  -OEChem-01062215323D

 29 29  0     1  0  0  0  0  0999 V2000
   -2.9561   -3.9186    1.3887 H   0  0  0  0  0  0  0  0  0  0  0  0
   -3.1191   -2.9346    0.9517 C   0  0  0  0  0  0  0  0  0  0  0  0
   -3.7811   -2.3546    1.5917 H   0  0  0  0  0  0  0  0  0  0  0  0
   -3.5591   -3.0406   -0.0383 H   0  0  0  0  0  0  0  0  0  0  0  0
   -1.7921   -2.2226    0.8327 C   0  0  0  0  0  0  0  0  0  0  0  0
   -0.7611   -2.7766    1.1927 O   0  0  0  0  0  0  0  0  0  0  0  0
   -1.8201   -0.9926    0.3247 N   0  0  0  0  0  0  0  0  0  0  0  0
   -2.7141   -0.5816    0.0927 H   0  0  0  0  0  0  0  0  0  0  0  0
   -0.6481   -0.1156    0.2017 C   0  0  1  0  0  0  0  0  0  0  0  0
   -0.8572    0.8098    0.7421 H   0  0  0  0  0  0  0  0  0  0  0  0
    0.5755   -0.7884    0.8535 C   0  0  0  0  0  0  0  0  0  0  0  0
    0.7370   -1.7714    0.4087 H   0  0  0  0  0  0  0  0  0  0  0  0
    1.4690   -0.1918    0.6645 H   0  0  0  0  0  0  0  0  0  0  0  0
    0.4114   -0.9902    2.3403 C   0  0  0  0  0  0  0  0  0  0  0  0
    0.4997    0.0046    3.3150 N   0  0  0  0  0  0  0  0  0  0  0  0
    0.2427   -0.6001    4.4840 C   0  0  0  0  0  0  0  0  0  0  0  0
    0.2443   -0.1013    5.4450 H   0  0  0  0  0  0  0  0  0  0  0  0
   -0.0242   -1.9025    4.2901 N   0  0  0  0  0  0  0  0  0  0  0  0
   -0.2669   -2.5653    5.0137 H   0  0  0  0  0  0  0  0  0  0  0  0
    0.0735   -2.1670    2.9421 C   0  0  0  0  0  0  0  0  0  0  0  0
   -0.1009   -3.1097    2.4389 H   0  0  0  0  0  0  0  0  0  0  0  0
   -0.4000    0.2574   -1.2708 C   0  0  0  0  0  0  0  0  0  0  0  0
   -0.6807    1.3853   -1.6763 O   0  0  0  0  0  0  0  0  0  0  0  0
    0.1308   -0.6769   -2.0660 N   0  0  0  0  0  0  0  0  0  0  0  0
    0.2313   -1.6080   -1.6776 H   0  0  0  0  0  0  0  0  0  0  0  0
    0.4435   -0.4884   -3.4806 C   0  0  0  0  0  0  0  0  0  0  0  0
    0.7930    0.5324   -3.6552 H   0  0  0  0  0  0  0  0  0  0  0  0
    1.2222   -1.1892   -3.7849 H   0  0  0  0  0  0  0  0  0  0  0  0
   -0.4527   -0.6611   -4.0789 H   0  0  0  0  0  0  0  0  0  0  0  0
  5  6  2  0  0  0  0
  5  7  1  0  0  0  0
  2  3  1  0  0  0  0
  2  4  1  0  0  0  0
  2  5  1  0  0  0  0
  1  2  1  0  0  0  0
 22 23  2  0  0  0  0
 22 24  1  0  0  0  0
 20 21  1  0  0  0  0
 18 19  1  0  0  0  0
 18 20  1  0  0  0  0
 16 17  1  0  0  0  0
 16 18  1  0  0  0  0
 15 16  2  0  0  0  0
 14 15  1  0  0  0  0
 14 20  2  0  0  0  0
 11 12  1  0  0  0  0
 11 13  1  0  0  0  0
 11 14  1  0  0  0  0
  9 10  1  0  0  0  0
  9 11  1  0  0  0  0
  9 22  1  0  0  0  0
  7  8  1  0  0  0  0
  7  9  1  0  0  0  0
 26 27  1  0  0  0  0
 26 28  1  0  0  0  0
 26 29  1  0  0  0  0
 24 25  1  0  0  0  0
 24 26  1  0  0  0  0
M  END
$$$$
default_name
  -OEChem-01062215323D

 29 29  0     1  0  0  0  0  0999 V2000
   -2.9561   -3.9186    1.3887 H   0  0  0  0  0  0  0  0  0  0  0  0
   -3.1191   -2.9346    0.9517 C   0  0  0  0  0  0  0  0  0  0  0  0
   -3.7811   -2.3546    1.5917 H   0  0  0  0  0  0  0  0  0  0  0  0
   -3.5591   -3.0406   -0.0383 H   0  0  0  0  0  0  0  0  0  0  0  0
   -1.7921   -2.2226    0.8327 C   0  0  0  0  0  0  0  0  0  0  0  0
   -0.7611   -2.7766    1.1927 O   0  0  0  0  0  0  0  0  0  0  0  0
   -1.8201   -0.9926    0.3247 N   0  0  0  0  0  0  0  0  0  0  0  0
   -2.7141   -0.5816    0.0927 H   0  0  0  0  0  0  0  0  0  0  0  0
   -0.6481   -0.1156    0.2017 C   0  0  1  0  0  0  0  0  0  0  0  0
   -0.8572    0.8098    0.7421 H   0  0  0  0  0  0  0  0  0  0  0  0
    0.5755   -0.7884    0.8535 C   0  0  0  0  0  0  0  0  0  0  0  0
    0.7370   -1.7714    0.4087 H   0  0  0  0  0  0  0  0  0  0  0  0
    1.4690   -0.1918    0.6645 H   0  0  0  0  0  0  0  0  0  0  0  0
    0.4114   -0.9902    2.3403 C   0  0  0  0  0  0  0  0  0  0  0  0
    0.4997    0.0046    3.3150 N   0  0  0  0  0  0  0  0  0  0  0  0
    0.2427   -0.6001    4.4840 C   0  0  0  0  0  0  0  0  0  0  0  0
    0.2443   -0.1013    5.4450 H   0  0  0  0  0  0  0  0  0  0  0  0
   -0.0242   -1.9025    4.2901 N   0  0  0  0  0  0  0  0  0  0  0  0
   -0.2669   -2.5653    5.0137 H   0  0  0  0  0  0  0  0  0  0  0  0
    0.0735   -2.1670    2.9421 C   0  0  0  0  0  0  0  0  0  0  0  0
   -0.1009   -3.1097    2.4389 H   0  0  0  0  0  0  0  0  0  0  0  0
   -0.4000    0.2574   -1.2708 C   0  0  0  0  0  0  0  0  0  0  0  0
   -0.4139    1.4384   -1.6179 O   0  0  0  0  0  0  0  0  0  0  0  0
   -0.1651   -0.7382   -2.1314 N   0  0  0  0  0  0  0  0  0  0  0  0
   -0.2774   -1.6835   -1.7824 H   0  0  0  0  0  0  0  0  0  0  0  0
    0.1028   -0.5625   -3.5568 C   0  0  0  0  0  0  0  0  0  0  0  0
    0.6848    0.3481   -3.7201 H   0  0  0  0  0  0  0  0  0  0  0  0
    0.6637   -1.4176   -3.9369 H   0  0  0  0  0  0  0  0  0  0  0  0
   -0.8409   -0.4793   -4.0983 H   0  0  0  0  0  0  0  0  0  0  0  0
  5  6  2  0  0  0  0
  5  7  1  0  0  0  0
  2  3  1  0  0  0  0
  2  4  1  0  0  0  0
  2  5  1  0  0  0  0
  1  2  1  0  0  0  0
 22 23  2  0  0  0  0
 22 24  1  0  0  0  0
 20 21  1  0  0  0  0
 18 19  1  0  0  0  0
 18 20  1  0  0  0  0
 16 17  1  0  0  0  0
 16 18  1  0  0  0  0
 15 16  2  0  0  0  0
 14 15  1  0  0  0  0
 14 20  2  0  0  0  0
 11 12  1  0  0  0  0
 11 13  1  0  0  0  0
 11 14  1  0  0  0  0
  9 10  1  0  0  0  0
  9 11  1  0  0  0  0
  9 22  1  0  0  0  0
  7  8  1  0  0  0  0
  7  9  1  0  0  0  0
 26 27  1  0  0  0  0
 26 28  1  0  0  0  0
 26 29  1  0  0  0  0
 24 25  1  0  0  0  0
 24 26  1  0  0  0  0
M  END
$$$$
default_name
  -OEChem-01062215323D

 29 29  0     1  0  0  0  0  0999 V2000
   -2.9561   -3.9186    1.3887 H   0  0  0  0  0  0  0  0  0  0  0  0
   -3.1191   -2.9346    0.9517 C   0  0  0  0  0  0  0  0  0  0  0  0
   -3.7811   -2.3546    1.5917 H   0  0  0  0  0  0  0  0  0  0  0  0
   -3.5591   -3.0406   -0.0383 H   0  0  0  0  0  0  0  0  0  0  0  0
   -1.7921   -2.2226    0.8327 C   0  0  0  0  0  0  0  0  0  0  0  0
   -0.7611   -2.7766    1.1927 O   0  0  0  0  0  0  0  0  0  0  0  0
   -1.8201   -0.9926    0.3247 N   0  0  0  0  0  0  0  0  0  0  0  0
   -2.7141   -0.5816    0.0927 H   0  0  0  0  0  0  0  0  0  0  0  0
   -0.6481   -0.1156    0.2017 C   0  0  1  0  0  0  0  0  0  0  0  0
   -0.8572    0.8098    0.7421 H   0  0  0  0  0  0  0  0  0  0  0  0
    0.5755   -0.7884    0.8535 C   0  0  0  0  0  0  0  0  0  0  0  0
    0.7370   -1.7714    0.4087 H   0  0  0  0  0  0  0  0  0  0  0  0
    1.4690   -0.1918    0.6645 H   0  0  0  0  0  0  0  0  0  0  0  0
    0.4114   -0.9902    2.3403 C   0  0  0  0  0  0  0  0  0  0  0  0
    0.4997    0.0046    3.3150 N   0  0  0  0  0  0  0  0  0  0  0  0
    0.2427   -0.6001    4.4840 C   0  0  0  0  0  0  0  0  0  0  0  0
    0.2443   -0.1013    5.4450 H   0  0  0  0  0  0  0  0  0  0  0  0
   -0.0242   -1.9025    4.2901 N   0  0  0  0  0  0  0  0  0  0  0  0
   -0.2669   -2.5653    5.0137 H   0  0  0  0  0  0  0  0  0  0  0  0
    0.0735   -2.1670    2.9421 C   0  0  0  0  0  0  0  0  0  0  0  0
   -0.1009   -3.1097    2.4389 H   0  0  0  0  0  0  0  0  0  0  0  0
   -0.4000    0.2574   -1.2708 C   0  0  0  0  0  0  0  0  0  0  0  0
   -0.1394    1.4211   -1.5760 O   0  0  0  0  0  0  0  0  0  0  0  0
   -0.4701   -0.7214   -2.1785 N   0  0  0  0  0  0  0  0  0  0  0  0
   -0.7940   -1.6260   -1.8549 H   0  0  0  0  0  0  0  0  0  0  0  0
   -0.2493   -0.5466   -3.6121 C   0  0  0  0  0  0  0  0  0  0  0  0
    0.5307    0.1996   -3.7837 H   0  0  0  0  0  0  0  0  0  0  0  0
    0.0583   -1.4935   -4.0581 H   0  0  0  0  0  0  0  0  0  0  0  0
   -1.1721   -0.2068   -4.0851 H   0  0  0  0  0  0  0  0  0  0  0  0
  5  6  2  0  0  0  0
  5  7  1  0  0  0  0
  2  3  1  0  0  0  0
  2  4  1  0  0  0  0
  2  5  1  0  0  0  0
  1  2  1  0  0  0  0
 22 23  2  0  0  0  0
 22 24  1  0  0  0  0
 20 21  1  0  0  0  0
 18 19  1  0  0  0  0
 18 20  1  0  0  0  0
 16 17  1  0  0  0  0
 16 18  1  0  0  0  0
 15 16  2  0  0  0  0
 14 15  1  0  0  0  0
 14 20  2  0  0  0  0
 11 12  1  0  0  0  0
 11 13  1  0  0  0  0
 11 14  1  0  0  0  0
  9 10  1  0  0  0  0
  9 11  1  0  0  0  0
  9 22  1  0  0  0  0
  7  8  1  0  0  0  0
  7  9  1  0  0  0  0
 26 27  1  0  0  0  0
 26 28  1  0  0  0  0
 26 29  1  0  0  0  0
 24 25  1  0  0  0  0
 24 26  1  0  0  0  0
M  END
$$$$
default_name
  -OEChem-01062215323D

 29 29  0     1  0  0  0  0  0999 V2000
   -2.9561   -3.9186    1.3887 H   0  0  0  0  0  0  0  0  0  0  0  0
   -3.1191   -2.9346    0.9517 C   0  0  0  0  0  0  0  0  0  0  0  0
   -3.7811   -2.3546    1.5917 H   0  0  0  0  0  0  0  0  0  0  0  0
   -3.5591   -3.0406   -0.0383 H   0  0  0  0  0  0  0  0  0  0  0  0
   -1.7921   -2.2226    0.8327 C   0  0  0  0  0  0  0  0  0  0  0  0
   -0.7611   -2.7766    1.1927 O   0  0  0  0  0  0  0  0  0  0  0  0
   -1.8201   -0.9926    0.3247 N   0  0  0  0  0  0  0  0  0  0  0  0
   -2.7141   -0.5816    0.0927 H   0  0  0  0  0  0  0  0  0  0  0  0
   -0.6481   -0.1156    0.2017 C   0  0  1  0  0  0  0  0  0  0  0  0
   -0.8572    0.8098    0.7421 H   0  0  0  0  0  0  0  0  0  0  0  0
    0.5755   -0.7884    0.8535 C   0  0  0  0  0  0  0  0  0  0  0  0
    0.7370   -1.7714    0.4087 H   0  0  0  0  0  0  0  0  0  0  0  0
    1.4690   -0.1918    0.6645 H   0  0  0  0  0  0  0  0  0  0  0  0
    0.4114   -0.9902    2.3403 C   0  0  0  0  0  0  0  0  0  0  0  0
    0.4997    0.0046    3.3150 N   0  0  0  0  0  0  0  0  0  0  0  0
    0.2427   -0.6001    4.4840 C   0  0  0  0  0  0  0  0  0  0  0  0
    0.2443   -0.1013    5.4450 H   0  0  0  0  0  0  0  0  0  0  0  0
   -0.0242   -1.9025    4.2901 N   0  0  0  0  0  0  0  0  0  0  0  0
   -0.2669   -2.5653    5.0137 H   0  0  0  0  0  0  0  0  0  0  0  0
    0.0735   -2.1670    2.9421 C   0  0  0  0  0  0  0  0  0  0  0  0
   -0.1009   -3.1097    2.4389 H   0  0  0  0  0  0  0  0  0  0  0  0
   -0.4000    0.2574   -1.2708 C   0  0  0  0  0  0  0  0  0  0  0  0
    0.1241    1.3348   -1.5535 O   0  0  0  0  0  0  0  0  0  0  0  0
   -0.7636   -0.6277   -2.2042 N   0  0  0  0  0  0  0  0  0  0  0  0
   -1.2833   -1.4396   -1.8902 H   0  0  0  0  0  0  0  0  0  0  0  0
   -0.5890   -0.4418   -3.6428 C   0  0  0  0  0  0  0  0  0  0  0  0
    0.3410    0.0969   -3.8416 H   0  0  0  0  0  0  0  0  0  0  0  0
   -0.5530   -1.4119   -4.1405 H   0  0  0  0  0  0  0  0  0  0  0  0
   -1.4238    0.1379   -4.0402 H   0  0  0  0  0  0  0  0  0  0  0  0
  5  6  2  0  0  0  0
  5  7  1  0  0  0  0
  2  3  1  0  0  0  0
  2  4  1  0  0  0  0
  2  5  1  0  0  0  0
  1  2  1  0  0  0  0
 22 23  2  0  0  0  0
 22 24  1  0  0  0  0
 20 21  1  0  0  0  0
 18 19  1  0  0  0  0
 18 20  1  0  0  0  0
 16 17  1  0  0  0  0
 16 18  1  0  0  0  0
 15 16  2  0  0  0  0
 14 15  1  0  0  0  0
 14 20  2  0  0  0  0
 11 12  1  0  0  0  0
 11 13  1  0  0  0  0
 11 14  1  0  0  0  0
  9 10  1  0  0  0  0
  9 11  1  0  0  0  0
  9 22  1  0  0  0  0
  7  8  1  0  0  0  0
  7  9  1  0  0  0  0
 26 27  1  0  0  0  0
 26 28  1  0  0  0  0
 26 29  1  0  0  0  0
 24 25  1  0  0  0  0
 24 26  1  0  0  0  0
M  END
$$$$
default_name
  -OEChem-01062215323D

 29 29  0     1  0  0  0  0  0999 V2000
   -2.9561   -3.9186    1.3887 H   0  0  0  0  0  0  0  0  0  0  0  0
   -3.1191   -2.9346    0.9517 C   0  0  0  0  0  0  0  0  0  0  0  0
   -3.7811   -2.3546    1.5917 H   0  0  0  0  0  0  0  0  0  0  0  0
   -3.5591   -3.0406   -0.0383 H   0  0  0  0  0  0  0  0  0  0  0  0
   -1.7921   -2.2226    0.8327 C   0  0  0  0  0  0  0  0  0  0  0  0
   -0.7611   -2.7766    1.1927 O   0  0  0  0  0  0  0  0  0  0  0  0
   -1.8201   -0.9926    0.3247 N   0  0  0  0  0  0  0  0  0  0  0  0
   -2.7141   -0.5816    0.0927 H   0  0  0  0  0  0  0  0  0  0  0  0
   -0.6481   -0.1156    0.2017 C   0  0  1  0  0  0  0  0  0  0  0  0
   -0.8572    0.8098    0.7421 H   0  0  0  0  0  0  0  0  0  0  0  0
    0.5755   -0.7884    0.8535 C   0  0  0  0  0  0  0  0  0  0  0  0
    0.7370   -1.7714    0.4087 H   0  0  0  0  0  0  0  0  0  0  0  0
    1.4690   -0.1918    0.6645 H   0  0  0  0  0  0  0  0  0  0  0  0
    0.4114   -0.9902    2.3403 C   0  0  0  0  0  0  0  0  0  0  0  0
    0.4997    0.0046    3.3150 N   0  0  0  0  0  0  0  0  0  0  0  0
    0.2427   -0.6001    4.4840 C   0  0  0  0  0  0  0  0  0  0  0  0
    0.2443   -0.1013    5.4450 H   0  0  0  0  0  0  0  0  0  0  0  0
   -0.0242   -1.9025    4.2901 N   0  0  0  0  0  0  0  0  0  0  0  0
   -0.2669   -2.5653    5.0137 H   0  0  0  0  0  0  0  0  0  0  0  0
    0.0735   -2.1670    2.9421 C   0  0  0  0  0  0  0  0  0  0  0  0
   -0.1009   -3.1097    2.4389 H   0  0  0  0  0  0  0  0  0  0  0  0
   -0.4000    0.2574   -1.2708 C   0  0  0  0  0  0  0  0  0  0  0  0
    0.3587    1.1852   -1.5519 O   0  0  0  0  0  0  0  0  0  0  0  0
   -1.0255   -0.4634   -2.2068 N   0  0  0  0  0  0  0  0  0  0  0  0
   -1.7121   -1.1369   -1.8857 H   0  0  0  0  0  0  0  0  0  0  0  0
   -0.8931   -0.2551   -3.6468 C   0  0  0  0  0  0  0  0  0  0  0  0
    0.1287    0.0471   -3.8900 H   0  0  0  0  0  0  0  0  0  0  0  0
   -1.1284   -1.1783   -4.1783 H   0  0  0  0  0  0  0  0  0  0  0  0
   -1.5787    0.5313   -3.9666 H   0  0  0  0  0  0  0  0  0  0  0  0
  5  6  2  0  0  0  0
  5  7  1  0  0  0  0
  2  3  1  0  0  0  0
  2  4  1  0  0  0  0
  2  5  1  0  0  0  0
  1  2  1  0  0  0  0
 22 23  2  0  0  0  0
 22 24  1  0  0  0  0
 20 21  1  0  0  0  0
 18 19  1  0  0  0  0
 18 20  1  0  0  0  0
 16 17  1  0  0  0  0
 16 18  1  0  0  0  0
 15 16  2  0  0  0  0
 14 15  1  0  0  0  0
 14 20  2  0  0  0  0
 11 12  1  0  0  0  0
 11 13  1  0  0  0  0
 11 14  1  0  0  0  0
  9 10  1  0  0  0  0
  9 11  1  0  0  0  0
  9 22  1  0  0  0  0
  7  8  1  0  0  0  0
  7  9  1  0  0  0  0
 26 27  1  0  0  0  0
 26 28  1  0  0  0  0
 26 29  1  0  0  0  0
 24 25  1  0  0  0  0
 24 26  1  0  0  0  0
M  END
$$$$
default_name
  -OEChem-01062215323D

 29 29  0     1  0  0  0  0  0999 V2000
   -2.9561   -3.9186    1.3887 H   0  0  0  0  0  0  0  0  0  0  0  0
   -3.1191   -2.9346    0.9517 C   0  0  0  0  0  0  0  0  0  0  0  0
   -3.7811   -2.3546    1.5917 H   0  0  0  0  0  0  0  0  0  0  0  0
   -3.5591   -3.0406   -0.0383 H   0  0  0  0  0  0  0  0  0  0  0  0
   -1.7921   -2.2226    0.8327 C   0  0  0  0  0  0  0  0  0  0  0  0
   -0.7611   -2.7766    1.1927 O   0  0  0  0  0  0  0  0  0  0  0  0
   -1.8201   -0.9926    0.3247 N   0  0  0  0  0  0  0  0  0  0  0  0
   -2.7141   -0.5816    0.0927 H   0  0  0  0  0  0  0  0  0  0  0  0
   -0.6481   -0.1156    0.2017 C   0  0  1  0  0  0  0  0  0  0  0  0
   -0.8572    0.8098    0.7421 H   0  0  0  0  0  0  0  0  0  0  0  0
    0.5755   -0.7884    0.8535 C   0  0  0  0  0  0  0  0  0  0  0  0
    0.7370   -1.7714    0.4087 H   0  0  0  0  0  0  0  0  0  0  0  0
    1.4690   -0.1918    0.6645 H   0  0  0  0  0  0  0  0  0  0  0  0
    0.4114   -0.9902    2.3403 C   0  0  0  0  0  0  0  0  0  0  0  0
    0.4997    0.0046    3.3150 N   0  0  0  0  0  0  0  0  0  0  0  0
    0.2427   -0.6001    4.4840 C   0  0  0  0  0  0  0  0  0  0  0  0
    0.2443   -0.1013    5.4450 H   0  0  0  0  0  0  0  0  0  0  0  0
   -0.0242   -1.9025    4.2901 N   0  0  0  0  0  0  0  0  0  0  0  0
   -0.2669   -2.5653    5.0137 H   0  0  0  0  0  0  0  0  0  0  0  0
    0.0735   -2.1670    2.9421 C   0  0  0  0  0  0  0  0  0  0  0  0
   -0.1009   -3.1097    2.4389 H   0  0  0  0  0  0  0  0  0  0  0  0
   -0.4000    0.2574   -1.2708 C   0  0  0  0  0  0  0  0  0  0  0  0
    0.5483    0.9825   -1.5713 O   0  0  0  0  0  0  0  0  0  0  0  0
   -1.2380   -0.2398   -2.1859 N   0  0  0  0  0  0  0  0  0  0  0  0
   -2.0510   -0.7385   -1.8419 H   0  0  0  0  0  0  0  0  0  0  0  0
   -1.1409    0.0007   -3.6237 C   0  0  0  0  0  0  0  0  0  0  0  0
   -0.0916    0.0536   -3.9255 H   0  0  0  0  0  0  0  0  0  0  0  0
   -1.6287   -0.8086   -4.1689 H   0  0  0  0  0  0  0  0  0  0  0  0
   -1.6263    0.9466   -3.8695 H   0  0  0  0  0  0  0  0  0  0  0  0
  5  6  2  0  0  0  0
  5  7  1  0  0  0  0
  2  3  1  0  0  0  0
  2  4  1  0  0  0  0
  2  5  1  0  0  0  0
  1  2  1  0  0  0  0
 22 23  2  0  0  0  0
 22 24  1  0  0  0  0
 20 21  1  0  0  0  0
 18 19  1  0  0  0  0
 18 20  1  0  0  0  0
 16 17  1  0  0  0  0
 16 18  1  0  0  0  0
 15 16  2  0  0  0  0
 14 15  1  0  0  0  0
 14 20  2  0  0  0  0
 11 12  1  0  0  0  0
 11 13  1  0  0  0  0
 11 14  1  0  0  0  0
  9 10  1  0  0  0  0
  9 11  1  0  0  0  0
  9 22  1  0  0  0  0
  7  8  1  0  0  0  0
  7  9  1  0  0  0  0
 26 27  1  0  0  0  0
 26 28  1  0  0  0  0
 26 29  1  0  0  0  0
 24 25  1  0  0  0  0
 24 26  1  0  0  0  0
M  END
$$$$
default_name
  -OEChem-01062215323D

 29 29  0     1  0  0  0  0  0999 V2000
   -2.9561   -3.9186    1.3887 H   0  0  0  0  0  0  0  0  0  0  0  0
   -3.1191   -2.9346    0.9517 C   0  0  0  0  0  0  0  0  0  0  0  0
   -3.7811   -2.3546    1.5917 H   0  0  0  0  0  0  0  0  0  0  0  0
   -3.5591   -3.0406   -0.0383 H   0  0  0  0  0  0  0  0  0  0  0  0
   -1.7921   -2.2226    0.8327 C   0  0  0  0  0  0  0  0  0  0  0  0
   -0.7611   -2.7766    1.1927 O   0  0  0  0  0  0  0  0  0  0  0  0
   -1.8201   -0.9926    0.3247 N   0  0  0  0  0  0  0  0  0  0  0  0
   -2.7141   -0.5816    0.0927 H   0  0  0  0  0  0  0  0  0  0  0  0
   -0.6481   -0.1156    0.2017 C   0  0  1  0  0  0  0  0  0  0  0  0
   -0.8572    0.8098    0.7421 H   0  0  0  0  0  0  0  0  0  0  0  0
    0.5755   -0.7884    0.8535 C   0  0  0  0  0  0  0  0  0  0  0  0
    0.7370   -1.7714    0.4087 H   0  0  0  0  0  0  0  0  0  0  0  0
    1.4690   -0.1918    0.6645 H   0  0  0  0  0  0  0  0  0  0  0  0
    0.4114   -0.9902    2.3403 C   0  0  0  0  0  0  0  0  0  0  0  0
    0.4997    0.0046    3.3150 N   0  0  0  0  0  0  0  0  0  0  0  0
    0.2427   -0.6001    4.4840 C   0  0  0  0  0  0  0  0  0  0  0  0
    0.2443   -0.1013    5.4450 H   0  0  0  0  0  0  0  0  0  0  0  0
   -0.0242   -1.9025    4.2901 N   0  0  0  0  0  0  0  0  0  0  0  0
   -0.2669   -2.5653    5.0137 H   0  0  0  0  0  0  0  0  0  0  0  0
    0.0735   -2.1670    2.9421 C   0  0  0  0  0  0  0  0  0  0  0  0
   -0.1009   -3.1097    2.4389 H   0  0  0  0  0  0  0  0  0  0  0  0
   -0.4000    0.2574   -1.2708 C   0  0  0  0  0  0  0  0  0  0  0  0
    0.6801    0.7406   -1.6103 O   0  0  0  0  0  0  0  0  0  0  0  0
   -1.3866    0.0279   -2.1431 N   0  0  0  0  0  0  0  0  0  0  0  0
   -2.2769   -0.2716   -1.7618 H   0  0  0  0  0  0  0  0  0  0  0  0
   -1.3154    0.3081   -3.5753 C   0  0  0  0  0  0  0  0  0  0  0  0
   -0.3051    0.1160   -3.9457 H   0  0  0  0  0  0  0  0  0  0  0  0
   -2.0198   -0.3280   -4.1131 H   0  0  0  0  0  0  0  0  0  0  0  0
   -1.5633    1.3555   -3.7553 H   0  0  0  0  0  0  0  0  0  0  0  0
  5  6  2  0  0  0  0
  5  7  1  0  0  0  0
  2  3  1  0  0  0  0
  2  4  1  0  0  0  0
  2  5  1  0  0  0  0
  1  2  1  0  0  0  0
 22 23  2  0  0  0  0
 22 24  1  0  0  0  0
 20 21  1  0  0  0  0
 18 19  1  0  0  0  0
 18 20  1  0  0  0  0
 16 17  1  0  0  0  0
 16 18  1  0  0  0  0
 15 16  2  0  0  0  0
 14 15  1  0  0  0  0
 14 20  2  0  0  0  0
 11 12  1  0  0  0  0
 11 13  1  0  0  0  0
 11 14  1  0  0  0  0
  9 10  1  0  0  0  0
  9 11  1  0  0  0  0
  9 22  1  0  0  0  0
  7  8  1  0  0  0  0
  7  9  1  0  0  0  0
 26 27  1  0  0  0  0
 26 28  1  0  0  0  0
 26 29  1  0  0  0  0
 24 25  1  0  0  0  0
 24 26  1  0  0  0  0
M  END
$$$$
default_name
  -OEChem-01062215323D

 29 29  0     1  0  0  0  0  0999 V2000
   -2.9561   -3.9186    1.3887 H   0  0  0  0  0  0  0  0  0  0  0  0
   -3.1191   -2.9346    0.9517 C   0  0  0  0  0  0  0  0  0  0  0  0
   -3.7811   -2.3546    1.5917 H   0  0  0  0  0  0  0  0  0  0  0  0
   -3.5591   -3.0406   -0.0383 H   0  0  0  0  0  0  0  0  0  0  0  0
   -1.7921   -2.2226    0.8327 C   0  0  0  0  0  0  0  0  0  0  0  0
   -0.7611   -2.7766    1.1927 O   0  0  0  0  0  0  0  0  0  0  0  0
   -1.8201   -0.9926    0.3247 N   0  0  0  0  0  0  0  0  0  0  0  0
   -2.7141   -0.5816    0.0927 H   0  0  0  0  0  0  0  0  0  0  0  0
   -0.6481   -0.1156    0.2017 C   0  0  1  0  0  0  0  0  0  0  0  0
   -0.8572    0.8098    0.7421 H   0  0  0  0  0  0  0  0  0  0  0  0
    0.5755   -0.7884    0.8535 C   0  0  0  0  0  0  0  0  0  0  0  0
    0.7370   -1.7714    0.4087 H   0  0  0  0  0  0  0  0  0  0  0  0
    1.4690   -0.1918    0.6645 H   0  0  0  0  0  0  0  0  0  0  0  0
    0.4114   -0.9902    2.3403 C   0  0  0  0  0  0  0  0  0  0  0  0
    0.4997    0.0046    3.3150 N   0  0  0  0  0  0  0  0  0  0  0  0
    0.2427   -0.6001    4.4840 C   0  0  0  0  0  0  0  0  0  0  0  0
    0.2443   -0.1013    5.4450 H   0  0  0  0  0  0  0  0  0  0  0  0
   -0.0242   -1.9025    4.2901 N   0  0  0  0  0  0  0  0  0  0  0  0
   -0.2669   -2.5653    5.0137 H   0  0  0  0  0  0  0  0  0  0  0  0
    0.0735   -2.1670    2.9421 C   0  0  0  0  0  0  0  0  0  0  0  0
   -0.1009   -3.1097    2.4389 H   0  0  0  0  0  0  0  0  0  0  0  0
   -0.4000    0.2574   -1.2708 C   0  0  0  0  0  0  0  0  0  0  0  0
    0.7450    0.4759   -1.6664 O   0  0  0  0  0  0  0  0  0  0  0  0
   -1.4611    0.3216   -2.0813 N   0  0  0  0  0  0  0  0  0  0  0  0
   -2.3745    0.2319   -1.6507 H   0  0  0  0  0  0  0  0  0  0  0  0
   -1.4048    0.6463   -3.5047 C   0  0  0  0  0  0  0  0  0  0  0  0
   -0.4972    0.2299   -3.9492 H   0  0  0  0  0  0  0  0  0  0  0  0
   -2.2751    0.2308   -4.0146 H   0  0  0  0  0  0  0  0  0  0  0  0
   -1.3941    1.7300   -3.6319 H   0  0  0  0  0  0  0  0  0  0  0  0
  5  6  2  0  0  0  0
  5  7  1  0  0  0  0
  2  3  1  0  0  0  0
  2  4  1  0  0  0  0
  2  5  1  0  0  0  0
  1  2  1  0  0  0  0
 22 23  2  0  0  0  0
 22 24  1  0  0  0  0
 20 21  1  0  0  0  0
 18 19  1  0  0  0  0
 18 20  1  0  0  0  0
 16 17  1  0  0  0  0
 16 18  1  0  0  0  0
 15 16  2  0  0  0  0
 14 15  1  0  0  0  0
 14 20  2  0  0  0  0
 11 12  1  0  0  0  0
 11 13  1  0  0  0  0
 11 14  1  0  0  0  0
  9 10  1  0  0  0  0
  9 11  1  0  0  0  0
  9 22  1  0  0  0  0
  7  8  1  0  0  0  0
  7  9  1  0  0  0  0
 26 27  1  0  0  0  0
 26 28  1  0  0  0  0
 26 29  1  0  0  0  0
 24 25  1  0  0  0  0
 24 26  1  0  0  0  0
M  END
$$$$
default_name
  -OEChem-01062215323D

 29 29  0     1  0  0  0  0  0999 V2000
   -2.9561   -3.9186    1.3887 H   0  0  0  0  0  0  0  0  0  0  0  0
   -3.1191   -2.9346    0.9517 C   0  0  0  0  0  0  0  0  0  0  0  0
   -3.7811   -2.3546    1.5917 H   0  0  0  0  0  0  0  0  0  0  0  0
   -3.5591   -3.0406   -0.0383 H   0  0  0  0  0  0  0  0  0  0  0  0
   -1.7921   -2.2226    0.8327 C   0  0  0  0  0  0  0  0  0  0  0  0
   -0.7611   -2.7766    1.1927 O   0  0  0  0  0  0  0  0  0  0  0  0
   -1.8201   -0.9926    0.3247 N   0  0  0  0  0  0  0  0  0  0  0  0
   -2.7141   -0.5816    0.0927 H   0  0  0  0  0  0  0  0  0  0  0  0
   -0.6481   -0.1156    0.2017 C   0  0  1  0  0  0  0  0  0  0  0  0
   -0.8572    0.8098    0.7421 H   0  0  0  0  0  0  0  0  0  0  0  0
    0.5755   -0.7884    0.8535 C   0  0  0  0  0  0  0  0  0  0  0  0
    0.7370   -1.7714    0.4087 H   0  0  0  0  0  0  0  0  0  0  0  0
    1.4690   -0.1918    0.6645 H   0  0  0  0  0  0  0  0  0  0  0  0
    0.4114   -0.9902    2.3403 C   0  0  0  0  0  0  0  0  0  0  0  0
    0.4997    0.0046    3.3150 N   0  0  0  0  0  0  0  0  0  0  0  0
    0.2427   -0.6001    4.4840 C   0  0  0  0  0  0  0  0  0  0  0  0
    0.2443   -0.1013    5.4450 H   0  0  0  0  0  0  0  0  0  0  0  0
   -0.0242   -1.9025    4.2901 N   0  0  0  0  0  0  0  0  0  0  0  0
   -0.2669   -2.5653    5.0137 H   0  0  0  0  0  0  0  0  0  0  0  0
    0.0735   -2.1670    2.9421 C   0  0  0  0  0  0  0  0  0  0  0  0
   -0.1009   -3.1097    2.4389 H   0  0  0  0  0  0  0  0  0  0  0  0
   -0.4000    0.2574   -1.2708 C   0  0  0  0  0  0  0  0  0  0  0  0
    0.7387    0.2065   -1.7357 O   0  0  0  0  0  0  0  0  0  0  0  0
   -1.4564    0.6210   -2.0047 N   0  0  0  0  0  0  0  0  0  0  0  0
   -2.3372    0.7379   -1.5162 H   0  0  0  0  0  0  0  0  0  0  0  0
   -1.4030    0.9921   -3.4168 C   0  0  0  0  0  0  0  0  0  0  0  0
   -0.6547    0.3876   -3.9358 H   0  0  0  0  0  0  0  0  0  0  0  0
   -2.3771    0.8296   -3.8801 H   0  0  0  0  0  0  0  0  0  0  0  0
   -1.1302    2.0448   -3.5077 H   0  0  0  0  0  0  0  0  0  0  0  0
  5  6  2  0  0  0  0
  5  7  1  0  0  0  0
  2  3  1  0  0  0  0
  2  4  1  0  0  0  0
  2  5  1  0  0  0  0
  1  2  1  0  0  0  0
 22 23  2  0  0  0  0
 22 24  1  0  0  0  0
 20 21  1  0  0  0  0
 18 19  1  0  0  0  0
 18 20  1  0  0  0  0
 16 17  1  0  0  0  0
 16 18  1  0  0  0  0
 15 16  2  0  0  0  0
 14 15  1  0  0  0  0
 14 20  2  0  0  0  0
 11 12  1  0  0  0  0
 11 13  1  0  0  0  0
 11 14  1  0  0  0  0
  9 10  1  0  0  0  0
  9 11  1  0  0  0  0
  9 22  1  0  0  0  0
  7  8  1  0  0  0  0
  7  9  1  0  0  0  0
 26 27  1  0  0  0  0
 26 28  1  0  0  0  0
 26 29  1  0  0  0  0
 24 25  1  0  0  0  0
 24 26  1  0  0  0  0
M  END
$$$$
default_name
  -OEChem-01062215323D

 29 29  0     1  0  0  0  0  0999 V2000
   -2.9561   -3.9186    1.3887 H   0  0  0  0  0  0  0  0  0  0  0  0
   -3.1191   -2.9346    0.9517 C   0  0  0  0  0  0  0  0  0  0  0  0
   -3.7811   -2.3546    1.5917 H   0  0  0  0  0  0  0  0  0  0  0  0
   -3.5591   -3.0406   -0.0383 H   0  0  0  0  0  0  0  0  0  0  0  0
   -1.7921   -2.2226    0.8327 C   0  0  0  0  0  0  0  0  0  0  0  0
   -0.7611   -2.7766    1.1927 O   0  0  0  0  0  0  0  0  0  0  0  0
   -1.8201   -0.9926    0.3247 N   0  0  0  0  0  0  0  0  0  0  0  0
   -2.7141   -0.5816    0.0927 H   0  0  0  0  0  0  0  0  0  0  0  0
   -0.6481   -0.1156    0.2017 C   0  0  1  0  0  0  0  0  0  0  0  0
   -0.8572    0.8098    0.7421 H   0  0  0  0  0  0  0  0  0  0  0  0
    0.5755   -0.7884    0.8535 C   0  0  0  0  0  0  0  0  0  0  0  0
    0.7370   -1.7714    0.4087 H   0  0  0  0  0  0  0  0  0  0  0  0
    1.4690   -0.1918    0.6645 H   0  0  0  0  0  0  0  0  0  0  0  0
    0.4114   -0.9902    2.3403 C   0  0  0  0  0  0  0  0  0  0  0  0
    0.4997    0.0046    3.3150 N   0  0  0  0  0  0  0  0  0  0  0  0
    0.2427   -0.6001    4.4840 C   0  0  0  0  0  0  0  0  0  0  0  0
    0.2443   -0.1013    5.4450 H   0  0  0  0  0  0  0  0  0  0  0  0
   -0.0242   -1.9025    4.2901 N   0  0  0  0  0  0  0  0  0  0  0  0
   -0.2669   -2.5653    5.0137 H   0  0  0  0  0  0  0  0  0  0  0  0
    0.0735   -2.1670    2.9421 C   0  0  0  0  0  0  0  0  0  0  0  0
   -0.1009   -3.1097    2.4389 H   0  0  0  0  0  0  0  0  0  0  0  0
   -0.4000    0.2574   -1.2708 C   0  0  0  0  0  0  0  0  0  0  0  0
    0.6615   -0.0492   -1.8135 O   0  0  0  0  0  0  0  0  0  0  0  0
   -1.3730    0.9060   -1.9185 N   0  0  0  0  0  0  0  0  0  0  0  0
   -2.1674    1.2118   -1.3676 H   0  0  0  0  0  0  0  0  0  0  0  0
   -1.3101    1.3221   -3.3176 C   0  0  0  0  0  0  0  0  0  0  0  0
   -0.7670    0.5784   -3.9064 H   0  0  0  0  0  0  0  0  0  0  0  0
   -2.3190    1.4276   -3.7188 H   0  0  0  0  0  0  0  0  0  0  0  0
   -0.7895    2.2783   -3.3912 H   0  0  0  0  0  0  0  0  0  0  0  0
  5  6  2  0  0  0  0
  5  7  1  0  0  0  0
  2  3  1  0  0  0  0
  2  4  1  0  0  0  0
  2  5  1  0  0  0  0
  1  2  1  0  0  0  0
 22 23  2  0  0  0  0
 22 24  1  0  0  0  0
 20 21  1  0  0  0  0
 18 19  1  0  0  0  0
 18 20  1  0  0  0  0
 16 17  1  0  0  0  0
 16 18  1  0  0  0  0
 15 16  2  0  0  0  0
 14 15  1  0  0  0  0
 14 20  2  0  0  0  0
 11 12  1  0  0  0  0
 11 13  1  0  0  0  0
 11 14  1  0  0  0  0
  9 10  1  0  0  0  0
  9 11  1  0  0  0  0
  9 22  1  0  0  0  0
  7  8  1  0  0  0  0
  7  9  1  0  0  0  0
 26 27  1  0  0  0  0
 26 28  1  0  0  0  0
 26 29  1  0  0  0  0
 24 25  1  0  0  0  0
 24 26  1  0  0  0  0
M  END
$$$$
default_name
  -OEChem-01062215323D

 29 29  0     1  0  0  0  0  0999 V2000
   -2.9561   -3.9186    1.3887 H   0  0  0  0  0  0  0  0  0  0  0  0
   -3.1191   -2.9346    0.9517 C   0  0  0  0  0  0  0  0  0  0  0  0
   -3.7811   -2.3546    1.5917 H   0  0  0  0  0  0  0  0  0  0  0  0
   -3.5591   -3.0406   -0.0383 H   0  0  0  0  0  0  0  0  0  0  0  0
   -1.7921   -2.2226    0.8327 C   0  0  0  0  0  0  0  0  0  0  0  0
   -0.7611   -2.7766    1.1927 O   0  0  0  0  0  0  0  0  0  0  0  0
   -1.8201   -0.9926    0.3247 N   0  0  0  0  0  0  0  0  0  0  0  0
   -2.7141   -0.5816    0.0927 H   0  0  0  0  0  0  0  0  0  0  0  0
   -0.6481   -0.1156    0.2017 C   0  0  1  0  0  0  0  0  0  0  0  0
   -0.8572    0.8098    0.7421 H   0  0  0  0  0  0  0  0  0  0  0  0
    0.5755   -0.7884    0.8535 C   0  0  0  0  0  0  0  0  0  0  0  0
    0.7370   -1.7714    0.4087 H   0  0  0  0  0  0  0  0  0  0  0  0
    1.4690   -0.1918    0.6645 H   0  0  0  0  0  0  0  0  0  0  0  0
    0.4114   -0.9902    2.3403 C   0  0  0  0  0  0  0  0  0  0  0  0
    0.4997    0.0046    3.3150 N   0  0  0  0  0  0  0  0  0  0  0  0
    0.2427   -0.6001    4.4840 C   0  0  0  0  0  0  0  0  0  0  0  0
    0.2443   -0.1013    5.4450 H   0  0  0  0  0  0  0  0  0  0  0  0
   -0.0242   -1.9025    4.2901 N   0  0  0  0  0  0  0  0  0  0  0  0
   -0.2669   -2.5653    5.0137 H   0  0  0  0  0  0  0  0  0  0  0  0
    0.0735   -2.1670    2.9421 C   0  0  0  0  0  0  0  0  0  0  0  0
   -0.1009   -3.1097    2.4389 H   0  0  0  0  0  0  0  0  0  0  0  0
   -0.4000    0.2574   -1.2708 C   0  0  0  0  0  0  0  0  0  0  0  0
    0.5188   -0.2739   -1.8945 O   0  0  0  0  0  0  0  0  0  0  0  0
   -1.2165    1.1569   -1.8285 N   0  0  0  0  0  0  0  0  0  0  0  0
   -1.8767    1.6212   -1.2149 H   0  0  0  0  0  0  0  0  0  0  0  0
   -1.1324    1.6136   -3.2138 C   0  0  0  0  0  0  0  0  0  0  0  0
   -0.8263    0.7893   -3.8630 H   0  0  0  0  0  0  0  0  0  0  0  0
   -2.1047    1.9842   -3.5417 H   0  0  0  0  0  0  0  0  0  0  0  0
   -0.3953    2.4146   -3.2902 H   0  0  0  0  0  0  0  0  0  0  0  0
  5  6  2  0  0  0  0
  5  7  1  0  0  0  0
  2  3  1  0  0  0  0
  2  4  1  0  0  0  0
  2  5  1  0  0  0  0
  1  2  1  0  0  0  0
 22 23  2  0  0  0  0
 22 24  1  0  0  0  0
 20 21  1  0  0  0  0
 18 19  1  0  0  0  0
 18 20  1  0  0  0  0
 16 17  1  0  0  0  0
 16 18  1  0  0  0  0
 15 16  2  0  0  0  0
 14 15  1  0  0  0  0
 14 20  2  0  0  0  0
 11 12  1  0  0  0  0
 11 13  1  0  0  0  0
 11 14  1  0  0  0  0
  9 10  1  0  0  0  0
  9 11  1  0  0  0  0
  9 22  1  0  0  0  0
  7  8  1  0  0  0  0
  7  9  1  0  0  0  0
 26 27  1  0  0  0  0
 26 28  1  0  0  0  0
 26 29  1  0  0  0  0
 24 25  1  0  0  0  0
 24 26  1  0  0  0  0
M  END
$$$$
default_name
  -OEChem-01062215323D

 29 29  0     1  0  0  0  0  0999 V2000
   -2.9561   -3.9186    1.3887 H   0  0  0  0  0  0  0  0  0  0  0  0
   -3.1191   -2.9346    0.9517 C   0  0  0  0  0  0  0  0  0  0  0  0
   -3.7811   -2.3546    1.5917 H   0  0  0  0  0  0  0  0  0  0  0  0
   -3.5591   -3.0406   -0.0383 H   0  0  0  0  0  0  0  0  0  0  0  0
   -1.7921   -2.2226    0.8327 C   0  0  0  0  0  0  0  0  0  0  0  0
   -0.7611   -2.7766    1.1927 O   0  0  0  0  0  0  0  0  0  0  0  0
   -1.8201   -0.9926    0.3247 N   0  0  0  0  0  0  0  0  0  0  0  0
   -2.7141   -0.5816    0.0927 H   0  0  0  0  0  0  0  0  0  0  0  0
   -0.6481   -0.1156    0.2017 C   0  0  1  0  0  0  0  0  0  0  0  0
   -0.8572    0.8098    0.7421 H   0  0  0  0  0  0  0  0  0  0  0  0
    0.5755   -0.7884    0.8535 C   0  0  0  0  0  0  0  0  0  0  0  0
    0.7370   -1.7714    0.4087 H   0  0  0  0  0  0  0  0  0  0  0  0
    1.4690   -0.1918    0.6645 H   0  0  0  0  0  0  0  0  0  0  0  0
    0.4114   -0.9902    2.3403 C   0  0  0  0  0  0  0  0  0  0  0  0
    0.4997    0.0046    3.3150 N   0  0  0  0  0  0  0  0  0  0  0  0
    0.2427   -0.6001    4.4840 C   0  0  0  0  0  0  0  0  0  0  0  0
    0.2443   -0.1013    5.4450 H   0  0  0  0  0  0  0  0  0  0  0  0
   -0.0242   -1.9025    4.2901 N   0  0  0  0  0  0  0  0  0  0  0  0
   -0.2669   -2.5653    5.0137 H   0  0  0  0  0  0  0  0  0  0  0  0
    0.0735   -2.1670    2.9421 C   0  0  0  0  0  0  0  0  0  0  0  0
   -0.1009   -3.1097    2.4389 H   0  0  0  0  0  0  0  0  0  0  0  0
   -0.4000    0.2574   -1.2708 C   0  0  0  0  0  0  0  0  0  0  0  0
    0.3202   -0.4522   -1.9731 O   0  0  0  0  0  0  0  0  0  0  0  0
   -0.9975    1.3568   -1.7410 N   0  0  0  0  0  0  0  0  0  0  0  0
   -1.4849    1.9384   -1.0685 H   0  0  0  0  0  0  0  0  0  0  0  0
   -0.8821    1.8469   -3.1125 C   0  0  0  0  0  0  0  0  0  0  0  0
   -0.8287    1.0059   -3.8085 H   0  0  0  0  0  0  0  0  0  0  0  0
   -1.7487    2.4613   -3.3609 H   0  0  0  0  0  0  0  0  0  0  0  0
    0.0255    2.4445   -3.2118 H   0  0  0  0  0  0  0  0  0  0  0  0
  5  6  2  0  0  0  0
  5  7  1  0  0  0  0
  2  3  1  0  0  0  0
  2  4  1  0  0  0  0
  2  5  1  0  0  0  0
  1  2  1  0  0  0  0
 22 23  2  0  0  0  0
 22 24  1  0  0  0  0
 20 21  1  0  0  0  0
 18 19  1  0  0  0  0
 18 20  1  0  0  0  0
 16 17  1  0  0  0  0
 16 18  1  0  0  0  0
 15 16  2  0  0  0  0
 14 15  1  0  0  0  0
 14 20  2  0  0  0  0
 11 12  1  0  0  0  0
 11 13  1  0  0  0  0
 11 14  1  0  0  0  0
  9 10  1  0  0  0  0
  9 11  1  0  0  0  0
  9 22  1  0  0  0  0
  7  8  1  0  0  0  0
  7  9  1  0  0  0  0
 26 27  1  0  0  0  0
 26 28  1  0  0  0  0
 26 29  1  0  0  0  0
 24 25  1  0  0  0  0
 24 26  1  0  0  0  0
M  END
$$$$
default_name
  -OEChem-01062215323D

 29 29  0     1  0  0  0  0  0999 V2000
   -2.9561   -3.9186    1.3887 H   0  0  0  0  0  0  0  0  0  0  0  0
   -3.1191   -2.9346    0.9517 C   0  0  0  0  0  0  0  0  0  0  0  0
   -3.7811   -2.3546    1.5917 H   0  0  0  0  0  0  0  0  0  0  0  0
   -3.5591   -3.0406   -0.0383 H   0  0  0  0  0  0  0  0  0  0  0  0
   -1.7921   -2.2226    0.8327 C   0  0  0  0  0  0  0  0  0  0  0  0
   -0.7611   -2.7766    1.1927 O   0  0  0  0  0  0  0  0  0  0  0  0
   -1.8201   -0.9926    0.3247 N   0  0  0  0  0  0  0  0  0  0  0  0
   -2.7141   -0.5816    0.0927 H   0  0  0  0  0  0  0  0  0  0  0  0
   -0.6481   -0.1156    0.2017 C   0  0  1  0  0  0  0  0  0  0  0  0
   -0.8572    0.8098    0.7421 H   0  0  0  0  0  0  0  0  0  0  0  0
    0.5755   -0.7884    0.8535 C   0  0  0  0  0  0  0  0  0  0  0  0
    0.7370   -1.7714    0.4087 H   0  0  0  0  0  0  0  0  0  0  0  0
    1.4690   -0.1918    0.6645 H   0  0  0  0  0  0  0  0  0  0  0  0
    0.4114   -0.9902    2.3403 C   0  0  0  0  0  0  0  0  0  0  0  0
    0.4997    0.0046    3.3150 N   0  0  0  0  0  0  0  0  0  0  0  0
    0.2427   -0.6001    4.4840 C   0  0  0  0  0  0  0  0  0  0  0  0
    0.2443   -0.1013    5.4450 H   0  0  0  0  0  0  0  0  0  0  0  0
   -0.0242   -1.9025    4.2901 N   0  0  0  0  0  0  0  0  0  0  0  0
   -0.2669   -2.5653    5.0137 H   0  0  0  0  0  0  0  0  0  0  0  0
    0.0735   -2.1670    2.9421 C   0  0  0  0  0  0  0  0  0  0  0  0
   -0.1009   -3.1097    2.4389 H   0  0  0  0  0  0  0  0  0  0  0  0
   -0.4000    0.2574   -1.2708 C   0  0  0  0  0  0  0  0  0  0  0  0
    0.0793   -0.5720   -2.0440 O   0  0  0  0  0  0  0  0  0  0  0  0
   -0.7310    1.4921   -1.6618 N   0  0  0  0  0  0  0  0  0  0  0  0
   -1.0188    2.1416   -0.9385 H   0  0  0  0  0  0  0  0  0  0  0  0
   -0.5763    2.0061   -3.0206 C   0  0  0  0  0  0  0  0  0  0  0  0
   -0.7740    1.2134   -3.7467 H   0  0  0  0  0  0  0  0  0  0  0  0
   -1.2754    2.8265   -3.1887 H   0  0  0  0  0  0  0  0  0  0  0  0
    0.4443    2.3659   -3.1611 H   0  0  0  0  0  0  0  0  0  0  0  0
  5  6  2  0  0  0  0
  5  7  1  0  0  0  0
  2  3  1  0  0  0  0
  2  4  1  0  0  0  0
  2  5  1  0  0  0  0
  1  2  1  0  0  0  0
 22 23  2  0  0  0  0
 22 24  1  0  0  0  0
 20 21  1  0  0  0  0
 18 19  1  0  0  0  0
 18 20  1  0  0  0  0
 16 17  1  0  0  0  0
 16 18  1  0  0  0  0
 15 16  2  0  0  0  0
 14 15  1  0  0  0  0
 14 20  2  0  0  0  0
 11 12  1  0  0  0  0
 11 13  1  0  0  0  0
 11 14  1  0  0  0  0
  9 10  1  0  0  0  0
  9 11  1  0  0  0  0
  9 22  1  0  0  0  0
  7  8  1  0  0  0  0
  7  9  1  0  0  0  0
 26 27  1  0  0  0  0
 26 28  1  0  0  0  0
 26 29  1  0  0  0  0
 24 25  1  0  0  0  0
 24 26  1  0  0  0  0
M  END
$$$$
default_name
  -OEChem-01062215323D

 29 29  0     1  0  0  0  0  0999 V2000
   -2.9561   -3.9186    1.3887 H   0  0  0  0  0  0  0  0  0  0  0  0
   -3.1191   -2.9346    0.9517 C   0  0  0  0  0  0  0  0  0  0  0  0
   -3.7811   -2.3546    1.5917 H   0  0  0  0  0  0  0  0  0  0  0  0
   -3.5591   -3.0406   -0.0383 H   0  0  0  0  0  0  0  0  0  0  0  0
   -1.7921   -2.2226    0.8327 C   0  0  0  0  0  0  0  0  0  0  0  0
   -0.7611   -2.7766    1.1927 O   0  0  0  0  0  0  0  0  0  0  0  0
   -1.8201   -0.9926    0.3247 N   0  0  0  0  0  0  0  0  0  0  0  0
   -2.7141   -0.5816    0.0927 H   0  0  0  0  0  0  0  0  0  0  0  0
   -0.6481   -0.1156    0.2017 C   0  0  1  0  0  0  0  0  0  0  0  0
   -0.8572    0.8098    0.7421 H   0  0  0  0  0  0  0  0  0  0  0  0
    0.5755   -0.7884    0.8535 C   0  0  0  0  0  0  0  0  0  0  0  0
    0.7370   -1.7714    0.4087 H   0  0  0  0  0  0  0  0  0  0  0  0
    1.4690   -0.1918    0.6645 H   0  0  0  0  0  0  0  0  0  0  0  0
    0.4114   -0.9902    2.3403 C   0  0  0  0  0  0  0  0  0  0  0  0
    0.4997    0.0046    3.3150 N   0  0  0  0  0  0  0  0  0  0  0  0
    0.2427   -0.6001    4.4840 C   0  0  0  0  0  0  0  0  0  0  0  0
    0.2443   -0.1013    5.4450 H   0  0  0  0  0  0  0  0  0  0  0  0
   -0.0242   -1.9025    4.2901 N   0  0  0  0  0  0  0  0  0  0  0  0
   -0.2669   -2.5653    5.0137 H   0  0  0  0  0  0  0  0  0  0  0  0
    0.0735   -2.1670    2.9421 C   0  0  0  0  0  0  0  0  0  0  0  0
   -0.1009   -3.1097    2.4389 H   0  0  0  0  0  0  0  0  0  0  0  0
   -0.4000    0.2574   -1.2708 C   0  0  0  0  0  0  0  0  0  0  0  0
   -0.1875   -0.6250   -2.1024 O   0  0  0  0  0  0  0  0  0  0  0  0
   -0.4351    1.5534   -1.5964 N   0  0  0  0  0  0  0  0  0  0  0  0
   -0.5101    2.2171   -0.8337 H   0  0  0  0  0  0  0  0  0  0  0  0
   -0.2356    2.0802   -2.9445 C   0  0  0  0  0  0  0  0  0  0  0  0
   -0.6659    1.3977   -3.6818 H   0  0  0  0  0  0  0  0  0  0  0  0
   -0.7169    3.0549   -3.0367 H   0  0  0  0  0  0  0  0  0  0  0  0
    0.8326    2.1841   -3.1417 H   0  0  0  0  0  0  0  0  0  0  0  0
  5  6  2  0  0  0  0
  5  7  1  0  0  0  0
  2  3  1  0  0  0  0
  2  4  1  0  0  0  0
  2  5  1  0  0  0  0
  1  2  1  0  0  0  0
 22 23  2  0  0  0  0
 22 24  1  0  0  0  0
 20 21  1  0  0  0  0
 18 19  1  0  0  0  0
 18 20  1  0  0  0  0
 16 17  1  0  0  0  0
 16 18  1  0  0  0  0
 15 16  2  0  0  0  0
 14 15  1  0  0  0  0
 14 20  2  0  0  0  0
 11 12  1  0  0  0  0
 11 13  1  0  0  0  0
 11 14  1  0  0  0  0
  9 10  1  0  0  0  0
  9 11  1  0  0  0  0
  9 22  1  0  0  0  0
  7  8  1  0  0  0  0
  7  9  1  0  0  0  0
 26 27  1  0  0  0  0
 26 28  1  0  0  0  0
 26 29  1  0  0  0  0
 24 25  1  0  0  0  0
 24 26  1  0  0  0  0
M  END
$$$$
default_name
  -OEChem-01062215323D

 29 29  0     1  0  0  0  0  0999 V2000
   -2.9561   -3.9186    1.3887 H   0  0  0  0  0  0  0  0  0  0  0  0
   -3.1191   -2.9346    0.9517 C   0  0  0  0  0  0  0  0  0  0  0  0
   -3.7811   -2.3546    1.5917 H   0  0  0  0  0  0  0  0  0  0  0  0
   -3.5591   -3.0406   -0.0383 H   0  0  0  0  0  0  0  0  0  0  0  0
   -1.7921   -2.2226    0.8327 C   0  0  0  0  0  0  0  0  0  0  0  0
   -0.7611   -2.7766    1.1927 O   0  0  0  0  0  0  0  0  0  0  0  0
   -1.8201   -0.9926    0.3247 N   0  0  0  0  0  0  0  0  0  0  0  0
   -2.7141   -0.5816    0.0927 H   0  0  0  0  0  0  0  0  0  0  0  0
   -0.6481   -0.1156    0.2017 C   0  0  1  0  0  0  0  0  0  0  0  0
   -0.8572    0.8098    0.7421 H   0  0  0  0  0  0  0  0  0  0  0  0
    0.5755   -0.7884    0.8535 C   0  0  0  0  0  0  0  0  0  0  0  0
    0.7370   -1.7714    0.4087 H   0  0  0  0  0  0  0  0  0  0  0  0
    1.4690   -0.1918    0.6645 H   0  0  0  0  0  0  0  0  0  0  0  0
    0.4114   -0.9902    2.3403 C   0  0  0  0  0  0  0  0  0  0  0  0
    0.4997    0.0046    3.3150 N   0  0  0  0  0  0  0  0  0  0  0  0
    0.2427   -0.6001    4.4840 C   0  0  0  0  0  0  0  0  0  0  0  0
    0.2443   -0.1013    5.4450 H   0  0  0  0  0  0  0  0  0  0  0  0
   -0.0242   -1.9025    4.2901 N   0  0  0  0  0  0  0  0  0  0  0  0
   -0.2669   -2.5653    5.0137 H   0  0  0  0  0  0  0  0  0  0  0  0
    0.0735   -2.1670    2.9421 C   0  0  0  0  0  0  0  0  0  0  0  0
   -0.1009   -3.1097    2.4389 H   0  0  0  0  0  0  0  0  0  0  0  0
   -0.4000    0.2574   -1.2708 C   0  0  0  0  0  0  0  0  0  0  0  0
   -0.4620   -0.6078   -2.1443 O   0  0  0  0  0  0  0  0  0  0  0  0
   -0.1300    1.5366   -1.5493 N   0  0  0  0  0  0  0  0  0  0  0  0
    0.0065    2.1597   -0.7612 H   0  0  0  0  0  0  0  0  0  0  0  0
    0.1165    2.0643   -2.8892 C   0  0  0  0  0  0  0  0  0  0  0  0
   -0.5117    1.5462   -3.6182 H   0  0  0  0  0  0  0  0  0  0  0  0
   -0.1115    3.1308   -2.9154 H   0  0  0  0  0  0  0  0  0  0  0  0
    1.1638    1.9116   -3.1549 H   0  0  0  0  0  0  0  0  0  0  0  0
  5  6  2  0  0  0  0
  5  7  1  0  0  0  0
  2  3  1  0  0  0  0
  2  4  1  0  0  0  0
  2  5  1  0  0  0  0
  1  2  1  0  0  0  0
 22 23  2  0  0  0  0
 22 24  1  0  0  0  0
 20 21  1  0  0  0  0
 18 19  1  0  0  0  0
 18 20  1  0  0  0  0
 16 17  1  0  0  0  0
 16 18  1  0  0  0  0
 15 16  2  0  0  0  0
 14 15  1  0  0  0  0
 14 20  2  0  0  0  0
 11 12  1  0  0  0  0
 11 13  1  0  0  0  0
 11 14  1  0  0  0  0
  9 10  1  0  0  0  0
  9 11  1  0  0  0  0
  9 22  1  0  0  0  0
  7  8  1  0  0  0  0
  7  9  1  0  0  0  0
 26 27  1  0  0  0  0
 26 28  1  0  0  0  0
 26 29  1  0  0  0  0
 24 25  1  0  0  0  0
 24 26  1  0  0  0  0
M  END
$$$$
default_name
  -OEChem-01062215323D

 29 29  0     1  0  0  0  0  0999 V2000
   -2.9561   -3.9186    1.3887 H   0  0  0  0  0  0  0  0  0  0  0  0
   -3.1191   -2.9346    0.9517 C   0  0  0  0  0  0  0  0  0  0  0  0
   -3.7811   -2.3546    1.5917 H   0  0  0  0  0  0  0  0  0  0  0  0
   -3.5591   -3.0406   -0.0383 H   0  0  0  0  0  0  0  0  0  0  0  0
   -1.7921   -2.2226    0.8327 C   0  0  0  0  0  0  0  0  0  0  0  0
   -0.7611   -2.7766    1.1927 O   0  0  0  0  0  0  0  0  0  0  0  0
   -1.8201   -0.9926    0.3247 N   0  0  0  0  0  0  0  0  0  0  0  0
   -2.7141   -0.5816    0.0927 H   0  0  0  0  0  0  0  0  0  0  0  0
   -0.6481   -0.1156    0.2017 C   0  0  1  0  0  0  0  0  0  0  0  0
   -0.8572    0.8098    0.7421 H   0  0  0  0  0  0  0  0  0  0  0  0
    0.5755   -0.7884    0.8535 C   0  0  0  0  0  0  0  0  0  0  0  0
    0.7370   -1.7714    0.4087 H   0  0  0  0  0  0  0  0  0  0  0  0
    1.4690   -0.1918    0.6645 H   0  0  0  0  0  0  0  0  0  0  0  0
    0.4114   -0.9902    2.3403 C   0  0  0  0  0  0  0  0  0  0  0  0
    0.4997    0.0046    3.3150 N   0  0  0  0  0  0  0  0  0  0  0  0
    0.2427   -0.6001    4.4840 C   0  0  0  0  0  0  0  0  0  0  0  0
    0.2443   -0.1013    5.4450 H   0  0  0  0  0  0  0  0  0  0  0  0
   -0.0242   -1.9025    4.2901 N   0  0  0  0  0  0  0  0  0  0  0  0
   -0.2669   -2.5653    5.0137 H   0  0  0  0  0  0  0  0  0  0  0  0
    0.0735   -2.1670    2.9421 C   0  0  0  0  0  0  0  0  0  0  0  0
   -0.1009   -3.1097    2.4389 H   0  0  0  0  0  0  0  0  0  0  0  0
   -0.4000    0.2574   -1.2708 C   0  0  0  0  0  0  0  0  0  0  0  0
   -0.7255   -0.5215   -2.1668 O   0  0  0  0  0  0  0  0  0  0  0  0
    0.1635    1.4429   -1.5236 N   0  0  0  0  0  0  0  0  0  0  0  0
    0.4959    1.9732   -0.7259 H   0  0  0  0  0  0  0  0  0  0  0  0
    0.4562    1.9595   -2.8585 C   0  0  0  0  0  0  0  0  0  0  0  0
   -0.3220    1.6489   -3.5603 H   0  0  0  0  0  0  0  0  0  0  0  0
    0.4998    3.0492   -2.8331 H   0  0  0  0  0  0  0  0  0  0  0  0
    1.4155    1.5669   -3.1998 H   0  0  0  0  0  0  0  0  0  0  0  0
  5  6  2  0  0  0  0
  5  7  1  0  0  0  0
  2  3  1  0  0  0  0
  2  4  1  0  0  0  0
  2  5  1  0  0  0  0
  1  2  1  0  0  0  0
 22 23  2  0  0  0  0
 22 24  1  0  0  0  0
 20 21  1  0  0  0  0
 18 19  1  0  0  0  0
 18 20  1  0  0  0  0
 16 17  1  0  0  0  0
 16 18  1  0  0  0  0
 15 16  2  0  0  0  0
 14 15  1  0  0  0  0
 14 20  2  0  0  0  0
 11 12  1  0  0  0  0
 11 13  1  0  0  0  0
 11 14  1  0  0  0  0
  9 10  1  0  0  0  0
  9 11  1  0  0  0  0
  9 22  1  0  0  0  0
  7  8  1  0  0  0  0
  7  9  1  0  0  0  0
 26 27  1  0  0  0  0
 26 28  1  0  0  0  0
 26 29  1  0  0  0  0
 24 25  1  0  0  0  0
 24 26  1  0  0  0  0
M  END
$$$$
default_name
  -OEChem-01062215323D

 29 29  0     1  0  0  0  0  0999 V2000
   -2.9561   -3.9186    1.3887 H   0  0  0  0  0  0  0  0  0  0  0  0
   -3.1191   -2.9346    0.9517 C   0  0  0  0  0  0  0  0  0  0  0  0
   -3.7811   -2.3546    1.5917 H   0  0  0  0  0  0  0  0  0  0  0  0
   -3.5591   -3.0406   -0.0383 H   0  0  0  0  0  0  0  0  0  0  0  0
   -1.7921   -2.2226    0.8327 C   0  0  0  0  0  0  0  0  0  0  0  0
   -0.7611   -2.7766    1.1927 O   0  0  0  0  0  0  0  0  0  0  0  0
   -1.8201   -0.9926    0.3247 N   0  0  0  0  0  0  0  0  0  0  0  0
   -2.7141   -0.5816    0.0927 H   0  0  0  0  0  0  0  0  0  0  0  0
   -0.6481   -0.1156    0.2017 C   0  0  1  0  0  0  0  0  0  0  0  0
   -0.8572    0.8098    0.7421 H   0  0  0  0  0  0  0  0  0  0  0  0
    0.5755   -0.7884    0.8535 C   0  0  0  0  0  0  0  0  0  0  0  0
    0.7370   -1.7714    0.4087 H   0  0  0  0  0  0  0  0  0  0  0  0
    1.4690   -0.1918    0.6645 H   0  0  0  0  0  0  0  0  0  0  0  0
    0.4114   -0.9902    2.3403 C   0  0  0  0  0  0  0  0  0  0  0  0
    0.4997    0.0046    3.3150 N   0  0  0  0  0  0  0  0  0  0  0  0
    0.2427   -0.6001    4.4840 C   0  0  0  0  0  0  0  0  0  0  0  0
    0.2443   -0.1013    5.4450 H   0  0  0  0  0  0  0  0  0  0  0  0
   -0.0242   -1.9025    4.2901 N   0  0  0  0  0  0  0  0  0  0  0  0
   -0.2669   -2.5653    5.0137 H   0  0  0  0  0  0  0  0  0  0  0  0
    0.0735   -2.1670    2.9421 C   0  0  0  0  0  0  0  0  0  0  0  0
   -0.1009   -3.1097    2.4389 H   0  0  0  0  0  0  0  0  0  0  0  0
   -0.4000    0.2574   -1.2708 C   0  0  0  0  0  0  0  0  0  0  0  0
   -0.9601   -0.3718   -2.1685 O   0  0  0  0  0  0  0  0  0  0  0  0
    0.4254    1.2786   -1.5210 N   0  0  0  0  0  0  0  0  0  0  0  0
    0.9246    1.6705   -0.7303 H   0  0  0  0  0  0  0  0  0  0  0  0
    0.7603    1.7728   -2.8545 C   0  0  0  0  0  0  0  0  0  0  0  0
   -0.1098    1.6987   -3.5119 H   0  0  0  0  0  0  0  0  0  0  0  0
    1.0752    2.8156   -2.7953 H   0  0  0  0  0  0  0  0  0  0  0  0
    1.5703    1.1735   -3.2734 H   0  0  0  0  0  0  0  0  0  0  0  0
  5  6  2  0  0  0  0
  5  7  1  0  0  0  0
  2  3  1  0  0  0  0
  2  4  1  0  0  0  0
  2  5  1  0  0  0  0
  1  2  1  0  0  0  0
 22 23  2  0  0  0  0
 22 24  1  0  0  0  0
 20 21  1  0  0  0  0
 18 19  1  0  0  0  0
 18 20  1  0  0  0  0
 16 17  1  0  0  0  0
 16 18  1  0  0  0  0
 15 16  2  0  0  0  0
 14 15  1  0  0  0  0
 14 20  2  0  0  0  0
 11 12  1  0  0  0  0
 11 13  1  0  0  0  0
 11 14  1  0  0  0  0
  9 10  1  0  0  0  0
  9 11  1  0  0  0  0
  9 22  1  0  0  0  0
  7  8  1  0  0  0  0
  7  9  1  0  0  0  0
 26 27  1  0  0  0  0
 26 28  1  0  0  0  0
 26 29  1  0  0  0  0
 24 25  1  0  0  0  0
 24 26  1  0  0  0  0
M  END
$$$$
default_name
  -OEChem-01062215323D

 29 29  0     1  0  0  0  0  0999 V2000
   -2.9561   -3.9186    1.3887 H   0  0  0  0  0  0  0  0  0  0  0  0
   -3.1191   -2.9346    0.9517 C   0  0  0  0  0  0  0  0  0  0  0  0
   -3.7811   -2.3546    1.5917 H   0  0  0  0  0  0  0  0  0  0  0  0
   -3.5591   -3.0406   -0.0383 H   0  0  0  0  0  0  0  0  0  0  0  0
   -1.7921   -2.2226    0.8327 C   0  0  0  0  0  0  0  0  0  0  0  0
   -0.7611   -2.7766    1.1927 O   0  0  0  0  0  0  0  0  0  0  0  0
   -1.8201   -0.9926    0.3247 N   0  0  0  0  0  0  0  0  0  0  0  0
   -2.7141   -0.5816    0.0927 H   0  0  0  0  0  0  0  0  0  0  0  0
   -0.6481   -0.1156    0.2017 C   0  0  1  0  0  0  0  0  0  0  0  0
   -0.7372    0.6782    0.9461 H   0  0  0  0  0  0  0  0  0  0  0  0
    0.6341   -0.9160    0.5018 C   0  0  0  0  0  0  0  0  0  0  0  0
    0.6886   -1.7857   -0.1546 H   0  0  0  0  0  0  0  0  0  0  0  0
    1.5103   -0.2980    0.3013 H   0  0  0  0  0  0  0  0  0  0  0  0
    0.6907   -1.4220    1.9227 C   0  0  0  0  0  0  0  0  0  0  0  0
    0.9640   -0.6525    3.0543 N   0  0  0  0  0  0  0  0  0  0  0  0
    0.8653   -1.4859    4.1002 C   0  0  0  0  0  0  0  0  0  0  0  0
    1.0321   -1.1981    5.1306 H   0  0  0  0  0  0  0  0  0  0  0  0
    0.5228   -2.7180    3.6880 N   0  0  0  0  0  0  0  0  0  0  0  0
    0.3681   -3.5155    4.2895 H   0  0  0  0  0  0  0  0  0  0  0  0
    0.4040   -2.6965    2.3161 C   0  0  0  0  0  0  0  0  0  0  0  0
    0.1194   -3.5128    1.6642 H   0  0  0  0  0  0  0  0  0  0  0  0
   -0.6131    0.5544   -1.1835 C   0  0  0  0  0  0  0  0  0  0  0  0
   -1.5035    0.3242   -2.0019 O   0  0  0  0  0  0  0  0  0  0  0  0
    0.4009    1.3854   -1.4448 N   0  0  0  0  0  0  0  0  0  0  0  0
    1.1439    1.4345   -0.7567 H   0  0  0  0  0  0  0  0  0  0  0  0
    0.5806    2.1133   -2.6987 C   0  0  0  0  0  0  0  0  0  0  0  0
   -0.3902    2.4142   -3.1007 H   0  0  0  0  0  0  0  0  0  0  0  0
    1.1873    3.0036   -2.5270 H   0  0  0  0  0  0  0  0  0  0  0  0
    1.0791    1.4704   -3.4260 H   0  0  0  0  0  0  0  0  0  0  0  0
  5  6  2  0  0  0  0
  5  7  1  0  0  0  0
  2  3  1  0  0  0  0
  2  4  1  0  0  0  0
  2  5  1  0  0  0  0
  1  2  1  0  0  0  0
 22 23  2  0  0  0  0
 22 24  1  0  0  0  0
 20 21  1  0  0  0  0
 18 19  1  0  0  0  0
 18 20  1  0  0  0  0
 16 17  1  0  0  0  0
 16 18  1  0  0  0  0
 15 16  2  0  0  0  0
 14 15  1  0  0  0  0
 14 20  2  0  0  0  0
 11 12  1  0  0  0  0
 11 13  1  0  0  0  0
 11 14  1  0  0  0  0
  9 10  1  0  0  0  0
  9 11  1  0  0  0  0
  9 22  1  0  0  0  0
  7  8  1  0  0  0  0
  7  9  1  0  0  0  0
 26 27  1  0  0  0  0
 26 28  1  0  0  0  0
 26 29  1  0  0  0  0
 24 25  1  0  0  0  0
 24 26  1  0  0  0  0
M  END
$$$$
default_name
  -OEChem-01062215323D

 29 29  0     1  0  0  0  0  0999 V2000
   -2.9561   -3.9186    1.3887 H   0  0  0  0  0  0  0  0  0  0  0  0
   -3.1191   -2.9346    0.9517 C   0  0  0  0  0  0  0  0  0  0  0  0
   -3.7811   -2.3546    1.5917 H   0  0  0  0  0  0  0  0  0  0  0  0
   -3.5591   -3.0406   -0.0383 H   0  0  0  0  0  0  0  0  0  0  0  0
   -1.7921   -2.2226    0.8327 C   0  0  0  0  0  0  0  0  0  0  0  0
   -0.7611   -2.7766    1.1927 O   0  0  0  0  0  0  0  0  0  0  0  0
   -1.8201   -0.9926    0.3247 N   0  0  0  0  0  0  0  0  0  0  0  0
   -2.7141   -0.5816    0.0927 H   0  0  0  0  0  0  0  0  0  0  0  0
   -0.6481   -0.1156    0.2017 C   0  0  1  0  0  0  0  0  0  0  0  0
   -0.7372    0.6782    0.9461 H   0  0  0  0  0  0  0  0  0  0  0  0
    0.6341   -0.9160    0.5018 C   0  0  0  0  0  0  0  0  0  0  0  0
    0.6886   -1.7857   -0.1546 H   0  0  0  0  0  0  0  0  0  0  0  0
    1.5103   -0.2980    0.3013 H   0  0  0  0  0  0  0  0  0  0  0  0
    0.6907   -1.4220    1.9227 C   0  0  0  0  0  0  0  0  0  0  0  0
    0.9640   -0.6525    3.0543 N   0  0  0  0  0  0  0  0  0  0  0  0
    0.8653   -1.4859    4.1002 C   0  0  0  0  0  0  0  0  0  0  0  0
    1.0321   -1.1981    5.1306 H   0  0  0  0  0  0  0  0  0  0  0  0
    0.5228   -2.7180    3.6880 N   0  0  0  0  0  0  0  0  0  0  0  0
    0.3681   -3.5155    4.2895 H   0  0  0  0  0  0  0  0  0  0  0  0
    0.4040   -2.6965    2.3161 C   0  0  0  0  0  0  0  0  0  0  0  0
    0.1194   -3.5128    1.6642 H   0  0  0  0  0  0  0  0  0  0  0  0
   -0.6131    0.5544   -1.1835 C   0  0  0  0  0  0  0  0  0  0  0  0
   -1.6185    0.5534   -1.8939 O   0  0  0  0  0  0  0  0  0  0  0  0
    0.5309    1.1316   -1.5642 N   0  0  0  0  0  0  0  0  0  0  0  0
    1.3371    0.9933   -0.9652 H   0  0  0  0  0  0  0  0  0  0  0  0
    0.7340    1.8217   -2.8359 C   0  0  0  0  0  0  0  0  0  0  0  0
   -0.1787    2.3479   -3.1274 H   0  0  0  0  0  0  0  0  0  0  0  0
    1.5469    2.5430   -2.7407 H   0  0  0  0  0  0  0  0  0  0  0  0
    0.9841    1.0947   -3.6102 H   0  0  0  0  0  0  0  0  0  0  0  0
  5  6  2  0  0  0  0
  5  7  1  0  0  0  0
  2  3  1  0  0  0  0
  2  4  1  0  0  0  0
  2  5  1  0  0  0  0
  1  2  1  0  0  0  0
 22 23  2  0  0  0  0
 22 24  1  0  0  0  0
 20 21  1  0  0  0  0
 18 19  1  0  0  0  0
 18 20  1  0  0  0  0
 16 17  1  0  0  0  0
 16 18  1  0  0  0  0
 15 16  2  0  0  0  0
 14 15  1  0  0  0  0
 14 20  2  0  0  0  0
 11 12  1  0  0  0  0
 11 13  1  0  0  0  0
 11 14  1  0  0  0  0
  9 10  1  0  0  0  0
  9 11  1  0  0  0  0
  9 22  1  0  0  0  0
  7  8  1  0  0  0  0
  7  9  1  0  0  0  0
 26 27  1  0  0  0  0
 26 28  1  0  0  0  0
 26 29  1  0  0  0  0
 24 25  1  0  0  0  0
 24 26  1  0  0  0  0
M  END
$$$$
default_name
  -OEChem-01062215323D

 29 29  0     1  0  0  0  0  0999 V2000
   -2.9561   -3.9186    1.3887 H   0  0  0  0  0  0  0  0  0  0  0  0
   -3.1191   -2.9346    0.9517 C   0  0  0  0  0  0  0  0  0  0  0  0
   -3.7811   -2.3546    1.5917 H   0  0  0  0  0  0  0  0  0  0  0  0
   -3.5591   -3.0406   -0.0383 H   0  0  0  0  0  0  0  0  0  0  0  0
   -1.7921   -2.2226    0.8327 C   0  0  0  0  0  0  0  0  0  0  0  0
   -0.7611   -2.7766    1.1927 O   0  0  0  0  0  0  0  0  0  0  0  0
   -1.8201   -0.9926    0.3247 N   0  0  0  0  0  0  0  0  0  0  0  0
   -2.7141   -0.5816    0.0927 H   0  0  0  0  0  0  0  0  0  0  0  0
   -0.6481   -0.1156    0.2017 C   0  0  1  0  0  0  0  0  0  0  0  0
   -0.7372    0.6782    0.9461 H   0  0  0  0  0  0  0  0  0  0  0  0
    0.6341   -0.9160    0.5018 C   0  0  0  0  0  0  0  0  0  0  0  0
    0.6886   -1.7857   -0.1546 H   0  0  0  0  0  0  0  0  0  0  0  0
    1.5103   -0.2980    0.3013 H   0  0  0  0  0  0  0  0  0  0  0  0
    0.6907   -1.4220    1.9227 C   0  0  0  0  0  0  0  0  0  0  0  0
    0.9640   -0.6525    3.0543 N   0  0  0  0  0  0  0  0  0  0  0  0
    0.8653   -1.4859    4.1002 C   0  0  0  0  0  0  0  0  0  0  0  0
    1.0321   -1.1981    5.1306 H   0  0  0  0  0  0  0  0  0  0  0  0
    0.5228   -2.7180    3.6880 N   0  0  0  0  0  0  0  0  0  0  0  0
    0.3681   -3.5155    4.2895 H   0  0  0  0  0  0  0  0  0  0  0  0
    0.4040   -2.6965    2.3161 C   0  0  0  0  0  0  0  0  0  0  0  0
    0.1194   -3.5128    1.6642 H   0  0  0  0  0  0  0  0  0  0  0  0
   -0.6131    0.5544   -1.1835 C   0  0  0  0  0  0  0  0  0  0  0  0
   -1.6640    0.8009   -1.7754 O   0  0  0  0  0  0  0  0  0  0  0  0
    0.5839    0.8569   -1.6958 N   0  0  0  0  0  0  0  0  0  0  0  0
    1.3975    0.5234   -1.1910 H   0  0  0  0  0  0  0  0  0  0  0  0
    0.7987    1.5052   -2.9873 C   0  0  0  0  0  0  0  0  0  0  0  0
    0.0072    2.2347   -3.1775 H   0  0  0  0  0  0  0  0  0  0  0  0
    1.7628    2.0156   -2.9904 H   0  0  0  0  0  0  0  0  0  0  0  0
    0.7840    0.7549   -3.7796 H   0  0  0  0  0  0  0  0  0  0  0  0
  5  6  2  0  0  0  0
  5  7  1  0  0  0  0
  2  3  1  0  0  0  0
  2  4  1  0  0  0  0
  2  5  1  0  0  0  0
  1  2  1  0  0  0  0
 22 23  2  0  0  0  0
 22 24  1  0  0  0  0
 20 21  1  0  0  0  0
 18 19  1  0  0  0  0
 18 20  1  0  0  0  0
 16 17  1  0  0  0  0
 16 18  1  0  0  0  0
 15 16  2  0  0  0  0
 14 15  1  0  0  0  0
 14 20  2  0  0  0  0
 11 12  1  0  0  0  0
 11 13  1  0  0  0  0
 11 14  1  0  0  0  0
  9 10  1  0  0  0  0
  9 11  1  0  0  0  0
  9 22  1  0  0  0  0
  7  8  1  0  0  0  0
  7  9  1  0  0  0  0
 26 27  1  0  0  0  0
 26 28  1  0  0  0  0
 26 29  1  0  0  0  0
 24 25  1  0  0  0  0
 24 26  1  0  0  0  0
M  END
$$$$
default_name
  -OEChem-01062215323D

 29 29  0     1  0  0  0  0  0999 V2000
   -2.9561   -3.9186    1.3887 H   0  0  0  0  0  0  0  0  0  0  0  0
   -3.1191   -2.9346    0.9517 C   0  0  0  0  0  0  0  0  0  0  0  0
   -3.7811   -2.3546    1.5917 H   0  0  0  0  0  0  0  0  0  0  0  0
   -3.5591   -3.0406   -0.0383 H   0  0  0  0  0  0  0  0  0  0  0  0
   -1.7921   -2.2226    0.8327 C   0  0  0  0  0  0  0  0  0  0  0  0
   -0.7611   -2.7766    1.1927 O   0  0  0  0  0  0  0  0  0  0  0  0
   -1.8201   -0.9926    0.3247 N   0  0  0  0  0  0  0  0  0  0  0  0
   -2.7141   -0.5816    0.0927 H   0  0  0  0  0  0  0  0  0  0  0  0
   -0.6481   -0.1156    0.2017 C   0  0  1  0  0  0  0  0  0  0  0  0
   -0.7372    0.6782    0.9461 H   0  0  0  0  0  0  0  0  0  0  0  0
    0.6341   -0.9160    0.5018 C   0  0  0  0  0  0  0  0  0  0  0  0
    0.6886   -1.7857   -0.1546 H   0  0  0  0  0  0  0  0  0  0  0  0
    1.5103   -0.2980    0.3013 H   0  0  0  0  0  0  0  0  0  0  0  0
    0.6907   -1.4220    1.9227 C   0  0  0  0  0  0  0  0  0  0  0  0
    0.9640   -0.6525    3.0543 N   0  0  0  0  0  0  0  0  0  0  0  0
    0.8653   -1.4859    4.1002 C   0  0  0  0  0  0  0  0  0  0  0  0
    1.0321   -1.1981    5.1306 H   0  0  0  0  0  0  0  0  0  0  0  0
    0.5228   -2.7180    3.6880 N   0  0  0  0  0  0  0  0  0  0  0  0
    0.3681   -3.5155    4.2895 H   0  0  0  0  0  0  0  0  0  0  0  0
    0.4040   -2.6965    2.3161 C   0  0  0  0  0  0  0  0  0  0  0  0
    0.1194   -3.5128    1.6642 H   0  0  0  0  0  0  0  0  0  0  0  0
   -0.6131    0.5544   -1.1835 C   0  0  0  0  0  0  0  0  0  0  0  0
   -1.6370    1.0499   -1.6542 O   0  0  0  0  0  0  0  0  0  0  0  0
    0.5564    0.5799   -1.8304 N   0  0  0  0  0  0  0  0  0  0  0  0
    1.3210    0.0567   -1.4186 H   0  0  0  0  0  0  0  0  0  0  0  0
    0.7704    1.1852   -3.1428 C   0  0  0  0  0  0  0  0  0  0  0  0
    0.1548    2.0823   -3.2474 H   0  0  0  0  0  0  0  0  0  0  0  0
    1.8205    1.4574   -3.2589 H   0  0  0  0  0  0  0  0  0  0  0  0
    0.4925    0.4744   -3.9227 H   0  0  0  0  0  0  0  0  0  0  0  0
  5  6  2  0  0  0  0
  5  7  1  0  0  0  0
  2  3  1  0  0  0  0
  2  4  1  0  0  0  0
  2  5  1  0  0  0  0
  1  2  1  0  0  0  0
 22 23  2  0  0  0  0
 22 24  1  0  0  0  0
 20 21  1  0  0  0  0
 18 19  1  0  0  0  0
 18 20  1  0  0  0  0
 16 17  1  0  0  0  0
 16 18  1  0  0  0  0
 15 16  2  0  0  0  0
 14 15  1  0  0  0  0
 14 20  2  0  0  0  0
 11 12  1  0  0  0  0
 11 13  1  0  0  0  0
 11 14  1  0  0  0  0
  9 10  1  0  0  0  0
  9 11  1  0  0  0  0
  9 22  1  0  0  0  0
  7  8  1  0  0  0  0
  7  9  1  0  0  0  0
 26 27  1  0  0  0  0
 26 28  1  0  0  0  0
 26 29  1  0  0  0  0
 24 25  1  0  0  0  0
 24 26  1  0  0  0  0
M  END
$$$$
default_name
  -OEChem-01062215323D

 29 29  0     1  0  0  0  0  0999 V2000
   -2.9561   -3.9186    1.3887 H   0  0  0  0  0  0  0  0  0  0  0  0
   -3.1191   -2.9346    0.9517 C   0  0  0  0  0  0  0  0  0  0  0  0
   -3.7811   -2.3546    1.5917 H   0  0  0  0  0  0  0  0  0  0  0  0
   -3.5591   -3.0406   -0.0383 H   0  0  0  0  0  0  0  0  0  0  0  0
   -1.7921   -2.2226    0.8327 C   0  0  0  0  0  0  0  0  0  0  0  0
   -0.7611   -2.7766    1.1927 O   0  0  0  0  0  0  0  0  0  0  0  0
   -1.8201   -0.9926    0.3247 N   0  0  0  0  0  0  0  0  0  0  0  0
   -2.7141   -0.5816    0.0927 H   0  0  0  0  0  0  0  0  0  0  0  0
   -0.6481   -0.1156    0.2017 C   0  0  1  0  0  0  0  0  0  0  0  0
   -0.7372    0.6782    0.9461 H   0  0  0  0  0  0  0  0  0  0  0  0
    0.6341   -0.9160    0.5018 C   0  0  0  0  0  0  0  0  0  0  0  0
    0.6886   -1.7857   -0.1546 H   0  0  0  0  0  0  0  0  0  0  0  0
    1.5103   -0.2980    0.3013 H   0  0  0  0  0  0  0  0  0  0  0  0
    0.6907   -1.4220    1.9227 C   0  0  0  0  0  0  0  0  0  0  0  0
    0.9640   -0.6525    3.0543 N   0  0  0  0  0  0  0  0  0  0  0  0
    0.8653   -1.4859    4.1002 C   0  0  0  0  0  0  0  0  0  0  0  0
    1.0321   -1.1981    5.1306 H   0  0  0  0  0  0  0  0  0  0  0  0
    0.5228   -2.7180    3.6880 N   0  0  0  0  0  0  0  0  0  0  0  0
    0.3681   -3.5155    4.2895 H   0  0  0  0  0  0  0  0  0  0  0  0
    0.4040   -2.6965    2.3161 C   0  0  0  0  0  0  0  0  0  0  0  0
    0.1194   -3.5128    1.6642 H   0  0  0  0  0  0  0  0  0  0  0  0
   -0.6131    0.5544   -1.1835 C   0  0  0  0  0  0  0  0  0  0  0  0
   -1.5393    1.2834   -1.5388 O   0  0  0  0  0  0  0  0  0  0  0  0
    0.4501    0.3197   -1.9590 N   0  0  0  0  0  0  0  0  0  0  0  0
    1.1127   -0.3749   -1.6326 H   0  0  0  0  0  0  0  0  0  0  0  0
    0.6511    0.8837   -3.2917 C   0  0  0  0  0  0  0  0  0  0  0  0
    0.2539    1.9012   -3.3325 H   0  0  0  0  0  0  0  0  0  0  0  0
    1.7158    0.9063   -3.5281 H   0  0  0  0  0  0  0  0  0  0  0  0
    0.1295    0.2721   -4.0297 H   0  0  0  0  0  0  0  0  0  0  0  0
  5  6  2  0  0  0  0
  5  7  1  0  0  0  0
  2  3  1  0  0  0  0
  2  4  1  0  0  0  0
  2  5  1  0  0  0  0
  1  2  1  0  0  0  0
 22 23  2  0  0  0  0
 22 24  1  0  0  0  0
 20 21  1  0  0  0  0
 18 19  1  0  0  0  0
 18 20  1  0  0  0  0
 16 17  1  0  0  0  0
 16 18  1  0  0  0  0
 15 16  2  0  0  0  0
 14 15  1  0  0  0  0
 14 20  2  0  0  0  0
 11 12  1  0  0  0  0
 11 13  1  0  0  0  0
 11 14  1  0  0  0  0
  9 10  1  0  0  0  0
  9 11  1  0  0  0  0
  9 22  1  0  0  0  0
  7  8  1  0  0  0  0
  7  9  1  0  0  0  0
 26 27  1  0  0  0  0
 26 28  1  0  0  0  0
 26 29  1  0  0  0  0
 24 25  1  0  0  0  0
 24 26  1  0  0  0  0
M  END
$$$$
default_name
  -OEChem-01062215323D

 29 29  0     1  0  0  0  0  0999 V2000
   -2.9561   -3.9186    1.3887 H   0  0  0  0  0  0  0  0  0  0  0  0
   -3.1191   -2.9346    0.9517 C   0  0  0  0  0  0  0  0  0  0  0  0
   -3.7811   -2.3546    1.5917 H   0  0  0  0  0  0  0  0  0  0  0  0
   -3.5591   -3.0406   -0.0383 H   0  0  0  0  0  0  0  0  0  0  0  0
   -1.7921   -2.2226    0.8327 C   0  0  0  0  0  0  0  0  0  0  0  0
   -0.7611   -2.7766    1.1927 O   0  0  0  0  0  0  0  0  0  0  0  0
   -1.8201   -0.9926    0.3247 N   0  0  0  0  0  0  0  0  0  0  0  0
   -2.7141   -0.5816    0.0927 H   0  0  0  0  0  0  0  0  0  0  0  0
   -0.6481   -0.1156    0.2017 C   0  0  1  0  0  0  0  0  0  0  0  0
   -0.7372    0.6782    0.9461 H   0  0  0  0  0  0  0  0  0  0  0  0
    0.6341   -0.9160    0.5018 C   0  0  0  0  0  0  0  0  0  0  0  0
    0.6886   -1.7857   -0.1546 H   0  0  0  0  0  0  0  0  0  0  0  0
    1.5103   -0.2980    0.3013 H   0  0  0  0  0  0  0  0  0  0  0  0
    0.6907   -1.4220    1.9227 C   0  0  0  0  0  0  0  0  0  0  0  0
    0.9640   -0.6525    3.0543 N   0  0  0  0  0  0  0  0  0  0  0  0
    0.8653   -1.4859    4.1002 C   0  0  0  0  0  0  0  0  0  0  0  0
    1.0321   -1.1981    5.1306 H   0  0  0  0  0  0  0  0  0  0  0  0
    0.5228   -2.7180    3.6880 N   0  0  0  0  0  0  0  0  0  0  0  0
    0.3681   -3.5155    4.2895 H   0  0  0  0  0  0  0  0  0  0  0  0
    0.4040   -2.6965    2.3161 C   0  0  0  0  0  0  0  0  0  0  0  0
    0.1194   -3.5128    1.6642 H   0  0  0  0  0  0  0  0  0  0  0  0
   -0.6131    0.5544   -1.1835 C   0  0  0  0  0  0  0  0  0  0  0  0
   -1.3775    1.4856   -1.4369 O   0  0  0  0  0  0  0  0  0  0  0  0
    0.2722    0.0938   -2.0728 N   0  0  0  0  0  0  0  0  0  0  0  0
    0.7868   -0.7420   -1.8184 H   0  0  0  0  0  0  0  0  0  0  0  0
    0.4488    0.6211   -3.4238 C   0  0  0  0  0  0  0  0  0  0  0  0
    0.2980    1.7037   -3.4270 H   0  0  0  0  0  0  0  0  0  0  0  0
    1.4561    0.4000   -3.7796 H   0  0  0  0  0  0  0  0  0  0  0  0
   -0.2804    0.1619   -4.0933 H   0  0  0  0  0  0  0  0  0  0  0  0
  5  6  2  0  0  0  0
  5  7  1  0  0  0  0
  2  3  1  0  0  0  0
  2  4  1  0  0  0  0
  2  5  1  0  0  0  0
  1  2  1  0  0  0  0
 22 23  2  0  0  0  0
 22 24  1  0  0  0  0
 20 21  1  0  0  0  0
 18 19  1  0  0  0  0
 18 20  1  0  0  0  0
 16 17  1  0  0  0  0
 16 18  1  0  0  0  0
 15 16  2  0  0  0  0
 14 15  1  0  0  0  0
 14 20  2  0  0  0  0
 11 12  1  0  0  0  0
 11 13  1  0  0  0  0
 11 14  1  0  0  0  0
  9 10  1  0  0  0  0
  9 11  1  0  0  0  0
  9 22  1  0  0  0  0
  7  8  1  0  0  0  0
  7  9  1  0  0  0  0
 26 27  1  0  0  0  0
 26 28  1  0  0  0  0
 26 29  1  0  0  0  0
 24 25  1  0  0  0  0
 24 26  1  0  0  0  0
M  END
$$$$
default_name
  -OEChem-01062215323D

 29 29  0     1  0  0  0  0  0999 V2000
   -2.9561   -3.9186    1.3887 H   0  0  0  0  0  0  0  0  0  0  0  0
   -3.1191   -2.9346    0.9517 C   0  0  0  0  0  0  0  0  0  0  0  0
   -3.7811   -2.3546    1.5917 H   0  0  0  0  0  0  0  0  0  0  0  0
   -3.5591   -3.0406   -0.0383 H   0  0  0  0  0  0  0  0  0  0  0  0
   -1.7921   -2.2226    0.8327 C   0  0  0  0  0  0  0  0  0  0  0  0
   -0.7611   -2.7766    1.1927 O   0  0  0  0  0  0  0  0  0  0  0  0
   -1.8201   -0.9926    0.3247 N   0  0  0  0  0  0  0  0  0  0  0  0
   -2.7141   -0.5816    0.0927 H   0  0  0  0  0  0  0  0  0  0  0  0
   -0.6481   -0.1156    0.2017 C   0  0  1  0  0  0  0  0  0  0  0  0
   -0.7372    0.6782    0.9461 H   0  0  0  0  0  0  0  0  0  0  0  0
    0.6341   -0.9160    0.5018 C   0  0  0  0  0  0  0  0  0  0  0  0
    0.6886   -1.7857   -0.1546 H   0  0  0  0  0  0  0  0  0  0  0  0
    1.5103   -0.2980    0.3013 H   0  0  0  0  0  0  0  0  0  0  0  0
    0.6907   -1.4220    1.9227 C   0  0  0  0  0  0  0  0  0  0  0  0
    0.9640   -0.6525    3.0543 N   0  0  0  0  0  0  0  0  0  0  0  0
    0.8653   -1.4859    4.1002 C   0  0  0  0  0  0  0  0  0  0  0  0
    1.0321   -1.1981    5.1306 H   0  0  0  0  0  0  0  0  0  0  0  0
    0.5228   -2.7180    3.6880 N   0  0  0  0  0  0  0  0  0  0  0  0
    0.3681   -3.5155    4.2895 H   0  0  0  0  0  0  0  0  0  0  0  0
    0.4040   -2.6965    2.3161 C   0  0  0  0  0  0  0  0  0  0  0  0
    0.1194   -3.5128    1.6642 H   0  0  0  0  0  0  0  0  0  0  0  0
   -0.6131    0.5544   -1.1835 C   0  0  0  0  0  0  0  0  0  0  0  0
   -1.1626    1.6425   -1.3556 O   0  0  0  0  0  0  0  0  0  0  0  0
    0.0351   -0.0823   -2.1639 N   0  0  0  0  0  0  0  0  0  0  0  0
    0.3656   -1.0196   -1.9634 H   0  0  0  0  0  0  0  0  0  0  0  0
    0.1773    0.4154   -3.5302 C   0  0  0  0  0  0  0  0  0  0  0  0
    0.2838    1.5032   -3.5243 H   0  0  0  0  0  0  0  0  0  0  0  0
    1.0589   -0.0271   -3.9962 H   0  0  0  0  0  0  0  0  0  0  0  0
   -0.7091    0.1513   -4.1093 H   0  0  0  0  0  0  0  0  0  0  0  0
  5  6  2  0  0  0  0
  5  7  1  0  0  0  0
  2  3  1  0  0  0  0
  2  4  1  0  0  0  0
  2  5  1  0  0  0  0
  1  2  1  0  0  0  0
 22 23  2  0  0  0  0
 22 24  1  0  0  0  0
 20 21  1  0  0  0  0
 18 19  1  0  0  0  0
 18 20  1  0  0  0  0
 16 17  1  0  0  0  0
 16 18  1  0  0  0  0
 15 16  2  0  0  0  0
 14 15  1  0  0  0  0
 14 20  2  0  0  0  0
 11 12  1  0  0  0  0
 11 13  1  0  0  0  0
 11 14  1  0  0  0  0
  9 10  1  0  0  0  0
  9 11  1  0  0  0  0
  9 22  1  0  0  0  0
  7  8  1  0  0  0  0
  7  9  1  0  0  0  0
 26 27  1  0  0  0  0
 26 28  1  0  0  0  0
 26 29  1  0  0  0  0
 24 25  1  0  0  0  0
 24 26  1  0  0  0  0
M  END
$$$$
default_name
  -OEChem-01062215323D

 29 29  0     1  0  0  0  0  0999 V2000
   -2.9561   -3.9186    1.3887 H   0  0  0  0  0  0  0  0  0  0  0  0
   -3.1191   -2.9346    0.9517 C   0  0  0  0  0  0  0  0  0  0  0  0
   -3.7811   -2.3546    1.5917 H   0  0  0  0  0  0  0  0  0  0  0  0
   -3.5591   -3.0406   -0.0383 H   0  0  0  0  0  0  0  0  0  0  0  0
   -1.7921   -2.2226    0.8327 C   0  0  0  0  0  0  0  0  0  0  0  0
   -0.7611   -2.7766    1.1927 O   0  0  0  0  0  0  0  0  0  0  0  0
   -1.8201   -0.9926    0.3247 N   0  0  0  0  0  0  0  0  0  0  0  0
   -2.7141   -0.5816    0.0927 H   0  0  0  0  0  0  0  0  0  0  0  0
   -0.6481   -0.1156    0.2017 C   0  0  1  0  0  0  0  0  0  0  0  0
   -0.7372    0.6782    0.9461 H   0  0  0  0  0  0  0  0  0  0  0  0
    0.6341   -0.9160    0.5018 C   0  0  0  0  0  0  0  0  0  0  0  0
    0.6886   -1.7857   -0.1546 H   0  0  0  0  0  0  0  0  0  0  0  0
    1.5103   -0.2980    0.3013 H   0  0  0  0  0  0  0  0  0  0  0  0
    0.6907   -1.4220    1.9227 C   0  0  0  0  0  0  0  0  0  0  0  0
    0.9640   -0.6525    3.0543 N   0  0  0  0  0  0  0  0  0  0  0  0
    0.8653   -1.4859    4.1002 C   0  0  0  0  0  0  0  0  0  0  0  0
    1.0321   -1.1981    5.1306 H   0  0  0  0  0  0  0  0  0  0  0  0
    0.5228   -2.7180    3.6880 N   0  0  0  0  0  0  0  0  0  0  0  0
    0.3681   -3.5155    4.2895 H   0  0  0  0  0  0  0  0  0  0  0  0
    0.4040   -2.6965    2.3161 C   0  0  0  0  0  0  0  0  0  0  0  0
    0.1194   -3.5128    1.6642 H   0  0  0  0  0  0  0  0  0  0  0  0
   -0.6131    0.5544   -1.1835 C   0  0  0  0  0  0  0  0  0  0  0  0
   -0.9093    1.7436   -1.3003 O   0  0  0  0  0  0  0  0  0  0  0  0
   -0.2453   -0.1967   -2.2263 N   0  0  0  0  0  0  0  0  0  0  0  0
   -0.1222   -1.1888   -2.0575 H   0  0  0  0  0  0  0  0  0  0  0  0
   -0.1448    0.2805   -3.6036 C   0  0  0  0  0  0  0  0  0  0  0  0
    0.2125    1.3134   -3.6179 H   0  0  0  0  0  0  0  0  0  0  0  0
    0.5514   -0.3458   -4.1632 H   0  0  0  0  0  0  0  0  0  0  0  0
   -1.1274    0.2411   -4.0765 H   0  0  0  0  0  0  0  0  0  0  0  0
  5  6  2  0  0  0  0
  5  7  1  0  0  0  0
  2  3  1  0  0  0  0
  2  4  1  0  0  0  0
  2  5  1  0  0  0  0
  1  2  1  0  0  0  0
 22 23  2  0  0  0  0
 22 24  1  0  0  0  0
 20 21  1  0  0  0  0
 18 19  1  0  0  0  0
 18 20  1  0  0  0  0
 16 17  1  0  0  0  0
 16 18  1  0  0  0  0
 15 16  2  0  0  0  0
 14 15  1  0  0  0  0
 14 20  2  0  0  0  0
 11 12  1  0  0  0  0
 11 13  1  0  0  0  0
 11 14  1  0  0  0  0
  9 10  1  0  0  0  0
  9 11  1  0  0  0  0
  9 22  1  0  0  0  0
  7  8  1  0  0  0  0
  7  9  1  0  0  0  0
 26 27  1  0  0  0  0
 26 28  1  0  0  0  0
 26 29  1  0  0  0  0
 24 25  1  0  0  0  0
 24 26  1  0  0  0  0
M  END
$$$$
default_name
  -OEChem-01062215323D

 29 29  0     1  0  0  0  0  0999 V2000
   -2.9561   -3.9186    1.3887 H   0  0  0  0  0  0  0  0  0  0  0  0
   -3.1191   -2.9346    0.9517 C   0  0  0  0  0  0  0  0  0  0  0  0
   -3.7811   -2.3546    1.5917 H   0  0  0  0  0  0  0  0  0  0  0  0
   -3.5591   -3.0406   -0.0383 H   0  0  0  0  0  0  0  0  0  0  0  0
   -1.7921   -2.2226    0.8327 C   0  0  0  0  0  0  0  0  0  0  0  0
   -0.7611   -2.7766    1.1927 O   0  0  0  0  0  0  0  0  0  0  0  0
   -1.8201   -0.9926    0.3247 N   0  0  0  0  0  0  0  0  0  0  0  0
   -2.7141   -0.5816    0.0927 H   0  0  0  0  0  0  0  0  0  0  0  0
   -0.6481   -0.1156    0.2017 C   0  0  1  0  0  0  0  0  0  0  0  0
   -0.7372    0.6782    0.9461 H   0  0  0  0  0  0  0  0  0  0  0  0
    0.6341   -0.9160    0.5018 C   0  0  0  0  0  0  0  0  0  0  0  0
    0.6886   -1.7857   -0.1546 H   0  0  0  0  0  0  0  0  0  0  0  0
    1.5103   -0.2980    0.3013 H   0  0  0  0  0  0  0  0  0  0  0  0
    0.6907   -1.4220    1.9227 C   0  0  0  0  0  0  0  0  0  0  0  0
    0.9640   -0.6525    3.0543 N   0  0  0  0  0  0  0  0  0  0  0  0
    0.8653   -1.4859    4.1002 C   0  0  0  0  0  0  0  0  0  0  0  0
    1.0321   -1.1981    5.1306 H   0  0  0  0  0  0  0  0  0  0  0  0
    0.5228   -2.7180    3.6880 N   0  0  0  0  0  0  0  0  0  0  0  0
    0.3681   -3.5155    4.2895 H   0  0  0  0  0  0  0  0  0  0  0  0
    0.4040   -2.6965    2.3161 C   0  0  0  0  0  0  0  0  0  0  0  0
    0.1194   -3.5128    1.6642 H   0  0  0  0  0  0  0  0  0  0  0  0
   -0.6131    0.5544   -1.1835 C   0  0  0  0  0  0  0  0  0  0  0  0
   -0.6349    1.7819   -1.2749 O   0  0  0  0  0  0  0  0  0  0  0  0
   -0.5498   -0.2414   -2.2557 N   0  0  0  0  0  0  0  0  0  0  0  0
   -0.6434   -1.2380   -2.0945 H   0  0  0  0  0  0  0  0  0  0  0  0
   -0.4956    0.2257   -3.6389 C   0  0  0  0  0  0  0  0  0  0  0  0
    0.0888    1.1472   -3.7014 H   0  0  0  0  0  0  0  0  0  0  0  0
   -0.0319   -0.5345   -4.2692 H   0  0  0  0  0  0  0  0  0  0  0  0
   -1.5070    0.4250   -3.9971 H   0  0  0  0  0  0  0  0  0  0  0  0
  5  6  2  0  0  0  0
  5  7  1  0  0  0  0
  2  3  1  0  0  0  0
  2  4  1  0  0  0  0
  2  5  1  0  0  0  0
  1  2  1  0  0  0  0
 22 23  2  0  0  0  0
 22 24  1  0  0  0  0
 20 21  1  0  0  0  0
 18 19  1  0  0  0  0
 18 20  1  0  0  0  0
 16 17  1  0  0  0  0
 16 18  1  0  0  0  0
 15 16  2  0  0  0  0
 14 15  1  0  0  0  0
 14 20  2  0  0  0  0
 11 12  1  0  0  0  0
 11 13  1  0  0  0  0
 11 14  1  0  0  0  0
  9 10  1  0  0  0  0
  9 11  1  0  0  0  0
  9 22  1  0  0  0  0
  7  8  1  0  0  0  0
  7  9  1  0  0  0  0
 26 27  1  0  0  0  0
 26 28  1  0  0  0  0
 26 29  1  0  0  0  0
 24 25  1  0  0  0  0
 24 26  1  0  0  0  0
M  END
$$$$
default_name
  -OEChem-01062215323D

 29 29  0     1  0  0  0  0  0999 V2000
   -2.9561   -3.9186    1.3887 H   0  0  0  0  0  0  0  0  0  0  0  0
   -3.1191   -2.9346    0.9517 C   0  0  0  0  0  0  0  0  0  0  0  0
   -3.7811   -2.3546    1.5917 H   0  0  0  0  0  0  0  0  0  0  0  0
   -3.5591   -3.0406   -0.0383 H   0  0  0  0  0  0  0  0  0  0  0  0
   -1.7921   -2.2226    0.8327 C   0  0  0  0  0  0  0  0  0  0  0  0
   -0.7611   -2.7766    1.1927 O   0  0  0  0  0  0  0  0  0  0  0  0
   -1.8201   -0.9926    0.3247 N   0  0  0  0  0  0  0  0  0  0  0  0
   -2.7141   -0.5816    0.0927 H   0  0  0  0  0  0  0  0  0  0  0  0
   -0.6481   -0.1156    0.2017 C   0  0  1  0  0  0  0  0  0  0  0  0
   -0.7372    0.6782    0.9461 H   0  0  0  0  0  0  0  0  0  0  0  0
    0.6341   -0.9160    0.5018 C   0  0  0  0  0  0  0  0  0  0  0  0
    0.6886   -1.7857   -0.1546 H   0  0  0  0  0  0  0  0  0  0  0  0
    1.5103   -0.2980    0.3013 H   0  0  0  0  0  0  0  0  0  0  0  0
    0.6907   -1.4220    1.9227 C   0  0  0  0  0  0  0  0  0  0  0  0
    0.9640   -0.6525    3.0543 N   0  0  0  0  0  0  0  0  0  0  0  0
    0.8653   -1.4859    4.1002 C   0  0  0  0  0  0  0  0  0  0  0  0
    1.0321   -1.1981    5.1306 H   0  0  0  0  0  0  0  0  0  0  0  0
    0.5228   -2.7180    3.6880 N   0  0  0  0  0  0  0  0  0  0  0  0
    0.3681   -3.5155    4.2895 H   0  0  0  0  0  0  0  0  0  0  0  0
    0.4040   -2.6965    2.3161 C   0  0  0  0  0  0  0  0  0  0  0  0
    0.1194   -3.5128    1.6642 H   0  0  0  0  0  0  0  0  0  0  0  0
   -0.6131    0.5544   -1.1835 C   0  0  0  0  0  0  0  0  0  0  0  0
   -0.3581    1.7548   -1.2810 O   0  0  0  0  0  0  0  0  0  0  0  0
   -0.8577   -0.2135   -2.2500 N   0  0  0  0  0  0  0  0  0  0  0  0
   -1.1625   -1.1639   -2.0718 H   0  0  0  0  0  0  0  0  0  0  0  0
   -0.8512    0.2547   -3.6339 C   0  0  0  0  0  0  0  0  0  0  0  0
   -0.0787    1.0160   -3.7691 H   0  0  0  0  0  0  0  0  0  0  0  0
   -0.6513   -0.5803   -4.3070 H   0  0  0  0  0  0  0  0  0  0  0  0
   -1.8217    0.6906   -3.8766 H   0  0  0  0  0  0  0  0  0  0  0  0
  5  6  2  0  0  0  0
  5  7  1  0  0  0  0
  2  3  1  0  0  0  0
  2  4  1  0  0  0  0
  2  5  1  0  0  0  0
  1  2  1  0  0  0  0
 22 23  2  0  0  0  0
 22 24  1  0  0  0  0
 20 21  1  0  0  0  0
 18 19  1  0  0  0  0
 18 20  1  0  0  0  0
 16 17  1  0  0  0  0
 16 18  1  0  0  0  0
 15 16  2  0  0  0  0
 14 15  1  0  0  0  0
 14 20  2  0  0  0  0
 11 12  1  0  0  0  0
 11 13  1  0  0  0  0
 11 14  1  0  0  0  0
  9 10  1  0  0  0  0
  9 11  1  0  0  0  0
  9 22  1  0  0  0  0
  7  8  1  0  0  0  0
  7  9  1  0  0  0  0
 26 27  1  0  0  0  0
 26 28  1  0  0  0  0
 26 29  1  0  0  0  0
 24 25  1  0  0  0  0
 24 26  1  0  0  0  0
M  END
$$$$
default_name
  -OEChem-01062215323D

 29 29  0     1  0  0  0  0  0999 V2000
   -2.9561   -3.9186    1.3887 H   0  0  0  0  0  0  0  0  0  0  0  0
   -3.1191   -2.9346    0.9517 C   0  0  0  0  0  0  0  0  0  0  0  0
   -3.7811   -2.3546    1.5917 H   0  0  0  0  0  0  0  0  0  0  0  0
   -3.5591   -3.0406   -0.0383 H   0  0  0  0  0  0  0  0  0  0  0  0
   -1.7921   -2.2226    0.8327 C   0  0  0  0  0  0  0  0  0  0  0  0
   -0.7611   -2.7766    1.1927 O   0  0  0  0  0  0  0  0  0  0  0  0
   -1.8201   -0.9926    0.3247 N   0  0  0  0  0  0  0  0  0  0  0  0
   -2.7141   -0.5816    0.0927 H   0  0  0  0  0  0  0  0  0  0  0  0
   -0.6481   -0.1156    0.2017 C   0  0  1  0  0  0  0  0  0  0  0  0
   -0.7372    0.6782    0.9461 H   0  0  0  0  0  0  0  0  0  0  0  0
    0.6341   -0.9160    0.5018 C   0  0  0  0  0  0  0  0  0  0  0  0
    0.6886   -1.7857   -0.1546 H   0  0  0  0  0  0  0  0  0  0  0  0
    1.5103   -0.2980    0.3013 H   0  0  0  0  0  0  0  0  0  0  0  0
    0.6907   -1.4220    1.9227 C   0  0  0  0  0  0  0  0  0  0  0  0
    0.9640   -0.6525    3.0543 N   0  0  0  0  0  0  0  0  0  0  0  0
    0.8653   -1.4859    4.1002 C   0  0  0  0  0  0  0  0  0  0  0  0
    1.0321   -1.1981    5.1306 H   0  0  0  0  0  0  0  0  0  0  0  0
    0.5228   -2.7180    3.6880 N   0  0  0  0  0  0  0  0  0  0  0  0
    0.3681   -3.5155    4.2895 H   0  0  0  0  0  0  0  0  0  0  0  0
    0.4040   -2.6965    2.3161 C   0  0  0  0  0  0  0  0  0  0  0  0
    0.1194   -3.5128    1.6642 H   0  0  0  0  0  0  0  0  0  0  0  0
   -0.6131    0.5544   -1.1835 C   0  0  0  0  0  0  0  0  0  0  0  0
   -0.0977    1.6642   -1.3182 O   0  0  0  0  0  0  0  0  0  0  0  0
   -1.1479   -0.1149   -2.2096 N   0  0  0  0  0  0  0  0  0  0  0  0
   -1.6441   -0.9716   -1.9909 H   0  0  0  0  0  0  0  0  0  0  0  0
   -1.1874    0.3655   -3.5888 C   0  0  0  0  0  0  0  0  0  0  0  0
   -0.2788    0.9287   -3.8164 H   0  0  0  0  0  0  0  0  0  0  0  0
   -1.2644   -0.4800   -4.2740 H   0  0  0  0  0  0  0  0  0  0  0  0
   -2.0504    1.0198   -3.7231 H   0  0  0  0  0  0  0  0  0  0  0  0
  5  6  2  0  0  0  0
  5  7  1  0  0  0  0
  2  3  1  0  0  0  0
  2  4  1  0  0  0  0
  2  5  1  0  0  0  0
  1  2  1  0  0  0  0
 22 23  2  0  0  0  0
 22 24  1  0  0  0  0
 20 21  1  0  0  0  0
 18 19  1  0  0  0  0
 18 20  1  0  0  0  0
 16 17  1  0  0  0  0
 16 18  1  0  0  0  0
 15 16  2  0  0  0  0
 14 15  1  0  0  0  0
 14 20  2  0  0  0  0
 11 12  1  0  0  0  0
 11 13  1  0  0  0  0
 11 14  1  0  0  0  0
  9 10  1  0  0  0  0
  9 11  1  0  0  0  0
  9 22  1  0  0  0  0
  7  8  1  0  0  0  0
  7  9  1  0  0  0  0
 26 27  1  0  0  0  0
 26 28  1  0  0  0  0
 26 29  1  0  0  0  0
 24 25  1  0  0  0  0
 24 26  1  0  0  0  0
M  END
$$$$
default_name
  -OEChem-01062215323D

 29 29  0     1  0  0  0  0  0999 V2000
   -2.9561   -3.9186    1.3887 H   0  0  0  0  0  0  0  0  0  0  0  0
   -3.1191   -2.9346    0.9517 C   0  0  0  0  0  0  0  0  0  0  0  0
   -3.7811   -2.3546    1.5917 H   0  0  0  0  0  0  0  0  0  0  0  0
   -3.5591   -3.0406   -0.0383 H   0  0  0  0  0  0  0  0  0  0  0  0
   -1.7921   -2.2226    0.8327 C   0  0  0  0  0  0  0  0  0  0  0  0
   -0.7611   -2.7766    1.1927 O   0  0  0  0  0  0  0  0  0  0  0  0
   -1.8201   -0.9926    0.3247 N   0  0  0  0  0  0  0  0  0  0  0  0
   -2.7141   -0.5816    0.0927 H   0  0  0  0  0  0  0  0  0  0  0  0
   -0.6481   -0.1156    0.2017 C   0  0  1  0  0  0  0  0  0  0  0  0
   -0.7372    0.6782    0.9461 H   0  0  0  0  0  0  0  0  0  0  0  0
    0.6341   -0.9160    0.5018 C   0  0  0  0  0  0  0  0  0  0  0  0
    0.6886   -1.7857   -0.1546 H   0  0  0  0  0  0  0  0  0  0  0  0
    1.5103   -0.2980    0.3013 H   0  0  0  0  0  0  0  0  0  0  0  0
    0.6907   -1.4220    1.9227 C   0  0  0  0  0  0  0  0  0  0  0  0
    0.9640   -0.6525    3.0543 N   0  0  0  0  0  0  0  0  0  0  0  0
    0.8653   -1.4859    4.1002 C   0  0  0  0  0  0  0  0  0  0  0  0
    1.0321   -1.1981    5.1306 H   0  0  0  0  0  0  0  0  0  0  0  0
    0.5228   -2.7180    3.6880 N   0  0  0  0  0  0  0  0  0  0  0  0
    0.3681   -3.5155    4.2895 H   0  0  0  0  0  0  0  0  0  0  0  0
    0.4040   -2.6965    2.3161 C   0  0  0  0  0  0  0  0  0  0  0  0
    0.1194   -3.5128    1.6642 H   0  0  0  0  0  0  0  0  0  0  0  0
   -0.6131    0.5544   -1.1835 C   0  0  0  0  0  0  0  0  0  0  0  0
    0.1286    1.5163   -1.3840 O   0  0  0  0  0  0  0  0  0  0  0  0
   -1.4007    0.0477   -2.1373 N   0  0  0  0  0  0  0  0  0  0  0  0
   -2.0554   -0.6741   -1.8574 H   0  0  0  0  0  0  0  0  0  0  0  0
   -1.4813    0.5505   -3.5067 C   0  0  0  0  0  0  0  0  0  0  0  0
   -0.4976    0.8912   -3.8401 H   0  0  0  0  0  0  0  0  0  0  0  0
   -1.8295   -0.2405   -4.1724 H   0  0  0  0  0  0  0  0  0  0  0  0
   -2.1772    1.3901   -3.5472 H   0  0  0  0  0  0  0  0  0  0  0  0
  5  6  2  0  0  0  0
  5  7  1  0  0  0  0
  2  3  1  0  0  0  0
  2  4  1  0  0  0  0
  2  5  1  0  0  0  0
  1  2  1  0  0  0  0
 22 23  2  0  0  0  0
 22 24  1  0  0  0  0
 20 21  1  0  0  0  0
 18 19  1  0  0  0  0
 18 20  1  0  0  0  0
 16 17  1  0  0  0  0
 16 18  1  0  0  0  0
 15 16  2  0  0  0  0
 14 15  1  0  0  0  0
 14 20  2  0  0  0  0
 11 12  1  0  0  0  0
 11 13  1  0  0  0  0
 11 14  1  0  0  0  0
  9 10  1  0  0  0  0
  9 11  1  0  0  0  0
  9 22  1  0  0  0  0
  7  8  1  0  0  0  0
  7  9  1  0  0  0  0
 26 27  1  0  0  0  0
 26 28  1  0  0  0  0
 26 29  1  0  0  0  0
 24 25  1  0  0  0  0
 24 26  1  0  0  0  0
M  END
$$$$
default_name
  -OEChem-01062215323D

 29 29  0     1  0  0  0  0  0999 V2000
   -2.9561   -3.9186    1.3887 H   0  0  0  0  0  0  0  0  0  0  0  0
   -3.1191   -2.9346    0.9517 C   0  0  0  0  0  0  0  0  0  0  0  0
   -3.7811   -2.3546    1.5917 H   0  0  0  0  0  0  0  0  0  0  0  0
   -3.5591   -3.0406   -0.0383 H   0  0  0  0  0  0  0  0  0  0  0  0
   -1.7921   -2.2226    0.8327 C   0  0  0  0  0  0  0  0  0  0  0  0
   -0.7611   -2.7766    1.1927 O   0  0  0  0  0  0  0  0  0  0  0  0
   -1.8201   -0.9926    0.3247 N   0  0  0  0  0  0  0  0  0  0  0  0
   -2.7141   -0.5816    0.0927 H   0  0  0  0  0  0  0  0  0  0  0  0
   -0.6481   -0.1156    0.2017 C   0  0  1  0  0  0  0  0  0  0  0  0
   -0.7372    0.6782    0.9461 H   0  0  0  0  0  0  0  0  0  0  0  0
    0.6341   -0.9160    0.5018 C   0  0  0  0  0  0  0  0  0  0  0  0
    0.6886   -1.7857   -0.1546 H   0  0  0  0  0  0  0  0  0  0  0  0
    1.5103   -0.2980    0.3013 H   0  0  0  0  0  0  0  0  0  0  0  0
    0.6907   -1.4220    1.9227 C   0  0  0  0  0  0  0  0  0  0  0  0
    0.9640   -0.6525    3.0543 N   0  0  0  0  0  0  0  0  0  0  0  0
    0.8653   -1.4859    4.1002 C   0  0  0  0  0  0  0  0  0  0  0  0
    1.0321   -1.1981    5.1306 H   0  0  0  0  0  0  0  0  0  0  0  0
    0.5228   -2.7180    3.6880 N   0  0  0  0  0  0  0  0  0  0  0  0
    0.3681   -3.5155    4.2895 H   0  0  0  0  0  0  0  0  0  0  0  0
    0.4040   -2.6965    2.3161 C   0  0  0  0  0  0  0  0  0  0  0  0
    0.1194   -3.5128    1.6642 H   0  0  0  0  0  0  0  0  0  0  0  0
   -0.6131    0.5544   -1.1835 C   0  0  0  0  0  0  0  0  0  0  0  0
    0.3052    1.3210   -1.4740 O   0  0  0  0  0  0  0  0  0  0  0  0
   -1.5989    0.2632   -2.0381 N   0  0  0  0  0  0  0  0  0  0  0  0
   -2.3683   -0.2917   -1.6804 H   0  0  0  0  0  0  0  0  0  0  0  0
   -1.7127    0.7973   -3.3932 C   0  0  0  0  0  0  0  0  0  0  0  0
   -0.7205    0.9062   -3.8385 H   0  0  0  0  0  0  0  0  0  0  0  0
   -2.3082    0.1219   -4.0092 H   0  0  0  0  0  0  0  0  0  0  0  0
   -2.1937    1.7763   -3.3608 H   0  0  0  0  0  0  0  0  0  0  0  0
  5  6  2  0  0  0  0
  5  7  1  0  0  0  0
  2  3  1  0  0  0  0
  2  4  1  0  0  0  0
  2  5  1  0  0  0  0
  1  2  1  0  0  0  0
 22 23  2  0  0  0  0
 22 24  1  0  0  0  0
 20 21  1  0  0  0  0
 18 19  1  0  0  0  0
 18 20  1  0  0  0  0
 16 17  1  0  0  0  0
 16 18  1  0  0  0  0
 15 16  2  0  0  0  0
 14 15  1  0  0  0  0
 14 20  2  0  0  0  0
 11 12  1  0  0  0  0
 11 13  1  0  0  0  0
 11 14  1  0  0  0  0
  9 10  1  0  0  0  0
  9 11  1  0  0  0  0
  9 22  1  0  0  0  0
  7  8  1  0  0  0  0
  7  9  1  0  0  0  0
 26 27  1  0  0  0  0
 26 28  1  0  0  0  0
 26 29  1  0  0  0  0
 24 25  1  0  0  0  0
 24 26  1  0  0  0  0
M  END
$$$$
default_name
  -OEChem-01062215323D

 29 29  0     1  0  0  0  0  0999 V2000
   -2.9561   -3.9186    1.3887 H   0  0  0  0  0  0  0  0  0  0  0  0
   -3.1191   -2.9346    0.9517 C   0  0  0  0  0  0  0  0  0  0  0  0
   -3.7811   -2.3546    1.5917 H   0  0  0  0  0  0  0  0  0  0  0  0
   -3.5591   -3.0406   -0.0383 H   0  0  0  0  0  0  0  0  0  0  0  0
   -1.7921   -2.2226    0.8327 C   0  0  0  0  0  0  0  0  0  0  0  0
   -0.7611   -2.7766    1.1927 O   0  0  0  0  0  0  0  0  0  0  0  0
   -1.8201   -0.9926    0.3247 N   0  0  0  0  0  0  0  0  0  0  0  0
   -2.7141   -0.5816    0.0927 H   0  0  0  0  0  0  0  0  0  0  0  0
   -0.6481   -0.1156    0.2017 C   0  0  1  0  0  0  0  0  0  0  0  0
   -0.7372    0.6782    0.9461 H   0  0  0  0  0  0  0  0  0  0  0  0
    0.6341   -0.9160    0.5018 C   0  0  0  0  0  0  0  0  0  0  0  0
    0.6886   -1.7857   -0.1546 H   0  0  0  0  0  0  0  0  0  0  0  0
    1.5103   -0.2980    0.3013 H   0  0  0  0  0  0  0  0  0  0  0  0
    0.6907   -1.4220    1.9227 C   0  0  0  0  0  0  0  0  0  0  0  0
    0.9640   -0.6525    3.0543 N   0  0  0  0  0  0  0  0  0  0  0  0
    0.8653   -1.4859    4.1002 C   0  0  0  0  0  0  0  0  0  0  0  0
    1.0321   -1.1981    5.1306 H   0  0  0  0  0  0  0  0  0  0  0  0
    0.5228   -2.7180    3.6880 N   0  0  0  0  0  0  0  0  0  0  0  0
    0.3681   -3.5155    4.2895 H   0  0  0  0  0  0  0  0  0  0  0  0
    0.4040   -2.6965    2.3161 C   0  0  0  0  0  0  0  0  0  0  0  0
    0.1194   -3.5128    1.6642 H   0  0  0  0  0  0  0  0  0  0  0  0
   -0.6131    0.5544   -1.1835 C   0  0  0  0  0  0  0  0  0  0  0  0
    0.4202    1.0918   -1.5819 O   0  0  0  0  0  0  0  0  0  0  0  0
   -1.7290    0.5170   -1.9186 N   0  0  0  0  0  0  0  0  0  0  0  0
   -2.5616    0.1494   -1.4719 H   0  0  0  0  0  0  0  0  0  0  0  0
   -1.8661    1.0888   -3.2561 C   0  0  0  0  0  0  0  0  0  0  0  0
   -0.9320    0.9725   -3.8117 H   0  0  0  0  0  0  0  0  0  0  0  0
   -2.6678    0.5825   -3.7955 H   0  0  0  0  0  0  0  0  0  0  0  0
   -2.0986    2.1520   -3.1767 H   0  0  0  0  0  0  0  0  0  0  0  0
  5  6  2  0  0  0  0
  5  7  1  0  0  0  0
  2  3  1  0  0  0  0
  2  4  1  0  0  0  0
  2  5  1  0  0  0  0
  1  2  1  0  0  0  0
 22 23  2  0  0  0  0
 22 24  1  0  0  0  0
 20 21  1  0  0  0  0
 18 19  1  0  0  0  0
 18 20  1  0  0  0  0
 16 17  1  0  0  0  0
 16 18  1  0  0  0  0
 15 16  2  0  0  0  0
 14 15  1  0  0  0  0
 14 20  2  0  0  0  0
 11 12  1  0  0  0  0
 11 13  1  0  0  0  0
 11 14  1  0  0  0  0
  9 10  1  0  0  0  0
  9 11  1  0  0  0  0
  9 22  1  0  0  0  0
  7  8  1  0  0  0  0
  7  9  1  0  0  0  0
 26 27  1  0  0  0  0
 26 28  1  0  0  0  0
 26 29  1  0  0  0  0
 24 25  1  0  0  0  0
 24 26  1  0  0  0  0
M  END
$$$$
default_name
  -OEChem-01062215323D

 29 29  0     1  0  0  0  0  0999 V2000
   -2.9561   -3.9186    1.3887 H   0  0  0  0  0  0  0  0  0  0  0  0
   -3.1191   -2.9346    0.9517 C   0  0  0  0  0  0  0  0  0  0  0  0
   -3.7811   -2.3546    1.5917 H   0  0  0  0  0  0  0  0  0  0  0  0
   -3.5591   -3.0406   -0.0383 H   0  0  0  0  0  0  0  0  0  0  0  0
   -1.7921   -2.2226    0.8327 C   0  0  0  0  0  0  0  0  0  0  0  0
   -0.7611   -2.7766    1.1927 O   0  0  0  0  0  0  0  0  0  0  0  0
   -1.8201   -0.9926    0.3247 N   0  0  0  0  0  0  0  0  0  0  0  0
   -2.7141   -0.5816    0.0927 H   0  0  0  0  0  0  0  0  0  0  0  0
   -0.6481   -0.1156    0.2017 C   0  0  1  0  0  0  0  0  0  0  0  0
   -0.7372    0.6782    0.9461 H   0  0  0  0  0  0  0  0  0  0  0  0
    0.6341   -0.9160    0.5018 C   0  0  0  0  0  0  0  0  0  0  0  0
    0.6886   -1.7857   -0.1546 H   0  0  0  0  0  0  0  0  0  0  0  0
    1.5103   -0.2980    0.3013 H   0  0  0  0  0  0  0  0  0  0  0  0
    0.6907   -1.4220    1.9227 C   0  0  0  0  0  0  0  0  0  0  0  0
    0.9640   -0.6525    3.0543 N   0  0  0  0  0  0  0  0  0  0  0  0
    0.8653   -1.4859    4.1002 C   0  0  0  0  0  0  0  0  0  0  0  0
    1.0321   -1.1981    5.1306 H   0  0  0  0  0  0  0  0  0  0  0  0
    0.5228   -2.7180    3.6880 N   0  0  0  0  0  0  0  0  0  0  0  0
    0.3681   -3.5155    4.2895 H   0  0  0  0  0  0  0  0  0  0  0  0
    0.4040   -2.6965    2.3161 C   0  0  0  0  0  0  0  0  0  0  0  0
    0.1194   -3.5128    1.6642 H   0  0  0  0  0  0  0  0  0  0  0  0
   -0.6131    0.5544   -1.1835 C   0  0  0  0  0  0  0  0  0  0  0  0
    0.4658    0.8443   -1.7005 O   0  0  0  0  0  0  0  0  0  0  0  0
   -1.7820    0.7917   -1.7871 N   0  0  0  0  0  0  0  0  0  0  0  0
   -2.6220    0.6194   -1.2461 H   0  0  0  0  0  0  0  0  0  0  0  0
   -1.9308    1.4054   -3.1046 C   0  0  0  0  0  0  0  0  0  0  0  0
   -1.1179    1.0857   -3.7617 H   0  0  0  0  0  0  0  0  0  0  0  0
   -2.8837    1.1099   -3.5459 H   0  0  0  0  0  0  0  0  0  0  0  0
   -1.8985    2.4918   -3.0073 H   0  0  0  0  0  0  0  0  0  0  0  0
  5  6  2  0  0  0  0
  5  7  1  0  0  0  0
  2  3  1  0  0  0  0
  2  4  1  0  0  0  0
  2  5  1  0  0  0  0
  1  2  1  0  0  0  0
 22 23  2  0  0  0  0
 22 24  1  0  0  0  0
 20 21  1  0  0  0  0
 18 19  1  0  0  0  0
 18 20  1  0  0  0  0
 16 17  1  0  0  0  0
 16 18  1  0  0  0  0
 15 16  2  0  0  0  0
 14 15  1  0  0  0  0
 14 20  2  0  0  0  0
 11 12  1  0  0  0  0
 11 13  1  0  0  0  0
 11 14  1  0  0  0  0
  9 10  1  0  0  0  0
  9 11  1  0  0  0  0
  9 22  1  0  0  0  0
  7  8  1  0  0  0  0
  7  9  1  0  0  0  0
 26 27  1  0  0  0  0
 26 28  1  0  0  0  0
 26 29  1  0  0  0  0
 24 25  1  0  0  0  0
 24 26  1  0  0  0  0
M  END
$$$$
default_name
  -OEChem-01062215323D

 29 29  0     1  0  0  0  0  0999 V2000
   -2.9561   -3.9186    1.3887 H   0  0  0  0  0  0  0  0  0  0  0  0
   -3.1191   -2.9346    0.9517 C   0  0  0  0  0  0  0  0  0  0  0  0
   -3.7811   -2.3546    1.5917 H   0  0  0  0  0  0  0  0  0  0  0  0
   -3.5591   -3.0406   -0.0383 H   0  0  0  0  0  0  0  0  0  0  0  0
   -1.7921   -2.2226    0.8327 C   0  0  0  0  0  0  0  0  0  0  0  0
   -0.7611   -2.7766    1.1927 O   0  0  0  0  0  0  0  0  0  0  0  0
   -1.8201   -0.9926    0.3247 N   0  0  0  0  0  0  0  0  0  0  0  0
   -2.7141   -0.5816    0.0927 H   0  0  0  0  0  0  0  0  0  0  0  0
   -0.6481   -0.1156    0.2017 C   0  0  1  0  0  0  0  0  0  0  0  0
   -0.7372    0.6782    0.9461 H   0  0  0  0  0  0  0  0  0  0  0  0
    0.6341   -0.9160    0.5018 C   0  0  0  0  0  0  0  0  0  0  0  0
    0.6886   -1.7857   -0.1546 H   0  0  0  0  0  0  0  0  0  0  0  0
    1.5103   -0.2980    0.3013 H   0  0  0  0  0  0  0  0  0  0  0  0
    0.6907   -1.4220    1.9227 C   0  0  0  0  0  0  0  0  0  0  0  0
    0.9640   -0.6525    3.0543 N   0  0  0  0  0  0  0  0  0  0  0  0
    0.8653   -1.4859    4.1002 C   0  0  0  0  0  0  0  0  0  0  0  0
    1.0321   -1.1981    5.1306 H   0  0  0  0  0  0  0  0  0  0  0  0
    0.5228   -2.7180    3.6880 N   0  0  0  0  0  0  0  0  0  0  0  0
    0.3681   -3.5155    4.2895 H   0  0  0  0  0  0  0  0  0  0  0  0
    0.4040   -2.6965    2.3161 C   0  0  0  0  0  0  0  0  0  0  0  0
    0.1194   -3.5128    1.6642 H   0  0  0  0  0  0  0  0  0  0  0  0
   -0.6131    0.5544   -1.1835 C   0  0  0  0  0  0  0  0  0  0  0  0
    0.4388    0.5953   -1.8217 O   0  0  0  0  0  0  0  0  0  0  0  0
   -1.7544    1.0686   -1.6524 N   0  0  0  0  0  0  0  0  0  0  0  0
   -2.5454    1.0860   -1.0185 H   0  0  0  0  0  0  0  0  0  0  0  0
   -1.9025    1.7253   -2.9491 C   0  0  0  0  0  0  0  0  0  0  0  0
   -1.2655    1.2380   -3.6917 H   0  0  0  0  0  0  0  0  0  0  0  0
   -2.9413    1.6681   -3.2773 H   0  0  0  0  0  0  0  0  0  0  0  0
   -1.6070    2.7723   -2.8642 H   0  0  0  0  0  0  0  0  0  0  0  0
  5  6  2  0  0  0  0
  5  7  1  0  0  0  0
  2  3  1  0  0  0  0
  2  4  1  0  0  0  0
  2  5  1  0  0  0  0
  1  2  1  0  0  0  0
 22 23  2  0  0  0  0
 22 24  1  0  0  0  0
 20 21  1  0  0  0  0
 18 19  1  0  0  0  0
 18 20  1  0  0  0  0
 16 17  1  0  0  0  0
 16 18  1  0  0  0  0
 15 16  2  0  0  0  0
 14 15  1  0  0  0  0
 14 20  2  0  0  0  0
 11 12  1  0  0  0  0
 11 13  1  0  0  0  0
 11 14  1  0  0  0  0
  9 10  1  0  0  0  0
  9 11  1  0  0  0  0
  9 22  1  0  0  0  0
  7  8  1  0  0  0  0
  7  9  1  0  0  0  0
 26 27  1  0  0  0  0
 26 28  1  0  0  0  0
 26 29  1  0  0  0  0
 24 25  1  0  0  0  0
 24 26  1  0  0  0  0
M  END
$$$$
default_name
  -OEChem-01062215323D

 29 29  0     1  0  0  0  0  0999 V2000
   -2.9561   -3.9186    1.3887 H   0  0  0  0  0  0  0  0  0  0  0  0
   -3.1191   -2.9346    0.9517 C   0  0  0  0  0  0  0  0  0  0  0  0
   -3.7811   -2.3546    1.5917 H   0  0  0  0  0  0  0  0  0  0  0  0
   -3.5591   -3.0406   -0.0383 H   0  0  0  0  0  0  0  0  0  0  0  0
   -1.7921   -2.2226    0.8327 C   0  0  0  0  0  0  0  0  0  0  0  0
   -0.7611   -2.7766    1.1927 O   0  0  0  0  0  0  0  0  0  0  0  0
   -1.8201   -0.9926    0.3247 N   0  0  0  0  0  0  0  0  0  0  0  0
   -2.7141   -0.5816    0.0927 H   0  0  0  0  0  0  0  0  0  0  0  0
   -0.6481   -0.1156    0.2017 C   0  0  1  0  0  0  0  0  0  0  0  0
   -0.7372    0.6782    0.9461 H   0  0  0  0  0  0  0  0  0  0  0  0
    0.6341   -0.9160    0.5018 C   0  0  0  0  0  0  0  0  0  0  0  0
    0.6886   -1.7857   -0.1546 H   0  0  0  0  0  0  0  0  0  0  0  0
    1.5103   -0.2980    0.3013 H   0  0  0  0  0  0  0  0  0  0  0  0
    0.6907   -1.4220    1.9227 C   0  0  0  0  0  0  0  0  0  0  0  0
    0.9640   -0.6525    3.0543 N   0  0  0  0  0  0  0  0  0  0  0  0
    0.8653   -1.4859    4.1002 C   0  0  0  0  0  0  0  0  0  0  0  0
    1.0321   -1.1981    5.1306 H   0  0  0  0  0  0  0  0  0  0  0  0
    0.5228   -2.7180    3.6880 N   0  0  0  0  0  0  0  0  0  0  0  0
    0.3681   -3.5155    4.2895 H   0  0  0  0  0  0  0  0  0  0  0  0
    0.4040   -2.6965    2.3161 C   0  0  0  0  0  0  0  0  0  0  0  0
    0.1194   -3.5128    1.6642 H   0  0  0  0  0  0  0  0  0  0  0  0
   -0.6131    0.5544   -1.1835 C   0  0  0  0  0  0  0  0  0  0  0  0
    0.3410    0.3618   -1.9371 O   0  0  0  0  0  0  0  0  0  0  0  0
   -1.6481    1.3289   -1.5239 N   0  0  0  0  0  0  0  0  0  0  0  0
   -2.3371    1.5176   -0.8044 H   0  0  0  0  0  0  0  0  0  0  0  0
   -1.7832    2.0269   -2.8003 C   0  0  0  0  0  0  0  0  0  0  0  0
   -1.3646    1.4191   -3.6066 H   0  0  0  0  0  0  0  0  0  0  0  0
   -2.8367    2.2192   -3.0082 H   0  0  0  0  0  0  0  0  0  0  0  0
   -1.2440    2.9746   -2.7572 H   0  0  0  0  0  0  0  0  0  0  0  0
  5  6  2  0  0  0  0
  5  7  1  0  0  0  0
  2  3  1  0  0  0  0
  2  4  1  0  0  0  0
  2  5  1  0  0  0  0
  1  2  1  0  0  0  0
 22 23  2  0  0  0  0
 22 24  1  0  0  0  0
 20 21  1  0  0  0  0
 18 19  1  0  0  0  0
 18 20  1  0  0  0  0
 16 17  1  0  0  0  0
 16 18  1  0  0  0  0
 15 16  2  0  0  0  0
 14 15  1  0  0  0  0
 14 20  2  0  0  0  0
 11 12  1  0  0  0  0
 11 13  1  0  0  0  0
 11 14  1  0  0  0  0
  9 10  1  0  0  0  0
  9 11  1  0  0  0  0
  9 22  1  0  0  0  0
  7  8  1  0  0  0  0
  7  9  1  0  0  0  0
 26 27  1  0  0  0  0
 26 28  1  0  0  0  0
 26 29  1  0  0  0  0
 24 25  1  0  0  0  0
 24 26  1  0  0  0  0
M  END
$$$$
default_name
  -OEChem-01062215323D

 29 29  0     1  0  0  0  0  0999 V2000
   -2.9561   -3.9186    1.3887 H   0  0  0  0  0  0  0  0  0  0  0  0
   -3.1191   -2.9346    0.9517 C   0  0  0  0  0  0  0  0  0  0  0  0
   -3.7811   -2.3546    1.5917 H   0  0  0  0  0  0  0  0  0  0  0  0
   -3.5591   -3.0406   -0.0383 H   0  0  0  0  0  0  0  0  0  0  0  0
   -1.7921   -2.2226    0.8327 C   0  0  0  0  0  0  0  0  0  0  0  0
   -0.7611   -2.7766    1.1927 O   0  0  0  0  0  0  0  0  0  0  0  0
   -1.8201   -0.9926    0.3247 N   0  0  0  0  0  0  0  0  0  0  0  0
   -2.7141   -0.5816    0.0927 H   0  0  0  0  0  0  0  0  0  0  0  0
   -0.6481   -0.1156    0.2017 C   0  0  1  0  0  0  0  0  0  0  0  0
   -0.7372    0.6782    0.9461 H   0  0  0  0  0  0  0  0  0  0  0  0
    0.6341   -0.9160    0.5018 C   0  0  0  0  0  0  0  0  0  0  0  0
    0.6886   -1.7857   -0.1546 H   0  0  0  0  0  0  0  0  0  0  0  0
    1.5103   -0.2980    0.3013 H   0  0  0  0  0  0  0  0  0  0  0  0
    0.6907   -1.4220    1.9227 C   0  0  0  0  0  0  0  0  0  0  0  0
    0.9640   -0.6525    3.0543 N   0  0  0  0  0  0  0  0  0  0  0  0
    0.8653   -1.4859    4.1002 C   0  0  0  0  0  0  0  0  0  0  0  0
    1.0321   -1.1981    5.1306 H   0  0  0  0  0  0  0  0  0  0  0  0
    0.5228   -2.7180    3.6880 N   0  0  0  0  0  0  0  0  0  0  0  0
    0.3681   -3.5155    4.2895 H   0  0  0  0  0  0  0  0  0  0  0  0
    0.4040   -2.6965    2.3161 C   0  0  0  0  0  0  0  0  0  0  0  0
    0.1194   -3.5128    1.6642 H   0  0  0  0  0  0  0  0  0  0  0  0
   -0.6131    0.5544   -1.1835 C   0  0  0  0  0  0  0  0  0  0  0  0
    0.1792    0.1596   -2.0389 O   0  0  0  0  0  0  0  0  0  0  0  0
   -1.4703    1.5548   -1.4101 N   0  0  0  0  0  0  0  0  0  0  0  0
   -2.0113    1.8847   -0.6186 H   0  0  0  0  0  0  0  0  0  0  0  0
   -1.5809    2.2895   -2.6681 C   0  0  0  0  0  0  0  0  0  0  0  0
   -1.4087    1.6167   -3.5122 H   0  0  0  0  0  0  0  0  0  0  0  0
   -2.5770    2.7255   -2.7567 H   0  0  0  0  0  0  0  0  0  0  0  0
   -0.8342    3.0848   -2.6936 H   0  0  0  0  0  0  0  0  0  0  0  0
  5  6  2  0  0  0  0
  5  7  1  0  0  0  0
  2  3  1  0  0  0  0
  2  4  1  0  0  0  0
  2  5  1  0  0  0  0
  1  2  1  0  0  0  0
 22 23  2  0  0  0  0
 22 24  1  0  0  0  0
 20 21  1  0  0  0  0
 18 19  1  0  0  0  0
 18 20  1  0  0  0  0
 16 17  1  0  0  0  0
 16 18  1  0  0  0  0
 15 16  2  0  0  0  0
 14 15  1  0  0  0  0
 14 20  2  0  0  0  0
 11 12  1  0  0  0  0
 11 13  1  0  0  0  0
 11 14  1  0  0  0  0
  9 10  1  0  0  0  0
  9 11  1  0  0  0  0
  9 22  1  0  0  0  0
  7  8  1  0  0  0  0
  7  9  1  0  0  0  0
 26 27  1  0  0  0  0
 26 28  1  0  0  0  0
 26 29  1  0  0  0  0
 24 25  1  0  0  0  0
 24 26  1  0  0  0  0
M  END
$$$$
default_name
  -OEChem-01062215323D

 29 29  0     1  0  0  0  0  0999 V2000
   -2.9561   -3.9186    1.3887 H   0  0  0  0  0  0  0  0  0  0  0  0
   -3.1191   -2.9346    0.9517 C   0  0  0  0  0  0  0  0  0  0  0  0
   -3.7811   -2.3546    1.5917 H   0  0  0  0  0  0  0  0  0  0  0  0
   -3.5591   -3.0406   -0.0383 H   0  0  0  0  0  0  0  0  0  0  0  0
   -1.7921   -2.2226    0.8327 C   0  0  0  0  0  0  0  0  0  0  0  0
   -0.7611   -2.7766    1.1927 O   0  0  0  0  0  0  0  0  0  0  0  0
   -1.8201   -0.9926    0.3247 N   0  0  0  0  0  0  0  0  0  0  0  0
   -2.7141   -0.5816    0.0927 H   0  0  0  0  0  0  0  0  0  0  0  0
   -0.6481   -0.1156    0.2017 C   0  0  1  0  0  0  0  0  0  0  0  0
   -0.7372    0.6782    0.9461 H   0  0  0  0  0  0  0  0  0  0  0  0
    0.6341   -0.9160    0.5018 C   0  0  0  0  0  0  0  0  0  0  0  0
    0.6886   -1.7857   -0.1546 H   0  0  0  0  0  0  0  0  0  0  0  0
    1.5103   -0.2980    0.3013 H   0  0  0  0  0  0  0  0  0  0  0  0
    0.6907   -1.4220    1.9227 C   0  0  0  0  0  0  0  0  0  0  0  0
    0.9640   -0.6525    3.0543 N   0  0  0  0  0  0  0  0  0  0  0  0
    0.8653   -1.4859    4.1002 C   0  0  0  0  0  0  0  0  0  0  0  0
    1.0321   -1.1981    5.1306 H   0  0  0  0  0  0  0  0  0  0  0  0
    0.5228   -2.7180    3.6880 N   0  0  0  0  0  0  0  0  0  0  0  0
    0.3681   -3.5155    4.2895 H   0  0  0  0  0  0  0  0  0  0  0  0
    0.4040   -2.6965    2.3161 C   0  0  0  0  0  0  0  0  0  0  0  0
    0.1194   -3.5128    1.6642 H   0  0  0  0  0  0  0  0  0  0  0  0
   -0.6131    0.5544   -1.1835 C   0  0  0  0  0  0  0  0  0  0  0  0
   -0.0356    0.0027   -2.1203 O   0  0  0  0  0  0  0  0  0  0  0  0
   -1.2331    1.7309   -1.3189 N   0  0  0  0  0  0  0  0  0  0  0  0
   -1.5901    2.1623   -0.4737 H   0  0  0  0  0  0  0  0  0  0  0  0
   -1.3094    2.4952   -2.5618 C   0  0  0  0  0  0  0  0  0  0  0  0
   -1.3945    1.8172   -3.4149 H   0  0  0  0  0  0  0  0  0  0  0  0
   -2.1798    3.1526   -2.5401 H   0  0  0  0  0  0  0  0  0  0  0  0
   -0.4055    3.0954   -2.6776 H   0  0  0  0  0  0  0  0  0  0  0  0
  5  6  2  0  0  0  0
  5  7  1  0  0  0  0
  2  3  1  0  0  0  0
  2  4  1  0  0  0  0
  2  5  1  0  0  0  0
  1  2  1  0  0  0  0
 22 23  2  0  0  0  0
 22 24  1  0  0  0  0
 20 21  1  0  0  0  0
 18 19  1  0  0  0  0
 18 20  1  0  0  0  0
 16 17  1  0  0  0  0
 16 18  1  0  0  0  0
 15 16  2  0  0  0  0
 14 15  1  0  0  0  0
 14 20  2  0  0  0  0
 11 12  1  0  0  0  0
 11 13  1  0  0  0  0
 11 14  1  0  0  0  0
  9 10  1  0  0  0  0
  9 11  1  0  0  0  0
  9 22  1  0  0  0  0
  7  8  1  0  0  0  0
  7  9  1  0  0  0  0
 26 27  1  0  0  0  0
 26 28  1  0  0  0  0
 26 29  1  0  0  0  0
 24 25  1  0  0  0  0
 24 26  1  0  0  0  0
M  END
$$$$
default_name
  -OEChem-01062215323D

 29 29  0     1  0  0  0  0  0999 V2000
   -2.9561   -3.9186    1.3887 H   0  0  0  0  0  0  0  0  0  0  0  0
   -3.1191   -2.9346    0.9517 C   0  0  0  0  0  0  0  0  0  0  0  0
   -3.7811   -2.3546    1.5917 H   0  0  0  0  0  0  0  0  0  0  0  0
   -3.5591   -3.0406   -0.0383 H   0  0  0  0  0  0  0  0  0  0  0  0
   -1.7921   -2.2226    0.8327 C   0  0  0  0  0  0  0  0  0  0  0  0
   -0.7611   -2.7766    1.1927 O   0  0  0  0  0  0  0  0  0  0  0  0
   -1.8201   -0.9926    0.3247 N   0  0  0  0  0  0  0  0  0  0  0  0
   -2.7141   -0.5816    0.0927 H   0  0  0  0  0  0  0  0  0  0  0  0
   -0.6481   -0.1156    0.2017 C   0  0  1  0  0  0  0  0  0  0  0  0
   -0.7372    0.6782    0.9461 H   0  0  0  0  0  0  0  0  0  0  0  0
    0.6341   -0.9160    0.5018 C   0  0  0  0  0  0  0  0  0  0  0  0
    0.6886   -1.7857   -0.1546 H   0  0  0  0  0  0  0  0  0  0  0  0
    1.5103   -0.2980    0.3013 H   0  0  0  0  0  0  0  0  0  0  0  0
    0.6907   -1.4220    1.9227 C   0  0  0  0  0  0  0  0  0  0  0  0
    0.9640   -0.6525    3.0543 N   0  0  0  0  0  0  0  0  0  0  0  0
    0.8653   -1.4859    4.1002 C   0  0  0  0  0  0  0  0  0  0  0  0
    1.0321   -1.1981    5.1306 H   0  0  0  0  0  0  0  0  0  0  0  0
    0.5228   -2.7180    3.6880 N   0  0  0  0  0  0  0  0  0  0  0  0
    0.3681   -3.5155    4.2895 H   0  0  0  0  0  0  0  0  0  0  0  0
    0.4040   -2.6965    2.3161 C   0  0  0  0  0  0  0  0  0  0  0  0
    0.1194   -3.5128    1.6642 H   0  0  0  0  0  0  0  0  0  0  0  0
   -0.6131    0.5544   -1.1835 C   0  0  0  0  0  0  0  0  0  0  0  0
   -0.2889   -0.0984   -2.1756 O   0  0  0  0  0  0  0  0  0  0  0  0
   -0.9527    1.8452   -1.2565 N   0  0  0  0  0  0  0  0  0  0  0  0
   -1.1023    2.3315   -0.3795 H   0  0  0  0  0  0  0  0  0  0  0  0
   -0.9873    2.6301   -2.4884 C   0  0  0  0  0  0  0  0  0  0  0  0
   -1.3232    2.0070   -3.3213 H   0  0  0  0  0  0  0  0  0  0  0  0
   -1.6722    3.4713   -2.3731 H   0  0  0  0  0  0  0  0  0  0  0  0
    0.0129    3.0056   -2.7104 H   0  0  0  0  0  0  0  0  0  0  0  0
  5  6  2  0  0  0  0
  5  7  1  0  0  0  0
  2  3  1  0  0  0  0
  2  4  1  0  0  0  0
  2  5  1  0  0  0  0
  1  2  1  0  0  0  0
 22 23  2  0  0  0  0
 22 24  1  0  0  0  0
 20 21  1  0  0  0  0
 18 19  1  0  0  0  0
 18 20  1  0  0  0  0
 16 17  1  0  0  0  0
 16 18  1  0  0  0  0
 15 16  2  0  0  0  0
 14 15  1  0  0  0  0
 14 20  2  0  0  0  0
 11 12  1  0  0  0  0
 11 13  1  0  0  0  0
 11 14  1  0  0  0  0
  9 10  1  0  0  0  0
  9 11  1  0  0  0  0
  9 22  1  0  0  0  0
  7  8  1  0  0  0  0
  7  9  1  0  0  0  0
 26 27  1  0  0  0  0
 26 28  1  0  0  0  0
 26 29  1  0  0  0  0
 24 25  1  0  0  0  0
 24 26  1  0  0  0  0
M  END
$$$$
default_name
  -OEChem-01062215323D

 29 29  0     1  0  0  0  0  0999 V2000
   -2.9561   -3.9186    1.3887 H   0  0  0  0  0  0  0  0  0  0  0  0
   -3.1191   -2.9346    0.9517 C   0  0  0  0  0  0  0  0  0  0  0  0
   -3.7811   -2.3546    1.5917 H   0  0  0  0  0  0  0  0  0  0  0  0
   -3.5591   -3.0406   -0.0383 H   0  0  0  0  0  0  0  0  0  0  0  0
   -1.7921   -2.2226    0.8327 C   0  0  0  0  0  0  0  0  0  0  0  0
   -0.7611   -2.7766    1.1927 O   0  0  0  0  0  0  0  0  0  0  0  0
   -1.8201   -0.9926    0.3247 N   0  0  0  0  0  0  0  0  0  0  0  0
   -2.7141   -0.5816    0.0927 H   0  0  0  0  0  0  0  0  0  0  0  0
   -0.6481   -0.1156    0.2017 C   0  0  1  0  0  0  0  0  0  0  0  0
   -0.7372    0.6782    0.9461 H   0  0  0  0  0  0  0  0  0  0  0  0
    0.6341   -0.9160    0.5018 C   0  0  0  0  0  0  0  0  0  0  0  0
    0.6886   -1.7857   -0.1546 H   0  0  0  0  0  0  0  0  0  0  0  0
    1.5103   -0.2980    0.3013 H   0  0  0  0  0  0  0  0  0  0  0  0
    0.6907   -1.4220    1.9227 C   0  0  0  0  0  0  0  0  0  0  0  0
    0.9640   -0.6525    3.0543 N   0  0  0  0  0  0  0  0  0  0  0  0
    0.8653   -1.4859    4.1002 C   0  0  0  0  0  0  0  0  0  0  0  0
    1.0321   -1.1981    5.1306 H   0  0  0  0  0  0  0  0  0  0  0  0
    0.5228   -2.7180    3.6880 N   0  0  0  0  0  0  0  0  0  0  0  0
    0.3681   -3.5155    4.2895 H   0  0  0  0  0  0  0  0  0  0  0  0
    0.4040   -2.6965    2.3161 C   0  0  0  0  0  0  0  0  0  0  0  0
    0.1194   -3.5128    1.6642 H   0  0  0  0  0  0  0  0  0  0  0  0
   -0.6131    0.5544   -1.1835 C   0  0  0  0  0  0  0  0  0  0  0  0
   -0.5633   -0.1367   -2.2010 O   0  0  0  0  0  0  0  0  0  0  0  0
   -0.6482    1.8900   -1.2272 N   0  0  0  0  0  0  0  0  0  0  0  0
   -0.5810    2.3807   -0.3426 H   0  0  0  0  0  0  0  0  0  0  0  0
   -0.6365    2.6849   -2.4530 C   0  0  0  0  0  0  0  0  0  0  0  0
   -1.1995    2.1731   -3.2378 H   0  0  0  0  0  0  0  0  0  0  0  0
   -1.0889    3.6600   -2.2671 H   0  0  0  0  0  0  0  0  0  0  0  0
    0.3924    2.8217   -2.7898 H   0  0  0  0  0  0  0  0  0  0  0  0
  5  6  2  0  0  0  0
  5  7  1  0  0  0  0
  2  3  1  0  0  0  0
  2  4  1  0  0  0  0
  2  5  1  0  0  0  0
  1  2  1  0  0  0  0
 22 23  2  0  0  0  0
 22 24  1  0  0  0  0
 20 21  1  0  0  0  0
 18 19  1  0  0  0  0
 18 20  1  0  0  0  0
 16 17  1  0  0  0  0
 16 18  1  0  0  0  0
 15 16  2  0  0  0  0
 14 15  1  0  0  0  0
 14 20  2  0  0  0  0
 11 12  1  0  0  0  0
 11 13  1  0  0  0  0
 11 14  1  0  0  0  0
  9 10  1  0  0  0  0
  9 11  1  0  0  0  0
  9 22  1  0  0  0  0
  7  8  1  0  0  0  0
  7  9  1  0  0  0  0
 26 27  1  0  0  0  0
 26 28  1  0  0  0  0
 26 29  1  0  0  0  0
 24 25  1  0  0  0  0
 24 26  1  0  0  0  0
M  END
$$$$
default_name
  -OEChem-01062215323D

 29 29  0     1  0  0  0  0  0999 V2000
   -2.9561   -3.9186    1.3887 H   0  0  0  0  0  0  0  0  0  0  0  0
   -3.1191   -2.9346    0.9517 C   0  0  0  0  0  0  0  0  0  0  0  0
   -3.7811   -2.3546    1.5917 H   0  0  0  0  0  0  0  0  0  0  0  0
   -3.5591   -3.0406   -0.0383 H   0  0  0  0  0  0  0  0  0  0  0  0
   -1.7921   -2.2226    0.8327 C   0  0  0  0  0  0  0  0  0  0  0  0
   -0.7611   -2.7766    1.1927 O   0  0  0  0  0  0  0  0  0  0  0  0
   -1.8201   -0.9926    0.3247 N   0  0  0  0  0  0  0  0  0  0  0  0
   -2.7141   -0.5816    0.0927 H   0  0  0  0  0  0  0  0  0  0  0  0
   -0.6481   -0.1156    0.2017 C   0  0  1  0  0  0  0  0  0  0  0  0
   -0.7372    0.6782    0.9461 H   0  0  0  0  0  0  0  0  0  0  0  0
    0.6341   -0.9160    0.5018 C   0  0  0  0  0  0  0  0  0  0  0  0
    0.6886   -1.7857   -0.1546 H   0  0  0  0  0  0  0  0  0  0  0  0
    1.5103   -0.2980    0.3013 H   0  0  0  0  0  0  0  0  0  0  0  0
    0.6907   -1.4220    1.9227 C   0  0  0  0  0  0  0  0  0  0  0  0
    0.9640   -0.6525    3.0543 N   0  0  0  0  0  0  0  0  0  0  0  0
    0.8653   -1.4859    4.1002 C   0  0  0  0  0  0  0  0  0  0  0  0
    1.0321   -1.1981    5.1306 H   0  0  0  0  0  0  0  0  0  0  0  0
    0.5228   -2.7180    3.6880 N   0  0  0  0  0  0  0  0  0  0  0  0
    0.3681   -3.5155    4.2895 H   0  0  0  0  0  0  0  0  0  0  0  0
    0.4040   -2.6965    2.3161 C   0  0  0  0  0  0  0  0  0  0  0  0
    0.1194   -3.5128    1.6642 H   0  0  0  0  0  0  0  0  0  0  0  0
   -0.6131    0.5544   -1.1835 C   0  0  0  0  0  0  0  0  0  0  0  0
   -0.8401   -0.1096   -2.1949 O   0  0  0  0  0  0  0  0  0  0  0  0
   -0.3404    1.8621   -1.2329 N   0  0  0  0  0  0  0  0  0  0  0  0
   -0.0619    2.3067   -0.3653 H   0  0  0  0  0  0  0  0  0  0  0  0
   -0.2809    2.6559   -2.4580 C   0  0  0  0  0  0  0  0  0  0  0  0
   -1.0320    2.3044   -3.1701 H   0  0  0  0  0  0  0  0  0  0  0  0
   -0.4696    3.7057   -2.2293 H   0  0  0  0  0  0  0  0  0  0  0  0
    0.7072    2.5561   -2.9103 H   0  0  0  0  0  0  0  0  0  0  0  0
  5  6  2  0  0  0  0
  5  7  1  0  0  0  0
  2  3  1  0  0  0  0
  2  4  1  0  0  0  0
  2  5  1  0  0  0  0
  1  2  1  0  0  0  0
 22 23  2  0  0  0  0
 22 24  1  0  0  0  0
 20 21  1  0  0  0  0
 18 19  1  0  0  0  0
 18 20  1  0  0  0  0
 16 17  1  0  0  0  0
 16 18  1  0  0  0  0
 15 16  2  0  0  0  0
 14 15  1  0  0  0  0
 14 20  2  0  0  0  0
 11 12  1  0  0  0  0
 11 13  1  0  0  0  0
 11 14  1  0  0  0  0
  9 10  1  0  0  0  0
  9 11  1  0  0  0  0
  9 22  1  0  0  0  0
  7  8  1  0  0  0  0
  7  9  1  0  0  0  0
 26 27  1  0  0  0  0
 26 28  1  0  0  0  0
 26 29  1  0  0  0  0
 24 25  1  0  0  0  0
 24 26  1  0  0  0  0
M  END
$$$$
default_name
  -OEChem-01062215323D

 29 29  0     1  0  0  0  0  0999 V2000
   -2.9561   -3.9186    1.3887 H   0  0  0  0  0  0  0  0  0  0  0  0
   -3.1191   -2.9346    0.9517 C   0  0  0  0  0  0  0  0  0  0  0  0
   -3.7811   -2.3546    1.5917 H   0  0  0  0  0  0  0  0  0  0  0  0
   -3.5591   -3.0406   -0.0383 H   0  0  0  0  0  0  0  0  0  0  0  0
   -1.7921   -2.2226    0.8327 C   0  0  0  0  0  0  0  0  0  0  0  0
   -0.7611   -2.7766    1.1927 O   0  0  0  0  0  0  0  0  0  0  0  0
   -1.8201   -0.9926    0.3247 N   0  0  0  0  0  0  0  0  0  0  0  0
   -2.7141   -0.5816    0.0927 H   0  0  0  0  0  0  0  0  0  0  0  0
   -0.6481   -0.1156    0.2017 C   0  0  1  0  0  0  0  0  0  0  0  0
   -0.7372    0.6782    0.9461 H   0  0  0  0  0  0  0  0  0  0  0  0
    0.6341   -0.9160    0.5018 C   0  0  0  0  0  0  0  0  0  0  0  0
    0.6886   -1.7857   -0.1546 H   0  0  0  0  0  0  0  0  0  0  0  0
    1.5103   -0.2980    0.3013 H   0  0  0  0  0  0  0  0  0  0  0  0
    0.6907   -1.4220    1.9227 C   0  0  0  0  0  0  0  0  0  0  0  0
    0.9640   -0.6525    3.0543 N   0  0  0  0  0  0  0  0  0  0  0  0
    0.8653   -1.4859    4.1002 C   0  0  0  0  0  0  0  0  0  0  0  0
    1.0321   -1.1981    5.1306 H   0  0  0  0  0  0  0  0  0  0  0  0
    0.5228   -2.7180    3.6880 N   0  0  0  0  0  0  0  0  0  0  0  0
    0.3681   -3.5155    4.2895 H   0  0  0  0  0  0  0  0  0  0  0  0
    0.4040   -2.6965    2.3161 C   0  0  0  0  0  0  0  0  0  0  0  0
    0.1194   -3.5128    1.6642 H   0  0  0  0  0  0  0  0  0  0  0  0
   -0.6131    0.5544   -1.1835 C   0  0  0  0  0  0  0  0  0  0  0  0
   -1.1006   -0.0190   -2.1577 O   0  0  0  0  0  0  0  0  0  0  0  0
   -0.0501    1.7635   -1.2733 N   0  0  0  0  0  0  0  0  0  0  0  0
    0.4197    2.1143   -0.4461 H   0  0  0  0  0  0  0  0  0  0  0  0
    0.0553    2.5451   -2.5031 C   0  0  0  0  0  0  0  0  0  0  0  0
   -0.8319    2.3917   -3.1228 H   0  0  0  0  0  0  0  0  0  0  0  0
    0.1435    3.6054   -2.2623 H   0  0  0  0  0  0  0  0  0  0  0  0
    0.9358    2.2269   -3.0638 H   0  0  0  0  0  0  0  0  0  0  0  0
  5  6  2  0  0  0  0
  5  7  1  0  0  0  0
  2  3  1  0  0  0  0
  2  4  1  0  0  0  0
  2  5  1  0  0  0  0
  1  2  1  0  0  0  0
 22 23  2  0  0  0  0
 22 24  1  0  0  0  0
 20 21  1  0  0  0  0
 18 19  1  0  0  0  0
 18 20  1  0  0  0  0
 16 17  1  0  0  0  0
 16 18  1  0  0  0  0
 15 16  2  0  0  0  0
 14 15  1  0  0  0  0
 14 20  2  0  0  0  0
 11 12  1  0  0  0  0
 11 13  1  0  0  0  0
 11 14  1  0  0  0  0
  9 10  1  0  0  0  0
  9 11  1  0  0  0  0
  9 22  1  0  0  0  0
  7  8  1  0  0  0  0
  7  9  1  0  0  0  0
 26 27  1  0  0  0  0
 26 28  1  0  0  0  0
 26 29  1  0  0  0  0
 24 25  1  0  0  0  0
 24 26  1  0  0  0  0
M  END
$$$$
default_name
  -OEChem-01062215323D

 29 29  0     1  0  0  0  0  0999 V2000
   -2.9561   -3.9186    1.3887 H   0  0  0  0  0  0  0  0  0  0  0  0
   -3.1191   -2.9346    0.9517 C   0  0  0  0  0  0  0  0  0  0  0  0
   -3.7811   -2.3546    1.5917 H   0  0  0  0  0  0  0  0  0  0  0  0
   -3.5591   -3.0406   -0.0383 H   0  0  0  0  0  0  0  0  0  0  0  0
   -1.7921   -2.2226    0.8327 C   0  0  0  0  0  0  0  0  0  0  0  0
   -0.7611   -2.7766    1.1927 O   0  0  0  0  0  0  0  0  0  0  0  0
   -1.8201   -0.9926    0.3247 N   0  0  0  0  0  0  0  0  0  0  0  0
   -2.7141   -0.5816    0.0927 H   0  0  0  0  0  0  0  0  0  0  0  0
   -0.6481   -0.1156    0.2017 C   0  0  1  0  0  0  0  0  0  0  0  0
   -0.7372    0.6782    0.9461 H   0  0  0  0  0  0  0  0  0  0  0  0
    0.6341   -0.9160    0.5018 C   0  0  0  0  0  0  0  0  0  0  0  0
    0.6886   -1.7857   -0.1546 H   0  0  0  0  0  0  0  0  0  0  0  0
    1.5103   -0.2980    0.3013 H   0  0  0  0  0  0  0  0  0  0  0  0
    0.6907   -1.4220    1.9227 C   0  0  0  0  0  0  0  0  0  0  0  0
    0.9640   -0.6525    3.0543 N   0  0  0  0  0  0  0  0  0  0  0  0
    0.8653   -1.4859    4.1002 C   0  0  0  0  0  0  0  0  0  0  0  0
    1.0321   -1.1981    5.1306 H   0  0  0  0  0  0  0  0  0  0  0  0
    0.5228   -2.7180    3.6880 N   0  0  0  0  0  0  0  0  0  0  0  0
    0.3681   -3.5155    4.2895 H   0  0  0  0  0  0  0  0  0  0  0  0
    0.4040   -2.6965    2.3161 C   0  0  0  0  0  0  0  0  0  0  0  0
    0.1194   -3.5128    1.6642 H   0  0  0  0  0  0  0  0  0  0  0  0
   -0.6131    0.5544   -1.1835 C   0  0  0  0  0  0  0  0  0  0  0  0
   -1.3268    0.1289   -2.0918 O   0  0  0  0  0  0  0  0  0  0  0  0
    0.2027    1.6009   -1.3455 N   0  0  0  0  0  0  0  0  0  0  0  0
    0.8309    1.8168   -0.5796 H   0  0  0  0  0  0  0  0  0  0  0  0
    0.3492    2.3600   -2.5852 C   0  0  0  0  0  0  0  0  0  0  0  0
   -0.6131    2.4291   -3.0991 H   0  0  0  0  0  0  0  0  0  0  0  0
    0.7086    3.3659   -2.3639 H   0  0  0  0  0  0  0  0  0  0  0  0
    1.0627    1.8566   -3.2397 H   0  0  0  0  0  0  0  0  0  0  0  0
  5  6  2  0  0  0  0
  5  7  1  0  0  0  0
  2  3  1  0  0  0  0
  2  4  1  0  0  0  0
  2  5  1  0  0  0  0
  1  2  1  0  0  0  0
 22 23  2  0  0  0  0
 22 24  1  0  0  0  0
 20 21  1  0  0  0  0
 18 19  1  0  0  0  0
 18 20  1  0  0  0  0
 16 17  1  0  0  0  0
 16 18  1  0  0  0  0
 15 16  2  0  0  0  0
 14 15  1  0  0  0  0
 14 20  2  0  0  0  0
 11 12  1  0  0  0  0
 11 13  1  0  0  0  0
 11 14  1  0  0  0  0
  9 10  1  0  0  0  0
  9 11  1  0  0  0  0
  9 22  1  0  0  0  0
  7  8  1  0  0  0  0
  7  9  1  0  0  0  0
 26 27  1  0  0  0  0
 26 28  1  0  0  0  0
 26 29  1  0  0  0  0
 24 25  1  0  0  0  0
 24 26  1  0  0  0  0
M  END
$$$$
default_name
  -OEChem-01062215323D

 29 29  0     1  0  0  0  0  0999 V2000
   -2.9561   -3.9186    1.3887 H   0  0  0  0  0  0  0  0  0  0  0  0
   -3.1191   -2.9346    0.9517 C   0  0  0  0  0  0  0  0  0  0  0  0
   -3.7811   -2.3546    1.5917 H   0  0  0  0  0  0  0  0  0  0  0  0
   -3.5591   -3.0406   -0.0383 H   0  0  0  0  0  0  0  0  0  0  0  0
   -1.7921   -2.2226    0.8327 C   0  0  0  0  0  0  0  0  0  0  0  0
   -0.7611   -2.7766    1.1927 O   0  0  0  0  0  0  0  0  0  0  0  0
   -1.8201   -0.9926    0.3247 N   0  0  0  0  0  0  0  0  0  0  0  0
   -2.7141   -0.5816    0.0927 H   0  0  0  0  0  0  0  0  0  0  0  0
   -0.6481   -0.1156    0.2017 C   0  0  1  0  0  0  0  0  0  0  0  0
   -0.5927    0.5062    1.0975 H   0  0  0  0  0  0  0  0  0  0  0  0
    0.6336   -0.9679    0.1267 C   0  0  0  0  0  0  0  0  0  0  0  0
    0.5545   -1.6822   -0.6942 H   0  0  0  0  0  0  0  0  0  0  0  0
    1.4919   -0.3265   -0.0779 H   0  0  0  0  0  0  0  0  0  0  0  0
    0.8866   -1.7590    1.3870 C   0  0  0  0  0  0  0  0  0  0  0  0
    1.3580   -1.2434    2.5950 N   0  0  0  0  0  0  0  0  0  0  0  0
    1.3881   -2.2757    3.4504 C   0  0  0  0  0  0  0  0  0  0  0  0
    1.7206   -2.2097    4.4787 H   0  0  0  0  0  0  0  0  0  0  0  0
    0.9404   -3.3931    2.8535 N   0  0  0  0  0  0  0  0  0  0  0  0
    0.8490   -4.2976    3.2955 H   0  0  0  0  0  0  0  0  0  0  0  0
    0.6151   -3.0858    1.5511 C   0  0  0  0  0  0  0  0  0  0  0  0
    0.2038   -3.7470    0.7987 H   0  0  0  0  0  0  0  0  0  0  0  0
   -0.7991    0.8280   -1.0049 C   0  0  0  0  0  0  0  0  0  0  0  0
   -1.8117    0.7780   -1.7032 O   0  0  0  0  0  0  0  0  0  0  0  0
    0.1941    1.6895   -1.2462 N   0  0  0  0  0  0  0  0  0  0  0  0
    1.0345    1.5903   -0.6878 H   0  0  0  0  0  0  0  0  0  0  0  0
    0.2083    2.6616   -2.3368 C   0  0  0  0  0  0  0  0  0  0  0  0
   -0.8003    3.0449   -2.5113 H   0  0  0  0  0  0  0  0  0  0  0  0
    0.8674    3.4933   -2.0837 H   0  0  0  0  0  0  0  0  0  0  0  0
    0.5656    2.1816   -3.2493 H   0  0  0  0  0  0  0  0  0  0  0  0
  5  6  2  0  0  0  0
  5  7  1  0  0  0  0
  2  3  1  0  0  0  0
  2  4  1  0  0  0  0
  2  5  1  0  0  0  0
  1  2  1  0  0  0  0
 22 23  2  0  0  0  0
 22 24  1  0  0  0  0
 20 21  1  0  0  0  0
 18 19  1  0  0  0  0
 18 20  1  0  0  0  0
 16 17  1  0  0  0  0
 16 18  1  0  0  0  0
 15 16  2  0  0  0  0
 14 15  1  0  0  0  0
 14 20  2  0  0  0  0
 11 12  1  0  0  0  0
 11 13  1  0  0  0  0
 11 14  1  0  0  0  0
  9 10  1  0  0  0  0
  9 11  1  0  0  0  0
  9 22  1  0  0  0  0
  7  8  1  0  0  0  0
  7  9  1  0  0  0  0
 26 27  1  0  0  0  0
 26 28  1  0  0  0  0
 26 29  1  0  0  0  0
 24 25  1  0  0  0  0
 24 26  1  0  0  0  0
M  END
$$$$
default_name
  -OEChem-01062215323D

 29 29  0     1  0  0  0  0  0999 V2000
   -2.9561   -3.9186    1.3887 H   0  0  0  0  0  0  0  0  0  0  0  0
   -3.1191   -2.9346    0.9517 C   0  0  0  0  0  0  0  0  0  0  0  0
   -3.7811   -2.3546    1.5917 H   0  0  0  0  0  0  0  0  0  0  0  0
   -3.5591   -3.0406   -0.0383 H   0  0  0  0  0  0  0  0  0  0  0  0
   -1.7921   -2.2226    0.8327 C   0  0  0  0  0  0  0  0  0  0  0  0
   -0.7611   -2.7766    1.1927 O   0  0  0  0  0  0  0  0  0  0  0  0
   -1.8201   -0.9926    0.3247 N   0  0  0  0  0  0  0  0  0  0  0  0
   -2.7141   -0.5816    0.0927 H   0  0  0  0  0  0  0  0  0  0  0  0
   -0.6481   -0.1156    0.2017 C   0  0  1  0  0  0  0  0  0  0  0  0
   -0.5927    0.5062    1.0975 H   0  0  0  0  0  0  0  0  0  0  0  0
    0.6336   -0.9679    0.1267 C   0  0  0  0  0  0  0  0  0  0  0  0
    0.5545   -1.6822   -0.6942 H   0  0  0  0  0  0  0  0  0  0  0  0
    1.4919   -0.3265   -0.0779 H   0  0  0  0  0  0  0  0  0  0  0  0
    0.8866   -1.7590    1.3870 C   0  0  0  0  0  0  0  0  0  0  0  0
    1.3580   -1.2434    2.5950 N   0  0  0  0  0  0  0  0  0  0  0  0
    1.3881   -2.2757    3.4504 C   0  0  0  0  0  0  0  0  0  0  0  0
    1.7206   -2.2097    4.4787 H   0  0  0  0  0  0  0  0  0  0  0  0
    0.9404   -3.3931    2.8535 N   0  0  0  0  0  0  0  0  0  0  0  0
    0.8490   -4.2976    3.2955 H   0  0  0  0  0  0  0  0  0  0  0  0
    0.6151   -3.0858    1.5511 C   0  0  0  0  0  0  0  0  0  0  0  0
    0.2038   -3.7470    0.7987 H   0  0  0  0  0  0  0  0  0  0  0  0
   -0.7991    0.8280   -1.0049 C   0  0  0  0  0  0  0  0  0  0  0  0
   -1.9002    0.9803   -1.5339 O   0  0  0  0  0  0  0  0  0  0  0  0
    0.2947    1.4655   -1.4340 N   0  0  0  0  0  0  0  0  0  0  0  0
    1.1769    1.2011   -1.0099 H   0  0  0  0  0  0  0  0  0  0  0  0
    0.3278    2.4041   -2.5531 C   0  0  0  0  0  0  0  0  0  0  0  0
   -0.5980    2.9844   -2.5839 H   0  0  0  0  0  0  0  0  0  0  0  0
    1.1725    3.0854   -2.4409 H   0  0  0  0  0  0  0  0  0  0  0  0
    0.4294    1.8529   -3.4893 H   0  0  0  0  0  0  0  0  0  0  0  0
  5  6  2  0  0  0  0
  5  7  1  0  0  0  0
  2  3  1  0  0  0  0
  2  4  1  0  0  0  0
  2  5  1  0  0  0  0
  1  2  1  0  0  0  0
 22 23  2  0  0  0  0
 22 24  1  0  0  0  0
 20 21  1  0  0  0  0
 18 19  1  0  0  0  0
 18 20  1  0  0  0  0
 16 17  1  0  0  0  0
 16 18  1  0  0  0  0
 15 16  2  0  0  0  0
 14 15  1  0  0  0  0
 14 20  2  0  0  0  0
 11 12  1  0  0  0  0
 11 13  1  0  0  0  0
 11 14  1  0  0  0  0
  9 10  1  0  0  0  0
  9 11  1  0  0  0  0
  9 22  1  0  0  0  0
  7  8  1  0  0  0  0
  7  9  1  0  0  0  0
 26 27  1  0  0  0  0
 26 28  1  0  0  0  0
 26 29  1  0  0  0  0
 24 25  1  0  0  0  0
 24 26  1  0  0  0  0
M  END
$$$$
default_name
  -OEChem-01062215323D

 29 29  0     1  0  0  0  0  0999 V2000
   -2.9561   -3.9186    1.3887 H   0  0  0  0  0  0  0  0  0  0  0  0
   -3.1191   -2.9346    0.9517 C   0  0  0  0  0  0  0  0  0  0  0  0
   -3.7811   -2.3546    1.5917 H   0  0  0  0  0  0  0  0  0  0  0  0
   -3.5591   -3.0406   -0.0383 H   0  0  0  0  0  0  0  0  0  0  0  0
   -1.7921   -2.2226    0.8327 C   0  0  0  0  0  0  0  0  0  0  0  0
   -0.7611   -2.7766    1.1927 O   0  0  0  0  0  0  0  0  0  0  0  0
   -1.8201   -0.9926    0.3247 N   0  0  0  0  0  0  0  0  0  0  0  0
   -2.7141   -0.5816    0.0927 H   0  0  0  0  0  0  0  0  0  0  0  0
   -0.6481   -0.1156    0.2017 C   0  0  1  0  0  0  0  0  0  0  0  0
   -0.5927    0.5062    1.0975 H   0  0  0  0  0  0  0  0  0  0  0  0
    0.6336   -0.9679    0.1267 C   0  0  0  0  0  0  0  0  0  0  0  0
    0.5545   -1.6822   -0.6942 H   0  0  0  0  0  0  0  0  0  0  0  0
    1.4919   -0.3265   -0.0779 H   0  0  0  0  0  0  0  0  0  0  0  0
    0.8866   -1.7590    1.3870 C   0  0  0  0  0  0  0  0  0  0  0  0
    1.3580   -1.2434    2.5950 N   0  0  0  0  0  0  0  0  0  0  0  0
    1.3881   -2.2757    3.4504 C   0  0  0  0  0  0  0  0  0  0  0  0
    1.7206   -2.2097    4.4787 H   0  0  0  0  0  0  0  0  0  0  0  0
    0.9404   -3.3931    2.8535 N   0  0  0  0  0  0  0  0  0  0  0  0
    0.8490   -4.2976    3.2955 H   0  0  0  0  0  0  0  0  0  0  0  0
    0.6151   -3.0858    1.5511 C   0  0  0  0  0  0  0  0  0  0  0  0
    0.2038   -3.7470    0.7987 H   0  0  0  0  0  0  0  0  0  0  0  0
   -0.7991    0.8280   -1.0049 C   0  0  0  0  0  0  0  0  0  0  0  0
   -1.9177    1.1979   -1.3615 O   0  0  0  0  0  0  0  0  0  0  0  0
    0.3167    1.2239   -1.6256 N   0  0  0  0  0  0  0  0  0  0  0  0
    1.1844    0.7882   -1.3337 H   0  0  0  0  0  0  0  0  0  0  0  0
    0.3567    2.1257   -2.7744 C   0  0  0  0  0  0  0  0  0  0  0  0
   -0.4263    2.8831   -2.6846 H   0  0  0  0  0  0  0  0  0  0  0  0
    1.3278    2.6203   -2.8239 H   0  0  0  0  0  0  0  0  0  0  0  0
    0.1931    1.5569   -3.6912 H   0  0  0  0  0  0  0  0  0  0  0  0
  5  6  2  0  0  0  0
  5  7  1  0  0  0  0
  2  3  1  0  0  0  0
  2  4  1  0  0  0  0
  2  5  1  0  0  0  0
  1  2  1  0  0  0  0
 22 23  2  0  0  0  0
 22 24  1  0  0  0  0
 20 21  1  0  0  0  0
 18 19  1  0  0  0  0
 18 20  1  0  0  0  0
 16 17  1  0  0  0  0
 16 18  1  0  0  0  0
 15 16  2  0  0  0  0
 14 15  1  0  0  0  0
 14 20  2  0  0  0  0
 11 12  1  0  0  0  0
 11 13  1  0  0  0  0
 11 14  1  0  0  0  0
  9 10  1  0  0  0  0
  9 11  1  0  0  0  0
  9 22  1  0  0  0  0
  7  8  1  0  0  0  0
  7  9  1  0  0  0  0
 26 27  1  0  0  0  0
 26 28  1  0  0  0  0
 26 29  1  0  0  0  0
 24 25  1  0  0  0  0
 24 26  1  0  0  0  0
M  END
$$$$
default_name
  -OEChem-01062215323D

 29 29  0     1  0  0  0  0  0999 V2000
   -2.9561   -3.9186    1.3887 H   0  0  0  0  0  0  0  0  0  0  0  0
   -3.1191   -2.9346    0.9517 C   0  0  0  0  0  0  0  0  0  0  0  0
   -3.7811   -2.3546    1.5917 H   0  0  0  0  0  0  0  0  0  0  0  0
   -3.5591   -3.0406   -0.0383 H   0  0  0  0  0  0  0  0  0  0  0  0
   -1.7921   -2.2226    0.8327 C   0  0  0  0  0  0  0  0  0  0  0  0
   -0.7611   -2.7766    1.1927 O   0  0  0  0  0  0  0  0  0  0  0  0
   -1.8201   -0.9926    0.3247 N   0  0  0  0  0  0  0  0  0  0  0  0
   -2.7141   -0.5816    0.0927 H   0  0  0  0  0  0  0  0  0  0  0  0
   -0.6481   -0.1156    0.2017 C   0  0  1  0  0  0  0  0  0  0  0  0
   -0.5927    0.5062    1.0975 H   0  0  0  0  0  0  0  0  0  0  0  0
    0.6336   -0.9679    0.1267 C   0  0  0  0  0  0  0  0  0  0  0  0
    0.5545   -1.6822   -0.6942 H   0  0  0  0  0  0  0  0  0  0  0  0
    1.4919   -0.3265   -0.0779 H   0  0  0  0  0  0  0  0  0  0  0  0
    0.8866   -1.7590    1.3870 C   0  0  0  0  0  0  0  0  0  0  0  0
    1.3580   -1.2434    2.5950 N   0  0  0  0  0  0  0  0  0  0  0  0
    1.3881   -2.2757    3.4504 C   0  0  0  0  0  0  0  0  0  0  0  0
    1.7206   -2.2097    4.4787 H   0  0  0  0  0  0  0  0  0  0  0  0
    0.9404   -3.3931    2.8535 N   0  0  0  0  0  0  0  0  0  0  0  0
    0.8490   -4.2976    3.2955 H   0  0  0  0  0  0  0  0  0  0  0  0
    0.6151   -3.0858    1.5511 C   0  0  0  0  0  0  0  0  0  0  0  0
    0.2038   -3.7470    0.7987 H   0  0  0  0  0  0  0  0  0  0  0  0
   -0.7991    0.8280   -1.0049 C   0  0  0  0  0  0  0  0  0  0  0  0
   -1.8632    1.4161   -1.1977 O   0  0  0  0  0  0  0  0  0  0  0  0
    0.2584    0.9812   -1.8081 N   0  0  0  0  0  0  0  0  0  0  0  0
    1.0564    0.3796   -1.6373 H   0  0  0  0  0  0  0  0  0  0  0  0
    0.2930    1.8453   -2.9857 C   0  0  0  0  0  0  0  0  0  0  0  0
   -0.2970    2.7479   -2.8065 H   0  0  0  0  0  0  0  0  0  0  0  0
    1.3226    2.1300   -3.2068 H   0  0  0  0  0  0  0  0  0  0  0  0
   -0.1272    1.3139   -3.8412 H   0  0  0  0  0  0  0  0  0  0  0  0
  5  6  2  0  0  0  0
  5  7  1  0  0  0  0
  2  3  1  0  0  0  0
  2  4  1  0  0  0  0
  2  5  1  0  0  0  0
  1  2  1  0  0  0  0
 22 23  2  0  0  0  0
 22 24  1  0  0  0  0
 20 21  1  0  0  0  0
 18 19  1  0  0  0  0
 18 20  1  0  0  0  0
 16 17  1  0  0  0  0
 16 18  1  0  0  0  0
 15 16  2  0  0  0  0
 14 15  1  0  0  0  0
 14 20  2  0  0  0  0
 11 12  1  0  0  0  0
 11 13  1  0  0  0  0
 11 14  1  0  0  0  0
  9 10  1  0  0  0  0
  9 11  1  0  0  0  0
  9 22  1  0  0  0  0
  7  8  1  0  0  0  0
  7  9  1  0  0  0  0
 26 27  1  0  0  0  0
 26 28  1  0  0  0  0
 26 29  1  0  0  0  0
 24 25  1  0  0  0  0
 24 26  1  0  0  0  0
M  END
$$$$
default_name
  -OEChem-01062215323D

 29 29  0     1  0  0  0  0  0999 V2000
   -2.9561   -3.9186    1.3887 H   0  0  0  0  0  0  0  0  0  0  0  0
   -3.1191   -2.9346    0.9517 C   0  0  0  0  0  0  0  0  0  0  0  0
   -3.7811   -2.3546    1.5917 H   0  0  0  0  0  0  0  0  0  0  0  0
   -3.5591   -3.0406   -0.0383 H   0  0  0  0  0  0  0  0  0  0  0  0
   -1.7921   -2.2226    0.8327 C   0  0  0  0  0  0  0  0  0  0  0  0
   -0.7611   -2.7766    1.1927 O   0  0  0  0  0  0  0  0  0  0  0  0
   -1.8201   -0.9926    0.3247 N   0  0  0  0  0  0  0  0  0  0  0  0
   -2.7141   -0.5816    0.0927 H   0  0  0  0  0  0  0  0  0  0  0  0
   -0.6481   -0.1156    0.2017 C   0  0  1  0  0  0  0  0  0  0  0  0
   -0.5927    0.5062    1.0975 H   0  0  0  0  0  0  0  0  0  0  0  0
    0.6336   -0.9679    0.1267 C   0  0  0  0  0  0  0  0  0  0  0  0
    0.5545   -1.6822   -0.6942 H   0  0  0  0  0  0  0  0  0  0  0  0
    1.4919   -0.3265   -0.0779 H   0  0  0  0  0  0  0  0  0  0  0  0
    0.8866   -1.7590    1.3870 C   0  0  0  0  0  0  0  0  0  0  0  0
    1.3580   -1.2434    2.5950 N   0  0  0  0  0  0  0  0  0  0  0  0
    1.3881   -2.2757    3.4504 C   0  0  0  0  0  0  0  0  0  0  0  0
    1.7206   -2.2097    4.4787 H   0  0  0  0  0  0  0  0  0  0  0  0
    0.9404   -3.3931    2.8535 N   0  0  0  0  0  0  0  0  0  0  0  0
    0.8490   -4.2976    3.2955 H   0  0  0  0  0  0  0  0  0  0  0  0
    0.6151   -3.0858    1.5511 C   0  0  0  0  0  0  0  0  0  0  0  0
    0.2038   -3.7470    0.7987 H   0  0  0  0  0  0  0  0  0  0  0  0
   -0.7991    0.8280   -1.0049 C   0  0  0  0  0  0  0  0  0  0  0  0
   -1.7402    1.6200   -1.0537 O   0  0  0  0  0  0  0  0  0  0  0  0
    0.1240    0.7540   -1.9690 N   0  0  0  0  0  0  0  0  0  0  0  0
    0.8017    0.0031   -1.8998 H   0  0  0  0  0  0  0  0  0  0  0  0
    0.1410    1.5820   -3.1725 C   0  0  0  0  0  0  0  0  0  0  0  0
   -0.2188    2.5879   -2.9414 H   0  0  0  0  0  0  0  0  0  0  0  0
    1.1574    1.6476   -3.5633 H   0  0  0  0  0  0  0  0  0  0  0  0
   -0.5097    1.1403   -3.9290 H   0  0  0  0  0  0  0  0  0  0  0  0
  5  6  2  0  0  0  0
  5  7  1  0  0  0  0
  2  3  1  0  0  0  0
  2  4  1  0  0  0  0
  2  5  1  0  0  0  0
  1  2  1  0  0  0  0
 22 23  2  0  0  0  0
 22 24  1  0  0  0  0
 20 21  1  0  0  0  0
 18 19  1  0  0  0  0
 18 20  1  0  0  0  0
 16 17  1  0  0  0  0
 16 18  1  0  0  0  0
 15 16  2  0  0  0  0
 14 15  1  0  0  0  0
 14 20  2  0  0  0  0
 11 12  1  0  0  0  0
 11 13  1  0  0  0  0
 11 14  1  0  0  0  0
  9 10  1  0  0  0  0
  9 11  1  0  0  0  0
  9 22  1  0  0  0  0
  7  8  1  0  0  0  0
  7  9  1  0  0  0  0
 26 27  1  0  0  0  0
 26 28  1  0  0  0  0
 26 29  1  0  0  0  0
 24 25  1  0  0  0  0
 24 26  1  0  0  0  0
M  END
$$$$
default_name
  -OEChem-01062215323D

 29 29  0     1  0  0  0  0  0999 V2000
   -2.9561   -3.9186    1.3887 H   0  0  0  0  0  0  0  0  0  0  0  0
   -3.1191   -2.9346    0.9517 C   0  0  0  0  0  0  0  0  0  0  0  0
   -3.7811   -2.3546    1.5917 H   0  0  0  0  0  0  0  0  0  0  0  0
   -3.5591   -3.0406   -0.0383 H   0  0  0  0  0  0  0  0  0  0  0  0
   -1.7921   -2.2226    0.8327 C   0  0  0  0  0  0  0  0  0  0  0  0
   -0.7611   -2.7766    1.1927 O   0  0  0  0  0  0  0  0  0  0  0  0
   -1.8201   -0.9926    0.3247 N   0  0  0  0  0  0  0  0  0  0  0  0
   -2.7141   -0.5816    0.0927 H   0  0  0  0  0  0  0  0  0  0  0  0
   -0.6481   -0.1156    0.2017 C   0  0  1  0  0  0  0  0  0  0  0  0
   -0.5927    0.5062    1.0975 H   0  0  0  0  0  0  0  0  0  0  0  0
    0.6336   -0.9679    0.1267 C   0  0  0  0  0  0  0  0  0  0  0  0
    0.5545   -1.6822   -0.6942 H   0  0  0  0  0  0  0  0  0  0  0  0
    1.4919   -0.3265   -0.0779 H   0  0  0  0  0  0  0  0  0  0  0  0
    0.8866   -1.7590    1.3870 C   0  0  0  0  0  0  0  0  0  0  0  0
    1.3580   -1.2434    2.5950 N   0  0  0  0  0  0  0  0  0  0  0  0
    1.3881   -2.2757    3.4504 C   0  0  0  0  0  0  0  0  0  0  0  0
    1.7206   -2.2097    4.4787 H   0  0  0  0  0  0  0  0  0  0  0  0
    0.9404   -3.3931    2.8535 N   0  0  0  0  0  0  0  0  0  0  0  0
    0.8490   -4.2976    3.2955 H   0  0  0  0  0  0  0  0  0  0  0  0
    0.6151   -3.0858    1.5511 C   0  0  0  0  0  0  0  0  0  0  0  0
    0.2038   -3.7470    0.7987 H   0  0  0  0  0  0  0  0  0  0  0  0
   -0.7991    0.8280   -1.0049 C   0  0  0  0  0  0  0  0  0  0  0  0
   -1.5572    1.7956   -0.9392 O   0  0  0  0  0  0  0  0  0  0  0  0
   -0.0775    0.5577   -2.0972 N   0  0  0  0  0  0  0  0  0  0  0  0
    0.4377   -0.3155   -2.1034 H   0  0  0  0  0  0  0  0  0  0  0  0
   -0.0889    1.3538   -3.3223 C   0  0  0  0  0  0  0  0  0  0  0  0
   -0.1972    2.4141   -3.0800 H   0  0  0  0  0  0  0  0  0  0  0  0
    0.8434    1.2061   -3.8692 H   0  0  0  0  0  0  0  0  0  0  0  0
   -0.9283    1.0481   -3.9488 H   0  0  0  0  0  0  0  0  0  0  0  0
  5  6  2  0  0  0  0
  5  7  1  0  0  0  0
  2  3  1  0  0  0  0
  2  4  1  0  0  0  0
  2  5  1  0  0  0  0
  1  2  1  0  0  0  0
 22 23  2  0  0  0  0
 22 24  1  0  0  0  0
 20 21  1  0  0  0  0
 18 19  1  0  0  0  0
 18 20  1  0  0  0  0
 16 17  1  0  0  0  0
 16 18  1  0  0  0  0
 15 16  2  0  0  0  0
 14 15  1  0  0  0  0
 14 20  2  0  0  0  0
 11 12  1  0  0  0  0
 11 13  1  0  0  0  0
 11 14  1  0  0  0  0
  9 10  1  0  0  0  0
  9 11  1  0  0  0  0
  9 22  1  0  0  0  0
  7  8  1  0  0  0  0
  7  9  1  0  0  0  0
 26 27  1  0  0  0  0
 26 28  1  0  0  0  0
 26 29  1  0  0  0  0
 24 25  1  0  0  0  0
 24 26  1  0  0  0  0
M  END
$$$$
default_name
  -OEChem-01062215323D

 29 29  0     1  0  0  0  0  0999 V2000
   -2.9561   -3.9186    1.3887 H   0  0  0  0  0  0  0  0  0  0  0  0
   -3.1191   -2.9346    0.9517 C   0  0  0  0  0  0  0  0  0  0  0  0
   -3.7811   -2.3546    1.5917 H   0  0  0  0  0  0  0  0  0  0  0  0
   -3.5591   -3.0406   -0.0383 H   0  0  0  0  0  0  0  0  0  0  0  0
   -1.7921   -2.2226    0.8327 C   0  0  0  0  0  0  0  0  0  0  0  0
   -0.7611   -2.7766    1.1927 O   0  0  0  0  0  0  0  0  0  0  0  0
   -1.8201   -0.9926    0.3247 N   0  0  0  0  0  0  0  0  0  0  0  0
   -2.7141   -0.5816    0.0927 H   0  0  0  0  0  0  0  0  0  0  0  0
   -0.6481   -0.1156    0.2017 C   0  0  1  0  0  0  0  0  0  0  0  0
   -0.5927    0.5062    1.0975 H   0  0  0  0  0  0  0  0  0  0  0  0
    0.6336   -0.9679    0.1267 C   0  0  0  0  0  0  0  0  0  0  0  0
    0.5545   -1.6822   -0.6942 H   0  0  0  0  0  0  0  0  0  0  0  0
    1.4919   -0.3265   -0.0779 H   0  0  0  0  0  0  0  0  0  0  0  0
    0.8866   -1.7590    1.3870 C   0  0  0  0  0  0  0  0  0  0  0  0
    1.3580   -1.2434    2.5950 N   0  0  0  0  0  0  0  0  0  0  0  0
    1.3881   -2.2757    3.4504 C   0  0  0  0  0  0  0  0  0  0  0  0
    1.7206   -2.2097    4.4787 H   0  0  0  0  0  0  0  0  0  0  0  0
    0.9404   -3.3931    2.8535 N   0  0  0  0  0  0  0  0  0  0  0  0
    0.8490   -4.2976    3.2955 H   0  0  0  0  0  0  0  0  0  0  0  0
    0.6151   -3.0858    1.5511 C   0  0  0  0  0  0  0  0  0  0  0  0
    0.2038   -3.7470    0.7987 H   0  0  0  0  0  0  0  0  0  0  0  0
   -0.7991    0.8280   -1.0049 C   0  0  0  0  0  0  0  0  0  0  0  0
   -1.3267    1.9310   -0.8622 O   0  0  0  0  0  0  0  0  0  0  0  0
   -0.3323    0.4057   -2.1842 N   0  0  0  0  0  0  0  0  0  0  0  0
   -0.0108   -0.5545   -2.2342 H   0  0  0  0  0  0  0  0  0  0  0  0
   -0.3809    1.1762   -3.4246 C   0  0  0  0  0  0  0  0  0  0  0  0
   -0.2336    2.2384   -3.2129 H   0  0  0  0  0  0  0  0  0  0  0  0
    0.4020    0.8357   -4.1037 H   0  0  0  0  0  0  0  0  0  0  0  0
   -1.3545    1.0434   -3.8992 H   0  0  0  0  0  0  0  0  0  0  0  0
  5  6  2  0  0  0  0
  5  7  1  0  0  0  0
  2  3  1  0  0  0  0
  2  4  1  0  0  0  0
  2  5  1  0  0  0  0
  1  2  1  0  0  0  0
 22 23  2  0  0  0  0
 22 24  1  0  0  0  0
 20 21  1  0  0  0  0
 18 19  1  0  0  0  0
 18 20  1  0  0  0  0
 16 17  1  0  0  0  0
 16 18  1  0  0  0  0
 15 16  2  0  0  0  0
 14 15  1  0  0  0  0
 14 20  2  0  0  0  0
 11 12  1  0  0  0  0
 11 13  1  0  0  0  0
 11 14  1  0  0  0  0
  9 10  1  0  0  0  0
  9 11  1  0  0  0  0
  9 22  1  0  0  0  0
  7  8  1  0  0  0  0
  7  9  1  0  0  0  0
 26 27  1  0  0  0  0
 26 28  1  0  0  0  0
 26 29  1  0  0  0  0
 24 25  1  0  0  0  0
 24 26  1  0  0  0  0
M  END
$$$$
default_name
  -OEChem-01062215323D

 29 29  0     1  0  0  0  0  0999 V2000
   -2.9561   -3.9186    1.3887 H   0  0  0  0  0  0  0  0  0  0  0  0
   -3.1191   -2.9346    0.9517 C   0  0  0  0  0  0  0  0  0  0  0  0
   -3.7811   -2.3546    1.5917 H   0  0  0  0  0  0  0  0  0  0  0  0
   -3.5591   -3.0406   -0.0383 H   0  0  0  0  0  0  0  0  0  0  0  0
   -1.7921   -2.2226    0.8327 C   0  0  0  0  0  0  0  0  0  0  0  0
   -0.7611   -2.7766    1.1927 O   0  0  0  0  0  0  0  0  0  0  0  0
   -1.8201   -0.9926    0.3247 N   0  0  0  0  0  0  0  0  0  0  0  0
   -2.7141   -0.5816    0.0927 H   0  0  0  0  0  0  0  0  0  0  0  0
   -0.6481   -0.1156    0.2017 C   0  0  1  0  0  0  0  0  0  0  0  0
   -0.5927    0.5062    1.0975 H   0  0  0  0  0  0  0  0  0  0  0  0
    0.6336   -0.9679    0.1267 C   0  0  0  0  0  0  0  0  0  0  0  0
    0.5545   -1.6822   -0.6942 H   0  0  0  0  0  0  0  0  0  0  0  0
    1.4919   -0.3265   -0.0779 H   0  0  0  0  0  0  0  0  0  0  0  0
    0.8866   -1.7590    1.3870 C   0  0  0  0  0  0  0  0  0  0  0  0
    1.3580   -1.2434    2.5950 N   0  0  0  0  0  0  0  0  0  0  0  0
    1.3881   -2.2757    3.4504 C   0  0  0  0  0  0  0  0  0  0  0  0
    1.7206   -2.2097    4.4787 H   0  0  0  0  0  0  0  0  0  0  0  0
    0.9404   -3.3931    2.8535 N   0  0  0  0  0  0  0  0  0  0  0  0
    0.8490   -4.2976    3.2955 H   0  0  0  0  0  0  0  0  0  0  0  0
    0.6151   -3.0858    1.5511 C   0  0  0  0  0  0  0  0  0  0  0  0
    0.2038   -3.7470    0.7987 H   0  0  0  0  0  0  0  0  0  0  0  0
   -0.7991    0.8280   -1.0049 C   0  0  0  0  0  0  0  0  0  0  0  0
   -1.0643    2.0169   -0.8278 O   0  0  0  0  0  0  0  0  0  0  0  0
   -0.6230    0.3084   -2.2239 N   0  0  0  0  0  0  0  0  0  0  0  0
   -0.5134   -0.6977   -2.2833 H   0  0  0  0  0  0  0  0  0  0  0  0
   -0.7154    1.0613   -3.4726 C   0  0  0  0  0  0  0  0  0  0  0  0
   -0.3255    2.0726   -3.3310 H   0  0  0  0  0  0  0  0  0  0  0  0
   -0.1367    0.5615   -4.2507 H   0  0  0  0  0  0  0  0  0  0  0  0
   -1.7593    1.1266   -3.7835 H   0  0  0  0  0  0  0  0  0  0  0  0
  5  6  2  0  0  0  0
  5  7  1  0  0  0  0
  2  3  1  0  0  0  0
  2  4  1  0  0  0  0
  2  5  1  0  0  0  0
  1  2  1  0  0  0  0
 22 23  2  0  0  0  0
 22 24  1  0  0  0  0
 20 21  1  0  0  0  0
 18 19  1  0  0  0  0
 18 20  1  0  0  0  0
 16 17  1  0  0  0  0
 16 18  1  0  0  0  0
 15 16  2  0  0  0  0
 14 15  1  0  0  0  0
 14 20  2  0  0  0  0
 11 12  1  0  0  0  0
 11 13  1  0  0  0  0
 11 14  1  0  0  0  0
  9 10  1  0  0  0  0
  9 11  1  0  0  0  0
  9 22  1  0  0  0  0
  7  8  1  0  0  0  0
  7  9  1  0  0  0  0
 26 27  1  0  0  0  0
 26 28  1  0  0  0  0
 26 29  1  0  0  0  0
 24 25  1  0  0  0  0
 24 26  1  0  0  0  0
M  END
$$$$
default_name
  -OEChem-01062215323D

 29 29  0     1  0  0  0  0  0999 V2000
   -2.9561   -3.9186    1.3887 H   0  0  0  0  0  0  0  0  0  0  0  0
   -3.1191   -2.9346    0.9517 C   0  0  0  0  0  0  0  0  0  0  0  0
   -3.7811   -2.3546    1.5917 H   0  0  0  0  0  0  0  0  0  0  0  0
   -3.5591   -3.0406   -0.0383 H   0  0  0  0  0  0  0  0  0  0  0  0
   -1.7921   -2.2226    0.8327 C   0  0  0  0  0  0  0  0  0  0  0  0
   -0.7611   -2.7766    1.1927 O   0  0  0  0  0  0  0  0  0  0  0  0
   -1.8201   -0.9926    0.3247 N   0  0  0  0  0  0  0  0  0  0  0  0
   -2.7141   -0.5816    0.0927 H   0  0  0  0  0  0  0  0  0  0  0  0
   -0.6481   -0.1156    0.2017 C   0  0  1  0  0  0  0  0  0  0  0  0
   -0.5927    0.5062    1.0975 H   0  0  0  0  0  0  0  0  0  0  0  0
    0.6336   -0.9679    0.1267 C   0  0  0  0  0  0  0  0  0  0  0  0
    0.5545   -1.6822   -0.6942 H   0  0  0  0  0  0  0  0  0  0  0  0
    1.4919   -0.3265   -0.0779 H   0  0  0  0  0  0  0  0  0  0  0  0
    0.8866   -1.7590    1.3870 C   0  0  0  0  0  0  0  0  0  0  0  0
    1.3580   -1.2434    2.5950 N   0  0  0  0  0  0  0  0  0  0  0  0
    1.3881   -2.2757    3.4504 C   0  0  0  0  0  0  0  0  0  0  0  0
    1.7206   -2.2097    4.4787 H   0  0  0  0  0  0  0  0  0  0  0  0
    0.9404   -3.3931    2.8535 N   0  0  0  0  0  0  0  0  0  0  0  0
    0.8490   -4.2976    3.2955 H   0  0  0  0  0  0  0  0  0  0  0  0
    0.6151   -3.0858    1.5511 C   0  0  0  0  0  0  0  0  0  0  0  0
    0.2038   -3.7470    0.7987 H   0  0  0  0  0  0  0  0  0  0  0  0
   -0.7991    0.8280   -1.0049 C   0  0  0  0  0  0  0  0  0  0  0  0
   -0.7880    2.0476   -0.8384 O   0  0  0  0  0  0  0  0  0  0  0  0
   -0.9299    0.2724   -2.2137 N   0  0  0  0  0  0  0  0  0  0  0  0
   -1.0356   -0.7354   -2.2474 H   0  0  0  0  0  0  0  0  0  0  0  0
   -1.0693    1.0170   -3.4630 C   0  0  0  0  0  0  0  0  0  0  0  0
   -0.4667    1.9282   -3.4263 H   0  0  0  0  0  0  0  0  0  0  0  0
   -0.7361    0.4022   -4.3003 H   0  0  0  0  0  0  0  0  0  0  0  0
   -2.1151    1.2920   -3.6096 H   0  0  0  0  0  0  0  0  0  0  0  0
  5  6  2  0  0  0  0
  5  7  1  0  0  0  0
  2  3  1  0  0  0  0
  2  4  1  0  0  0  0
  2  5  1  0  0  0  0
  1  2  1  0  0  0  0
 22 23  2  0  0  0  0
 22 24  1  0  0  0  0
 20 21  1  0  0  0  0
 18 19  1  0  0  0  0
 18 20  1  0  0  0  0
 16 17  1  0  0  0  0
 16 18  1  0  0  0  0
 15 16  2  0  0  0  0
 14 15  1  0  0  0  0
 14 20  2  0  0  0  0
 11 12  1  0  0  0  0
 11 13  1  0  0  0  0
 11 14  1  0  0  0  0
  9 10  1  0  0  0  0
  9 11  1  0  0  0  0
  9 22  1  0  0  0  0
  7  8  1  0  0  0  0
  7  9  1  0  0  0  0
 26 27  1  0  0  0  0
 26 28  1  0  0  0  0
 26 29  1  0  0  0  0
 24 25  1  0  0  0  0
 24 26  1  0  0  0  0
M  END
$$$$
default_name
  -OEChem-01062215323D

 29 29  0     1  0  0  0  0  0999 V2000
   -2.9561   -3.9186    1.3887 H   0  0  0  0  0  0  0  0  0  0  0  0
   -3.1191   -2.9346    0.9517 C   0  0  0  0  0  0  0  0  0  0  0  0
   -3.7811   -2.3546    1.5917 H   0  0  0  0  0  0  0  0  0  0  0  0
   -3.5591   -3.0406   -0.0383 H   0  0  0  0  0  0  0  0  0  0  0  0
   -1.7921   -2.2226    0.8327 C   0  0  0  0  0  0  0  0  0  0  0  0
   -0.7611   -2.7766    1.1927 O   0  0  0  0  0  0  0  0  0  0  0  0
   -1.8201   -0.9926    0.3247 N   0  0  0  0  0  0  0  0  0  0  0  0
   -2.7141   -0.5816    0.0927 H   0  0  0  0  0  0  0  0  0  0  0  0
   -0.6481   -0.1156    0.2017 C   0  0  1  0  0  0  0  0  0  0  0  0
   -0.5927    0.5062    1.0975 H   0  0  0  0  0  0  0  0  0  0  0  0
    0.6336   -0.9679    0.1267 C   0  0  0  0  0  0  0  0  0  0  0  0
    0.5545   -1.6822   -0.6942 H   0  0  0  0  0  0  0  0  0  0  0  0
    1.4919   -0.3265   -0.0779 H   0  0  0  0  0  0  0  0  0  0  0  0
    0.8866   -1.7590    1.3870 C   0  0  0  0  0  0  0  0  0  0  0  0
    1.3580   -1.2434    2.5950 N   0  0  0  0  0  0  0  0  0  0  0  0
    1.3881   -2.2757    3.4504 C   0  0  0  0  0  0  0  0  0  0  0  0
    1.7206   -2.2097    4.4787 H   0  0  0  0  0  0  0  0  0  0  0  0
    0.9404   -3.3931    2.8535 N   0  0  0  0  0  0  0  0  0  0  0  0
    0.8490   -4.2976    3.2955 H   0  0  0  0  0  0  0  0  0  0  0  0
    0.6151   -3.0858    1.5511 C   0  0  0  0  0  0  0  0  0  0  0  0
    0.2038   -3.7470    0.7987 H   0  0  0  0  0  0  0  0  0  0  0  0
   -0.7991    0.8280   -1.0049 C   0  0  0  0  0  0  0  0  0  0  0  0
   -0.5165    2.0209   -0.8932 O   0  0  0  0  0  0  0  0  0  0  0  0
   -1.2321    0.3002   -2.1542 N   0  0  0  0  0  0  0  0  0  0  0  0
   -1.5420   -0.6648   -2.1289 H   0  0  0  0  0  0  0  0  0  0  0  0
   -1.4186    1.0462   -3.3965 C   0  0  0  0  0  0  0  0  0  0  0  0
   -0.6474    1.8148   -3.4923 H   0  0  0  0  0  0  0  0  0  0  0  0
   -1.3552    0.3687   -4.2491 H   0  0  0  0  0  0  0  0  0  0  0  0
   -2.3975    1.5284   -3.3895 H   0  0  0  0  0  0  0  0  0  0  0  0
  5  6  2  0  0  0  0
  5  7  1  0  0  0  0
  2  3  1  0  0  0  0
  2  4  1  0  0  0  0
  2  5  1  0  0  0  0
  1  2  1  0  0  0  0
 22 23  2  0  0  0  0
 22 24  1  0  0  0  0
 20 21  1  0  0  0  0
 18 19  1  0  0  0  0
 18 20  1  0  0  0  0
 16 17  1  0  0  0  0
 16 18  1  0  0  0  0
 15 16  2  0  0  0  0
 14 15  1  0  0  0  0
 14 20  2  0  0  0  0
 11 12  1  0  0  0  0
 11 13  1  0  0  0  0
 11 14  1  0  0  0  0
  9 10  1  0  0  0  0
  9 11  1  0  0  0  0
  9 22  1  0  0  0  0
  7  8  1  0  0  0  0
  7  9  1  0  0  0  0
 26 27  1  0  0  0  0
 26 28  1  0  0  0  0
 26 29  1  0  0  0  0
 24 25  1  0  0  0  0
 24 26  1  0  0  0  0
M  END
$$$$
default_name
  -OEChem-01062215323D

 29 29  0     1  0  0  0  0  0999 V2000
   -2.9561   -3.9186    1.3887 H   0  0  0  0  0  0  0  0  0  0  0  0
   -3.1191   -2.9346    0.9517 C   0  0  0  0  0  0  0  0  0  0  0  0
   -3.7811   -2.3546    1.5917 H   0  0  0  0  0  0  0  0  0  0  0  0
   -3.5591   -3.0406   -0.0383 H   0  0  0  0  0  0  0  0  0  0  0  0
   -1.7921   -2.2226    0.8327 C   0  0  0  0  0  0  0  0  0  0  0  0
   -0.7611   -2.7766    1.1927 O   0  0  0  0  0  0  0  0  0  0  0  0
   -1.8201   -0.9926    0.3247 N   0  0  0  0  0  0  0  0  0  0  0  0
   -2.7141   -0.5816    0.0927 H   0  0  0  0  0  0  0  0  0  0  0  0
   -0.6481   -0.1156    0.2017 C   0  0  1  0  0  0  0  0  0  0  0  0
   -0.5927    0.5062    1.0975 H   0  0  0  0  0  0  0  0  0  0  0  0
    0.6336   -0.9679    0.1267 C   0  0  0  0  0  0  0  0  0  0  0  0
    0.5545   -1.6822   -0.6942 H   0  0  0  0  0  0  0  0  0  0  0  0
    1.4919   -0.3265   -0.0779 H   0  0  0  0  0  0  0  0  0  0  0  0
    0.8866   -1.7590    1.3870 C   0  0  0  0  0  0  0  0  0  0  0  0
    1.3580   -1.2434    2.5950 N   0  0  0  0  0  0  0  0  0  0  0  0
    1.3881   -2.2757    3.4504 C   0  0  0  0  0  0  0  0  0  0  0  0
    1.7206   -2.2097    4.4787 H   0  0  0  0  0  0  0  0  0  0  0  0
    0.9404   -3.3931    2.8535 N   0  0  0  0  0  0  0  0  0  0  0  0
    0.8490   -4.2976    3.2955 H   0  0  0  0  0  0  0  0  0  0  0  0
    0.6151   -3.0858    1.5511 C   0  0  0  0  0  0  0  0  0  0  0  0
    0.2038   -3.7470    0.7987 H   0  0  0  0  0  0  0  0  0  0  0  0
   -0.7991    0.8280   -1.0049 C   0  0  0  0  0  0  0  0  0  0  0  0
   -0.2684    1.9386   -0.9886 O   0  0  0  0  0  0  0  0  0  0  0  0
   -1.5088    0.3898   -2.0495 N   0  0  0  0  0  0  0  0  0  0  0  0
   -1.9981   -0.4909   -1.9359 H   0  0  0  0  0  0  0  0  0  0  0  0
   -1.7396    1.1470   -3.2775 C   0  0  0  0  0  0  0  0  0  0  0  0
   -0.8555    1.7404   -3.5245 H   0  0  0  0  0  0  0  0  0  0  0  0
   -1.9519    0.4632   -4.1005 H   0  0  0  0  0  0  0  0  0  0  0  0
   -2.5875    1.8197   -3.1380 H   0  0  0  0  0  0  0  0  0  0  0  0
  5  6  2  0  0  0  0
  5  7  1  0  0  0  0
  2  3  1  0  0  0  0
  2  4  1  0  0  0  0
  2  5  1  0  0  0  0
  1  2  1  0  0  0  0
 22 23  2  0  0  0  0
 22 24  1  0  0  0  0
 20 21  1  0  0  0  0
 18 19  1  0  0  0  0
 18 20  1  0  0  0  0
 16 17  1  0  0  0  0
 16 18  1  0  0  0  0
 15 16  2  0  0  0  0
 14 15  1  0  0  0  0
 14 20  2  0  0  0  0
 11 12  1  0  0  0  0
 11 13  1  0  0  0  0
 11 14  1  0  0  0  0
  9 10  1  0  0  0  0
  9 11  1  0  0  0  0
  9 22  1  0  0  0  0
  7  8  1  0  0  0  0
  7  9  1  0  0  0  0
 26 27  1  0  0  0  0
 26 28  1  0  0  0  0
 26 29  1  0  0  0  0
 24 25  1  0  0  0  0
 24 26  1  0  0  0  0
M  END
$$$$
default_name
  -OEChem-01062215323D

 29 29  0     1  0  0  0  0  0999 V2000
   -2.9561   -3.9186    1.3887 H   0  0  0  0  0  0  0  0  0  0  0  0
   -3.1191   -2.9346    0.9517 C   0  0  0  0  0  0  0  0  0  0  0  0
   -3.7811   -2.3546    1.5917 H   0  0  0  0  0  0  0  0  0  0  0  0
   -3.5591   -3.0406   -0.0383 H   0  0  0  0  0  0  0  0  0  0  0  0
   -1.7921   -2.2226    0.8327 C   0  0  0  0  0  0  0  0  0  0  0  0
   -0.7611   -2.7766    1.1927 O   0  0  0  0  0  0  0  0  0  0  0  0
   -1.8201   -0.9926    0.3247 N   0  0  0  0  0  0  0  0  0  0  0  0
   -2.7141   -0.5816    0.0927 H   0  0  0  0  0  0  0  0  0  0  0  0
   -0.6481   -0.1156    0.2017 C   0  0  1  0  0  0  0  0  0  0  0  0
   -0.5927    0.5062    1.0975 H   0  0  0  0  0  0  0  0  0  0  0  0
    0.6336   -0.9679    0.1267 C   0  0  0  0  0  0  0  0  0  0  0  0
    0.5545   -1.6822   -0.6942 H   0  0  0  0  0  0  0  0  0  0  0  0
    1.4919   -0.3265   -0.0779 H   0  0  0  0  0  0  0  0  0  0  0  0
    0.8866   -1.7590    1.3870 C   0  0  0  0  0  0  0  0  0  0  0  0
    1.3580   -1.2434    2.5950 N   0  0  0  0  0  0  0  0  0  0  0  0
    1.3881   -2.2757    3.4504 C   0  0  0  0  0  0  0  0  0  0  0  0
    1.7206   -2.2097    4.4787 H   0  0  0  0  0  0  0  0  0  0  0  0
    0.9404   -3.3931    2.8535 N   0  0  0  0  0  0  0  0  0  0  0  0
    0.8490   -4.2976    3.2955 H   0  0  0  0  0  0  0  0  0  0  0  0
    0.6151   -3.0858    1.5511 C   0  0  0  0  0  0  0  0  0  0  0  0
    0.2038   -3.7470    0.7987 H   0  0  0  0  0  0  0  0  0  0  0  0
   -0.7991    0.8280   -1.0049 C   0  0  0  0  0  0  0  0  0  0  0  0
   -0.0606    1.8064   -1.1180 O   0  0  0  0  0  0  0  0  0  0  0  0
   -1.7413    0.5352   -1.9067 N   0  0  0  0  0  0  0  0  0  0  0  0
   -2.3726   -0.2255   -1.6815 H   0  0  0  0  0  0  0  0  0  0  0  0
   -2.0103    1.3126   -3.1142 C   0  0  0  0  0  0  0  0  0  0  0  0
   -1.0767    1.7098   -3.5207 H   0  0  0  0  0  0  0  0  0  0  0  0
   -2.4856    0.6794   -3.8647 H   0  0  0  0  0  0  0  0  0  0  0  0
   -2.6720    2.1459   -2.8723 H   0  0  0  0  0  0  0  0  0  0  0  0
  5  6  2  0  0  0  0
  5  7  1  0  0  0  0
  2  3  1  0  0  0  0
  2  4  1  0  0  0  0
  2  5  1  0  0  0  0
  1  2  1  0  0  0  0
 22 23  2  0  0  0  0
 22 24  1  0  0  0  0
 20 21  1  0  0  0  0
 18 19  1  0  0  0  0
 18 20  1  0  0  0  0
 16 17  1  0  0  0  0
 16 18  1  0  0  0  0
 15 16  2  0  0  0  0
 14 15  1  0  0  0  0
 14 20  2  0  0  0  0
 11 12  1  0  0  0  0
 11 13  1  0  0  0  0
 11 14  1  0  0  0  0
  9 10  1  0  0  0  0
  9 11  1  0  0  0  0
  9 22  1  0  0  0  0
  7  8  1  0  0  0  0
  7  9  1  0  0  0  0
 26 27  1  0  0  0  0
 26 28  1  0  0  0  0
 26 29  1  0  0  0  0
 24 25  1  0  0  0  0
 24 26  1  0  0  0  0
M  END
$$$$
default_name
  -OEChem-01062215323D

 29 29  0     1  0  0  0  0  0999 V2000
   -2.9561   -3.9186    1.3887 H   0  0  0  0  0  0  0  0  0  0  0  0
   -3.1191   -2.9346    0.9517 C   0  0  0  0  0  0  0  0  0  0  0  0
   -3.7811   -2.3546    1.5917 H   0  0  0  0  0  0  0  0  0  0  0  0
   -3.5591   -3.0406   -0.0383 H   0  0  0  0  0  0  0  0  0  0  0  0
   -1.7921   -2.2226    0.8327 C   0  0  0  0  0  0  0  0  0  0  0  0
   -0.7611   -2.7766    1.1927 O   0  0  0  0  0  0  0  0  0  0  0  0
   -1.8201   -0.9926    0.3247 N   0  0  0  0  0  0  0  0  0  0  0  0
   -2.7141   -0.5816    0.0927 H   0  0  0  0  0  0  0  0  0  0  0  0
   -0.6481   -0.1156    0.2017 C   0  0  1  0  0  0  0  0  0  0  0  0
   -0.5927    0.5062    1.0975 H   0  0  0  0  0  0  0  0  0  0  0  0
    0.6336   -0.9679    0.1267 C   0  0  0  0  0  0  0  0  0  0  0  0
    0.5545   -1.6822   -0.6942 H   0  0  0  0  0  0  0  0  0  0  0  0
    1.4919   -0.3265   -0.0779 H   0  0  0  0  0  0  0  0  0  0  0  0
    0.8866   -1.7590    1.3870 C   0  0  0  0  0  0  0  0  0  0  0  0
    1.3580   -1.2434    2.5950 N   0  0  0  0  0  0  0  0  0  0  0  0
    1.3881   -2.2757    3.4504 C   0  0  0  0  0  0  0  0  0  0  0  0
    1.7206   -2.2097    4.4787 H   0  0  0  0  0  0  0  0  0  0  0  0
    0.9404   -3.3931    2.8535 N   0  0  0  0  0  0  0  0  0  0  0  0
    0.8490   -4.2976    3.2955 H   0  0  0  0  0  0  0  0  0  0  0  0
    0.6151   -3.0858    1.5511 C   0  0  0  0  0  0  0  0  0  0  0  0
    0.2038   -3.7470    0.7987 H   0  0  0  0  0  0  0  0  0  0  0  0
   -0.7991    0.8280   -1.0049 C   0  0  0  0  0  0  0  0  0  0  0  0
    0.0928    1.6332   -1.2726 O   0  0  0  0  0  0  0  0  0  0  0  0
   -1.9138    0.7264   -1.7356 N   0  0  0  0  0  0  0  0  0  0  0  0
   -2.6402    0.1133   -1.3831 H   0  0  0  0  0  0  0  0  0  0  0  0
   -2.2123    1.5315   -2.9177 C   0  0  0  0  0  0  0  0  0  0  0  0
   -1.2959    1.7253   -3.4812 H   0  0  0  0  0  0  0  0  0  0  0  0
   -2.9197    1.0025   -3.5578 H   0  0  0  0  0  0  0  0  0  0  0  0
   -2.6452    2.4849   -2.6105 H   0  0  0  0  0  0  0  0  0  0  0  0
  5  6  2  0  0  0  0
  5  7  1  0  0  0  0
  2  3  1  0  0  0  0
  2  4  1  0  0  0  0
  2  5  1  0  0  0  0
  1  2  1  0  0  0  0
 22 23  2  0  0  0  0
 22 24  1  0  0  0  0
 20 21  1  0  0  0  0
 18 19  1  0  0  0  0
 18 20  1  0  0  0  0
 16 17  1  0  0  0  0
 16 18  1  0  0  0  0
 15 16  2  0  0  0  0
 14 15  1  0  0  0  0
 14 20  2  0  0  0  0
 11 12  1  0  0  0  0
 11 13  1  0  0  0  0
 11 14  1  0  0  0  0
  9 10  1  0  0  0  0
  9 11  1  0  0  0  0
  9 22  1  0  0  0  0
  7  8  1  0  0  0  0
  7  9  1  0  0  0  0
 26 27  1  0  0  0  0
 26 28  1  0  0  0  0
 26 29  1  0  0  0  0
 24 25  1  0  0  0  0
 24 26  1  0  0  0  0
M  END
$$$$
default_name
  -OEChem-01062215323D

 29 29  0     1  0  0  0  0  0999 V2000
   -2.9561   -3.9186    1.3887 H   0  0  0  0  0  0  0  0  0  0  0  0
   -3.1191   -2.9346    0.9517 C   0  0  0  0  0  0  0  0  0  0  0  0
   -3.7811   -2.3546    1.5917 H   0  0  0  0  0  0  0  0  0  0  0  0
   -3.5591   -3.0406   -0.0383 H   0  0  0  0  0  0  0  0  0  0  0  0
   -1.7921   -2.2226    0.8327 C   0  0  0  0  0  0  0  0  0  0  0  0
   -0.7611   -2.7766    1.1927 O   0  0  0  0  0  0  0  0  0  0  0  0
   -1.8201   -0.9926    0.3247 N   0  0  0  0  0  0  0  0  0  0  0  0
   -2.7141   -0.5816    0.0927 H   0  0  0  0  0  0  0  0  0  0  0  0
   -0.6481   -0.1156    0.2017 C   0  0  1  0  0  0  0  0  0  0  0  0
   -0.5927    0.5062    1.0975 H   0  0  0  0  0  0  0  0  0  0  0  0
    0.6336   -0.9679    0.1267 C   0  0  0  0  0  0  0  0  0  0  0  0
    0.5545   -1.6822   -0.6942 H   0  0  0  0  0  0  0  0  0  0  0  0
    1.4919   -0.3265   -0.0779 H   0  0  0  0  0  0  0  0  0  0  0  0
    0.8866   -1.7590    1.3870 C   0  0  0  0  0  0  0  0  0  0  0  0
    1.3580   -1.2434    2.5950 N   0  0  0  0  0  0  0  0  0  0  0  0
    1.3881   -2.2757    3.4504 C   0  0  0  0  0  0  0  0  0  0  0  0
    1.7206   -2.2097    4.4787 H   0  0  0  0  0  0  0  0  0  0  0  0
    0.9404   -3.3931    2.8535 N   0  0  0  0  0  0  0  0  0  0  0  0
    0.8490   -4.2976    3.2955 H   0  0  0  0  0  0  0  0  0  0  0  0
    0.6151   -3.0858    1.5511 C   0  0  0  0  0  0  0  0  0  0  0  0
    0.2038   -3.7470    0.7987 H   0  0  0  0  0  0  0  0  0  0  0  0
   -0.7991    0.8280   -1.0049 C   0  0  0  0  0  0  0  0  0  0  0  0
    0.1812    1.4309   -1.4418 O   0  0  0  0  0  0  0  0  0  0  0  0
   -2.0144    0.9505   -1.5479 N   0  0  0  0  0  0  0  0  0  0  0  0
   -2.7826    0.5025   -1.0610 H   0  0  0  0  0  0  0  0  0  0  0  0
   -2.3318    1.7890   -2.7015 C   0  0  0  0  0  0  0  0  0  0  0  0
   -1.4983    1.7858   -3.4086 H   0  0  0  0  0  0  0  0  0  0  0  0
   -3.2248    1.4104   -3.2006 H   0  0  0  0  0  0  0  0  0  0  0  0
   -2.5091    2.8136   -2.3705 H   0  0  0  0  0  0  0  0  0  0  0  0
  5  6  2  0  0  0  0
  5  7  1  0  0  0  0
  2  3  1  0  0  0  0
  2  4  1  0  0  0  0
  2  5  1  0  0  0  0
  1  2  1  0  0  0  0
 22 23  2  0  0  0  0
 22 24  1  0  0  0  0
 20 21  1  0  0  0  0
 18 19  1  0  0  0  0
 18 20  1  0  0  0  0
 16 17  1  0  0  0  0
 16 18  1  0  0  0  0
 15 16  2  0  0  0  0
 14 15  1  0  0  0  0
 14 20  2  0  0  0  0
 11 12  1  0  0  0  0
 11 13  1  0  0  0  0
 11 14  1  0  0  0  0
  9 10  1  0  0  0  0
  9 11  1  0  0  0  0
  9 22  1  0  0  0  0
  7  8  1  0  0  0  0
  7  9  1  0  0  0  0
 26 27  1  0  0  0  0
 26 28  1  0  0  0  0
 26 29  1  0  0  0  0
 24 25  1  0  0  0  0
 24 26  1  0  0  0  0
M  END
$$$$
default_name
  -OEChem-01062215323D

 29 29  0     1  0  0  0  0  0999 V2000
   -2.9561   -3.9186    1.3887 H   0  0  0  0  0  0  0  0  0  0  0  0
   -3.1191   -2.9346    0.9517 C   0  0  0  0  0  0  0  0  0  0  0  0
   -3.7811   -2.3546    1.5917 H   0  0  0  0  0  0  0  0  0  0  0  0
   -3.5591   -3.0406   -0.0383 H   0  0  0  0  0  0  0  0  0  0  0  0
   -1.7921   -2.2226    0.8327 C   0  0  0  0  0  0  0  0  0  0  0  0
   -0.7611   -2.7766    1.1927 O   0  0  0  0  0  0  0  0  0  0  0  0
   -1.8201   -0.9926    0.3247 N   0  0  0  0  0  0  0  0  0  0  0  0
   -2.7141   -0.5816    0.0927 H   0  0  0  0  0  0  0  0  0  0  0  0
   -0.6481   -0.1156    0.2017 C   0  0  1  0  0  0  0  0  0  0  0  0
   -0.5927    0.5062    1.0975 H   0  0  0  0  0  0  0  0  0  0  0  0
    0.6336   -0.9679    0.1267 C   0  0  0  0  0  0  0  0  0  0  0  0
    0.5545   -1.6822   -0.6942 H   0  0  0  0  0  0  0  0  0  0  0  0
    1.4919   -0.3265   -0.0779 H   0  0  0  0  0  0  0  0  0  0  0  0
    0.8866   -1.7590    1.3870 C   0  0  0  0  0  0  0  0  0  0  0  0
    1.3580   -1.2434    2.5950 N   0  0  0  0  0  0  0  0  0  0  0  0
    1.3881   -2.2757    3.4504 C   0  0  0  0  0  0  0  0  0  0  0  0
    1.7206   -2.2097    4.4787 H   0  0  0  0  0  0  0  0  0  0  0  0
    0.9404   -3.3931    2.8535 N   0  0  0  0  0  0  0  0  0  0  0  0
    0.8490   -4.2976    3.2955 H   0  0  0  0  0  0  0  0  0  0  0  0
    0.6151   -3.0858    1.5511 C   0  0  0  0  0  0  0  0  0  0  0  0
    0.2038   -3.7470    0.7987 H   0  0  0  0  0  0  0  0  0  0  0  0
   -0.7991    0.8280   -1.0049 C   0  0  0  0  0  0  0  0  0  0  0  0
    0.1988    1.2132   -1.6142 O   0  0  0  0  0  0  0  0  0  0  0  0
   -2.0363    1.1921   -1.3562 N   0  0  0  0  0  0  0  0  0  0  0  0
   -2.7901    0.9154   -0.7371 H   0  0  0  0  0  0  0  0  0  0  0  0
   -2.3606    2.0674   -2.4801 C   0  0  0  0  0  0  0  0  0  0  0  0
   -1.6700    1.8871   -3.3079 H   0  0  0  0  0  0  0  0  0  0  0  0
   -3.3801    1.8754   -2.8176 H   0  0  0  0  0  0  0  0  0  0  0  0
   -2.2728    3.1095   -2.1687 H   0  0  0  0  0  0  0  0  0  0  0  0
  5  6  2  0  0  0  0
  5  7  1  0  0  0  0
  2  3  1  0  0  0  0
  2  4  1  0  0  0  0
  2  5  1  0  0  0  0
  1  2  1  0  0  0  0
 22 23  2  0  0  0  0
 22 24  1  0  0  0  0
 20 21  1  0  0  0  0
 18 19  1  0  0  0  0
 18 20  1  0  0  0  0
 16 17  1  0  0  0  0
 16 18  1  0  0  0  0
 15 16  2  0  0  0  0
 14 15  1  0  0  0  0
 14 20  2  0  0  0  0
 11 12  1  0  0  0  0
 11 13  1  0  0  0  0
 11 14  1  0  0  0  0
  9 10  1  0  0  0  0
  9 11  1  0  0  0  0
  9 22  1  0  0  0  0
  7  8  1  0  0  0  0
  7  9  1  0  0  0  0
 26 27  1  0  0  0  0
 26 28  1  0  0  0  0
 26 29  1  0  0  0  0
 24 25  1  0  0  0  0
 24 26  1  0  0  0  0
M  END
$$$$
default_name
  -OEChem-01062215323D

 29 29  0     1  0  0  0  0  0999 V2000
   -2.9561   -3.9186    1.3887 H   0  0  0  0  0  0  0  0  0  0  0  0
   -3.1191   -2.9346    0.9517 C   0  0  0  0  0  0  0  0  0  0  0  0
   -3.7811   -2.3546    1.5917 H   0  0  0  0  0  0  0  0  0  0  0  0
   -3.5591   -3.0406   -0.0383 H   0  0  0  0  0  0  0  0  0  0  0  0
   -1.7921   -2.2226    0.8327 C   0  0  0  0  0  0  0  0  0  0  0  0
   -0.7611   -2.7766    1.1927 O   0  0  0  0  0  0  0  0  0  0  0  0
   -1.8201   -0.9926    0.3247 N   0  0  0  0  0  0  0  0  0  0  0  0
   -2.7141   -0.5816    0.0927 H   0  0  0  0  0  0  0  0  0  0  0  0
   -0.6481   -0.1156    0.2017 C   0  0  1  0  0  0  0  0  0  0  0  0
   -0.5927    0.5062    1.0975 H   0  0  0  0  0  0  0  0  0  0  0  0
    0.6336   -0.9679    0.1267 C   0  0  0  0  0  0  0  0  0  0  0  0
    0.5545   -1.6822   -0.6942 H   0  0  0  0  0  0  0  0  0  0  0  0
    1.4919   -0.3265   -0.0779 H   0  0  0  0  0  0  0  0  0  0  0  0
    0.8866   -1.7590    1.3870 C   0  0  0  0  0  0  0  0  0  0  0  0
    1.3580   -1.2434    2.5950 N   0  0  0  0  0  0  0  0  0  0  0  0
    1.3881   -2.2757    3.4504 C   0  0  0  0  0  0  0  0  0  0  0  0
    1.7206   -2.2097    4.4787 H   0  0  0  0  0  0  0  0  0  0  0  0
    0.9404   -3.3931    2.8535 N   0  0  0  0  0  0  0  0  0  0  0  0
    0.8490   -4.2976    3.2955 H   0  0  0  0  0  0  0  0  0  0  0  0
    0.6151   -3.0858    1.5511 C   0  0  0  0  0  0  0  0  0  0  0  0
    0.2038   -3.7470    0.7987 H   0  0  0  0  0  0  0  0  0  0  0  0
   -0.7991    0.8280   -1.0049 C   0  0  0  0  0  0  0  0  0  0  0  0
    0.1442    0.9950   -1.7780 O   0  0  0  0  0  0  0  0  0  0  0  0
   -1.9781    1.4347   -1.1737 N   0  0  0  0  0  0  0  0  0  0  0  0
   -2.6622    1.3240   -0.4336 H   0  0  0  0  0  0  0  0  0  0  0  0
   -2.2969    2.3478   -2.2688 C   0  0  0  0  0  0  0  0  0  0  0  0
   -1.7993    2.0223   -3.1860 H   0  0  0  0  0  0  0  0  0  0  0  0
   -3.3750    2.3658   -2.4348 H   0  0  0  0  0  0  0  0  0  0  0  0
   -1.9525    3.3526   -2.0187 H   0  0  0  0  0  0  0  0  0  0  0  0
  5  6  2  0  0  0  0
  5  7  1  0  0  0  0
  2  3  1  0  0  0  0
  2  4  1  0  0  0  0
  2  5  1  0  0  0  0
  1  2  1  0  0  0  0
 22 23  2  0  0  0  0
 22 24  1  0  0  0  0
 20 21  1  0  0  0  0
 18 19  1  0  0  0  0
 18 20  1  0  0  0  0
 16 17  1  0  0  0  0
 16 18  1  0  0  0  0
 15 16  2  0  0  0  0
 14 15  1  0  0  0  0
 14 20  2  0  0  0  0
 11 12  1  0  0  0  0
 11 13  1  0  0  0  0
 11 14  1  0  0  0  0
  9 10  1  0  0  0  0
  9 11  1  0  0  0  0
  9 22  1  0  0  0  0
  7  8  1  0  0  0  0
  7  9  1  0  0  0  0
 26 27  1  0  0  0  0
 26 28  1  0  0  0  0
 26 29  1  0  0  0  0
 24 25  1  0  0  0  0
 24 26  1  0  0  0  0
M  END
$$$$
default_name
  -OEChem-01062215323D

 29 29  0     1  0  0  0  0  0999 V2000
   -2.9561   -3.9186    1.3887 H   0  0  0  0  0  0  0  0  0  0  0  0
   -3.1191   -2.9346    0.9517 C   0  0  0  0  0  0  0  0  0  0  0  0
   -3.7811   -2.3546    1.5917 H   0  0  0  0  0  0  0  0  0  0  0  0
   -3.5591   -3.0406   -0.0383 H   0  0  0  0  0  0  0  0  0  0  0  0
   -1.7921   -2.2226    0.8327 C   0  0  0  0  0  0  0  0  0  0  0  0
   -0.7611   -2.7766    1.1927 O   0  0  0  0  0  0  0  0  0  0  0  0
   -1.8201   -0.9926    0.3247 N   0  0  0  0  0  0  0  0  0  0  0  0
   -2.7141   -0.5816    0.0927 H   0  0  0  0  0  0  0  0  0  0  0  0
   -0.6481   -0.1156    0.2017 C   0  0  1  0  0  0  0  0  0  0  0  0
   -0.5927    0.5062    1.0975 H   0  0  0  0  0  0  0  0  0  0  0  0
    0.6336   -0.9679    0.1267 C   0  0  0  0  0  0  0  0  0  0  0  0
    0.5545   -1.6822   -0.6942 H   0  0  0  0  0  0  0  0  0  0  0  0
    1.4919   -0.3265   -0.0779 H   0  0  0  0  0  0  0  0  0  0  0  0
    0.8866   -1.7590    1.3870 C   0  0  0  0  0  0  0  0  0  0  0  0
    1.3580   -1.2434    2.5950 N   0  0  0  0  0  0  0  0  0  0  0  0
    1.3881   -2.2757    3.4504 C   0  0  0  0  0  0  0  0  0  0  0  0
    1.7206   -2.2097    4.4787 H   0  0  0  0  0  0  0  0  0  0  0  0
    0.9404   -3.3931    2.8535 N   0  0  0  0  0  0  0  0  0  0  0  0
    0.8490   -4.2976    3.2955 H   0  0  0  0  0  0  0  0  0  0  0  0
    0.6151   -3.0858    1.5511 C   0  0  0  0  0  0  0  0  0  0  0  0
    0.2038   -3.7470    0.7987 H   0  0  0  0  0  0  0  0  0  0  0  0
   -0.7991    0.8280   -1.0049 C   0  0  0  0  0  0  0  0  0  0  0  0
    0.0213    0.7912   -1.9221 O   0  0  0  0  0  0  0  0  0  0  0  0
   -1.8437    1.6620   -1.0129 N   0  0  0  0  0  0  0  0  0  0  0  0
   -2.4075    1.7005   -0.1711 H   0  0  0  0  0  0  0  0  0  0  0  0
   -2.1449    2.6111   -2.0820 C   0  0  0  0  0  0  0  0  0  0  0  0
   -1.8774    2.1823   -3.0511 H   0  0  0  0  0  0  0  0  0  0  0  0
   -3.2098    2.8482   -2.0782 H   0  0  0  0  0  0  0  0  0  0  0  0
   -1.5700    3.5261   -1.9308 H   0  0  0  0  0  0  0  0  0  0  0  0
  5  6  2  0  0  0  0
  5  7  1  0  0  0  0
  2  3  1  0  0  0  0
  2  4  1  0  0  0  0
  2  5  1  0  0  0  0
  1  2  1  0  0  0  0
 22 23  2  0  0  0  0
 22 24  1  0  0  0  0
 20 21  1  0  0  0  0
 18 19  1  0  0  0  0
 18 20  1  0  0  0  0
 16 17  1  0  0  0  0
 16 18  1  0  0  0  0
 15 16  2  0  0  0  0
 14 15  1  0  0  0  0
 14 20  2  0  0  0  0
 11 12  1  0  0  0  0
 11 13  1  0  0  0  0
 11 14  1  0  0  0  0
  9 10  1  0  0  0  0
  9 11  1  0  0  0  0
  9 22  1  0  0  0  0
  7  8  1  0  0  0  0
  7  9  1  0  0  0  0
 26 27  1  0  0  0  0
 26 28  1  0  0  0  0
 26 29  1  0  0  0  0
 24 25  1  0  0  0  0
 24 26  1  0  0  0  0
M  END
$$$$
default_name
  -OEChem-01062215323D

 29 29  0     1  0  0  0  0  0999 V2000
   -2.9561   -3.9186    1.3887 H   0  0  0  0  0  0  0  0  0  0  0  0
   -3.1191   -2.9346    0.9517 C   0  0  0  0  0  0  0  0  0  0  0  0
   -3.7811   -2.3546    1.5917 H   0  0  0  0  0  0  0  0  0  0  0  0
   -3.5591   -3.0406   -0.0383 H   0  0  0  0  0  0  0  0  0  0  0  0
   -1.7921   -2.2226    0.8327 C   0  0  0  0  0  0  0  0  0  0  0  0
   -0.7611   -2.7766    1.1927 O   0  0  0  0  0  0  0  0  0  0  0  0
   -1.8201   -0.9926    0.3247 N   0  0  0  0  0  0  0  0  0  0  0  0
   -2.7141   -0.5816    0.0927 H   0  0  0  0  0  0  0  0  0  0  0  0
   -0.6481   -0.1156    0.2017 C   0  0  1  0  0  0  0  0  0  0  0  0
   -0.5927    0.5062    1.0975 H   0  0  0  0  0  0  0  0  0  0  0  0
    0.6336   -0.9679    0.1267 C   0  0  0  0  0  0  0  0  0  0  0  0
    0.5545   -1.6822   -0.6942 H   0  0  0  0  0  0  0  0  0  0  0  0
    1.4919   -0.3265   -0.0779 H   0  0  0  0  0  0  0  0  0  0  0  0
    0.8866   -1.7590    1.3870 C   0  0  0  0  0  0  0  0  0  0  0  0
    1.3580   -1.2434    2.5950 N   0  0  0  0  0  0  0  0  0  0  0  0
    1.3881   -2.2757    3.4504 C   0  0  0  0  0  0  0  0  0  0  0  0
    1.7206   -2.2097    4.4787 H   0  0  0  0  0  0  0  0  0  0  0  0
    0.9404   -3.3931    2.8535 N   0  0  0  0  0  0  0  0  0  0  0  0
    0.8490   -4.2976    3.2955 H   0  0  0  0  0  0  0  0  0  0  0  0
    0.6151   -3.0858    1.5511 C   0  0  0  0  0  0  0  0  0  0  0  0
    0.2038   -3.7470    0.7987 H   0  0  0  0  0  0  0  0  0  0  0  0
   -0.7991    0.8280   -1.0049 C   0  0  0  0  0  0  0  0  0  0  0  0
   -0.1617    0.6156   -2.0365 O   0  0  0  0  0  0  0  0  0  0  0  0
   -1.6422    1.8582   -0.8846 N   0  0  0  0  0  0  0  0  0  0  0  0
   -2.0435    2.0191    0.0325 H   0  0  0  0  0  0  0  0  0  0  0  0
   -1.9151    2.8393   -1.9322 C   0  0  0  0  0  0  0  0  0  0  0  0
   -1.8990    2.3561   -2.9125 H   0  0  0  0  0  0  0  0  0  0  0  0
   -2.8958    3.2896   -1.7723 H   0  0  0  0  0  0  0  0  0  0  0  0
   -1.1514    3.6184   -1.9110 H   0  0  0  0  0  0  0  0  0  0  0  0
  5  6  2  0  0  0  0
  5  7  1  0  0  0  0
  2  3  1  0  0  0  0
  2  4  1  0  0  0  0
  2  5  1  0  0  0  0
  1  2  1  0  0  0  0
 22 23  2  0  0  0  0
 22 24  1  0  0  0  0
 20 21  1  0  0  0  0
 18 19  1  0  0  0  0
 18 20  1  0  0  0  0
 16 17  1  0  0  0  0
 16 18  1  0  0  0  0
 15 16  2  0  0  0  0
 14 15  1  0  0  0  0
 14 20  2  0  0  0  0
 11 12  1  0  0  0  0
 11 13  1  0  0  0  0
 11 14  1  0  0  0  0
  9 10  1  0  0  0  0
  9 11  1  0  0  0  0
  9 22  1  0  0  0  0
  7  8  1  0  0  0  0
  7  9  1  0  0  0  0
 26 27  1  0  0  0  0
 26 28  1  0  0  0  0
 26 29  1  0  0  0  0
 24 25  1  0  0  0  0
 24 26  1  0  0  0  0
M  END
$$$$
default_name
  -OEChem-01062215323D

 29 29  0     1  0  0  0  0  0999 V2000
   -2.9561   -3.9186    1.3887 H   0  0  0  0  0  0  0  0  0  0  0  0
   -3.1191   -2.9346    0.9517 C   0  0  0  0  0  0  0  0  0  0  0  0
   -3.7811   -2.3546    1.5917 H   0  0  0  0  0  0  0  0  0  0  0  0
   -3.5591   -3.0406   -0.0383 H   0  0  0  0  0  0  0  0  0  0  0  0
   -1.7921   -2.2226    0.8327 C   0  0  0  0  0  0  0  0  0  0  0  0
   -0.7611   -2.7766    1.1927 O   0  0  0  0  0  0  0  0  0  0  0  0
   -1.8201   -0.9926    0.3247 N   0  0  0  0  0  0  0  0  0  0  0  0
   -2.7141   -0.5816    0.0927 H   0  0  0  0  0  0  0  0  0  0  0  0
   -0.6481   -0.1156    0.2017 C   0  0  1  0  0  0  0  0  0  0  0  0
   -0.5927    0.5062    1.0975 H   0  0  0  0  0  0  0  0  0  0  0  0
    0.6336   -0.9679    0.1267 C   0  0  0  0  0  0  0  0  0  0  0  0
    0.5545   -1.6822   -0.6942 H   0  0  0  0  0  0  0  0  0  0  0  0
    1.4919   -0.3265   -0.0779 H   0  0  0  0  0  0  0  0  0  0  0  0
    0.8866   -1.7590    1.3870 C   0  0  0  0  0  0  0  0  0  0  0  0
    1.3580   -1.2434    2.5950 N   0  0  0  0  0  0  0  0  0  0  0  0
    1.3881   -2.2757    3.4504 C   0  0  0  0  0  0  0  0  0  0  0  0
    1.7206   -2.2097    4.4787 H   0  0  0  0  0  0  0  0  0  0  0  0
    0.9404   -3.3931    2.8535 N   0  0  0  0  0  0  0  0  0  0  0  0
    0.8490   -4.2976    3.2955 H   0  0  0  0  0  0  0  0  0  0  0  0
    0.6151   -3.0858    1.5511 C   0  0  0  0  0  0  0  0  0  0  0  0
    0.2038   -3.7470    0.7987 H   0  0  0  0  0  0  0  0  0  0  0  0
   -0.7991    0.8280   -1.0049 C   0  0  0  0  0  0  0  0  0  0  0  0
   -0.3922    0.4802   -2.1135 O   0  0  0  0  0  0  0  0  0  0  0  0
   -1.3874    2.0102   -0.7976 N   0  0  0  0  0  0  0  0  0  0  0  0
   -1.5949    2.2581    0.1633 H   0  0  0  0  0  0  0  0  0  0  0  0
   -1.6230    3.0169   -1.8299 C   0  0  0  0  0  0  0  0  0  0  0  0
   -1.8626    2.5318   -2.7796 H   0  0  0  0  0  0  0  0  0  0  0  0
   -2.4544    3.6601   -1.5378 H   0  0  0  0  0  0  0  0  0  0  0  0
   -0.7251    3.6231   -1.9606 H   0  0  0  0  0  0  0  0  0  0  0  0
  5  6  2  0  0  0  0
  5  7  1  0  0  0  0
  2  3  1  0  0  0  0
  2  4  1  0  0  0  0
  2  5  1  0  0  0  0
  1  2  1  0  0  0  0
 22 23  2  0  0  0  0
 22 24  1  0  0  0  0
 20 21  1  0  0  0  0
 18 19  1  0  0  0  0
 18 20  1  0  0  0  0
 16 17  1  0  0  0  0
 16 18  1  0  0  0  0
 15 16  2  0  0  0  0
 14 15  1  0  0  0  0
 14 20  2  0  0  0  0
 11 12  1  0  0  0  0
 11 13  1  0  0  0  0
 11 14  1  0  0  0  0
  9 10  1  0  0  0  0
  9 11  1  0  0  0  0
  9 22  1  0  0  0  0
  7  8  1  0  0  0  0
  7  9  1  0  0  0  0
 26 27  1  0  0  0  0
 26 28  1  0  0  0  0
 26 29  1  0  0  0  0
 24 25  1  0  0  0  0
 24 26  1  0  0  0  0
M  END
$$$$
default_name
  -OEChem-01062215323D

 29 29  0     1  0  0  0  0  0999 V2000
   -2.9561   -3.9186    1.3887 H   0  0  0  0  0  0  0  0  0  0  0  0
   -3.1191   -2.9346    0.9517 C   0  0  0  0  0  0  0  0  0  0  0  0
   -3.7811   -2.3546    1.5917 H   0  0  0  0  0  0  0  0  0  0  0  0
   -3.5591   -3.0406   -0.0383 H   0  0  0  0  0  0  0  0  0  0  0  0
   -1.7921   -2.2226    0.8327 C   0  0  0  0  0  0  0  0  0  0  0  0
   -0.7611   -2.7766    1.1927 O   0  0  0  0  0  0  0  0  0  0  0  0
   -1.8201   -0.9926    0.3247 N   0  0  0  0  0  0  0  0  0  0  0  0
   -2.7141   -0.5816    0.0927 H   0  0  0  0  0  0  0  0  0  0  0  0
   -0.6481   -0.1156    0.2017 C   0  0  1  0  0  0  0  0  0  0  0  0
   -0.5927    0.5062    1.0975 H   0  0  0  0  0  0  0  0  0  0  0  0
    0.6336   -0.9679    0.1267 C   0  0  0  0  0  0  0  0  0  0  0  0
    0.5545   -1.6822   -0.6942 H   0  0  0  0  0  0  0  0  0  0  0  0
    1.4919   -0.3265   -0.0779 H   0  0  0  0  0  0  0  0  0  0  0  0
    0.8866   -1.7590    1.3870 C   0  0  0  0  0  0  0  0  0  0  0  0
    1.3580   -1.2434    2.5950 N   0  0  0  0  0  0  0  0  0  0  0  0
    1.3881   -2.2757    3.4504 C   0  0  0  0  0  0  0  0  0  0  0  0
    1.7206   -2.2097    4.4787 H   0  0  0  0  0  0  0  0  0  0  0  0
    0.9404   -3.3931    2.8535 N   0  0  0  0  0  0  0  0  0  0  0  0
    0.8490   -4.2976    3.2955 H   0  0  0  0  0  0  0  0  0  0  0  0
    0.6151   -3.0858    1.5511 C   0  0  0  0  0  0  0  0  0  0  0  0
    0.2038   -3.7470    0.7987 H   0  0  0  0  0  0  0  0  0  0  0  0
   -0.7991    0.8280   -1.0049 C   0  0  0  0  0  0  0  0  0  0  0  0
   -0.6546    0.3942   -2.1479 O   0  0  0  0  0  0  0  0  0  0  0  0
   -1.0966    2.1075   -0.7579 N   0  0  0  0  0  0  0  0  0  0  0  0
   -1.0924    2.4013    0.2125 H   0  0  0  0  0  0  0  0  0  0  0  0
   -1.2886    3.1318   -1.7819 C   0  0  0  0  0  0  0  0  0  0  0  0
   -1.7707    2.6976   -2.6615 H   0  0  0  0  0  0  0  0  0  0  0  0
   -1.9156    3.9343   -1.3908 H   0  0  0  0  0  0  0  0  0  0  0  0
   -0.3203    3.5399   -2.0763 H   0  0  0  0  0  0  0  0  0  0  0  0
  5  6  2  0  0  0  0
  5  7  1  0  0  0  0
  2  3  1  0  0  0  0
  2  4  1  0  0  0  0
  2  5  1  0  0  0  0
  1  2  1  0  0  0  0
 22 23  2  0  0  0  0
 22 24  1  0  0  0  0
 20 21  1  0  0  0  0
 18 19  1  0  0  0  0
 18 20  1  0  0  0  0
 16 17  1  0  0  0  0
 16 18  1  0  0  0  0
 15 16  2  0  0  0  0
 14 15  1  0  0  0  0
 14 20  2  0  0  0  0
 11 12  1  0  0  0  0
 11 13  1  0  0  0  0
 11 14  1  0  0  0  0
  9 10  1  0  0  0  0
  9 11  1  0  0  0  0
  9 22  1  0  0  0  0
  7  8  1  0  0  0  0
  7  9  1  0  0  0  0
 26 27  1  0  0  0  0
 26 28  1  0  0  0  0
 26 29  1  0  0  0  0
 24 25  1  0  0  0  0
 24 26  1  0  0  0  0
M  END
$$$$
default_name
  -OEChem-01062215323D

 29 29  0     1  0  0  0  0  0999 V2000
   -2.9561   -3.9186    1.3887 H   0  0  0  0  0  0  0  0  0  0  0  0
   -3.1191   -2.9346    0.9517 C   0  0  0  0  0  0  0  0  0  0  0  0
   -3.7811   -2.3546    1.5917 H   0  0  0  0  0  0  0  0  0  0  0  0
   -3.5591   -3.0406   -0.0383 H   0  0  0  0  0  0  0  0  0  0  0  0
   -1.7921   -2.2226    0.8327 C   0  0  0  0  0  0  0  0  0  0  0  0
   -0.7611   -2.7766    1.1927 O   0  0  0  0  0  0  0  0  0  0  0  0
   -1.8201   -0.9926    0.3247 N   0  0  0  0  0  0  0  0  0  0  0  0
   -2.7141   -0.5816    0.0927 H   0  0  0  0  0  0  0  0  0  0  0  0
   -0.6481   -0.1156    0.2017 C   0  0  1  0  0  0  0  0  0  0  0  0
   -0.5927    0.5062    1.0975 H   0  0  0  0  0  0  0  0  0  0  0  0
    0.6336   -0.9679    0.1267 C   0  0  0  0  0  0  0  0  0  0  0  0
    0.5545   -1.6822   -0.6942 H   0  0  0  0  0  0  0  0  0  0  0  0
    1.4919   -0.3265   -0.0779 H   0  0  0  0  0  0  0  0  0  0  0  0
    0.8866   -1.7590    1.3870 C   0  0  0  0  0  0  0  0  0  0  0  0
    1.3580   -1.2434    2.5950 N   0  0  0  0  0  0  0  0  0  0  0  0
    1.3881   -2.2757    3.4504 C   0  0  0  0  0  0  0  0  0  0  0  0
    1.7206   -2.2097    4.4787 H   0  0  0  0  0  0  0  0  0  0  0  0
    0.9404   -3.3931    2.8535 N   0  0  0  0  0  0  0  0  0  0  0  0
    0.8490   -4.2976    3.2955 H   0  0  0  0  0  0  0  0  0  0  0  0
    0.6151   -3.0858    1.5511 C   0  0  0  0  0  0  0  0  0  0  0  0
    0.2038   -3.7470    0.7987 H   0  0  0  0  0  0  0  0  0  0  0  0
   -0.7991    0.8280   -1.0049 C   0  0  0  0  0  0  0  0  0  0  0  0
   -0.9309    0.3636   -2.1373 O   0  0  0  0  0  0  0  0  0  0  0  0
   -0.7897    2.1435   -0.7681 N   0  0  0  0  0  0  0  0  0  0  0  0
   -0.5701    2.4390    0.1766 H   0  0  0  0  0  0  0  0  0  0  0  0
   -0.9347    3.1761   -1.7915 C   0  0  0  0  0  0  0  0  0  0  0  0
   -1.6296    2.8420   -2.5662 H   0  0  0  0  0  0  0  0  0  0  0  0
   -1.3162    4.0936   -1.3412 H   0  0  0  0  0  0  0  0  0  0  0  0
    0.0354    3.3745   -2.2502 H   0  0  0  0  0  0  0  0  0  0  0  0
  5  6  2  0  0  0  0
  5  7  1  0  0  0  0
  2  3  1  0  0  0  0
  2  4  1  0  0  0  0
  2  5  1  0  0  0  0
  1  2  1  0  0  0  0
 22 23  2  0  0  0  0
 22 24  1  0  0  0  0
 20 21  1  0  0  0  0
 18 19  1  0  0  0  0
 18 20  1  0  0  0  0
 16 17  1  0  0  0  0
 16 18  1  0  0  0  0
 15 16  2  0  0  0  0
 14 15  1  0  0  0  0
 14 20  2  0  0  0  0
 11 12  1  0  0  0  0
 11 13  1  0  0  0  0
 11 14  1  0  0  0  0
  9 10  1  0  0  0  0
  9 11  1  0  0  0  0
  9 22  1  0  0  0  0
  7  8  1  0  0  0  0
  7  9  1  0  0  0  0
 26 27  1  0  0  0  0
 26 28  1  0  0  0  0
 26 29  1  0  0  0  0
 24 25  1  0  0  0  0
 24 26  1  0  0  0  0
M  END
$$$$
default_name
  -OEChem-01062215323D

 29 29  0     1  0  0  0  0  0999 V2000
   -2.9561   -3.9186    1.3887 H   0  0  0  0  0  0  0  0  0  0  0  0
   -3.1191   -2.9346    0.9517 C   0  0  0  0  0  0  0  0  0  0  0  0
   -3.7811   -2.3546    1.5917 H   0  0  0  0  0  0  0  0  0  0  0  0
   -3.5591   -3.0406   -0.0383 H   0  0  0  0  0  0  0  0  0  0  0  0
   -1.7921   -2.2226    0.8327 C   0  0  0  0  0  0  0  0  0  0  0  0
   -0.7611   -2.7766    1.1927 O   0  0  0  0  0  0  0  0  0  0  0  0
   -1.8201   -0.9926    0.3247 N   0  0  0  0  0  0  0  0  0  0  0  0
   -2.7141   -0.5816    0.0927 H   0  0  0  0  0  0  0  0  0  0  0  0
   -0.6481   -0.1156    0.2017 C   0  0  1  0  0  0  0  0  0  0  0  0
   -0.5927    0.5062    1.0975 H   0  0  0  0  0  0  0  0  0  0  0  0
    0.6336   -0.9679    0.1267 C   0  0  0  0  0  0  0  0  0  0  0  0
    0.5545   -1.6822   -0.6942 H   0  0  0  0  0  0  0  0  0  0  0  0
    1.4919   -0.3265   -0.0779 H   0  0  0  0  0  0  0  0  0  0  0  0
    0.8866   -1.7590    1.3870 C   0  0  0  0  0  0  0  0  0  0  0  0
    1.3580   -1.2434    2.5950 N   0  0  0  0  0  0  0  0  0  0  0  0
    1.3881   -2.2757    3.4504 C   0  0  0  0  0  0  0  0  0  0  0  0
    1.7206   -2.2097    4.4787 H   0  0  0  0  0  0  0  0  0  0  0  0
    0.9404   -3.3931    2.8535 N   0  0  0  0  0  0  0  0  0  0  0  0
    0.8490   -4.2976    3.2955 H   0  0  0  0  0  0  0  0  0  0  0  0
    0.6151   -3.0858    1.5511 C   0  0  0  0  0  0  0  0  0  0  0  0
    0.2038   -3.7470    0.7987 H   0  0  0  0  0  0  0  0  0  0  0  0
   -0.7991    0.8280   -1.0049 C   0  0  0  0  0  0  0  0  0  0  0  0
   -1.2024    0.3903   -2.0825 O   0  0  0  0  0  0  0  0  0  0  0  0
   -0.4876    2.1157   -0.8276 N   0  0  0  0  0  0  0  0  0  0  0  0
   -0.0637    2.3684    0.0581 H   0  0  0  0  0  0  0  0  0  0  0  0
   -0.5853    3.1469   -1.8580 C   0  0  0  0  0  0  0  0  0  0  0  0
   -1.4488    2.9554   -2.5002 H   0  0  0  0  0  0  0  0  0  0  0  0
   -0.6971    4.1271   -1.3924 H   0  0  0  0  0  0  0  0  0  0  0  0
    0.3179    3.1381   -2.4704 H   0  0  0  0  0  0  0  0  0  0  0  0
  5  6  2  0  0  0  0
  5  7  1  0  0  0  0
  2  3  1  0  0  0  0
  2  4  1  0  0  0  0
  2  5  1  0  0  0  0
  1  2  1  0  0  0  0
 22 23  2  0  0  0  0
 22 24  1  0  0  0  0
 20 21  1  0  0  0  0
 18 19  1  0  0  0  0
 18 20  1  0  0  0  0
 16 17  1  0  0  0  0
 16 18  1  0  0  0  0
 15 16  2  0  0  0  0
 14 15  1  0  0  0  0
 14 20  2  0  0  0  0
 11 12  1  0  0  0  0
 11 13  1  0  0  0  0
 11 14  1  0  0  0  0
  9 10  1  0  0  0  0
  9 11  1  0  0  0  0
  9 22  1  0  0  0  0
  7  8  1  0  0  0  0
  7  9  1  0  0  0  0
 26 27  1  0  0  0  0
 26 28  1  0  0  0  0
 26 29  1  0  0  0  0
 24 25  1  0  0  0  0
 24 26  1  0  0  0  0
M  END
$$$$
default_name
  -OEChem-01062215323D

 29 29  0     1  0  0  0  0  0999 V2000
   -2.9561   -3.9186    1.3887 H   0  0  0  0  0  0  0  0  0  0  0  0
   -3.1191   -2.9346    0.9517 C   0  0  0  0  0  0  0  0  0  0  0  0
   -3.7811   -2.3546    1.5917 H   0  0  0  0  0  0  0  0  0  0  0  0
   -3.5591   -3.0406   -0.0383 H   0  0  0  0  0  0  0  0  0  0  0  0
   -1.7921   -2.2226    0.8327 C   0  0  0  0  0  0  0  0  0  0  0  0
   -0.7611   -2.7766    1.1927 O   0  0  0  0  0  0  0  0  0  0  0  0
   -1.8201   -0.9926    0.3247 N   0  0  0  0  0  0  0  0  0  0  0  0
   -2.7141   -0.5816    0.0927 H   0  0  0  0  0  0  0  0  0  0  0  0
   -0.6481   -0.1156    0.2017 C   0  0  1  0  0  0  0  0  0  0  0  0
   -0.5927    0.5062    1.0975 H   0  0  0  0  0  0  0  0  0  0  0  0
    0.6336   -0.9679    0.1267 C   0  0  0  0  0  0  0  0  0  0  0  0
    0.5545   -1.6822   -0.6942 H   0  0  0  0  0  0  0  0  0  0  0  0
    1.4919   -0.3265   -0.0779 H   0  0  0  0  0  0  0  0  0  0  0  0
    0.8866   -1.7590    1.3870 C   0  0  0  0  0  0  0  0  0  0  0  0
    1.3580   -1.2434    2.5950 N   0  0  0  0  0  0  0  0  0  0  0  0
    1.3881   -2.2757    3.4504 C   0  0  0  0  0  0  0  0  0  0  0  0
    1.7206   -2.2097    4.4787 H   0  0  0  0  0  0  0  0  0  0  0  0
    0.9404   -3.3931    2.8535 N   0  0  0  0  0  0  0  0  0  0  0  0
    0.8490   -4.2976    3.2955 H   0  0  0  0  0  0  0  0  0  0  0  0
    0.6151   -3.0858    1.5511 C   0  0  0  0  0  0  0  0  0  0  0  0
    0.2038   -3.7470    0.7987 H   0  0  0  0  0  0  0  0  0  0  0  0
   -0.7991    0.8280   -1.0049 C   0  0  0  0  0  0  0  0  0  0  0  0
   -1.4505    0.4726   -1.9871 O   0  0  0  0  0  0  0  0  0  0  0  0
   -0.2109    2.0261   -0.9323 N   0  0  0  0  0  0  0  0  0  0  0  0
    0.3923    2.1945   -0.1350 H   0  0  0  0  0  0  0  0  0  0  0  0
   -0.2643    3.0461   -1.9770 C   0  0  0  0  0  0  0  0  0  0  0  0
   -1.2408    3.0298   -2.4680 H   0  0  0  0  0  0  0  0  0  0  0  0
   -0.1004    4.0325   -1.5410 H   0  0  0  0  0  0  0  0  0  0  0  0
    0.5078    2.8468   -2.7219 H   0  0  0  0  0  0  0  0  0  0  0  0
  5  6  2  0  0  0  0
  5  7  1  0  0  0  0
  2  3  1  0  0  0  0
  2  4  1  0  0  0  0
  2  5  1  0  0  0  0
  1  2  1  0  0  0  0
 22 23  2  0  0  0  0
 22 24  1  0  0  0  0
 20 21  1  0  0  0  0
 18 19  1  0  0  0  0
 18 20  1  0  0  0  0
 16 17  1  0  0  0  0
 16 18  1  0  0  0  0
 15 16  2  0  0  0  0
 14 15  1  0  0  0  0
 14 20  2  0  0  0  0
 11 12  1  0  0  0  0
 11 13  1  0  0  0  0
 11 14  1  0  0  0  0
  9 10  1  0  0  0  0
  9 11  1  0  0  0  0
  9 22  1  0  0  0  0
  7  8  1  0  0  0  0
  7  9  1  0  0  0  0
 26 27  1  0  0  0  0
 26 28  1  0  0  0  0
 26 29  1  0  0  0  0
 24 25  1  0  0  0  0
 24 26  1  0  0  0  0
M  END
$$$$
default_name
  -OEChem-01062215323D

 29 29  0     1  0  0  0  0  0999 V2000
   -2.9561   -3.9186    1.3887 H   0  0  0  0  0  0  0  0  0  0  0  0
   -3.1191   -2.9346    0.9517 C   0  0  0  0  0  0  0  0  0  0  0  0
   -3.7811   -2.3546    1.5917 H   0  0  0  0  0  0  0  0  0  0  0  0
   -3.5591   -3.0406   -0.0383 H   0  0  0  0  0  0  0  0  0  0  0  0
   -1.7921   -2.2226    0.8327 C   0  0  0  0  0  0  0  0  0  0  0  0
   -0.7611   -2.7766    1.1927 O   0  0  0  0  0  0  0  0  0  0  0  0
   -1.8201   -0.9926    0.3247 N   0  0  0  0  0  0  0  0  0  0  0  0
   -2.7141   -0.5816    0.0927 H   0  0  0  0  0  0  0  0  0  0  0  0
   -0.6481   -0.1156    0.2017 C   0  0  1  0  0  0  0  0  0  0  0  0
   -0.5927    0.5062    1.0975 H   0  0  0  0  0  0  0  0  0  0  0  0
    0.6336   -0.9679    0.1267 C   0  0  0  0  0  0  0  0  0  0  0  0
    0.5545   -1.6822   -0.6942 H   0  0  0  0  0  0  0  0  0  0  0  0
    1.4919   -0.3265   -0.0779 H   0  0  0  0  0  0  0  0  0  0  0  0
    0.8866   -1.7590    1.3870 C   0  0  0  0  0  0  0  0  0  0  0  0
    1.3580   -1.2434    2.5950 N   0  0  0  0  0  0  0  0  0  0  0  0
    1.3881   -2.2757    3.4504 C   0  0  0  0  0  0  0  0  0  0  0  0
    1.7206   -2.2097    4.4787 H   0  0  0  0  0  0  0  0  0  0  0  0
    0.9404   -3.3931    2.8535 N   0  0  0  0  0  0  0  0  0  0  0  0
    0.8490   -4.2976    3.2955 H   0  0  0  0  0  0  0  0  0  0  0  0
    0.6151   -3.0858    1.5511 C   0  0  0  0  0  0  0  0  0  0  0  0
    0.2038   -3.7470    0.7987 H   0  0  0  0  0  0  0  0  0  0  0  0
   -0.7991    0.8280   -1.0049 C   0  0  0  0  0  0  0  0  0  0  0  0
   -1.6583    0.6048   -1.8578 O   0  0  0  0  0  0  0  0  0  0  0  0
    0.0216    1.8808   -1.0751 N   0  0  0  0  0  0  0  0  0  0  0  0
    0.7669    1.9291   -0.3894 H   0  0  0  0  0  0  0  0  0  0  0  0
    0.0064    2.8805   -2.1403 C   0  0  0  0  0  0  0  0  0  0  0  0
   -1.0196    3.0604   -2.4718 H   0  0  0  0  0  0  0  0  0  0  0  0
    0.4332    3.8164   -1.7768 H   0  0  0  0  0  0  0  0  0  0  0  0
    0.5923    2.5206   -2.9876 H   0  0  0  0  0  0  0  0  0  0  0  0
  5  6  2  0  0  0  0
  5  7  1  0  0  0  0
  2  3  1  0  0  0  0
  2  4  1  0  0  0  0
  2  5  1  0  0  0  0
  1  2  1  0  0  0  0
 22 23  2  0  0  0  0
 22 24  1  0  0  0  0
 20 21  1  0  0  0  0
 18 19  1  0  0  0  0
 18 20  1  0  0  0  0
 16 17  1  0  0  0  0
 16 18  1  0  0  0  0
 15 16  2  0  0  0  0
 14 15  1  0  0  0  0
 14 20  2  0  0  0  0
 11 12  1  0  0  0  0
 11 13  1  0  0  0  0
 11 14  1  0  0  0  0
  9 10  1  0  0  0  0
  9 11  1  0  0  0  0
  9 22  1  0  0  0  0
  7  8  1  0  0  0  0
  7  9  1  0  0  0  0
 26 27  1  0  0  0  0
 26 28  1  0  0  0  0
 26 29  1  0  0  0  0
 24 25  1  0  0  0  0
 24 26  1  0  0  0  0
M  END
$$$$
default_name
  -OEChem-01062215323D

 29 29  0     1  0  0  0  0  0999 V2000
   -2.9561   -3.9186    1.3887 H   0  0  0  0  0  0  0  0  0  0  0  0
   -3.1191   -2.9346    0.9517 C   0  0  0  0  0  0  0  0  0  0  0  0
   -3.7811   -2.3546    1.5917 H   0  0  0  0  0  0  0  0  0  0  0  0
   -3.5591   -3.0406   -0.0383 H   0  0  0  0  0  0  0  0  0  0  0  0
   -1.7921   -2.2226    0.8327 C   0  0  0  0  0  0  0  0  0  0  0  0
   -0.7611   -2.7766    1.1927 O   0  0  0  0  0  0  0  0  0  0  0  0
   -1.8201   -0.9926    0.3247 N   0  0  0  0  0  0  0  0  0  0  0  0
   -2.7141   -0.5816    0.0927 H   0  0  0  0  0  0  0  0  0  0  0  0
   -0.6481   -0.1156    0.2017 C   0  0  1  0  0  0  0  0  0  0  0  0
   -0.4334    0.3058    1.1858 H   0  0  0  0  0  0  0  0  0  0  0  0
    0.5740   -0.9406   -0.2463 C   0  0  0  0  0  0  0  0  0  0  0  0
    0.3438   -1.4679   -1.1732 H   0  0  0  0  0  0  0  0  0  0  0  0
    1.4148   -0.2753   -0.4472 H   0  0  0  0  0  0  0  0  0  0  0  0
    0.9858   -1.9781    0.7697 C   0  0  0  0  0  0  0  0  0  0  0  0
    1.6548   -1.7279    1.9685 N   0  0  0  0  0  0  0  0  0  0  0  0
    1.7756   -2.9158    2.5788 C   0  0  0  0  0  0  0  0  0  0  0  0
    2.2631   -3.0672    3.5337 H   0  0  0  0  0  0  0  0  0  0  0  0
    1.2002   -3.8820    1.8435 N   0  0  0  0  0  0  0  0  0  0  0  0
    1.1430   -4.8582    2.0996 H   0  0  0  0  0  0  0  0  0  0  0  0
    0.6923   -3.3085    0.6990 C   0  0  0  0  0  0  0  0  0  0  0  0
    0.1465   -3.7963   -0.0988 H   0  0  0  0  0  0  0  0  0  0  0  0
   -0.9451    1.0593   -0.7472 C   0  0  0  0  0  0  0  0  0  0  0  0
   -2.0534    1.1613   -1.2733 O   0  0  0  0  0  0  0  0  0  0  0  0
    0.0316    1.9468   -0.9596 N   0  0  0  0  0  0  0  0  0  0  0  0
    0.9429    1.7289   -0.5722 H   0  0  0  0  0  0  0  0  0  0  0  0
   -0.0835    3.1245   -1.8164 C   0  0  0  0  0  0  0  0  0  0  0  0
   -1.0917    3.5412   -1.7484 H   0  0  0  0  0  0  0  0  0  0  0  0
    0.6375    3.8817   -1.5049 H   0  0  0  0  0  0  0  0  0  0  0  0
    0.1122    2.8431   -2.8524 H   0  0  0  0  0  0  0  0  0  0  0  0
  5  6  2  0  0  0  0
  5  7  1  0  0  0  0
  2  3  1  0  0  0  0
  2  4  1  0  0  0  0
  2  5  1  0  0  0  0
  1  2  1  0  0  0  0
 22 23  2  0  0  0  0
 22 24  1  0  0  0  0
 20 21  1  0  0  0  0
 18 19  1  0  0  0  0
 18 20  1  0  0  0  0
 16 17  1  0  0  0  0
 16 18  1  0  0  0  0
 15 16  2  0  0  0  0
 14 15  1  0  0  0  0
 14 20  2  0  0  0  0
 11 12  1  0  0  0  0
 11 13  1  0  0  0  0
 11 14  1  0  0  0  0
  9 10  1  0  0  0  0
  9 11  1  0  0  0  0
  9 22  1  0  0  0  0
  7  8  1  0  0  0  0
  7  9  1  0  0  0  0
 26 27  1  0  0  0  0
 26 28  1  0  0  0  0
 26 29  1  0  0  0  0
 24 25  1  0  0  0  0
 24 26  1  0  0  0  0
M  END
$$$$
default_name
  -OEChem-01062215323D

 29 29  0     1  0  0  0  0  0999 V2000
   -2.9561   -3.9186    1.3887 H   0  0  0  0  0  0  0  0  0  0  0  0
   -3.1191   -2.9346    0.9517 C   0  0  0  0  0  0  0  0  0  0  0  0
   -3.7811   -2.3546    1.5917 H   0  0  0  0  0  0  0  0  0  0  0  0
   -3.5591   -3.0406   -0.0383 H   0  0  0  0  0  0  0  0  0  0  0  0
   -1.7921   -2.2226    0.8327 C   0  0  0  0  0  0  0  0  0  0  0  0
   -0.7611   -2.7766    1.1927 O   0  0  0  0  0  0  0  0  0  0  0  0
   -1.8201   -0.9926    0.3247 N   0  0  0  0  0  0  0  0  0  0  0  0
   -2.7141   -0.5816    0.0927 H   0  0  0  0  0  0  0  0  0  0  0  0
   -0.6481   -0.1156    0.2017 C   0  0  1  0  0  0  0  0  0  0  0  0
   -0.4334    0.3058    1.1858 H   0  0  0  0  0  0  0  0  0  0  0  0
    0.5740   -0.9406   -0.2463 C   0  0  0  0  0  0  0  0  0  0  0  0
    0.3438   -1.4679   -1.1732 H   0  0  0  0  0  0  0  0  0  0  0  0
    1.4148   -0.2753   -0.4472 H   0  0  0  0  0  0  0  0  0  0  0  0
    0.9858   -1.9781    0.7697 C   0  0  0  0  0  0  0  0  0  0  0  0
    1.6548   -1.7279    1.9685 N   0  0  0  0  0  0  0  0  0  0  0  0
    1.7756   -2.9158    2.5788 C   0  0  0  0  0  0  0  0  0  0  0  0
    2.2631   -3.0672    3.5337 H   0  0  0  0  0  0  0  0  0  0  0  0
    1.2002   -3.8820    1.8435 N   0  0  0  0  0  0  0  0  0  0  0  0
    1.1430   -4.8582    2.0996 H   0  0  0  0  0  0  0  0  0  0  0  0
    0.6923   -3.3085    0.6990 C   0  0  0  0  0  0  0  0  0  0  0  0
    0.1465   -3.7963   -0.0988 H   0  0  0  0  0  0  0  0  0  0  0  0
   -0.9451    1.0593   -0.7472 C   0  0  0  0  0  0  0  0  0  0  0  0
   -2.1073    1.3244   -1.0544 O   0  0  0  0  0  0  0  0  0  0  0  0
    0.0939    1.7662   -1.2027 N   0  0  0  0  0  0  0  0  0  0  0  0
    1.0197    1.4146   -0.9854 H   0  0  0  0  0  0  0  0  0  0  0  0
   -0.0082    2.9171   -2.0968 C   0  0  0  0  0  0  0  0  0  0  0  0
   -0.9052    3.4961   -1.8627 H   0  0  0  0  0  0  0  0  0  0  0  0
    0.8690    3.5554   -1.9814 H   0  0  0  0  0  0  0  0  0  0  0  0
   -0.0713    2.5723   -3.1302 H   0  0  0  0  0  0  0  0  0  0  0  0
  5  6  2  0  0  0  0
  5  7  1  0  0  0  0
  2  3  1  0  0  0  0
  2  4  1  0  0  0  0
  2  5  1  0  0  0  0
  1  2  1  0  0  0  0
 22 23  2  0  0  0  0
 22 24  1  0  0  0  0
 20 21  1  0  0  0  0
 18 19  1  0  0  0  0
 18 20  1  0  0  0  0
 16 17  1  0  0  0  0
 16 18  1  0  0  0  0
 15 16  2  0  0  0  0
 14 15  1  0  0  0  0
 14 20  2  0  0  0  0
 11 12  1  0  0  0  0
 11 13  1  0  0  0  0
 11 14  1  0  0  0  0
  9 10  1  0  0  0  0
  9 11  1  0  0  0  0
  9 22  1  0  0  0  0
  7  8  1  0  0  0  0
  7  9  1  0  0  0  0
 26 27  1  0  0  0  0
 26 28  1  0  0  0  0
 26 29  1  0  0  0  0
 24 25  1  0  0  0  0
 24 26  1  0  0  0  0
M  END
$$$$
default_name
  -OEChem-01062215323D

 29 29  0     1  0  0  0  0  0999 V2000
   -2.9561   -3.9186    1.3887 H   0  0  0  0  0  0  0  0  0  0  0  0
   -3.1191   -2.9346    0.9517 C   0  0  0  0  0  0  0  0  0  0  0  0
   -3.7811   -2.3546    1.5917 H   0  0  0  0  0  0  0  0  0  0  0  0
   -3.5591   -3.0406   -0.0383 H   0  0  0  0  0  0  0  0  0  0  0  0
   -1.7921   -2.2226    0.8327 C   0  0  0  0  0  0  0  0  0  0  0  0
   -0.7611   -2.7766    1.1927 O   0  0  0  0  0  0  0  0  0  0  0  0
   -1.8201   -0.9926    0.3247 N   0  0  0  0  0  0  0  0  0  0  0  0
   -2.7141   -0.5816    0.0927 H   0  0  0  0  0  0  0  0  0  0  0  0
   -0.6481   -0.1156    0.2017 C   0  0  1  0  0  0  0  0  0  0  0  0
   -0.4334    0.3058    1.1858 H   0  0  0  0  0  0  0  0  0  0  0  0
    0.5740   -0.9406   -0.2463 C   0  0  0  0  0  0  0  0  0  0  0  0
    0.3438   -1.4679   -1.1732 H   0  0  0  0  0  0  0  0  0  0  0  0
    1.4148   -0.2753   -0.4472 H   0  0  0  0  0  0  0  0  0  0  0  0
    0.9858   -1.9781    0.7697 C   0  0  0  0  0  0  0  0  0  0  0  0
    1.6548   -1.7279    1.9685 N   0  0  0  0  0  0  0  0  0  0  0  0
    1.7756   -2.9158    2.5788 C   0  0  0  0  0  0  0  0  0  0  0  0
    2.2631   -3.0672    3.5337 H   0  0  0  0  0  0  0  0  0  0  0  0
    1.2002   -3.8820    1.8435 N   0  0  0  0  0  0  0  0  0  0  0  0
    1.1430   -4.8582    2.0996 H   0  0  0  0  0  0  0  0  0  0  0  0
    0.6923   -3.3085    0.6990 C   0  0  0  0  0  0  0  0  0  0  0  0
    0.1465   -3.7963   -0.0988 H   0  0  0  0  0  0  0  0  0  0  0  0
   -0.9451    1.0593   -0.7472 C   0  0  0  0  0  0  0  0  0  0  0  0
   -2.0902    1.5015   -0.8405 O   0  0  0  0  0  0  0  0  0  0  0  0
    0.0773    1.5697   -1.4407 N   0  0  0  0  0  0  0  0  0  0  0  0
    0.9622    1.0781   -1.3840 H   0  0  0  0  0  0  0  0  0  0  0  0
   -0.0239    2.6907   -2.3722 C   0  0  0  0  0  0  0  0  0  0  0  0
   -0.7548    3.4171   -2.0076 H   0  0  0  0  0  0  0  0  0  0  0  0
    0.9464    3.1795   -2.4711 H   0  0  0  0  0  0  0  0  0  0  0  0
   -0.3466    2.3262   -3.3488 H   0  0  0  0  0  0  0  0  0  0  0  0
  5  6  2  0  0  0  0
  5  7  1  0  0  0  0
  2  3  1  0  0  0  0
  2  4  1  0  0  0  0
  2  5  1  0  0  0  0
  1  2  1  0  0  0  0
 22 23  2  0  0  0  0
 22 24  1  0  0  0  0
 20 21  1  0  0  0  0
 18 19  1  0  0  0  0
 18 20  1  0  0  0  0
 16 17  1  0  0  0  0
 16 18  1  0  0  0  0
 15 16  2  0  0  0  0
 14 15  1  0  0  0  0
 14 20  2  0  0  0  0
 11 12  1  0  0  0  0
 11 13  1  0  0  0  0
 11 14  1  0  0  0  0
  9 10  1  0  0  0  0
  9 11  1  0  0  0  0
  9 22  1  0  0  0  0
  7  8  1  0  0  0  0
  7  9  1  0  0  0  0
 26 27  1  0  0  0  0
 26 28  1  0  0  0  0
 26 29  1  0  0  0  0
 24 25  1  0  0  0  0
 24 26  1  0  0  0  0
M  END
$$$$
default_name
  -OEChem-01062215323D

 29 29  0     1  0  0  0  0  0999 V2000
   -2.9561   -3.9186    1.3887 H   0  0  0  0  0  0  0  0  0  0  0  0
   -3.1191   -2.9346    0.9517 C   0  0  0  0  0  0  0  0  0  0  0  0
   -3.7811   -2.3546    1.5917 H   0  0  0  0  0  0  0  0  0  0  0  0
   -3.5591   -3.0406   -0.0383 H   0  0  0  0  0  0  0  0  0  0  0  0
   -1.7921   -2.2226    0.8327 C   0  0  0  0  0  0  0  0  0  0  0  0
   -0.7611   -2.7766    1.1927 O   0  0  0  0  0  0  0  0  0  0  0  0
   -1.8201   -0.9926    0.3247 N   0  0  0  0  0  0  0  0  0  0  0  0
   -2.7141   -0.5816    0.0927 H   0  0  0  0  0  0  0  0  0  0  0  0
   -0.6481   -0.1156    0.2017 C   0  0  1  0  0  0  0  0  0  0  0  0
   -0.4334    0.3058    1.1858 H   0  0  0  0  0  0  0  0  0  0  0  0
    0.5740   -0.9406   -0.2463 C   0  0  0  0  0  0  0  0  0  0  0  0
    0.3438   -1.4679   -1.1732 H   0  0  0  0  0  0  0  0  0  0  0  0
    1.4148   -0.2753   -0.4472 H   0  0  0  0  0  0  0  0  0  0  0  0
    0.9858   -1.9781    0.7697 C   0  0  0  0  0  0  0  0  0  0  0  0
    1.6548   -1.7279    1.9685 N   0  0  0  0  0  0  0  0  0  0  0  0
    1.7756   -2.9158    2.5788 C   0  0  0  0  0  0  0  0  0  0  0  0
    2.2631   -3.0672    3.5337 H   0  0  0  0  0  0  0  0  0  0  0  0
    1.2002   -3.8820    1.8435 N   0  0  0  0  0  0  0  0  0  0  0  0
    1.1430   -4.8582    2.0996 H   0  0  0  0  0  0  0  0  0  0  0  0
    0.6923   -3.3085    0.6990 C   0  0  0  0  0  0  0  0  0  0  0  0
    0.1465   -3.7963   -0.0988 H   0  0  0  0  0  0  0  0  0  0  0  0
   -0.9451    1.0593   -0.7472 C   0  0  0  0  0  0  0  0  0  0  0  0
   -2.0031    1.6805   -0.6461 O   0  0  0  0  0  0  0  0  0  0  0  0
   -0.0172    1.3707   -1.6576 N   0  0  0  0  0  0  0  0  0  0  0  0
    0.7741    0.7423   -1.7409 H   0  0  0  0  0  0  0  0  0  0  0  0
   -0.1296    2.4608   -2.6238 C   0  0  0  0  0  0  0  0  0  0  0  0
   -0.6508    3.3095   -2.1734 H   0  0  0  0  0  0  0  0  0  0  0  0
    0.8644    2.7796   -2.9406 H   0  0  0  0  0  0  0  0  0  0  0  0
   -0.6949    2.1214   -3.4933 H   0  0  0  0  0  0  0  0  0  0  0  0
  5  6  2  0  0  0  0
  5  7  1  0  0  0  0
  2  3  1  0  0  0  0
  2  4  1  0  0  0  0
  2  5  1  0  0  0  0
  1  2  1  0  0  0  0
 22 23  2  0  0  0  0
 22 24  1  0  0  0  0
 20 21  1  0  0  0  0
 18 19  1  0  0  0  0
 18 20  1  0  0  0  0
 16 17  1  0  0  0  0
 16 18  1  0  0  0  0
 15 16  2  0  0  0  0
 14 15  1  0  0  0  0
 14 20  2  0  0  0  0
 11 12  1  0  0  0  0
 11 13  1  0  0  0  0
 11 14  1  0  0  0  0
  9 10  1  0  0  0  0
  9 11  1  0  0  0  0
  9 22  1  0  0  0  0
  7  8  1  0  0  0  0
  7  9  1  0  0  0  0
 26 27  1  0  0  0  0
 26 28  1  0  0  0  0
 26 29  1  0  0  0  0
 24 25  1  0  0  0  0
 24 26  1  0  0  0  0
M  END
$$$$
default_name
  -OEChem-01062215323D

 29 29  0     1  0  0  0  0  0999 V2000
   -2.9561   -3.9186    1.3887 H   0  0  0  0  0  0  0  0  0  0  0  0
   -3.1191   -2.9346    0.9517 C   0  0  0  0  0  0  0  0  0  0  0  0
   -3.7811   -2.3546    1.5917 H   0  0  0  0  0  0  0  0  0  0  0  0
   -3.5591   -3.0406   -0.0383 H   0  0  0  0  0  0  0  0  0  0  0  0
   -1.7921   -2.2226    0.8327 C   0  0  0  0  0  0  0  0  0  0  0  0
   -0.7611   -2.7766    1.1927 O   0  0  0  0  0  0  0  0  0  0  0  0
   -1.8201   -0.9926    0.3247 N   0  0  0  0  0  0  0  0  0  0  0  0
   -2.7141   -0.5816    0.0927 H   0  0  0  0  0  0  0  0  0  0  0  0
   -0.6481   -0.1156    0.2017 C   0  0  1  0  0  0  0  0  0  0  0  0
   -0.4334    0.3058    1.1858 H   0  0  0  0  0  0  0  0  0  0  0  0
    0.5740   -0.9406   -0.2463 C   0  0  0  0  0  0  0  0  0  0  0  0
    0.3438   -1.4679   -1.1732 H   0  0  0  0  0  0  0  0  0  0  0  0
    1.4148   -0.2753   -0.4472 H   0  0  0  0  0  0  0  0  0  0  0  0
    0.9858   -1.9781    0.7697 C   0  0  0  0  0  0  0  0  0  0  0  0
    1.6548   -1.7279    1.9685 N   0  0  0  0  0  0  0  0  0  0  0  0
    1.7756   -2.9158    2.5788 C   0  0  0  0  0  0  0  0  0  0  0  0
    2.2631   -3.0672    3.5337 H   0  0  0  0  0  0  0  0  0  0  0  0
    1.2002   -3.8820    1.8435 N   0  0  0  0  0  0  0  0  0  0  0  0
    1.1430   -4.8582    2.0996 H   0  0  0  0  0  0  0  0  0  0  0  0
    0.6923   -3.3085    0.6990 C   0  0  0  0  0  0  0  0  0  0  0  0
    0.1465   -3.7963   -0.0988 H   0  0  0  0  0  0  0  0  0  0  0  0
   -0.9451    1.0593   -0.7472 C   0  0  0  0  0  0  0  0  0  0  0  0
   -1.8520    1.8492   -0.4845 O   0  0  0  0  0  0  0  0  0  0  0  0
   -0.1831    1.1827   -1.8385 N   0  0  0  0  0  0  0  0  0  0  0  0
    0.4684    0.4301   -2.0317 H   0  0  0  0  0  0  0  0  0  0  0  0
   -0.3181    2.2430   -2.8344 C   0  0  0  0  0  0  0  0  0  0  0  0
   -0.6002    3.1807   -2.3487 H   0  0  0  0  0  0  0  0  0  0  0  0
    0.6287    2.3830   -3.3579 H   0  0  0  0  0  0  0  0  0  0  0  0
   -1.0927    1.9721   -3.5538 H   0  0  0  0  0  0  0  0  0  0  0  0
  5  6  2  0  0  0  0
  5  7  1  0  0  0  0
  2  3  1  0  0  0  0
  2  4  1  0  0  0  0
  2  5  1  0  0  0  0
  1  2  1  0  0  0  0
 22 23  2  0  0  0  0
 22 24  1  0  0  0  0
 20 21  1  0  0  0  0
 18 19  1  0  0  0  0
 18 20  1  0  0  0  0
 16 17  1  0  0  0  0
 16 18  1  0  0  0  0
 15 16  2  0  0  0  0
 14 15  1  0  0  0  0
 14 20  2  0  0  0  0
 11 12  1  0  0  0  0
 11 13  1  0  0  0  0
 11 14  1  0  0  0  0
  9 10  1  0  0  0  0
  9 11  1  0  0  0  0
  9 22  1  0  0  0  0
  7  8  1  0  0  0  0
  7  9  1  0  0  0  0
 26 27  1  0  0  0  0
 26 28  1  0  0  0  0
 26 29  1  0  0  0  0
 24 25  1  0  0  0  0
 24 26  1  0  0  0  0
M  END
$$$$
default_name
  -OEChem-01062215323D

 29 29  0     1  0  0  0  0  0999 V2000
   -2.9561   -3.9186    1.3887 H   0  0  0  0  0  0  0  0  0  0  0  0
   -3.1191   -2.9346    0.9517 C   0  0  0  0  0  0  0  0  0  0  0  0
   -3.7811   -2.3546    1.5917 H   0  0  0  0  0  0  0  0  0  0  0  0
   -3.5591   -3.0406   -0.0383 H   0  0  0  0  0  0  0  0  0  0  0  0
   -1.7921   -2.2226    0.8327 C   0  0  0  0  0  0  0  0  0  0  0  0
   -0.7611   -2.7766    1.1927 O   0  0  0  0  0  0  0  0  0  0  0  0
   -1.8201   -0.9926    0.3247 N   0  0  0  0  0  0  0  0  0  0  0  0
   -2.7141   -0.5816    0.0927 H   0  0  0  0  0  0  0  0  0  0  0  0
   -0.6481   -0.1156    0.2017 C   0  0  1  0  0  0  0  0  0  0  0  0
   -0.4334    0.3058    1.1858 H   0  0  0  0  0  0  0  0  0  0  0  0
    0.5740   -0.9406   -0.2463 C   0  0  0  0  0  0  0  0  0  0  0  0
    0.3438   -1.4679   -1.1732 H   0  0  0  0  0  0  0  0  0  0  0  0
    1.4148   -0.2753   -0.4472 H   0  0  0  0  0  0  0  0  0  0  0  0
    0.9858   -1.9781    0.7697 C   0  0  0  0  0  0  0  0  0  0  0  0
    1.6548   -1.7279    1.9685 N   0  0  0  0  0  0  0  0  0  0  0  0
    1.7756   -2.9158    2.5788 C   0  0  0  0  0  0  0  0  0  0  0  0
    2.2631   -3.0672    3.5337 H   0  0  0  0  0  0  0  0  0  0  0  0
    1.2002   -3.8820    1.8435 N   0  0  0  0  0  0  0  0  0  0  0  0
    1.1430   -4.8582    2.0996 H   0  0  0  0  0  0  0  0  0  0  0  0
    0.6923   -3.3085    0.6990 C   0  0  0  0  0  0  0  0  0  0  0  0
    0.1465   -3.7963   -0.0988 H   0  0  0  0  0  0  0  0  0  0  0  0
   -0.9451    1.0593   -0.7472 C   0  0  0  0  0  0  0  0  0  0  0  0
   -1.6472    1.9962   -0.3667 O   0  0  0  0  0  0  0  0  0  0  0  0
   -0.4090    1.0185   -1.9711 N   0  0  0  0  0  0  0  0  0  0  0  0
    0.0658    0.1629   -2.2366 H   0  0  0  0  0  0  0  0  0  0  0  0
   -0.5766    2.0522   -2.9898 C   0  0  0  0  0  0  0  0  0  0  0  0
   -0.6066    3.0395   -2.5216 H   0  0  0  0  0  0  0  0  0  0  0  0
    0.2553    2.0166   -3.6947 H   0  0  0  0  0  0  0  0  0  0  0  0
   -1.5126    1.8882   -3.5262 H   0  0  0  0  0  0  0  0  0  0  0  0
  5  6  2  0  0  0  0
  5  7  1  0  0  0  0
  2  3  1  0  0  0  0
  2  4  1  0  0  0  0
  2  5  1  0  0  0  0
  1  2  1  0  0  0  0
 22 23  2  0  0  0  0
 22 24  1  0  0  0  0
 20 21  1  0  0  0  0
 18 19  1  0  0  0  0
 18 20  1  0  0  0  0
 16 17  1  0  0  0  0
 16 18  1  0  0  0  0
 15 16  2  0  0  0  0
 14 15  1  0  0  0  0
 14 20  2  0  0  0  0
 11 12  1  0  0  0  0
 11 13  1  0  0  0  0
 11 14  1  0  0  0  0
  9 10  1  0  0  0  0
  9 11  1  0  0  0  0
  9 22  1  0  0  0  0
  7  8  1  0  0  0  0
  7  9  1  0  0  0  0
 26 27  1  0  0  0  0
 26 28  1  0  0  0  0
 26 29  1  0  0  0  0
 24 25  1  0  0  0  0
 24 26  1  0  0  0  0
M  END
$$$$
default_name
  -OEChem-01062215323D

 29 29  0     1  0  0  0  0  0999 V2000
   -2.9561   -3.9186    1.3887 H   0  0  0  0  0  0  0  0  0  0  0  0
   -3.1191   -2.9346    0.9517 C   0  0  0  0  0  0  0  0  0  0  0  0
   -3.7811   -2.3546    1.5917 H   0  0  0  0  0  0  0  0  0  0  0  0
   -3.5591   -3.0406   -0.0383 H   0  0  0  0  0  0  0  0  0  0  0  0
   -1.7921   -2.2226    0.8327 C   0  0  0  0  0  0  0  0  0  0  0  0
   -0.7611   -2.7766    1.1927 O   0  0  0  0  0  0  0  0  0  0  0  0
   -1.8201   -0.9926    0.3247 N   0  0  0  0  0  0  0  0  0  0  0  0
   -2.7141   -0.5816    0.0927 H   0  0  0  0  0  0  0  0  0  0  0  0
   -0.6481   -0.1156    0.2017 C   0  0  1  0  0  0  0  0  0  0  0  0
   -0.4334    0.3058    1.1858 H   0  0  0  0  0  0  0  0  0  0  0  0
    0.5740   -0.9406   -0.2463 C   0  0  0  0  0  0  0  0  0  0  0  0
    0.3438   -1.4679   -1.1732 H   0  0  0  0  0  0  0  0  0  0  0  0
    1.4148   -0.2753   -0.4472 H   0  0  0  0  0  0  0  0  0  0  0  0
    0.9858   -1.9781    0.7697 C   0  0  0  0  0  0  0  0  0  0  0  0
    1.6548   -1.7279    1.9685 N   0  0  0  0  0  0  0  0  0  0  0  0
    1.7756   -2.9158    2.5788 C   0  0  0  0  0  0  0  0  0  0  0  0
    2.2631   -3.0672    3.5337 H   0  0  0  0  0  0  0  0  0  0  0  0
    1.2002   -3.8820    1.8435 N   0  0  0  0  0  0  0  0  0  0  0  0
    1.1430   -4.8582    2.0996 H   0  0  0  0  0  0  0  0  0  0  0  0
    0.6923   -3.3085    0.6990 C   0  0  0  0  0  0  0  0  0  0  0  0
    0.1465   -3.7963   -0.0988 H   0  0  0  0  0  0  0  0  0  0  0  0
   -0.9451    1.0593   -0.7472 C   0  0  0  0  0  0  0  0  0  0  0  0
   -1.4027    2.1113   -0.3007 O   0  0  0  0  0  0  0  0  0  0  0  0
   -0.6797    0.8893   -2.0462 N   0  0  0  0  0  0  0  0  0  0  0  0
   -0.4062   -0.0412   -2.3416 H   0  0  0  0  0  0  0  0  0  0  0  0
   -0.8874    1.9014   -3.0792 C   0  0  0  0  0  0  0  0  0  0  0  0
   -0.6694    2.8954   -2.6802 H   0  0  0  0  0  0  0  0  0  0  0  0
   -0.2304    1.7055   -3.9279 H   0  0  0  0  0  0  0  0  0  0  0  0
   -1.9262    1.8756   -3.4123 H   0  0  0  0  0  0  0  0  0  0  0  0
  5  6  2  0  0  0  0
  5  7  1  0  0  0  0
  2  3  1  0  0  0  0
  2  4  1  0  0  0  0
  2  5  1  0  0  0  0
  1  2  1  0  0  0  0
 22 23  2  0  0  0  0
 22 24  1  0  0  0  0
 20 21  1  0  0  0  0
 18 19  1  0  0  0  0
 18 20  1  0  0  0  0
 16 17  1  0  0  0  0
 16 18  1  0  0  0  0
 15 16  2  0  0  0  0
 14 15  1  0  0  0  0
 14 20  2  0  0  0  0
 11 12  1  0  0  0  0
 11 13  1  0  0  0  0
 11 14  1  0  0  0  0
  9 10  1  0  0  0  0
  9 11  1  0  0  0  0
  9 22  1  0  0  0  0
  7  8  1  0  0  0  0
  7  9  1  0  0  0  0
 26 27  1  0  0  0  0
 26 28  1  0  0  0  0
 26 29  1  0  0  0  0
 24 25  1  0  0  0  0
 24 26  1  0  0  0  0
M  END
$$$$
default_name
  -OEChem-01062215323D

 29 29  0     1  0  0  0  0  0999 V2000
   -2.9561   -3.9186    1.3887 H   0  0  0  0  0  0  0  0  0  0  0  0
   -3.1191   -2.9346    0.9517 C   0  0  0  0  0  0  0  0  0  0  0  0
   -3.7811   -2.3546    1.5917 H   0  0  0  0  0  0  0  0  0  0  0  0
   -3.5591   -3.0406   -0.0383 H   0  0  0  0  0  0  0  0  0  0  0  0
   -1.7921   -2.2226    0.8327 C   0  0  0  0  0  0  0  0  0  0  0  0
   -0.7611   -2.7766    1.1927 O   0  0  0  0  0  0  0  0  0  0  0  0
   -1.8201   -0.9926    0.3247 N   0  0  0  0  0  0  0  0  0  0  0  0
   -2.7141   -0.5816    0.0927 H   0  0  0  0  0  0  0  0  0  0  0  0
   -0.6481   -0.1156    0.2017 C   0  0  1  0  0  0  0  0  0  0  0  0
   -0.4334    0.3058    1.1858 H   0  0  0  0  0  0  0  0  0  0  0  0
    0.5740   -0.9406   -0.2463 C   0  0  0  0  0  0  0  0  0  0  0  0
    0.3438   -1.4679   -1.1732 H   0  0  0  0  0  0  0  0  0  0  0  0
    1.4148   -0.2753   -0.4472 H   0  0  0  0  0  0  0  0  0  0  0  0
    0.9858   -1.9781    0.7697 C   0  0  0  0  0  0  0  0  0  0  0  0
    1.6548   -1.7279    1.9685 N   0  0  0  0  0  0  0  0  0  0  0  0
    1.7756   -2.9158    2.5788 C   0  0  0  0  0  0  0  0  0  0  0  0
    2.2631   -3.0672    3.5337 H   0  0  0  0  0  0  0  0  0  0  0  0
    1.2002   -3.8820    1.8435 N   0  0  0  0  0  0  0  0  0  0  0  0
    1.1430   -4.8582    2.0996 H   0  0  0  0  0  0  0  0  0  0  0  0
    0.6923   -3.3085    0.6990 C   0  0  0  0  0  0  0  0  0  0  0  0
    0.1465   -3.7963   -0.0988 H   0  0  0  0  0  0  0  0  0  0  0  0
   -0.9451    1.0593   -0.7472 C   0  0  0  0  0  0  0  0  0  0  0  0
   -1.1351    2.1868   -0.2910 O   0  0  0  0  0  0  0  0  0  0  0  0
   -0.9766    0.8040   -2.0590 N   0  0  0  0  0  0  0  0  0  0  0  0
   -0.9154   -0.1683   -2.3396 H   0  0  0  0  0  0  0  0  0  0  0  0
   -1.2293    1.8009   -3.0967 C   0  0  0  0  0  0  0  0  0  0  0  0
   -0.7844    2.7584   -2.8139 H   0  0  0  0  0  0  0  0  0  0  0  0
   -0.7953    1.4708   -4.0416 H   0  0  0  0  0  0  0  0  0  0  0  0
   -2.3052    1.9351   -3.2200 H   0  0  0  0  0  0  0  0  0  0  0  0
  5  6  2  0  0  0  0
  5  7  1  0  0  0  0
  2  3  1  0  0  0  0
  2  4  1  0  0  0  0
  2  5  1  0  0  0  0
  1  2  1  0  0  0  0
 22 23  2  0  0  0  0
 22 24  1  0  0  0  0
 20 21  1  0  0  0  0
 18 19  1  0  0  0  0
 18 20  1  0  0  0  0
 16 17  1  0  0  0  0
 16 18  1  0  0  0  0
 15 16  2  0  0  0  0
 14 15  1  0  0  0  0
 14 20  2  0  0  0  0
 11 12  1  0  0  0  0
 11 13  1  0  0  0  0
 11 14  1  0  0  0  0
  9 10  1  0  0  0  0
  9 11  1  0  0  0  0
  9 22  1  0  0  0  0
  7  8  1  0  0  0  0
  7  9  1  0  0  0  0
 26 27  1  0  0  0  0
 26 28  1  0  0  0  0
 26 29  1  0  0  0  0
 24 25  1  0  0  0  0
 24 26  1  0  0  0  0
M  END
$$$$
default_name
  -OEChem-01062215323D

 29 29  0     1  0  0  0  0  0999 V2000
   -2.9561   -3.9186    1.3887 H   0  0  0  0  0  0  0  0  0  0  0  0
   -3.1191   -2.9346    0.9517 C   0  0  0  0  0  0  0  0  0  0  0  0
   -3.7811   -2.3546    1.5917 H   0  0  0  0  0  0  0  0  0  0  0  0
   -3.5591   -3.0406   -0.0383 H   0  0  0  0  0  0  0  0  0  0  0  0
   -1.7921   -2.2226    0.8327 C   0  0  0  0  0  0  0  0  0  0  0  0
   -0.7611   -2.7766    1.1927 O   0  0  0  0  0  0  0  0  0  0  0  0
   -1.8201   -0.9926    0.3247 N   0  0  0  0  0  0  0  0  0  0  0  0
   -2.7141   -0.5816    0.0927 H   0  0  0  0  0  0  0  0  0  0  0  0
   -0.6481   -0.1156    0.2017 C   0  0  1  0  0  0  0  0  0  0  0  0
   -0.4334    0.3058    1.1858 H   0  0  0  0  0  0  0  0  0  0  0  0
    0.5740   -0.9406   -0.2463 C   0  0  0  0  0  0  0  0  0  0  0  0
    0.3438   -1.4679   -1.1732 H   0  0  0  0  0  0  0  0  0  0  0  0
    1.4148   -0.2753   -0.4472 H   0  0  0  0  0  0  0  0  0  0  0  0
    0.9858   -1.9781    0.7697 C   0  0  0  0  0  0  0  0  0  0  0  0
    1.6548   -1.7279    1.9685 N   0  0  0  0  0  0  0  0  0  0  0  0
    1.7756   -2.9158    2.5788 C   0  0  0  0  0  0  0  0  0  0  0  0
    2.2631   -3.0672    3.5337 H   0  0  0  0  0  0  0  0  0  0  0  0
    1.2002   -3.8820    1.8435 N   0  0  0  0  0  0  0  0  0  0  0  0
    1.1430   -4.8582    2.0996 H   0  0  0  0  0  0  0  0  0  0  0  0
    0.6923   -3.3085    0.6990 C   0  0  0  0  0  0  0  0  0  0  0  0
    0.1465   -3.7963   -0.0988 H   0  0  0  0  0  0  0  0  0  0  0  0
   -0.9451    1.0593   -0.7472 C   0  0  0  0  0  0  0  0  0  0  0  0
   -0.8626    2.2175   -0.3383 O   0  0  0  0  0  0  0  0  0  0  0  0
   -1.2795    0.7683   -2.0083 N   0  0  0  0  0  0  0  0  0  0  0  0
   -1.4272   -0.2098   -2.2307 H   0  0  0  0  0  0  0  0  0  0  0  0
   -1.5791    1.7574   -3.0410 C   0  0  0  0  0  0  0  0  0  0  0  0
   -0.9438    2.6377   -2.9135 H   0  0  0  0  0  0  0  0  0  0  0  0
   -1.4008    1.3286   -4.0282 H   0  0  0  0  0  0  0  0  0  0  0  0
   -2.6238    2.0626   -2.9624 H   0  0  0  0  0  0  0  0  0  0  0  0
  5  6  2  0  0  0  0
  5  7  1  0  0  0  0
  2  3  1  0  0  0  0
  2  4  1  0  0  0  0
  2  5  1  0  0  0  0
  1  2  1  0  0  0  0
 22 23  2  0  0  0  0
 22 24  1  0  0  0  0
 20 21  1  0  0  0  0
 18 19  1  0  0  0  0
 18 20  1  0  0  0  0
 16 17  1  0  0  0  0
 16 18  1  0  0  0  0
 15 16  2  0  0  0  0
 14 15  1  0  0  0  0
 14 20  2  0  0  0  0
 11 12  1  0  0  0  0
 11 13  1  0  0  0  0
 11 14  1  0  0  0  0
  9 10  1  0  0  0  0
  9 11  1  0  0  0  0
  9 22  1  0  0  0  0
  7  8  1  0  0  0  0
  7  9  1  0  0  0  0
 26 27  1  0  0  0  0
 26 28  1  0  0  0  0
 26 29  1  0  0  0  0
 24 25  1  0  0  0  0
 24 26  1  0  0  0  0
M  END
$$$$
default_name
  -OEChem-01062215323D

 29 29  0     1  0  0  0  0  0999 V2000
   -2.9561   -3.9186    1.3887 H   0  0  0  0  0  0  0  0  0  0  0  0
   -3.1191   -2.9346    0.9517 C   0  0  0  0  0  0  0  0  0  0  0  0
   -3.7811   -2.3546    1.5917 H   0  0  0  0  0  0  0  0  0  0  0  0
   -3.5591   -3.0406   -0.0383 H   0  0  0  0  0  0  0  0  0  0  0  0
   -1.7921   -2.2226    0.8327 C   0  0  0  0  0  0  0  0  0  0  0  0
   -0.7611   -2.7766    1.1927 O   0  0  0  0  0  0  0  0  0  0  0  0
   -1.8201   -0.9926    0.3247 N   0  0  0  0  0  0  0  0  0  0  0  0
   -2.7141   -0.5816    0.0927 H   0  0  0  0  0  0  0  0  0  0  0  0
   -0.6481   -0.1156    0.2017 C   0  0  1  0  0  0  0  0  0  0  0  0
   -0.4334    0.3058    1.1858 H   0  0  0  0  0  0  0  0  0  0  0  0
    0.5740   -0.9406   -0.2463 C   0  0  0  0  0  0  0  0  0  0  0  0
    0.3438   -1.4679   -1.1732 H   0  0  0  0  0  0  0  0  0  0  0  0
    1.4148   -0.2753   -0.4472 H   0  0  0  0  0  0  0  0  0  0  0  0
    0.9858   -1.9781    0.7697 C   0  0  0  0  0  0  0  0  0  0  0  0
    1.6548   -1.7279    1.9685 N   0  0  0  0  0  0  0  0  0  0  0  0
    1.7756   -2.9158    2.5788 C   0  0  0  0  0  0  0  0  0  0  0  0
    2.2631   -3.0672    3.5337 H   0  0  0  0  0  0  0  0  0  0  0  0
    1.2002   -3.8820    1.8435 N   0  0  0  0  0  0  0  0  0  0  0  0
    1.1430   -4.8582    2.0996 H   0  0  0  0  0  0  0  0  0  0  0  0
    0.6923   -3.3085    0.6990 C   0  0  0  0  0  0  0  0  0  0  0  0
    0.1465   -3.7963   -0.0988 H   0  0  0  0  0  0  0  0  0  0  0  0
   -0.9451    1.0593   -0.7472 C   0  0  0  0  0  0  0  0  0  0  0  0
   -0.6039    2.2013   -0.4393 O   0  0  0  0  0  0  0  0  0  0  0  0
   -1.5677    0.7848   -1.8978 N   0  0  0  0  0  0  0  0  0  0  0  0
   -1.9066   -0.1627   -2.0224 H   0  0  0  0  0  0  0  0  0  0  0  0
   -1.9129    1.7741   -2.9160 C   0  0  0  0  0  0  0  0  0  0  0  0
   -1.1366    2.5416   -2.9721 H   0  0  0  0  0  0  0  0  0  0  0  0
   -2.0057    1.2885   -3.8885 H   0  0  0  0  0  0  0  0  0  0  0  0
   -2.8603    2.2496   -2.6570 H   0  0  0  0  0  0  0  0  0  0  0  0
  5  6  2  0  0  0  0
  5  7  1  0  0  0  0
  2  3  1  0  0  0  0
  2  4  1  0  0  0  0
  2  5  1  0  0  0  0
  1  2  1  0  0  0  0
 22 23  2  0  0  0  0
 22 24  1  0  0  0  0
 20 21  1  0  0  0  0
 18 19  1  0  0  0  0
 18 20  1  0  0  0  0
 16 17  1  0  0  0  0
 16 18  1  0  0  0  0
 15 16  2  0  0  0  0
 14 15  1  0  0  0  0
 14 20  2  0  0  0  0
 11 12  1  0  0  0  0
 11 13  1  0  0  0  0
 11 14  1  0  0  0  0
  9 10  1  0  0  0  0
  9 11  1  0  0  0  0
  9 22  1  0  0  0  0
  7  8  1  0  0  0  0
  7  9  1  0  0  0  0
 26 27  1  0  0  0  0
 26 28  1  0  0  0  0
 26 29  1  0  0  0  0
 24 25  1  0  0  0  0
 24 26  1  0  0  0  0
M  END
$$$$
default_name
  -OEChem-01062215323D

 29 29  0     1  0  0  0  0  0999 V2000
   -2.9561   -3.9186    1.3887 H   0  0  0  0  0  0  0  0  0  0  0  0
   -3.1191   -2.9346    0.9517 C   0  0  0  0  0  0  0  0  0  0  0  0
   -3.7811   -2.3546    1.5917 H   0  0  0  0  0  0  0  0  0  0  0  0
   -3.5591   -3.0406   -0.0383 H   0  0  0  0  0  0  0  0  0  0  0  0
   -1.7921   -2.2226    0.8327 C   0  0  0  0  0  0  0  0  0  0  0  0
   -0.7611   -2.7766    1.1927 O   0  0  0  0  0  0  0  0  0  0  0  0
   -1.8201   -0.9926    0.3247 N   0  0  0  0  0  0  0  0  0  0  0  0
   -2.7141   -0.5816    0.0927 H   0  0  0  0  0  0  0  0  0  0  0  0
   -0.6481   -0.1156    0.2017 C   0  0  1  0  0  0  0  0  0  0  0  0
   -0.4334    0.3058    1.1858 H   0  0  0  0  0  0  0  0  0  0  0  0
    0.5740   -0.9406   -0.2463 C   0  0  0  0  0  0  0  0  0  0  0  0
    0.3438   -1.4679   -1.1732 H   0  0  0  0  0  0  0  0  0  0  0  0
    1.4148   -0.2753   -0.4472 H   0  0  0  0  0  0  0  0  0  0  0  0
    0.9858   -1.9781    0.7697 C   0  0  0  0  0  0  0  0  0  0  0  0
    1.6548   -1.7279    1.9685 N   0  0  0  0  0  0  0  0  0  0  0  0
    1.7756   -2.9158    2.5788 C   0  0  0  0  0  0  0  0  0  0  0  0
    2.2631   -3.0672    3.5337 H   0  0  0  0  0  0  0  0  0  0  0  0
    1.2002   -3.8820    1.8435 N   0  0  0  0  0  0  0  0  0  0  0  0
    1.1430   -4.8582    2.0996 H   0  0  0  0  0  0  0  0  0  0  0  0
    0.6923   -3.3085    0.6990 C   0  0  0  0  0  0  0  0  0  0  0  0
    0.1465   -3.7963   -0.0988 H   0  0  0  0  0  0  0  0  0  0  0  0
   -0.9451    1.0593   -0.7472 C   0  0  0  0  0  0  0  0  0  0  0  0
   -0.3765    2.1393   -0.5872 O   0  0  0  0  0  0  0  0  0  0  0  0
   -1.8217    0.8521   -1.7349 N   0  0  0  0  0  0  0  0  0  0  0  0
   -2.3210   -0.0303   -1.7288 H   0  0  0  0  0  0  0  0  0  0  0  0
   -2.2079    1.8497   -2.7300 C   0  0  0  0  0  0  0  0  0  0  0  0
   -1.3499    2.4766   -2.9858 H   0  0  0  0  0  0  0  0  0  0  0  0
   -2.5689    1.3533   -3.6320 H   0  0  0  0  0  0  0  0  0  0  0  0
   -2.9986    2.4831   -2.3245 H   0  0  0  0  0  0  0  0  0  0  0  0
  5  6  2  0  0  0  0
  5  7  1  0  0  0  0
  2  3  1  0  0  0  0
  2  4  1  0  0  0  0
  2  5  1  0  0  0  0
  1  2  1  0  0  0  0
 22 23  2  0  0  0  0
 22 24  1  0  0  0  0
 20 21  1  0  0  0  0
 18 19  1  0  0  0  0
 18 20  1  0  0  0  0
 16 17  1  0  0  0  0
 16 18  1  0  0  0  0
 15 16  2  0  0  0  0
 14 15  1  0  0  0  0
 14 20  2  0  0  0  0
 11 12  1  0  0  0  0
 11 13  1  0  0  0  0
 11 14  1  0  0  0  0
  9 10  1  0  0  0  0
  9 11  1  0  0  0  0
  9 22  1  0  0  0  0
  7  8  1  0  0  0  0
  7  9  1  0  0  0  0
 26 27  1  0  0  0  0
 26 28  1  0  0  0  0
 26 29  1  0  0  0  0
 24 25  1  0  0  0  0
 24 26  1  0  0  0  0
M  END
$$$$
default_name
  -OEChem-01062215323D

 29 29  0     1  0  0  0  0  0999 V2000
   -2.9561   -3.9186    1.3887 H   0  0  0  0  0  0  0  0  0  0  0  0
   -3.1191   -2.9346    0.9517 C   0  0  0  0  0  0  0  0  0  0  0  0
   -3.7811   -2.3546    1.5917 H   0  0  0  0  0  0  0  0  0  0  0  0
   -3.5591   -3.0406   -0.0383 H   0  0  0  0  0  0  0  0  0  0  0  0
   -1.7921   -2.2226    0.8327 C   0  0  0  0  0  0  0  0  0  0  0  0
   -0.7611   -2.7766    1.1927 O   0  0  0  0  0  0  0  0  0  0  0  0
   -1.8201   -0.9926    0.3247 N   0  0  0  0  0  0  0  0  0  0  0  0
   -2.7141   -0.5816    0.0927 H   0  0  0  0  0  0  0  0  0  0  0  0
   -0.6481   -0.1156    0.2017 C   0  0  1  0  0  0  0  0  0  0  0  0
   -0.4334    0.3058    1.1858 H   0  0  0  0  0  0  0  0  0  0  0  0
    0.5740   -0.9406   -0.2463 C   0  0  0  0  0  0  0  0  0  0  0  0
    0.3438   -1.4679   -1.1732 H   0  0  0  0  0  0  0  0  0  0  0  0
    1.4148   -0.2753   -0.4472 H   0  0  0  0  0  0  0  0  0  0  0  0
    0.9858   -1.9781    0.7697 C   0  0  0  0  0  0  0  0  0  0  0  0
    1.6548   -1.7279    1.9685 N   0  0  0  0  0  0  0  0  0  0  0  0
    1.7756   -2.9158    2.5788 C   0  0  0  0  0  0  0  0  0  0  0  0
    2.2631   -3.0672    3.5337 H   0  0  0  0  0  0  0  0  0  0  0  0
    1.2002   -3.8820    1.8435 N   0  0  0  0  0  0  0  0  0  0  0  0
    1.1430   -4.8582    2.0996 H   0  0  0  0  0  0  0  0  0  0  0  0
    0.6923   -3.3085    0.6990 C   0  0  0  0  0  0  0  0  0  0  0  0
    0.1465   -3.7963   -0.0988 H   0  0  0  0  0  0  0  0  0  0  0  0
   -0.9451    1.0593   -0.7472 C   0  0  0  0  0  0  0  0  0  0  0  0
   -0.1960    2.0358   -0.7718 O   0  0  0  0  0  0  0  0  0  0  0  0
   -2.0241    0.9658   -1.5307 N   0  0  0  0  0  0  0  0  0  0  0  0
   -2.6422    0.1784   -1.3699 H   0  0  0  0  0  0  0  0  0  0  0  0
   -2.4441    1.9790   -2.4959 C   0  0  0  0  0  0  0  0  0  0  0  0
   -1.5689    2.4471   -2.9537 H   0  0  0  0  0  0  0  0  0  0  0  0
   -3.0518    1.5186   -3.2762 H   0  0  0  0  0  0  0  0  0  0  0  0
   -3.0292    2.7473   -1.9878 H   0  0  0  0  0  0  0  0  0  0  0  0
  5  6  2  0  0  0  0
  5  7  1  0  0  0  0
  2  3  1  0  0  0  0
  2  4  1  0  0  0  0
  2  5  1  0  0  0  0
  1  2  1  0  0  0  0
 22 23  2  0  0  0  0
 22 24  1  0  0  0  0
 20 21  1  0  0  0  0
 18 19  1  0  0  0  0
 18 20  1  0  0  0  0
 16 17  1  0  0  0  0
 16 18  1  0  0  0  0
 15 16  2  0  0  0  0
 14 15  1  0  0  0  0
 14 20  2  0  0  0  0
 11 12  1  0  0  0  0
 11 13  1  0  0  0  0
 11 14  1  0  0  0  0
  9 10  1  0  0  0  0
  9 11  1  0  0  0  0
  9 22  1  0  0  0  0
  7  8  1  0  0  0  0
  7  9  1  0  0  0  0
 26 27  1  0  0  0  0
 26 28  1  0  0  0  0
 26 29  1  0  0  0  0
 24 25  1  0  0  0  0
 24 26  1  0  0  0  0
M  END
$$$$
default_name
  -OEChem-01062215323D

 29 29  0     1  0  0  0  0  0999 V2000
   -2.9561   -3.9186    1.3887 H   0  0  0  0  0  0  0  0  0  0  0  0
   -3.1191   -2.9346    0.9517 C   0  0  0  0  0  0  0  0  0  0  0  0
   -3.7811   -2.3546    1.5917 H   0  0  0  0  0  0  0  0  0  0  0  0
   -3.5591   -3.0406   -0.0383 H   0  0  0  0  0  0  0  0  0  0  0  0
   -1.7921   -2.2226    0.8327 C   0  0  0  0  0  0  0  0  0  0  0  0
   -0.7611   -2.7766    1.1927 O   0  0  0  0  0  0  0  0  0  0  0  0
   -1.8201   -0.9926    0.3247 N   0  0  0  0  0  0  0  0  0  0  0  0
   -2.7141   -0.5816    0.0927 H   0  0  0  0  0  0  0  0  0  0  0  0
   -0.6481   -0.1156    0.2017 C   0  0  1  0  0  0  0  0  0  0  0  0
   -0.4334    0.3058    1.1858 H   0  0  0  0  0  0  0  0  0  0  0  0
    0.5740   -0.9406   -0.2463 C   0  0  0  0  0  0  0  0  0  0  0  0
    0.3438   -1.4679   -1.1732 H   0  0  0  0  0  0  0  0  0  0  0  0
    1.4148   -0.2753   -0.4472 H   0  0  0  0  0  0  0  0  0  0  0  0
    0.9858   -1.9781    0.7697 C   0  0  0  0  0  0  0  0  0  0  0  0
    1.6548   -1.7279    1.9685 N   0  0  0  0  0  0  0  0  0  0  0  0
    1.7756   -2.9158    2.5788 C   0  0  0  0  0  0  0  0  0  0  0  0
    2.2631   -3.0672    3.5337 H   0  0  0  0  0  0  0  0  0  0  0  0
    1.2002   -3.8820    1.8435 N   0  0  0  0  0  0  0  0  0  0  0  0
    1.1430   -4.8582    2.0996 H   0  0  0  0  0  0  0  0  0  0  0  0
    0.6923   -3.3085    0.6990 C   0  0  0  0  0  0  0  0  0  0  0  0
    0.1465   -3.7963   -0.0988 H   0  0  0  0  0  0  0  0  0  0  0  0
   -0.9451    1.0593   -0.7472 C   0  0  0  0  0  0  0  0  0  0  0  0
   -0.0746    1.8978   -0.9807 O   0  0  0  0  0  0  0  0  0  0  0  0
   -2.1611    1.1182   -1.2992 N   0  0  0  0  0  0  0  0  0  0  0  0
   -2.8482    0.4491   -0.9702 H   0  0  0  0  0  0  0  0  0  0  0  0
   -2.6054    2.1534   -2.2296 C   0  0  0  0  0  0  0  0  0  0  0  0
   -1.7788    2.4553   -2.8780 H   0  0  0  0  0  0  0  0  0  0  0  0
   -3.4216    1.7730   -2.8455 H   0  0  0  0  0  0  0  0  0  0  0  0
   -2.9501    3.0243   -1.6697 H   0  0  0  0  0  0  0  0  0  0  0  0
  5  6  2  0  0  0  0
  5  7  1  0  0  0  0
  2  3  1  0  0  0  0
  2  4  1  0  0  0  0
  2  5  1  0  0  0  0
  1  2  1  0  0  0  0
 22 23  2  0  0  0  0
 22 24  1  0  0  0  0
 20 21  1  0  0  0  0
 18 19  1  0  0  0  0
 18 20  1  0  0  0  0
 16 17  1  0  0  0  0
 16 18  1  0  0  0  0
 15 16  2  0  0  0  0
 14 15  1  0  0  0  0
 14 20  2  0  0  0  0
 11 12  1  0  0  0  0
 11 13  1  0  0  0  0
 11 14  1  0  0  0  0
  9 10  1  0  0  0  0
  9 11  1  0  0  0  0
  9 22  1  0  0  0  0
  7  8  1  0  0  0  0
  7  9  1  0  0  0  0
 26 27  1  0  0  0  0
 26 28  1  0  0  0  0
 26 29  1  0  0  0  0
 24 25  1  0  0  0  0
 24 26  1  0  0  0  0
M  END
$$$$
default_name
  -OEChem-01062215323D

 29 29  0     1  0  0  0  0  0999 V2000
   -2.9561   -3.9186    1.3887 H   0  0  0  0  0  0  0  0  0  0  0  0
   -3.1191   -2.9346    0.9517 C   0  0  0  0  0  0  0  0  0  0  0  0
   -3.7811   -2.3546    1.5917 H   0  0  0  0  0  0  0  0  0  0  0  0
   -3.5591   -3.0406   -0.0383 H   0  0  0  0  0  0  0  0  0  0  0  0
   -1.7921   -2.2226    0.8327 C   0  0  0  0  0  0  0  0  0  0  0  0
   -0.7611   -2.7766    1.1927 O   0  0  0  0  0  0  0  0  0  0  0  0
   -1.8201   -0.9926    0.3247 N   0  0  0  0  0  0  0  0  0  0  0  0
   -2.7141   -0.5816    0.0927 H   0  0  0  0  0  0  0  0  0  0  0  0
   -0.6481   -0.1156    0.2017 C   0  0  1  0  0  0  0  0  0  0  0  0
   -0.4334    0.3058    1.1858 H   0  0  0  0  0  0  0  0  0  0  0  0
    0.5740   -0.9406   -0.2463 C   0  0  0  0  0  0  0  0  0  0  0  0
    0.3438   -1.4679   -1.1732 H   0  0  0  0  0  0  0  0  0  0  0  0
    1.4148   -0.2753   -0.4472 H   0  0  0  0  0  0  0  0  0  0  0  0
    0.9858   -1.9781    0.7697 C   0  0  0  0  0  0  0  0  0  0  0  0
    1.6548   -1.7279    1.9685 N   0  0  0  0  0  0  0  0  0  0  0  0
    1.7756   -2.9158    2.5788 C   0  0  0  0  0  0  0  0  0  0  0  0
    2.2631   -3.0672    3.5337 H   0  0  0  0  0  0  0  0  0  0  0  0
    1.2002   -3.8820    1.8435 N   0  0  0  0  0  0  0  0  0  0  0  0
    1.1430   -4.8582    2.0996 H   0  0  0  0  0  0  0  0  0  0  0  0
    0.6923   -3.3085    0.6990 C   0  0  0  0  0  0  0  0  0  0  0  0
    0.1465   -3.7963   -0.0988 H   0  0  0  0  0  0  0  0  0  0  0  0
   -0.9451    1.0593   -0.7472 C   0  0  0  0  0  0  0  0  0  0  0  0
   -0.0206    1.7347   -1.1996 O   0  0  0  0  0  0  0  0  0  0  0  0
   -2.2234    1.2988   -1.0561 N   0  0  0  0  0  0  0  0  0  0  0  0
   -2.9250    0.7634   -0.5570 H   0  0  0  0  0  0  0  0  0  0  0  0
   -2.6807    2.3608   -1.9492 C   0  0  0  0  0  0  0  0  0  0  0  0
   -1.9653    2.5004   -2.7637 H   0  0  0  0  0  0  0  0  0  0  0  0
   -3.6531    2.0993   -2.3690 H   0  0  0  0  0  0  0  0  0  0  0  0
   -2.7666    3.2950   -1.3918 H   0  0  0  0  0  0  0  0  0  0  0  0
  5  6  2  0  0  0  0
  5  7  1  0  0  0  0
  2  3  1  0  0  0  0
  2  4  1  0  0  0  0
  2  5  1  0  0  0  0
  1  2  1  0  0  0  0
 22 23  2  0  0  0  0
 22 24  1  0  0  0  0
 20 21  1  0  0  0  0
 18 19  1  0  0  0  0
 18 20  1  0  0  0  0
 16 17  1  0  0  0  0
 16 18  1  0  0  0  0
 15 16  2  0  0  0  0
 14 15  1  0  0  0  0
 14 20  2  0  0  0  0
 11 12  1  0  0  0  0
 11 13  1  0  0  0  0
 11 14  1  0  0  0  0
  9 10  1  0  0  0  0
  9 11  1  0  0  0  0
  9 22  1  0  0  0  0
  7  8  1  0  0  0  0
  7  9  1  0  0  0  0
 26 27  1  0  0  0  0
 26 28  1  0  0  0  0
 26 29  1  0  0  0  0
 24 25  1  0  0  0  0
 24 26  1  0  0  0  0
M  END
$$$$
default_name
  -OEChem-01062215323D

 29 29  0     1  0  0  0  0  0999 V2000
   -2.9561   -3.9186    1.3887 H   0  0  0  0  0  0  0  0  0  0  0  0
   -3.1191   -2.9346    0.9517 C   0  0  0  0  0  0  0  0  0  0  0  0
   -3.7811   -2.3546    1.5917 H   0  0  0  0  0  0  0  0  0  0  0  0
   -3.5591   -3.0406   -0.0383 H   0  0  0  0  0  0  0  0  0  0  0  0
   -1.7921   -2.2226    0.8327 C   0  0  0  0  0  0  0  0  0  0  0  0
   -0.7611   -2.7766    1.1927 O   0  0  0  0  0  0  0  0  0  0  0  0
   -1.8201   -0.9926    0.3247 N   0  0  0  0  0  0  0  0  0  0  0  0
   -2.7141   -0.5816    0.0927 H   0  0  0  0  0  0  0  0  0  0  0  0
   -0.6481   -0.1156    0.2017 C   0  0  1  0  0  0  0  0  0  0  0  0
   -0.4334    0.3058    1.1858 H   0  0  0  0  0  0  0  0  0  0  0  0
    0.5740   -0.9406   -0.2463 C   0  0  0  0  0  0  0  0  0  0  0  0
    0.3438   -1.4679   -1.1732 H   0  0  0  0  0  0  0  0  0  0  0  0
    1.4148   -0.2753   -0.4472 H   0  0  0  0  0  0  0  0  0  0  0  0
    0.9858   -1.9781    0.7697 C   0  0  0  0  0  0  0  0  0  0  0  0
    1.6548   -1.7279    1.9685 N   0  0  0  0  0  0  0  0  0  0  0  0
    1.7756   -2.9158    2.5788 C   0  0  0  0  0  0  0  0  0  0  0  0
    2.2631   -3.0672    3.5337 H   0  0  0  0  0  0  0  0  0  0  0  0
    1.2002   -3.8820    1.8435 N   0  0  0  0  0  0  0  0  0  0  0  0
    1.1430   -4.8582    2.0996 H   0  0  0  0  0  0  0  0  0  0  0  0
    0.6923   -3.3085    0.6990 C   0  0  0  0  0  0  0  0  0  0  0  0
    0.1465   -3.7963   -0.0988 H   0  0  0  0  0  0  0  0  0  0  0  0
   -0.9451    1.0593   -0.7472 C   0  0  0  0  0  0  0  0  0  0  0  0
   -0.0378    1.5576   -1.4135 O   0  0  0  0  0  0  0  0  0  0  0  0
   -2.2068    1.4953   -0.8180 N   0  0  0  0  0  0  0  0  0  0  0  0
   -2.8674    1.0999   -0.1583 H   0  0  0  0  0  0  0  0  0  0  0  0
   -2.6650    2.5872   -1.6738 C   0  0  0  0  0  0  0  0  0  0  0  0
   -2.1157    2.5794   -2.6188 H   0  0  0  0  0  0  0  0  0  0  0  0
   -3.7305    2.4752   -1.8793 H   0  0  0  0  0  0  0  0  0  0  0  0
   -2.4913    3.5411   -1.1733 H   0  0  0  0  0  0  0  0  0  0  0  0
  5  6  2  0  0  0  0
  5  7  1  0  0  0  0
  2  3  1  0  0  0  0
  2  4  1  0  0  0  0
  2  5  1  0  0  0  0
  1  2  1  0  0  0  0
 22 23  2  0  0  0  0
 22 24  1  0  0  0  0
 20 21  1  0  0  0  0
 18 19  1  0  0  0  0
 18 20  1  0  0  0  0
 16 17  1  0  0  0  0
 16 18  1  0  0  0  0
 15 16  2  0  0  0  0
 14 15  1  0  0  0  0
 14 20  2  0  0  0  0
 11 12  1  0  0  0  0
 11 13  1  0  0  0  0
 11 14  1  0  0  0  0
  9 10  1  0  0  0  0
  9 11  1  0  0  0  0
  9 22  1  0  0  0  0
  7  8  1  0  0  0  0
  7  9  1  0  0  0  0
 26 27  1  0  0  0  0
 26 28  1  0  0  0  0
 26 29  1  0  0  0  0
 24 25  1  0  0  0  0
 24 26  1  0  0  0  0
M  END
$$$$
default_name
  -OEChem-01062215323D

 29 29  0     1  0  0  0  0  0999 V2000
   -2.9561   -3.9186    1.3887 H   0  0  0  0  0  0  0  0  0  0  0  0
   -3.1191   -2.9346    0.9517 C   0  0  0  0  0  0  0  0  0  0  0  0
   -3.7811   -2.3546    1.5917 H   0  0  0  0  0  0  0  0  0  0  0  0
   -3.5591   -3.0406   -0.0383 H   0  0  0  0  0  0  0  0  0  0  0  0
   -1.7921   -2.2226    0.8327 C   0  0  0  0  0  0  0  0  0  0  0  0
   -0.7611   -2.7766    1.1927 O   0  0  0  0  0  0  0  0  0  0  0  0
   -1.8201   -0.9926    0.3247 N   0  0  0  0  0  0  0  0  0  0  0  0
   -2.7141   -0.5816    0.0927 H   0  0  0  0  0  0  0  0  0  0  0  0
   -0.6481   -0.1156    0.2017 C   0  0  1  0  0  0  0  0  0  0  0  0
   -0.4334    0.3058    1.1858 H   0  0  0  0  0  0  0  0  0  0  0  0
    0.5740   -0.9406   -0.2463 C   0  0  0  0  0  0  0  0  0  0  0  0
    0.3438   -1.4679   -1.1732 H   0  0  0  0  0  0  0  0  0  0  0  0
    1.4148   -0.2753   -0.4472 H   0  0  0  0  0  0  0  0  0  0  0  0
    0.9858   -1.9781    0.7697 C   0  0  0  0  0  0  0  0  0  0  0  0
    1.6548   -1.7279    1.9685 N   0  0  0  0  0  0  0  0  0  0  0  0
    1.7756   -2.9158    2.5788 C   0  0  0  0  0  0  0  0  0  0  0  0
    2.2631   -3.0672    3.5337 H   0  0  0  0  0  0  0  0  0  0  0  0
    1.2002   -3.8820    1.8435 N   0  0  0  0  0  0  0  0  0  0  0  0
    1.1430   -4.8582    2.0996 H   0  0  0  0  0  0  0  0  0  0  0  0
    0.6923   -3.3085    0.6990 C   0  0  0  0  0  0  0  0  0  0  0  0
    0.1465   -3.7963   -0.0988 H   0  0  0  0  0  0  0  0  0  0  0  0
   -0.9451    1.0593   -0.7472 C   0  0  0  0  0  0  0  0  0  0  0  0
   -0.1249    1.3786   -1.6078 O   0  0  0  0  0  0  0  0  0  0  0  0
   -2.1123    1.6943   -0.6012 N   0  0  0  0  0  0  0  0  0  0  0  0
   -2.6794    1.4357    0.1985 H   0  0  0  0  0  0  0  0  0  0  0  0
   -2.5593    2.8171   -1.4222 C   0  0  0  0  0  0  0  0  0  0  0  0
   -2.2197    2.6870   -2.4530 H   0  0  0  0  0  0  0  0  0  0  0  0
   -3.6486    2.8751   -1.4098 H   0  0  0  0  0  0  0  0  0  0  0  0
   -2.1429    3.7459   -1.0288 H   0  0  0  0  0  0  0  0  0  0  0  0
  5  6  2  0  0  0  0
  5  7  1  0  0  0  0
  2  3  1  0  0  0  0
  2  4  1  0  0  0  0
  2  5  1  0  0  0  0
  1  2  1  0  0  0  0
 22 23  2  0  0  0  0
 22 24  1  0  0  0  0
 20 21  1  0  0  0  0
 18 19  1  0  0  0  0
 18 20  1  0  0  0  0
 16 17  1  0  0  0  0
 16 18  1  0  0  0  0
 15 16  2  0  0  0  0
 14 15  1  0  0  0  0
 14 20  2  0  0  0  0
 11 12  1  0  0  0  0
 11 13  1  0  0  0  0
 11 14  1  0  0  0  0
  9 10  1  0  0  0  0
  9 11  1  0  0  0  0
  9 22  1  0  0  0  0
  7  8  1  0  0  0  0
  7  9  1  0  0  0  0
 26 27  1  0  0  0  0
 26 28  1  0  0  0  0
 26 29  1  0  0  0  0
 24 25  1  0  0  0  0
 24 26  1  0  0  0  0
M  END
$$$$
default_name
  -OEChem-01062215323D

 29 29  0     1  0  0  0  0  0999 V2000
   -2.9561   -3.9186    1.3887 H   0  0  0  0  0  0  0  0  0  0  0  0
   -3.1191   -2.9346    0.9517 C   0  0  0  0  0  0  0  0  0  0  0  0
   -3.7811   -2.3546    1.5917 H   0  0  0  0  0  0  0  0  0  0  0  0
   -3.5591   -3.0406   -0.0383 H   0  0  0  0  0  0  0  0  0  0  0  0
   -1.7921   -2.2226    0.8327 C   0  0  0  0  0  0  0  0  0  0  0  0
   -0.7611   -2.7766    1.1927 O   0  0  0  0  0  0  0  0  0  0  0  0
   -1.8201   -0.9926    0.3247 N   0  0  0  0  0  0  0  0  0  0  0  0
   -2.7141   -0.5816    0.0927 H   0  0  0  0  0  0  0  0  0  0  0  0
   -0.6481   -0.1156    0.2017 C   0  0  1  0  0  0  0  0  0  0  0  0
   -0.4334    0.3058    1.1858 H   0  0  0  0  0  0  0  0  0  0  0  0
    0.5740   -0.9406   -0.2463 C   0  0  0  0  0  0  0  0  0  0  0  0
    0.3438   -1.4679   -1.1732 H   0  0  0  0  0  0  0  0  0  0  0  0
    1.4148   -0.2753   -0.4472 H   0  0  0  0  0  0  0  0  0  0  0  0
    0.9858   -1.9781    0.7697 C   0  0  0  0  0  0  0  0  0  0  0  0
    1.6548   -1.7279    1.9685 N   0  0  0  0  0  0  0  0  0  0  0  0
    1.7756   -2.9158    2.5788 C   0  0  0  0  0  0  0  0  0  0  0  0
    2.2631   -3.0672    3.5337 H   0  0  0  0  0  0  0  0  0  0  0  0
    1.2002   -3.8820    1.8435 N   0  0  0  0  0  0  0  0  0  0  0  0
    1.1430   -4.8582    2.0996 H   0  0  0  0  0  0  0  0  0  0  0  0
    0.6923   -3.3085    0.6990 C   0  0  0  0  0  0  0  0  0  0  0  0
    0.1465   -3.7963   -0.0988 H   0  0  0  0  0  0  0  0  0  0  0  0
   -0.9451    1.0593   -0.7472 C   0  0  0  0  0  0  0  0  0  0  0  0
   -0.2760    1.2098   -1.7695 O   0  0  0  0  0  0  0  0  0  0  0  0
   -1.9464    1.8823   -0.4203 N   0  0  0  0  0  0  0  0  0  0  0  0
   -2.3736    1.7478    0.4893 H   0  0  0  0  0  0  0  0  0  0  0  0
   -2.3707    3.0349   -1.2116 C   0  0  0  0  0  0  0  0  0  0  0  0
   -2.2703    2.8158   -2.2777 H   0  0  0  0  0  0  0  0  0  0  0  0
   -3.4128    3.2718   -0.9925 H   0  0  0  0  0  0  0  0  0  0  0  0
   -1.7452    3.8953   -0.9683 H   0  0  0  0  0  0  0  0  0  0  0  0
  5  6  2  0  0  0  0
  5  7  1  0  0  0  0
  2  3  1  0  0  0  0
  2  4  1  0  0  0  0
  2  5  1  0  0  0  0
  1  2  1  0  0  0  0
 22 23  2  0  0  0  0
 22 24  1  0  0  0  0
 20 21  1  0  0  0  0
 18 19  1  0  0  0  0
 18 20  1  0  0  0  0
 16 17  1  0  0  0  0
 16 18  1  0  0  0  0
 15 16  2  0  0  0  0
 14 15  1  0  0  0  0
 14 20  2  0  0  0  0
 11 12  1  0  0  0  0
 11 13  1  0  0  0  0
 11 14  1  0  0  0  0
  9 10  1  0  0  0  0
  9 11  1  0  0  0  0
  9 22  1  0  0  0  0
  7  8  1  0  0  0  0
  7  9  1  0  0  0  0
 26 27  1  0  0  0  0
 26 28  1  0  0  0  0
 26 29  1  0  0  0  0
 24 25  1  0  0  0  0
 24 26  1  0  0  0  0
M  END
$$$$
default_name
  -OEChem-01062215323D

 29 29  0     1  0  0  0  0  0999 V2000
   -2.9561   -3.9186    1.3887 H   0  0  0  0  0  0  0  0  0  0  0  0
   -3.1191   -2.9346    0.9517 C   0  0  0  0  0  0  0  0  0  0  0  0
   -3.7811   -2.3546    1.5917 H   0  0  0  0  0  0  0  0  0  0  0  0
   -3.5591   -3.0406   -0.0383 H   0  0  0  0  0  0  0  0  0  0  0  0
   -1.7921   -2.2226    0.8327 C   0  0  0  0  0  0  0  0  0  0  0  0
   -0.7611   -2.7766    1.1927 O   0  0  0  0  0  0  0  0  0  0  0  0
   -1.8201   -0.9926    0.3247 N   0  0  0  0  0  0  0  0  0  0  0  0
   -2.7141   -0.5816    0.0927 H   0  0  0  0  0  0  0  0  0  0  0  0
   -0.6481   -0.1156    0.2017 C   0  0  1  0  0  0  0  0  0  0  0  0
   -0.4334    0.3058    1.1858 H   0  0  0  0  0  0  0  0  0  0  0  0
    0.5740   -0.9406   -0.2463 C   0  0  0  0  0  0  0  0  0  0  0  0
    0.3438   -1.4679   -1.1732 H   0  0  0  0  0  0  0  0  0  0  0  0
    1.4148   -0.2753   -0.4472 H   0  0  0  0  0  0  0  0  0  0  0  0
    0.9858   -1.9781    0.7697 C   0  0  0  0  0  0  0  0  0  0  0  0
    1.6548   -1.7279    1.9685 N   0  0  0  0  0  0  0  0  0  0  0  0
    1.7756   -2.9158    2.5788 C   0  0  0  0  0  0  0  0  0  0  0  0
    2.2631   -3.0672    3.5337 H   0  0  0  0  0  0  0  0  0  0  0  0
    1.2002   -3.8820    1.8435 N   0  0  0  0  0  0  0  0  0  0  0  0
    1.1430   -4.8582    2.0996 H   0  0  0  0  0  0  0  0  0  0  0  0
    0.6923   -3.3085    0.6990 C   0  0  0  0  0  0  0  0  0  0  0  0
    0.1465   -3.7963   -0.0988 H   0  0  0  0  0  0  0  0  0  0  0  0
   -0.9451    1.0593   -0.7472 C   0  0  0  0  0  0  0  0  0  0  0  0
   -0.4808    1.0629   -1.8873 O   0  0  0  0  0  0  0  0  0  0  0  0
   -1.7204    2.0465   -0.2877 N   0  0  0  0  0  0  0  0  0  0  0  0
   -1.9710    2.0151    0.6942 H   0  0  0  0  0  0  0  0  0  0  0  0
   -2.1123    3.2257   -1.0563 C   0  0  0  0  0  0  0  0  0  0  0  0
   -2.2640    2.9570   -2.1049 H   0  0  0  0  0  0  0  0  0  0  0  0
   -3.0394    3.6382   -0.6557 H   0  0  0  0  0  0  0  0  0  0  0  0
   -1.3252    3.9791   -0.9959 H   0  0  0  0  0  0  0  0  0  0  0  0
  5  6  2  0  0  0  0
  5  7  1  0  0  0  0
  2  3  1  0  0  0  0
  2  4  1  0  0  0  0
  2  5  1  0  0  0  0
  1  2  1  0  0  0  0
 22 23  2  0  0  0  0
 22 24  1  0  0  0  0
 20 21  1  0  0  0  0
 18 19  1  0  0  0  0
 18 20  1  0  0  0  0
 16 17  1  0  0  0  0
 16 18  1  0  0  0  0
 15 16  2  0  0  0  0
 14 15  1  0  0  0  0
 14 20  2  0  0  0  0
 11 12  1  0  0  0  0
 11 13  1  0  0  0  0
 11 14  1  0  0  0  0
  9 10  1  0  0  0  0
  9 11  1  0  0  0  0
  9 22  1  0  0  0  0
  7  8  1  0  0  0  0
  7  9  1  0  0  0  0
 26 27  1  0  0  0  0
 26 28  1  0  0  0  0
 26 29  1  0  0  0  0
 24 25  1  0  0  0  0
 24 26  1  0  0  0  0
M  END
$$$$
default_name
  -OEChem-01062215323D

 29 29  0     1  0  0  0  0  0999 V2000
   -2.9561   -3.9186    1.3887 H   0  0  0  0  0  0  0  0  0  0  0  0
   -3.1191   -2.9346    0.9517 C   0  0  0  0  0  0  0  0  0  0  0  0
   -3.7811   -2.3546    1.5917 H   0  0  0  0  0  0  0  0  0  0  0  0
   -3.5591   -3.0406   -0.0383 H   0  0  0  0  0  0  0  0  0  0  0  0
   -1.7921   -2.2226    0.8327 C   0  0  0  0  0  0  0  0  0  0  0  0
   -0.7611   -2.7766    1.1927 O   0  0  0  0  0  0  0  0  0  0  0  0
   -1.8201   -0.9926    0.3247 N   0  0  0  0  0  0  0  0  0  0  0  0
   -2.7141   -0.5816    0.0927 H   0  0  0  0  0  0  0  0  0  0  0  0
   -0.6481   -0.1156    0.2017 C   0  0  1  0  0  0  0  0  0  0  0  0
   -0.4334    0.3058    1.1858 H   0  0  0  0  0  0  0  0  0  0  0  0
    0.5740   -0.9406   -0.2463 C   0  0  0  0  0  0  0  0  0  0  0  0
    0.3438   -1.4679   -1.1732 H   0  0  0  0  0  0  0  0  0  0  0  0
    1.4148   -0.2753   -0.4472 H   0  0  0  0  0  0  0  0  0  0  0  0
    0.9858   -1.9781    0.7697 C   0  0  0  0  0  0  0  0  0  0  0  0
    1.6548   -1.7279    1.9685 N   0  0  0  0  0  0  0  0  0  0  0  0
    1.7756   -2.9158    2.5788 C   0  0  0  0  0  0  0  0  0  0  0  0
    2.2631   -3.0672    3.5337 H   0  0  0  0  0  0  0  0  0  0  0  0
    1.2002   -3.8820    1.8435 N   0  0  0  0  0  0  0  0  0  0  0  0
    1.1430   -4.8582    2.0996 H   0  0  0  0  0  0  0  0  0  0  0  0
    0.6923   -3.3085    0.6990 C   0  0  0  0  0  0  0  0  0  0  0  0
    0.1465   -3.7963   -0.0988 H   0  0  0  0  0  0  0  0  0  0  0  0
   -0.9451    1.0593   -0.7472 C   0  0  0  0  0  0  0  0  0  0  0  0
   -0.7253    0.9478   -1.9533 O   0  0  0  0  0  0  0  0  0  0  0  0
   -1.4498    2.1757   -0.2125 N   0  0  0  0  0  0  0  0  0  0  0  0
   -1.4991    2.2192    0.7992 H   0  0  0  0  0  0  0  0  0  0  0  0
   -1.8015    3.3765   -0.9668 C   0  0  0  0  0  0  0  0  0  0  0  0
   -2.2011    3.1011   -1.9462 H   0  0  0  0  0  0  0  0  0  0  0  0
   -2.5537    3.9493   -0.4226 H   0  0  0  0  0  0  0  0  0  0  0  0
   -0.9117    3.9917   -1.1098 H   0  0  0  0  0  0  0  0  0  0  0  0
  5  6  2  0  0  0  0
  5  7  1  0  0  0  0
  2  3  1  0  0  0  0
  2  4  1  0  0  0  0
  2  5  1  0  0  0  0
  1  2  1  0  0  0  0
 22 23  2  0  0  0  0
 22 24  1  0  0  0  0
 20 21  1  0  0  0  0
 18 19  1  0  0  0  0
 18 20  1  0  0  0  0
 16 17  1  0  0  0  0
 16 18  1  0  0  0  0
 15 16  2  0  0  0  0
 14 15  1  0  0  0  0
 14 20  2  0  0  0  0
 11 12  1  0  0  0  0
 11 13  1  0  0  0  0
 11 14  1  0  0  0  0
  9 10  1  0  0  0  0
  9 11  1  0  0  0  0
  9 22  1  0  0  0  0
  7  8  1  0  0  0  0
  7  9  1  0  0  0  0
 26 27  1  0  0  0  0
 26 28  1  0  0  0  0
 26 29  1  0  0  0  0
 24 25  1  0  0  0  0
 24 26  1  0  0  0  0
M  END
$$$$
default_name
  -OEChem-01062215323D

 29 29  0     1  0  0  0  0  0999 V2000
   -2.9561   -3.9186    1.3887 H   0  0  0  0  0  0  0  0  0  0  0  0
   -3.1191   -2.9346    0.9517 C   0  0  0  0  0  0  0  0  0  0  0  0
   -3.7811   -2.3546    1.5917 H   0  0  0  0  0  0  0  0  0  0  0  0
   -3.5591   -3.0406   -0.0383 H   0  0  0  0  0  0  0  0  0  0  0  0
   -1.7921   -2.2226    0.8327 C   0  0  0  0  0  0  0  0  0  0  0  0
   -0.7611   -2.7766    1.1927 O   0  0  0  0  0  0  0  0  0  0  0  0
   -1.8201   -0.9926    0.3247 N   0  0  0  0  0  0  0  0  0  0  0  0
   -2.7141   -0.5816    0.0927 H   0  0  0  0  0  0  0  0  0  0  0  0
   -0.6481   -0.1156    0.2017 C   0  0  1  0  0  0  0  0  0  0  0  0
   -0.4334    0.3058    1.1858 H   0  0  0  0  0  0  0  0  0  0  0  0
    0.5740   -0.9406   -0.2463 C   0  0  0  0  0  0  0  0  0  0  0  0
    0.3438   -1.4679   -1.1732 H   0  0  0  0  0  0  0  0  0  0  0  0
    1.4148   -0.2753   -0.4472 H   0  0  0  0  0  0  0  0  0  0  0  0
    0.9858   -1.9781    0.7697 C   0  0  0  0  0  0  0  0  0  0  0  0
    1.6548   -1.7279    1.9685 N   0  0  0  0  0  0  0  0  0  0  0  0
    1.7756   -2.9158    2.5788 C   0  0  0  0  0  0  0  0  0  0  0  0
    2.2631   -3.0672    3.5337 H   0  0  0  0  0  0  0  0  0  0  0  0
    1.2002   -3.8820    1.8435 N   0  0  0  0  0  0  0  0  0  0  0  0
    1.1430   -4.8582    2.0996 H   0  0  0  0  0  0  0  0  0  0  0  0
    0.6923   -3.3085    0.6990 C   0  0  0  0  0  0  0  0  0  0  0  0
    0.1465   -3.7963   -0.0988 H   0  0  0  0  0  0  0  0  0  0  0  0
   -0.9451    1.0593   -0.7472 C   0  0  0  0  0  0  0  0  0  0  0  0
   -0.9929    0.8723   -1.9630 O   0  0  0  0  0  0  0  0  0  0  0  0
   -1.1529    2.2610   -0.1998 N   0  0  0  0  0  0  0  0  0  0  0  0
   -0.9898    2.3463    0.7972 H   0  0  0  0  0  0  0  0  0  0  0  0
   -1.4596    3.4770   -0.9493 C   0  0  0  0  0  0  0  0  0  0  0  0
   -2.0861    3.2381   -1.8125 H   0  0  0  0  0  0  0  0  0  0  0  0
   -1.9889    4.1839   -0.3088 H   0  0  0  0  0  0  0  0  0  0  0  0
   -0.5327    3.9322   -1.3020 H   0  0  0  0  0  0  0  0  0  0  0  0
  5  6  2  0  0  0  0
  5  7  1  0  0  0  0
  2  3  1  0  0  0  0
  2  4  1  0  0  0  0
  2  5  1  0  0  0  0
  1  2  1  0  0  0  0
 22 23  2  0  0  0  0
 22 24  1  0  0  0  0
 20 21  1  0  0  0  0
 18 19  1  0  0  0  0
 18 20  1  0  0  0  0
 16 17  1  0  0  0  0
 16 18  1  0  0  0  0
 15 16  2  0  0  0  0
 14 15  1  0  0  0  0
 14 20  2  0  0  0  0
 11 12  1  0  0  0  0
 11 13  1  0  0  0  0
 11 14  1  0  0  0  0
  9 10  1  0  0  0  0
  9 11  1  0  0  0  0
  9 22  1  0  0  0  0
  7  8  1  0  0  0  0
  7  9  1  0  0  0  0
 26 27  1  0  0  0  0
 26 28  1  0  0  0  0
 26 29  1  0  0  0  0
 24 25  1  0  0  0  0
 24 26  1  0  0  0  0
M  END
$$$$
default_name
  -OEChem-01062215323D

 29 29  0     1  0  0  0  0  0999 V2000
   -2.9561   -3.9186    1.3887 H   0  0  0  0  0  0  0  0  0  0  0  0
   -3.1191   -2.9346    0.9517 C   0  0  0  0  0  0  0  0  0  0  0  0
   -3.7811   -2.3546    1.5917 H   0  0  0  0  0  0  0  0  0  0  0  0
   -3.5591   -3.0406   -0.0383 H   0  0  0  0  0  0  0  0  0  0  0  0
   -1.7921   -2.2226    0.8327 C   0  0  0  0  0  0  0  0  0  0  0  0
   -0.7611   -2.7766    1.1927 O   0  0  0  0  0  0  0  0  0  0  0  0
   -1.8201   -0.9926    0.3247 N   0  0  0  0  0  0  0  0  0  0  0  0
   -2.7141   -0.5816    0.0927 H   0  0  0  0  0  0  0  0  0  0  0  0
   -0.6481   -0.1156    0.2017 C   0  0  1  0  0  0  0  0  0  0  0  0
   -0.4334    0.3058    1.1858 H   0  0  0  0  0  0  0  0  0  0  0  0
    0.5740   -0.9406   -0.2463 C   0  0  0  0  0  0  0  0  0  0  0  0
    0.3438   -1.4679   -1.1732 H   0  0  0  0  0  0  0  0  0  0  0  0
    1.4148   -0.2753   -0.4472 H   0  0  0  0  0  0  0  0  0  0  0  0
    0.9858   -1.9781    0.7697 C   0  0  0  0  0  0  0  0  0  0  0  0
    1.6548   -1.7279    1.9685 N   0  0  0  0  0  0  0  0  0  0  0  0
    1.7756   -2.9158    2.5788 C   0  0  0  0  0  0  0  0  0  0  0  0
    2.2631   -3.0672    3.5337 H   0  0  0  0  0  0  0  0  0  0  0  0
    1.2002   -3.8820    1.8435 N   0  0  0  0  0  0  0  0  0  0  0  0
    1.1430   -4.8582    2.0996 H   0  0  0  0  0  0  0  0  0  0  0  0
    0.6923   -3.3085    0.6990 C   0  0  0  0  0  0  0  0  0  0  0  0
    0.1465   -3.7963   -0.0988 H   0  0  0  0  0  0  0  0  0  0  0  0
   -0.9451    1.0593   -0.7472 C   0  0  0  0  0  0  0  0  0  0  0  0
   -1.2654    0.8416   -1.9157 O   0  0  0  0  0  0  0  0  0  0  0  0
   -0.8500    2.2967   -0.2505 N   0  0  0  0  0  0  0  0  0  0  0  0
   -0.4781    2.3877    0.6883 H   0  0  0  0  0  0  0  0  0  0  0  0
   -1.1098    3.5205   -1.0050 C   0  0  0  0  0  0  0  0  0  0  0  0
   -1.9267    3.3588   -1.7130 H   0  0  0  0  0  0  0  0  0  0  0  0
   -1.3833    4.3261   -0.3222 H   0  0  0  0  0  0  0  0  0  0  0  0
   -0.2141    3.8047   -1.5597 H   0  0  0  0  0  0  0  0  0  0  0  0
  5  6  2  0  0  0  0
  5  7  1  0  0  0  0
  2  3  1  0  0  0  0
  2  4  1  0  0  0  0
  2  5  1  0  0  0  0
  1  2  1  0  0  0  0
 22 23  2  0  0  0  0
 22 24  1  0  0  0  0
 20 21  1  0  0  0  0
 18 19  1  0  0  0  0
 18 20  1  0  0  0  0
 16 17  1  0  0  0  0
 16 18  1  0  0  0  0
 15 16  2  0  0  0  0
 14 15  1  0  0  0  0
 14 20  2  0  0  0  0
 11 12  1  0  0  0  0
 11 13  1  0  0  0  0
 11 14  1  0  0  0  0
  9 10  1  0  0  0  0
  9 11  1  0  0  0  0
  9 22  1  0  0  0  0
  7  8  1  0  0  0  0
  7  9  1  0  0  0  0
 26 27  1  0  0  0  0
 26 28  1  0  0  0  0
 26 29  1  0  0  0  0
 24 25  1  0  0  0  0
 24 26  1  0  0  0  0
M  END
$$$$
default_name
  -OEChem-01062215323D

 29 29  0     1  0  0  0  0  0999 V2000
   -2.9561   -3.9186    1.3887 H   0  0  0  0  0  0  0  0  0  0  0  0
   -3.1191   -2.9346    0.9517 C   0  0  0  0  0  0  0  0  0  0  0  0
   -3.7811   -2.3546    1.5917 H   0  0  0  0  0  0  0  0  0  0  0  0
   -3.5591   -3.0406   -0.0383 H   0  0  0  0  0  0  0  0  0  0  0  0
   -1.7921   -2.2226    0.8327 C   0  0  0  0  0  0  0  0  0  0  0  0
   -0.7611   -2.7766    1.1927 O   0  0  0  0  0  0  0  0  0  0  0  0
   -1.8201   -0.9926    0.3247 N   0  0  0  0  0  0  0  0  0  0  0  0
   -2.7141   -0.5816    0.0927 H   0  0  0  0  0  0  0  0  0  0  0  0
   -0.6481   -0.1156    0.2017 C   0  0  1  0  0  0  0  0  0  0  0  0
   -0.4334    0.3058    1.1858 H   0  0  0  0  0  0  0  0  0  0  0  0
    0.5740   -0.9406   -0.2463 C   0  0  0  0  0  0  0  0  0  0  0  0
    0.3438   -1.4679   -1.1732 H   0  0  0  0  0  0  0  0  0  0  0  0
    1.4148   -0.2753   -0.4472 H   0  0  0  0  0  0  0  0  0  0  0  0
    0.9858   -1.9781    0.7697 C   0  0  0  0  0  0  0  0  0  0  0  0
    1.6548   -1.7279    1.9685 N   0  0  0  0  0  0  0  0  0  0  0  0
    1.7756   -2.9158    2.5788 C   0  0  0  0  0  0  0  0  0  0  0  0
    2.2631   -3.0672    3.5337 H   0  0  0  0  0  0  0  0  0  0  0  0
    1.2002   -3.8820    1.8435 N   0  0  0  0  0  0  0  0  0  0  0  0
    1.1430   -4.8582    2.0996 H   0  0  0  0  0  0  0  0  0  0  0  0
    0.6923   -3.3085    0.6990 C   0  0  0  0  0  0  0  0  0  0  0  0
    0.1465   -3.7963   -0.0988 H   0  0  0  0  0  0  0  0  0  0  0  0
   -0.9451    1.0593   -0.7472 C   0  0  0  0  0  0  0  0  0  0  0  0
   -1.5241    0.8578   -1.8147 O   0  0  0  0  0  0  0  0  0  0  0  0
   -0.5618    2.2802   -0.3610 N   0  0  0  0  0  0  0  0  0  0  0  0
    0.0013    2.3407    0.4800 H   0  0  0  0  0  0  0  0  0  0  0  0
   -0.7760    3.5038   -1.1301 C   0  0  0  0  0  0  0  0  0  0  0  0
   -1.7339    3.4549   -1.6543 H   0  0  0  0  0  0  0  0  0  0  0  0
   -0.7784    4.3662   -0.4619 H   0  0  0  0  0  0  0  0  0  0  0  0
    0.0224    3.6178   -1.8651 H   0  0  0  0  0  0  0  0  0  0  0  0
  5  6  2  0  0  0  0
  5  7  1  0  0  0  0
  2  3  1  0  0  0  0
  2  4  1  0  0  0  0
  2  5  1  0  0  0  0
  1  2  1  0  0  0  0
 22 23  2  0  0  0  0
 22 24  1  0  0  0  0
 20 21  1  0  0  0  0
 18 19  1  0  0  0  0
 18 20  1  0  0  0  0
 16 17  1  0  0  0  0
 16 18  1  0  0  0  0
 15 16  2  0  0  0  0
 14 15  1  0  0  0  0
 14 20  2  0  0  0  0
 11 12  1  0  0  0  0
 11 13  1  0  0  0  0
 11 14  1  0  0  0  0
  9 10  1  0  0  0  0
  9 11  1  0  0  0  0
  9 22  1  0  0  0  0
  7  8  1  0  0  0  0
  7  9  1  0  0  0  0
 26 27  1  0  0  0  0
 26 28  1  0  0  0  0
 26 29  1  0  0  0  0
 24 25  1  0  0  0  0
 24 26  1  0  0  0  0
M  END
$$$$
default_name
  -OEChem-01062215323D

 29 29  0     1  0  0  0  0  0999 V2000
   -2.9561   -3.9186    1.3887 H   0  0  0  0  0  0  0  0  0  0  0  0
   -3.1191   -2.9346    0.9517 C   0  0  0  0  0  0  0  0  0  0  0  0
   -3.7811   -2.3546    1.5917 H   0  0  0  0  0  0  0  0  0  0  0  0
   -3.5591   -3.0406   -0.0383 H   0  0  0  0  0  0  0  0  0  0  0  0
   -1.7921   -2.2226    0.8327 C   0  0  0  0  0  0  0  0  0  0  0  0
   -0.7611   -2.7766    1.1927 O   0  0  0  0  0  0  0  0  0  0  0  0
   -1.8201   -0.9926    0.3247 N   0  0  0  0  0  0  0  0  0  0  0  0
   -2.7141   -0.5816    0.0927 H   0  0  0  0  0  0  0  0  0  0  0  0
   -0.6481   -0.1156    0.2017 C   0  0  1  0  0  0  0  0  0  0  0  0
   -0.4334    0.3058    1.1858 H   0  0  0  0  0  0  0  0  0  0  0  0
    0.5740   -0.9406   -0.2463 C   0  0  0  0  0  0  0  0  0  0  0  0
    0.3438   -1.4679   -1.1732 H   0  0  0  0  0  0  0  0  0  0  0  0
    1.4148   -0.2753   -0.4472 H   0  0  0  0  0  0  0  0  0  0  0  0
    0.9858   -1.9781    0.7697 C   0  0  0  0  0  0  0  0  0  0  0  0
    1.6548   -1.7279    1.9685 N   0  0  0  0  0  0  0  0  0  0  0  0
    1.7756   -2.9158    2.5788 C   0  0  0  0  0  0  0  0  0  0  0  0
    2.2631   -3.0672    3.5337 H   0  0  0  0  0  0  0  0  0  0  0  0
    1.2002   -3.8820    1.8435 N   0  0  0  0  0  0  0  0  0  0  0  0
    1.1430   -4.8582    2.0996 H   0  0  0  0  0  0  0  0  0  0  0  0
    0.6923   -3.3085    0.6990 C   0  0  0  0  0  0  0  0  0  0  0  0
    0.1465   -3.7963   -0.0988 H   0  0  0  0  0  0  0  0  0  0  0  0
   -0.9451    1.0593   -0.7472 C   0  0  0  0  0  0  0  0  0  0  0  0
   -1.7515    0.9197   -1.6668 O   0  0  0  0  0  0  0  0  0  0  0  0
   -0.3078    2.2129   -0.5239 N   0  0  0  0  0  0  0  0  0  0  0  0
    0.4157    2.2083    0.1864 H   0  0  0  0  0  0  0  0  0  0  0  0
   -0.4810    3.4283   -1.3160 C   0  0  0  0  0  0  0  0  0  0  0  0
   -1.5207    3.5199   -1.6406 H   0  0  0  0  0  0  0  0  0  0  0  0
   -0.2153    4.3014   -0.7184 H   0  0  0  0  0  0  0  0  0  0  0  0
    0.1607    3.3843   -2.1975 H   0  0  0  0  0  0  0  0  0  0  0  0
  5  6  2  0  0  0  0
  5  7  1  0  0  0  0
  2  3  1  0  0  0  0
  2  4  1  0  0  0  0
  2  5  1  0  0  0  0
  1  2  1  0  0  0  0
 22 23  2  0  0  0  0
 22 24  1  0  0  0  0
 20 21  1  0  0  0  0
 18 19  1  0  0  0  0
 18 20  1  0  0  0  0
 16 17  1  0  0  0  0
 16 18  1  0  0  0  0
 15 16  2  0  0  0  0
 14 15  1  0  0  0  0
 14 20  2  0  0  0  0
 11 12  1  0  0  0  0
 11 13  1  0  0  0  0
 11 14  1  0  0  0  0
  9 10  1  0  0  0  0
  9 11  1  0  0  0  0
  9 22  1  0  0  0  0
  7  8  1  0  0  0  0
  7  9  1  0  0  0  0
 26 27  1  0  0  0  0
 26 28  1  0  0  0  0
 26 29  1  0  0  0  0
 24 25  1  0  0  0  0
 24 26  1  0  0  0  0
M  END
$$$$
default_name
  -OEChem-01062215323D

 29 29  0     1  0  0  0  0  0999 V2000
   -2.9561   -3.9186    1.3887 H   0  0  0  0  0  0  0  0  0  0  0  0
   -3.1191   -2.9346    0.9517 C   0  0  0  0  0  0  0  0  0  0  0  0
   -3.7811   -2.3546    1.5917 H   0  0  0  0  0  0  0  0  0  0  0  0
   -3.5591   -3.0406   -0.0383 H   0  0  0  0  0  0  0  0  0  0  0  0
   -1.7921   -2.2226    0.8327 C   0  0  0  0  0  0  0  0  0  0  0  0
   -0.7611   -2.7766    1.1927 O   0  0  0  0  0  0  0  0  0  0  0  0
   -1.8201   -0.9926    0.3247 N   0  0  0  0  0  0  0  0  0  0  0  0
   -2.7141   -0.5816    0.0927 H   0  0  0  0  0  0  0  0  0  0  0  0
   -0.6481   -0.1156    0.2017 C   0  0  1  0  0  0  0  0  0  0  0  0
   -0.4334    0.3058    1.1858 H   0  0  0  0  0  0  0  0  0  0  0  0
    0.5740   -0.9406   -0.2463 C   0  0  0  0  0  0  0  0  0  0  0  0
    0.3438   -1.4679   -1.1732 H   0  0  0  0  0  0  0  0  0  0  0  0
    1.4148   -0.2753   -0.4472 H   0  0  0  0  0  0  0  0  0  0  0  0
    0.9858   -1.9781    0.7697 C   0  0  0  0  0  0  0  0  0  0  0  0
    1.6548   -1.7279    1.9685 N   0  0  0  0  0  0  0  0  0  0  0  0
    1.7756   -2.9158    2.5788 C   0  0  0  0  0  0  0  0  0  0  0  0
    2.2631   -3.0672    3.5337 H   0  0  0  0  0  0  0  0  0  0  0  0
    1.2002   -3.8820    1.8435 N   0  0  0  0  0  0  0  0  0  0  0  0
    1.1430   -4.8582    2.0996 H   0  0  0  0  0  0  0  0  0  0  0  0
    0.6923   -3.3085    0.6990 C   0  0  0  0  0  0  0  0  0  0  0  0
    0.1465   -3.7963   -0.0988 H   0  0  0  0  0  0  0  0  0  0  0  0
   -0.9451    1.0593   -0.7472 C   0  0  0  0  0  0  0  0  0  0  0  0
   -1.9320    1.0233   -1.4822 O   0  0  0  0  0  0  0  0  0  0  0  0
   -0.1054    2.0992   -0.7281 N   0  0  0  0  0  0  0  0  0  0  0  0
    0.7369    1.9996   -0.1725 H   0  0  0  0  0  0  0  0  0  0  0  0
   -0.2447    3.2989   -1.5501 C   0  0  0  0  0  0  0  0  0  0  0  0
   -1.3016    3.5494   -1.6727 H   0  0  0  0  0  0  0  0  0  0  0  0
    0.2676    4.1362   -1.0742 H   0  0  0  0  0  0  0  0  0  0  0  0
    0.1913    3.1200   -2.5343 H   0  0  0  0  0  0  0  0  0  0  0  0
  5  6  2  0  0  0  0
  5  7  1  0  0  0  0
  2  3  1  0  0  0  0
  2  4  1  0  0  0  0
  2  5  1  0  0  0  0
  1  2  1  0  0  0  0
 22 23  2  0  0  0  0
 22 24  1  0  0  0  0
 20 21  1  0  0  0  0
 18 19  1  0  0  0  0
 18 20  1  0  0  0  0
 16 17  1  0  0  0  0
 16 18  1  0  0  0  0
 15 16  2  0  0  0  0
 14 15  1  0  0  0  0
 14 20  2  0  0  0  0
 11 12  1  0  0  0  0
 11 13  1  0  0  0  0
 11 14  1  0  0  0  0
  9 10  1  0  0  0  0
  9 11  1  0  0  0  0
  9 22  1  0  0  0  0
  7  8  1  0  0  0  0
  7  9  1  0  0  0  0
 26 27  1  0  0  0  0
 26 28  1  0  0  0  0
 26 29  1  0  0  0  0
 24 25  1  0  0  0  0
 24 26  1  0  0  0  0
M  END
$$$$
