
  -OEChem-01062216083D

 29 29  0     1  0  0  0  0  0999 V2000
   -2.9535   -2.9340    1.2935 H   0  0  0  0  0  0  0  0  0  0  0  0
   -2.9579   -1.9650    0.7866 C   0  0  0  0  0  0  0  0  0  0  0  0
   -3.7786   -1.3630    1.1840 H   0  0  0  0  0  0  0  0  0  0  0  0
   -3.1181   -2.1274   -0.2818 H   0  0  0  0  0  0  0  0  0  0  0  0
   -1.6380   -1.2510    1.0104 C   0  0  0  0  0  0  0  0  0  0  0  0
   -0.8302   -1.7312    1.7841 O   0  0  0  0  0  0  0  0  0  0  0  0
   -1.4453   -0.0161    0.4270 N   0  0  0  0  0  0  0  0  0  0  0  0
   -2.2389    0.3473   -0.1011 H   0  0  0  0  0  0  0  0  0  0  0  0
   -0.2104    0.7850    0.2914 C   0  0  1  0  0  0  0  0  0  0  0  0
    0.1774    1.0174    1.2887 H   0  0  0  0  0  0  0  0  0  0  0  0
    0.9060    0.1045   -0.5483 C   0  0  0  0  0  0  0  0  0  0  0  0
    0.5055   -0.1129   -1.5428 H   0  0  0  0  0  0  0  0  0  0  0  0
    1.7461    0.7921   -0.6759 H   0  0  0  0  0  0  0  0  0  0  0  0
    1.4733   -1.1572    0.0187 C   0  0  0  0  0  0  0  0  0  0  0  0
    2.3521   -1.1532    1.0933 N   0  0  0  0  0  0  0  0  0  0  0  0
    2.6427   -2.4111    1.3232 C   0  0  0  0  0  0  0  0  0  0  0  0
    3.2873   -2.7597    2.1247 H   0  0  0  0  0  0  0  0  0  0  0  0
    2.0268   -3.2245    0.3891 N   0  0  0  0  0  0  0  0  0  0  0  0
    2.0715   -4.2409    0.3775 H   0  0  0  0  0  0  0  0  0  0  0  0
    1.2886   -2.4253   -0.4575 C   0  0  0  0  0  0  0  0  0  0  0  0
    0.6687   -2.7220   -1.2969 H   0  0  0  0  0  0  0  0  0  0  0  0
   -0.5501    2.1059   -0.4433 C   0  0  0  0  0  0  0  0  0  0  0  0
   -1.6882    2.3028   -0.8614 O   0  0  0  0  0  0  0  0  0  0  0  0
    0.4269    3.0513   -0.7039 N   0  0  0  0  0  0  0  0  0  0  0  0
    1.3537    2.8840   -0.3202 H   0  0  0  0  0  0  0  0  0  0  0  0
    0.1691    4.3046   -1.4025 C   0  0  0  0  0  0  0  0  0  0  0  0
   -0.5498    4.9135   -0.8445 H   0  0  0  0  0  0  0  0  0  0  0  0
    1.0967    4.8749   -1.5093 H   0  0  0  0  0  0  0  0  0  0  0  0
   -0.2335    4.1109   -2.4023 H   0  0  0  0  0  0  0  0  0  0  0  0
  1  2  1  0  0  0  0
  2  3  1  0  0  0  0
  2  4  1  0  0  0  0
  2  5  1  0  0  0  0
  5  6  2  0  0  0  0
  5  7  1  0  0  0  0
  7  8  1  0  0  0  0
  7  9  1  0  0  0  0
  9 10  1  0  0  0  0
  9 11  1  0  0  0  0
  9 22  1  0  0  0  0
 11 12  1  0  0  0  0
 11 13  1  0  0  0  0
 11 14  1  0  0  0  0
 14 15  1  0  0  0  0
 14 20  2  0  0  0  0
 15 16  2  0  0  0  0
 16 17  1  0  0  0  0
 16 18  1  0  0  0  0
 18 19  1  0  0  0  0
 18 20  1  0  0  0  0
 20 21  1  0  0  0  0
 22 23  2  0  0  0  0
 22 24  1  0  0  0  0
 24 25  1  0  0  0  0
 24 26  1  0  0  0  0
 26 27  1  0  0  0  0
 26 28  1  0  0  0  0
 26 29  1  0  0  0  0
M  END
$$$$

  -OEChem-01062216083D

 29 29  0     1  0  0  0  0  0999 V2000
   -2.9928   -2.9056    1.2681 H   0  0  0  0  0  0  0  0  0  0  0  0
   -2.9879   -1.9223    0.7896 C   0  0  0  0  0  0  0  0  0  0  0  0
   -3.7737   -1.3085    1.2366 H   0  0  0  0  0  0  0  0  0  0  0  0
   -3.1946   -2.0490   -0.2757 H   0  0  0  0  0  0  0  0  0  0  0  0
   -1.6396   -1.2535    0.9806 C   0  0  0  0  0  0  0  0  0  0  0  0
   -0.8276   -1.7694    1.7258 O   0  0  0  0  0  0  0  0  0  0  0  0
   -1.4283   -0.0175    0.4060 N   0  0  0  0  0  0  0  0  0  0  0  0
   -2.2384    0.3913   -0.0604 H   0  0  0  0  0  0  0  0  0  0  0  0
   -0.1891    0.7788    0.2738 C   0  0  1  0  0  0  0  0  0  0  0  0
    0.1959    1.0130    1.2720 H   0  0  0  0  0  0  0  0  0  0  0  0
    0.9312    0.0842   -0.5542 C   0  0  0  0  0  0  0  0  0  0  0  0
    0.5378   -0.1353   -1.5513 H   0  0  0  0  0  0  0  0  0  0  0  0
    1.7791    0.7627   -0.6751 H   0  0  0  0  0  0  0  0  0  0  0  0
    1.4929   -1.1768    0.0209 C   0  0  0  0  0  0  0  0  0  0  0  0
    2.3675   -1.1681    1.0988 N   0  0  0  0  0  0  0  0  0  0  0  0
    2.6587   -2.4248    1.3347 C   0  0  0  0  0  0  0  0  0  0  0  0
    3.3003   -2.7696    2.1404 H   0  0  0  0  0  0  0  0  0  0  0  0
    2.0480   -3.2425    0.4012 N   0  0  0  0  0  0  0  0  0  0  0  0
    2.0900   -4.2591    0.3969 H   0  0  0  0  0  0  0  0  0  0  0  0
    1.3128   -2.4472   -0.4519 C   0  0  0  0  0  0  0  0  0  0  0  0
    0.6966   -2.7488   -1.2920 H   0  0  0  0  0  0  0  0  0  0  0  0
   -0.5385    2.1041   -0.4578 C   0  0  0  0  0  0  0  0  0  0  0  0
   -1.7144    2.3981   -0.6572 O   0  0  0  0  0  0  0  0  0  0  0  0
    0.4380    2.9241   -0.9990 N   0  0  0  0  0  0  0  0  0  0  0  0
    1.4064    2.6942   -0.7928 H   0  0  0  0  0  0  0  0  0  0  0  0
    0.1481    4.1618   -1.7131 C   0  0  0  0  0  0  0  0  0  0  0  0
   -0.4045    4.8551   -1.0703 H   0  0  0  0  0  0  0  0  0  0  0  0
    1.0792    4.6455   -2.0233 H   0  0  0  0  0  0  0  0  0  0  0  0
   -0.4493    3.9578   -2.6078 H   0  0  0  0  0  0  0  0  0  0  0  0
  1  2  1  0  0  0  0
  2  3  1  0  0  0  0
  2  4  1  0  0  0  0
  2  5  1  0  0  0  0
  5  6  2  0  0  0  0
  5  7  1  0  0  0  0
  7  8  1  0  0  0  0
  7  9  1  0  0  0  0
  9 10  1  0  0  0  0
  9 11  1  0  0  0  0
  9 22  1  0  0  0  0
 11 12  1  0  0  0  0
 11 13  1  0  0  0  0
 11 14  1  0  0  0  0
 14 15  1  0  0  0  0
 14 20  2  0  0  0  0
 15 16  2  0  0  0  0
 16 17  1  0  0  0  0
 16 18  1  0  0  0  0
 18 19  1  0  0  0  0
 18 20  1  0  0  0  0
 20 21  1  0  0  0  0
 22 23  2  0  0  0  0
 22 24  1  0  0  0  0
 24 25  1  0  0  0  0
 24 26  1  0  0  0  0
 26 27  1  0  0  0  0
 26 28  1  0  0  0  0
 26 29  1  0  0  0  0
M  END
$$$$

  -OEChem-01062216083D

 29 29  0     1  0  0  0  0  0999 V2000
   -3.0632   -2.8584    1.2628 H   0  0  0  0  0  0  0  0  0  0  0  0
   -3.0368   -1.8697    0.7960 C   0  0  0  0  0  0  0  0  0  0  0  0
   -3.7787   -1.2311    1.2817 H   0  0  0  0  0  0  0  0  0  0  0  0
   -3.2908   -1.9735   -0.2614 H   0  0  0  0  0  0  0  0  0  0  0  0
   -1.6552   -1.2590    0.9408 C   0  0  0  0  0  0  0  0  0  0  0  0
   -0.8367   -1.8261    1.6394 O   0  0  0  0  0  0  0  0  0  0  0  0
   -1.4200   -0.0213    0.3779 N   0  0  0  0  0  0  0  0  0  0  0  0
   -2.2413    0.4365   -0.0175 H   0  0  0  0  0  0  0  0  0  0  0  0
   -0.1717    0.7635    0.2530 C   0  0  1  0  0  0  0  0  0  0  0  0
    0.2038    0.9989    1.2544 H   0  0  0  0  0  0  0  0  0  0  0  0
    0.9635    0.0673   -0.5535 C   0  0  0  0  0  0  0  0  0  0  0  0
    0.5894   -0.1544   -1.5573 H   0  0  0  0  0  0  0  0  0  0  0  0
    1.8126    0.7479   -0.6537 H   0  0  0  0  0  0  0  0  0  0  0  0
    1.5213   -1.1911    0.0311 C   0  0  0  0  0  0  0  0  0  0  0  0
    2.3801   -1.1818    1.1217 N   0  0  0  0  0  0  0  0  0  0  0  0
    2.6770   -2.4376    1.3556 C   0  0  0  0  0  0  0  0  0  0  0  0
    3.3087   -2.7819    2.1693 H   0  0  0  0  0  0  0  0  0  0  0  0
    2.0879   -3.2545    0.4077 N   0  0  0  0  0  0  0  0  0  0  0  0
    2.1359   -4.2708    0.3993 H   0  0  0  0  0  0  0  0  0  0  0  0
    1.3613   -2.4599   -0.4531 C   0  0  0  0  0  0  0  0  0  0  0  0
    0.7622   -2.7608   -1.3057 H   0  0  0  0  0  0  0  0  0  0  0  0
   -0.5277    2.0933   -0.4718 C   0  0  0  0  0  0  0  0  0  0  0  0
   -1.6854    2.5014   -0.4408 O   0  0  0  0  0  0  0  0  0  0  0  0
    0.3713    2.7768   -1.2756 N   0  0  0  0  0  0  0  0  0  0  0  0
    1.3340    2.4524   -1.2812 H   0  0  0  0  0  0  0  0  0  0  0  0
    0.0381    3.9948   -2.0055 C   0  0  0  0  0  0  0  0  0  0  0  0
   -0.2980    4.7764   -1.3160 H   0  0  0  0  0  0  0  0  0  0  0  0
    0.9159    4.3639   -2.5445 H   0  0  0  0  0  0  0  0  0  0  0  0
   -0.7572    3.8002   -2.7326 H   0  0  0  0  0  0  0  0  0  0  0  0
  1  2  1  0  0  0  0
  2  3  1  0  0  0  0
  2  4  1  0  0  0  0
  2  5  1  0  0  0  0
  5  6  2  0  0  0  0
  5  7  1  0  0  0  0
  7  8  1  0  0  0  0
  7  9  1  0  0  0  0
  9 10  1  0  0  0  0
  9 11  1  0  0  0  0
  9 22  1  0  0  0  0
 11 12  1  0  0  0  0
 11 13  1  0  0  0  0
 11 14  1  0  0  0  0
 14 15  1  0  0  0  0
 14 20  2  0  0  0  0
 15 16  2  0  0  0  0
 16 17  1  0  0  0  0
 16 18  1  0  0  0  0
 18 19  1  0  0  0  0
 18 20  1  0  0  0  0
 20 21  1  0  0  0  0
 22 23  2  0  0  0  0
 22 24  1  0  0  0  0
 24 25  1  0  0  0  0
 24 26  1  0  0  0  0
 26 27  1  0  0  0  0
 26 28  1  0  0  0  0
 26 29  1  0  0  0  0
M  END
$$$$

  -OEChem-01062216083D

 29 29  0     1  0  0  0  0  0999 V2000
   -3.1211   -2.8178    1.2667 H   0  0  0  0  0  0  0  0  0  0  0  0
   -3.0757   -1.8279    0.8040 C   0  0  0  0  0  0  0  0  0  0  0  0
   -3.7795   -1.1676    1.3164 H   0  0  0  0  0  0  0  0  0  0  0  0
   -3.3666   -1.9161   -0.2454 H   0  0  0  0  0  0  0  0  0  0  0  0
   -1.6706   -1.2645    0.9075 C   0  0  0  0  0  0  0  0  0  0  0  0
   -0.8468   -1.8710    1.5647 O   0  0  0  0  0  0  0  0  0  0  0  0
   -1.4202   -0.0263    0.3519 N   0  0  0  0  0  0  0  0  0  0  0  0
   -2.2481    0.4670    0.0194 H   0  0  0  0  0  0  0  0  0  0  0  0
   -0.1648    0.7473    0.2280 C   0  0  1  0  0  0  0  0  0  0  0  0
    0.2047    0.9831    1.2318 H   0  0  0  0  0  0  0  0  0  0  0  0
    0.9839    0.0541   -0.5615 C   0  0  0  0  0  0  0  0  0  0  0  0
    0.6238   -0.1762   -1.5685 H   0  0  0  0  0  0  0  0  0  0  0  0
    1.8270    0.7444   -0.6521 H   0  0  0  0  0  0  0  0  0  0  0  0
    1.5426   -1.1995    0.0325 C   0  0  0  0  0  0  0  0  0  0  0  0
    2.3886   -1.1818    1.1328 N   0  0  0  0  0  0  0  0  0  0  0  0
    2.6934   -2.4347    1.3715 C   0  0  0  0  0  0  0  0  0  0  0  0
    3.3172   -2.7727    2.1938 H   0  0  0  0  0  0  0  0  0  0  0  0
    2.1238   -3.2576    0.4169 N   0  0  0  0  0  0  0  0  0  0  0  0
    2.1788   -4.2736    0.4112 H   0  0  0  0  0  0  0  0  0  0  0  0
    1.4009   -2.4698   -0.4532 C   0  0  0  0  0  0  0  0  0  0  0  0
    0.8143   -2.7772   -1.3120 H   0  0  0  0  0  0  0  0  0  0  0  0
   -0.5224    2.0795   -0.4890 C   0  0  0  0  0  0  0  0  0  0  0  0
   -1.6062    2.6035   -0.2519 O   0  0  0  0  0  0  0  0  0  0  0  0
    0.2342    2.6146   -1.5204 N   0  0  0  0  0  0  0  0  0  0  0  0
    1.1305    2.1797   -1.7180 H   0  0  0  0  0  0  0  0  0  0  0  0
   -0.1355    3.8209   -2.2519 C   0  0  0  0  0  0  0  0  0  0  0  0
   -0.2458    4.6676   -1.5660 H   0  0  0  0  0  0  0  0  0  0  0  0
    0.6373    4.0695   -2.9858 H   0  0  0  0  0  0  0  0  0  0  0  0
   -1.0813    3.6718   -2.7834 H   0  0  0  0  0  0  0  0  0  0  0  0
  1  2  1  0  0  0  0
  2  3  1  0  0  0  0
  2  4  1  0  0  0  0
  2  5  1  0  0  0  0
  5  6  2  0  0  0  0
  5  7  1  0  0  0  0
  7  8  1  0  0  0  0
  7  9  1  0  0  0  0
  9 10  1  0  0  0  0
  9 11  1  0  0  0  0
  9 22  1  0  0  0  0
 11 12  1  0  0  0  0
 11 13  1  0  0  0  0
 11 14  1  0  0  0  0
 14 15  1  0  0  0  0
 14 20  2  0  0  0  0
 15 16  2  0  0  0  0
 16 17  1  0  0  0  0
 16 18  1  0  0  0  0
 18 19  1  0  0  0  0
 18 20  1  0  0  0  0
 20 21  1  0  0  0  0
 22 23  2  0  0  0  0
 22 24  1  0  0  0  0
 24 25  1  0  0  0  0
 24 26  1  0  0  0  0
 26 27  1  0  0  0  0
 26 28  1  0  0  0  0
 26 29  1  0  0  0  0
M  END
$$$$

  -OEChem-01062216083D

 29 29  0     1  0  0  0  0  0999 V2000
   -3.1475   -2.7987    1.2742 H   0  0  0  0  0  0  0  0  0  0  0  0
   -3.0974   -1.8088    0.8119 C   0  0  0  0  0  0  0  0  0  0  0  0
   -3.7845   -1.1408    1.3370 H   0  0  0  0  0  0  0  0  0  0  0  0
   -3.4071   -1.8927   -0.2324 H   0  0  0  0  0  0  0  0  0  0  0  0
   -1.6834   -1.2631    0.8917 C   0  0  0  0  0  0  0  0  0  0  0  0
   -0.8535   -1.8900    1.5208 O   0  0  0  0  0  0  0  0  0  0  0  0
   -1.4284   -0.0250    0.3372 N   0  0  0  0  0  0  0  0  0  0  0  0
   -2.2597    0.4821    0.0381 H   0  0  0  0  0  0  0  0  0  0  0  0
   -0.1684    0.7405    0.2110 C   0  0  1  0  0  0  0  0  0  0  0  0
    0.1975    0.9764    1.2163 H   0  0  0  0  0  0  0  0  0  0  0  0
    0.9882    0.0492   -0.5674 C   0  0  0  0  0  0  0  0  0  0  0  0
    0.6333   -0.1945   -1.5728 H   0  0  0  0  0  0  0  0  0  0  0  0
    1.8225    0.7505   -0.6620 H   0  0  0  0  0  0  0  0  0  0  0  0
    1.5515   -1.2006    0.0323 C   0  0  0  0  0  0  0  0  0  0  0  0
    2.3919   -1.1777    1.1371 N   0  0  0  0  0  0  0  0  0  0  0  0
    2.7060   -2.4282    1.3768 C   0  0  0  0  0  0  0  0  0  0  0  0
    3.3297   -2.7618    2.2011 H   0  0  0  0  0  0  0  0  0  0  0  0
    2.1462   -3.2551    0.4200 N   0  0  0  0  0  0  0  0  0  0  0  0
    2.2094   -4.2706    0.4142 H   0  0  0  0  0  0  0  0  0  0  0  0
    1.4215   -2.4727   -0.4534 C   0  0  0  0  0  0  0  0  0  0  0  0
    0.8415   -2.7852   -1.3148 H   0  0  0  0  0  0  0  0  0  0  0  0
   -0.5188    2.0741   -0.5015 C   0  0  0  0  0  0  0  0  0  0  0  0
   -1.4735    2.7227   -0.0897 O   0  0  0  0  0  0  0  0  0  0  0  0
    0.0417    2.4571   -1.7107 N   0  0  0  0  0  0  0  0  0  0  0  0
    0.8142    1.9016   -2.0656 H   0  0  0  0  0  0  0  0  0  0  0  0
   -0.3622    3.6496   -2.4471 C   0  0  0  0  0  0  0  0  0  0  0  0
   -0.2372    4.5442   -1.8280 H   0  0  0  0  0  0  0  0  0  0  0  0
    0.2510    3.7638   -3.3462 H   0  0  0  0  0  0  0  0  0  0  0  0
   -1.4115    3.5752   -2.7514 H   0  0  0  0  0  0  0  0  0  0  0  0
  1  2  1  0  0  0  0
  2  3  1  0  0  0  0
  2  4  1  0  0  0  0
  2  5  1  0  0  0  0
  5  6  2  0  0  0  0
  5  7  1  0  0  0  0
  7  8  1  0  0  0  0
  7  9  1  0  0  0  0
  9 10  1  0  0  0  0
  9 11  1  0  0  0  0
  9 22  1  0  0  0  0
 11 12  1  0  0  0  0
 11 13  1  0  0  0  0
 11 14  1  0  0  0  0
 14 15  1  0  0  0  0
 14 20  2  0  0  0  0
 15 16  2  0  0  0  0
 16 17  1  0  0  0  0
 16 18  1  0  0  0  0
 18 19  1  0  0  0  0
 18 20  1  0  0  0  0
 20 21  1  0  0  0  0
 22 23  2  0  0  0  0
 22 24  1  0  0  0  0
 24 25  1  0  0  0  0
 24 26  1  0  0  0  0
 26 27  1  0  0  0  0
 26 28  1  0  0  0  0
 26 29  1  0  0  0  0
M  END
$$$$

  -OEChem-01062216083D

 29 29  0     1  0  0  0  0  0999 V2000
   -3.1567   -2.7958    1.2958 H   0  0  0  0  0  0  0  0  0  0  0  0
   -3.1081   -1.8097    0.8253 C   0  0  0  0  0  0  0  0  0  0  0  0
   -3.7887   -1.1358    1.3513 H   0  0  0  0  0  0  0  0  0  0  0  0
   -3.4274   -1.9012   -0.2155 H   0  0  0  0  0  0  0  0  0  0  0  0
   -1.6920   -1.2676    0.8877 C   0  0  0  0  0  0  0  0  0  0  0  0
   -0.8557   -1.8993    1.5028 O   0  0  0  0  0  0  0  0  0  0  0  0
   -1.4417   -0.0303    0.3282 N   0  0  0  0  0  0  0  0  0  0  0  0
   -2.2768    0.4724    0.0355 H   0  0  0  0  0  0  0  0  0  0  0  0
   -0.1809    0.7330    0.1920 C   0  0  1  0  0  0  0  0  0  0  0  0
    0.1866    0.9703    1.1966 H   0  0  0  0  0  0  0  0  0  0  0  0
    0.9795    0.0454   -0.5832 C   0  0  0  0  0  0  0  0  0  0  0  0
    0.6250   -0.2139   -1.5843 H   0  0  0  0  0  0  0  0  0  0  0  0
    1.8048    0.7562   -0.6900 H   0  0  0  0  0  0  0  0  0  0  0  0
    1.5500   -1.1977    0.0237 C   0  0  0  0  0  0  0  0  0  0  0  0
    2.3898   -1.1621    1.1284 N   0  0  0  0  0  0  0  0  0  0  0  0
    2.7124   -2.4084    1.3767 C   0  0  0  0  0  0  0  0  0  0  0  0
    3.3370   -2.7321    2.2039 H   0  0  0  0  0  0  0  0  0  0  0  0
    2.1592   -3.2453    0.4249 N   0  0  0  0  0  0  0  0  0  0  0  0
    2.2290   -4.2603    0.4262 H   0  0  0  0  0  0  0  0  0  0  0  0
    1.4291   -2.4738   -0.4540 C   0  0  0  0  0  0  0  0  0  0  0  0
    0.8517   -2.7962   -1.3135 H   0  0  0  0  0  0  0  0  0  0  0  0
   -0.5232    2.0658   -0.5191 C   0  0  0  0  0  0  0  0  0  0  0  0
   -1.2871    2.8451    0.0355 O   0  0  0  0  0  0  0  0  0  0  0  0
   -0.2104    2.3074   -1.8479 N   0  0  0  0  0  0  0  0  0  0  0  0
    0.3982    1.6418   -2.3143 H   0  0  0  0  0  0  0  0  0  0  0  0
   -0.6257    3.5049   -2.5693 C   0  0  0  0  0  0  0  0  0  0  0  0
   -0.2557    4.4041   -2.0655 H   0  0  0  0  0  0  0  0  0  0  0  0
   -0.2255    3.4903   -3.5876 H   0  0  0  0  0  0  0  0  0  0  0  0
   -1.7179    3.5578   -2.6279 H   0  0  0  0  0  0  0  0  0  0  0  0
  1  2  1  0  0  0  0
  2  3  1  0  0  0  0
  2  4  1  0  0  0  0
  2  5  1  0  0  0  0
  5  6  2  0  0  0  0
  5  7  1  0  0  0  0
  7  8  1  0  0  0  0
  7  9  1  0  0  0  0
  9 10  1  0  0  0  0
  9 11  1  0  0  0  0
  9 22  1  0  0  0  0
 11 12  1  0  0  0  0
 11 13  1  0  0  0  0
 11 14  1  0  0  0  0
 14 15  1  0  0  0  0
 14 20  2  0  0  0  0
 15 16  2  0  0  0  0
 16 17  1  0  0  0  0
 16 18  1  0  0  0  0
 18 19  1  0  0  0  0
 18 20  1  0  0  0  0
 20 21  1  0  0  0  0
 22 23  2  0  0  0  0
 22 24  1  0  0  0  0
 24 25  1  0  0  0  0
 24 26  1  0  0  0  0
 26 27  1  0  0  0  0
 26 28  1  0  0  0  0
 26 29  1  0  0  0  0
M  END
$$$$

  -OEChem-01062216083D

 29 29  0     1  0  0  0  0  0999 V2000
   -3.1559   -2.8005    1.3282 H   0  0  0  0  0  0  0  0  0  0  0  0
   -3.1139   -1.8213    0.8426 C   0  0  0  0  0  0  0  0  0  0  0  0
   -3.7971   -1.1433    1.3601 H   0  0  0  0  0  0  0  0  0  0  0  0
   -3.4356   -1.9304   -0.1957 H   0  0  0  0  0  0  0  0  0  0  0  0
   -1.7005   -1.2711    0.8942 C   0  0  0  0  0  0  0  0  0  0  0  0
   -0.8575   -1.8963    1.5063 O   0  0  0  0  0  0  0  0  0  0  0  0
   -1.4596   -0.0349    0.3273 N   0  0  0  0  0  0  0  0  0  0  0  0
   -2.2973    0.4525    0.0193 H   0  0  0  0  0  0  0  0  0  0  0  0
   -0.1996    0.7296    0.1863 C   0  0  1  0  0  0  0  0  0  0  0  0
    0.1686    0.9679    1.1905 H   0  0  0  0  0  0  0  0  0  0  0  0
    0.9649    0.0519   -0.5902 C   0  0  0  0  0  0  0  0  0  0  0  0
    0.6158   -0.2103   -1.5920 H   0  0  0  0  0  0  0  0  0  0  0  0
    1.7836    0.7704   -0.6970 H   0  0  0  0  0  0  0  0  0  0  0  0
    1.5426   -1.1879    0.0169 C   0  0  0  0  0  0  0  0  0  0  0  0
    2.3811   -1.1485    1.1221 N   0  0  0  0  0  0  0  0  0  0  0  0
    2.7128   -2.3926    1.3690 C   0  0  0  0  0  0  0  0  0  0  0  0
    3.3399   -2.7125    2.1959 H   0  0  0  0  0  0  0  0  0  0  0  0
    2.1658   -3.2323    0.4161 N   0  0  0  0  0  0  0  0  0  0  0  0
    2.2447   -4.2467    0.4148 H   0  0  0  0  0  0  0  0  0  0  0  0
    1.4308   -2.4646   -0.4620 C   0  0  0  0  0  0  0  0  0  0  0  0
    0.8574   -2.7904   -1.3228 H   0  0  0  0  0  0  0  0  0  0  0  0
   -0.5354    2.0591   -0.5284 C   0  0  0  0  0  0  0  0  0  0  0  0
   -1.0446    2.9674    0.1130 O   0  0  0  0  0  0  0  0  0  0  0  0
   -0.4999    2.1783   -1.9087 N   0  0  0  0  0  0  0  0  0  0  0  0
   -0.1055    1.4055   -2.4357 H   0  0  0  0  0  0  0  0  0  0  0  0
   -0.9144    3.3795   -2.6244 C   0  0  0  0  0  0  0  0  0  0  0  0
   -0.3147    4.2397   -2.3088 H   0  0  0  0  0  0  0  0  0  0  0  0
   -0.7817    3.2424   -3.7018 H   0  0  0  0  0  0  0  0  0  0  0  0
   -1.9706    3.5958   -2.4317 H   0  0  0  0  0  0  0  0  0  0  0  0
  1  2  1  0  0  0  0
  2  3  1  0  0  0  0
  2  4  1  0  0  0  0
  2  5  1  0  0  0  0
  5  6  2  0  0  0  0
  5  7  1  0  0  0  0
  7  8  1  0  0  0  0
  7  9  1  0  0  0  0
  9 10  1  0  0  0  0
  9 11  1  0  0  0  0
  9 22  1  0  0  0  0
 11 12  1  0  0  0  0
 11 13  1  0  0  0  0
 11 14  1  0  0  0  0
 14 15  1  0  0  0  0
 14 20  2  0  0  0  0
 15 16  2  0  0  0  0
 16 17  1  0  0  0  0
 16 18  1  0  0  0  0
 18 19  1  0  0  0  0
 18 20  1  0  0  0  0
 20 21  1  0  0  0  0
 22 23  2  0  0  0  0
 22 24  1  0  0  0  0
 24 25  1  0  0  0  0
 24 26  1  0  0  0  0
 26 27  1  0  0  0  0
 26 28  1  0  0  0  0
 26 29  1  0  0  0  0
M  END
$$$$

  -OEChem-01062216083D

 29 29  0     1  0  0  0  0  0999 V2000
   -3.1167   -2.8358    1.3537 H   0  0  0  0  0  0  0  0  0  0  0  0
   -3.0967   -1.8584    0.8631 C   0  0  0  0  0  0  0  0  0  0  0  0
   -3.8038   -1.1969    1.3698 H   0  0  0  0  0  0  0  0  0  0  0  0
   -3.4038   -1.9822   -0.1780 H   0  0  0  0  0  0  0  0  0  0  0  0
   -1.6991   -1.2700    0.9274 C   0  0  0  0  0  0  0  0  0  0  0  0
   -0.8485   -1.8635    1.5600 O   0  0  0  0  0  0  0  0  0  0  0  0
   -1.4788   -0.0362    0.3463 N   0  0  0  0  0  0  0  0  0  0  0  0
   -2.3192    0.4206    0.0027 H   0  0  0  0  0  0  0  0  0  0  0  0
   -0.2246    0.7378    0.2000 C   0  0  1  0  0  0  0  0  0  0  0  0
    0.1479    0.9799    1.2021 H   0  0  0  0  0  0  0  0  0  0  0  0
    0.9362    0.0710   -0.5895 C   0  0  0  0  0  0  0  0  0  0  0  0
    0.5849   -0.1821   -1.5926 H   0  0  0  0  0  0  0  0  0  0  0  0
    1.7505    0.7949   -0.6955 H   0  0  0  0  0  0  0  0  0  0  0  0
    1.5236   -1.1695    0.0076 C   0  0  0  0  0  0  0  0  0  0  0  0
    2.3705   -1.1362    1.1067 N   0  0  0  0  0  0  0  0  0  0  0  0
    2.7035   -2.3813    1.3456 C   0  0  0  0  0  0  0  0  0  0  0  0
    3.3371   -2.7049    2.1662 H   0  0  0  0  0  0  0  0  0  0  0  0
    2.1477   -3.2161    0.3933 N   0  0  0  0  0  0  0  0  0  0  0  0
    2.2292   -4.2302    0.3843 H   0  0  0  0  0  0  0  0  0  0  0  0
    1.4058   -2.4441   -0.4754 C   0  0  0  0  0  0  0  0  0  0  0  0
    0.8260   -2.7658   -1.3334 H   0  0  0  0  0  0  0  0  0  0  0  0
   -0.5604    2.0586   -0.5264 C   0  0  0  0  0  0  0  0  0  0  0  0
   -0.7600    3.0768    0.1197 O   0  0  0  0  0  0  0  0  0  0  0  0
   -0.8167    2.0792   -1.8880 N   0  0  0  0  0  0  0  0  0  0  0  0
   -0.6535    1.2226   -2.4080 H   0  0  0  0  0  0  0  0  0  0  0  0
   -1.2006    3.2837   -2.6152 C   0  0  0  0  0  0  0  0  0  0  0  0
   -0.4311    4.0558   -2.5105 H   0  0  0  0  0  0  0  0  0  0  0  0
   -1.3236    3.0605   -3.6794 H   0  0  0  0  0  0  0  0  0  0  0  0
   -2.1487    3.6764   -2.2328 H   0  0  0  0  0  0  0  0  0  0  0  0
  1  2  1  0  0  0  0
  2  3  1  0  0  0  0
  2  4  1  0  0  0  0
  2  5  1  0  0  0  0
  5  6  2  0  0  0  0
  5  7  1  0  0  0  0
  7  8  1  0  0  0  0
  7  9  1  0  0  0  0
  9 10  1  0  0  0  0
  9 11  1  0  0  0  0
  9 22  1  0  0  0  0
 11 12  1  0  0  0  0
 11 13  1  0  0  0  0
 11 14  1  0  0  0  0
 14 15  1  0  0  0  0
 14 20  2  0  0  0  0
 15 16  2  0  0  0  0
 16 17  1  0  0  0  0
 16 18  1  0  0  0  0
 18 19  1  0  0  0  0
 18 20  1  0  0  0  0
 20 21  1  0  0  0  0
 22 23  2  0  0  0  0
 22 24  1  0  0  0  0
 24 25  1  0  0  0  0
 24 26  1  0  0  0  0
 26 27  1  0  0  0  0
 26 28  1  0  0  0  0
 26 29  1  0  0  0  0
M  END
$$$$

  -OEChem-01062216083D

 29 29  0     1  0  0  0  0  0999 V2000
   -3.0811   -2.8737    1.3855 H   0  0  0  0  0  0  0  0  0  0  0  0
   -3.0811   -1.8979    0.8911 C   0  0  0  0  0  0  0  0  0  0  0  0
   -3.8087   -1.2527    1.3894 H   0  0  0  0  0  0  0  0  0  0  0  0
   -3.3762   -2.0336   -0.1519 H   0  0  0  0  0  0  0  0  0  0  0  0
   -1.6992   -1.2748    0.9645 C   0  0  0  0  0  0  0  0  0  0  0  0
   -0.8423   -1.8390    1.6149 O   0  0  0  0  0  0  0  0  0  0  0  0
   -1.5002   -0.0422    0.3727 N   0  0  0  0  0  0  0  0  0  0  0  0
   -2.3441    0.3895    0.0069 H   0  0  0  0  0  0  0  0  0  0  0  0
   -0.2541    0.7465    0.2269 C   0  0  1  0  0  0  0  0  0  0  0  0
    0.1217    0.9901    1.2273 H   0  0  0  0  0  0  0  0  0  0  0  0
    0.9015    0.0949   -0.5801 C   0  0  0  0  0  0  0  0  0  0  0  0
    0.5434   -0.1429   -1.5850 H   0  0  0  0  0  0  0  0  0  0  0  0
    1.7118    0.8240   -0.6825 H   0  0  0  0  0  0  0  0  0  0  0  0
    1.4993   -1.1492   -0.0005 C   0  0  0  0  0  0  0  0  0  0  0  0
    2.3557   -1.1253    1.0914 N   0  0  0  0  0  0  0  0  0  0  0  0
    2.6945   -2.3716    1.3146 C   0  0  0  0  0  0  0  0  0  0  0  0
    3.3385   -2.7016    2.1248 H   0  0  0  0  0  0  0  0  0  0  0  0
    2.1301   -3.1985    0.3604 N   0  0  0  0  0  0  0  0  0  0  0  0
    2.2186   -4.2118    0.3377 H   0  0  0  0  0  0  0  0  0  0  0  0
    1.3776   -2.4198   -0.4932 C   0  0  0  0  0  0  0  0  0  0  0  0
    0.7916   -2.7344   -1.3498 H   0  0  0  0  0  0  0  0  0  0  0  0
   -0.5901    2.0595   -0.5101 C   0  0  0  0  0  0  0  0  0  0  0  0
   -0.4752    3.1367    0.0552 O   0  0  0  0  0  0  0  0  0  0  0  0
   -1.1302    2.0258   -1.7856 N   0  0  0  0  0  0  0  0  0  0  0  0
   -1.1584    1.1259   -2.2549 H   0  0  0  0  0  0  0  0  0  0  0  0
   -1.4750    3.2257   -2.5393 C   0  0  0  0  0  0  0  0  0  0  0  0
   -0.5947    3.8642   -2.6685 H   0  0  0  0  0  0  0  0  0  0  0  0
   -1.8540    2.9548   -3.5295 H   0  0  0  0  0  0  0  0  0  0  0  0
   -2.2503    3.7962   -2.0172 H   0  0  0  0  0  0  0  0  0  0  0  0
  1  2  1  0  0  0  0
  2  3  1  0  0  0  0
  2  4  1  0  0  0  0
  2  5  1  0  0  0  0
  5  6  2  0  0  0  0
  5  7  1  0  0  0  0
  7  8  1  0  0  0  0
  7  9  1  0  0  0  0
  9 10  1  0  0  0  0
  9 11  1  0  0  0  0
  9 22  1  0  0  0  0
 11 12  1  0  0  0  0
 11 13  1  0  0  0  0
 11 14  1  0  0  0  0
 14 15  1  0  0  0  0
 14 20  2  0  0  0  0
 15 16  2  0  0  0  0
 16 17  1  0  0  0  0
 16 18  1  0  0  0  0
 18 19  1  0  0  0  0
 18 20  1  0  0  0  0
 20 21  1  0  0  0  0
 22 23  2  0  0  0  0
 22 24  1  0  0  0  0
 24 25  1  0  0  0  0
 24 26  1  0  0  0  0
 26 27  1  0  0  0  0
 26 28  1  0  0  0  0
 26 29  1  0  0  0  0
M  END
$$$$

  -OEChem-01062216083D

 29 29  0     1  0  0  0  0  0999 V2000
   -3.0551   -2.9085    1.4178 H   0  0  0  0  0  0  0  0  0  0  0  0
   -3.0699   -1.9343    0.9205 C   0  0  0  0  0  0  0  0  0  0  0  0
   -3.8061   -1.2982    1.4179 H   0  0  0  0  0  0  0  0  0  0  0  0
   -3.3643   -2.0775   -0.1218 H   0  0  0  0  0  0  0  0  0  0  0  0
   -1.6976   -1.2903    0.9915 C   0  0  0  0  0  0  0  0  0  0  0  0
   -0.8345   -1.8344    1.6507 O   0  0  0  0  0  0  0  0  0  0  0  0
   -1.5173   -0.0567    0.3951 N   0  0  0  0  0  0  0  0  0  0  0  0
   -2.3698    0.3692    0.0431 H   0  0  0  0  0  0  0  0  0  0  0  0
   -0.2807    0.7497    0.2543 C   0  0  1  0  0  0  0  0  0  0  0  0
    0.0951    0.9949    1.2545 H   0  0  0  0  0  0  0  0  0  0  0  0
    0.8720    0.1128   -0.5666 C   0  0  0  0  0  0  0  0  0  0  0  0
    0.5052   -0.1143   -1.5711 H   0  0  0  0  0  0  0  0  0  0  0  0
    1.6785    0.8462   -0.6685 H   0  0  0  0  0  0  0  0  0  0  0  0
    1.4803   -1.1334   -0.0032 C   0  0  0  0  0  0  0  0  0  0  0  0
    2.3442   -1.1179    1.0829 N   0  0  0  0  0  0  0  0  0  0  0  0
    2.6893   -2.3650    1.2905 C   0  0  0  0  0  0  0  0  0  0  0  0
    3.3399   -2.7008    2.0927 H   0  0  0  0  0  0  0  0  0  0  0  0
    2.1214   -3.1843    0.3320 N   0  0  0  0  0  0  0  0  0  0  0  0
    2.2140   -4.1969    0.2984 H   0  0  0  0  0  0  0  0  0  0  0  0
    1.3601   -2.3995   -0.5080 C   0  0  0  0  0  0  0  0  0  0  0  0
    0.7701   -2.7064   -1.3645 H   0  0  0  0  0  0  0  0  0  0  0  0
   -0.6165    2.0592   -0.4887 C   0  0  0  0  0  0  0  0  0  0  0  0
   -0.2271    3.1363   -0.0630 O   0  0  0  0  0  0  0  0  0  0  0  0
   -1.4162    2.0311   -1.6204 N   0  0  0  0  0  0  0  0  0  0  0  0
   -1.6082    1.1203   -2.0259 H   0  0  0  0  0  0  0  0  0  0  0  0
   -1.7309    3.2248   -2.3973 C   0  0  0  0  0  0  0  0  0  0  0  0
   -0.8138    3.6941   -2.7688 H   0  0  0  0  0  0  0  0  0  0  0  0
   -2.3587    2.9643   -3.2548 H   0  0  0  0  0  0  0  0  0  0  0  0
   -2.2725    3.9505   -1.7813 H   0  0  0  0  0  0  0  0  0  0  0  0
  1  2  1  0  0  0  0
  2  3  1  0  0  0  0
  2  4  1  0  0  0  0
  2  5  1  0  0  0  0
  5  6  2  0  0  0  0
  5  7  1  0  0  0  0
  7  8  1  0  0  0  0
  7  9  1  0  0  0  0
  9 10  1  0  0  0  0
  9 11  1  0  0  0  0
  9 22  1  0  0  0  0
 11 12  1  0  0  0  0
 11 13  1  0  0  0  0
 11 14  1  0  0  0  0
 14 15  1  0  0  0  0
 14 20  2  0  0  0  0
 15 16  2  0  0  0  0
 16 17  1  0  0  0  0
 16 18  1  0  0  0  0
 18 19  1  0  0  0  0
 18 20  1  0  0  0  0
 20 21  1  0  0  0  0
 22 23  2  0  0  0  0
 22 24  1  0  0  0  0
 24 25  1  0  0  0  0
 24 26  1  0  0  0  0
 26 27  1  0  0  0  0
 26 28  1  0  0  0  0
 26 29  1  0  0  0  0
M  END
$$$$

  -OEChem-01062216083D

 29 29  0     1  0  0  0  0  0999 V2000
   -3.0569   -2.9260    1.4538 H   0  0  0  0  0  0  0  0  0  0  0  0
   -3.0738   -1.9574    0.9458 C   0  0  0  0  0  0  0  0  0  0  0  0
   -3.8048   -1.3146    1.4424 H   0  0  0  0  0  0  0  0  0  0  0  0
   -3.3768   -2.1114   -0.0925 H   0  0  0  0  0  0  0  0  0  0  0  0
   -1.6995   -1.3156    0.9974 C   0  0  0  0  0  0  0  0  0  0  0  0
   -0.8288   -1.8623    1.6439 O   0  0  0  0  0  0  0  0  0  0  0  0
   -1.5295   -0.0793    0.4030 N   0  0  0  0  0  0  0  0  0  0  0  0
   -2.3935    0.3593    0.0997 H   0  0  0  0  0  0  0  0  0  0  0  0
   -0.3007    0.7432    0.2726 C   0  0  1  0  0  0  0  0  0  0  0  0
    0.0689    0.9873    1.2751 H   0  0  0  0  0  0  0  0  0  0  0  0
    0.8576    0.1195   -0.5509 C   0  0  0  0  0  0  0  0  0  0  0  0
    0.4934   -0.0991   -1.5583 H   0  0  0  0  0  0  0  0  0  0  0  0
    1.6606    0.8581   -0.6451 H   0  0  0  0  0  0  0  0  0  0  0  0
    1.4755   -1.1262    0.0034 C   0  0  0  0  0  0  0  0  0  0  0  0
    2.3392   -1.1159    1.0902 N   0  0  0  0  0  0  0  0  0  0  0  0
    2.6935   -2.3627    1.2840 C   0  0  0  0  0  0  0  0  0  0  0  0
    3.3468   -2.7022    2.0823 H   0  0  0  0  0  0  0  0  0  0  0  0
    2.1319   -3.1757    0.3164 N   0  0  0  0  0  0  0  0  0  0  0  0
    2.2345   -4.1867    0.2697 H   0  0  0  0  0  0  0  0  0  0  0  0
    1.3657   -2.3875   -0.5157 C   0  0  0  0  0  0  0  0  0  0  0  0
    0.7797   -2.6890   -1.3767 H   0  0  0  0  0  0  0  0  0  0  0  0
   -0.6323    2.0550   -0.4725 C   0  0  0  0  0  0  0  0  0  0  0  0
   -0.0350    3.0882   -0.2085 O   0  0  0  0  0  0  0  0  0  0  0  0
   -1.6485    2.0890   -1.4155 N   0  0  0  0  0  0  0  0  0  0  0  0
   -1.9784    1.1929   -1.7592 H   0  0  0  0  0  0  0  0  0  0  0  0
   -1.9634    3.2851   -2.1888 C   0  0  0  0  0  0  0  0  0  0  0  0
   -1.1109    3.5739   -2.8126 H   0  0  0  0  0  0  0  0  0  0  0  0
   -2.8237    3.0998   -2.8390 H   0  0  0  0  0  0  0  0  0  0  0  0
   -2.2103    4.1186   -1.5226 H   0  0  0  0  0  0  0  0  0  0  0  0
  1  2  1  0  0  0  0
  2  3  1  0  0  0  0
  2  4  1  0  0  0  0
  2  5  1  0  0  0  0
  5  6  2  0  0  0  0
  5  7  1  0  0  0  0
  7  8  1  0  0  0  0
  7  9  1  0  0  0  0
  9 10  1  0  0  0  0
  9 11  1  0  0  0  0
  9 22  1  0  0  0  0
 11 12  1  0  0  0  0
 11 13  1  0  0  0  0
 11 14  1  0  0  0  0
 14 15  1  0  0  0  0
 14 20  2  0  0  0  0
 15 16  2  0  0  0  0
 16 17  1  0  0  0  0
 16 18  1  0  0  0  0
 18 19  1  0  0  0  0
 18 20  1  0  0  0  0
 20 21  1  0  0  0  0
 22 23  2  0  0  0  0
 22 24  1  0  0  0  0
 24 25  1  0  0  0  0
 24 26  1  0  0  0  0
 26 27  1  0  0  0  0
 26 28  1  0  0  0  0
 26 29  1  0  0  0  0
M  END
$$$$

  -OEChem-01062216083D

 29 29  0     1  0  0  0  0  0999 V2000
   -3.0139   -2.9671    1.4661 H   0  0  0  0  0  0  0  0  0  0  0  0
   -3.0448   -2.0034    0.9492 C   0  0  0  0  0  0  0  0  0  0  0  0
   -3.7983   -1.3733    1.4280 H   0  0  0  0  0  0  0  0  0  0  0  0
   -3.3269   -2.1737   -0.0924 H   0  0  0  0  0  0  0  0  0  0  0  0
   -1.6858   -1.3311    1.0161 C   0  0  0  0  0  0  0  0  0  0  0  0
   -0.8158   -1.8496    1.6862 O   0  0  0  0  0  0  0  0  0  0  0  0
   -1.5337   -0.0950    0.4162 N   0  0  0  0  0  0  0  0  0  0  0  0
   -2.4063    0.3335    0.1285 H   0  0  0  0  0  0  0  0  0  0  0  0
   -0.3139    0.7426    0.2821 C   0  0  1  0  0  0  0  0  0  0  0  0
    0.0582    0.9887    1.2830 H   0  0  0  0  0  0  0  0  0  0  0  0
    0.8399    0.1115   -0.5452 C   0  0  0  0  0  0  0  0  0  0  0  0
    0.4666   -0.1124   -1.5482 H   0  0  0  0  0  0  0  0  0  0  0  0
    1.6444    0.8469   -0.6518 H   0  0  0  0  0  0  0  0  0  0  0  0
    1.4657   -1.1302    0.0101 C   0  0  0  0  0  0  0  0  0  0  0  0
    2.3402   -1.1166    1.0887 N   0  0  0  0  0  0  0  0  0  0  0  0
    2.6999   -2.3621    1.2809 C   0  0  0  0  0  0  0  0  0  0  0  0
    3.3636   -2.6987    2.0719 H   0  0  0  0  0  0  0  0  0  0  0  0
    2.1279   -3.1785    0.3225 N   0  0  0  0  0  0  0  0  0  0  0  0
    2.2342   -4.1891    0.2751 H   0  0  0  0  0  0  0  0  0  0  0  0
    1.3505   -2.3937   -0.5025 C   0  0  0  0  0  0  0  0  0  0  0  0
    0.7548   -2.6982   -1.3561 H   0  0  0  0  0  0  0  0  0  0  0  0
   -0.6399    2.0578   -0.4675 C   0  0  0  0  0  0  0  0  0  0  0  0
    0.1114    3.0189   -0.3831 O   0  0  0  0  0  0  0  0  0  0  0  0
   -1.8204    2.2040   -1.1825 N   0  0  0  0  0  0  0  0  0  0  0  0
   -2.3029    1.3509   -1.4407 H   0  0  0  0  0  0  0  0  0  0  0  0
   -2.1438    3.4206   -1.9208 C   0  0  0  0  0  0  0  0  0  0  0  0
   -1.4161    3.5889   -2.7216 H   0  0  0  0  0  0  0  0  0  0  0  0
   -3.1394    3.3387   -2.3671 H   0  0  0  0  0  0  0  0  0  0  0  0
   -2.1384    4.2885   -1.2526 H   0  0  0  0  0  0  0  0  0  0  0  0
  1  2  1  0  0  0  0
  2  3  1  0  0  0  0
  2  4  1  0  0  0  0
  2  5  1  0  0  0  0
  5  6  2  0  0  0  0
  5  7  1  0  0  0  0
  7  8  1  0  0  0  0
  7  9  1  0  0  0  0
  9 10  1  0  0  0  0
  9 11  1  0  0  0  0
  9 22  1  0  0  0  0
 11 12  1  0  0  0  0
 11 13  1  0  0  0  0
 11 14  1  0  0  0  0
 14 15  1  0  0  0  0
 14 20  2  0  0  0  0
 15 16  2  0  0  0  0
 16 17  1  0  0  0  0
 16 18  1  0  0  0  0
 18 19  1  0  0  0  0
 18 20  1  0  0  0  0
 20 21  1  0  0  0  0
 22 23  2  0  0  0  0
 22 24  1  0  0  0  0
 24 25  1  0  0  0  0
 24 26  1  0  0  0  0
 26 27  1  0  0  0  0
 26 28  1  0  0  0  0
 26 29  1  0  0  0  0
M  END
$$$$

  -OEChem-01062216083D

 29 29  0     1  0  0  0  0  0999 V2000
   -2.5747   -3.1034    1.3395 H   0  0  0  0  0  0  0  0  0  0  0  0
   -2.6997   -2.1725    0.7791 C   0  0  0  0  0  0  0  0  0  0  0  0
   -3.6664   -1.7336    1.0376 H   0  0  0  0  0  0  0  0  0  0  0  0
   -2.6830   -2.4024   -0.2888 H   0  0  0  0  0  0  0  0  0  0  0  0
   -1.5820   -1.2054    1.1218 C   0  0  0  0  0  0  0  0  0  0  0  0
   -0.8350   -1.4637    2.0462 O   0  0  0  0  0  0  0  0  0  0  0  0
   -1.5196    0.0126    0.4736 N   0  0  0  0  0  0  0  0  0  0  0  0
   -2.2076    0.0871   -0.2679 H   0  0  0  0  0  0  0  0  0  0  0  0
   -0.2862    0.8079    0.2453 C   0  0  1  0  0  0  0  0  0  0  0  0
    0.1525    1.0708    1.2146 H   0  0  0  0  0  0  0  0  0  0  0  0
    0.7843    0.0701   -0.6094 C   0  0  0  0  0  0  0  0  0  0  0  0
    0.3472   -0.1857   -1.5783 H   0  0  0  0  0  0  0  0  0  0  0  0
    1.6265    0.7433   -0.7983 H   0  0  0  0  0  0  0  0  0  0  0  0
    1.3613   -1.1688    0.0035 C   0  0  0  0  0  0  0  0  0  0  0  0
    2.2862   -1.1383    1.0371 N   0  0  0  0  0  0  0  0  0  0  0  0
    2.5683   -2.3875    1.3134 C   0  0  0  0  0  0  0  0  0  0  0  0
    3.2475   -2.7088    2.0978 H   0  0  0  0  0  0  0  0  0  0  0  0
    1.8910   -3.2305    0.4509 N   0  0  0  0  0  0  0  0  0  0  0  0
    1.9356   -4.2468    0.4716 H   0  0  0  0  0  0  0  0  0  0  0  0
    1.1305   -2.4560   -0.3997 C   0  0  0  0  0  0  0  0  0  0  0  0
    0.4784   -2.7807   -1.2032 H   0  0  0  0  0  0  0  0  0  0  0  0
   -0.6248    2.1227   -0.5078 C   0  0  0  0  0  0  0  0  0  0  0  0
    0.2574    2.8721   -0.9055 O   0  0  0  0  0  0  0  0  0  0  0  0
   -1.9335    2.4126   -0.8654 N   0  0  0  0  0  0  0  0  0  0  0  0
   -2.6511    1.9513   -0.3162 H   0  0  0  0  0  0  0  0  0  0  0  0
   -2.2992    3.6398   -1.5652 C   0  0  0  0  0  0  0  0  0  0  0  0
   -1.7792    3.7026   -2.5270 H   0  0  0  0  0  0  0  0  0  0  0  0
   -3.3763    3.6600   -1.7567 H   0  0  0  0  0  0  0  0  0  0  0  0
   -2.0358    4.5170   -0.9649 H   0  0  0  0  0  0  0  0  0  0  0  0
  1  2  1  0  0  0  0
  2  3  1  0  0  0  0
  2  4  1  0  0  0  0
  2  5  1  0  0  0  0
  5  6  2  0  0  0  0
  5  7  1  0  0  0  0
  7  8  1  0  0  0  0
  7  9  1  0  0  0  0
  9 10  1  0  0  0  0
  9 11  1  0  0  0  0
  9 22  1  0  0  0  0
 11 12  1  0  0  0  0
 11 13  1  0  0  0  0
 11 14  1  0  0  0  0
 14 15  1  0  0  0  0
 14 20  2  0  0  0  0
 15 16  2  0  0  0  0
 16 17  1  0  0  0  0
 16 18  1  0  0  0  0
 18 19  1  0  0  0  0
 18 20  1  0  0  0  0
 20 21  1  0  0  0  0
 22 23  2  0  0  0  0
 22 24  1  0  0  0  0
 24 25  1  0  0  0  0
 24 26  1  0  0  0  0
 26 27  1  0  0  0  0
 26 28  1  0  0  0  0
 26 29  1  0  0  0  0
M  END
$$$$

  -OEChem-01062216083D

 29 29  0     1  0  0  0  0  0999 V2000
   -2.5959   -3.0998    1.2722 H   0  0  0  0  0  0  0  0  0  0  0  0
   -2.7352   -2.1403    0.7659 C   0  0  0  0  0  0  0  0  0  0  0  0
   -3.6806   -1.7019    1.0946 H   0  0  0  0  0  0  0  0  0  0  0  0
   -2.7762   -2.3164   -0.3116 H   0  0  0  0  0  0  0  0  0  0  0  0
   -1.5874   -1.2058    1.0989 C   0  0  0  0  0  0  0  0  0  0  0  0
   -0.8367   -1.4883    2.0132 O   0  0  0  0  0  0  0  0  0  0  0  0
   -1.5057    0.0158    0.4609 N   0  0  0  0  0  0  0  0  0  0  0  0
   -2.2098    0.1268   -0.2625 H   0  0  0  0  0  0  0  0  0  0  0  0
   -0.2674    0.8031    0.2351 C   0  0  1  0  0  0  0  0  0  0  0  0
    0.1682    1.0650    1.2059 H   0  0  0  0  0  0  0  0  0  0  0  0
    0.8077    0.0598   -0.6104 C   0  0  0  0  0  0  0  0  0  0  0  0
    0.3762   -0.1970   -1.5817 H   0  0  0  0  0  0  0  0  0  0  0  0
    1.6532    0.7304   -0.7944 H   0  0  0  0  0  0  0  0  0  0  0  0
    1.3803   -1.1787    0.0075 C   0  0  0  0  0  0  0  0  0  0  0  0
    2.3001   -1.1458    1.0461 N   0  0  0  0  0  0  0  0  0  0  0  0
    2.5829   -2.3947    1.3236 C   0  0  0  0  0  0  0  0  0  0  0  0
    3.2591   -2.7152    2.1108 H   0  0  0  0  0  0  0  0  0  0  0  0
    1.9109   -3.2394    0.4587 N   0  0  0  0  0  0  0  0  0  0  0  0
    1.9559   -4.2556    0.4811 H   0  0  0  0  0  0  0  0  0  0  0  0
    1.1534   -2.4665   -0.3959 C   0  0  0  0  0  0  0  0  0  0  0  0
    0.5059   -2.7922   -1.2029 H   0  0  0  0  0  0  0  0  0  0  0  0
   -0.6240    2.1194   -0.5097 C   0  0  0  0  0  0  0  0  0  0  0  0
    0.2092    2.7580   -1.1395 O   0  0  0  0  0  0  0  0  0  0  0  0
   -1.9445    2.5391   -0.5716 N   0  0  0  0  0  0  0  0  0  0  0  0
   -2.5664    2.1399    0.1256 H   0  0  0  0  0  0  0  0  0  0  0  0
   -2.3496    3.7803   -1.2232 C   0  0  0  0  0  0  0  0  0  0  0  0
   -2.0504    3.7767   -2.2767 H   0  0  0  0  0  0  0  0  0  0  0  0
   -3.4368    3.8946   -1.1766 H   0  0  0  0  0  0  0  0  0  0  0  0
   -1.8877    4.6417   -0.7292 H   0  0  0  0  0  0  0  0  0  0  0  0
  1  2  1  0  0  0  0
  2  3  1  0  0  0  0
  2  4  1  0  0  0  0
  2  5  1  0  0  0  0
  5  6  2  0  0  0  0
  5  7  1  0  0  0  0
  7  8  1  0  0  0  0
  7  9  1  0  0  0  0
  9 10  1  0  0  0  0
  9 11  1  0  0  0  0
  9 22  1  0  0  0  0
 11 12  1  0  0  0  0
 11 13  1  0  0  0  0
 11 14  1  0  0  0  0
 14 15  1  0  0  0  0
 14 20  2  0  0  0  0
 15 16  2  0  0  0  0
 16 17  1  0  0  0  0
 16 18  1  0  0  0  0
 18 19  1  0  0  0  0
 18 20  1  0  0  0  0
 20 21  1  0  0  0  0
 22 23  2  0  0  0  0
 22 24  1  0  0  0  0
 24 25  1  0  0  0  0
 24 26  1  0  0  0  0
 26 27  1  0  0  0  0
 26 28  1  0  0  0  0
 26 29  1  0  0  0  0
M  END
$$$$

  -OEChem-01062216083D

 29 29  0     1  0  0  0  0  0999 V2000
   -2.6509   -3.0737    1.2619 H   0  0  0  0  0  0  0  0  0  0  0  0
   -2.7681   -2.1119    0.7545 C   0  0  0  0  0  0  0  0  0  0  0  0
   -3.7000   -1.6487    1.0874 H   0  0  0  0  0  0  0  0  0  0  0  0
   -2.8192   -2.2884   -0.3226 H   0  0  0  0  0  0  0  0  0  0  0  0
   -1.5949   -1.2064    1.0787 C   0  0  0  0  0  0  0  0  0  0  0  0
   -0.8391   -1.5128    1.9811 O   0  0  0  0  0  0  0  0  0  0  0  0
   -1.4954    0.0186    0.4502 N   0  0  0  0  0  0  0  0  0  0  0  0
   -2.2188    0.1681   -0.2477 H   0  0  0  0  0  0  0  0  0  0  0  0
   -0.2525    0.7972    0.2253 C   0  0  1  0  0  0  0  0  0  0  0  0
    0.1821    1.0578    1.1966 H   0  0  0  0  0  0  0  0  0  0  0  0
    0.8276    0.0546   -0.6134 C   0  0  0  0  0  0  0  0  0  0  0  0
    0.4017   -0.2037   -1.5869 H   0  0  0  0  0  0  0  0  0  0  0  0
    1.6717    0.7280   -0.7926 H   0  0  0  0  0  0  0  0  0  0  0  0
    1.3963   -1.1825    0.0094 C   0  0  0  0  0  0  0  0  0  0  0  0
    2.3093   -1.1469    1.0540 N   0  0  0  0  0  0  0  0  0  0  0  0
    2.5930   -2.3956    1.3328 C   0  0  0  0  0  0  0  0  0  0  0  0
    3.2646   -2.7152    2.1241 H   0  0  0  0  0  0  0  0  0  0  0  0
    1.9286   -3.2418    0.4637 N   0  0  0  0  0  0  0  0  0  0  0  0
    1.9755   -4.2580    0.4861 H   0  0  0  0  0  0  0  0  0  0  0  0
    1.1744   -2.4706   -0.3953 C   0  0  0  0  0  0  0  0  0  0  0  0
    0.5323   -2.7969   -1.2064 H   0  0  0  0  0  0  0  0  0  0  0  0
   -0.6233    2.1144   -0.5096 C   0  0  0  0  0  0  0  0  0  0  0  0
    0.0957    2.6271   -1.3580 O   0  0  0  0  0  0  0  0  0  0  0  0
   -1.8701    2.6774   -0.2893 N   0  0  0  0  0  0  0  0  0  0  0  0
   -2.3788    2.3306    0.5196 H   0  0  0  0  0  0  0  0  0  0  0  0
   -2.2966    3.9346   -0.8936 C   0  0  0  0  0  0  0  0  0  0  0  0
   -2.2724    3.8638   -1.9862 H   0  0  0  0  0  0  0  0  0  0  0  0
   -3.3199    4.1722   -0.5876 H   0  0  0  0  0  0  0  0  0  0  0  0
   -1.6407    4.7531   -0.5790 H   0  0  0  0  0  0  0  0  0  0  0  0
  1  2  1  0  0  0  0
  2  3  1  0  0  0  0
  2  4  1  0  0  0  0
  2  5  1  0  0  0  0
  5  6  2  0  0  0  0
  5  7  1  0  0  0  0
  7  8  1  0  0  0  0
  7  9  1  0  0  0  0
  9 10  1  0  0  0  0
  9 11  1  0  0  0  0
  9 22  1  0  0  0  0
 11 12  1  0  0  0  0
 11 13  1  0  0  0  0
 11 14  1  0  0  0  0
 14 15  1  0  0  0  0
 14 20  2  0  0  0  0
 15 16  2  0  0  0  0
 16 17  1  0  0  0  0
 16 18  1  0  0  0  0
 18 19  1  0  0  0  0
 18 20  1  0  0  0  0
 20 21  1  0  0  0  0
 22 23  2  0  0  0  0
 22 24  1  0  0  0  0
 24 25  1  0  0  0  0
 24 26  1  0  0  0  0
 26 27  1  0  0  0  0
 26 28  1  0  0  0  0
 26 29  1  0  0  0  0
M  END
$$$$

  -OEChem-01062216083D

 29 29  0     1  0  0  0  0  0999 V2000
   -2.7003   -3.0529    1.2614 H   0  0  0  0  0  0  0  0  0  0  0  0
   -2.7968   -2.0918    0.7485 C   0  0  0  0  0  0  0  0  0  0  0  0
   -3.7171   -1.6056    1.0809 H   0  0  0  0  0  0  0  0  0  0  0  0
   -2.8555   -2.2735   -0.3272 H   0  0  0  0  0  0  0  0  0  0  0  0
   -1.6023   -1.2111    1.0635 C   0  0  0  0  0  0  0  0  0  0  0  0
   -0.8394   -1.5394    1.9523 O   0  0  0  0  0  0  0  0  0  0  0  0
   -1.4910    0.0184    0.4465 N   0  0  0  0  0  0  0  0  0  0  0  0
   -2.2275    0.1978   -0.2304 H   0  0  0  0  0  0  0  0  0  0  0  0
   -0.2458    0.7914    0.2256 C   0  0  1  0  0  0  0  0  0  0  0  0
    0.1881    1.0454    1.1991 H   0  0  0  0  0  0  0  0  0  0  0  0
    0.8401    0.0564   -0.6108 C   0  0  0  0  0  0  0  0  0  0  0  0
    0.4183   -0.2032   -1.5861 H   0  0  0  0  0  0  0  0  0  0  0  0
    1.6787    0.7376   -0.7868 H   0  0  0  0  0  0  0  0  0  0  0  0
    1.4092   -1.1814    0.0093 C   0  0  0  0  0  0  0  0  0  0  0  0
    2.3172   -1.1456    1.0588 N   0  0  0  0  0  0  0  0  0  0  0  0
    2.6020   -2.3946    1.3355 C   0  0  0  0  0  0  0  0  0  0  0  0
    3.2697   -2.7145    2.1302 H   0  0  0  0  0  0  0  0  0  0  0  0
    1.9444   -3.2402    0.4604 N   0  0  0  0  0  0  0  0  0  0  0  0
    1.9919   -4.2563    0.4812 H   0  0  0  0  0  0  0  0  0  0  0  0
    1.1923   -2.4687   -0.4000 C   0  0  0  0  0  0  0  0  0  0  0  0
    0.5529   -2.7942   -1.2135 H   0  0  0  0  0  0  0  0  0  0  0  0
   -0.6221    2.1114   -0.4961 C   0  0  0  0  0  0  0  0  0  0  0  0
   -0.0722    2.4919   -1.5225 O   0  0  0  0  0  0  0  0  0  0  0  0
   -1.7142    2.8273   -0.0364 N   0  0  0  0  0  0  0  0  0  0  0  0
   -2.0990    2.5423    0.8607 H   0  0  0  0  0  0  0  0  0  0  0  0
   -2.1452    4.0940   -0.6164 C   0  0  0  0  0  0  0  0  0  0  0  0
   -2.3934    3.9664   -1.6754 H   0  0  0  0  0  0  0  0  0  0  0  0
   -3.0341    4.4650   -0.0972 H   0  0  0  0  0  0  0  0  0  0  0  0
   -1.3527    4.8446   -0.5276 H   0  0  0  0  0  0  0  0  0  0  0  0
  1  2  1  0  0  0  0
  2  3  1  0  0  0  0
  2  4  1  0  0  0  0
  2  5  1  0  0  0  0
  5  6  2  0  0  0  0
  5  7  1  0  0  0  0
  7  8  1  0  0  0  0
  7  9  1  0  0  0  0
  9 10  1  0  0  0  0
  9 11  1  0  0  0  0
  9 22  1  0  0  0  0
 11 12  1  0  0  0  0
 11 13  1  0  0  0  0
 11 14  1  0  0  0  0
 14 15  1  0  0  0  0
 14 20  2  0  0  0  0
 15 16  2  0  0  0  0
 16 17  1  0  0  0  0
 16 18  1  0  0  0  0
 18 19  1  0  0  0  0
 18 20  1  0  0  0  0
 20 21  1  0  0  0  0
 22 23  2  0  0  0  0
 22 24  1  0  0  0  0
 24 25  1  0  0  0  0
 24 26  1  0  0  0  0
 26 27  1  0  0  0  0
 26 28  1  0  0  0  0
 26 29  1  0  0  0  0
M  END
$$$$

  -OEChem-01062216083D

 29 29  0     1  0  0  0  0  0999 V2000
   -2.7226   -3.0460    1.2547 H   0  0  0  0  0  0  0  0  0  0  0  0
   -2.8112   -2.0831    0.7435 C   0  0  0  0  0  0  0  0  0  0  0  0
   -3.7274   -1.5899    1.0771 H   0  0  0  0  0  0  0  0  0  0  0  0
   -2.8712   -2.2623   -0.3326 H   0  0  0  0  0  0  0  0  0  0  0  0
   -1.6095   -1.2128    1.0601 C   0  0  0  0  0  0  0  0  0  0  0  0
   -0.8437   -1.5546    1.9417 O   0  0  0  0  0  0  0  0  0  0  0  0
   -1.4916    0.0201    0.4514 N   0  0  0  0  0  0  0  0  0  0  0  0
   -2.2309    0.2128   -0.2188 H   0  0  0  0  0  0  0  0  0  0  0  0
   -0.2447    0.7888    0.2358 C   0  0  1  0  0  0  0  0  0  0  0  0
    0.1899    1.0341    1.2110 H   0  0  0  0  0  0  0  0  0  0  0  0
    0.8439    0.0615   -0.6023 C   0  0  0  0  0  0  0  0  0  0  0  0
    0.4223   -0.1977   -1.5778 H   0  0  0  0  0  0  0  0  0  0  0  0
    1.6777    0.7484   -0.7780 H   0  0  0  0  0  0  0  0  0  0  0  0
    1.4130   -1.1796    0.0109 C   0  0  0  0  0  0  0  0  0  0  0  0
    2.3180   -1.1468    1.0631 N   0  0  0  0  0  0  0  0  0  0  0  0
    2.6054   -2.3967    1.3337 C   0  0  0  0  0  0  0  0  0  0  0  0
    3.2731   -2.7196    2.1271 H   0  0  0  0  0  0  0  0  0  0  0  0
    1.9517   -3.2393    0.4531 N   0  0  0  0  0  0  0  0  0  0  0  0
    2.0019   -4.2555    0.4690 H   0  0  0  0  0  0  0  0  0  0  0  0
    1.2004   -2.4652   -0.4057 C   0  0  0  0  0  0  0  0  0  0  0  0
    0.5642   -2.7879   -1.2229 H   0  0  0  0  0  0  0  0  0  0  0  0
   -0.6160    2.1125   -0.4766 C   0  0  0  0  0  0  0  0  0  0  0  0
   -0.2813    2.3640   -1.6282 O   0  0  0  0  0  0  0  0  0  0  0  0
   -1.4855    2.9804    0.1594 N   0  0  0  0  0  0  0  0  0  0  0  0
   -1.7309    2.7620    1.1218 H   0  0  0  0  0  0  0  0  0  0  0  0
   -1.9136    4.2537   -0.4078 C   0  0  0  0  0  0  0  0  0  0  0  0
   -2.4306    4.0962   -1.3603 H   0  0  0  0  0  0  0  0  0  0  0  0
   -2.6004    4.7602    0.2773 H   0  0  0  0  0  0  0  0  0  0  0  0
   -1.0508    4.9062   -0.5787 H   0  0  0  0  0  0  0  0  0  0  0  0
  1  2  1  0  0  0  0
  2  3  1  0  0  0  0
  2  4  1  0  0  0  0
  2  5  1  0  0  0  0
  5  6  2  0  0  0  0
  5  7  1  0  0  0  0
  7  8  1  0  0  0  0
  7  9  1  0  0  0  0
  9 10  1  0  0  0  0
  9 11  1  0  0  0  0
  9 22  1  0  0  0  0
 11 12  1  0  0  0  0
 11 13  1  0  0  0  0
 11 14  1  0  0  0  0
 14 15  1  0  0  0  0
 14 20  2  0  0  0  0
 15 16  2  0  0  0  0
 16 17  1  0  0  0  0
 16 18  1  0  0  0  0
 18 19  1  0  0  0  0
 18 20  1  0  0  0  0
 20 21  1  0  0  0  0
 22 23  2  0  0  0  0
 22 24  1  0  0  0  0
 24 25  1  0  0  0  0
 24 26  1  0  0  0  0
 26 27  1  0  0  0  0
 26 28  1  0  0  0  0
 26 29  1  0  0  0  0
M  END
$$$$

  -OEChem-01062216083D

 29 29  0     1  0  0  0  0  0999 V2000
   -2.7529   -3.0184    1.2781 H   0  0  0  0  0  0  0  0  0  0  0  0
   -2.8096   -2.0719    0.7332 C   0  0  0  0  0  0  0  0  0  0  0  0
   -3.7290   -1.5554    1.0190 H   0  0  0  0  0  0  0  0  0  0  0  0
   -2.8357   -2.2856   -0.3379 H   0  0  0  0  0  0  0  0  0  0  0  0
   -1.6062   -1.2081    1.0613 C   0  0  0  0  0  0  0  0  0  0  0  0
   -0.8423   -1.5598    1.9411 O   0  0  0  0  0  0  0  0  0  0  0  0
   -1.4813    0.0281    0.4613 N   0  0  0  0  0  0  0  0  0  0  0  0
   -2.2134    0.2271   -0.2154 H   0  0  0  0  0  0  0  0  0  0  0  0
   -0.2316    0.7920    0.2575 C   0  0  1  0  0  0  0  0  0  0  0  0
    0.2023    1.0240    1.2362 H   0  0  0  0  0  0  0  0  0  0  0  0
    0.8562    0.0735   -0.5880 C   0  0  0  0  0  0  0  0  0  0  0  0
    0.4359   -0.1770   -1.5665 H   0  0  0  0  0  0  0  0  0  0  0  0
    1.6904    0.7614   -0.7562 H   0  0  0  0  0  0  0  0  0  0  0  0
    1.4173   -1.1768    0.0127 C   0  0  0  0  0  0  0  0  0  0  0  0
    2.3181   -1.1584    1.0688 N   0  0  0  0  0  0  0  0  0  0  0  0
    2.5944   -2.4126    1.3311 C   0  0  0  0  0  0  0  0  0  0  0  0
    3.2532   -2.7470    2.1270 H   0  0  0  0  0  0  0  0  0  0  0  0
    1.9413   -3.2432    0.4387 N   0  0  0  0  0  0  0  0  0  0  0  0
    1.9834   -4.2598    0.4469 H   0  0  0  0  0  0  0  0  0  0  0  0
    1.1989   -2.4571   -0.4168 C   0  0  0  0  0  0  0  0  0  0  0  0
    0.5632   -2.7685   -1.2391 H   0  0  0  0  0  0  0  0  0  0  0  0
   -0.5921    2.1202   -0.4470 C   0  0  0  0  0  0  0  0  0  0  0  0
   -0.5184    2.2518   -1.6631 O   0  0  0  0  0  0  0  0  0  0  0  0
   -1.1925    3.1237    0.2913 N   0  0  0  0  0  0  0  0  0  0  0  0
   -1.2788    2.9747    1.2935 H   0  0  0  0  0  0  0  0  0  0  0  0
   -1.6450    4.3873   -0.2782 C   0  0  0  0  0  0  0  0  0  0  0  0
   -2.4344    4.2142   -1.0169 H   0  0  0  0  0  0  0  0  0  0  0  0
   -2.0435    5.0349    0.5087 H   0  0  0  0  0  0  0  0  0  0  0  0
   -0.8139    4.9074   -0.7660 H   0  0  0  0  0  0  0  0  0  0  0  0
  1  2  1  0  0  0  0
  2  3  1  0  0  0  0
  2  4  1  0  0  0  0
  2  5  1  0  0  0  0
  5  6  2  0  0  0  0
  5  7  1  0  0  0  0
  7  8  1  0  0  0  0
  7  9  1  0  0  0  0
  9 10  1  0  0  0  0
  9 11  1  0  0  0  0
  9 22  1  0  0  0  0
 11 12  1  0  0  0  0
 11 13  1  0  0  0  0
 11 14  1  0  0  0  0
 14 15  1  0  0  0  0
 14 20  2  0  0  0  0
 15 16  2  0  0  0  0
 16 17  1  0  0  0  0
 16 18  1  0  0  0  0
 18 19  1  0  0  0  0
 18 20  1  0  0  0  0
 20 21  1  0  0  0  0
 22 23  2  0  0  0  0
 22 24  1  0  0  0  0
 24 25  1  0  0  0  0
 24 26  1  0  0  0  0
 26 27  1  0  0  0  0
 26 28  1  0  0  0  0
 26 29  1  0  0  0  0
M  END
$$$$

  -OEChem-01062216083D

 29 29  0     1  0  0  0  0  0999 V2000
   -2.7735   -3.0019    1.2780 H   0  0  0  0  0  0  0  0  0  0  0  0
   -2.8181   -2.0559    0.7311 C   0  0  0  0  0  0  0  0  0  0  0  0
   -3.7345   -1.5306    1.0106 H   0  0  0  0  0  0  0  0  0  0  0  0
   -2.8396   -2.2701   -0.3401 H   0  0  0  0  0  0  0  0  0  0  0  0
   -1.6086   -1.2031    1.0645 C   0  0  0  0  0  0  0  0  0  0  0  0
   -0.8446   -1.5677    1.9393 O   0  0  0  0  0  0  0  0  0  0  0  0
   -1.4719    0.0328    0.4672 N   0  0  0  0  0  0  0  0  0  0  0  0
   -2.1975    0.2408   -0.2147 H   0  0  0  0  0  0  0  0  0  0  0  0
   -0.2191    0.7925    0.2763 C   0  0  1  0  0  0  0  0  0  0  0  0
    0.2106    1.0155    1.2588 H   0  0  0  0  0  0  0  0  0  0  0  0
    0.8698    0.0840   -0.5736 C   0  0  0  0  0  0  0  0  0  0  0  0
    0.4530   -0.1535   -1.5569 H   0  0  0  0  0  0  0  0  0  0  0  0
    1.7056    0.7726   -0.7303 H   0  0  0  0  0  0  0  0  0  0  0  0
    1.4245   -1.1749    0.0148 C   0  0  0  0  0  0  0  0  0  0  0  0
    2.3204   -1.1697    1.0753 N   0  0  0  0  0  0  0  0  0  0  0  0
    2.5903   -2.4276    1.3271 C   0  0  0  0  0  0  0  0  0  0  0  0
    3.2453   -2.7721    2.1220 H   0  0  0  0  0  0  0  0  0  0  0  0
    1.9360   -3.2474    0.4255 N   0  0  0  0  0  0  0  0  0  0  0  0
    1.9712   -4.2644    0.4265 H   0  0  0  0  0  0  0  0  0  0  0  0
    1.2004   -2.4502   -0.4258 C   0  0  0  0  0  0  0  0  0  0  0  0
    0.5641   -2.7515   -1.2512 H   0  0  0  0  0  0  0  0  0  0  0  0
   -0.5672    2.1200   -0.4296 C   0  0  0  0  0  0  0  0  0  0  0  0
   -0.7645    2.1596   -1.6387 O   0  0  0  0  0  0  0  0  0  0  0  0
   -0.8750    3.2319    0.3325 N   0  0  0  0  0  0  0  0  0  0  0  0
   -0.7705    3.1502    1.3406 H   0  0  0  0  0  0  0  0  0  0  0  0
   -1.3389    4.4940   -0.2303 C   0  0  0  0  0  0  0  0  0  0  0  0
   -2.2962    4.3556   -0.7434 H   0  0  0  0  0  0  0  0  0  0  0  0
   -1.4756    5.2339    0.5641 H   0  0  0  0  0  0  0  0  0  0  0  0
   -0.6081    4.8864   -0.9452 H   0  0  0  0  0  0  0  0  0  0  0  0
  1  2  1  0  0  0  0
  2  3  1  0  0  0  0
  2  4  1  0  0  0  0
  2  5  1  0  0  0  0
  5  6  2  0  0  0  0
  5  7  1  0  0  0  0
  7  8  1  0  0  0  0
  7  9  1  0  0  0  0
  9 10  1  0  0  0  0
  9 11  1  0  0  0  0
  9 22  1  0  0  0  0
 11 12  1  0  0  0  0
 11 13  1  0  0  0  0
 11 14  1  0  0  0  0
 14 15  1  0  0  0  0
 14 20  2  0  0  0  0
 15 16  2  0  0  0  0
 16 17  1  0  0  0  0
 16 18  1  0  0  0  0
 18 19  1  0  0  0  0
 18 20  1  0  0  0  0
 20 21  1  0  0  0  0
 22 23  2  0  0  0  0
 22 24  1  0  0  0  0
 24 25  1  0  0  0  0
 24 26  1  0  0  0  0
 26 27  1  0  0  0  0
 26 28  1  0  0  0  0
 26 29  1  0  0  0  0
M  END
$$$$

  -OEChem-01062216083D

 29 29  0     1  0  0  0  0  0999 V2000
   -2.7843   -3.0031    1.2732 H   0  0  0  0  0  0  0  0  0  0  0  0
   -2.8322   -2.0492    0.7407 C   0  0  0  0  0  0  0  0  0  0  0  0
   -3.7422   -1.5236    1.0399 H   0  0  0  0  0  0  0  0  0  0  0  0
   -2.8697   -2.2482   -0.3329 H   0  0  0  0  0  0  0  0  0  0  0  0
   -1.6147   -1.2060    1.0695 C   0  0  0  0  0  0  0  0  0  0  0  0
   -0.8457   -1.5804    1.9360 O   0  0  0  0  0  0  0  0  0  0  0  0
   -1.4707    0.0280    0.4706 N   0  0  0  0  0  0  0  0  0  0  0  0
   -2.1939    0.2471   -0.2113 H   0  0  0  0  0  0  0  0  0  0  0  0
   -0.2189    0.7903    0.2941 C   0  0  1  0  0  0  0  0  0  0  0  0
    0.2004    1.0101    1.2818 H   0  0  0  0  0  0  0  0  0  0  0  0
    0.8748    0.0951   -0.5573 C   0  0  0  0  0  0  0  0  0  0  0  0
    0.4627   -0.1307   -1.5454 H   0  0  0  0  0  0  0  0  0  0  0  0
    1.7106    0.7864   -0.7009 H   0  0  0  0  0  0  0  0  0  0  0  0
    1.4290   -1.1691    0.0192 C   0  0  0  0  0  0  0  0  0  0  0  0
    2.3192   -1.1753    1.0843 N   0  0  0  0  0  0  0  0  0  0  0  0
    2.5888   -2.4361    1.3223 C   0  0  0  0  0  0  0  0  0  0  0  0
    3.2399   -2.7893    2.1166 H   0  0  0  0  0  0  0  0  0  0  0  0
    1.9403   -3.2455    0.4072 N   0  0  0  0  0  0  0  0  0  0  0  0
    1.9742   -4.2624    0.3974 H   0  0  0  0  0  0  0  0  0  0  0  0
    1.2079   -2.4388   -0.4377 C   0  0  0  0  0  0  0  0  0  0  0  0
    0.5745   -2.7304   -1.2688 H   0  0  0  0  0  0  0  0  0  0  0  0
   -0.5569    2.1136   -0.4205 C   0  0  0  0  0  0  0  0  0  0  0  0
   -0.9900    2.1017   -1.5676 O   0  0  0  0  0  0  0  0  0  0  0  0
   -0.5727    3.2975    0.2931 N   0  0  0  0  0  0  0  0  0  0  0  0
   -0.2756    3.2622    1.2648 H   0  0  0  0  0  0  0  0  0  0  0  0
   -0.9973    4.5729   -0.2702 C   0  0  0  0  0  0  0  0  0  0  0  0
   -2.0468    4.5253   -0.5788 H   0  0  0  0  0  0  0  0  0  0  0  0
   -0.8914    5.3677    0.4744 H   0  0  0  0  0  0  0  0  0  0  0  0
   -0.3841    4.8311   -1.1400 H   0  0  0  0  0  0  0  0  0  0  0  0
  1  2  1  0  0  0  0
  2  3  1  0  0  0  0
  2  4  1  0  0  0  0
  2  5  1  0  0  0  0
  5  6  2  0  0  0  0
  5  7  1  0  0  0  0
  7  8  1  0  0  0  0
  7  9  1  0  0  0  0
  9 10  1  0  0  0  0
  9 11  1  0  0  0  0
  9 22  1  0  0  0  0
 11 12  1  0  0  0  0
 11 13  1  0  0  0  0
 11 14  1  0  0  0  0
 14 15  1  0  0  0  0
 14 20  2  0  0  0  0
 15 16  2  0  0  0  0
 16 17  1  0  0  0  0
 16 18  1  0  0  0  0
 18 19  1  0  0  0  0
 18 20  1  0  0  0  0
 20 21  1  0  0  0  0
 22 23  2  0  0  0  0
 22 24  1  0  0  0  0
 24 25  1  0  0  0  0
 24 26  1  0  0  0  0
 26 27  1  0  0  0  0
 26 28  1  0  0  0  0
 26 29  1  0  0  0  0
M  END
$$$$

  -OEChem-01062216083D

 29 29  0     1  0  0  0  0  0999 V2000
   -2.8099   -2.9957    1.2885 H   0  0  0  0  0  0  0  0  0  0  0  0
   -2.8499   -2.0435    0.7521 C   0  0  0  0  0  0  0  0  0  0  0  0
   -3.7496   -1.5039    1.0580 H   0  0  0  0  0  0  0  0  0  0  0  0
   -2.9006   -2.2462   -0.3204 H   0  0  0  0  0  0  0  0  0  0  0  0
   -1.6182   -1.2153    1.0659 C   0  0  0  0  0  0  0  0  0  0  0  0
   -0.8434   -1.6009    1.9224 O   0  0  0  0  0  0  0  0  0  0  0  0
   -1.4671    0.0179    0.4672 N   0  0  0  0  0  0  0  0  0  0  0  0
   -2.1951    0.2534   -0.2051 H   0  0  0  0  0  0  0  0  0  0  0  0
   -0.2185    0.7876    0.3022 C   0  0  1  0  0  0  0  0  0  0  0  0
    0.1926    1.0064    1.2936 H   0  0  0  0  0  0  0  0  0  0  0  0
    0.8804    0.1061   -0.5515 C   0  0  0  0  0  0  0  0  0  0  0  0
    0.4715   -0.1109   -1.5429 H   0  0  0  0  0  0  0  0  0  0  0  0
    1.7147    0.8011   -0.6859 H   0  0  0  0  0  0  0  0  0  0  0  0
    1.4359   -1.1605    0.0175 C   0  0  0  0  0  0  0  0  0  0  0  0
    2.3210   -1.1708    1.0867 N   0  0  0  0  0  0  0  0  0  0  0  0
    2.5876   -2.4330    1.3214 C   0  0  0  0  0  0  0  0  0  0  0  0
    3.2324   -2.7902    2.1191 H   0  0  0  0  0  0  0  0  0  0  0  0
    1.9449   -3.2383    0.3985 N   0  0  0  0  0  0  0  0  0  0  0  0
    1.9749   -4.2553    0.3870 H   0  0  0  0  0  0  0  0  0  0  0  0
    1.2172   -2.4278   -0.4467 C   0  0  0  0  0  0  0  0  0  0  0  0
    0.5859   -2.7155   -1.2807 H   0  0  0  0  0  0  0  0  0  0  0  0
   -0.5519    2.1077   -0.4189 C   0  0  0  0  0  0  0  0  0  0  0  0
   -1.1835    2.0856   -1.4704 O   0  0  0  0  0  0  0  0  0  0  0  0
   -0.2866    3.3201    0.1897 N   0  0  0  0  0  0  0  0  0  0  0  0
    0.1868    3.2993    1.0893 H   0  0  0  0  0  0  0  0  0  0  0  0
   -0.6600    4.6073   -0.3829 C   0  0  0  0  0  0  0  0  0  0  0  0
   -1.7480    4.6828   -0.4791 H   0  0  0  0  0  0  0  0  0  0  0  0
   -0.3120    5.4213    0.2602 H   0  0  0  0  0  0  0  0  0  0  0  0
   -0.2080    4.7322   -1.3724 H   0  0  0  0  0  0  0  0  0  0  0  0
  1  2  1  0  0  0  0
  2  3  1  0  0  0  0
  2  4  1  0  0  0  0
  2  5  1  0  0  0  0
  5  6  2  0  0  0  0
  5  7  1  0  0  0  0
  7  8  1  0  0  0  0
  7  9  1  0  0  0  0
  9 10  1  0  0  0  0
  9 11  1  0  0  0  0
  9 22  1  0  0  0  0
 11 12  1  0  0  0  0
 11 13  1  0  0  0  0
 11 14  1  0  0  0  0
 14 15  1  0  0  0  0
 14 20  2  0  0  0  0
 15 16  2  0  0  0  0
 16 17  1  0  0  0  0
 16 18  1  0  0  0  0
 18 19  1  0  0  0  0
 18 20  1  0  0  0  0
 20 21  1  0  0  0  0
 22 23  2  0  0  0  0
 22 24  1  0  0  0  0
 24 25  1  0  0  0  0
 24 26  1  0  0  0  0
 26 27  1  0  0  0  0
 26 28  1  0  0  0  0
 26 29  1  0  0  0  0
M  END
$$$$

  -OEChem-01062216083D

 29 29  0     1  0  0  0  0  0999 V2000
   -2.8350   -2.9972    1.2916 H   0  0  0  0  0  0  0  0  0  0  0  0
   -2.8752   -2.0397    0.7648 C   0  0  0  0  0  0  0  0  0  0  0  0
   -3.7621   -1.4930    1.0940 H   0  0  0  0  0  0  0  0  0  0  0  0
   -2.9500   -2.2314   -0.3081 H   0  0  0  0  0  0  0  0  0  0  0  0
   -1.6282   -1.2282    1.0609 C   0  0  0  0  0  0  0  0  0  0  0  0
   -0.8430   -1.6291    1.9008 O   0  0  0  0  0  0  0  0  0  0  0  0
   -1.4734    0.0053    0.4636 N   0  0  0  0  0  0  0  0  0  0  0  0
   -2.2119    0.2600   -0.1908 H   0  0  0  0  0  0  0  0  0  0  0  0
   -0.2302    0.7860    0.3066 C   0  0  1  0  0  0  0  0  0  0  0  0
    0.1726    1.0057    1.3011 H   0  0  0  0  0  0  0  0  0  0  0  0
    0.8738    0.1149   -0.5469 C   0  0  0  0  0  0  0  0  0  0  0  0
    0.4667   -0.0989   -1.5398 H   0  0  0  0  0  0  0  0  0  0  0  0
    1.7051    0.8144   -0.6770 H   0  0  0  0  0  0  0  0  0  0  0  0
    1.4365   -1.1506    0.0171 C   0  0  0  0  0  0  0  0  0  0  0  0
    2.3199   -1.1560    1.0878 N   0  0  0  0  0  0  0  0  0  0  0  0
    2.5975   -2.4164    1.3187 C   0  0  0  0  0  0  0  0  0  0  0  0
    3.2440   -2.7704    2.1163 H   0  0  0  0  0  0  0  0  0  0  0  0
    1.9645   -3.2244    0.3915 N   0  0  0  0  0  0  0  0  0  0  0  0
    2.0035   -4.2411    0.3773 H   0  0  0  0  0  0  0  0  0  0  0  0
    1.2307   -2.4182   -0.4524 C   0  0  0  0  0  0  0  0  0  0  0  0
    0.6035   -2.7092   -1.2885 H   0  0  0  0  0  0  0  0  0  0  0  0
   -0.5583    2.1054   -0.4187 C   0  0  0  0  0  0  0  0  0  0  0  0
   -1.3549    2.1063   -1.3521 O   0  0  0  0  0  0  0  0  0  0  0  0
   -0.0343    3.3015    0.0351 N   0  0  0  0  0  0  0  0  0  0  0  0
    0.5997    3.2650    0.8293 H   0  0  0  0  0  0  0  0  0  0  0  0
   -0.3371    4.5930   -0.5685 C   0  0  0  0  0  0  0  0  0  0  0  0
   -1.4065    4.8132   -0.4859 H   0  0  0  0  0  0  0  0  0  0  0  0
    0.2197    5.3868   -0.0612 H   0  0  0  0  0  0  0  0  0  0  0  0
   -0.0560    4.5969   -1.6269 H   0  0  0  0  0  0  0  0  0  0  0  0
  1  2  1  0  0  0  0
  2  3  1  0  0  0  0
  2  4  1  0  0  0  0
  2  5  1  0  0  0  0
  5  6  2  0  0  0  0
  5  7  1  0  0  0  0
  7  8  1  0  0  0  0
  7  9  1  0  0  0  0
  9 10  1  0  0  0  0
  9 11  1  0  0  0  0
  9 22  1  0  0  0  0
 11 12  1  0  0  0  0
 11 13  1  0  0  0  0
 11 14  1  0  0  0  0
 14 15  1  0  0  0  0
 14 20  2  0  0  0  0
 15 16  2  0  0  0  0
 16 17  1  0  0  0  0
 16 18  1  0  0  0  0
 18 19  1  0  0  0  0
 18 20  1  0  0  0  0
 20 21  1  0  0  0  0
 22 23  2  0  0  0  0
 22 24  1  0  0  0  0
 24 25  1  0  0  0  0
 24 26  1  0  0  0  0
 26 27  1  0  0  0  0
 26 28  1  0  0  0  0
 26 29  1  0  0  0  0
M  END
$$$$

  -OEChem-01062216083D

 29 29  0     1  0  0  0  0  0999 V2000
   -2.8642   -2.9925    1.2858 H   0  0  0  0  0  0  0  0  0  0  0  0
   -2.9032   -2.0250    0.7775 C   0  0  0  0  0  0  0  0  0  0  0  0
   -3.7709   -1.4697    1.1417 H   0  0  0  0  0  0  0  0  0  0  0  0
   -3.0126   -2.1962   -0.2960 H   0  0  0  0  0  0  0  0  0  0  0  0
   -1.6347   -1.2386    1.0510 C   0  0  0  0  0  0  0  0  0  0  0  0
   -0.8390   -1.6605    1.8703 O   0  0  0  0  0  0  0  0  0  0  0  0
   -1.4715   -0.0049    0.4564 N   0  0  0  0  0  0  0  0  0  0  0  0
   -2.2285    0.2812   -0.1636 H   0  0  0  0  0  0  0  0  0  0  0  0
   -0.2337    0.7860    0.3057 C   0  0  1  0  0  0  0  0  0  0  0  0
    0.1633    1.0098    1.3017 H   0  0  0  0  0  0  0  0  0  0  0  0
    0.8753    0.1201   -0.5466 C   0  0  0  0  0  0  0  0  0  0  0  0
    0.4689   -0.0953   -1.5394 H   0  0  0  0  0  0  0  0  0  0  0  0
    1.7044    0.8221   -0.6762 H   0  0  0  0  0  0  0  0  0  0  0  0
    1.4454   -1.1432    0.0141 C   0  0  0  0  0  0  0  0  0  0  0  0
    2.3287   -1.1439    1.0849 N   0  0  0  0  0  0  0  0  0  0  0  0
    2.6138   -2.4031    1.3146 C   0  0  0  0  0  0  0  0  0  0  0  0
    3.2628   -2.7541    2.1117 H   0  0  0  0  0  0  0  0  0  0  0  0
    1.9851   -3.2140    0.3869 N   0  0  0  0  0  0  0  0  0  0  0  0
    2.0236   -4.2308    0.3769 H   0  0  0  0  0  0  0  0  0  0  0  0
    1.2469   -2.4114   -0.4568 C   0  0  0  0  0  0  0  0  0  0  0  0
    0.6192   -2.7056   -1.2914 H   0  0  0  0  0  0  0  0  0  0  0  0
   -0.5616    2.1047   -0.4234 C   0  0  0  0  0  0  0  0  0  0  0  0
   -1.5003    2.1529   -1.2130 O   0  0  0  0  0  0  0  0  0  0  0  0
    0.1792    3.2447   -0.1712 N   0  0  0  0  0  0  0  0  0  0  0  0
    0.9369    3.1725    0.5033 H   0  0  0  0  0  0  0  0  0  0  0  0
   -0.0767    4.5280   -0.8124 C   0  0  0  0  0  0  0  0  0  0  0  0
   -1.0884    4.8768   -0.5808 H   0  0  0  0  0  0  0  0  0  0  0  0
    0.6372    5.2772   -0.4569 H   0  0  0  0  0  0  0  0  0  0  0  0
    0.0266    4.4402   -1.8990 H   0  0  0  0  0  0  0  0  0  0  0  0
  1  2  1  0  0  0  0
  2  3  1  0  0  0  0
  2  4  1  0  0  0  0
  2  5  1  0  0  0  0
  5  6  2  0  0  0  0
  5  7  1  0  0  0  0
  7  8  1  0  0  0  0
  7  9  1  0  0  0  0
  9 10  1  0  0  0  0
  9 11  1  0  0  0  0
  9 22  1  0  0  0  0
 11 12  1  0  0  0  0
 11 13  1  0  0  0  0
 11 14  1  0  0  0  0
 14 15  1  0  0  0  0
 14 20  2  0  0  0  0
 15 16  2  0  0  0  0
 16 17  1  0  0  0  0
 16 18  1  0  0  0  0
 18 19  1  0  0  0  0
 18 20  1  0  0  0  0
 20 21  1  0  0  0  0
 22 23  2  0  0  0  0
 22 24  1  0  0  0  0
 24 25  1  0  0  0  0
 24 26  1  0  0  0  0
 26 27  1  0  0  0  0
 26 28  1  0  0  0  0
 26 29  1  0  0  0  0
M  END
$$$$

  -OEChem-01062216083D

 29 29  0     1  0  0  0  0  0999 V2000
   -2.9007   -2.9701    1.2906 H   0  0  0  0  0  0  0  0  0  0  0  0
   -2.9284   -2.0012    0.7843 C   0  0  0  0  0  0  0  0  0  0  0  0
   -3.7772   -1.4281    1.1652 H   0  0  0  0  0  0  0  0  0  0  0  0
   -3.0609   -2.1677   -0.2873 H   0  0  0  0  0  0  0  0  0  0  0  0
   -1.6385   -1.2430    1.0361 C   0  0  0  0  0  0  0  0  0  0  0  0
   -0.8355   -1.6889    1.8352 O   0  0  0  0  0  0  0  0  0  0  0  0
   -1.4632   -0.0095    0.4446 N   0  0  0  0  0  0  0  0  0  0  0  0
   -2.2376    0.3111   -0.1367 H   0  0  0  0  0  0  0  0  0  0  0  0
   -0.2281    0.7884    0.3021 C   0  0  1  0  0  0  0  0  0  0  0  0
    0.1634    1.0182    1.2987 H   0  0  0  0  0  0  0  0  0  0  0  0
    0.8841    0.1165   -0.5450 C   0  0  0  0  0  0  0  0  0  0  0  0
    0.4790   -0.0994   -1.5381 H   0  0  0  0  0  0  0  0  0  0  0  0
    1.7167    0.8132   -0.6755 H   0  0  0  0  0  0  0  0  0  0  0  0
    1.4548   -1.1465    0.0167 C   0  0  0  0  0  0  0  0  0  0  0  0
    2.3373   -1.1450    1.0883 N   0  0  0  0  0  0  0  0  0  0  0  0
    2.6278   -2.4034    1.3159 C   0  0  0  0  0  0  0  0  0  0  0  0
    3.2755   -2.7532    2.1144 H   0  0  0  0  0  0  0  0  0  0  0  0
    2.0065   -3.2154    0.3843 N   0  0  0  0  0  0  0  0  0  0  0  0
    2.0536   -4.2318    0.3693 H   0  0  0  0  0  0  0  0  0  0  0  0
    1.2650   -2.4146   -0.4581 C   0  0  0  0  0  0  0  0  0  0  0  0
    0.6414   -2.7105   -1.2949 H   0  0  0  0  0  0  0  0  0  0  0  0
   -0.5583    2.1070   -0.4324 C   0  0  0  0  0  0  0  0  0  0  0  0
   -1.6136    2.2217   -1.0498 O   0  0  0  0  0  0  0  0  0  0  0  0
    0.3385    3.1602   -0.4224 N   0  0  0  0  0  0  0  0  0  0  0  0
    1.1956    3.0417    0.1122 H   0  0  0  0  0  0  0  0  0  0  0  0
    0.0953    4.4296   -1.0964 C   0  0  0  0  0  0  0  0  0  0  0  0
   -0.8005    4.9128   -0.6921 H   0  0  0  0  0  0  0  0  0  0  0  0
    0.9461    5.1024   -0.9525 H   0  0  0  0  0  0  0  0  0  0  0  0
   -0.0426    4.2724   -2.1713 H   0  0  0  0  0  0  0  0  0  0  0  0
  1  2  1  0  0  0  0
  2  3  1  0  0  0  0
  2  4  1  0  0  0  0
  2  5  1  0  0  0  0
  5  6  2  0  0  0  0
  5  7  1  0  0  0  0
  7  8  1  0  0  0  0
  7  9  1  0  0  0  0
  9 10  1  0  0  0  0
  9 11  1  0  0  0  0
  9 22  1  0  0  0  0
 11 12  1  0  0  0  0
 11 13  1  0  0  0  0
 11 14  1  0  0  0  0
 14 15  1  0  0  0  0
 14 20  2  0  0  0  0
 15 16  2  0  0  0  0
 16 17  1  0  0  0  0
 16 18  1  0  0  0  0
 18 19  1  0  0  0  0
 18 20  1  0  0  0  0
 20 21  1  0  0  0  0
 22 23  2  0  0  0  0
 22 24  1  0  0  0  0
 24 25  1  0  0  0  0
 24 26  1  0  0  0  0
 26 27  1  0  0  0  0
 26 28  1  0  0  0  0
 26 29  1  0  0  0  0
M  END
$$$$

  -OEChem-01062216083D

 29 29  0     1  0  0  0  0  0999 V2000
   -2.7992   -2.9952    1.3432 H   0  0  0  0  0  0  0  0  0  0  0  0
   -2.8645   -2.0154    0.8622 C   0  0  0  0  0  0  0  0  0  0  0  0
   -3.6258   -1.4216    1.3739 H   0  0  0  0  0  0  0  0  0  0  0  0
   -3.1594   -2.1547   -0.1804 H   0  0  0  0  0  0  0  0  0  0  0  0
   -1.5246   -1.3074    0.9324 C   0  0  0  0  0  0  0  0  0  0  0  0
   -0.6162   -1.8153    1.5650 O   0  0  0  0  0  0  0  0  0  0  0  0
   -1.3966   -0.0608    0.3554 N   0  0  0  0  0  0  0  0  0  0  0  0
   -2.2486    0.3557   -0.0192 H   0  0  0  0  0  0  0  0  0  0  0  0
   -0.1814    0.7670    0.2313 C   0  0  1  0  0  0  0  0  0  0  0  0
    0.3551    0.7734    1.1864 H   0  0  0  0  0  0  0  0  0  0  0  0
    0.7605    0.2604   -0.8906 C   0  0  0  0  0  0  0  0  0  0  0  0
    0.2081    0.2519   -1.8348 H   0  0  0  0  0  0  0  0  0  0  0  0
    1.6043    0.9455   -1.0080 H   0  0  0  0  0  0  0  0  0  0  0  0
    1.3330   -1.1010   -0.6553 C   0  0  0  0  0  0  0  0  0  0  0  0
    2.3531   -1.3272    0.2580 N   0  0  0  0  0  0  0  0  0  0  0  0
    2.5858   -2.6171    0.2255 C   0  0  0  0  0  0  0  0  0  0  0  0
    3.3141   -3.1295    0.8472 H   0  0  0  0  0  0  0  0  0  0  0  0
    1.7846   -3.2246   -0.7247 N   0  0  0  0  0  0  0  0  0  0  0  0
    1.7600   -4.2235   -0.9174 H   0  0  0  0  0  0  0  0  0  0  0  0
    0.9882   -2.2566   -1.2992 C   0  0  0  0  0  0  0  0  0  0  0  0
    0.2303   -2.3732   -2.0669 H   0  0  0  0  0  0  0  0  0  0  0  0
   -0.5754    2.2190   -0.1306 C   0  0  0  0  0  0  0  0  0  0  0  0
   -1.7511    2.5030   -0.3434 O   0  0  0  0  0  0  0  0  0  0  0  0
    0.3895    3.1964   -0.3016 N   0  0  0  0  0  0  0  0  0  0  0  0
    1.3526    2.9453   -0.0934 H   0  0  0  0  0  0  0  0  0  0  0  0
    0.0837    4.5729   -0.6715 C   0  0  0  0  0  0  0  0  0  0  0  0
   -0.5577    5.0391    0.0838 H   0  0  0  0  0  0  0  0  0  0  0  0
    1.0057    5.1569   -0.7505 H   0  0  0  0  0  0  0  0  0  0  0  0
   -0.4286    4.6045   -1.6388 H   0  0  0  0  0  0  0  0  0  0  0  0
  1  2  1  0  0  0  0
  2  3  1  0  0  0  0
  2  4  1  0  0  0  0
  2  5  1  0  0  0  0
  5  6  2  0  0  0  0
  5  7  1  0  0  0  0
  7  8  1  0  0  0  0
  7  9  1  0  0  0  0
  9 10  1  0  0  0  0
  9 11  1  0  0  0  0
  9 22  1  0  0  0  0
 11 12  1  0  0  0  0
 11 13  1  0  0  0  0
 11 14  1  0  0  0  0
 14 15  1  0  0  0  0
 14 20  2  0  0  0  0
 15 16  2  0  0  0  0
 16 17  1  0  0  0  0
 16 18  1  0  0  0  0
 18 19  1  0  0  0  0
 18 20  1  0  0  0  0
 20 21  1  0  0  0  0
 22 23  2  0  0  0  0
 22 24  1  0  0  0  0
 24 25  1  0  0  0  0
 24 26  1  0  0  0  0
 26 27  1  0  0  0  0
 26 28  1  0  0  0  0
 26 29  1  0  0  0  0
M  END
$$$$

  -OEChem-01062216083D

 29 29  0     1  0  0  0  0  0999 V2000
   -2.8345   -2.9589    1.3505 H   0  0  0  0  0  0  0  0  0  0  0  0
   -2.8860   -1.9757    0.8746 C   0  0  0  0  0  0  0  0  0  0  0  0
   -3.6135   -1.3617    1.4113 H   0  0  0  0  0  0  0  0  0  0  0  0
   -3.2168   -2.1020   -0.1590 H   0  0  0  0  0  0  0  0  0  0  0  0
   -1.5245   -1.3070    0.9057 C   0  0  0  0  0  0  0  0  0  0  0  0
   -0.6139   -1.8438    1.5100 O   0  0  0  0  0  0  0  0  0  0  0  0
   -1.3830   -0.0600    0.3325 N   0  0  0  0  0  0  0  0  0  0  0  0
   -2.2433    0.3924    0.0247 H   0  0  0  0  0  0  0  0  0  0  0  0
   -0.1634    0.7634    0.2119 C   0  0  1  0  0  0  0  0  0  0  0  0
    0.3697    0.7732    1.1689 H   0  0  0  0  0  0  0  0  0  0  0  0
    0.7841    0.2421   -0.9017 C   0  0  0  0  0  0  0  0  0  0  0  0
    0.2380    0.2317   -1.8494 H   0  0  0  0  0  0  0  0  0  0  0  0
    1.6356    0.9173   -1.0169 H   0  0  0  0  0  0  0  0  0  0  0  0
    1.3525   -1.1201   -0.6586 C   0  0  0  0  0  0  0  0  0  0  0  0
    2.3686   -1.3454    0.2593 N   0  0  0  0  0  0  0  0  0  0  0  0
    2.5987   -2.6360    0.2320 C   0  0  0  0  0  0  0  0  0  0  0  0
    3.3224   -3.1482    0.8593 H   0  0  0  0  0  0  0  0  0  0  0  0
    1.8013   -3.2447   -0.7206 N   0  0  0  0  0  0  0  0  0  0  0  0
    1.7732   -4.2445   -0.9078 H   0  0  0  0  0  0  0  0  0  0  0  0
    1.0090   -2.2771   -1.3010 C   0  0  0  0  0  0  0  0  0  0  0  0
    0.2533   -2.3951   -2.0704 H   0  0  0  0  0  0  0  0  0  0  0  0
   -0.5684    2.2166   -0.1490 C   0  0  0  0  0  0  0  0  0  0  0  0
   -1.7519    2.5435   -0.1229 O   0  0  0  0  0  0  0  0  0  0  0  0
    0.3544    3.1360   -0.6190 N   0  0  0  0  0  0  0  0  0  0  0  0
    1.3340    2.8656   -0.5998 H   0  0  0  0  0  0  0  0  0  0  0  0
    0.0096    4.5014   -0.9968 C   0  0  0  0  0  0  0  0  0  0  0  0
   -0.4196    5.0384   -0.1443 H   0  0  0  0  0  0  0  0  0  0  0  0
    0.9029    5.0385   -1.3296 H   0  0  0  0  0  0  0  0  0  0  0  0
   -0.7173    4.5008   -1.8158 H   0  0  0  0  0  0  0  0  0  0  0  0
  1  2  1  0  0  0  0
  2  3  1  0  0  0  0
  2  4  1  0  0  0  0
  2  5  1  0  0  0  0
  5  6  2  0  0  0  0
  5  7  1  0  0  0  0
  7  8  1  0  0  0  0
  7  9  1  0  0  0  0
  9 10  1  0  0  0  0
  9 11  1  0  0  0  0
  9 22  1  0  0  0  0
 11 12  1  0  0  0  0
 11 13  1  0  0  0  0
 11 14  1  0  0  0  0
 14 15  1  0  0  0  0
 14 20  2  0  0  0  0
 15 16  2  0  0  0  0
 16 17  1  0  0  0  0
 16 18  1  0  0  0  0
 18 19  1  0  0  0  0
 18 20  1  0  0  0  0
 20 21  1  0  0  0  0
 22 23  2  0  0  0  0
 22 24  1  0  0  0  0
 24 25  1  0  0  0  0
 24 26  1  0  0  0  0
 26 27  1  0  0  0  0
 26 28  1  0  0  0  0
 26 29  1  0  0  0  0
M  END
$$$$

  -OEChem-01062216083D

 29 29  0     1  0  0  0  0  0999 V2000
   -2.8633   -2.9306    1.3522 H   0  0  0  0  0  0  0  0  0  0  0  0
   -2.9070   -1.9410    0.8889 C   0  0  0  0  0  0  0  0  0  0  0  0
   -3.6036   -1.3180    1.4552 H   0  0  0  0  0  0  0  0  0  0  0  0
   -3.2730   -2.0475   -0.1348 H   0  0  0  0  0  0  0  0  0  0  0  0
   -1.5297   -1.3044    0.8836 C   0  0  0  0  0  0  0  0  0  0  0  0
   -0.6164   -1.8693    1.4570 O   0  0  0  0  0  0  0  0  0  0  0  0
   -1.3776   -0.0557    0.3161 N   0  0  0  0  0  0  0  0  0  0  0  0
   -2.2418    0.4274    0.0734 H   0  0  0  0  0  0  0  0  0  0  0  0
   -0.1510    0.7584    0.1964 C   0  0  1  0  0  0  0  0  0  0  0  0
    0.3786    0.7682    1.1554 H   0  0  0  0  0  0  0  0  0  0  0  0
    0.8053    0.2292   -0.9078 C   0  0  0  0  0  0  0  0  0  0  0  0
    0.2703    0.2208   -1.8619 H   0  0  0  0  0  0  0  0  0  0  0  0
    1.6626    0.8992   -1.0090 H   0  0  0  0  0  0  0  0  0  0  0  0
    1.3700   -1.1336   -0.6603 C   0  0  0  0  0  0  0  0  0  0  0  0
    2.3793   -1.3600    0.2648 N   0  0  0  0  0  0  0  0  0  0  0  0
    2.6076   -2.6510    0.2385 C   0  0  0  0  0  0  0  0  0  0  0  0
    3.3249   -3.1646    0.8719 H   0  0  0  0  0  0  0  0  0  0  0  0
    1.8185   -3.2583   -0.7216 N   0  0  0  0  0  0  0  0  0  0  0  0
    1.7905   -4.2580   -0.9092 H   0  0  0  0  0  0  0  0  0  0  0  0
    1.0316   -2.2896   -1.3072 C   0  0  0  0  0  0  0  0  0  0  0  0
    0.2815   -2.4073   -2.0820 H   0  0  0  0  0  0  0  0  0  0  0  0
   -0.5618    2.2141   -0.1571 C   0  0  0  0  0  0  0  0  0  0  0  0
   -1.6980    2.5981    0.1052 O   0  0  0  0  0  0  0  0  0  0  0  0
    0.2475    3.0564   -0.9025 N   0  0  0  0  0  0  0  0  0  0  0  0
    1.1938    2.7428   -1.0981 H   0  0  0  0  0  0  0  0  0  0  0  0
   -0.1422    4.4028   -1.3050 C   0  0  0  0  0  0  0  0  0  0  0  0
   -0.3776    5.0134   -0.4269 H   0  0  0  0  0  0  0  0  0  0  0  0
    0.6742    4.8841   -1.8519 H   0  0  0  0  0  0  0  0  0  0  0  0
   -1.0216    4.3684   -1.9567 H   0  0  0  0  0  0  0  0  0  0  0  0
  1  2  1  0  0  0  0
  2  3  1  0  0  0  0
  2  4  1  0  0  0  0
  2  5  1  0  0  0  0
  5  6  2  0  0  0  0
  5  7  1  0  0  0  0
  7  8  1  0  0  0  0
  7  9  1  0  0  0  0
  9 10  1  0  0  0  0
  9 11  1  0  0  0  0
  9 22  1  0  0  0  0
 11 12  1  0  0  0  0
 11 13  1  0  0  0  0
 11 14  1  0  0  0  0
 14 15  1  0  0  0  0
 14 20  2  0  0  0  0
 15 16  2  0  0  0  0
 16 17  1  0  0  0  0
 16 18  1  0  0  0  0
 18 19  1  0  0  0  0
 18 20  1  0  0  0  0
 20 21  1  0  0  0  0
 22 23  2  0  0  0  0
 22 24  1  0  0  0  0
 24 25  1  0  0  0  0
 24 26  1  0  0  0  0
 26 27  1  0  0  0  0
 26 28  1  0  0  0  0
 26 29  1  0  0  0  0
M  END
$$$$

  -OEChem-01062216083D

 29 29  0     1  0  0  0  0  0999 V2000
   -2.8985   -2.8993    1.3700 H   0  0  0  0  0  0  0  0  0  0  0  0
   -2.9320   -1.9106    0.9036 C   0  0  0  0  0  0  0  0  0  0  0  0
   -3.6001   -1.2699    1.4845 H   0  0  0  0  0  0  0  0  0  0  0  0
   -3.3253   -2.0129   -0.1106 H   0  0  0  0  0  0  0  0  0  0  0  0
   -1.5420   -1.3038    0.8616 C   0  0  0  0  0  0  0  0  0  0  0  0
   -0.6260   -1.8938    1.4038 O   0  0  0  0  0  0  0  0  0  0  0  0
   -1.3831   -0.0547    0.2961 N   0  0  0  0  0  0  0  0  0  0  0  0
   -2.2482    0.4471    0.1018 H   0  0  0  0  0  0  0  0  0  0  0  0
   -0.1507    0.7503    0.1714 C   0  0  1  0  0  0  0  0  0  0  0  0
    0.3745    0.7614    1.1328 H   0  0  0  0  0  0  0  0  0  0  0  0
    0.8179    0.2166   -0.9201 C   0  0  0  0  0  0  0  0  0  0  0  0
    0.2927    0.1993   -1.8795 H   0  0  0  0  0  0  0  0  0  0  0  0
    1.6723    0.8925   -1.0132 H   0  0  0  0  0  0  0  0  0  0  0  0
    1.3859   -1.1434   -0.6640 C   0  0  0  0  0  0  0  0  0  0  0  0
    2.3882   -1.3619    0.2705 N   0  0  0  0  0  0  0  0  0  0  0  0
    2.6246   -2.6513    0.2499 C   0  0  0  0  0  0  0  0  0  0  0  0
    3.3401   -3.1585    0.8904 H   0  0  0  0  0  0  0  0  0  0  0  0
    1.8467   -3.2656   -0.7151 N   0  0  0  0  0  0  0  0  0  0  0  0
    1.8220   -4.2665   -0.8964 H   0  0  0  0  0  0  0  0  0  0  0  0
    1.0599   -2.3029   -1.3110 C   0  0  0  0  0  0  0  0  0  0  0  0
    0.3169   -2.4266   -2.0918 H   0  0  0  0  0  0  0  0  0  0  0  0
   -0.5614    2.2069   -0.1762 C   0  0  0  0  0  0  0  0  0  0  0  0
   -1.5922    2.6625    0.3080 O   0  0  0  0  0  0  0  0  0  0  0  0
    0.0707    2.9547   -1.1575 N   0  0  0  0  0  0  0  0  0  0  0  0
    0.9238    2.5760   -1.5580 H   0  0  0  0  0  0  0  0  0  0  0  0
   -0.3549    4.2927   -1.5520 C   0  0  0  0  0  0  0  0  0  0  0  0
   -0.3422    4.9693   -0.6909 H   0  0  0  0  0  0  0  0  0  0  0  0
    0.3185    4.6935   -2.3158 H   0  0  0  0  0  0  0  0  0  0  0  0
   -1.3687    4.2660   -1.9649 H   0  0  0  0  0  0  0  0  0  0  0  0
  1  2  1  0  0  0  0
  2  3  1  0  0  0  0
  2  4  1  0  0  0  0
  2  5  1  0  0  0  0
  5  6  2  0  0  0  0
  5  7  1  0  0  0  0
  7  8  1  0  0  0  0
  7  9  1  0  0  0  0
  9 10  1  0  0  0  0
  9 11  1  0  0  0  0
  9 22  1  0  0  0  0
 11 12  1  0  0  0  0
 11 13  1  0  0  0  0
 11 14  1  0  0  0  0
 14 15  1  0  0  0  0
 14 20  2  0  0  0  0
 15 16  2  0  0  0  0
 16 17  1  0  0  0  0
 16 18  1  0  0  0  0
 18 19  1  0  0  0  0
 18 20  1  0  0  0  0
 20 21  1  0  0  0  0
 22 23  2  0  0  0  0
 22 24  1  0  0  0  0
 24 25  1  0  0  0  0
 24 26  1  0  0  0  0
 26 27  1  0  0  0  0
 26 28  1  0  0  0  0
 26 29  1  0  0  0  0
M  END
$$$$

  -OEChem-01062216083D

 29 29  0     1  0  0  0  0  0999 V2000
   -2.9076   -2.8894    1.3808 H   0  0  0  0  0  0  0  0  0  0  0  0
   -2.9409   -1.9007    0.9144 C   0  0  0  0  0  0  0  0  0  0  0  0
   -3.5997   -1.2569    1.5024 H   0  0  0  0  0  0  0  0  0  0  0  0
   -3.3456   -2.0017   -0.0952 H   0  0  0  0  0  0  0  0  0  0  0  0
   -1.5480   -1.3013    0.8566 C   0  0  0  0  0  0  0  0  0  0  0  0
   -0.6291   -1.9011    1.3822 O   0  0  0  0  0  0  0  0  0  0  0  0
   -1.3897   -0.0525    0.2894 N   0  0  0  0  0  0  0  0  0  0  0  0
   -2.2563    0.4494    0.1075 H   0  0  0  0  0  0  0  0  0  0  0  0
   -0.1549    0.7483    0.1566 C   0  0  1  0  0  0  0  0  0  0  0  0
    0.3713    0.7610    1.1179 H   0  0  0  0  0  0  0  0  0  0  0  0
    0.8185    0.2142   -0.9296 C   0  0  0  0  0  0  0  0  0  0  0  0
    0.2948    0.1843   -1.8892 H   0  0  0  0  0  0  0  0  0  0  0  0
    1.6656    0.8998   -1.0249 H   0  0  0  0  0  0  0  0  0  0  0  0
    1.3909   -1.1429   -0.6676 C   0  0  0  0  0  0  0  0  0  0  0  0
    2.3913   -1.3560    0.2700 N   0  0  0  0  0  0  0  0  0  0  0  0
    2.6315   -2.6447    0.2544 C   0  0  0  0  0  0  0  0  0  0  0  0
    3.3463   -3.1478    0.8989 H   0  0  0  0  0  0  0  0  0  0  0  0
    1.8581   -3.2644   -0.7107 N   0  0  0  0  0  0  0  0  0  0  0  0
    1.8359   -4.2660   -0.8881 H   0  0  0  0  0  0  0  0  0  0  0  0
    1.0702   -2.3058   -1.3117 C   0  0  0  0  0  0  0  0  0  0  0  0
    0.3294   -2.4355   -2.0933 H   0  0  0  0  0  0  0  0  0  0  0  0
   -0.5620    2.2045   -0.1884 C   0  0  0  0  0  0  0  0  0  0  0  0
   -1.4375    2.7428    0.4785 O   0  0  0  0  0  0  0  0  0  0  0  0
   -0.1573    2.8437   -1.3505 N   0  0  0  0  0  0  0  0  0  0  0  0
    0.5582    2.3889   -1.9094 H   0  0  0  0  0  0  0  0  0  0  0  0
   -0.6146    4.1720   -1.7427 C   0  0  0  0  0  0  0  0  0  0  0  0
   -0.3805    4.9041   -0.9626 H   0  0  0  0  0  0  0  0  0  0  0  0
   -0.1204    4.4838   -2.6679 H   0  0  0  0  0  0  0  0  0  0  0  0
   -1.6964    4.1704   -1.9125 H   0  0  0  0  0  0  0  0  0  0  0  0
  1  2  1  0  0  0  0
  2  3  1  0  0  0  0
  2  4  1  0  0  0  0
  2  5  1  0  0  0  0
  5  6  2  0  0  0  0
  5  7  1  0  0  0  0
  7  8  1  0  0  0  0
  7  9  1  0  0  0  0
  9 10  1  0  0  0  0
  9 11  1  0  0  0  0
  9 22  1  0  0  0  0
 11 12  1  0  0  0  0
 11 13  1  0  0  0  0
 11 14  1  0  0  0  0
 14 15  1  0  0  0  0
 14 20  2  0  0  0  0
 15 16  2  0  0  0  0
 16 17  1  0  0  0  0
 16 18  1  0  0  0  0
 18 19  1  0  0  0  0
 18 20  1  0  0  0  0
 20 21  1  0  0  0  0
 22 23  2  0  0  0  0
 22 24  1  0  0  0  0
 24 25  1  0  0  0  0
 24 26  1  0  0  0  0
 26 27  1  0  0  0  0
 26 28  1  0  0  0  0
 26 29  1  0  0  0  0
M  END
$$$$

  -OEChem-01062216083D

 29 29  0     1  0  0  0  0  0999 V2000
   -2.9011   -2.8935    1.3971 H   0  0  0  0  0  0  0  0  0  0  0  0
   -2.9411   -1.9082    0.9239 C   0  0  0  0  0  0  0  0  0  0  0  0
   -3.6022   -1.2642    1.5090 H   0  0  0  0  0  0  0  0  0  0  0  0
   -3.3474   -2.0184   -0.0842 H   0  0  0  0  0  0  0  0  0  0  0  0
   -1.5518   -1.3012    0.8602 C   0  0  0  0  0  0  0  0  0  0  0  0
   -0.6281   -1.8937    1.3851 O   0  0  0  0  0  0  0  0  0  0  0  0
   -1.4023   -0.0535    0.2877 N   0  0  0  0  0  0  0  0  0  0  0  0
   -2.2724    0.4335    0.0876 H   0  0  0  0  0  0  0  0  0  0  0  0
   -0.1691    0.7482    0.1463 C   0  0  1  0  0  0  0  0  0  0  0  0
    0.3583    0.7633    1.1070 H   0  0  0  0  0  0  0  0  0  0  0  0
    0.8068    0.2159   -0.9380 C   0  0  0  0  0  0  0  0  0  0  0  0
    0.2818    0.1711   -1.8960 H   0  0  0  0  0  0  0  0  0  0  0  0
    1.6443    0.9128   -1.0416 H   0  0  0  0  0  0  0  0  0  0  0  0
    1.3871   -1.1374   -0.6716 C   0  0  0  0  0  0  0  0  0  0  0  0
    2.3888   -1.3428    0.2661 N   0  0  0  0  0  0  0  0  0  0  0  0
    2.6349   -2.6303    0.2556 C   0  0  0  0  0  0  0  0  0  0  0  0
    3.3515   -3.1279    0.9026 H   0  0  0  0  0  0  0  0  0  0  0  0
    1.8647   -3.2566   -0.7079 N   0  0  0  0  0  0  0  0  0  0  0  0
    1.8479   -4.2589   -0.8819 H   0  0  0  0  0  0  0  0  0  0  0  0
    1.0718   -2.3039   -1.3119 C   0  0  0  0  0  0  0  0  0  0  0  0
    0.3312   -2.4400   -2.0925 H   0  0  0  0  0  0  0  0  0  0  0  0
   -0.5696    2.2030   -0.2003 C   0  0  0  0  0  0  0  0  0  0  0  0
   -1.2308    2.8405    0.6086 O   0  0  0  0  0  0  0  0  0  0  0  0
   -0.4300    2.7295   -1.4753 N   0  0  0  0  0  0  0  0  0  0  0  0
    0.1049    2.1896   -2.1486 H   0  0  0  0  0  0  0  0  0  0  0  0
   -0.9023    4.0559   -1.8553 C   0  0  0  0  0  0  0  0  0  0  0  0
   -0.4421    4.8229   -1.2235 H   0  0  0  0  0  0  0  0  0  0  0  0
   -0.6425    4.2654   -2.8973 H   0  0  0  0  0  0  0  0  0  0  0  0
   -1.9905    4.1197   -1.7512 H   0  0  0  0  0  0  0  0  0  0  0  0
  1  2  1  0  0  0  0
  2  3  1  0  0  0  0
  2  4  1  0  0  0  0
  2  5  1  0  0  0  0
  5  6  2  0  0  0  0
  5  7  1  0  0  0  0
  7  8  1  0  0  0  0
  7  9  1  0  0  0  0
  9 10  1  0  0  0  0
  9 11  1  0  0  0  0
  9 22  1  0  0  0  0
 11 12  1  0  0  0  0
 11 13  1  0  0  0  0
 11 14  1  0  0  0  0
 14 15  1  0  0  0  0
 14 20  2  0  0  0  0
 15 16  2  0  0  0  0
 16 17  1  0  0  0  0
 16 18  1  0  0  0  0
 18 19  1  0  0  0  0
 18 20  1  0  0  0  0
 20 21  1  0  0  0  0
 22 23  2  0  0  0  0
 22 24  1  0  0  0  0
 24 25  1  0  0  0  0
 24 26  1  0  0  0  0
 26 27  1  0  0  0  0
 26 28  1  0  0  0  0
 26 29  1  0  0  0  0
M  END
$$$$

  -OEChem-01062216083D

 29 29  0     1  0  0  0  0  0999 V2000
   -2.8788   -2.9164    1.4080 H   0  0  0  0  0  0  0  0  0  0  0  0
   -2.9316   -1.9336    0.9306 C   0  0  0  0  0  0  0  0  0  0  0  0
   -3.6098   -1.2995    1.5069 H   0  0  0  0  0  0  0  0  0  0  0  0
   -3.3262   -2.0546   -0.0809 H   0  0  0  0  0  0  0  0  0  0  0  0
   -1.5528   -1.3021    0.8787 C   0  0  0  0  0  0  0  0  0  0  0  0
   -0.6241   -1.8759    1.4151 O   0  0  0  0  0  0  0  0  0  0  0  0
   -1.4177   -0.0563    0.2979 N   0  0  0  0  0  0  0  0  0  0  0  0
   -2.2916    0.4034    0.0574 H   0  0  0  0  0  0  0  0  0  0  0  0
   -0.1888    0.7506    0.1451 C   0  0  1  0  0  0  0  0  0  0  0  0
    0.3444    0.7691    1.1030 H   0  0  0  0  0  0  0  0  0  0  0  0
    0.7845    0.2236   -0.9433 C   0  0  0  0  0  0  0  0  0  0  0  0
    0.2576    0.1710   -1.8994 H   0  0  0  0  0  0  0  0  0  0  0  0
    1.6140    0.9290   -1.0534 H   0  0  0  0  0  0  0  0  0  0  0  0
    1.3734   -1.1260   -0.6744 C   0  0  0  0  0  0  0  0  0  0  0  0
    2.3800   -1.3252    0.2593 N   0  0  0  0  0  0  0  0  0  0  0  0
    2.6331   -2.6112    0.2507 C   0  0  0  0  0  0  0  0  0  0  0  0
    3.3562   -3.1035    0.8943 H   0  0  0  0  0  0  0  0  0  0  0  0
    1.8609   -3.2440   -0.7067 N   0  0  0  0  0  0  0  0  0  0  0  0
    1.8517   -4.2464   -0.8810 H   0  0  0  0  0  0  0  0  0  0  0  0
    1.0603   -2.2965   -1.3092 C   0  0  0  0  0  0  0  0  0  0  0  0
    0.3186   -2.4388   -2.0876 H   0  0  0  0  0  0  0  0  0  0  0  0
   -0.5856    2.2029   -0.2060 C   0  0  0  0  0  0  0  0  0  0  0  0
   -0.9673    2.9516    0.6822 O   0  0  0  0  0  0  0  0  0  0  0  0
   -0.7380    2.6198   -1.5189 N   0  0  0  0  0  0  0  0  0  0  0  0
   -0.4284    1.9874   -2.2500 H   0  0  0  0  0  0  0  0  0  0  0  0
   -1.1988    3.9525   -1.8902 C   0  0  0  0  0  0  0  0  0  0  0  0
   -0.5444    4.7182   -1.4600 H   0  0  0  0  0  0  0  0  0  0  0  0
   -1.1928    4.0652   -2.9786 H   0  0  0  0  0  0  0  0  0  0  0  0
   -2.2199    4.1185   -1.5312 H   0  0  0  0  0  0  0  0  0  0  0  0
  1  2  1  0  0  0  0
  2  3  1  0  0  0  0
  2  4  1  0  0  0  0
  2  5  1  0  0  0  0
  5  6  2  0  0  0  0
  5  7  1  0  0  0  0
  7  8  1  0  0  0  0
  7  9  1  0  0  0  0
  9 10  1  0  0  0  0
  9 11  1  0  0  0  0
  9 22  1  0  0  0  0
 11 12  1  0  0  0  0
 11 13  1  0  0  0  0
 11 14  1  0  0  0  0
 14 15  1  0  0  0  0
 14 20  2  0  0  0  0
 15 16  2  0  0  0  0
 16 17  1  0  0  0  0
 16 18  1  0  0  0  0
 18 19  1  0  0  0  0
 18 20  1  0  0  0  0
 20 21  1  0  0  0  0
 22 23  2  0  0  0  0
 22 24  1  0  0  0  0
 24 25  1  0  0  0  0
 24 26  1  0  0  0  0
 26 27  1  0  0  0  0
 26 28  1  0  0  0  0
 26 29  1  0  0  0  0
M  END
$$$$

  -OEChem-01062216083D

 29 29  0     1  0  0  0  0  0999 V2000
   -2.8554   -2.9456    1.4239 H   0  0  0  0  0  0  0  0  0  0  0  0
   -2.9216   -1.9660    0.9419 C   0  0  0  0  0  0  0  0  0  0  0  0
   -3.6168   -1.3422    1.5090 H   0  0  0  0  0  0  0  0  0  0  0  0
   -3.3043   -2.0991   -0.0726 H   0  0  0  0  0  0  0  0  0  0  0  0
   -1.5541   -1.3095    0.9008 C   0  0  0  0  0  0  0  0  0  0  0  0
   -0.6203   -1.8632    1.4490 O   0  0  0  0  0  0  0  0  0  0  0  0
   -1.4338   -0.0647    0.3138 N   0  0  0  0  0  0  0  0  0  0  0  0
   -2.3096    0.3695    0.0377 H   0  0  0  0  0  0  0  0  0  0  0  0
   -0.2103    0.7508    0.1580 C   0  0  1  0  0  0  0  0  0  0  0  0
    0.3265    0.7706    1.1140 H   0  0  0  0  0  0  0  0  0  0  0  0
    0.7608    0.2399   -0.9381 C   0  0  0  0  0  0  0  0  0  0  0  0
    0.2339    0.1935   -1.8942 H   0  0  0  0  0  0  0  0  0  0  0  0
    1.5855    0.9518   -1.0449 H   0  0  0  0  0  0  0  0  0  0  0  0
    1.3580   -1.1075   -0.6770 C   0  0  0  0  0  0  0  0  0  0  0  0
    2.3684   -1.3068    0.2522 N   0  0  0  0  0  0  0  0  0  0  0  0
    2.6265   -2.5916    0.2383 C   0  0  0  0  0  0  0  0  0  0  0  0
    3.3539   -3.0831    0.8778 H   0  0  0  0  0  0  0  0  0  0  0  0
    1.8525   -3.2236   -0.7182 N   0  0  0  0  0  0  0  0  0  0  0  0
    1.8482   -4.2252   -0.8974 H   0  0  0  0  0  0  0  0  0  0  0  0
    1.0464   -2.2769   -1.3145 C   0  0  0  0  0  0  0  0  0  0  0  0
    0.3030   -2.4188   -2.0912 H   0  0  0  0  0  0  0  0  0  0  0  0
   -0.6090    2.1987   -0.1990 C   0  0  0  0  0  0  0  0  0  0  0  0
   -0.6762    3.0499    0.6755 O   0  0  0  0  0  0  0  0  0  0  0  0
   -1.0550    2.5210   -1.4708 N   0  0  0  0  0  0  0  0  0  0  0  0
   -0.9750    1.8085   -2.1894 H   0  0  0  0  0  0  0  0  0  0  0  0
   -1.4912    3.8596   -1.8510 C   0  0  0  0  0  0  0  0  0  0  0  0
   -0.6936    4.5884   -1.6713 H   0  0  0  0  0  0  0  0  0  0  0  0
   -1.7497    3.8859   -2.9140 H   0  0  0  0  0  0  0  0  0  0  0  0
   -2.3739    4.1532   -1.2731 H   0  0  0  0  0  0  0  0  0  0  0  0
  1  2  1  0  0  0  0
  2  3  1  0  0  0  0
  2  4  1  0  0  0  0
  2  5  1  0  0  0  0
  5  6  2  0  0  0  0
  5  7  1  0  0  0  0
  7  8  1  0  0  0  0
  7  9  1  0  0  0  0
  9 10  1  0  0  0  0
  9 11  1  0  0  0  0
  9 22  1  0  0  0  0
 11 12  1  0  0  0  0
 11 13  1  0  0  0  0
 11 14  1  0  0  0  0
 14 15  1  0  0  0  0
 14 20  2  0  0  0  0
 15 16  2  0  0  0  0
 16 17  1  0  0  0  0
 16 18  1  0  0  0  0
 18 19  1  0  0  0  0
 18 20  1  0  0  0  0
 20 21  1  0  0  0  0
 22 23  2  0  0  0  0
 22 24  1  0  0  0  0
 24 25  1  0  0  0  0
 24 26  1  0  0  0  0
 26 27  1  0  0  0  0
 26 28  1  0  0  0  0
 26 29  1  0  0  0  0
M  END
$$$$

  -OEChem-01062216083D

 29 29  0     1  0  0  0  0  0999 V2000
   -2.8405   -2.9761    1.4517 H   0  0  0  0  0  0  0  0  0  0  0  0
   -2.9191   -2.0017    0.9610 C   0  0  0  0  0  0  0  0  0  0  0  0
   -3.6277   -1.3845    1.5186 H   0  0  0  0  0  0  0  0  0  0  0  0
   -3.2928   -2.1496   -0.0547 H   0  0  0  0  0  0  0  0  0  0  0  0
   -1.5615   -1.3250    0.9227 C   0  0  0  0  0  0  0  0  0  0  0  0
   -0.6214   -1.8630    1.4751 O   0  0  0  0  0  0  0  0  0  0  0  0
   -1.4558   -0.0796    0.3335 N   0  0  0  0  0  0  0  0  0  0  0  0
   -2.3356    0.3434    0.0536 H   0  0  0  0  0  0  0  0  0  0  0  0
   -0.2386    0.7481    0.1860 C   0  0  1  0  0  0  0  0  0  0  0  0
    0.2979    0.7672    1.1422 H   0  0  0  0  0  0  0  0  0  0  0  0
    0.7329    0.2588   -0.9174 C   0  0  0  0  0  0  0  0  0  0  0  0
    0.2064    0.2280   -1.8746 H   0  0  0  0  0  0  0  0  0  0  0  0
    1.5535    0.9766   -1.0135 H   0  0  0  0  0  0  0  0  0  0  0  0
    1.3395   -1.0876   -0.6732 C   0  0  0  0  0  0  0  0  0  0  0  0
    2.3525   -1.2917    0.2519 N   0  0  0  0  0  0  0  0  0  0  0  0
    2.6242   -2.5730    0.2177 C   0  0  0  0  0  0  0  0  0  0  0  0
    3.3589   -3.0661    0.8475 H   0  0  0  0  0  0  0  0  0  0  0  0
    1.8538   -3.1983   -0.7460 N   0  0  0  0  0  0  0  0  0  0  0  0
    1.8615   -4.1964   -0.9431 H   0  0  0  0  0  0  0  0  0  0  0  0
    1.0377   -2.2505   -1.3271 C   0  0  0  0  0  0  0  0  0  0  0  0
    0.2969   -2.3874   -2.1074 H   0  0  0  0  0  0  0  0  0  0  0  0
   -0.6402    2.1923   -0.1759 C   0  0  0  0  0  0  0  0  0  0  0  0
   -0.4069    3.1152    0.5903 O   0  0  0  0  0  0  0  0  0  0  0  0
   -1.3578    2.4469   -1.3337 N   0  0  0  0  0  0  0  0  0  0  0  0
   -1.4688    1.6805   -1.9902 H   0  0  0  0  0  0  0  0  0  0  0  0
   -1.7559    3.7884   -1.7447 C   0  0  0  0  0  0  0  0  0  0  0  0
   -0.8752    4.4250   -1.8802 H   0  0  0  0  0  0  0  0  0  0  0  0
   -2.3028    3.7477   -2.6915 H   0  0  0  0  0  0  0  0  0  0  0  0
   -2.4062    4.2435   -0.9902 H   0  0  0  0  0  0  0  0  0  0  0  0
  1  2  1  0  0  0  0
  2  3  1  0  0  0  0
  2  4  1  0  0  0  0
  2  5  1  0  0  0  0
  5  6  2  0  0  0  0
  5  7  1  0  0  0  0
  7  8  1  0  0  0  0
  7  9  1  0  0  0  0
  9 10  1  0  0  0  0
  9 11  1  0  0  0  0
  9 22  1  0  0  0  0
 11 12  1  0  0  0  0
 11 13  1  0  0  0  0
 11 14  1  0  0  0  0
 14 15  1  0  0  0  0
 14 20  2  0  0  0  0
 15 16  2  0  0  0  0
 16 17  1  0  0  0  0
 16 18  1  0  0  0  0
 18 19  1  0  0  0  0
 18 20  1  0  0  0  0
 20 21  1  0  0  0  0
 22 23  2  0  0  0  0
 22 24  1  0  0  0  0
 24 25  1  0  0  0  0
 24 26  1  0  0  0  0
 26 27  1  0  0  0  0
 26 28  1  0  0  0  0
 26 29  1  0  0  0  0
M  END
$$$$

  -OEChem-01062216083D

 29 29  0     1  0  0  0  0  0999 V2000
   -2.8289   -3.0075    1.4799 H   0  0  0  0  0  0  0  0  0  0  0  0
   -2.9173   -2.0366    0.9841 C   0  0  0  0  0  0  0  0  0  0  0  0
   -3.6294   -1.4225    1.5407 H   0  0  0  0  0  0  0  0  0  0  0  0
   -3.2928   -2.1931   -0.0297 H   0  0  0  0  0  0  0  0  0  0  0  0
   -1.5652   -1.3492    0.9384 C   0  0  0  0  0  0  0  0  0  0  0  0
   -0.6189   -1.8791    1.4876 O   0  0  0  0  0  0  0  0  0  0  0  0
   -1.4733   -0.1016    0.3509 N   0  0  0  0  0  0  0  0  0  0  0  0
   -2.3607    0.3220    0.0980 H   0  0  0  0  0  0  0  0  0  0  0  0
   -0.2640    0.7424    0.2189 C   0  0  1  0  0  0  0  0  0  0  0  0
    0.2690    0.7596    1.1773 H   0  0  0  0  0  0  0  0  0  0  0  0
    0.7090    0.2752   -0.8910 C   0  0  0  0  0  0  0  0  0  0  0  0
    0.1797    0.2576   -1.8473 H   0  0  0  0  0  0  0  0  0  0  0  0
    1.5247    1.0001   -0.9779 H   0  0  0  0  0  0  0  0  0  0  0  0
    1.3261   -1.0701   -0.6663 C   0  0  0  0  0  0  0  0  0  0  0  0
    2.3420   -1.2829    0.2539 N   0  0  0  0  0  0  0  0  0  0  0  0
    2.6240   -2.5611    0.1972 C   0  0  0  0  0  0  0  0  0  0  0  0
    3.3646   -3.0589    0.8164 H   0  0  0  0  0  0  0  0  0  0  0  0
    1.8559   -3.1760   -0.7751 N   0  0  0  0  0  0  0  0  0  0  0  0
    1.8730   -4.1701   -0.9910 H   0  0  0  0  0  0  0  0  0  0  0  0
    1.0318   -2.2244   -1.3387 C   0  0  0  0  0  0  0  0  0  0  0  0
    0.2919   -2.3530   -2.1211 H   0  0  0  0  0  0  0  0  0  0  0  0
   -0.6654    2.1858   -0.1464 C   0  0  0  0  0  0  0  0  0  0  0  0
   -0.1828    3.1384    0.4478 O   0  0  0  0  0  0  0  0  0  0  0  0
   -1.6168    2.4146   -1.1282 N   0  0  0  0  0  0  0  0  0  0  0  0
   -1.8781    1.6232   -1.7076 H   0  0  0  0  0  0  0  0  0  0  0  0
   -1.9883    3.7541   -1.5696 C   0  0  0  0  0  0  0  0  0  0  0  0
   -1.1247    4.2667   -2.0062 H   0  0  0  0  0  0  0  0  0  0  0  0
   -2.7780    3.6985   -2.3249 H   0  0  0  0  0  0  0  0  0  0  0  0
   -2.3603    4.3467   -0.7269 H   0  0  0  0  0  0  0  0  0  0  0  0
  1  2  1  0  0  0  0
  2  3  1  0  0  0  0
  2  4  1  0  0  0  0
  2  5  1  0  0  0  0
  5  6  2  0  0  0  0
  5  7  1  0  0  0  0
  7  8  1  0  0  0  0
  7  9  1  0  0  0  0
  9 10  1  0  0  0  0
  9 11  1  0  0  0  0
  9 22  1  0  0  0  0
 11 12  1  0  0  0  0
 11 13  1  0  0  0  0
 11 14  1  0  0  0  0
 14 15  1  0  0  0  0
 14 20  2  0  0  0  0
 15 16  2  0  0  0  0
 16 17  1  0  0  0  0
 16 18  1  0  0  0  0
 18 19  1  0  0  0  0
 18 20  1  0  0  0  0
 20 21  1  0  0  0  0
 22 23  2  0  0  0  0
 22 24  1  0  0  0  0
 24 25  1  0  0  0  0
 24 26  1  0  0  0  0
 26 27  1  0  0  0  0
 26 28  1  0  0  0  0
 26 29  1  0  0  0  0
M  END
$$$$

  -OEChem-01062216083D

 29 29  0     1  0  0  0  0  0999 V2000
   -2.7924   -3.0491    1.4806 H   0  0  0  0  0  0  0  0  0  0  0  0
   -2.8960   -2.0758    0.9924 C   0  0  0  0  0  0  0  0  0  0  0  0
   -3.6213   -1.4793    1.5512 H   0  0  0  0  0  0  0  0  0  0  0  0
   -3.2643   -2.2310   -0.0243 H   0  0  0  0  0  0  0  0  0  0  0  0
   -1.5558   -1.3648    0.9572 C   0  0  0  0  0  0  0  0  0  0  0  0
   -0.6067   -1.8745    1.5203 O   0  0  0  0  0  0  0  0  0  0  0  0
   -1.4793   -0.1179    0.3655 N   0  0  0  0  0  0  0  0  0  0  0  0
   -2.3732    0.2993    0.1293 H   0  0  0  0  0  0  0  0  0  0  0  0
   -0.2774    0.7403    0.2417 C   0  0  1  0  0  0  0  0  0  0  0  0
    0.2555    0.7593    1.1999 H   0  0  0  0  0  0  0  0  0  0  0  0
    0.6920    0.2783   -0.8738 C   0  0  0  0  0  0  0  0  0  0  0  0
    0.1574    0.2650   -1.8274 H   0  0  0  0  0  0  0  0  0  0  0  0
    1.5068    1.0046   -0.9622 H   0  0  0  0  0  0  0  0  0  0  0  0
    1.3152   -1.0657   -0.6575 C   0  0  0  0  0  0  0  0  0  0  0  0
    2.3371   -1.2844    0.2550 N   0  0  0  0  0  0  0  0  0  0  0  0
    2.6202   -2.5618    0.1866 C   0  0  0  0  0  0  0  0  0  0  0  0
    3.3658   -3.0633    0.7966 H   0  0  0  0  0  0  0  0  0  0  0  0
    1.8459   -3.1708   -0.7844 N   0  0  0  0  0  0  0  0  0  0  0  0
    1.8647   -4.1628   -1.0099 H   0  0  0  0  0  0  0  0  0  0  0  0
    1.0174   -2.2160   -1.3353 C   0  0  0  0  0  0  0  0  0  0  0  0
    0.2731   -2.3388   -2.1143 H   0  0  0  0  0  0  0  0  0  0  0  0
   -0.6712    2.1859   -0.1317 C   0  0  0  0  0  0  0  0  0  0  0  0
   -0.0039    3.1319    0.2602 O   0  0  0  0  0  0  0  0  0  0  0  0
   -1.8083    2.4338   -0.8860 N   0  0  0  0  0  0  0  0  0  0  0  0
   -2.2146    1.6417   -1.3718 H   0  0  0  0  0  0  0  0  0  0  0  0
   -2.1871    3.7752   -1.3165 C   0  0  0  0  0  0  0  0  0  0  0  0
   -1.4096    4.2075   -1.9554 H   0  0  0  0  0  0  0  0  0  0  0  0
   -3.1226    3.7409   -1.8828 H   0  0  0  0  0  0  0  0  0  0  0  0
   -2.3340    4.4287   -0.4499 H   0  0  0  0  0  0  0  0  0  0  0  0
  1  2  1  0  0  0  0
  2  3  1  0  0  0  0
  2  4  1  0  0  0  0
  2  5  1  0  0  0  0
  5  6  2  0  0  0  0
  5  7  1  0  0  0  0
  7  8  1  0  0  0  0
  7  9  1  0  0  0  0
  9 10  1  0  0  0  0
  9 11  1  0  0  0  0
  9 22  1  0  0  0  0
 11 12  1  0  0  0  0
 11 13  1  0  0  0  0
 11 14  1  0  0  0  0
 14 15  1  0  0  0  0
 14 20  2  0  0  0  0
 15 16  2  0  0  0  0
 16 17  1  0  0  0  0
 16 18  1  0  0  0  0
 18 19  1  0  0  0  0
 18 20  1  0  0  0  0
 20 21  1  0  0  0  0
 22 23  2  0  0  0  0
 22 24  1  0  0  0  0
 24 25  1  0  0  0  0
 24 26  1  0  0  0  0
 26 27  1  0  0  0  0
 26 28  1  0  0  0  0
 26 29  1  0  0  0  0
M  END
$$$$

  -OEChem-01062216083D

 29 29  0     1  0  0  0  0  0999 V2000
   -2.4065   -3.2001    1.2977 H   0  0  0  0  0  0  0  0  0  0  0  0
   -2.6102   -2.2475    0.8003 C   0  0  0  0  0  0  0  0  0  0  0  0
   -3.5462   -1.8404    1.1901 H   0  0  0  0  0  0  0  0  0  0  0  0
   -2.7151   -2.4283   -0.2719 H   0  0  0  0  0  0  0  0  0  0  0  0
   -1.4755   -1.2732    1.0573 C   0  0  0  0  0  0  0  0  0  0  0  0
   -0.6198   -1.5572    1.8742 O   0  0  0  0  0  0  0  0  0  0  0  0
   -1.4834   -0.0439    0.4257 N   0  0  0  0  0  0  0  0  0  0  0  0
   -2.2048    0.0400   -0.2808 H   0  0  0  0  0  0  0  0  0  0  0  0
   -0.2812    0.8005    0.2271 C   0  0  1  0  0  0  0  0  0  0  0  0
    0.2963    0.8370    1.1586 H   0  0  0  0  0  0  0  0  0  0  0  0
    0.6190    0.2563   -0.9109 C   0  0  0  0  0  0  0  0  0  0  0  0
    0.0398    0.2129   -1.8371 H   0  0  0  0  0  0  0  0  0  0  0  0
    1.4523    0.9467   -1.0769 H   0  0  0  0  0  0  0  0  0  0  0  0
    1.2095   -1.0932   -0.6373 C   0  0  0  0  0  0  0  0  0  0  0  0
    2.2627   -1.2968    0.2409 N   0  0  0  0  0  0  0  0  0  0  0  0
    2.5003   -2.5850    0.2402 C   0  0  0  0  0  0  0  0  0  0  0  0
    3.2584   -3.0744    0.8449 H   0  0  0  0  0  0  0  0  0  0  0  0
    1.6576   -3.2219   -0.6530 N   0  0  0  0  0  0  0  0  0  0  0  0
    1.6466   -4.2235   -0.8330 H   0  0  0  0  0  0  0  0  0  0  0  0
    0.8391   -2.2714   -1.2265 C   0  0  0  0  0  0  0  0  0  0  0  0
    0.0615   -2.4127   -1.9695 H   0  0  0  0  0  0  0  0  0  0  0  0
   -0.6540    2.2534   -0.1566 C   0  0  0  0  0  0  0  0  0  0  0  0
    0.2105    3.1161   -0.2289 O   0  0  0  0  0  0  0  0  0  0  0  0
   -1.9361    2.5730   -0.5770 N   0  0  0  0  0  0  0  0  0  0  0  0
   -2.6697    1.9238   -0.3186 H   0  0  0  0  0  0  0  0  0  0  0  0
   -2.3226    3.9251   -0.9650 C   0  0  0  0  0  0  0  0  0  0  0  0
   -1.7107    4.2729   -1.8041 H   0  0  0  0  0  0  0  0  0  0  0  0
   -3.3718    3.9447   -1.2749 H   0  0  0  0  0  0  0  0  0  0  0  0
   -2.1943    4.6165   -0.1256 H   0  0  0  0  0  0  0  0  0  0  0  0
  1  2  1  0  0  0  0
  2  3  1  0  0  0  0
  2  4  1  0  0  0  0
  2  5  1  0  0  0  0
  5  6  2  0  0  0  0
  5  7  1  0  0  0  0
  7  8  1  0  0  0  0
  7  9  1  0  0  0  0
  9 10  1  0  0  0  0
  9 11  1  0  0  0  0
  9 22  1  0  0  0  0
 11 12  1  0  0  0  0
 11 13  1  0  0  0  0
 11 14  1  0  0  0  0
 14 15  1  0  0  0  0
 14 20  2  0  0  0  0
 15 16  2  0  0  0  0
 16 17  1  0  0  0  0
 16 18  1  0  0  0  0
 18 19  1  0  0  0  0
 18 20  1  0  0  0  0
 20 21  1  0  0  0  0
 22 23  2  0  0  0  0
 22 24  1  0  0  0  0
 24 25  1  0  0  0  0
 24 26  1  0  0  0  0
 26 27  1  0  0  0  0
 26 28  1  0  0  0  0
 26 29  1  0  0  0  0
M  END
$$$$

  -OEChem-01062216083D

 29 29  0     1  0  0  0  0  0999 V2000
   -2.4259   -3.1796    1.2997 H   0  0  0  0  0  0  0  0  0  0  0  0
   -2.6040   -2.2399    0.7691 C   0  0  0  0  0  0  0  0  0  0  0  0
   -3.5513   -1.8166    1.1115 H   0  0  0  0  0  0  0  0  0  0  0  0
   -2.6689   -2.4490   -0.3011 H   0  0  0  0  0  0  0  0  0  0  0  0
   -1.4717   -1.2674    1.0414 C   0  0  0  0  0  0  0  0  0  0  0  0
   -0.6222   -1.5546    1.8639 O   0  0  0  0  0  0  0  0  0  0  0  0
   -1.4732   -0.0346    0.4174 N   0  0  0  0  0  0  0  0  0  0  0  0
   -2.1995    0.0646   -0.2842 H   0  0  0  0  0  0  0  0  0  0  0  0
   -0.2672    0.8028    0.2115 C   0  0  1  0  0  0  0  0  0  0  0  0
    0.3135    0.8389    1.1407 H   0  0  0  0  0  0  0  0  0  0  0  0
    0.6299    0.2453   -0.9243 C   0  0  0  0  0  0  0  0  0  0  0  0
    0.0489    0.1986   -1.8492 H   0  0  0  0  0  0  0  0  0  0  0  0
    1.4682    0.9275   -1.0979 H   0  0  0  0  0  0  0  0  0  0  0  0
    1.2143   -1.1049   -0.6407 C   0  0  0  0  0  0  0  0  0  0  0  0
    2.2677   -1.3046    0.2386 N   0  0  0  0  0  0  0  0  0  0  0  0
    2.5022   -2.5934    0.2472 C   0  0  0  0  0  0  0  0  0  0  0  0
    3.2601   -3.0799    0.8543 H   0  0  0  0  0  0  0  0  0  0  0  0
    1.6564   -3.2355   -0.6393 N   0  0  0  0  0  0  0  0  0  0  0  0
    1.6419   -4.2387   -0.8107 H   0  0  0  0  0  0  0  0  0  0  0  0
    0.8399   -2.2871   -1.2192 C   0  0  0  0  0  0  0  0  0  0  0  0
    0.0612   -2.4322   -1.9602 H   0  0  0  0  0  0  0  0  0  0  0  0
   -0.6545    2.2570   -0.1601 C   0  0  0  0  0  0  0  0  0  0  0  0
    0.1953    3.0727   -0.4916 O   0  0  0  0  0  0  0  0  0  0  0  0
   -1.9878    2.6240   -0.2581 N   0  0  0  0  0  0  0  0  0  0  0  0
   -2.6473    2.0228    0.2252 H   0  0  0  0  0  0  0  0  0  0  0  0
   -2.4084    3.9822   -0.5850 C   0  0  0  0  0  0  0  0  0  0  0  0
   -2.0216    4.2783   -1.5659 H   0  0  0  0  0  0  0  0  0  0  0  0
   -3.5005    4.0432   -0.6148 H   0  0  0  0  0  0  0  0  0  0  0  0
   -2.0407    4.6892    0.1662 H   0  0  0  0  0  0  0  0  0  0  0  0
  1  2  1  0  0  0  0
  2  3  1  0  0  0  0
  2  4  1  0  0  0  0
  2  5  1  0  0  0  0
  5  6  2  0  0  0  0
  5  7  1  0  0  0  0
  7  8  1  0  0  0  0
  7  9  1  0  0  0  0
  9 10  1  0  0  0  0
  9 11  1  0  0  0  0
  9 22  1  0  0  0  0
 11 12  1  0  0  0  0
 11 13  1  0  0  0  0
 11 14  1  0  0  0  0
 14 15  1  0  0  0  0
 14 20  2  0  0  0  0
 15 16  2  0  0  0  0
 16 17  1  0  0  0  0
 16 18  1  0  0  0  0
 18 19  1  0  0  0  0
 18 20  1  0  0  0  0
 20 21  1  0  0  0  0
 22 23  2  0  0  0  0
 22 24  1  0  0  0  0
 24 25  1  0  0  0  0
 24 26  1  0  0  0  0
 26 27  1  0  0  0  0
 26 28  1  0  0  0  0
 26 29  1  0  0  0  0
M  END
$$$$

  -OEChem-01062216083D

 29 29  0     1  0  0  0  0  0999 V2000
   -2.4401   -3.1718    1.2530 H   0  0  0  0  0  0  0  0  0  0  0  0
   -2.6281   -2.2115    0.7642 C   0  0  0  0  0  0  0  0  0  0  0  0
   -3.5542   -1.7893    1.1615 H   0  0  0  0  0  0  0  0  0  0  0  0
   -2.7412   -2.3815   -0.3091 H   0  0  0  0  0  0  0  0  0  0  0  0
   -1.4731   -1.2626    1.0223 C   0  0  0  0  0  0  0  0  0  0  0  0
   -0.6220   -1.5654    1.8375 O   0  0  0  0  0  0  0  0  0  0  0  0
   -1.4599   -0.0270    0.4049 N   0  0  0  0  0  0  0  0  0  0  0  0
   -2.2033    0.1045   -0.2743 H   0  0  0  0  0  0  0  0  0  0  0  0
   -0.2495    0.8033    0.1987 C   0  0  1  0  0  0  0  0  0  0  0  0
    0.3294    0.8395    1.1286 H   0  0  0  0  0  0  0  0  0  0  0  0
    0.6512    0.2382   -0.9318 C   0  0  0  0  0  0  0  0  0  0  0  0
    0.0751    0.1922   -1.8599 H   0  0  0  0  0  0  0  0  0  0  0  0
    1.4944    0.9147   -1.1019 H   0  0  0  0  0  0  0  0  0  0  0  0
    1.2290   -1.1129   -0.6402 C   0  0  0  0  0  0  0  0  0  0  0  0
    2.2777   -1.3145    0.2450 N   0  0  0  0  0  0  0  0  0  0  0  0
    2.5083   -2.6042    0.2547 C   0  0  0  0  0  0  0  0  0  0  0  0
    3.2617   -3.0938    0.8649 H   0  0  0  0  0  0  0  0  0  0  0  0
    1.6658   -3.2442   -0.6361 N   0  0  0  0  0  0  0  0  0  0  0  0
    1.6498   -4.2472   -0.8075 H   0  0  0  0  0  0  0  0  0  0  0  0
    0.8555   -2.2940   -1.2213 C   0  0  0  0  0  0  0  0  0  0  0  0
    0.0820   -2.4364   -1.9683 H   0  0  0  0  0  0  0  0  0  0  0  0
   -0.6527    2.2566   -0.1645 C   0  0  0  0  0  0  0  0  0  0  0  0
    0.1176    3.0195   -0.7329 O   0  0  0  0  0  0  0  0  0  0  0  0
   -1.9536    2.6827    0.0512 N   0  0  0  0  0  0  0  0  0  0  0  0
   -2.5082    2.1084    0.6794 H   0  0  0  0  0  0  0  0  0  0  0  0
   -2.3979    4.0462   -0.2159 C   0  0  0  0  0  0  0  0  0  0  0  0
   -2.2419    4.3023   -1.2692 H   0  0  0  0  0  0  0  0  0  0  0  0
   -3.4644    4.1461    0.0068 H   0  0  0  0  0  0  0  0  0  0  0  0
   -1.8444    4.7584    0.4050 H   0  0  0  0  0  0  0  0  0  0  0  0
  1  2  1  0  0  0  0
  2  3  1  0  0  0  0
  2  4  1  0  0  0  0
  2  5  1  0  0  0  0
  5  6  2  0  0  0  0
  5  7  1  0  0  0  0
  7  8  1  0  0  0  0
  7  9  1  0  0  0  0
  9 10  1  0  0  0  0
  9 11  1  0  0  0  0
  9 22  1  0  0  0  0
 11 12  1  0  0  0  0
 11 13  1  0  0  0  0
 11 14  1  0  0  0  0
 14 15  1  0  0  0  0
 14 20  2  0  0  0  0
 15 16  2  0  0  0  0
 16 17  1  0  0  0  0
 16 18  1  0  0  0  0
 18 19  1  0  0  0  0
 18 20  1  0  0  0  0
 20 21  1  0  0  0  0
 22 23  2  0  0  0  0
 22 24  1  0  0  0  0
 24 25  1  0  0  0  0
 24 26  1  0  0  0  0
 26 27  1  0  0  0  0
 26 28  1  0  0  0  0
 26 29  1  0  0  0  0
M  END
$$$$

  -OEChem-01062216083D

 29 29  0     1  0  0  0  0  0999 V2000
   -2.4827   -3.1505    1.2474 H   0  0  0  0  0  0  0  0  0  0  0  0
   -2.6521   -2.1896    0.7534 C   0  0  0  0  0  0  0  0  0  0  0  0
   -3.5697   -1.7473    1.1485 H   0  0  0  0  0  0  0  0  0  0  0  0
   -2.7688   -2.3629   -0.3189 H   0  0  0  0  0  0  0  0  0  0  0  0
   -1.4788   -1.2616    1.0052 C   0  0  0  0  0  0  0  0  0  0  0  0
   -0.6235   -1.5836    1.8086 O   0  0  0  0  0  0  0  0  0  0  0  0
   -1.4524   -0.0216    0.3979 N   0  0  0  0  0  0  0  0  0  0  0  0
   -2.2136    0.1423   -0.2547 H   0  0  0  0  0  0  0  0  0  0  0  0
   -0.2386    0.8016    0.1898 C   0  0  1  0  0  0  0  0  0  0  0  0
    0.3404    0.8345    1.1198 H   0  0  0  0  0  0  0  0  0  0  0  0
    0.6653    0.2351   -0.9371 C   0  0  0  0  0  0  0  0  0  0  0  0
    0.0914    0.1885   -1.8667 H   0  0  0  0  0  0  0  0  0  0  0  0
    1.5091    0.9122   -1.1044 H   0  0  0  0  0  0  0  0  0  0  0  0
    1.2411   -1.1160   -0.6435 C   0  0  0  0  0  0  0  0  0  0  0  0
    2.2871   -1.3152    0.2457 N   0  0  0  0  0  0  0  0  0  0  0  0
    2.5174   -2.6049    0.2591 C   0  0  0  0  0  0  0  0  0  0  0  0
    3.2688   -3.0931    0.8731 H   0  0  0  0  0  0  0  0  0  0  0  0
    1.6772   -3.2471   -0.6326 N   0  0  0  0  0  0  0  0  0  0  0  0
    1.6591   -4.2508   -0.7997 H   0  0  0  0  0  0  0  0  0  0  0  0
    0.8684   -2.2983   -1.2221 C   0  0  0  0  0  0  0  0  0  0  0  0
    0.0949   -2.4422   -1.9688 H   0  0  0  0  0  0  0  0  0  0  0  0
   -0.6513    2.2553   -0.1598 C   0  0  0  0  0  0  0  0  0  0  0  0
   -0.0202    2.9468   -0.9493 O   0  0  0  0  0  0  0  0  0  0  0  0
   -1.8355    2.7607    0.3502 N   0  0  0  0  0  0  0  0  0  0  0  0
   -2.2698    2.2196    1.0932 H   0  0  0  0  0  0  0  0  0  0  0  0
   -2.2851    4.1294    0.1240 C   0  0  0  0  0  0  0  0  0  0  0  0
   -2.4167    4.3184   -0.9466 H   0  0  0  0  0  0  0  0  0  0  0  0
   -3.2435    4.2997    0.6236 H   0  0  0  0  0  0  0  0  0  0  0  0
   -1.5552    4.8429    0.5207 H   0  0  0  0  0  0  0  0  0  0  0  0
  1  2  1  0  0  0  0
  2  3  1  0  0  0  0
  2  4  1  0  0  0  0
  2  5  1  0  0  0  0
  5  6  2  0  0  0  0
  5  7  1  0  0  0  0
  7  8  1  0  0  0  0
  7  9  1  0  0  0  0
  9 10  1  0  0  0  0
  9 11  1  0  0  0  0
  9 22  1  0  0  0  0
 11 12  1  0  0  0  0
 11 13  1  0  0  0  0
 11 14  1  0  0  0  0
 14 15  1  0  0  0  0
 14 20  2  0  0  0  0
 15 16  2  0  0  0  0
 16 17  1  0  0  0  0
 16 18  1  0  0  0  0
 18 19  1  0  0  0  0
 18 20  1  0  0  0  0
 20 21  1  0  0  0  0
 22 23  2  0  0  0  0
 22 24  1  0  0  0  0
 24 25  1  0  0  0  0
 24 26  1  0  0  0  0
 26 27  1  0  0  0  0
 26 28  1  0  0  0  0
 26 29  1  0  0  0  0
M  END
$$$$

  -OEChem-01062216083D

 29 29  0     1  0  0  0  0  0999 V2000
   -2.5200   -3.1301    1.2461 H   0  0  0  0  0  0  0  0  0  0  0  0
   -2.6758   -2.1666    0.7525 C   0  0  0  0  0  0  0  0  0  0  0  0
   -3.5824   -1.7074    1.1540 H   0  0  0  0  0  0  0  0  0  0  0  0
   -2.8045   -2.3387   -0.3187 H   0  0  0  0  0  0  0  0  0  0  0  0
   -1.4842   -1.2596    0.9943 C   0  0  0  0  0  0  0  0  0  0  0  0
   -0.6262   -1.5979    1.7883 O   0  0  0  0  0  0  0  0  0  0  0  0
   -1.4457   -0.0161    0.3955 N   0  0  0  0  0  0  0  0  0  0  0  0
   -2.2163    0.1712   -0.2396 H   0  0  0  0  0  0  0  0  0  0  0  0
   -0.2287    0.7995    0.1883 C   0  0  1  0  0  0  0  0  0  0  0  0
    0.3516    0.8271    1.1176 H   0  0  0  0  0  0  0  0  0  0  0  0
    0.6781    0.2362   -0.9371 C   0  0  0  0  0  0  0  0  0  0  0  0
    0.1060    0.1896   -1.8680 H   0  0  0  0  0  0  0  0  0  0  0  0
    1.5189    0.9174   -1.1014 H   0  0  0  0  0  0  0  0  0  0  0  0
    1.2511   -1.1164   -0.6457 C   0  0  0  0  0  0  0  0  0  0  0  0
    2.2940   -1.3169    0.2472 N   0  0  0  0  0  0  0  0  0  0  0  0
    2.5230   -2.6070    0.2595 C   0  0  0  0  0  0  0  0  0  0  0  0
    3.2708   -3.0964    0.8767 H   0  0  0  0  0  0  0  0  0  0  0  0
    1.6866   -3.2475   -0.6370 N   0  0  0  0  0  0  0  0  0  0  0  0
    1.6687   -4.2509   -0.8058 H   0  0  0  0  0  0  0  0  0  0  0  0
    0.8800   -2.2975   -1.2277 C   0  0  0  0  0  0  0  0  0  0  0  0
    0.1085   -2.4399   -1.9771 H   0  0  0  0  0  0  0  0  0  0  0  0
   -0.6453    2.2526   -0.1493 C   0  0  0  0  0  0  0  0  0  0  0  0
   -0.2071    2.8589   -1.1193 O   0  0  0  0  0  0  0  0  0  0  0  0
   -1.6396    2.8502    0.6053 N   0  0  0  0  0  0  0  0  0  0  0  0
   -1.9383    2.3519    1.4399 H   0  0  0  0  0  0  0  0  0  0  0  0
   -2.0897    4.2221    0.4026 C   0  0  0  0  0  0  0  0  0  0  0  0
   -2.4854    4.3505   -0.6103 H   0  0  0  0  0  0  0  0  0  0  0  0
   -2.8819    4.4693    1.1158 H   0  0  0  0  0  0  0  0  0  0  0  0
   -1.2607    4.9225    0.5488 H   0  0  0  0  0  0  0  0  0  0  0  0
  1  2  1  0  0  0  0
  2  3  1  0  0  0  0
  2  4  1  0  0  0  0
  2  5  1  0  0  0  0
  5  6  2  0  0  0  0
  5  7  1  0  0  0  0
  7  8  1  0  0  0  0
  7  9  1  0  0  0  0
  9 10  1  0  0  0  0
  9 11  1  0  0  0  0
  9 22  1  0  0  0  0
 11 12  1  0  0  0  0
 11 13  1  0  0  0  0
 11 14  1  0  0  0  0
 14 15  1  0  0  0  0
 14 20  2  0  0  0  0
 15 16  2  0  0  0  0
 16 17  1  0  0  0  0
 16 18  1  0  0  0  0
 18 19  1  0  0  0  0
 18 20  1  0  0  0  0
 20 21  1  0  0  0  0
 22 23  2  0  0  0  0
 22 24  1  0  0  0  0
 24 25  1  0  0  0  0
 24 26  1  0  0  0  0
 26 27  1  0  0  0  0
 26 28  1  0  0  0  0
 26 29  1  0  0  0  0
M  END
$$$$

  -OEChem-01062216083D

 29 29  0     1  0  0  0  0  0999 V2000
   -2.5456   -3.1189    1.2454 H   0  0  0  0  0  0  0  0  0  0  0  0
   -2.6922   -2.1531    0.7532 C   0  0  0  0  0  0  0  0  0  0  0  0
   -3.5935   -1.6853    1.1565 H   0  0  0  0  0  0  0  0  0  0  0  0
   -2.8237   -2.3224   -0.3180 H   0  0  0  0  0  0  0  0  0  0  0  0
   -1.4909   -1.2583    0.9936 C   0  0  0  0  0  0  0  0  0  0  0  0
   -0.6297   -1.6101    1.7787 O   0  0  0  0  0  0  0  0  0  0  0  0
   -1.4433   -0.0123    0.4011 N   0  0  0  0  0  0  0  0  0  0  0  0
   -2.2188    0.1915   -0.2231 H   0  0  0  0  0  0  0  0  0  0  0  0
   -0.2229    0.7963    0.1975 C   0  0  1  0  0  0  0  0  0  0  0  0
    0.3575    0.8150    1.1268 H   0  0  0  0  0  0  0  0  0  0  0  0
    0.6864    0.2394   -0.9282 C   0  0  0  0  0  0  0  0  0  0  0  0
    0.1156    0.1952   -1.8602 H   0  0  0  0  0  0  0  0  0  0  0  0
    1.5249    0.9244   -1.0883 H   0  0  0  0  0  0  0  0  0  0  0  0
    1.2566   -1.1154   -0.6443 C   0  0  0  0  0  0  0  0  0  0  0  0
    2.2967   -1.3215    0.2508 N   0  0  0  0  0  0  0  0  0  0  0  0
    2.5257   -2.6117    0.2544 C   0  0  0  0  0  0  0  0  0  0  0  0
    3.2726   -3.1056    0.8693 H   0  0  0  0  0  0  0  0  0  0  0  0
    1.6918   -3.2462   -0.6487 N   0  0  0  0  0  0  0  0  0  0  0  0
    1.6729   -4.2486   -0.8228 H   0  0  0  0  0  0  0  0  0  0  0  0
    0.8872   -2.2922   -1.2356 C   0  0  0  0  0  0  0  0  0  0  0  0
    0.1181   -2.4285   -1.9888 H   0  0  0  0  0  0  0  0  0  0  0  0
   -0.6342    2.2504   -0.1325 C   0  0  0  0  0  0  0  0  0  0  0  0
   -0.4273    2.7615   -1.2267 O   0  0  0  0  0  0  0  0  0  0  0  0
   -1.3803    2.9536    0.7957 N   0  0  0  0  0  0  0  0  0  0  0  0
   -1.5240    2.5114    1.7000 H   0  0  0  0  0  0  0  0  0  0  0  0
   -1.8278    4.3273    0.5995 C   0  0  0  0  0  0  0  0  0  0  0  0
   -2.4649    4.4014   -0.2881 H   0  0  0  0  0  0  0  0  0  0  0  0
   -2.4043    4.6641    1.4664 H   0  0  0  0  0  0  0  0  0  0  0  0
   -0.9691    4.9951    0.4737 H   0  0  0  0  0  0  0  0  0  0  0  0
  1  2  1  0  0  0  0
  2  3  1  0  0  0  0
  2  4  1  0  0  0  0
  2  5  1  0  0  0  0
  5  6  2  0  0  0  0
  5  7  1  0  0  0  0
  7  8  1  0  0  0  0
  7  9  1  0  0  0  0
  9 10  1  0  0  0  0
  9 11  1  0  0  0  0
  9 22  1  0  0  0  0
 11 12  1  0  0  0  0
 11 13  1  0  0  0  0
 11 14  1  0  0  0  0
 14 15  1  0  0  0  0
 14 20  2  0  0  0  0
 15 16  2  0  0  0  0
 16 17  1  0  0  0  0
 16 18  1  0  0  0  0
 18 19  1  0  0  0  0
 18 20  1  0  0  0  0
 20 21  1  0  0  0  0
 22 23  2  0  0  0  0
 22 24  1  0  0  0  0
 24 25  1  0  0  0  0
 24 26  1  0  0  0  0
 26 27  1  0  0  0  0
 26 28  1  0  0  0  0
 26 29  1  0  0  0  0
M  END
$$$$

  -OEChem-01062216083D

 29 29  0     1  0  0  0  0  0999 V2000
   -2.5818   -3.0939    1.2639 H   0  0  0  0  0  0  0  0  0  0  0  0
   -2.7032   -2.1354    0.7513 C   0  0  0  0  0  0  0  0  0  0  0  0
   -3.6004   -1.6425    1.1333 H   0  0  0  0  0  0  0  0  0  0  0  0
   -2.8239   -2.3226   -0.3182 H   0  0  0  0  0  0  0  0  0  0  0  0
   -1.4885   -1.2585    0.9902 C   0  0  0  0  0  0  0  0  0  0  0  0
   -0.6250   -1.6284    1.7648 O   0  0  0  0  0  0  0  0  0  0  0  0
   -1.4293   -0.0099    0.4050 N   0  0  0  0  0  0  0  0  0  0  0  0
   -2.2054    0.2102   -0.2135 H   0  0  0  0  0  0  0  0  0  0  0  0
   -0.2061    0.7935    0.2096 C   0  0  1  0  0  0  0  0  0  0  0  0
    0.3744    0.8012    1.1390 H   0  0  0  0  0  0  0  0  0  0  0  0
    0.7030    0.2483   -0.9206 C   0  0  0  0  0  0  0  0  0  0  0  0
    0.1324    0.2108   -1.8530 H   0  0  0  0  0  0  0  0  0  0  0  0
    1.5408    0.9353   -1.0752 H   0  0  0  0  0  0  0  0  0  0  0  0
    1.2667   -1.1108   -0.6473 C   0  0  0  0  0  0  0  0  0  0  0  0
    2.3032   -1.3270    0.2495 N   0  0  0  0  0  0  0  0  0  0  0  0
    2.5202   -2.6195    0.2504 C   0  0  0  0  0  0  0  0  0  0  0  0
    3.2597   -3.1218    0.8674 H   0  0  0  0  0  0  0  0  0  0  0  0
    1.6835   -3.2443   -0.6569 N   0  0  0  0  0  0  0  0  0  0  0  0
    1.6532   -4.2464   -0.8308 H   0  0  0  0  0  0  0  0  0  0  0  0
    0.8882   -2.2822   -1.2427 C   0  0  0  0  0  0  0  0  0  0  0  0
    0.1165   -2.4098   -1.9945 H   0  0  0  0  0  0  0  0  0  0  0  0
   -0.6103    2.2484   -0.1138 C   0  0  0  0  0  0  0  0  0  0  0  0
   -0.6682    2.6633   -1.2655 O   0  0  0  0  0  0  0  0  0  0  0  0
   -1.0729    3.0552    0.9092 N   0  0  0  0  0  0  0  0  0  0  0  0
   -1.0523    2.6692    1.8497 H   0  0  0  0  0  0  0  0  0  0  0  0
   -1.5324    4.4245    0.7142 C   0  0  0  0  0  0  0  0  0  0  0  0
   -2.3975    4.4467    0.0434 H   0  0  0  0  0  0  0  0  0  0  0  0
   -1.8259    4.8643    1.6722 H   0  0  0  0  0  0  0  0  0  0  0  0
   -0.7348    5.0381    0.2824 H   0  0  0  0  0  0  0  0  0  0  0  0
  1  2  1  0  0  0  0
  2  3  1  0  0  0  0
  2  4  1  0  0  0  0
  2  5  1  0  0  0  0
  5  6  2  0  0  0  0
  5  7  1  0  0  0  0
  7  8  1  0  0  0  0
  7  9  1  0  0  0  0
  9 10  1  0  0  0  0
  9 11  1  0  0  0  0
  9 22  1  0  0  0  0
 11 12  1  0  0  0  0
 11 13  1  0  0  0  0
 11 14  1  0  0  0  0
 14 15  1  0  0  0  0
 14 20  2  0  0  0  0
 15 16  2  0  0  0  0
 16 17  1  0  0  0  0
 16 18  1  0  0  0  0
 18 19  1  0  0  0  0
 18 20  1  0  0  0  0
 20 21  1  0  0  0  0
 22 23  2  0  0  0  0
 22 24  1  0  0  0  0
 24 25  1  0  0  0  0
 24 26  1  0  0  0  0
 26 27  1  0  0  0  0
 26 28  1  0  0  0  0
 26 29  1  0  0  0  0
M  END
$$$$

  -OEChem-01062216083D

 29 29  0     1  0  0  0  0  0999 V2000
   -2.5966   -3.0951    1.2535 H   0  0  0  0  0  0  0  0  0  0  0  0
   -2.7202   -2.1270    0.7598 C   0  0  0  0  0  0  0  0  0  0  0  0
   -3.6076   -1.6354    1.1656 H   0  0  0  0  0  0  0  0  0  0  0  0
   -2.8600   -2.2945   -0.3107 H   0  0  0  0  0  0  0  0  0  0  0  0
   -1.4963   -1.2618    0.9941 C   0  0  0  0  0  0  0  0  0  0  0  0
   -0.6300   -1.6434    1.7603 O   0  0  0  0  0  0  0  0  0  0  0  0
   -1.4282   -0.0134    0.4101 N   0  0  0  0  0  0  0  0  0  0  0  0
   -2.2036    0.2187   -0.2055 H   0  0  0  0  0  0  0  0  0  0  0  0
   -0.2033    0.7875    0.2250 C   0  0  1  0  0  0  0  0  0  0  0  0
    0.3723    0.7860    1.1574 H   0  0  0  0  0  0  0  0  0  0  0  0
    0.7085    0.2532   -0.9063 C   0  0  0  0  0  0  0  0  0  0  0  0
    0.1413    0.2247   -1.8412 H   0  0  0  0  0  0  0  0  0  0  0  0
    1.5466    0.9413   -1.0510 H   0  0  0  0  0  0  0  0  0  0  0  0
    1.2699   -1.1093   -0.6449 C   0  0  0  0  0  0  0  0  0  0  0  0
    2.3033   -1.3328    0.2539 N   0  0  0  0  0  0  0  0  0  0  0  0
    2.5229   -2.6250    0.2425 C   0  0  0  0  0  0  0  0  0  0  0  0
    3.2615   -3.1323    0.8563 H   0  0  0  0  0  0  0  0  0  0  0  0
    1.6907   -3.2421   -0.6741 N   0  0  0  0  0  0  0  0  0  0  0  0
    1.6623   -4.2428   -0.8573 H   0  0  0  0  0  0  0  0  0  0  0  0
    0.8947   -2.2757   -1.2523 C   0  0  0  0  0  0  0  0  0  0  0  0
    0.1251   -2.3971   -2.0073 H   0  0  0  0  0  0  0  0  0  0  0  0
   -0.5956    2.2430   -0.1018 C   0  0  0  0  0  0  0  0  0  0  0  0
   -0.9113    2.5719   -1.2397 O   0  0  0  0  0  0  0  0  0  0  0  0
   -0.7623    3.1495    0.9286 N   0  0  0  0  0  0  0  0  0  0  0  0
   -0.5463    2.8298    1.8694 H   0  0  0  0  0  0  0  0  0  0  0  0
   -1.1999    4.5259    0.7314 C   0  0  0  0  0  0  0  0  0  0  0  0
   -2.1937    4.5515    0.2726 H   0  0  0  0  0  0  0  0  0  0  0  0
   -1.2495    5.0474    1.6922 H   0  0  0  0  0  0  0  0  0  0  0  0
   -0.4981    5.0615    0.0835 H   0  0  0  0  0  0  0  0  0  0  0  0
  1  2  1  0  0  0  0
  2  3  1  0  0  0  0
  2  4  1  0  0  0  0
  2  5  1  0  0  0  0
  5  6  2  0  0  0  0
  5  7  1  0  0  0  0
  7  8  1  0  0  0  0
  7  9  1  0  0  0  0
  9 10  1  0  0  0  0
  9 11  1  0  0  0  0
  9 22  1  0  0  0  0
 11 12  1  0  0  0  0
 11 13  1  0  0  0  0
 11 14  1  0  0  0  0
 14 15  1  0  0  0  0
 14 20  2  0  0  0  0
 15 16  2  0  0  0  0
 16 17  1  0  0  0  0
 16 18  1  0  0  0  0
 18 19  1  0  0  0  0
 18 20  1  0  0  0  0
 20 21  1  0  0  0  0
 22 23  2  0  0  0  0
 22 24  1  0  0  0  0
 24 25  1  0  0  0  0
 24 26  1  0  0  0  0
 26 27  1  0  0  0  0
 26 28  1  0  0  0  0
 26 29  1  0  0  0  0
M  END
$$$$

  -OEChem-01062216083D

 29 29  0     1  0  0  0  0  0999 V2000
   -2.6440   -3.0628    1.2834 H   0  0  0  0  0  0  0  0  0  0  0  0
   -2.7438   -2.1016    0.7712 C   0  0  0  0  0  0  0  0  0  0  0  0
   -3.6213   -1.5821    1.1638 H   0  0  0  0  0  0  0  0  0  0  0  0
   -2.8840   -2.2855   -0.2967 H   0  0  0  0  0  0  0  0  0  0  0  0
   -1.5010   -1.2603    0.9939 C   0  0  0  0  0  0  0  0  0  0  0  0
   -0.6320   -1.6614    1.7473 O   0  0  0  0  0  0  0  0  0  0  0  0
   -1.4155   -0.0138    0.4089 N   0  0  0  0  0  0  0  0  0  0  0  0
   -2.1945    0.2422   -0.1934 H   0  0  0  0  0  0  0  0  0  0  0  0
   -0.1872    0.7825    0.2337 C   0  0  1  0  0  0  0  0  0  0  0  0
    0.3820    0.7756    1.1699 H   0  0  0  0  0  0  0  0  0  0  0  0
    0.7262    0.2567   -0.8983 C   0  0  0  0  0  0  0  0  0  0  0  0
    0.1612    0.2387   -1.8351 H   0  0  0  0  0  0  0  0  0  0  0  0
    1.5676    0.9426   -1.0345 H   0  0  0  0  0  0  0  0  0  0  0  0
    1.2808   -1.1101   -0.6453 C   0  0  0  0  0  0  0  0  0  0  0  0
    2.3093   -1.3422    0.2570 N   0  0  0  0  0  0  0  0  0  0  0  0
    2.5246   -2.6349    0.2379 C   0  0  0  0  0  0  0  0  0  0  0  0
    3.2582   -3.1486    0.8523 H   0  0  0  0  0  0  0  0  0  0  0  0
    1.6957   -3.2432   -0.6875 N   0  0  0  0  0  0  0  0  0  0  0  0
    1.6647   -4.2424   -0.8774 H   0  0  0  0  0  0  0  0  0  0  0  0
    0.9052   -2.2708   -1.2630 C   0  0  0  0  0  0  0  0  0  0  0  0
    0.1384   -2.3851   -2.0223 H   0  0  0  0  0  0  0  0  0  0  0  0
   -0.5699    2.2369   -0.1007 C   0  0  0  0  0  0  0  0  0  0  0  0
   -1.1276    2.4998   -1.1605 O   0  0  0  0  0  0  0  0  0  0  0  0
   -0.4452    3.2220    0.8611 N   0  0  0  0  0  0  0  0  0  0  0  0
   -0.0400    2.9542    1.7543 H   0  0  0  0  0  0  0  0  0  0  0  0
   -0.8861    4.5976    0.6679 C   0  0  0  0  0  0  0  0  0  0  0  0
   -1.9655    4.6323    0.4876 H   0  0  0  0  0  0  0  0  0  0  0  0
   -0.6649    5.1935    1.5585 H   0  0  0  0  0  0  0  0  0  0  0  0
   -0.3707    5.0490   -0.1864 H   0  0  0  0  0  0  0  0  0  0  0  0
  1  2  1  0  0  0  0
  2  3  1  0  0  0  0
  2  4  1  0  0  0  0
  2  5  1  0  0  0  0
  5  6  2  0  0  0  0
  5  7  1  0  0  0  0
  7  8  1  0  0  0  0
  7  9  1  0  0  0  0
  9 10  1  0  0  0  0
  9 11  1  0  0  0  0
  9 22  1  0  0  0  0
 11 12  1  0  0  0  0
 11 13  1  0  0  0  0
 11 14  1  0  0  0  0
 14 15  1  0  0  0  0
 14 20  2  0  0  0  0
 15 16  2  0  0  0  0
 16 17  1  0  0  0  0
 16 18  1  0  0  0  0
 18 19  1  0  0  0  0
 18 20  1  0  0  0  0
 20 21  1  0  0  0  0
 22 23  2  0  0  0  0
 22 24  1  0  0  0  0
 24 25  1  0  0  0  0
 24 26  1  0  0  0  0
 26 27  1  0  0  0  0
 26 28  1  0  0  0  0
 26 29  1  0  0  0  0
M  END
$$$$

  -OEChem-01062216083D

 29 29  0     1  0  0  0  0  0999 V2000
   -2.6739   -3.0538    1.3032 H   0  0  0  0  0  0  0  0  0  0  0  0
   -2.7691   -2.0894    0.7961 C   0  0  0  0  0  0  0  0  0  0  0  0
   -3.6280   -1.5566    1.2112 H   0  0  0  0  0  0  0  0  0  0  0  0
   -2.9376   -2.2673   -0.2686 H   0  0  0  0  0  0  0  0  0  0  0  0
   -1.5072   -1.2701    0.9912 C   0  0  0  0  0  0  0  0  0  0  0  0
   -0.6301   -1.6878    1.7262 O   0  0  0  0  0  0  0  0  0  0  0  0
   -1.4113   -0.0254    0.4037 N   0  0  0  0  0  0  0  0  0  0  0  0
   -2.1985    0.2553   -0.1775 H   0  0  0  0  0  0  0  0  0  0  0  0
   -0.1842    0.7753    0.2436 C   0  0  1  0  0  0  0  0  0  0  0  0
    0.3742    0.7686    1.1862 H   0  0  0  0  0  0  0  0  0  0  0  0
    0.7376    0.2640   -0.8867 C   0  0  0  0  0  0  0  0  0  0  0  0
    0.1778    0.2556   -1.8269 H   0  0  0  0  0  0  0  0  0  0  0  0
    1.5790    0.9526   -1.0095 H   0  0  0  0  0  0  0  0  0  0  0  0
    1.2939   -1.1033   -0.6437 C   0  0  0  0  0  0  0  0  0  0  0  0
    2.3168   -1.3452    0.2623 N   0  0  0  0  0  0  0  0  0  0  0  0
    2.5293   -2.6385    0.2318 C   0  0  0  0  0  0  0  0  0  0  0  0
    3.2571   -3.1603    0.8465 H   0  0  0  0  0  0  0  0  0  0  0  0
    1.7060   -3.2362   -0.7056 N   0  0  0  0  0  0  0  0  0  0  0  0
    1.6725   -4.2337   -0.9043 H   0  0  0  0  0  0  0  0  0  0  0  0
    0.9213   -2.2566   -1.2763 C   0  0  0  0  0  0  0  0  0  0  0  0
    0.1584   -2.3619   -2.0408 H   0  0  0  0  0  0  0  0  0  0  0  0
   -0.5651    2.2268   -0.1027 C   0  0  0  0  0  0  0  0  0  0  0  0
   -1.3099    2.4517   -1.0511 O   0  0  0  0  0  0  0  0  0  0  0  0
   -0.1798    3.2660    0.7235 N   0  0  0  0  0  0  0  0  0  0  0  0
    0.3955    3.0355    1.5296 H   0  0  0  0  0  0  0  0  0  0  0  0
   -0.5737    4.6525    0.5087 C   0  0  0  0  0  0  0  0  0  0  0  0
   -1.6635    4.7513    0.5468 H   0  0  0  0  0  0  0  0  0  0  0  0
   -0.1412    5.2924    1.2837 H   0  0  0  0  0  0  0  0  0  0  0  0
   -0.2209    5.0045   -0.4664 H   0  0  0  0  0  0  0  0  0  0  0  0
  1  2  1  0  0  0  0
  2  3  1  0  0  0  0
  2  4  1  0  0  0  0
  2  5  1  0  0  0  0
  5  6  2  0  0  0  0
  5  7  1  0  0  0  0
  7  8  1  0  0  0  0
  7  9  1  0  0  0  0
  9 10  1  0  0  0  0
  9 11  1  0  0  0  0
  9 22  1  0  0  0  0
 11 12  1  0  0  0  0
 11 13  1  0  0  0  0
 11 14  1  0  0  0  0
 14 15  1  0  0  0  0
 14 20  2  0  0  0  0
 15 16  2  0  0  0  0
 16 17  1  0  0  0  0
 16 18  1  0  0  0  0
 18 19  1  0  0  0  0
 18 20  1  0  0  0  0
 20 21  1  0  0  0  0
 22 23  2  0  0  0  0
 22 24  1  0  0  0  0
 24 25  1  0  0  0  0
 24 26  1  0  0  0  0
 26 27  1  0  0  0  0
 26 28  1  0  0  0  0
 26 29  1  0  0  0  0
M  END
$$$$

  -OEChem-01062216083D

 29 29  0     1  0  0  0  0  0999 V2000
   -2.7061   -3.0495    1.3158 H   0  0  0  0  0  0  0  0  0  0  0  0
   -2.7957   -2.0836    0.8109 C   0  0  0  0  0  0  0  0  0  0  0  0
   -3.6372   -1.5369    1.2433 H   0  0  0  0  0  0  0  0  0  0  0  0
   -2.9891   -2.2583   -0.2501 H   0  0  0  0  0  0  0  0  0  0  0  0
   -1.5168   -1.2851    0.9803 C   0  0  0  0  0  0  0  0  0  0  0  0
   -0.6285   -1.7234    1.6893 O   0  0  0  0  0  0  0  0  0  0  0  0
   -1.4157   -0.0398    0.3955 N   0  0  0  0  0  0  0  0  0  0  0  0
   -2.2205    0.2714   -0.1458 H   0  0  0  0  0  0  0  0  0  0  0  0
   -0.1938    0.7706    0.2418 C   0  0  1  0  0  0  0  0  0  0  0  0
    0.3588    0.7658    1.1879 H   0  0  0  0  0  0  0  0  0  0  0  0
    0.7337    0.2701   -0.8876 C   0  0  0  0  0  0  0  0  0  0  0  0
    0.1743    0.2609   -1.8279 H   0  0  0  0  0  0  0  0  0  0  0  0
    1.5706    0.9646   -1.0082 H   0  0  0  0  0  0  0  0  0  0  0  0
    1.3001   -1.0936   -0.6493 C   0  0  0  0  0  0  0  0  0  0  0  0
    2.3235   -1.3255    0.2588 N   0  0  0  0  0  0  0  0  0  0  0  0
    2.5446   -2.6174    0.2320 C   0  0  0  0  0  0  0  0  0  0  0  0
    3.2744   -3.1325    0.8500 H   0  0  0  0  0  0  0  0  0  0  0  0
    1.7276   -3.2229   -0.7059 N   0  0  0  0  0  0  0  0  0  0  0  0
    1.6955   -4.2222   -0.8956 H   0  0  0  0  0  0  0  0  0  0  0  0
    0.9366   -2.2505   -1.2804 C   0  0  0  0  0  0  0  0  0  0  0  0
    0.1726   -2.3636   -2.0426 H   0  0  0  0  0  0  0  0  0  0  0  0
   -0.5726    2.2218   -0.1074 C   0  0  0  0  0  0  0  0  0  0  0  0
   -1.4769    2.4402   -0.9074 O   0  0  0  0  0  0  0  0  0  0  0  0
    0.0504    3.2789    0.5293 N   0  0  0  0  0  0  0  0  0  0  0  0
    0.7728    3.0569    1.2098 H   0  0  0  0  0  0  0  0  0  0  0  0
   -0.2846    4.6756    0.2829 C   0  0  0  0  0  0  0  0  0  0  0  0
   -1.3296    4.8711    0.5451 H   0  0  0  0  0  0  0  0  0  0  0  0
    0.3518    5.3289    0.8876 H   0  0  0  0  0  0  0  0  0  0  0  0
   -0.1326    4.9259   -0.7723 H   0  0  0  0  0  0  0  0  0  0  0  0
  1  2  1  0  0  0  0
  2  3  1  0  0  0  0
  2  4  1  0  0  0  0
  2  5  1  0  0  0  0
  5  6  2  0  0  0  0
  5  7  1  0  0  0  0
  7  8  1  0  0  0  0
  7  9  1  0  0  0  0
  9 10  1  0  0  0  0
  9 11  1  0  0  0  0
  9 22  1  0  0  0  0
 11 12  1  0  0  0  0
 11 13  1  0  0  0  0
 11 14  1  0  0  0  0
 14 15  1  0  0  0  0
 14 20  2  0  0  0  0
 15 16  2  0  0  0  0
 16 17  1  0  0  0  0
 16 18  1  0  0  0  0
 18 19  1  0  0  0  0
 18 20  1  0  0  0  0
 20 21  1  0  0  0  0
 22 23  2  0  0  0  0
 22 24  1  0  0  0  0
 24 25  1  0  0  0  0
 24 26  1  0  0  0  0
 26 27  1  0  0  0  0
 26 28  1  0  0  0  0
 26 29  1  0  0  0  0
M  END
$$$$

  -OEChem-01062216083D

 29 29  0     1  0  0  0  0  0999 V2000
   -2.7420   -3.0308    1.3372 H   0  0  0  0  0  0  0  0  0  0  0  0
   -2.8209   -2.0656    0.8289 C   0  0  0  0  0  0  0  0  0  0  0  0
   -3.6418   -1.4987    1.2747 H   0  0  0  0  0  0  0  0  0  0  0  0
   -3.0381   -2.2406   -0.2274 H   0  0  0  0  0  0  0  0  0  0  0  0
   -1.5227   -1.2934    0.9693 C   0  0  0  0  0  0  0  0  0  0  0  0
   -0.6265   -1.7512    1.6556 O   0  0  0  0  0  0  0  0  0  0  0  0
   -1.4138   -0.0491    0.3841 N   0  0  0  0  0  0  0  0  0  0  0  0
   -2.2345    0.2930   -0.1135 H   0  0  0  0  0  0  0  0  0  0  0  0
   -0.1963    0.7691    0.2394 C   0  0  1  0  0  0  0  0  0  0  0  0
    0.3494    0.7691    1.1894 H   0  0  0  0  0  0  0  0  0  0  0  0
    0.7366    0.2710   -0.8873 C   0  0  0  0  0  0  0  0  0  0  0  0
    0.1788    0.2608   -1.8286 H   0  0  0  0  0  0  0  0  0  0  0  0
    1.5723    0.9669   -1.0065 H   0  0  0  0  0  0  0  0  0  0  0  0
    1.3082   -1.0907   -0.6497 C   0  0  0  0  0  0  0  0  0  0  0  0
    2.3307   -1.3183    0.2604 N   0  0  0  0  0  0  0  0  0  0  0  0
    2.5594   -2.6090    0.2310 C   0  0  0  0  0  0  0  0  0  0  0  0
    3.2899   -3.1217    0.8500 H   0  0  0  0  0  0  0  0  0  0  0  0
    1.7500   -3.2171   -0.7118 N   0  0  0  0  0  0  0  0  0  0  0  0
    1.7267   -4.2157   -0.9067 H   0  0  0  0  0  0  0  0  0  0  0  0
    0.9539   -2.2482   -1.2849 C   0  0  0  0  0  0  0  0  0  0  0  0
    0.1922   -2.3646   -2.0487 H   0  0  0  0  0  0  0  0  0  0  0  0
   -0.5766    2.2192   -0.1182 C   0  0  0  0  0  0  0  0  0  0  0  0
   -1.6070    2.4471   -0.7450 O   0  0  0  0  0  0  0  0  0  0  0  0
    0.2303    3.2691    0.2794 N   0  0  0  0  0  0  0  0  0  0  0  0
    1.0643    3.0426    0.8154 H   0  0  0  0  0  0  0  0  0  0  0  0
   -0.0728    4.6669   -0.0002 C   0  0  0  0  0  0  0  0  0  0  0  0
   -1.0171    4.9559    0.4726 H   0  0  0  0  0  0  0  0  0  0  0  0
    0.7214    5.3105    0.3903 H   0  0  0  0  0  0  0  0  0  0  0  0
   -0.1527    4.8337   -1.0795 H   0  0  0  0  0  0  0  0  0  0  0  0
  1  2  1  0  0  0  0
  2  3  1  0  0  0  0
  2  4  1  0  0  0  0
  2  5  1  0  0  0  0
  5  6  2  0  0  0  0
  5  7  1  0  0  0  0
  7  8  1  0  0  0  0
  7  9  1  0  0  0  0
  9 10  1  0  0  0  0
  9 11  1  0  0  0  0
  9 22  1  0  0  0  0
 11 12  1  0  0  0  0
 11 13  1  0  0  0  0
 11 14  1  0  0  0  0
 14 15  1  0  0  0  0
 14 20  2  0  0  0  0
 15 16  2  0  0  0  0
 16 17  1  0  0  0  0
 16 18  1  0  0  0  0
 18 19  1  0  0  0  0
 18 20  1  0  0  0  0
 20 21  1  0  0  0  0
 22 23  2  0  0  0  0
 22 24  1  0  0  0  0
 24 25  1  0  0  0  0
 24 26  1  0  0  0  0
 26 27  1  0  0  0  0
 26 28  1  0  0  0  0
 26 29  1  0  0  0  0
M  END
$$$$

  -OEChem-01062216083D

 29 29  0     1  0  0  0  0  0999 V2000
   -2.7697   -3.0207    1.3392 H   0  0  0  0  0  0  0  0  0  0  0  0
   -2.8451   -2.0466    0.8478 C   0  0  0  0  0  0  0  0  0  0  0  0
   -3.6359   -1.4678    1.3310 H   0  0  0  0  0  0  0  0  0  0  0  0
   -3.1048   -2.2013   -0.2020 H   0  0  0  0  0  0  0  0  0  0  0  0
   -1.5256   -1.3051    0.9517 C   0  0  0  0  0  0  0  0  0  0  0  0
   -0.6206   -1.7875    1.6088 O   0  0  0  0  0  0  0  0  0  0  0  0
   -1.4093   -0.0592    0.3713 N   0  0  0  0  0  0  0  0  0  0  0  0
   -2.2485    0.3203   -0.0655 H   0  0  0  0  0  0  0  0  0  0  0  0
   -0.1950    0.7671    0.2368 C   0  0  1  0  0  0  0  0  0  0  0  0
    0.3463    0.7695    1.1893 H   0  0  0  0  0  0  0  0  0  0  0  0
    0.7430    0.2711   -0.8892 C   0  0  0  0  0  0  0  0  0  0  0  0
    0.1876    0.2617   -1.8317 H   0  0  0  0  0  0  0  0  0  0  0  0
    1.5797    0.9656   -1.0068 H   0  0  0  0  0  0  0  0  0  0  0  0
    1.3188   -1.0890   -0.6551 C   0  0  0  0  0  0  0  0  0  0  0  0
    2.3410   -1.3120    0.2564 N   0  0  0  0  0  0  0  0  0  0  0  0
    2.5747   -2.6018    0.2269 C   0  0  0  0  0  0  0  0  0  0  0  0
    3.3058   -3.1118    0.8475 H   0  0  0  0  0  0  0  0  0  0  0  0
    1.7696   -3.2128   -0.7178 N   0  0  0  0  0  0  0  0  0  0  0  0
    1.7462   -4.2121   -0.9084 H   0  0  0  0  0  0  0  0  0  0  0  0
    0.9705   -2.2472   -1.2922 C   0  0  0  0  0  0  0  0  0  0  0  0
    0.2092   -2.3661   -2.0560 H   0  0  0  0  0  0  0  0  0  0  0  0
   -0.5802    2.2181   -0.1220 C   0  0  0  0  0  0  0  0  0  0  0  0
   -1.7021    2.4703   -0.5523 O   0  0  0  0  0  0  0  0  0  0  0  0
    0.3454    3.2383    0.0023 N   0  0  0  0  0  0  0  0  0  0  0  0
    1.2596    2.9984    0.3779 H   0  0  0  0  0  0  0  0  0  0  0  0
    0.0596    4.6287   -0.3290 C   0  0  0  0  0  0  0  0  0  0  0  0
   -0.7576    5.0104    0.2921 H   0  0  0  0  0  0  0  0  0  0  0  0
    0.9450    5.2477   -0.1547 H   0  0  0  0  0  0  0  0  0  0  0  0
   -0.2246    4.7213   -1.3826 H   0  0  0  0  0  0  0  0  0  0  0  0
  1  2  1  0  0  0  0
  2  3  1  0  0  0  0
  2  4  1  0  0  0  0
  2  5  1  0  0  0  0
  5  6  2  0  0  0  0
  5  7  1  0  0  0  0
  7  8  1  0  0  0  0
  7  9  1  0  0  0  0
  9 10  1  0  0  0  0
  9 11  1  0  0  0  0
  9 22  1  0  0  0  0
 11 12  1  0  0  0  0
 11 13  1  0  0  0  0
 11 14  1  0  0  0  0
 14 15  1  0  0  0  0
 14 20  2  0  0  0  0
 15 16  2  0  0  0  0
 16 17  1  0  0  0  0
 16 18  1  0  0  0  0
 18 19  1  0  0  0  0
 18 20  1  0  0  0  0
 20 21  1  0  0  0  0
 22 23  2  0  0  0  0
 22 24  1  0  0  0  0
 24 25  1  0  0  0  0
 24 26  1  0  0  0  0
 26 27  1  0  0  0  0
 26 28  1  0  0  0  0
 26 29  1  0  0  0  0
M  END
$$$$

  -OEChem-01062216083D

 29 29  0     1  0  0  0  0  0999 V2000
   -2.6894   -3.0197    1.3624 H   0  0  0  0  0  0  0  0  0  0  0  0
   -2.7986   -2.0345    0.9005 C   0  0  0  0  0  0  0  0  0  0  0  0
   -3.4806   -1.4346    1.5078 H   0  0  0  0  0  0  0  0  0  0  0  0
   -3.2231   -2.1588   -0.0984 H   0  0  0  0  0  0  0  0  0  0  0  0
   -1.4492   -1.3474    0.8084 C   0  0  0  0  0  0  0  0  0  0  0  0
   -0.4671   -1.8939    1.2791 O   0  0  0  0  0  0  0  0  0  0  0  0
   -1.3750   -0.0891    0.2474 N   0  0  0  0  0  0  0  0  0  0  0  0
   -2.2614    0.3758    0.0557 H   0  0  0  0  0  0  0  0  0  0  0  0
   -0.1727    0.7577    0.1474 C   0  0  1  0  0  0  0  0  0  0  0  0
    0.4956    0.5557    0.9921 H   0  0  0  0  0  0  0  0  0  0  0  0
    0.5737    0.4845   -1.1781 C   0  0  0  0  0  0  0  0  0  0  0  0
   -0.1090    0.6633   -2.0140 H   0  0  0  0  0  0  0  0  0  0  0  0
    1.4175    1.1712   -1.2859 H   0  0  0  0  0  0  0  0  0  0  0  0
    1.1115   -0.9086   -1.2719 C   0  0  0  0  0  0  0  0  0  0  0  0
    2.2354   -1.3183   -0.5692 N   0  0  0  0  0  0  0  0  0  0  0  0
    2.3912   -2.5901   -0.8465 C   0  0  0  0  0  0  0  0  0  0  0  0
    3.1719   -3.2217   -0.4326 H   0  0  0  0  0  0  0  0  0  0  0  0
    1.4298   -3.0036   -1.7512 N   0  0  0  0  0  0  0  0  0  0  0  0
    1.3255   -3.9537   -2.1008 H   0  0  0  0  0  0  0  0  0  0  0  0
    0.6126   -1.9291   -2.0321 C   0  0  0  0  0  0  0  0  0  0  0  0
   -0.2562   -1.8919   -2.6810 H   0  0  0  0  0  0  0  0  0  0  0  0
   -0.5606    2.2531    0.1855 C   0  0  0  0  0  0  0  0  0  0  0  0
   -1.7432    2.5821    0.2104 O   0  0  0  0  0  0  0  0  0  0  0  0
    0.4094    3.2368    0.1081 N   0  0  0  0  0  0  0  0  0  0  0  0
    1.3809    2.9368    0.1235 H   0  0  0  0  0  0  0  0  0  0  0  0
    0.1116    4.6636    0.1285 C   0  0  0  0  0  0  0  0  0  0  0  0
   -0.4007    4.9346    1.0576 H   0  0  0  0  0  0  0  0  0  0  0  0
    1.0372    5.2434    0.0616 H   0  0  0  0  0  0  0  0  0  0  0  0
   -0.5271    4.9343   -0.7188 H   0  0  0  0  0  0  0  0  0  0  0  0
  1  2  1  0  0  0  0
  2  3  1  0  0  0  0
  2  4  1  0  0  0  0
  2  5  1  0  0  0  0
  5  6  2  0  0  0  0
  5  7  1  0  0  0  0
  7  8  1  0  0  0  0
  7  9  1  0  0  0  0
  9 10  1  0  0  0  0
  9 11  1  0  0  0  0
  9 22  1  0  0  0  0
 11 12  1  0  0  0  0
 11 13  1  0  0  0  0
 11 14  1  0  0  0  0
 14 15  1  0  0  0  0
 14 20  2  0  0  0  0
 15 16  2  0  0  0  0
 16 17  1  0  0  0  0
 16 18  1  0  0  0  0
 18 19  1  0  0  0  0
 18 20  1  0  0  0  0
 20 21  1  0  0  0  0
 22 23  2  0  0  0  0
 22 24  1  0  0  0  0
 24 25  1  0  0  0  0
 24 26  1  0  0  0  0
 26 27  1  0  0  0  0
 26 28  1  0  0  0  0
 26 29  1  0  0  0  0
M  END
$$$$

  -OEChem-01062216083D

 29 29  0     1  0  0  0  0  0999 V2000
   -2.6969   -2.9991    1.3723 H   0  0  0  0  0  0  0  0  0  0  0  0
   -2.8034   -2.0107    0.9166 C   0  0  0  0  0  0  0  0  0  0  0  0
   -3.4601   -1.4029    1.5439 H   0  0  0  0  0  0  0  0  0  0  0  0
   -3.2560   -2.1248   -0.0712 H   0  0  0  0  0  0  0  0  0  0  0  0
   -1.4464   -1.3441    0.7900 C   0  0  0  0  0  0  0  0  0  0  0  0
   -0.4621   -1.9080    1.2342 O   0  0  0  0  0  0  0  0  0  0  0  0
   -1.3693   -0.0847    0.2310 N   0  0  0  0  0  0  0  0  0  0  0  0
   -2.2559    0.4011    0.1016 H   0  0  0  0  0  0  0  0  0  0  0  0
   -0.1628    0.7581    0.1352 C   0  0  1  0  0  0  0  0  0  0  0  0
    0.5028    0.5576    0.9823 H   0  0  0  0  0  0  0  0  0  0  0  0
    0.5874    0.4712   -1.1885 C   0  0  0  0  0  0  0  0  0  0  0  0
   -0.0901    0.6516   -2.0284 H   0  0  0  0  0  0  0  0  0  0  0  0
    1.4393    1.1471   -1.2961 H   0  0  0  0  0  0  0  0  0  0  0  0
    1.1207   -0.9239   -1.2789 C   0  0  0  0  0  0  0  0  0  0  0  0
    2.2425   -1.3353   -0.5737 N   0  0  0  0  0  0  0  0  0  0  0  0
    2.3954   -2.6081   -0.8485 C   0  0  0  0  0  0  0  0  0  0  0  0
    3.1733   -3.2413   -0.4318 H   0  0  0  0  0  0  0  0  0  0  0  0
    1.4348   -3.0203   -1.7547 N   0  0  0  0  0  0  0  0  0  0  0  0
    1.3269   -3.9712   -2.1009 H   0  0  0  0  0  0  0  0  0  0  0  0
    0.6209   -1.9441   -2.0390 C   0  0  0  0  0  0  0  0  0  0  0  0
   -0.2471   -1.9065   -2.6887 H   0  0  0  0  0  0  0  0  0  0  0  0
   -0.5595    2.2545    0.1771 C   0  0  0  0  0  0  0  0  0  0  0  0
   -1.7168    2.5724    0.4357 O   0  0  0  0  0  0  0  0  0  0  0  0
    0.3304    3.2476   -0.1949 N   0  0  0  0  0  0  0  0  0  0  0  0
    1.2935    2.9707   -0.3655 H   0  0  0  0  0  0  0  0  0  0  0  0
   -0.0042    4.6665   -0.2011 C   0  0  0  0  0  0  0  0  0  0  0  0
   -0.3119    4.9923    0.7981 H   0  0  0  0  0  0  0  0  0  0  0  0
    0.8645    5.2583   -0.5056 H   0  0  0  0  0  0  0  0  0  0  0  0
   -0.8203    4.8644   -0.9039 H   0  0  0  0  0  0  0  0  0  0  0  0
  1  2  1  0  0  0  0
  2  3  1  0  0  0  0
  2  4  1  0  0  0  0
  2  5  1  0  0  0  0
  5  6  2  0  0  0  0
  5  7  1  0  0  0  0
  7  8  1  0  0  0  0
  7  9  1  0  0  0  0
  9 10  1  0  0  0  0
  9 11  1  0  0  0  0
  9 22  1  0  0  0  0
 11 12  1  0  0  0  0
 11 13  1  0  0  0  0
 11 14  1  0  0  0  0
 14 15  1  0  0  0  0
 14 20  2  0  0  0  0
 15 16  2  0  0  0  0
 16 17  1  0  0  0  0
 16 18  1  0  0  0  0
 18 19  1  0  0  0  0
 18 20  1  0  0  0  0
 20 21  1  0  0  0  0
 22 23  2  0  0  0  0
 22 24  1  0  0  0  0
 24 25  1  0  0  0  0
 24 26  1  0  0  0  0
 26 27  1  0  0  0  0
 26 28  1  0  0  0  0
 26 29  1  0  0  0  0
M  END
$$$$

  -OEChem-01062216083D

 29 29  0     1  0  0  0  0  0999 V2000
   -2.7098   -2.9756    1.3855 H   0  0  0  0  0  0  0  0  0  0  0  0
   -2.8118   -1.9854    0.9326 C   0  0  0  0  0  0  0  0  0  0  0  0
   -3.4435   -1.3676    1.5755 H   0  0  0  0  0  0  0  0  0  0  0  0
   -3.2900   -2.0924   -0.0439 H   0  0  0  0  0  0  0  0  0  0  0  0
   -1.4481   -1.3399    0.7734 C   0  0  0  0  0  0  0  0  0  0  0  0
   -0.4630   -1.9228    1.1903 O   0  0  0  0  0  0  0  0  0  0  0  0
   -1.3678   -0.0796    0.2163 N   0  0  0  0  0  0  0  0  0  0  0  0
   -2.2514    0.4217    0.1402 H   0  0  0  0  0  0  0  0  0  0  0  0
   -0.1563    0.7569    0.1184 C   0  0  1  0  0  0  0  0  0  0  0  0
    0.5068    0.5575    0.9679 H   0  0  0  0  0  0  0  0  0  0  0  0
    0.6011    0.4578   -1.1998 C   0  0  0  0  0  0  0  0  0  0  0  0
   -0.0693    0.6377   -2.0452 H   0  0  0  0  0  0  0  0  0  0  0  0
    1.4590    1.1271   -1.3021 H   0  0  0  0  0  0  0  0  0  0  0  0
    1.1320   -0.9389   -1.2835 C   0  0  0  0  0  0  0  0  0  0  0  0
    2.2497   -1.3512   -0.5725 N   0  0  0  0  0  0  0  0  0  0  0  0
    2.4016   -2.6247   -0.8442 C   0  0  0  0  0  0  0  0  0  0  0  0
    3.1757   -3.2592   -0.4224 H   0  0  0  0  0  0  0  0  0  0  0  0
    1.4457   -3.0361   -1.7555 N   0  0  0  0  0  0  0  0  0  0  0  0
    1.3380   -3.9872   -2.1009 H   0  0  0  0  0  0  0  0  0  0  0  0
    0.6346   -1.9593   -2.0451 C   0  0  0  0  0  0  0  0  0  0  0  0
   -0.2306   -1.9220   -2.6985 H   0  0  0  0  0  0  0  0  0  0  0  0
   -0.5586    2.2540    0.1661 C   0  0  0  0  0  0  0  0  0  0  0  0
   -1.6372    2.5719    0.6577 O   0  0  0  0  0  0  0  0  0  0  0  0
    0.1783    3.2366   -0.4748 N   0  0  0  0  0  0  0  0  0  0  0  0
    1.0826    2.9691   -0.8528 H   0  0  0  0  0  0  0  0  0  0  0  0
   -0.1991    4.6450   -0.4923 C   0  0  0  0  0  0  0  0  0  0  0  0
   -0.2797    5.0339    0.5282 H   0  0  0  0  0  0  0  0  0  0  0  0
    0.5548    5.2312   -1.0264 H   0  0  0  0  0  0  0  0  0  0  0  0
   -1.1614    4.7769   -0.9978 H   0  0  0  0  0  0  0  0  0  0  0  0
  1  2  1  0  0  0  0
  2  3  1  0  0  0  0
  2  4  1  0  0  0  0
  2  5  1  0  0  0  0
  5  6  2  0  0  0  0
  5  7  1  0  0  0  0
  7  8  1  0  0  0  0
  7  9  1  0  0  0  0
  9 10  1  0  0  0  0
  9 11  1  0  0  0  0
  9 22  1  0  0  0  0
 11 12  1  0  0  0  0
 11 13  1  0  0  0  0
 11 14  1  0  0  0  0
 14 15  1  0  0  0  0
 14 20  2  0  0  0  0
 15 16  2  0  0  0  0
 16 17  1  0  0  0  0
 16 18  1  0  0  0  0
 18 19  1  0  0  0  0
 18 20  1  0  0  0  0
 20 21  1  0  0  0  0
 22 23  2  0  0  0  0
 22 24  1  0  0  0  0
 24 25  1  0  0  0  0
 24 26  1  0  0  0  0
 26 27  1  0  0  0  0
 26 28  1  0  0  0  0
 26 29  1  0  0  0  0
M  END
$$$$

  -OEChem-01062216083D

 29 29  0     1  0  0  0  0  0999 V2000
   -2.7226   -2.9568    1.3989 H   0  0  0  0  0  0  0  0  0  0  0  0
   -2.8212   -1.9659    0.9469 C   0  0  0  0  0  0  0  0  0  0  0  0
   -3.4366   -1.3416    1.5994 H   0  0  0  0  0  0  0  0  0  0  0  0
   -3.3153   -2.0682   -0.0220 H   0  0  0  0  0  0  0  0  0  0  0  0
   -1.4536   -1.3344    0.7661 C   0  0  0  0  0  0  0  0  0  0  0  0
   -0.4679   -1.9306    1.1613 O   0  0  0  0  0  0  0  0  0  0  0  0
   -1.3718   -0.0738    0.2092 N   0  0  0  0  0  0  0  0  0  0  0  0
   -2.2534    0.4333    0.1600 H   0  0  0  0  0  0  0  0  0  0  0  0
   -0.1560    0.7557    0.1041 C   0  0  1  0  0  0  0  0  0  0  0  0
    0.5056    0.5567    0.9550 H   0  0  0  0  0  0  0  0  0  0  0  0
    0.6091    0.4491   -1.2083 C   0  0  0  0  0  0  0  0  0  0  0  0
   -0.0554    0.6247   -2.0594 H   0  0  0  0  0  0  0  0  0  0  0  0
    1.4678    1.1189   -1.3030 H   0  0  0  0  0  0  0  0  0  0  0  0
    1.1412   -0.9475   -1.2871 C   0  0  0  0  0  0  0  0  0  0  0  0
    2.2556   -1.3577   -0.5700 N   0  0  0  0  0  0  0  0  0  0  0  0
    2.4111   -2.6310   -0.8397 C   0  0  0  0  0  0  0  0  0  0  0  0
    3.1848   -3.2631   -0.4135 H   0  0  0  0  0  0  0  0  0  0  0  0
    1.4600   -3.0451   -1.7550 N   0  0  0  0  0  0  0  0  0  0  0  0
    1.3546   -3.9971   -2.0986 H   0  0  0  0  0  0  0  0  0  0  0  0
    0.6493   -1.9694   -2.0503 C   0  0  0  0  0  0  0  0  0  0  0  0
   -0.2124   -1.9345   -2.7086 H   0  0  0  0  0  0  0  0  0  0  0  0
   -0.5595    2.2523    0.1569 C   0  0  0  0  0  0  0  0  0  0  0  0
   -1.5034    2.5895    0.8632 O   0  0  0  0  0  0  0  0  0  0  0  0
   -0.0338    3.1970   -0.7101 N   0  0  0  0  0  0  0  0  0  0  0  0
    0.7499    2.9134   -1.2905 H   0  0  0  0  0  0  0  0  0  0  0  0
   -0.4520    4.5940   -0.7311 C   0  0  0  0  0  0  0  0  0  0  0  0
   -0.3082    5.0524    0.2531 H   0  0  0  0  0  0  0  0  0  0  0  0
    0.1388    5.1541   -1.4623 H   0  0  0  0  0  0  0  0  0  0  0  0
   -1.5087    4.6739   -1.0066 H   0  0  0  0  0  0  0  0  0  0  0  0
  1  2  1  0  0  0  0
  2  3  1  0  0  0  0
  2  4  1  0  0  0  0
  2  5  1  0  0  0  0
  5  6  2  0  0  0  0
  5  7  1  0  0  0  0
  7  8  1  0  0  0  0
  7  9  1  0  0  0  0
  9 10  1  0  0  0  0
  9 11  1  0  0  0  0
  9 22  1  0  0  0  0
 11 12  1  0  0  0  0
 11 13  1  0  0  0  0
 11 14  1  0  0  0  0
 14 15  1  0  0  0  0
 14 20  2  0  0  0  0
 15 16  2  0  0  0  0
 16 17  1  0  0  0  0
 16 18  1  0  0  0  0
 18 19  1  0  0  0  0
 18 20  1  0  0  0  0
 20 21  1  0  0  0  0
 22 23  2  0  0  0  0
 22 24  1  0  0  0  0
 24 25  1  0  0  0  0
 24 26  1  0  0  0  0
 26 27  1  0  0  0  0
 26 28  1  0  0  0  0
 26 29  1  0  0  0  0
M  END
$$$$

  -OEChem-01062216083D

 29 29  0     1  0  0  0  0  0999 V2000
   -2.7236   -2.9524    1.4095 H   0  0  0  0  0  0  0  0  0  0  0  0
   -2.8245   -1.9621    0.9566 C   0  0  0  0  0  0  0  0  0  0  0  0
   -3.4332   -1.3355    1.6132 H   0  0  0  0  0  0  0  0  0  0  0  0
   -3.3271   -2.0652   -0.0079 H   0  0  0  0  0  0  0  0  0  0  0  0
   -1.4576   -1.3331    0.7635 C   0  0  0  0  0  0  0  0  0  0  0  0
   -0.4697   -1.9327    1.1473 O   0  0  0  0  0  0  0  0  0  0  0  0
   -1.3801   -0.0725    0.2057 N   0  0  0  0  0  0  0  0  0  0  0  0
   -2.2640    0.4282    0.1542 H   0  0  0  0  0  0  0  0  0  0  0  0
   -0.1642    0.7561    0.0927 C   0  0  1  0  0  0  0  0  0  0  0  0
    0.4979    0.5594    0.9441 H   0  0  0  0  0  0  0  0  0  0  0  0
    0.6060    0.4479   -1.2158 C   0  0  0  0  0  0  0  0  0  0  0  0
   -0.0571    0.6128   -2.0699 H   0  0  0  0  0  0  0  0  0  0  0  0
    1.4584    1.1272   -1.3091 H   0  0  0  0  0  0  0  0  0  0  0  0
    1.1438   -0.9470   -1.2892 C   0  0  0  0  0  0  0  0  0  0  0  0
    2.2574   -1.3517   -0.5681 N   0  0  0  0  0  0  0  0  0  0  0  0
    2.4176   -2.6254   -0.8328 C   0  0  0  0  0  0  0  0  0  0  0  0
    3.1918   -3.2537   -0.4019 H   0  0  0  0  0  0  0  0  0  0  0  0
    1.4707   -3.0447   -1.7502 N   0  0  0  0  0  0  0  0  0  0  0  0
    1.3693   -3.9981   -2.0911 H   0  0  0  0  0  0  0  0  0  0  0  0
    0.6572   -1.9725   -2.0511 C   0  0  0  0  0  0  0  0  0  0  0  0
   -0.2026   -1.9422   -2.7121 H   0  0  0  0  0  0  0  0  0  0  0  0
   -0.5647    2.2517    0.1478 C   0  0  0  0  0  0  0  0  0  0  0  0
   -1.3236    2.6282    1.0325 O   0  0  0  0  0  0  0  0  0  0  0  0
   -0.2933    3.1335   -0.8867 N   0  0  0  0  0  0  0  0  0  0  0  0
    0.3281    2.8128   -1.6231 H   0  0  0  0  0  0  0  0  0  0  0  0
   -0.7405    4.5216   -0.9011 C   0  0  0  0  0  0  0  0  0  0  0  0
   -0.3685    5.0535   -0.0191 H   0  0  0  0  0  0  0  0  0  0  0  0
   -0.3652    5.0300   -1.7944 H   0  0  0  0  0  0  0  0  0  0  0  0
   -1.8343    4.5724   -0.9086 H   0  0  0  0  0  0  0  0  0  0  0  0
  1  2  1  0  0  0  0
  2  3  1  0  0  0  0
  2  4  1  0  0  0  0
  2  5  1  0  0  0  0
  5  6  2  0  0  0  0
  5  7  1  0  0  0  0
  7  8  1  0  0  0  0
  7  9  1  0  0  0  0
  9 10  1  0  0  0  0
  9 11  1  0  0  0  0
  9 22  1  0  0  0  0
 11 12  1  0  0  0  0
 11 13  1  0  0  0  0
 11 14  1  0  0  0  0
 14 15  1  0  0  0  0
 14 20  2  0  0  0  0
 15 16  2  0  0  0  0
 16 17  1  0  0  0  0
 16 18  1  0  0  0  0
 18 19  1  0  0  0  0
 18 20  1  0  0  0  0
 20 21  1  0  0  0  0
 22 23  2  0  0  0  0
 22 24  1  0  0  0  0
 24 25  1  0  0  0  0
 24 26  1  0  0  0  0
 26 27  1  0  0  0  0
 26 28  1  0  0  0  0
 26 29  1  0  0  0  0
M  END
$$$$

  -OEChem-01062216083D

 29 29  0     1  0  0  0  0  0999 V2000
   -2.7114   -2.9575    1.4262 H   0  0  0  0  0  0  0  0  0  0  0  0
   -2.8209   -1.9736    0.9612 C   0  0  0  0  0  0  0  0  0  0  0  0
   -3.4406   -1.3473    1.6076 H   0  0  0  0  0  0  0  0  0  0  0  0
   -3.3169   -2.0937   -0.0047 H   0  0  0  0  0  0  0  0  0  0  0  0
   -1.4589   -1.3323    0.7697 C   0  0  0  0  0  0  0  0  0  0  0  0
   -0.4677   -1.9256    1.1541 O   0  0  0  0  0  0  0  0  0  0  0  0
   -1.3882   -0.0716    0.2094 N   0  0  0  0  0  0  0  0  0  0  0  0
   -2.2772    0.4151    0.1326 H   0  0  0  0  0  0  0  0  0  0  0  0
   -0.1737    0.7590    0.0885 C   0  0  1  0  0  0  0  0  0  0  0  0
    0.4906    0.5632    0.9384 H   0  0  0  0  0  0  0  0  0  0  0  0
    0.5986    0.4533   -1.2188 C   0  0  0  0  0  0  0  0  0  0  0  0
   -0.0639    0.6081   -2.0748 H   0  0  0  0  0  0  0  0  0  0  0  0
    1.4436    1.1421   -1.3124 H   0  0  0  0  0  0  0  0  0  0  0  0
    1.1425   -0.9397   -1.2886 C   0  0  0  0  0  0  0  0  0  0  0  0
    2.2564   -1.3426   -0.5674 N   0  0  0  0  0  0  0  0  0  0  0  0
    2.4173   -2.6168   -0.8297 C   0  0  0  0  0  0  0  0  0  0  0  0
    3.1909   -3.2445   -0.3967 H   0  0  0  0  0  0  0  0  0  0  0  0
    1.4711   -3.0384   -1.7467 N   0  0  0  0  0  0  0  0  0  0  0  0
    1.3692   -3.9928   -2.0846 H   0  0  0  0  0  0  0  0  0  0  0  0
    0.6571   -1.9672   -2.0488 C   0  0  0  0  0  0  0  0  0  0  0  0
   -0.2031   -1.9390   -2.7092 H   0  0  0  0  0  0  0  0  0  0  0  0
   -0.5678    2.2543    0.1435 C   0  0  0  0  0  0  0  0  0  0  0  0
   -1.0895    2.6939    1.1592 O   0  0  0  0  0  0  0  0  0  0  0  0
   -0.5803    3.0549   -0.9881 N   0  0  0  0  0  0  0  0  0  0  0  0
   -0.1615    2.6780   -1.8327 H   0  0  0  0  0  0  0  0  0  0  0  0
   -1.0554    4.4338   -0.9945 C   0  0  0  0  0  0  0  0  0  0  0  0
   -0.5012    5.0343   -0.2655 H   0  0  0  0  0  0  0  0  0  0  0  0
   -0.9149    4.8772   -1.9849 H   0  0  0  0  0  0  0  0  0  0  0  0
   -2.1212    4.4734   -0.7464 H   0  0  0  0  0  0  0  0  0  0  0  0
  1  2  1  0  0  0  0
  2  3  1  0  0  0  0
  2  4  1  0  0  0  0
  2  5  1  0  0  0  0
  5  6  2  0  0  0  0
  5  7  1  0  0  0  0
  7  8  1  0  0  0  0
  7  9  1  0  0  0  0
  9 10  1  0  0  0  0
  9 11  1  0  0  0  0
  9 22  1  0  0  0  0
 11 12  1  0  0  0  0
 11 13  1  0  0  0  0
 11 14  1  0  0  0  0
 14 15  1  0  0  0  0
 14 20  2  0  0  0  0
 15 16  2  0  0  0  0
 16 17  1  0  0  0  0
 16 18  1  0  0  0  0
 18 19  1  0  0  0  0
 18 20  1  0  0  0  0
 20 21  1  0  0  0  0
 22 23  2  0  0  0  0
 22 24  1  0  0  0  0
 24 25  1  0  0  0  0
 24 26  1  0  0  0  0
 26 27  1  0  0  0  0
 26 28  1  0  0  0  0
 26 29  1  0  0  0  0
M  END
$$$$

  -OEChem-01062216083D

 29 29  0     1  0  0  0  0  0999 V2000
   -2.6979   -2.9837    1.4197 H   0  0  0  0  0  0  0  0  0  0  0  0
   -2.8158   -1.9988    0.9588 C   0  0  0  0  0  0  0  0  0  0  0  0
   -3.4499   -1.3839    1.6021 H   0  0  0  0  0  0  0  0  0  0  0  0
   -3.3003   -2.1204   -0.0127 H   0  0  0  0  0  0  0  0  0  0  0  0
   -1.4610   -1.3384    0.7844 C   0  0  0  0  0  0  0  0  0  0  0  0
   -0.4659   -1.9154    1.1825 O   0  0  0  0  0  0  0  0  0  0  0  0
   -1.4022   -0.0788    0.2206 N   0  0  0  0  0  0  0  0  0  0  0  0
   -2.2983    0.3822    0.0935 H   0  0  0  0  0  0  0  0  0  0  0  0
   -0.1947    0.7601    0.0900 C   0  0  1  0  0  0  0  0  0  0  0  0
    0.4758    0.5684    0.9365 H   0  0  0  0  0  0  0  0  0  0  0  0
    0.5745    0.4603   -1.2195 C   0  0  0  0  0  0  0  0  0  0  0  0
   -0.0918    0.6044   -2.0737 H   0  0  0  0  0  0  0  0  0  0  0  0
    1.4097    1.1602   -1.3186 H   0  0  0  0  0  0  0  0  0  0  0  0
    1.1295   -0.9287   -1.2875 C   0  0  0  0  0  0  0  0  0  0  0  0
    2.2491   -1.3196   -0.5686 N   0  0  0  0  0  0  0  0  0  0  0  0
    2.4216   -2.5927   -0.8266 C   0  0  0  0  0  0  0  0  0  0  0  0
    3.2032   -3.2105   -0.3942 H   0  0  0  0  0  0  0  0  0  0  0  0
    1.4759   -3.0263   -1.7386 N   0  0  0  0  0  0  0  0  0  0  0  0
    1.3847   -3.9821   -2.0756 H   0  0  0  0  0  0  0  0  0  0  0  0
    0.6508   -1.9638   -2.0421 C   0  0  0  0  0  0  0  0  0  0  0  0
   -0.2108   -1.9466   -2.7007 H   0  0  0  0  0  0  0  0  0  0  0  0
   -0.5886    2.2530    0.1420 C   0  0  0  0  0  0  0  0  0  0  0  0
   -0.8183    2.7791    1.2216 O   0  0  0  0  0  0  0  0  0  0  0  0
   -0.9032    2.9587   -1.0084 N   0  0  0  0  0  0  0  0  0  0  0  0
   -0.7081    2.5125   -1.8991 H   0  0  0  0  0  0  0  0  0  0  0  0
   -1.3575    4.3446   -1.0015 C   0  0  0  0  0  0  0  0  0  0  0  0
   -0.6189    4.9886   -0.5127 H   0  0  0  0  0  0  0  0  0  0  0  0
   -1.5010    4.7003   -2.0263 H   0  0  0  0  0  0  0  0  0  0  0  0
   -2.3100    4.4327   -0.4685 H   0  0  0  0  0  0  0  0  0  0  0  0
  1  2  1  0  0  0  0
  2  3  1  0  0  0  0
  2  4  1  0  0  0  0
  2  5  1  0  0  0  0
  5  6  2  0  0  0  0
  5  7  1  0  0  0  0
  7  8  1  0  0  0  0
  7  9  1  0  0  0  0
  9 10  1  0  0  0  0
  9 11  1  0  0  0  0
  9 22  1  0  0  0  0
 11 12  1  0  0  0  0
 11 13  1  0  0  0  0
 11 14  1  0  0  0  0
 14 15  1  0  0  0  0
 14 20  2  0  0  0  0
 15 16  2  0  0  0  0
 16 17  1  0  0  0  0
 16 18  1  0  0  0  0
 18 19  1  0  0  0  0
 18 20  1  0  0  0  0
 20 21  1  0  0  0  0
 22 23  2  0  0  0  0
 22 24  1  0  0  0  0
 24 25  1  0  0  0  0
 24 26  1  0  0  0  0
 26 27  1  0  0  0  0
 26 28  1  0  0  0  0
 26 29  1  0  0  0  0
M  END
$$$$

  -OEChem-01062216083D

 29 29  0     1  0  0  0  0  0999 V2000
   -2.6917   -3.0024    1.4382 H   0  0  0  0  0  0  0  0  0  0  0  0
   -2.8160   -2.0223    0.9686 C   0  0  0  0  0  0  0  0  0  0  0  0
   -3.4652   -1.4108    1.6001 H   0  0  0  0  0  0  0  0  0  0  0  0
   -3.2875   -2.1572   -0.0076 H   0  0  0  0  0  0  0  0  0  0  0  0
   -1.4670   -1.3471    0.8053 C   0  0  0  0  0  0  0  0  0  0  0  0
   -0.4690   -1.9134    1.2106 O   0  0  0  0  0  0  0  0  0  0  0  0
   -1.4155   -0.0885    0.2377 N   0  0  0  0  0  0  0  0  0  0  0  0
   -2.3144    0.3598    0.0886 H   0  0  0  0  0  0  0  0  0  0  0  0
   -0.2111    0.7564    0.1102 C   0  0  1  0  0  0  0  0  0  0  0  0
    0.4599    0.5657    0.9568 H   0  0  0  0  0  0  0  0  0  0  0  0
    0.5601    0.4748   -1.2006 C   0  0  0  0  0  0  0  0  0  0  0  0
   -0.1025    0.6269   -2.0559 H   0  0  0  0  0  0  0  0  0  0  0  0
    1.3917    1.1805   -1.2901 H   0  0  0  0  0  0  0  0  0  0  0  0
    1.1221   -0.9112   -1.2799 C   0  0  0  0  0  0  0  0  0  0  0  0
    2.2422   -1.3077   -0.5649 N   0  0  0  0  0  0  0  0  0  0  0  0
    2.4210   -2.5764   -0.8400 C   0  0  0  0  0  0  0  0  0  0  0  0
    3.2052   -3.1968   -0.4163 H   0  0  0  0  0  0  0  0  0  0  0  0
    1.4776   -3.0023   -1.7576 N   0  0  0  0  0  0  0  0  0  0  0  0
    1.3919   -3.9535   -2.1090 H   0  0  0  0  0  0  0  0  0  0  0  0
    0.6477   -1.9395   -2.0468 C   0  0  0  0  0  0  0  0  0  0  0  0
   -0.2128   -1.9173   -2.7068 H   0  0  0  0  0  0  0  0  0  0  0  0
   -0.6092    2.2466    0.1561 C   0  0  0  0  0  0  0  0  0  0  0  0
   -0.5346    2.8742    1.2023 O   0  0  0  0  0  0  0  0  0  0  0  0
   -1.2104    2.8496   -0.9370 N   0  0  0  0  0  0  0  0  0  0  0  0
   -1.2399    2.3225   -1.8040 H   0  0  0  0  0  0  0  0  0  0  0  0
   -1.6534    4.2389   -0.9420 C   0  0  0  0  0  0  0  0  0  0  0  0
   -0.8172    4.9088   -0.7152 H   0  0  0  0  0  0  0  0  0  0  0  0
   -2.0523    4.5051   -1.9255 H   0  0  0  0  0  0  0  0  0  0  0  0
   -2.4406    4.3926   -0.1963 H   0  0  0  0  0  0  0  0  0  0  0  0
  1  2  1  0  0  0  0
  2  3  1  0  0  0  0
  2  4  1  0  0  0  0
  2  5  1  0  0  0  0
  5  6  2  0  0  0  0
  5  7  1  0  0  0  0
  7  8  1  0  0  0  0
  7  9  1  0  0  0  0
  9 10  1  0  0  0  0
  9 11  1  0  0  0  0
  9 22  1  0  0  0  0
 11 12  1  0  0  0  0
 11 13  1  0  0  0  0
 11 14  1  0  0  0  0
 14 15  1  0  0  0  0
 14 20  2  0  0  0  0
 15 16  2  0  0  0  0
 16 17  1  0  0  0  0
 16 18  1  0  0  0  0
 18 19  1  0  0  0  0
 18 20  1  0  0  0  0
 20 21  1  0  0  0  0
 22 23  2  0  0  0  0
 22 24  1  0  0  0  0
 24 25  1  0  0  0  0
 24 26  1  0  0  0  0
 26 27  1  0  0  0  0
 26 28  1  0  0  0  0
 26 29  1  0  0  0  0
M  END
$$$$

  -OEChem-01062216083D

 29 29  0     1  0  0  0  0  0999 V2000
   -2.6717   -3.0457    1.4365 H   0  0  0  0  0  0  0  0  0  0  0  0
   -2.8088   -2.0652    0.9715 C   0  0  0  0  0  0  0  0  0  0  0  0
   -3.4722   -1.4682    1.6020 H   0  0  0  0  0  0  0  0  0  0  0  0
   -3.2714   -2.2029   -0.0085 H   0  0  0  0  0  0  0  0  0  0  0  0
   -1.4694   -1.3678    0.8218 C   0  0  0  0  0  0  0  0  0  0  0  0
   -0.4676   -1.9167    1.2408 O   0  0  0  0  0  0  0  0  0  0  0  0
   -1.4302   -0.1078    0.2553 N   0  0  0  0  0  0  0  0  0  0  0  0
   -2.3334    0.3256    0.0912 H   0  0  0  0  0  0  0  0  0  0  0  0
   -0.2326    0.7500    0.1377 C   0  0  1  0  0  0  0  0  0  0  0  0
    0.4399    0.5584    0.9829 H   0  0  0  0  0  0  0  0  0  0  0  0
    0.5352    0.4912   -1.1779 C   0  0  0  0  0  0  0  0  0  0  0  0
   -0.1304    0.6543   -2.0292 H   0  0  0  0  0  0  0  0  0  0  0  0
    1.3626    1.2029   -1.2596 H   0  0  0  0  0  0  0  0  0  0  0  0
    1.1049   -0.8907   -1.2718 C   0  0  0  0  0  0  0  0  0  0  0  0
    2.2287   -1.2870   -0.5628 N   0  0  0  0  0  0  0  0  0  0  0  0
    2.4157   -2.5516   -0.8496 C   0  0  0  0  0  0  0  0  0  0  0  0
    3.2062   -3.1695   -0.4338 H   0  0  0  0  0  0  0  0  0  0  0  0
    1.4719   -2.9758   -1.7677 N   0  0  0  0  0  0  0  0  0  0  0  0
    1.3944   -3.9234   -2.1304 H   0  0  0  0  0  0  0  0  0  0  0  0
    0.6353   -1.9153   -2.0468 C   0  0  0  0  0  0  0  0  0  0  0  0
   -0.2249   -1.8922   -2.7069 H   0  0  0  0  0  0  0  0  0  0  0  0
   -0.6346    2.2377    0.1811 C   0  0  0  0  0  0  0  0  0  0  0  0
   -0.2721    2.9581    1.0992 O   0  0  0  0  0  0  0  0  0  0  0  0
   -1.4945    2.7522   -0.7759 N   0  0  0  0  0  0  0  0  0  0  0  0
   -1.7045    2.1635   -1.5757 H   0  0  0  0  0  0  0  0  0  0  0  0
   -1.9037    4.1517   -0.8066 C   0  0  0  0  0  0  0  0  0  0  0  0
   -1.0309    4.8043   -0.9154 H   0  0  0  0  0  0  0  0  0  0  0  0
   -2.5779    4.3306   -1.6497 H   0  0  0  0  0  0  0  0  0  0  0  0
   -2.4287    4.4176    0.1169 H   0  0  0  0  0  0  0  0  0  0  0  0
  1  2  1  0  0  0  0
  2  3  1  0  0  0  0
  2  4  1  0  0  0  0
  2  5  1  0  0  0  0
  5  6  2  0  0  0  0
  5  7  1  0  0  0  0
  7  8  1  0  0  0  0
  7  9  1  0  0  0  0
  9 10  1  0  0  0  0
  9 11  1  0  0  0  0
  9 22  1  0  0  0  0
 11 12  1  0  0  0  0
 11 13  1  0  0  0  0
 11 14  1  0  0  0  0
 14 15  1  0  0  0  0
 14 20  2  0  0  0  0
 15 16  2  0  0  0  0
 16 17  1  0  0  0  0
 16 18  1  0  0  0  0
 18 19  1  0  0  0  0
 18 20  1  0  0  0  0
 20 21  1  0  0  0  0
 22 23  2  0  0  0  0
 22 24  1  0  0  0  0
 24 25  1  0  0  0  0
 24 26  1  0  0  0  0
 26 27  1  0  0  0  0
 26 28  1  0  0  0  0
 26 29  1  0  0  0  0
M  END
$$$$

  -OEChem-01062216083D

 29 29  0     1  0  0  0  0  0999 V2000
   -2.6574   -3.0831    1.4354 H   0  0  0  0  0  0  0  0  0  0  0  0
   -2.8006   -2.1018    0.9739 C   0  0  0  0  0  0  0  0  0  0  0  0
   -3.4744   -1.5144    1.6022 H   0  0  0  0  0  0  0  0  0  0  0  0
   -3.2543   -2.2395   -0.0102 H   0  0  0  0  0  0  0  0  0  0  0  0
   -1.4676   -1.3901    0.8364 C   0  0  0  0  0  0  0  0  0  0  0  0
   -0.4636   -1.9276    1.2643 O   0  0  0  0  0  0  0  0  0  0  0  0
   -1.4386   -0.1286    0.2724 N   0  0  0  0  0  0  0  0  0  0  0  0
   -2.3460    0.2990    0.1199 H   0  0  0  0  0  0  0  0  0  0  0  0
   -0.2466    0.7411    0.1675 C   0  0  1  0  0  0  0  0  0  0  0  0
    0.4262    0.5481    1.0124 H   0  0  0  0  0  0  0  0  0  0  0  0
    0.5196    0.5027   -1.1513 C   0  0  0  0  0  0  0  0  0  0  0  0
   -0.1491    0.6764   -1.9984 H   0  0  0  0  0  0  0  0  0  0  0  0
    1.3438    1.2192   -1.2253 H   0  0  0  0  0  0  0  0  0  0  0  0
    1.0966   -0.8752   -1.2615 C   0  0  0  0  0  0  0  0  0  0  0  0
    2.2233   -1.2777   -0.5606 N   0  0  0  0  0  0  0  0  0  0  0  0
    2.4122   -2.5383   -0.8627 C   0  0  0  0  0  0  0  0  0  0  0  0
    3.2052   -3.1595   -0.4569 H   0  0  0  0  0  0  0  0  0  0  0  0
    1.4658   -2.9539   -1.7821 N   0  0  0  0  0  0  0  0  0  0  0  0
    1.3882   -3.8975   -2.1548 H   0  0  0  0  0  0  0  0  0  0  0  0
    0.6267   -1.8919   -2.0466 C   0  0  0  0  0  0  0  0  0  0  0  0
   -0.2355   -1.8625   -2.7040 H   0  0  0  0  0  0  0  0  0  0  0  0
   -0.6489    2.2288    0.2096 C   0  0  0  0  0  0  0  0  0  0  0  0
   -0.0553    3.0193    0.9279 O   0  0  0  0  0  0  0  0  0  0  0  0
   -1.7221    2.6778   -0.5445 N   0  0  0  0  0  0  0  0  0  0  0  0
   -2.0869    2.0444   -1.2482 H   0  0  0  0  0  0  0  0  0  0  0  0
   -2.1173    4.0808   -0.5981 C   0  0  0  0  0  0  0  0  0  0  0  0
   -1.3049    4.6926   -1.0042 H   0  0  0  0  0  0  0  0  0  0  0  0
   -2.9971    4.2026   -1.2372 H   0  0  0  0  0  0  0  0  0  0  0  0
   -2.3668    4.4476    0.4032 H   0  0  0  0  0  0  0  0  0  0  0  0
  1  2  1  0  0  0  0
  2  3  1  0  0  0  0
  2  4  1  0  0  0  0
  2  5  1  0  0  0  0
  5  6  2  0  0  0  0
  5  7  1  0  0  0  0
  7  8  1  0  0  0  0
  7  9  1  0  0  0  0
  9 10  1  0  0  0  0
  9 11  1  0  0  0  0
  9 22  1  0  0  0  0
 11 12  1  0  0  0  0
 11 13  1  0  0  0  0
 11 14  1  0  0  0  0
 14 15  1  0  0  0  0
 14 20  2  0  0  0  0
 15 16  2  0  0  0  0
 16 17  1  0  0  0  0
 16 18  1  0  0  0  0
 18 19  1  0  0  0  0
 18 20  1  0  0  0  0
 20 21  1  0  0  0  0
 22 23  2  0  0  0  0
 22 24  1  0  0  0  0
 24 25  1  0  0  0  0
 24 26  1  0  0  0  0
 26 27  1  0  0  0  0
 26 28  1  0  0  0  0
 26 29  1  0  0  0  0
M  END
$$$$

  -OEChem-01062216083D

 29 29  0     1  0  0  0  0  0999 V2000
   -2.5949   -3.1509    1.4024 H   0  0  0  0  0  0  0  0  0  0  0  0
   -2.7590   -2.1745    0.9374 C   0  0  0  0  0  0  0  0  0  0  0  0
   -3.4896   -1.6216    1.5328 H   0  0  0  0  0  0  0  0  0  0  0  0
   -3.1562   -2.3276   -0.0686 H   0  0  0  0  0  0  0  0  0  0  0  0
   -1.4534   -1.4041    0.8683 C   0  0  0  0  0  0  0  0  0  0  0  0
   -0.4502   -1.8962    1.3496 O   0  0  0  0  0  0  0  0  0  0  0  0
   -1.4464   -0.1435    0.3006 N   0  0  0  0  0  0  0  0  0  0  0  0
   -2.3564    0.2384    0.0721 H   0  0  0  0  0  0  0  0  0  0  0  0
   -0.2650    0.7425    0.1900 C   0  0  1  0  0  0  0  0  0  0  0  0
    0.4164    0.5534    1.0286 H   0  0  0  0  0  0  0  0  0  0  0  0
    0.4856    0.5010   -1.1373 C   0  0  0  0  0  0  0  0  0  0  0  0
   -0.1952    0.6678   -1.9762 H   0  0  0  0  0  0  0  0  0  0  0  0
    1.3054    1.2213   -1.2264 H   0  0  0  0  0  0  0  0  0  0  0  0
    1.0705   -0.8741   -1.2451 C   0  0  0  0  0  0  0  0  0  0  0  0
    2.2082   -1.2699   -0.5581 N   0  0  0  0  0  0  0  0  0  0  0  0
    2.4020   -2.5295   -0.8617 C   0  0  0  0  0  0  0  0  0  0  0  0
    3.2054   -3.1447   -0.4670 H   0  0  0  0  0  0  0  0  0  0  0  0
    1.4455   -2.9522   -1.7670 N   0  0  0  0  0  0  0  0  0  0  0  0
    1.3742   -3.8944   -2.1448 H   0  0  0  0  0  0  0  0  0  0  0  0
    0.5970   -1.8953   -2.0221 C   0  0  0  0  0  0  0  0  0  0  0  0
   -0.2715   -1.8705   -2.6715 H   0  0  0  0  0  0  0  0  0  0  0  0
   -0.6517    2.2369    0.2271 C   0  0  0  0  0  0  0  0  0  0  0  0
    0.1231    3.0656    0.6820 O   0  0  0  0  0  0  0  0  0  0  0  0
   -1.8786    2.6660   -0.2567 N   0  0  0  0  0  0  0  0  0  0  0  0
   -2.4152    2.0053   -0.8061 H   0  0  0  0  0  0  0  0  0  0  0  0
   -2.2565    4.0741   -0.3077 C   0  0  0  0  0  0  0  0  0  0  0  0
   -1.5734    4.6317   -0.9572 H   0  0  0  0  0  0  0  0  0  0  0  0
   -3.2725    4.1792   -0.7005 H   0  0  0  0  0  0  0  0  0  0  0  0
   -2.2282    4.5156    0.6943 H   0  0  0  0  0  0  0  0  0  0  0  0
  1  2  1  0  0  0  0
  2  3  1  0  0  0  0
  2  4  1  0  0  0  0
  2  5  1  0  0  0  0
  5  6  2  0  0  0  0
  5  7  1  0  0  0  0
  7  8  1  0  0  0  0
  7  9  1  0  0  0  0
  9 10  1  0  0  0  0
  9 11  1  0  0  0  0
  9 22  1  0  0  0  0
 11 12  1  0  0  0  0
 11 13  1  0  0  0  0
 11 14  1  0  0  0  0
 14 15  1  0  0  0  0
 14 20  2  0  0  0  0
 15 16  2  0  0  0  0
 16 17  1  0  0  0  0
 16 18  1  0  0  0  0
 18 19  1  0  0  0  0
 18 20  1  0  0  0  0
 20 21  1  0  0  0  0
 22 23  2  0  0  0  0
 22 24  1  0  0  0  0
 24 25  1  0  0  0  0
 24 26  1  0  0  0  0
 26 27  1  0  0  0  0
 26 28  1  0  0  0  0
 26 29  1  0  0  0  0
M  END
$$$$

  -OEChem-01062216083D

 29 29  0     1  0  0  0  0  0999 V2000
   -2.3561   -3.2269    1.2441 H   0  0  0  0  0  0  0  0  0  0  0  0
   -2.5566   -2.2843    0.7265 C   0  0  0  0  0  0  0  0  0  0  0  0
   -3.4874   -1.8627    1.1131 H   0  0  0  0  0  0  0  0  0  0  0  0
   -2.6690   -2.4879   -0.3409 H   0  0  0  0  0  0  0  0  0  0  0  0
   -1.4126   -1.3136    0.9524 C   0  0  0  0  0  0  0  0  0  0  0  0
   -0.4979   -1.6314    1.6898 O   0  0  0  0  0  0  0  0  0  0  0  0
   -1.4548   -0.0678    0.3545 N   0  0  0  0  0  0  0  0  0  0  0  0
   -2.2048    0.0484   -0.3178 H   0  0  0  0  0  0  0  0  0  0  0  0
   -0.2679    0.8001    0.1795 C   0  0  1  0  0  0  0  0  0  0  0  0
    0.4420    0.6289    0.9974 H   0  0  0  0  0  0  0  0  0  0  0  0
    0.4304    0.4874   -1.1622 C   0  0  0  0  0  0  0  0  0  0  0  0
   -0.2753    0.6333   -1.9843 H   0  0  0  0  0  0  0  0  0  0  0  0
    1.2626    1.1827   -1.3134 H   0  0  0  0  0  0  0  0  0  0  0  0
    0.9830   -0.9052   -1.2157 C   0  0  0  0  0  0  0  0  0  0  0  0
    2.1326   -1.2939   -0.5460 N   0  0  0  0  0  0  0  0  0  0  0  0
    2.3030   -2.5663   -0.8061 C   0  0  0  0  0  0  0  0  0  0  0  0
    3.1119   -3.1759   -0.4140 H   0  0  0  0  0  0  0  0  0  0  0  0
    1.3111   -3.0101   -1.6620 N   0  0  0  0  0  0  0  0  0  0  0  0
    1.2284   -3.9603   -2.0175 H   0  0  0  0  0  0  0  0  0  0  0  0
    0.4717   -1.9502   -1.9360 C   0  0  0  0  0  0  0  0  0  0  0  0
   -0.4068   -1.9352   -2.5722 H   0  0  0  0  0  0  0  0  0  0  0  0
   -0.6311    2.3028    0.2058 C   0  0  0  0  0  0  0  0  0  0  0  0
    0.2488    3.1525    0.1923 O   0  0  0  0  0  0  0  0  0  0  0  0
   -1.9475    2.7144    0.0701 N   0  0  0  0  0  0  0  0  0  0  0  0
   -2.6558    2.0174    0.2707 H   0  0  0  0  0  0  0  0  0  0  0  0
   -2.3385    4.1197    0.0839 C   0  0  0  0  0  0  0  0  0  0  0  0
   -1.8426    4.6637   -0.7270 H   0  0  0  0  0  0  0  0  0  0  0  0
   -3.4201    4.2130   -0.0520 H   0  0  0  0  0  0  0  0  0  0  0  0
   -2.0664    4.5847    1.0373 H   0  0  0  0  0  0  0  0  0  0  0  0
  1  2  1  0  0  0  0
  2  3  1  0  0  0  0
  2  4  1  0  0  0  0
  2  5  1  0  0  0  0
  5  6  2  0  0  0  0
  5  7  1  0  0  0  0
  7  8  1  0  0  0  0
  7  9  1  0  0  0  0
  9 10  1  0  0  0  0
  9 11  1  0  0  0  0
  9 22  1  0  0  0  0
 11 12  1  0  0  0  0
 11 13  1  0  0  0  0
 11 14  1  0  0  0  0
 14 15  1  0  0  0  0
 14 20  2  0  0  0  0
 15 16  2  0  0  0  0
 16 17  1  0  0  0  0
 16 18  1  0  0  0  0
 18 19  1  0  0  0  0
 18 20  1  0  0  0  0
 20 21  1  0  0  0  0
 22 23  2  0  0  0  0
 22 24  1  0  0  0  0
 24 25  1  0  0  0  0
 24 26  1  0  0  0  0
 26 27  1  0  0  0  0
 26 28  1  0  0  0  0
 26 29  1  0  0  0  0
M  END
$$$$

  -OEChem-01062216083D

 29 29  0     1  0  0  0  0  0999 V2000
   -2.3723   -3.2132    1.2282 H   0  0  0  0  0  0  0  0  0  0  0  0
   -2.5629   -2.2688    0.7103 C   0  0  0  0  0  0  0  0  0  0  0  0
   -3.4886   -1.8366    1.0978 H   0  0  0  0  0  0  0  0  0  0  0  0
   -2.6791   -2.4718   -0.3567 H   0  0  0  0  0  0  0  0  0  0  0  0
   -1.4082   -1.3103    0.9339 C   0  0  0  0  0  0  0  0  0  0  0  0
   -0.4947   -1.6368    1.6690 O   0  0  0  0  0  0  0  0  0  0  0  0
   -1.4408   -0.0608    0.3436 N   0  0  0  0  0  0  0  0  0  0  0  0
   -2.2011    0.0785   -0.3140 H   0  0  0  0  0  0  0  0  0  0  0  0
   -0.2517    0.8046    0.1701 C   0  0  1  0  0  0  0  0  0  0  0  0
    0.4574    0.6327    0.9883 H   0  0  0  0  0  0  0  0  0  0  0  0
    0.4458    0.4852   -1.1718 C   0  0  0  0  0  0  0  0  0  0  0  0
   -0.2592    0.6319   -1.9944 H   0  0  0  0  0  0  0  0  0  0  0  0
    1.2821    1.1740   -1.3271 H   0  0  0  0  0  0  0  0  0  0  0  0
    0.9924   -0.9095   -1.2196 C   0  0  0  0  0  0  0  0  0  0  0  0
    2.1403   -1.3015   -0.5484 N   0  0  0  0  0  0  0  0  0  0  0  0
    2.3023   -2.5762   -0.8028 C   0  0  0  0  0  0  0  0  0  0  0  0
    3.1083   -3.1886   -0.4089 H   0  0  0  0  0  0  0  0  0  0  0  0
    1.3066   -3.0185   -1.6552 N   0  0  0  0  0  0  0  0  0  0  0  0
    1.2167   -3.9703   -2.0048 H   0  0  0  0  0  0  0  0  0  0  0  0
    0.4739   -1.9547   -1.9342 C   0  0  0  0  0  0  0  0  0  0  0  0
   -0.4053   -1.9369   -2.5696 H   0  0  0  0  0  0  0  0  0  0  0  0
   -0.6270    2.3059    0.2070 C   0  0  0  0  0  0  0  0  0  0  0  0
    0.2010    3.1697   -0.0492 O   0  0  0  0  0  0  0  0  0  0  0  0
   -1.9457    2.6901    0.3885 N   0  0  0  0  0  0  0  0  0  0  0  0
   -2.5616    1.9826    0.7766 H   0  0  0  0  0  0  0  0  0  0  0  0
   -2.3606    4.0865    0.4625 C   0  0  0  0  0  0  0  0  0  0  0  0
   -2.0978    4.6146   -0.4603 H   0  0  0  0  0  0  0  0  0  0  0  0
   -3.4443    4.1520    0.5984 H   0  0  0  0  0  0  0  0  0  0  0  0
   -1.8733    4.5872    1.3056 H   0  0  0  0  0  0  0  0  0  0  0  0
  1  2  1  0  0  0  0
  2  3  1  0  0  0  0
  2  4  1  0  0  0  0
  2  5  1  0  0  0  0
  5  6  2  0  0  0  0
  5  7  1  0  0  0  0
  7  8  1  0  0  0  0
  7  9  1  0  0  0  0
  9 10  1  0  0  0  0
  9 11  1  0  0  0  0
  9 22  1  0  0  0  0
 11 12  1  0  0  0  0
 11 13  1  0  0  0  0
 11 14  1  0  0  0  0
 14 15  1  0  0  0  0
 14 20  2  0  0  0  0
 15 16  2  0  0  0  0
 16 17  1  0  0  0  0
 16 18  1  0  0  0  0
 18 19  1  0  0  0  0
 18 20  1  0  0  0  0
 20 21  1  0  0  0  0
 22 23  2  0  0  0  0
 22 24  1  0  0  0  0
 24 25  1  0  0  0  0
 24 26  1  0  0  0  0
 26 27  1  0  0  0  0
 26 28  1  0  0  0  0
 26 29  1  0  0  0  0
M  END
$$$$

  -OEChem-01062216083D

 29 29  0     1  0  0  0  0  0999 V2000
   -2.3818   -3.2077    1.1781 H   0  0  0  0  0  0  0  0  0  0  0  0
   -2.5826   -2.2422    0.7050 C   0  0  0  0  0  0  0  0  0  0  0  0
   -3.4864   -1.8152    1.1459 H   0  0  0  0  0  0  0  0  0  0  0  0
   -2.7450   -2.4030   -0.3633 H   0  0  0  0  0  0  0  0  0  0  0  0
   -1.4089   -1.3048    0.9169 C   0  0  0  0  0  0  0  0  0  0  0  0
   -0.4931   -1.6450    1.6428 O   0  0  0  0  0  0  0  0  0  0  0  0
   -1.4300   -0.0519    0.3350 N   0  0  0  0  0  0  0  0  0  0  0  0
   -2.2088    0.1185   -0.2937 H   0  0  0  0  0  0  0  0  0  0  0  0
   -0.2379    0.8078    0.1596 C   0  0  1  0  0  0  0  0  0  0  0  0
    0.4711    0.6330    0.9772 H   0  0  0  0  0  0  0  0  0  0  0  0
    0.4606    0.4808   -1.1812 C   0  0  0  0  0  0  0  0  0  0  0  0
   -0.2439    0.6279   -2.0042 H   0  0  0  0  0  0  0  0  0  0  0  0
    1.3009    1.1642   -1.3388 H   0  0  0  0  0  0  0  0  0  0  0  0
    1.0024   -0.9157   -1.2241 C   0  0  0  0  0  0  0  0  0  0  0  0
    2.1487   -1.3073   -0.5496 N   0  0  0  0  0  0  0  0  0  0  0  0
    2.3089   -2.5829   -0.8008 C   0  0  0  0  0  0  0  0  0  0  0  0
    3.1135   -3.1955   -0.4043 H   0  0  0  0  0  0  0  0  0  0  0  0
    1.3141   -3.0265   -1.6532 N   0  0  0  0  0  0  0  0  0  0  0  0
    1.2224   -3.9797   -1.9986 H   0  0  0  0  0  0  0  0  0  0  0  0
    0.4833   -1.9623   -1.9361 C   0  0  0  0  0  0  0  0  0  0  0  0
   -0.3954   -1.9448   -2.5719 H   0  0  0  0  0  0  0  0  0  0  0  0
   -0.6239    2.3070    0.2092 C   0  0  0  0  0  0  0  0  0  0  0  0
    0.0953    3.1719   -0.2736 O   0  0  0  0  0  0  0  0  0  0  0  0
   -1.8629    2.6807    0.7030 N   0  0  0  0  0  0  0  0  0  0  0  0
   -2.3621    1.9707    1.2312 H   0  0  0  0  0  0  0  0  0  0  0  0
   -2.2863    4.0707    0.8260 C   0  0  0  0  0  0  0  0  0  0  0  0
   -2.2668    4.5657   -0.1507 H   0  0  0  0  0  0  0  0  0  0  0  0
   -3.3072    4.1214    1.2161 H   0  0  0  0  0  0  0  0  0  0  0  0
   -1.6252    4.6136    1.5096 H   0  0  0  0  0  0  0  0  0  0  0  0
  1  2  1  0  0  0  0
  2  3  1  0  0  0  0
  2  4  1  0  0  0  0
  2  5  1  0  0  0  0
  5  6  2  0  0  0  0
  5  7  1  0  0  0  0
  7  8  1  0  0  0  0
  7  9  1  0  0  0  0
  9 10  1  0  0  0  0
  9 11  1  0  0  0  0
  9 22  1  0  0  0  0
 11 12  1  0  0  0  0
 11 13  1  0  0  0  0
 11 14  1  0  0  0  0
 14 15  1  0  0  0  0
 14 20  2  0  0  0  0
 15 16  2  0  0  0  0
 16 17  1  0  0  0  0
 16 18  1  0  0  0  0
 18 19  1  0  0  0  0
 18 20  1  0  0  0  0
 20 21  1  0  0  0  0
 22 23  2  0  0  0  0
 22 24  1  0  0  0  0
 24 25  1  0  0  0  0
 24 26  1  0  0  0  0
 26 27  1  0  0  0  0
 26 28  1  0  0  0  0
 26 29  1  0  0  0  0
M  END
$$$$

  -OEChem-01062216083D

 29 29  0     1  0  0  0  0  0999 V2000
   -2.4176   -3.1850    1.1777 H   0  0  0  0  0  0  0  0  0  0  0  0
   -2.6087   -2.2141    0.7117 C   0  0  0  0  0  0  0  0  0  0  0  0
   -3.4943   -1.7703    1.1723 H   0  0  0  0  0  0  0  0  0  0  0  0
   -2.7966   -2.3677   -0.3532 H   0  0  0  0  0  0  0  0  0  0  0  0
   -1.4122   -1.3010    0.9014 C   0  0  0  0  0  0  0  0  0  0  0  0
   -0.4893   -1.6604    1.6091 O   0  0  0  0  0  0  0  0  0  0  0  0
   -1.4216   -0.0446    0.3274 N   0  0  0  0  0  0  0  0  0  0  0  0
   -2.2185    0.1570   -0.2693 H   0  0  0  0  0  0  0  0  0  0  0  0
   -0.2263    0.8086    0.1501 C   0  0  1  0  0  0  0  0  0  0  0  0
    0.4817    0.6305    0.9676 H   0  0  0  0  0  0  0  0  0  0  0  0
    0.4766    0.4799   -1.1880 C   0  0  0  0  0  0  0  0  0  0  0  0
   -0.2243    0.6293   -2.0139 H   0  0  0  0  0  0  0  0  0  0  0  0
    1.3188    1.1622   -1.3411 H   0  0  0  0  0  0  0  0  0  0  0  0
    1.0158   -0.9176   -1.2295 C   0  0  0  0  0  0  0  0  0  0  0  0
    2.1592   -1.3113   -0.5506 N   0  0  0  0  0  0  0  0  0  0  0  0
    2.3169   -2.5876   -0.8007 C   0  0  0  0  0  0  0  0  0  0  0  0
    3.1182   -3.2025   -0.4013 H   0  0  0  0  0  0  0  0  0  0  0  0
    1.3240   -3.0290   -1.6565 N   0  0  0  0  0  0  0  0  0  0  0  0
    1.2305   -3.9821   -2.0012 H   0  0  0  0  0  0  0  0  0  0  0  0
    0.4963   -1.9633   -1.9423 C   0  0  0  0  0  0  0  0  0  0  0  0
   -0.3813   -1.9439   -2.5800 H   0  0  0  0  0  0  0  0  0  0  0  0
   -0.6200    2.3053    0.2119 C   0  0  0  0  0  0  0  0  0  0  0  0
   -0.0690    3.1535   -0.4782 O   0  0  0  0  0  0  0  0  0  0  0  0
   -1.7015    2.6879    0.9868 N   0  0  0  0  0  0  0  0  0  0  0  0
   -2.0652    1.9861    1.6258 H   0  0  0  0  0  0  0  0  0  0  0  0
   -2.1233    4.0743    1.1491 C   0  0  0  0  0  0  0  0  0  0  0  0
   -2.3593    4.5208    0.1774 H   0  0  0  0  0  0  0  0  0  0  0  0
   -3.0180    4.1258    1.7767 H   0  0  0  0  0  0  0  0  0  0  0  0
   -1.3310    4.6622    1.6242 H   0  0  0  0  0  0  0  0  0  0  0  0
  1  2  1  0  0  0  0
  2  3  1  0  0  0  0
  2  4  1  0  0  0  0
  2  5  1  0  0  0  0
  5  6  2  0  0  0  0
  5  7  1  0  0  0  0
  7  8  1  0  0  0  0
  7  9  1  0  0  0  0
  9 10  1  0  0  0  0
  9 11  1  0  0  0  0
  9 22  1  0  0  0  0
 11 12  1  0  0  0  0
 11 13  1  0  0  0  0
 11 14  1  0  0  0  0
 14 15  1  0  0  0  0
 14 20  2  0  0  0  0
 15 16  2  0  0  0  0
 16 17  1  0  0  0  0
 16 18  1  0  0  0  0
 18 19  1  0  0  0  0
 18 20  1  0  0  0  0
 20 21  1  0  0  0  0
 22 23  2  0  0  0  0
 22 24  1  0  0  0  0
 24 25  1  0  0  0  0
 24 26  1  0  0  0  0
 26 27  1  0  0  0  0
 26 28  1  0  0  0  0
 26 29  1  0  0  0  0
M  END
$$$$

  -OEChem-01062216083D

 29 29  0     1  0  0  0  0  0999 V2000
   -2.4460   -3.1618    1.1829 H   0  0  0  0  0  0  0  0  0  0  0  0
   -2.6234   -2.1915    0.7106 C   0  0  0  0  0  0  0  0  0  0  0  0
   -3.5031   -1.7324    1.1681 H   0  0  0  0  0  0  0  0  0  0  0  0
   -2.8134   -2.3501   -0.3535 H   0  0  0  0  0  0  0  0  0  0  0  0
   -1.4146   -1.2935    0.8939 C   0  0  0  0  0  0  0  0  0  0  0  0
   -0.4899   -1.6653    1.5933 O   0  0  0  0  0  0  0  0  0  0  0  0
   -1.4137   -0.0348    0.3263 N   0  0  0  0  0  0  0  0  0  0  0  0
   -2.2190    0.1863   -0.2518 H   0  0  0  0  0  0  0  0  0  0  0  0
   -0.2146    0.8098    0.1468 C   0  0  1  0  0  0  0  0  0  0  0  0
    0.4945    0.6265    0.9623 H   0  0  0  0  0  0  0  0  0  0  0  0
    0.4892    0.4823   -1.1905 C   0  0  0  0  0  0  0  0  0  0  0  0
   -0.2106    0.6336   -2.0171 H   0  0  0  0  0  0  0  0  0  0  0  0
    1.3313    1.1651   -1.3406 H   0  0  0  0  0  0  0  0  0  0  0  0
    1.0227   -0.9169   -1.2332 C   0  0  0  0  0  0  0  0  0  0  0  0
    2.1638   -1.3134   -0.5515 N   0  0  0  0  0  0  0  0  0  0  0  0
    2.3167   -2.5907   -0.8000 C   0  0  0  0  0  0  0  0  0  0  0  0
    3.1148   -3.2082   -0.3981 H   0  0  0  0  0  0  0  0  0  0  0  0
    1.3236   -3.0294   -1.6570 N   0  0  0  0  0  0  0  0  0  0  0  0
    1.2251   -3.9832   -1.9981 H   0  0  0  0  0  0  0  0  0  0  0  0
    0.5002   -1.9612   -1.9457 C   0  0  0  0  0  0  0  0  0  0  0  0
   -0.3775   -1.9392   -2.5831 H   0  0  0  0  0  0  0  0  0  0  0  0
   -0.6098    2.3036    0.2192 C   0  0  0  0  0  0  0  0  0  0  0  0
   -0.2761    3.1128   -0.6377 O   0  0  0  0  0  0  0  0  0  0  0  0
   -1.4661    2.7172    1.2241 N   0  0  0  0  0  0  0  0  0  0  0  0
   -1.6758    2.0368    1.9501 H   0  0  0  0  0  0  0  0  0  0  0  0
   -1.8865    4.1010    1.4075 C   0  0  0  0  0  0  0  0  0  0  0  0
   -2.3960    4.4700    0.5111 H   0  0  0  0  0  0  0  0  0  0  0  0
   -2.5785    4.1765    2.2517 H   0  0  0  0  0  0  0  0  0  0  0  0
   -1.0207    4.7403    1.6099 H   0  0  0  0  0  0  0  0  0  0  0  0
  1  2  1  0  0  0  0
  2  3  1  0  0  0  0
  2  4  1  0  0  0  0
  2  5  1  0  0  0  0
  5  6  2  0  0  0  0
  5  7  1  0  0  0  0
  7  8  1  0  0  0  0
  7  9  1  0  0  0  0
  9 10  1  0  0  0  0
  9 11  1  0  0  0  0
  9 22  1  0  0  0  0
 11 12  1  0  0  0  0
 11 13  1  0  0  0  0
 11 14  1  0  0  0  0
 14 15  1  0  0  0  0
 14 20  2  0  0  0  0
 15 16  2  0  0  0  0
 16 17  1  0  0  0  0
 16 18  1  0  0  0  0
 18 19  1  0  0  0  0
 18 20  1  0  0  0  0
 20 21  1  0  0  0  0
 22 23  2  0  0  0  0
 22 24  1  0  0  0  0
 24 25  1  0  0  0  0
 24 26  1  0  0  0  0
 26 27  1  0  0  0  0
 26 28  1  0  0  0  0
 26 29  1  0  0  0  0
M  END
$$$$

  -OEChem-01062216083D

 29 29  0     1  0  0  0  0  0999 V2000
   -2.4591   -3.1524    1.1869 H   0  0  0  0  0  0  0  0  0  0  0  0
   -2.6320   -2.1810    0.7148 C   0  0  0  0  0  0  0  0  0  0  0  0
   -3.5072   -1.7163    1.1751 H   0  0  0  0  0  0  0  0  0  0  0  0
   -2.8261   -2.3375   -0.3490 H   0  0  0  0  0  0  0  0  0  0  0  0
   -1.4170   -1.2906    0.8954 C   0  0  0  0  0  0  0  0  0  0  0  0
   -0.4914   -1.6703    1.5899 O   0  0  0  0  0  0  0  0  0  0  0  0
   -1.4088   -0.0306    0.3308 N   0  0  0  0  0  0  0  0  0  0  0  0
   -2.2163    0.2030   -0.2394 H   0  0  0  0  0  0  0  0  0  0  0  0
   -0.2065    0.8073    0.1550 C   0  0  1  0  0  0  0  0  0  0  0  0
    0.5024    0.6175    0.9692 H   0  0  0  0  0  0  0  0  0  0  0  0
    0.4978    0.4844   -1.1824 C   0  0  0  0  0  0  0  0  0  0  0  0
   -0.2014    0.6393   -2.0091 H   0  0  0  0  0  0  0  0  0  0  0  0
    1.3391    1.1690   -1.3286 H   0  0  0  0  0  0  0  0  0  0  0  0
    1.0260   -0.9163   -1.2322 C   0  0  0  0  0  0  0  0  0  0  0  0
    2.1645   -1.3195   -0.5504 N   0  0  0  0  0  0  0  0  0  0  0  0
    2.3137   -2.5959   -0.8059 C   0  0  0  0  0  0  0  0  0  0  0  0
    3.1085   -3.2182   -0.4049 H   0  0  0  0  0  0  0  0  0  0  0  0
    1.3218   -3.0269   -1.6681 N   0  0  0  0  0  0  0  0  0  0  0  0
    1.2221   -3.9780   -2.0163 H   0  0  0  0  0  0  0  0  0  0  0  0
    0.5017   -1.9549   -1.9514 C   0  0  0  0  0  0  0  0  0  0  0  0
   -0.3748   -1.9266   -2.5902 H   0  0  0  0  0  0  0  0  0  0  0  0
   -0.5966    2.3005    0.2308 C   0  0  0  0  0  0  0  0  0  0  0  0
   -0.5023    3.0503   -0.7338 O   0  0  0  0  0  0  0  0  0  0  0  0
   -1.1834    2.7752    1.3895 N   0  0  0  0  0  0  0  0  0  0  0  0
   -1.2365    2.1311    2.1748 H   0  0  0  0  0  0  0  0  0  0  0  0
   -1.5939    4.1609    1.5790 C   0  0  0  0  0  0  0  0  0  0  0  0
   -2.3354    4.4480    0.8261 H   0  0  0  0  0  0  0  0  0  0  0  0
   -2.0400    4.2903    2.5698 H   0  0  0  0  0  0  0  0  0  0  0  0
   -0.7308    4.8299    1.4976 H   0  0  0  0  0  0  0  0  0  0  0  0
  1  2  1  0  0  0  0
  2  3  1  0  0  0  0
  2  4  1  0  0  0  0
  2  5  1  0  0  0  0
  5  6  2  0  0  0  0
  5  7  1  0  0  0  0
  7  8  1  0  0  0  0
  7  9  1  0  0  0  0
  9 10  1  0  0  0  0
  9 11  1  0  0  0  0
  9 22  1  0  0  0  0
 11 12  1  0  0  0  0
 11 13  1  0  0  0  0
 11 14  1  0  0  0  0
 14 15  1  0  0  0  0
 14 20  2  0  0  0  0
 15 16  2  0  0  0  0
 16 17  1  0  0  0  0
 16 18  1  0  0  0  0
 18 19  1  0  0  0  0
 18 20  1  0  0  0  0
 20 21  1  0  0  0  0
 22 23  2  0  0  0  0
 22 24  1  0  0  0  0
 24 25  1  0  0  0  0
 24 26  1  0  0  0  0
 26 27  1  0  0  0  0
 26 28  1  0  0  0  0
 26 29  1  0  0  0  0
M  END
$$$$

  -OEChem-01062216083D

 29 29  0     1  0  0  0  0  0999 V2000
   -2.4853   -3.1390    1.1952 H   0  0  0  0  0  0  0  0  0  0  0  0
   -2.6484   -2.1657    0.7236 C   0  0  0  0  0  0  0  0  0  0  0  0
   -3.5153   -1.6897    1.1879 H   0  0  0  0  0  0  0  0  0  0  0  0
   -2.8500   -2.3200   -0.3390 H   0  0  0  0  0  0  0  0  0  0  0  0
   -1.4213   -1.2907    0.8969 C   0  0  0  0  0  0  0  0  0  0  0  0
   -0.4920   -1.6858    1.5781 O   0  0  0  0  0  0  0  0  0  0  0  0
   -1.4021   -0.0298    0.3356 N   0  0  0  0  0  0  0  0  0  0  0  0
   -2.2144    0.2222   -0.2202 H   0  0  0  0  0  0  0  0  0  0  0  0
   -0.1962    0.8015    0.1638 C   0  0  1  0  0  0  0  0  0  0  0  0
    0.5120    0.6022    0.9761 H   0  0  0  0  0  0  0  0  0  0  0  0
    0.5084    0.4861   -1.1747 C   0  0  0  0  0  0  0  0  0  0  0  0
   -0.1904    0.6458   -2.0012 H   0  0  0  0  0  0  0  0  0  0  0  0
    1.3496    1.1714   -1.3159 H   0  0  0  0  0  0  0  0  0  0  0  0
    1.0310   -0.9163   -1.2335 C   0  0  0  0  0  0  0  0  0  0  0  0
    2.1676   -1.3249   -0.5513 N   0  0  0  0  0  0  0  0  0  0  0  0
    2.3151   -2.6002   -0.8136 C   0  0  0  0  0  0  0  0  0  0  0  0
    3.1079   -3.2263   -0.4147 H   0  0  0  0  0  0  0  0  0  0  0  0
    1.3246   -3.0247   -1.6808 N   0  0  0  0  0  0  0  0  0  0  0  0
    1.2233   -3.9739   -2.0341 H   0  0  0  0  0  0  0  0  0  0  0  0
    0.5066   -1.9497   -1.9598 C   0  0  0  0  0  0  0  0  0  0  0  0
   -0.3687   -1.9158   -2.6003 H   0  0  0  0  0  0  0  0  0  0  0  0
   -0.5766    2.2952    0.2415 C   0  0  0  0  0  0  0  0  0  0  0  0
   -0.7440    2.9701   -0.7676 O   0  0  0  0  0  0  0  0  0  0  0  0
   -0.8652    2.8501    1.4745 N   0  0  0  0  0  0  0  0  0  0  0  0
   -0.7435    2.2546    2.2899 H   0  0  0  0  0  0  0  0  0  0  0  0
   -1.2732    4.2366    1.6624 C   0  0  0  0  0  0  0  0  0  0  0  0
   -2.1996    4.4415    1.1160 H   0  0  0  0  0  0  0  0  0  0  0  0
   -1.4467    4.4386    2.7237 H   0  0  0  0  0  0  0  0  0  0  0  0
   -0.4939    4.9171    1.3037 H   0  0  0  0  0  0  0  0  0  0  0  0
  1  2  1  0  0  0  0
  2  3  1  0  0  0  0
  2  4  1  0  0  0  0
  2  5  1  0  0  0  0
  5  6  2  0  0  0  0
  5  7  1  0  0  0  0
  7  8  1  0  0  0  0
  7  9  1  0  0  0  0
  9 10  1  0  0  0  0
  9 11  1  0  0  0  0
  9 22  1  0  0  0  0
 11 12  1  0  0  0  0
 11 13  1  0  0  0  0
 11 14  1  0  0  0  0
 14 15  1  0  0  0  0
 14 20  2  0  0  0  0
 15 16  2  0  0  0  0
 16 17  1  0  0  0  0
 16 18  1  0  0  0  0
 18 19  1  0  0  0  0
 18 20  1  0  0  0  0
 20 21  1  0  0  0  0
 22 23  2  0  0  0  0
 22 24  1  0  0  0  0
 24 25  1  0  0  0  0
 24 26  1  0  0  0  0
 26 27  1  0  0  0  0
 26 28  1  0  0  0  0
 26 29  1  0  0  0  0
M  END
$$$$

  -OEChem-01062216083D

 29 29  0     1  0  0  0  0  0999 V2000
   -2.5203   -3.1225    1.2162 H   0  0  0  0  0  0  0  0  0  0  0  0
   -2.6706   -2.1481    0.7429 C   0  0  0  0  0  0  0  0  0  0  0  0
   -3.5206   -1.6527    1.2182 H   0  0  0  0  0  0  0  0  0  0  0  0
   -2.8915   -2.3025   -0.3159 H   0  0  0  0  0  0  0  0  0  0  0  0
   -1.4238   -1.2972    0.8935 C   0  0  0  0  0  0  0  0  0  0  0  0
   -0.4876   -1.7134    1.5530 O   0  0  0  0  0  0  0  0  0  0  0  0
   -1.3918   -0.0359    0.3337 N   0  0  0  0  0  0  0  0  0  0  0  0
   -2.2118    0.2412   -0.1991 H   0  0  0  0  0  0  0  0  0  0  0  0
   -0.1838    0.7920    0.1705 C   0  0  1  0  0  0  0  0  0  0  0  0
    0.5209    0.5848    0.9837 H   0  0  0  0  0  0  0  0  0  0  0  0
    0.5249    0.4905   -1.1680 C   0  0  0  0  0  0  0  0  0  0  0  0
   -0.1708    0.6584   -1.9955 H   0  0  0  0  0  0  0  0  0  0  0  0
    1.3673    1.1761   -1.2993 H   0  0  0  0  0  0  0  0  0  0  0  0
    1.0447   -0.9120   -1.2381 C   0  0  0  0  0  0  0  0  0  0  0  0
    2.1777   -1.3292   -0.5550 N   0  0  0  0  0  0  0  0  0  0  0  0
    2.3185   -2.6042   -0.8229 C   0  0  0  0  0  0  0  0  0  0  0  0
    3.1061   -3.2369   -0.4240 H   0  0  0  0  0  0  0  0  0  0  0  0
    1.3284   -3.0192   -1.6951 N   0  0  0  0  0  0  0  0  0  0  0  0
    1.2195   -3.9675   -2.0481 H   0  0  0  0  0  0  0  0  0  0  0  0
    0.5169   -1.9387   -1.9712 C   0  0  0  0  0  0  0  0  0  0  0  0
   -0.3589   -1.8976   -2.6107 H   0  0  0  0  0  0  0  0  0  0  0  0
   -0.5587    2.2856    0.2452 C   0  0  0  0  0  0  0  0  0  0  0  0
   -0.9838    2.8785   -0.7398 O   0  0  0  0  0  0  0  0  0  0  0  0
   -0.5508    2.9294    1.4686 N   0  0  0  0  0  0  0  0  0  0  0  0
   -0.2413    2.3924    2.2749 H   0  0  0  0  0  0  0  0  0  0  0  0
   -0.9471    4.3200    1.6526 C   0  0  0  0  0  0  0  0  0  0  0  0
   -1.9900    4.4651    1.3522 H   0  0  0  0  0  0  0  0  0  0  0  0
   -0.8477    4.6047    2.7045 H   0  0  0  0  0  0  0  0  0  0  0  0
   -0.3120    4.9816    1.0542 H   0  0  0  0  0  0  0  0  0  0  0  0
  1  2  1  0  0  0  0
  2  3  1  0  0  0  0
  2  4  1  0  0  0  0
  2  5  1  0  0  0  0
  5  6  2  0  0  0  0
  5  7  1  0  0  0  0
  7  8  1  0  0  0  0
  7  9  1  0  0  0  0
  9 10  1  0  0  0  0
  9 11  1  0  0  0  0
  9 22  1  0  0  0  0
 11 12  1  0  0  0  0
 11 13  1  0  0  0  0
 11 14  1  0  0  0  0
 14 15  1  0  0  0  0
 14 20  2  0  0  0  0
 15 16  2  0  0  0  0
 16 17  1  0  0  0  0
 16 18  1  0  0  0  0
 18 19  1  0  0  0  0
 18 20  1  0  0  0  0
 20 21  1  0  0  0  0
 22 23  2  0  0  0  0
 22 24  1  0  0  0  0
 24 25  1  0  0  0  0
 24 26  1  0  0  0  0
 26 27  1  0  0  0  0
 26 28  1  0  0  0  0
 26 29  1  0  0  0  0
M  END
$$$$

  -OEChem-01062216083D

 29 29  0     1  0  0  0  0  0999 V2000
   -2.5644   -3.1016    1.2435 H   0  0  0  0  0  0  0  0  0  0  0  0
   -2.7012   -2.1248    0.7708 C   0  0  0  0  0  0  0  0  0  0  0  0
   -3.5265   -1.6063    1.2646 H   0  0  0  0  0  0  0  0  0  0  0  0
   -2.9518   -2.2761   -0.2817 H   0  0  0  0  0  0  0  0  0  0  0  0
   -1.4299   -1.3053    0.8885 C   0  0  0  0  0  0  0  0  0  0  0  0
   -0.4853   -1.7478    1.5187 O   0  0  0  0  0  0  0  0  0  0  0  0
   -1.3829   -0.0449    0.3284 N   0  0  0  0  0  0  0  0  0  0  0  0
   -2.2146    0.2653   -0.1680 H   0  0  0  0  0  0  0  0  0  0  0  0
   -0.1733    0.7811    0.1735 C   0  0  1  0  0  0  0  0  0  0  0  0
    0.5258    0.5679    0.9899 H   0  0  0  0  0  0  0  0  0  0  0  0
    0.5396    0.4920   -1.1640 C   0  0  0  0  0  0  0  0  0  0  0  0
   -0.1543    0.6676   -1.9915 H   0  0  0  0  0  0  0  0  0  0  0  0
    1.3828    1.1782   -1.2873 H   0  0  0  0  0  0  0  0  0  0  0  0
    1.0581   -0.9102   -1.2441 C   0  0  0  0  0  0  0  0  0  0  0  0
    2.1885   -1.3305   -0.5586 N   0  0  0  0  0  0  0  0  0  0  0  0
    2.3293   -2.6044   -0.8321 C   0  0  0  0  0  0  0  0  0  0  0  0
    3.1149   -3.2394   -0.4333 H   0  0  0  0  0  0  0  0  0  0  0  0
    1.3430   -3.0146   -1.7108 N   0  0  0  0  0  0  0  0  0  0  0  0
    1.2339   -3.9616   -2.0674 H   0  0  0  0  0  0  0  0  0  0  0  0
    0.5326   -1.9326   -1.9844 C   0  0  0  0  0  0  0  0  0  0  0  0
   -0.3422   -1.8886   -2.6250 H   0  0  0  0  0  0  0  0  0  0  0  0
   -0.5446    2.2742    0.2419 C   0  0  0  0  0  0  0  0  0  0  0  0
   -1.2008    2.7883   -0.6571 O   0  0  0  0  0  0  0  0  0  0  0  0
   -0.2563    3.0079    1.3777 N   0  0  0  0  0  0  0  0  0  0  0  0
    0.2410    2.5328    2.1266 H   0  0  0  0  0  0  0  0  0  0  0  0
   -0.6340    4.4047    1.5536 C   0  0  0  0  0  0  0  0  0  0  0  0
   -1.7218    4.5180    1.4994 H   0  0  0  0  0  0  0  0  0  0  0  0
   -0.2970    4.7665    2.5299 H   0  0  0  0  0  0  0  0  0  0  0  0
   -0.1750    5.0262    0.7775 H   0  0  0  0  0  0  0  0  0  0  0  0
  1  2  1  0  0  0  0
  2  3  1  0  0  0  0
  2  4  1  0  0  0  0
  2  5  1  0  0  0  0
  5  6  2  0  0  0  0
  5  7  1  0  0  0  0
  7  8  1  0  0  0  0
  7  9  1  0  0  0  0
  9 10  1  0  0  0  0
  9 11  1  0  0  0  0
  9 22  1  0  0  0  0
 11 12  1  0  0  0  0
 11 13  1  0  0  0  0
 11 14  1  0  0  0  0
 14 15  1  0  0  0  0
 14 20  2  0  0  0  0
 15 16  2  0  0  0  0
 16 17  1  0  0  0  0
 16 18  1  0  0  0  0
 18 19  1  0  0  0  0
 18 20  1  0  0  0  0
 20 21  1  0  0  0  0
 22 23  2  0  0  0  0
 22 24  1  0  0  0  0
 24 25  1  0  0  0  0
 24 26  1  0  0  0  0
 26 27  1  0  0  0  0
 26 28  1  0  0  0  0
 26 29  1  0  0  0  0
M  END
$$$$

  -OEChem-01062216083D

 29 29  0     1  0  0  0  0  0999 V2000
   -2.6033   -3.0867    1.2722 H   0  0  0  0  0  0  0  0  0  0  0  0
   -2.7295   -2.1091    0.7985 C   0  0  0  0  0  0  0  0  0  0  0  0
   -3.5315   -1.5706    1.3092 H   0  0  0  0  0  0  0  0  0  0  0  0
   -3.0076   -2.2584   -0.2474 H   0  0  0  0  0  0  0  0  0  0  0  0
   -1.4382   -1.3171    0.8832 C   0  0  0  0  0  0  0  0  0  0  0  0
   -0.4857   -1.7827    1.4844 O   0  0  0  0  0  0  0  0  0  0  0  0
   -1.3798   -0.0581    0.3218 N   0  0  0  0  0  0  0  0  0  0  0  0
   -2.2238    0.2846   -0.1315 H   0  0  0  0  0  0  0  0  0  0  0  0
   -0.1710    0.7703    0.1778 C   0  0  1  0  0  0  0  0  0  0  0  0
    0.5203    0.5555    1.0005 H   0  0  0  0  0  0  0  0  0  0  0  0
    0.5488    0.4941   -1.1569 C   0  0  0  0  0  0  0  0  0  0  0  0
   -0.1419    0.6759   -1.9855 H   0  0  0  0  0  0  0  0  0  0  0  0
    1.3918    1.1819   -1.2709 H   0  0  0  0  0  0  0  0  0  0  0  0
    1.0704   -0.9060   -1.2460 C   0  0  0  0  0  0  0  0  0  0  0  0
    2.1983   -1.3289   -0.5577 N   0  0  0  0  0  0  0  0  0  0  0  0
    2.3417   -2.6009   -0.8395 C   0  0  0  0  0  0  0  0  0  0  0  0
    3.1255   -3.2379   -0.4401 H   0  0  0  0  0  0  0  0  0  0  0  0
    1.3615   -3.0058   -1.7274 N   0  0  0  0  0  0  0  0  0  0  0  0
    1.2543   -3.9508   -2.0899 H   0  0  0  0  0  0  0  0  0  0  0  0
    0.5506   -1.9234   -1.9969 C   0  0  0  0  0  0  0  0  0  0  0  0
   -0.3221   -1.8761   -2.6401 H   0  0  0  0  0  0  0  0  0  0  0  0
   -0.5419    2.2630    0.2370 C   0  0  0  0  0  0  0  0  0  0  0  0
   -1.3833    2.7128   -0.5337 O   0  0  0  0  0  0  0  0  0  0  0  0
   -0.0069    3.0781    1.2170 N   0  0  0  0  0  0  0  0  0  0  0  0
    0.6549    2.6583    1.8649 H   0  0  0  0  0  0  0  0  0  0  0  0
   -0.3462    4.4876    1.3658 C   0  0  0  0  0  0  0  0  0  0  0  0
   -1.4157    4.6054    1.5684 H   0  0  0  0  0  0  0  0  0  0  0  0
    0.2138    4.9250    2.1981 H   0  0  0  0  0  0  0  0  0  0  0  0
   -0.0966    5.0399    0.4537 H   0  0  0  0  0  0  0  0  0  0  0  0
  1  2  1  0  0  0  0
  2  3  1  0  0  0  0
  2  4  1  0  0  0  0
  2  5  1  0  0  0  0
  5  6  2  0  0  0  0
  5  7  1  0  0  0  0
  7  8  1  0  0  0  0
  7  9  1  0  0  0  0
  9 10  1  0  0  0  0
  9 11  1  0  0  0  0
  9 22  1  0  0  0  0
 11 12  1  0  0  0  0
 11 13  1  0  0  0  0
 11 14  1  0  0  0  0
 14 15  1  0  0  0  0
 14 20  2  0  0  0  0
 15 16  2  0  0  0  0
 16 17  1  0  0  0  0
 16 18  1  0  0  0  0
 18 19  1  0  0  0  0
 18 20  1  0  0  0  0
 20 21  1  0  0  0  0
 22 23  2  0  0  0  0
 22 24  1  0  0  0  0
 24 25  1  0  0  0  0
 24 26  1  0  0  0  0
 26 27  1  0  0  0  0
 26 28  1  0  0  0  0
 26 29  1  0  0  0  0
M  END
$$$$

  -OEChem-01062216083D

 29 29  0     1  0  0  0  0  0999 V2000
   -2.6369   -3.0697    1.3009 H   0  0  0  0  0  0  0  0  0  0  0  0
   -2.7569   -2.0893    0.8315 C   0  0  0  0  0  0  0  0  0  0  0  0
   -3.5273   -1.5326    1.3705 H   0  0  0  0  0  0  0  0  0  0  0  0
   -3.0752   -2.2313   -0.2039 H   0  0  0  0  0  0  0  0  0  0  0  0
   -1.4456   -1.3276    0.8697 C   0  0  0  0  0  0  0  0  0  0  0  0
   -0.4833   -1.8164    1.4355 O   0  0  0  0  0  0  0  0  0  0  0  0
   -1.3801   -0.0696    0.3074 N   0  0  0  0  0  0  0  0  0  0  0  0
   -2.2397    0.3085   -0.0856 H   0  0  0  0  0  0  0  0  0  0  0  0
   -0.1736    0.7635    0.1716 C   0  0  1  0  0  0  0  0  0  0  0  0
    0.5111    0.5503    1.0003 H   0  0  0  0  0  0  0  0  0  0  0  0
    0.5531    0.4947   -1.1604 C   0  0  0  0  0  0  0  0  0  0  0  0
   -0.1360    0.6773   -1.9904 H   0  0  0  0  0  0  0  0  0  0  0  0
    1.3939    1.1859   -1.2690 H   0  0  0  0  0  0  0  0  0  0  0  0
    1.0810   -0.9027   -1.2530 C   0  0  0  0  0  0  0  0  0  0  0  0
    2.2084   -1.3199   -0.5602 N   0  0  0  0  0  0  0  0  0  0  0  0
    2.3591   -2.5910   -0.8426 C   0  0  0  0  0  0  0  0  0  0  0  0
    3.1439   -3.2246   -0.4396 H   0  0  0  0  0  0  0  0  0  0  0  0
    1.3852   -2.9998   -1.7359 N   0  0  0  0  0  0  0  0  0  0  0  0
    1.2816   -3.9460   -2.0962 H   0  0  0  0  0  0  0  0  0  0  0  0
    0.5699   -1.9214   -2.0078 C   0  0  0  0  0  0  0  0  0  0  0  0
   -0.3012   -1.8785   -2.6535 H   0  0  0  0  0  0  0  0  0  0  0  0
   -0.5443    2.2567    0.2232 C   0  0  0  0  0  0  0  0  0  0  0  0
   -1.5343    2.6598   -0.3791 O   0  0  0  0  0  0  0  0  0  0  0  0
    0.1985    3.1354    0.9895 N   0  0  0  0  0  0  0  0  0  0  0  0
    0.9945    2.7571    1.4969 H   0  0  0  0  0  0  0  0  0  0  0  0
   -0.1107    4.5541    1.1143 C   0  0  0  0  0  0  0  0  0  0  0  0
   -1.1160    4.6929    1.5254 H   0  0  0  0  0  0  0  0  0  0  0  0
    0.6061    5.0394    1.7837 H   0  0  0  0  0  0  0  0  0  0  0  0
   -0.0580    5.0447    0.1368 H   0  0  0  0  0  0  0  0  0  0  0  0
  1  2  1  0  0  0  0
  2  3  1  0  0  0  0
  2  4  1  0  0  0  0
  2  5  1  0  0  0  0
  5  6  2  0  0  0  0
  5  7  1  0  0  0  0
  7  8  1  0  0  0  0
  7  9  1  0  0  0  0
  9 10  1  0  0  0  0
  9 11  1  0  0  0  0
  9 22  1  0  0  0  0
 11 12  1  0  0  0  0
 11 13  1  0  0  0  0
 11 14  1  0  0  0  0
 14 15  1  0  0  0  0
 14 20  2  0  0  0  0
 15 16  2  0  0  0  0
 16 17  1  0  0  0  0
 16 18  1  0  0  0  0
 18 19  1  0  0  0  0
 18 20  1  0  0  0  0
 20 21  1  0  0  0  0
 22 23  2  0  0  0  0
 22 24  1  0  0  0  0
 24 25  1  0  0  0  0
 24 26  1  0  0  0  0
 26 27  1  0  0  0  0
 26 28  1  0  0  0  0
 26 29  1  0  0  0  0
M  END
$$$$

  -OEChem-01062216083D

 29 29  0     1  0  0  0  0  0999 V2000
   -2.6618   -3.0510    1.3293 H   0  0  0  0  0  0  0  0  0  0  0  0
   -2.7764   -2.0711    0.8574 C   0  0  0  0  0  0  0  0  0  0  0  0
   -3.5177   -1.4955    1.4168 H   0  0  0  0  0  0  0  0  0  0  0  0
   -3.1305   -2.2124   -0.1664 H   0  0  0  0  0  0  0  0  0  0  0  0
   -1.4492   -1.3362    0.8494 C   0  0  0  0  0  0  0  0  0  0  0  0
   -0.4781   -1.8460    1.3806 O   0  0  0  0  0  0  0  0  0  0  0  0
   -1.3789   -0.0787    0.2864 N   0  0  0  0  0  0  0  0  0  0  0  0
   -2.2514    0.3335   -0.0395 H   0  0  0  0  0  0  0  0  0  0  0  0
   -0.1750    0.7603    0.1608 C   0  0  1  0  0  0  0  0  0  0  0  0
    0.5025    0.5515    0.9965 H   0  0  0  0  0  0  0  0  0  0  0  0
    0.5604    0.4951   -1.1676 C   0  0  0  0  0  0  0  0  0  0  0  0
   -0.1260    0.6749   -2.0006 H   0  0  0  0  0  0  0  0  0  0  0  0
    1.3995    1.1890   -1.2730 H   0  0  0  0  0  0  0  0  0  0  0  0
    1.0950   -0.8992   -1.2606 C   0  0  0  0  0  0  0  0  0  0  0  0
    2.2209   -1.3126   -0.5631 N   0  0  0  0  0  0  0  0  0  0  0  0
    2.3725   -2.5847   -0.8409 C   0  0  0  0  0  0  0  0  0  0  0  0
    3.1550   -3.2175   -0.4323 H   0  0  0  0  0  0  0  0  0  0  0  0
    1.4028   -2.9965   -1.7376 N   0  0  0  0  0  0  0  0  0  0  0  0
    1.2967   -3.9453   -2.0903 H   0  0  0  0  0  0  0  0  0  0  0  0
    0.5876   -1.9195   -2.0153 C   0  0  0  0  0  0  0  0  0  0  0  0
   -0.2839   -1.8797   -2.6606 H   0  0  0  0  0  0  0  0  0  0  0  0
   -0.5495    2.2538    0.2055 C   0  0  0  0  0  0  0  0  0  0  0  0
   -1.6488    2.6227   -0.1965 O   0  0  0  0  0  0  0  0  0  0  0  0
    0.3419    3.1807    0.7133 N   0  0  0  0  0  0  0  0  0  0  0  0
    1.2350    2.8339    1.0547 H   0  0  0  0  0  0  0  0  0  0  0  0
    0.0504    4.6050    0.8143 C   0  0  0  0  0  0  0  0  0  0  0  0
   -0.8304    4.7721    1.4431 H   0  0  0  0  0  0  0  0  0  0  0  0
    0.8988    5.1331    1.2603 H   0  0  0  0  0  0  0  0  0  0  0  0
   -0.1384    5.0292   -0.1774 H   0  0  0  0  0  0  0  0  0  0  0  0
  1  2  1  0  0  0  0
  2  3  1  0  0  0  0
  2  4  1  0  0  0  0
  2  5  1  0  0  0  0
  5  6  2  0  0  0  0
  5  7  1  0  0  0  0
  7  8  1  0  0  0  0
  7  9  1  0  0  0  0
  9 10  1  0  0  0  0
  9 11  1  0  0  0  0
  9 22  1  0  0  0  0
 11 12  1  0  0  0  0
 11 13  1  0  0  0  0
 11 14  1  0  0  0  0
 14 15  1  0  0  0  0
 14 20  2  0  0  0  0
 15 16  2  0  0  0  0
 16 17  1  0  0  0  0
 16 18  1  0  0  0  0
 18 19  1  0  0  0  0
 18 20  1  0  0  0  0
 20 21  1  0  0  0  0
 22 23  2  0  0  0  0
 22 24  1  0  0  0  0
 24 25  1  0  0  0  0
 24 26  1  0  0  0  0
 26 27  1  0  0  0  0
 26 28  1  0  0  0  0
 26 29  1  0  0  0  0
M  END
$$$$

  -OEChem-01062216083D

 29 29  0     1  0  0  0  0  0999 V2000
   -2.6815   -3.0371    1.3510 H   0  0  0  0  0  0  0  0  0  0  0  0
   -2.7933   -2.0555    0.8823 C   0  0  0  0  0  0  0  0  0  0  0  0
   -3.5054   -1.4663    1.4652 H   0  0  0  0  0  0  0  0  0  0  0  0
   -3.1833   -2.1903   -0.1292 H   0  0  0  0  0  0  0  0  0  0  0  0
   -1.4537   -1.3452    0.8306 C   0  0  0  0  0  0  0  0  0  0  0  0
   -0.4761   -1.8734    1.3310 O   0  0  0  0  0  0  0  0  0  0  0  0
   -1.3812   -0.0877    0.2678 N   0  0  0  0  0  0  0  0  0  0  0  0
   -2.2625    0.3515    0.0062 H   0  0  0  0  0  0  0  0  0  0  0  0
   -0.1793    0.7574    0.1577 C   0  0  1  0  0  0  0  0  0  0  0  0
    0.4920    0.5528    0.9995 H   0  0  0  0  0  0  0  0  0  0  0  0
    0.5643    0.4932   -1.1680 C   0  0  0  0  0  0  0  0  0  0  0  0
   -0.1195    0.6723   -2.0029 H   0  0  0  0  0  0  0  0  0  0  0  0
    1.4034    1.1870   -1.2715 H   0  0  0  0  0  0  0  0  0  0  0  0
    1.1040   -0.8991   -1.2640 C   0  0  0  0  0  0  0  0  0  0  0  0
    2.2286   -1.3102   -0.5630 N   0  0  0  0  0  0  0  0  0  0  0  0
    2.3861   -2.5810   -0.8443 C   0  0  0  0  0  0  0  0  0  0  0  0
    3.1684   -3.2128   -0.4337 H   0  0  0  0  0  0  0  0  0  0  0  0
    1.4233   -2.9931   -1.7482 N   0  0  0  0  0  0  0  0  0  0  0  0
    1.3198   -3.9421   -2.1010 H   0  0  0  0  0  0  0  0  0  0  0  0
    0.6054   -1.9182   -2.0262 C   0  0  0  0  0  0  0  0  0  0  0  0
   -0.2627   -1.8798   -2.6760 H   0  0  0  0  0  0  0  0  0  0  0  0
   -0.5588    2.2518    0.1961 C   0  0  0  0  0  0  0  0  0  0  0  0
   -1.7192    2.5989   -0.0039 O   0  0  0  0  0  0  0  0  0  0  0  0
    0.4115    3.2118    0.4188 N   0  0  0  0  0  0  0  0  0  0  0  0
    1.3569    2.8867    0.6053 H   0  0  0  0  0  0  0  0  0  0  0  0
    0.1327    4.6413    0.4715 C   0  0  0  0  0  0  0  0  0  0  0  0
   -0.5658    4.8658    1.2845 H   0  0  0  0  0  0  0  0  0  0  0  0
    1.0576    5.1998    0.6456 H   0  0  0  0  0  0  0  0  0  0  0  0
   -0.3036    4.9821   -0.4734 H   0  0  0  0  0  0  0  0  0  0  0  0
  1  2  1  0  0  0  0
  2  3  1  0  0  0  0
  2  4  1  0  0  0  0
  2  5  1  0  0  0  0
  5  6  2  0  0  0  0
  5  7  1  0  0  0  0
  7  8  1  0  0  0  0
  7  9  1  0  0  0  0
  9 10  1  0  0  0  0
  9 11  1  0  0  0  0
  9 22  1  0  0  0  0
 11 12  1  0  0  0  0
 11 13  1  0  0  0  0
 11 14  1  0  0  0  0
 14 15  1  0  0  0  0
 14 20  2  0  0  0  0
 15 16  2  0  0  0  0
 16 17  1  0  0  0  0
 16 18  1  0  0  0  0
 18 19  1  0  0  0  0
 18 20  1  0  0  0  0
 20 21  1  0  0  0  0
 22 23  2  0  0  0  0
 22 24  1  0  0  0  0
 24 25  1  0  0  0  0
 24 26  1  0  0  0  0
 26 27  1  0  0  0  0
 26 28  1  0  0  0  0
 26 29  1  0  0  0  0
M  END
$$$$

  -OEChem-01062216083D

 29 29  0     1  0  0  0  0  0999 V2000
   -2.6169   -3.0187    1.3677 H   0  0  0  0  0  0  0  0  0  0  0  0
   -2.7600   -2.0266    0.9306 C   0  0  0  0  0  0  0  0  0  0  0  0
   -3.3655   -1.4254    1.6132 H   0  0  0  0  0  0  0  0  0  0  0  0
   -3.2893   -2.1329   -0.0191 H   0  0  0  0  0  0  0  0  0  0  0  0
   -1.4177   -1.3571    0.7031 C   0  0  0  0  0  0  0  0  0  0  0  0
   -0.3964   -1.9378    1.0290 O   0  0  0  0  0  0  0  0  0  0  0  0
   -1.3815   -0.0893    0.1593 N   0  0  0  0  0  0  0  0  0  0  0  0
   -2.2721    0.4043    0.1284 H   0  0  0  0  0  0  0  0  0  0  0  0
   -0.1809    0.7620    0.0833 C   0  0  1  0  0  0  0  0  0  0  0  0
    0.5971    0.3820    0.7551 H   0  0  0  0  0  0  0  0  0  0  0  0
    0.3542    0.7621   -1.3627 C   0  0  0  0  0  0  0  0  0  0  0  0
   -0.4335    1.1055   -2.0395 H   0  0  0  0  0  0  0  0  0  0  0  0
    1.1985    1.4502   -1.4568 H   0  0  0  0  0  0  0  0  0  0  0  0
    0.8170   -0.5973   -1.7863 C   0  0  0  0  0  0  0  0  0  0  0  0
    2.0095   -1.1499   -1.3422 N   0  0  0  0  0  0  0  0  0  0  0  0
    2.0735   -2.3486   -1.8690 C   0  0  0  0  0  0  0  0  0  0  0  0
    2.8796   -3.0566   -1.7000 H   0  0  0  0  0  0  0  0  0  0  0  0
    0.9749   -2.5723   -2.6793 N   0  0  0  0  0  0  0  0  0  0  0  0
    0.7849   -3.4361   -3.1827 H   0  0  0  0  0  0  0  0  0  0  0  0
    0.1714   -1.4524   -2.6348 C   0  0  0  0  0  0  0  0  0  0  0  0
   -0.7789   -1.2816   -3.1303 H   0  0  0  0  0  0  0  0  0  0  0  0
   -0.5012    2.2098    0.5145 C   0  0  0  0  0  0  0  0  0  0  0  0
   -1.6560    2.5330    0.7769 O   0  0  0  0  0  0  0  0  0  0  0  0
    0.4878    3.1770    0.5194 N   0  0  0  0  0  0  0  0  0  0  0  0
    1.4395    2.8718    0.3322 H   0  0  0  0  0  0  0  0  0  0  0  0
    0.2543    4.5642    0.9015 C   0  0  0  0  0  0  0  0  0  0  0  0
   -0.1121    4.6223    1.9319 H   0  0  0  0  0  0  0  0  0  0  0  0
    1.1845    5.1363    0.8324 H   0  0  0  0  0  0  0  0  0  0  0  0
   -0.4846    5.0253    0.2379 H   0  0  0  0  0  0  0  0  0  0  0  0
  1  2  1  0  0  0  0
  2  3  1  0  0  0  0
  2  4  1  0  0  0  0
  2  5  1  0  0  0  0
  5  6  2  0  0  0  0
  5  7  1  0  0  0  0
  7  8  1  0  0  0  0
  7  9  1  0  0  0  0
  9 10  1  0  0  0  0
  9 11  1  0  0  0  0
  9 22  1  0  0  0  0
 11 12  1  0  0  0  0
 11 13  1  0  0  0  0
 11 14  1  0  0  0  0
 14 15  1  0  0  0  0
 14 20  2  0  0  0  0
 15 16  2  0  0  0  0
 16 17  1  0  0  0  0
 16 18  1  0  0  0  0
 18 19  1  0  0  0  0
 18 20  1  0  0  0  0
 20 21  1  0  0  0  0
 22 23  2  0  0  0  0
 22 24  1  0  0  0  0
 24 25  1  0  0  0  0
 24 26  1  0  0  0  0
 26 27  1  0  0  0  0
 26 28  1  0  0  0  0
 26 29  1  0  0  0  0
M  END
$$$$

  -OEChem-01062216083D

 29 29  0     1  0  0  0  0  0999 V2000
   -2.6180   -2.9945    1.3942 H   0  0  0  0  0  0  0  0  0  0  0  0
   -2.7577   -2.0051    0.9499 C   0  0  0  0  0  0  0  0  0  0  0  0
   -3.3409   -1.3892    1.6389 H   0  0  0  0  0  0  0  0  0  0  0  0
   -3.3080   -2.1136    0.0124 H   0  0  0  0  0  0  0  0  0  0  0  0
   -1.4125   -1.3547    0.6879 C   0  0  0  0  0  0  0  0  0  0  0  0
   -0.3918   -1.9504    0.9868 O   0  0  0  0  0  0  0  0  0  0  0  0
   -1.3756   -0.0863    0.1456 N   0  0  0  0  0  0  0  0  0  0  0  0
   -2.2602    0.4185    0.1652 H   0  0  0  0  0  0  0  0  0  0  0  0
   -0.1707    0.7602    0.0768 C   0  0  1  0  0  0  0  0  0  0  0  0
    0.6048    0.3801    0.7516 H   0  0  0  0  0  0  0  0  0  0  0  0
    0.3672    0.7508   -1.3703 C   0  0  0  0  0  0  0  0  0  0  0  0
   -0.4163    1.0997   -2.0494 H   0  0  0  0  0  0  0  0  0  0  0  0
    1.2192    1.4284   -1.4661 H   0  0  0  0  0  0  0  0  0  0  0  0
    0.8249   -0.6102   -1.7943 C   0  0  0  0  0  0  0  0  0  0  0  0
    2.0149   -1.1689   -1.3512 N   0  0  0  0  0  0  0  0  0  0  0  0
    2.0726   -2.3673   -1.8796 C   0  0  0  0  0  0  0  0  0  0  0  0
    2.8756   -3.0791   -1.7121 H   0  0  0  0  0  0  0  0  0  0  0  0
    0.9729   -2.5848   -2.6900 N   0  0  0  0  0  0  0  0  0  0  0  0
    0.7772   -3.4480   -3.1925 H   0  0  0  0  0  0  0  0  0  0  0  0
    0.1751   -1.4612   -2.6436 C   0  0  0  0  0  0  0  0  0  0  0  0
   -0.7750   -1.2858   -3.1377 H   0  0  0  0  0  0  0  0  0  0  0  0
   -0.5008    2.2072    0.5131 C   0  0  0  0  0  0  0  0  0  0  0  0
   -1.6043    2.4664    0.9841 O   0  0  0  0  0  0  0  0  0  0  0  0
    0.3695    3.2511    0.2507 N   0  0  0  0  0  0  0  0  0  0  0  0
    1.2896    3.0120   -0.1092 H   0  0  0  0  0  0  0  0  0  0  0  0
    0.0878    4.6391    0.5956 C   0  0  0  0  0  0  0  0  0  0  0  0
   -0.0841    4.7395    1.6724 H   0  0  0  0  0  0  0  0  0  0  0  0
    0.9336    5.2762    0.3198 H   0  0  0  0  0  0  0  0  0  0  0  0
   -0.8001    4.9934    0.0617 H   0  0  0  0  0  0  0  0  0  0  0  0
  1  2  1  0  0  0  0
  2  3  1  0  0  0  0
  2  4  1  0  0  0  0
  2  5  1  0  0  0  0
  5  6  2  0  0  0  0
  5  7  1  0  0  0  0
  7  8  1  0  0  0  0
  7  9  1  0  0  0  0
  9 10  1  0  0  0  0
  9 11  1  0  0  0  0
  9 22  1  0  0  0  0
 11 12  1  0  0  0  0
 11 13  1  0  0  0  0
 11 14  1  0  0  0  0
 14 15  1  0  0  0  0
 14 20  2  0  0  0  0
 15 16  2  0  0  0  0
 16 17  1  0  0  0  0
 16 18  1  0  0  0  0
 18 19  1  0  0  0  0
 18 20  1  0  0  0  0
 20 21  1  0  0  0  0
 22 23  2  0  0  0  0
 22 24  1  0  0  0  0
 24 25  1  0  0  0  0
 24 26  1  0  0  0  0
 26 27  1  0  0  0  0
 26 28  1  0  0  0  0
 26 29  1  0  0  0  0
M  END
$$$$

  -OEChem-01062216083D

 29 29  0     1  0  0  0  0  0999 V2000
   -2.6061   -2.9871    1.3920 H   0  0  0  0  0  0  0  0  0  0  0  0
   -2.7521   -1.9945    0.9564 C   0  0  0  0  0  0  0  0  0  0  0  0
   -3.3157   -1.3801    1.6628 H   0  0  0  0  0  0  0  0  0  0  0  0
   -3.3255   -2.0960    0.0321 H   0  0  0  0  0  0  0  0  0  0  0  0
   -1.4101   -1.3488    0.6663 C   0  0  0  0  0  0  0  0  0  0  0  0
   -0.3867   -1.9525    0.9384 O   0  0  0  0  0  0  0  0  0  0  0  0
   -1.3794   -0.0781    0.1275 N   0  0  0  0  0  0  0  0  0  0  0  0
   -2.2617    0.4273    0.1789 H   0  0  0  0  0  0  0  0  0  0  0  0
   -0.1724    0.7667    0.0560 C   0  0  1  0  0  0  0  0  0  0  0  0
    0.6023    0.3876    0.7325 H   0  0  0  0  0  0  0  0  0  0  0  0
    0.3702    0.7442   -1.3909 C   0  0  0  0  0  0  0  0  0  0  0  0
   -0.4093    1.0907   -2.0759 H   0  0  0  0  0  0  0  0  0  0  0  0
    1.2279    1.4145   -1.4876 H   0  0  0  0  0  0  0  0  0  0  0  0
    0.8270   -0.6210   -1.8029 C   0  0  0  0  0  0  0  0  0  0  0  0
    2.0151   -1.1765   -1.3514 N   0  0  0  0  0  0  0  0  0  0  0  0
    2.0718   -2.3811   -1.8653 C   0  0  0  0  0  0  0  0  0  0  0  0
    2.8724   -3.0928   -1.6861 H   0  0  0  0  0  0  0  0  0  0  0  0
    0.9744   -2.6051   -2.6774 N   0  0  0  0  0  0  0  0  0  0  0  0
    0.7789   -3.4734   -3.1710 H   0  0  0  0  0  0  0  0  0  0  0  0
    0.1777   -1.4800   -2.6446 C   0  0  0  0  0  0  0  0  0  0  0  0
   -0.7720   -1.3096   -3.1410 H   0  0  0  0  0  0  0  0  0  0  0  0
   -0.5052    2.2125    0.5016 C   0  0  0  0  0  0  0  0  0  0  0  0
   -1.4964    2.4186    1.1946 O   0  0  0  0  0  0  0  0  0  0  0  0
    0.1783    3.3063   -0.0028 N   0  0  0  0  0  0  0  0  0  0  0  0
    1.0118    3.1208   -0.5532 H   0  0  0  0  0  0  0  0  0  0  0  0
   -0.1381    4.6862    0.3461 C   0  0  0  0  0  0  0  0  0  0  0  0
   -0.0596    4.8365    1.4280 H   0  0  0  0  0  0  0  0  0  0  0  0
    0.5587    5.3692   -0.1492 H   0  0  0  0  0  0  0  0  0  0  0  0
   -1.1547    4.9392    0.0275 H   0  0  0  0  0  0  0  0  0  0  0  0
  1  2  1  0  0  0  0
  2  3  1  0  0  0  0
  2  4  1  0  0  0  0
  2  5  1  0  0  0  0
  5  6  2  0  0  0  0
  5  7  1  0  0  0  0
  7  8  1  0  0  0  0
  7  9  1  0  0  0  0
  9 10  1  0  0  0  0
  9 11  1  0  0  0  0
  9 22  1  0  0  0  0
 11 12  1  0  0  0  0
 11 13  1  0  0  0  0
 11 14  1  0  0  0  0
 14 15  1  0  0  0  0
 14 20  2  0  0  0  0
 15 16  2  0  0  0  0
 16 17  1  0  0  0  0
 16 18  1  0  0  0  0
 18 19  1  0  0  0  0
 18 20  1  0  0  0  0
 20 21  1  0  0  0  0
 22 23  2  0  0  0  0
 22 24  1  0  0  0  0
 24 25  1  0  0  0  0
 24 26  1  0  0  0  0
 26 27  1  0  0  0  0
 26 28  1  0  0  0  0
 26 29  1  0  0  0  0
M  END
$$$$

  -OEChem-01062216083D

 29 29  0     1  0  0  0  0  0999 V2000
   -2.6093   -2.9694    1.4119 H   0  0  0  0  0  0  0  0  0  0  0  0
   -2.7531   -1.9796    0.9694 C   0  0  0  0  0  0  0  0  0  0  0  0
   -3.3066   -1.3563    1.6760 H   0  0  0  0  0  0  0  0  0  0  0  0
   -3.3355   -2.0852    0.0512 H   0  0  0  0  0  0  0  0  0  0  0  0
   -1.4107   -1.3438    0.6605 C   0  0  0  0  0  0  0  0  0  0  0  0
   -0.3886   -1.9592    0.9094 O   0  0  0  0  0  0  0  0  0  0  0  0
   -1.3814   -0.0723    0.1226 N   0  0  0  0  0  0  0  0  0  0  0  0
   -2.2617    0.4332    0.1899 H   0  0  0  0  0  0  0  0  0  0  0  0
   -0.1717    0.7682    0.0435 C   0  0  1  0  0  0  0  0  0  0  0  0
    0.6023    0.3900    0.7216 H   0  0  0  0  0  0  0  0  0  0  0  0
    0.3773    0.7376   -1.4010 C   0  0  0  0  0  0  0  0  0  0  0  0
   -0.3975    1.0817   -2.0922 H   0  0  0  0  0  0  0  0  0  0  0  0
    1.2371    1.4067   -1.4916 H   0  0  0  0  0  0  0  0  0  0  0  0
    0.8348   -0.6288   -1.8084 C   0  0  0  0  0  0  0  0  0  0  0  0
    2.0204   -1.1850   -1.3521 N   0  0  0  0  0  0  0  0  0  0  0  0
    2.0768   -2.3912   -1.8621 C   0  0  0  0  0  0  0  0  0  0  0  0
    2.8761   -3.1034   -1.6785 H   0  0  0  0  0  0  0  0  0  0  0  0
    0.9813   -2.6159   -2.6766 N   0  0  0  0  0  0  0  0  0  0  0  0
    0.7832   -3.4869   -3.1645 H   0  0  0  0  0  0  0  0  0  0  0  0
    0.1866   -1.4892   -2.6497 C   0  0  0  0  0  0  0  0  0  0  0  0
   -0.7617   -1.3195   -3.1489 H   0  0  0  0  0  0  0  0  0  0  0  0
   -0.5054    2.2121    0.4950 C   0  0  0  0  0  0  0  0  0  0  0  0
   -1.3364    2.3851    1.3796 O   0  0  0  0  0  0  0  0  0  0  0  0
   -0.0644    3.3237   -0.2048 N   0  0  0  0  0  0  0  0  0  0  0  0
    0.6277    3.1730   -0.9328 H   0  0  0  0  0  0  0  0  0  0  0  0
   -0.4288    4.6918    0.1442 C   0  0  0  0  0  0  0  0  0  0  0  0
   -0.1367    4.9157    1.1756 H   0  0  0  0  0  0  0  0  0  0  0  0
    0.0780    5.3991   -0.5191 H   0  0  0  0  0  0  0  0  0  0  0  0
   -1.5094    4.8373    0.0438 H   0  0  0  0  0  0  0  0  0  0  0  0
  1  2  1  0  0  0  0
  2  3  1  0  0  0  0
  2  4  1  0  0  0  0
  2  5  1  0  0  0  0
  5  6  2  0  0  0  0
  5  7  1  0  0  0  0
  7  8  1  0  0  0  0
  7  9  1  0  0  0  0
  9 10  1  0  0  0  0
  9 11  1  0  0  0  0
  9 22  1  0  0  0  0
 11 12  1  0  0  0  0
 11 13  1  0  0  0  0
 11 14  1  0  0  0  0
 14 15  1  0  0  0  0
 14 20  2  0  0  0  0
 15 16  2  0  0  0  0
 16 17  1  0  0  0  0
 16 18  1  0  0  0  0
 18 19  1  0  0  0  0
 18 20  1  0  0  0  0
 20 21  1  0  0  0  0
 22 23  2  0  0  0  0
 22 24  1  0  0  0  0
 24 25  1  0  0  0  0
 24 26  1  0  0  0  0
 26 27  1  0  0  0  0
 26 28  1  0  0  0  0
 26 29  1  0  0  0  0
M  END
$$$$

  -OEChem-01062216083D

 29 29  0     1  0  0  0  0  0999 V2000
   -2.6054   -2.9748    1.4102 H   0  0  0  0  0  0  0  0  0  0  0  0
   -2.7547   -1.9822    0.9760 C   0  0  0  0  0  0  0  0  0  0  0  0
   -3.3021   -1.3646    1.6923 H   0  0  0  0  0  0  0  0  0  0  0  0
   -3.3456   -2.0822    0.0628 H   0  0  0  0  0  0  0  0  0  0  0  0
   -1.4153   -1.3433    0.6596 C   0  0  0  0  0  0  0  0  0  0  0  0
   -0.3912   -1.9590    0.8987 O   0  0  0  0  0  0  0  0  0  0  0  0
   -1.3915   -0.0715    0.1214 N   0  0  0  0  0  0  0  0  0  0  0  0
   -2.2768    0.4252    0.1758 H   0  0  0  0  0  0  0  0  0  0  0  0
   -0.1830    0.7706    0.0362 C   0  0  1  0  0  0  0  0  0  0  0  0
    0.5910    0.3940    0.7153 H   0  0  0  0  0  0  0  0  0  0  0  0
    0.3724    0.7385   -1.4053 C   0  0  0  0  0  0  0  0  0  0  0  0
   -0.4009    1.0746   -2.1019 H   0  0  0  0  0  0  0  0  0  0  0  0
    1.2275    1.4151   -1.4899 H   0  0  0  0  0  0  0  0  0  0  0  0
    0.8366   -0.6272   -1.8079 C   0  0  0  0  0  0  0  0  0  0  0  0
    2.0218   -1.1792   -1.3457 N   0  0  0  0  0  0  0  0  0  0  0  0
    2.0829   -2.3869   -1.8513 C   0  0  0  0  0  0  0  0  0  0  0  0
    2.8821   -3.0974   -1.6613 H   0  0  0  0  0  0  0  0  0  0  0  0
    0.9922   -2.6158   -2.6708 N   0  0  0  0  0  0  0  0  0  0  0  0
    0.7996   -3.4884   -3.1579 H   0  0  0  0  0  0  0  0  0  0  0  0
    0.1947   -1.4910   -2.6507 C   0  0  0  0  0  0  0  0  0  0  0  0
   -0.7516   -1.3255   -3.1552 H   0  0  0  0  0  0  0  0  0  0  0  0
   -0.5146    2.2131    0.4890 C   0  0  0  0  0  0  0  0  0  0  0  0
   -1.1340    2.3831    1.5317 O   0  0  0  0  0  0  0  0  0  0  0  0
   -0.3510    3.3030   -0.3512 N   0  0  0  0  0  0  0  0  0  0  0  0
    0.1612    3.1536   -1.2152 H   0  0  0  0  0  0  0  0  0  0  0  0
   -0.7402    4.6620    0.0072 C   0  0  0  0  0  0  0  0  0  0  0  0
   -0.2181    4.9835    0.9145 H   0  0  0  0  0  0  0  0  0  0  0  0
   -0.4855    5.3534   -0.8017 H   0  0  0  0  0  0  0  0  0  0  0  0
   -1.8197    4.7184    0.1823 H   0  0  0  0  0  0  0  0  0  0  0  0
  1  2  1  0  0  0  0
  2  3  1  0  0  0  0
  2  4  1  0  0  0  0
  2  5  1  0  0  0  0
  5  6  2  0  0  0  0
  5  7  1  0  0  0  0
  7  8  1  0  0  0  0
  7  9  1  0  0  0  0
  9 10  1  0  0  0  0
  9 11  1  0  0  0  0
  9 22  1  0  0  0  0
 11 12  1  0  0  0  0
 11 13  1  0  0  0  0
 11 14  1  0  0  0  0
 14 15  1  0  0  0  0
 14 20  2  0  0  0  0
 15 16  2  0  0  0  0
 16 17  1  0  0  0  0
 16 18  1  0  0  0  0
 18 19  1  0  0  0  0
 18 20  1  0  0  0  0
 20 21  1  0  0  0  0
 22 23  2  0  0  0  0
 22 24  1  0  0  0  0
 24 25  1  0  0  0  0
 24 26  1  0  0  0  0
 26 27  1  0  0  0  0
 26 28  1  0  0  0  0
 26 29  1  0  0  0  0
M  END
$$$$

  -OEChem-01062216083D

 29 29  0     1  0  0  0  0  0999 V2000
   -2.5984   -2.9857    1.4079 H   0  0  0  0  0  0  0  0  0  0  0  0
   -2.7521   -1.9961    0.9686 C   0  0  0  0  0  0  0  0  0  0  0  0
   -3.3158   -1.3826    1.6757 H   0  0  0  0  0  0  0  0  0  0  0  0
   -3.3292   -2.1052    0.0475 H   0  0  0  0  0  0  0  0  0  0  0  0
   -1.4150   -1.3444    0.6694 C   0  0  0  0  0  0  0  0  0  0  0  0
   -0.3882   -1.9517    0.9174 O   0  0  0  0  0  0  0  0  0  0  0  0
   -1.3976   -0.0727    0.1305 N   0  0  0  0  0  0  0  0  0  0  0  0
   -2.2917    0.4092    0.1479 H   0  0  0  0  0  0  0  0  0  0  0  0
   -0.1941    0.7752    0.0358 C   0  0  1  0  0  0  0  0  0  0  0  0
    0.5848    0.4022    0.7117 H   0  0  0  0  0  0  0  0  0  0  0  0
    0.3581    0.7428   -1.4065 C   0  0  0  0  0  0  0  0  0  0  0  0
   -0.4195    1.0660   -2.1041 H   0  0  0  0  0  0  0  0  0  0  0  0
    1.2047    1.4303   -1.4939 H   0  0  0  0  0  0  0  0  0  0  0  0
    0.8298   -0.6218   -1.8057 C   0  0  0  0  0  0  0  0  0  0  0  0
    2.0191   -1.1645   -1.3442 N   0  0  0  0  0  0  0  0  0  0  0  0
    2.0878   -2.3739   -1.8440 C   0  0  0  0  0  0  0  0  0  0  0  0
    2.8923   -3.0778   -1.6521 H   0  0  0  0  0  0  0  0  0  0  0  0
    0.9969   -2.6141   -2.6599 N   0  0  0  0  0  0  0  0  0  0  0  0
    0.8098   -3.4900   -3.1431 H   0  0  0  0  0  0  0  0  0  0  0  0
    0.1921   -1.4943   -2.6432 C   0  0  0  0  0  0  0  0  0  0  0  0
   -0.7559   -1.3384   -3.1470 H   0  0  0  0  0  0  0  0  0  0  0  0
   -0.5223    2.2166    0.4877 C   0  0  0  0  0  0  0  0  0  0  0  0
   -0.8800    2.4162    1.6407 O   0  0  0  0  0  0  0  0  0  0  0  0
   -0.6620    3.2510   -0.4237 N   0  0  0  0  0  0  0  0  0  0  0  0
   -0.3628    3.0762   -1.3780 H   0  0  0  0  0  0  0  0  0  0  0  0
   -1.0634    4.6021   -0.0500 C   0  0  0  0  0  0  0  0  0  0  0  0
   -0.3676    5.0194    0.6856 H   0  0  0  0  0  0  0  0  0  0  0  0
   -1.0672    5.2521   -0.9302 H   0  0  0  0  0  0  0  0  0  0  0  0
   -2.0703    4.5972    0.3802 H   0  0  0  0  0  0  0  0  0  0  0  0
  1  2  1  0  0  0  0
  2  3  1  0  0  0  0
  2  4  1  0  0  0  0
  2  5  1  0  0  0  0
  5  6  2  0  0  0  0
  5  7  1  0  0  0  0
  7  8  1  0  0  0  0
  7  9  1  0  0  0  0
  9 10  1  0  0  0  0
  9 11  1  0  0  0  0
  9 22  1  0  0  0  0
 11 12  1  0  0  0  0
 11 13  1  0  0  0  0
 11 14  1  0  0  0  0
 14 15  1  0  0  0  0
 14 20  2  0  0  0  0
 15 16  2  0  0  0  0
 16 17  1  0  0  0  0
 16 18  1  0  0  0  0
 18 19  1  0  0  0  0
 18 20  1  0  0  0  0
 20 21  1  0  0  0  0
 22 23  2  0  0  0  0
 22 24  1  0  0  0  0
 24 25  1  0  0  0  0
 24 26  1  0  0  0  0
 26 27  1  0  0  0  0
 26 28  1  0  0  0  0
 26 29  1  0  0  0  0
M  END
$$$$

  -OEChem-01062216083D

 29 29  0     1  0  0  0  0  0999 V2000
   -2.5949   -3.0062    1.4031 H   0  0  0  0  0  0  0  0  0  0  0  0
   -2.7532   -2.0176    0.9630 C   0  0  0  0  0  0  0  0  0  0  0  0
   -3.3337   -1.4113    1.6626 H   0  0  0  0  0  0  0  0  0  0  0  0
   -3.3158   -2.1314    0.0335 H   0  0  0  0  0  0  0  0  0  0  0  0
   -1.4190   -1.3514    0.6842 C   0  0  0  0  0  0  0  0  0  0  0  0
   -0.3903   -1.9477    0.9480 O   0  0  0  0  0  0  0  0  0  0  0  0
   -1.4064   -0.0800    0.1437 N   0  0  0  0  0  0  0  0  0  0  0  0
   -2.3081    0.3862    0.1187 H   0  0  0  0  0  0  0  0  0  0  0  0
   -0.2077    0.7746    0.0425 C   0  0  1  0  0  0  0  0  0  0  0  0
    0.5750    0.4034    0.7155 H   0  0  0  0  0  0  0  0  0  0  0  0
    0.3435    0.7505   -1.3995 C   0  0  0  0  0  0  0  0  0  0  0  0
   -0.4349    1.0673   -2.0982 H   0  0  0  0  0  0  0  0  0  0  0  0
    1.1834    1.4468   -1.4854 H   0  0  0  0  0  0  0  0  0  0  0  0
    0.8232   -0.6112   -1.7991 C   0  0  0  0  0  0  0  0  0  0  0  0
    2.0154   -1.1473   -1.3377 N   0  0  0  0  0  0  0  0  0  0  0  0
    2.0928   -2.3554   -1.8393 C   0  0  0  0  0  0  0  0  0  0  0  0
    2.9018   -3.0544   -1.6480 H   0  0  0  0  0  0  0  0  0  0  0  0
    1.0036   -2.6011   -2.6559 N   0  0  0  0  0  0  0  0  0  0  0  0
    0.8224   -3.4774   -3.1407 H   0  0  0  0  0  0  0  0  0  0  0  0
    0.1914   -1.4867   -2.6382 C   0  0  0  0  0  0  0  0  0  0  0  0
   -0.7566   -1.3363   -3.1439 H   0  0  0  0  0  0  0  0  0  0  0  0
   -0.5359    2.2151    0.4916 C   0  0  0  0  0  0  0  0  0  0  0  0
   -0.5950    2.4820    1.6833 O   0  0  0  0  0  0  0  0  0  0  0  0
   -0.9807    3.1642   -0.4148 N   0  0  0  0  0  0  0  0  0  0  0  0
   -0.9164    2.9347   -1.4015 H   0  0  0  0  0  0  0  0  0  0  0  0
   -1.3775    4.5141   -0.0314 C   0  0  0  0  0  0  0  0  0  0  0  0
   -0.5484    5.0320    0.4622 H   0  0  0  0  0  0  0  0  0  0  0  0
   -1.6665    5.0893   -0.9161 H   0  0  0  0  0  0  0  0  0  0  0  0
   -2.2312    4.4823    0.6536 H   0  0  0  0  0  0  0  0  0  0  0  0
  1  2  1  0  0  0  0
  2  3  1  0  0  0  0
  2  4  1  0  0  0  0
  2  5  1  0  0  0  0
  5  6  2  0  0  0  0
  5  7  1  0  0  0  0
  7  8  1  0  0  0  0
  7  9  1  0  0  0  0
  9 10  1  0  0  0  0
  9 11  1  0  0  0  0
  9 22  1  0  0  0  0
 11 12  1  0  0  0  0
 11 13  1  0  0  0  0
 11 14  1  0  0  0  0
 14 15  1  0  0  0  0
 14 20  2  0  0  0  0
 15 16  2  0  0  0  0
 16 17  1  0  0  0  0
 16 18  1  0  0  0  0
 18 19  1  0  0  0  0
 18 20  1  0  0  0  0
 20 21  1  0  0  0  0
 22 23  2  0  0  0  0
 22 24  1  0  0  0  0
 24 25  1  0  0  0  0
 24 26  1  0  0  0  0
 26 27  1  0  0  0  0
 26 28  1  0  0  0  0
 26 29  1  0  0  0  0
M  END
$$$$

  -OEChem-01062216083D

 29 29  0     1  0  0  0  0  0999 V2000
   -2.5953   -3.0367    1.3960 H   0  0  0  0  0  0  0  0  0  0  0  0
   -2.7567   -2.0472    0.9589 C   0  0  0  0  0  0  0  0  0  0  0  0
   -3.3549   -1.4515    1.6526 H   0  0  0  0  0  0  0  0  0  0  0  0
   -3.3031   -2.1621    0.0200 H   0  0  0  0  0  0  0  0  0  0  0  0
   -1.4251   -1.3653    0.7054 C   0  0  0  0  0  0  0  0  0  0  0  0
   -0.3948   -1.9487    0.9896 O   0  0  0  0  0  0  0  0  0  0  0  0
   -1.4164   -0.0941    0.1635 N   0  0  0  0  0  0  0  0  0  0  0  0
   -2.3236    0.3569    0.0996 H   0  0  0  0  0  0  0  0  0  0  0  0
   -0.2224    0.7682    0.0653 C   0  0  1  0  0  0  0  0  0  0  0  0
    0.5629    0.3993    0.7368 H   0  0  0  0  0  0  0  0  0  0  0  0
    0.3287    0.7602   -1.3754 C   0  0  0  0  0  0  0  0  0  0  0  0
   -0.4487    1.0822   -2.0728 H   0  0  0  0  0  0  0  0  0  0  0  0
    1.1644    1.4628   -1.4520 H   0  0  0  0  0  0  0  0  0  0  0  0
    0.8166   -0.5962   -1.7853 C   0  0  0  0  0  0  0  0  0  0  0  0
    2.0109   -1.1326   -1.3296 N   0  0  0  0  0  0  0  0  0  0  0  0
    2.0957   -2.3339   -1.8456 C   0  0  0  0  0  0  0  0  0  0  0  0
    2.9096   -3.0298   -1.6633 H   0  0  0  0  0  0  0  0  0  0  0  0
    1.0072   -2.5763   -2.6642 N   0  0  0  0  0  0  0  0  0  0  0  0
    0.8342   -3.4457   -3.1643 H   0  0  0  0  0  0  0  0  0  0  0  0
    0.1889   -1.4663   -2.6334 C   0  0  0  0  0  0  0  0  0  0  0  0
   -0.7591   -1.3150   -3.1387 H   0  0  0  0  0  0  0  0  0  0  0  0
   -0.5560    2.2073    0.5095 C   0  0  0  0  0  0  0  0  0  0  0  0
   -0.3069    2.5798    1.6467 O   0  0  0  0  0  0  0  0  0  0  0  0
   -1.2835    3.0461   -0.3193 N   0  0  0  0  0  0  0  0  0  0  0  0
   -1.4403    2.7383   -1.2736 H   0  0  0  0  0  0  0  0  0  0  0  0
   -1.6611    4.4048    0.0520 C   0  0  0  0  0  0  0  0  0  0  0  0
   -0.7696    5.0115    0.2432 H   0  0  0  0  0  0  0  0  0  0  0  0
   -2.2322    4.8728   -0.7556 H   0  0  0  0  0  0  0  0  0  0  0  0
   -2.2822    4.3972    0.9540 H   0  0  0  0  0  0  0  0  0  0  0  0
  1  2  1  0  0  0  0
  2  3  1  0  0  0  0
  2  4  1  0  0  0  0
  2  5  1  0  0  0  0
  5  6  2  0  0  0  0
  5  7  1  0  0  0  0
  7  8  1  0  0  0  0
  7  9  1  0  0  0  0
  9 10  1  0  0  0  0
  9 11  1  0  0  0  0
  9 22  1  0  0  0  0
 11 12  1  0  0  0  0
 11 13  1  0  0  0  0
 11 14  1  0  0  0  0
 14 15  1  0  0  0  0
 14 20  2  0  0  0  0
 15 16  2  0  0  0  0
 16 17  1  0  0  0  0
 16 18  1  0  0  0  0
 18 19  1  0  0  0  0
 18 20  1  0  0  0  0
 20 21  1  0  0  0  0
 22 23  2  0  0  0  0
 22 24  1  0  0  0  0
 24 25  1  0  0  0  0
 24 26  1  0  0  0  0
 26 27  1  0  0  0  0
 26 28  1  0  0  0  0
 26 29  1  0  0  0  0
M  END
$$$$

  -OEChem-01062216083D

 29 29  0     1  0  0  0  0  0999 V2000
   -2.5817   -3.0748    1.3870 H   0  0  0  0  0  0  0  0  0  0  0  0
   -2.7493   -2.0863    0.9497 C   0  0  0  0  0  0  0  0  0  0  0  0
   -3.3776   -1.5050    1.6288 H   0  0  0  0  0  0  0  0  0  0  0  0
   -3.2670   -2.2079   -0.0045 H   0  0  0  0  0  0  0  0  0  0  0  0
   -1.4240   -1.3790    0.7350 C   0  0  0  0  0  0  0  0  0  0  0  0
   -0.3924   -1.9428    1.0508 O   0  0  0  0  0  0  0  0  0  0  0  0
   -1.4214   -0.1089    0.1904 N   0  0  0  0  0  0  0  0  0  0  0  0
   -2.3321    0.3304    0.1054 H   0  0  0  0  0  0  0  0  0  0  0  0
   -0.2311    0.7606    0.0961 C   0  0  1  0  0  0  0  0  0  0  0  0
    0.5577    0.3935    0.7648 H   0  0  0  0  0  0  0  0  0  0  0  0
    0.3134    0.7688   -1.3457 C   0  0  0  0  0  0  0  0  0  0  0  0
   -0.4663    1.0996   -2.0366 H   0  0  0  0  0  0  0  0  0  0  0  0
    1.1469    1.4742   -1.4179 H   0  0  0  0  0  0  0  0  0  0  0  0
    0.8047   -0.5824   -1.7698 C   0  0  0  0  0  0  0  0  0  0  0  0
    2.0022   -1.1227   -1.3263 N   0  0  0  0  0  0  0  0  0  0  0  0
    2.0891   -2.3162   -1.8597 C   0  0  0  0  0  0  0  0  0  0  0  0
    2.9067   -3.0116   -1.6919 H   0  0  0  0  0  0  0  0  0  0  0  0
    0.9968   -2.5512   -2.6752 N   0  0  0  0  0  0  0  0  0  0  0  0
    0.8260   -3.4130   -3.1889 H   0  0  0  0  0  0  0  0  0  0  0  0
    0.1759   -1.4437   -2.6262 C   0  0  0  0  0  0  0  0  0  0  0  0
   -0.7730   -1.2867   -3.1278 H   0  0  0  0  0  0  0  0  0  0  0  0
   -0.5679    2.1997    0.5341 C   0  0  0  0  0  0  0  0  0  0  0  0
   -0.0474    2.6943    1.5231 O   0  0  0  0  0  0  0  0  0  0  0  0
   -1.5388    2.9193   -0.1440 N   0  0  0  0  0  0  0  0  0  0  0  0
   -1.8804    2.5313   -1.0173 H   0  0  0  0  0  0  0  0  0  0  0  0
   -1.9031    4.2874    0.2060 C   0  0  0  0  0  0  0  0  0  0  0  0
   -1.0318    4.9471    0.1332 H   0  0  0  0  0  0  0  0  0  0  0  0
   -2.6768    4.6587   -0.4729 H   0  0  0  0  0  0  0  0  0  0  0  0
   -2.2925    4.3301    1.2288 H   0  0  0  0  0  0  0  0  0  0  0  0
  1  2  1  0  0  0  0
  2  3  1  0  0  0  0
  2  4  1  0  0  0  0
  2  5  1  0  0  0  0
  5  6  2  0  0  0  0
  5  7  1  0  0  0  0
  7  8  1  0  0  0  0
  7  9  1  0  0  0  0
  9 10  1  0  0  0  0
  9 11  1  0  0  0  0
  9 22  1  0  0  0  0
 11 12  1  0  0  0  0
 11 13  1  0  0  0  0
 11 14  1  0  0  0  0
 14 15  1  0  0  0  0
 14 20  2  0  0  0  0
 15 16  2  0  0  0  0
 16 17  1  0  0  0  0
 16 18  1  0  0  0  0
 18 19  1  0  0  0  0
 18 20  1  0  0  0  0
 20 21  1  0  0  0  0
 22 23  2  0  0  0  0
 22 24  1  0  0  0  0
 24 25  1  0  0  0  0
 24 26  1  0  0  0  0
 26 27  1  0  0  0  0
 26 28  1  0  0  0  0
 26 29  1  0  0  0  0
M  END
$$$$

  -OEChem-01062216083D

 29 29  0     1  0  0  0  0  0999 V2000
   -2.5673   -3.1208    1.3793 H   0  0  0  0  0  0  0  0  0  0  0  0
   -2.7437   -2.1364    0.9363 C   0  0  0  0  0  0  0  0  0  0  0  0
   -3.3995   -1.5666    1.5989 H   0  0  0  0  0  0  0  0  0  0  0  0
   -3.2354   -2.2691   -0.0301 H   0  0  0  0  0  0  0  0  0  0  0  0
   -1.4268   -1.4050    0.7531 C   0  0  0  0  0  0  0  0  0  0  0  0
   -0.3934   -1.9491    1.0959 O   0  0  0  0  0  0  0  0  0  0  0  0
   -1.4330   -0.1332    0.2118 N   0  0  0  0  0  0  0  0  0  0  0  0
   -2.3481    0.2885    0.1007 H   0  0  0  0  0  0  0  0  0  0  0  0
   -0.2481    0.7474    0.1266 C   0  0  1  0  0  0  0  0  0  0  0  0
    0.5429    0.3801    0.7921 H   0  0  0  0  0  0  0  0  0  0  0  0
    0.2923    0.7728   -1.3152 C   0  0  0  0  0  0  0  0  0  0  0  0
   -0.4915    1.1084   -1.9991 H   0  0  0  0  0  0  0  0  0  0  0  0
    1.1226    1.4829   -1.3821 H   0  0  0  0  0  0  0  0  0  0  0  0
    0.7912   -0.5717   -1.7517 C   0  0  0  0  0  0  0  0  0  0  0  0
    1.9922   -1.1098   -1.3163 N   0  0  0  0  0  0  0  0  0  0  0  0
    2.0873   -2.2950   -1.8659 C   0  0  0  0  0  0  0  0  0  0  0  0
    2.9101   -2.9862   -1.7078 H   0  0  0  0  0  0  0  0  0  0  0  0
    0.9962   -2.5270   -2.6837 N   0  0  0  0  0  0  0  0  0  0  0  0
    0.8331   -3.3806   -3.2133 H   0  0  0  0  0  0  0  0  0  0  0  0
    0.1681   -1.4259   -2.6194 C   0  0  0  0  0  0  0  0  0  0  0  0
   -0.7806   -1.2672   -3.1208 H   0  0  0  0  0  0  0  0  0  0  0  0
   -0.5797    2.1884    0.5634 C   0  0  0  0  0  0  0  0  0  0  0  0
    0.1585    2.7998    1.3215 O   0  0  0  0  0  0  0  0  0  0  0  0
   -1.7349    2.8046    0.1077 N   0  0  0  0  0  0  0  0  0  0  0  0
   -2.2351    2.3477   -0.6468 H   0  0  0  0  0  0  0  0  0  0  0  0
   -2.0721    4.1866    0.4297 C   0  0  0  0  0  0  0  0  0  0  0  0
   -1.3041    4.8674    0.0479 H   0  0  0  0  0  0  0  0  0  0  0  0
   -3.0315    4.4573   -0.0212 H   0  0  0  0  0  0  0  0  0  0  0  0
   -2.1523    4.3191    1.5139 H   0  0  0  0  0  0  0  0  0  0  0  0
  1  2  1  0  0  0  0
  2  3  1  0  0  0  0
  2  4  1  0  0  0  0
  2  5  1  0  0  0  0
  5  6  2  0  0  0  0
  5  7  1  0  0  0  0
  7  8  1  0  0  0  0
  7  9  1  0  0  0  0
  9 10  1  0  0  0  0
  9 11  1  0  0  0  0
  9 22  1  0  0  0  0
 11 12  1  0  0  0  0
 11 13  1  0  0  0  0
 11 14  1  0  0  0  0
 14 15  1  0  0  0  0
 14 20  2  0  0  0  0
 15 16  2  0  0  0  0
 16 17  1  0  0  0  0
 16 18  1  0  0  0  0
 18 19  1  0  0  0  0
 18 20  1  0  0  0  0
 20 21  1  0  0  0  0
 22 23  2  0  0  0  0
 22 24  1  0  0  0  0
 24 25  1  0  0  0  0
 24 26  1  0  0  0  0
 26 27  1  0  0  0  0
 26 28  1  0  0  0  0
 26 29  1  0  0  0  0
M  END
$$$$

  -OEChem-01062216083D

 29 29  0     1  0  0  0  0  0999 V2000
   -2.3690   -3.2332    1.1810 H   0  0  0  0  0  0  0  0  0  0  0  0
   -2.5729   -2.2776    0.6893 C   0  0  0  0  0  0  0  0  0  0  0  0
   -3.4800   -1.8474    1.1204 H   0  0  0  0  0  0  0  0  0  0  0  0
   -2.7314   -2.4592   -0.3762 H   0  0  0  0  0  0  0  0  0  0  0  0
   -1.4033   -1.3312    0.8873 C   0  0  0  0  0  0  0  0  0  0  0  0
   -0.4596   -1.6848    1.5700 O   0  0  0  0  0  0  0  0  0  0  0  0
   -1.4441   -0.0767    0.3077 N   0  0  0  0  0  0  0  0  0  0  0  0
   -2.2178    0.0760   -0.3287 H   0  0  0  0  0  0  0  0  0  0  0  0
   -0.2608    0.7993    0.1630 C   0  0  1  0  0  0  0  0  0  0  0  0
    0.5528    0.4493    0.8097 H   0  0  0  0  0  0  0  0  0  0  0  0
    0.2263    0.7683   -1.2973 C   0  0  0  0  0  0  0  0  0  0  0  0
   -0.5784    1.0898   -1.9639 H   0  0  0  0  0  0  0  0  0  0  0  0
    1.0591    1.4684   -1.4198 H   0  0  0  0  0  0  0  0  0  0  0  0
    0.7016   -0.5975   -1.6959 C   0  0  0  0  0  0  0  0  0  0  0  0
    1.9111   -1.1370   -1.2872 N   0  0  0  0  0  0  0  0  0  0  0  0
    1.9883   -2.3309   -1.8206 C   0  0  0  0  0  0  0  0  0  0  0  0
    2.8170   -3.0193   -1.6817 H   0  0  0  0  0  0  0  0  0  0  0  0
    0.8666   -2.5753   -2.5921 N   0  0  0  0  0  0  0  0  0  0  0  0
    0.6946   -3.4294   -3.1189 H   0  0  0  0  0  0  0  0  0  0  0  0
    0.0466   -1.4676   -2.5243 C   0  0  0  0  0  0  0  0  0  0  0  0
   -0.9091   -1.3084   -3.0127 H   0  0  0  0  0  0  0  0  0  0  0  0
   -0.5505    2.2613    0.5664 C   0  0  0  0  0  0  0  0  0  0  0  0
    0.3679    3.0112    0.8661 O   0  0  0  0  0  0  0  0  0  0  0  0
   -1.8193    2.7969    0.4142 N   0  0  0  0  0  0  0  0  0  0  0  0
   -2.5791    2.1388    0.2871 H   0  0  0  0  0  0  0  0  0  0  0  0
   -2.1433    4.1763    0.7599 C   0  0  0  0  0  0  0  0  0  0  0  0
   -1.5403    4.8721    0.1668 H   0  0  0  0  0  0  0  0  0  0  0  0
   -3.1994    4.3789    0.5582 H   0  0  0  0  0  0  0  0  0  0  0  0
   -1.9509    4.3603    1.8222 H   0  0  0  0  0  0  0  0  0  0  0  0
  1  2  1  0  0  0  0
  2  3  1  0  0  0  0
  2  4  1  0  0  0  0
  2  5  1  0  0  0  0
  5  6  2  0  0  0  0
  5  7  1  0  0  0  0
  7  8  1  0  0  0  0
  7  9  1  0  0  0  0
  9 10  1  0  0  0  0
  9 11  1  0  0  0  0
  9 22  1  0  0  0  0
 11 12  1  0  0  0  0
 11 13  1  0  0  0  0
 11 14  1  0  0  0  0
 14 15  1  0  0  0  0
 14 20  2  0  0  0  0
 15 16  2  0  0  0  0
 16 17  1  0  0  0  0
 16 18  1  0  0  0  0
 18 19  1  0  0  0  0
 18 20  1  0  0  0  0
 20 21  1  0  0  0  0
 22 23  2  0  0  0  0
 22 24  1  0  0  0  0
 24 25  1  0  0  0  0
 24 26  1  0  0  0  0
 26 27  1  0  0  0  0
 26 28  1  0  0  0  0
 26 29  1  0  0  0  0
M  END
$$$$

  -OEChem-01062216083D

 29 29  0     1  0  0  0  0  0999 V2000
   -2.3611   -3.2309    1.1644 H   0  0  0  0  0  0  0  0  0  0  0  0
   -2.5537   -2.2829    0.6540 C   0  0  0  0  0  0  0  0  0  0  0  0
   -3.4779   -1.8535    1.0480 H   0  0  0  0  0  0  0  0  0  0  0  0
   -2.6738   -2.4780   -0.4141 H   0  0  0  0  0  0  0  0  0  0  0  0
   -1.3983   -1.3259    0.8798 C   0  0  0  0  0  0  0  0  0  0  0  0
   -0.4703   -1.6659    1.5907 O   0  0  0  0  0  0  0  0  0  0  0  0
   -1.4400   -0.0702    0.3038 N   0  0  0  0  0  0  0  0  0  0  0  0
   -2.2006    0.0759   -0.3510 H   0  0  0  0  0  0  0  0  0  0  0  0
   -0.2549    0.8042    0.1615 C   0  0  1  0  0  0  0  0  0  0  0  0
    0.5592    0.4545    0.8076 H   0  0  0  0  0  0  0  0  0  0  0  0
    0.2280    0.7685   -1.3013 C   0  0  0  0  0  0  0  0  0  0  0  0
   -0.5777    1.0923   -1.9659 H   0  0  0  0  0  0  0  0  0  0  0  0
    1.0641    1.4637   -1.4302 H   0  0  0  0  0  0  0  0  0  0  0  0
    0.6968   -0.6008   -1.6950 C   0  0  0  0  0  0  0  0  0  0  0  0
    1.9049   -1.1439   -1.2870 N   0  0  0  0  0  0  0  0  0  0  0  0
    1.9754   -2.3403   -1.8156 C   0  0  0  0  0  0  0  0  0  0  0  0
    2.8010   -3.0322   -1.6759 H   0  0  0  0  0  0  0  0  0  0  0  0
    0.8509   -2.5827   -2.5836 N   0  0  0  0  0  0  0  0  0  0  0  0
    0.6756   -3.4363   -3.1102 H   0  0  0  0  0  0  0  0  0  0  0  0
    0.0368   -1.4708   -2.5193 C   0  0  0  0  0  0  0  0  0  0  0  0
   -0.9177   -1.3084   -3.0087 H   0  0  0  0  0  0  0  0  0  0  0  0
   -0.5481    2.2647    0.5716 C   0  0  0  0  0  0  0  0  0  0  0  0
    0.3542    3.0895    0.6173 O   0  0  0  0  0  0  0  0  0  0  0  0
   -1.8542    2.7030    0.7160 N   0  0  0  0  0  0  0  0  0  0  0  0
   -2.5551    1.9790    0.8316 H   0  0  0  0  0  0  0  0  0  0  0  0
   -2.1909    4.0656    1.1117 C   0  0  0  0  0  0  0  0  0  0  0  0
   -1.8014    4.7841    0.3828 H   0  0  0  0  0  0  0  0  0  0  0  0
   -3.2770    4.1859    1.1662 H   0  0  0  0  0  0  0  0  0  0  0  0
   -1.7657    4.2957    2.0943 H   0  0  0  0  0  0  0  0  0  0  0  0
  1  2  1  0  0  0  0
  2  3  1  0  0  0  0
  2  4  1  0  0  0  0
  2  5  1  0  0  0  0
  5  6  2  0  0  0  0
  5  7  1  0  0  0  0
  7  8  1  0  0  0  0
  7  9  1  0  0  0  0
  9 10  1  0  0  0  0
  9 11  1  0  0  0  0
  9 22  1  0  0  0  0
 11 12  1  0  0  0  0
 11 13  1  0  0  0  0
 11 14  1  0  0  0  0
 14 15  1  0  0  0  0
 14 20  2  0  0  0  0
 15 16  2  0  0  0  0
 16 17  1  0  0  0  0
 16 18  1  0  0  0  0
 18 19  1  0  0  0  0
 18 20  1  0  0  0  0
 20 21  1  0  0  0  0
 22 23  2  0  0  0  0
 22 24  1  0  0  0  0
 24 25  1  0  0  0  0
 24 26  1  0  0  0  0
 26 27  1  0  0  0  0
 26 28  1  0  0  0  0
 26 29  1  0  0  0  0
M  END
$$$$

  -OEChem-01062216083D

 29 29  0     1  0  0  0  0  0999 V2000
   -2.3619   -3.2361    1.1158 H   0  0  0  0  0  0  0  0  0  0  0  0
   -2.5682   -2.2689    0.6487 C   0  0  0  0  0  0  0  0  0  0  0  0
   -3.4736   -1.8496    1.0933 H   0  0  0  0  0  0  0  0  0  0  0  0
   -2.7306   -2.4243   -0.4204 H   0  0  0  0  0  0  0  0  0  0  0  0
   -1.3992   -1.3259    0.8642 C   0  0  0  0  0  0  0  0  0  0  0  0
   -0.4672   -1.6767    1.5644 O   0  0  0  0  0  0  0  0  0  0  0  0
   -1.4335   -0.0661    0.2974 N   0  0  0  0  0  0  0  0  0  0  0  0
   -2.2119    0.1089   -0.3297 H   0  0  0  0  0  0  0  0  0  0  0  0
   -0.2475    0.8071    0.1546 C   0  0  1  0  0  0  0  0  0  0  0  0
    0.5661    0.4551    0.7996 H   0  0  0  0  0  0  0  0  0  0  0  0
    0.2340    0.7636   -1.3098 C   0  0  0  0  0  0  0  0  0  0  0  0
   -0.5719    1.0858   -1.9748 H   0  0  0  0  0  0  0  0  0  0  0  0
    1.0718    1.4549   -1.4455 H   0  0  0  0  0  0  0  0  0  0  0  0
    0.7008   -0.6075   -1.6990 C   0  0  0  0  0  0  0  0  0  0  0  0
    1.9099   -1.1479   -1.2891 N   0  0  0  0  0  0  0  0  0  0  0  0
    1.9841   -2.3438   -1.8184 C   0  0  0  0  0  0  0  0  0  0  0  0
    2.8121   -3.0329   -1.6783 H   0  0  0  0  0  0  0  0  0  0  0  0
    0.8607   -2.5896   -2.5870 N   0  0  0  0  0  0  0  0  0  0  0  0
    0.6879   -3.4440   -3.1130 H   0  0  0  0  0  0  0  0  0  0  0  0
    0.0433   -1.4798   -2.5231 C   0  0  0  0  0  0  0  0  0  0  0  0
   -0.9112   -1.3190   -3.0136 H   0  0  0  0  0  0  0  0  0  0  0  0
   -0.5449    2.2651    0.5768 C   0  0  0  0  0  0  0  0  0  0  0  0
    0.2784    3.1524    0.3959 O   0  0  0  0  0  0  0  0  0  0  0  0
   -1.8071    2.6156    1.0262 N   0  0  0  0  0  0  0  0  0  0  0  0
   -2.4049    1.8456    1.3102 H   0  0  0  0  0  0  0  0  0  0  0  0
   -2.1481    3.9633    1.4667 C   0  0  0  0  0  0  0  0  0  0  0  0
   -1.9801    4.6847    0.6601 H   0  0  0  0  0  0  0  0  0  0  0  0
   -3.2023    4.0114    1.7560 H   0  0  0  0  0  0  0  0  0  0  0  0
   -1.5373    4.2504    2.3290 H   0  0  0  0  0  0  0  0  0  0  0  0
  1  2  1  0  0  0  0
  2  3  1  0  0  0  0
  2  4  1  0  0  0  0
  2  5  1  0  0  0  0
  5  6  2  0  0  0  0
  5  7  1  0  0  0  0
  7  8  1  0  0  0  0
  7  9  1  0  0  0  0
  9 10  1  0  0  0  0
  9 11  1  0  0  0  0
  9 22  1  0  0  0  0
 11 12  1  0  0  0  0
 11 13  1  0  0  0  0
 11 14  1  0  0  0  0
 14 15  1  0  0  0  0
 14 20  2  0  0  0  0
 15 16  2  0  0  0  0
 16 17  1  0  0  0  0
 16 18  1  0  0  0  0
 18 19  1  0  0  0  0
 18 20  1  0  0  0  0
 20 21  1  0  0  0  0
 22 23  2  0  0  0  0
 22 24  1  0  0  0  0
 24 25  1  0  0  0  0
 24 26  1  0  0  0  0
 26 27  1  0  0  0  0
 26 28  1  0  0  0  0
 26 29  1  0  0  0  0
M  END
$$$$

  -OEChem-01062216083D

 29 29  0     1  0  0  0  0  0999 V2000
   -2.3805   -3.2193    1.0995 H   0  0  0  0  0  0  0  0  0  0  0  0
   -2.5848   -2.2437    0.6490 C   0  0  0  0  0  0  0  0  0  0  0  0
   -3.4720   -1.8164    1.1225 H   0  0  0  0  0  0  0  0  0  0  0  0
   -2.7781   -2.3838   -0.4171 H   0  0  0  0  0  0  0  0  0  0  0  0
   -1.3967   -1.3207    0.8433 C   0  0  0  0  0  0  0  0  0  0  0  0
   -0.4590   -1.6854    1.5287 O   0  0  0  0  0  0  0  0  0  0  0  0
   -1.4226   -0.0572    0.2854 N   0  0  0  0  0  0  0  0  0  0  0  0
   -2.2209    0.1481   -0.3070 H   0  0  0  0  0  0  0  0  0  0  0  0
   -0.2350    0.8129    0.1420 C   0  0  1  0  0  0  0  0  0  0  0  0
    0.5776    0.4589    0.7871 H   0  0  0  0  0  0  0  0  0  0  0  0
    0.2485    0.7650   -1.3224 C   0  0  0  0  0  0  0  0  0  0  0  0
   -0.5567    1.0874   -1.9880 H   0  0  0  0  0  0  0  0  0  0  0  0
    1.0883    1.4533   -1.4603 H   0  0  0  0  0  0  0  0  0  0  0  0
    0.7127   -0.6082   -1.7068 C   0  0  0  0  0  0  0  0  0  0  0  0
    1.9198   -1.1513   -1.2943 N   0  0  0  0  0  0  0  0  0  0  0  0
    1.9874   -2.3509   -1.8164 C   0  0  0  0  0  0  0  0  0  0  0  0
    2.8118   -3.0436   -1.6726 H   0  0  0  0  0  0  0  0  0  0  0  0
    0.8622   -2.5964   -2.5822 N   0  0  0  0  0  0  0  0  0  0  0  0
    0.6836   -3.4541   -3.1009 H   0  0  0  0  0  0  0  0  0  0  0  0
    0.0503   -1.4825   -2.5244 C   0  0  0  0  0  0  0  0  0  0  0  0
   -0.9051   -1.3198   -3.0123 H   0  0  0  0  0  0  0  0  0  0  0  0
   -0.5407    2.2661    0.5778 C   0  0  0  0  0  0  0  0  0  0  0  0
    0.1455    3.2052    0.1959 O   0  0  0  0  0  0  0  0  0  0  0  0
   -1.6815    2.5374    1.3136 N   0  0  0  0  0  0  0  0  0  0  0  0
   -2.1473    1.7328    1.7233 H   0  0  0  0  0  0  0  0  0  0  0  0
   -2.0189    3.8688    1.8028 C   0  0  0  0  0  0  0  0  0  0  0  0
   -2.1027    4.5744    0.9694 H   0  0  0  0  0  0  0  0  0  0  0  0
   -2.9771    3.8459    2.3309 H   0  0  0  0  0  0  0  0  0  0  0  0
   -1.2493    4.2288    2.4937 H   0  0  0  0  0  0  0  0  0  0  0  0
  1  2  1  0  0  0  0
  2  3  1  0  0  0  0
  2  4  1  0  0  0  0
  2  5  1  0  0  0  0
  5  6  2  0  0  0  0
  5  7  1  0  0  0  0
  7  8  1  0  0  0  0
  7  9  1  0  0  0  0
  9 10  1  0  0  0  0
  9 11  1  0  0  0  0
  9 22  1  0  0  0  0
 11 12  1  0  0  0  0
 11 13  1  0  0  0  0
 11 14  1  0  0  0  0
 14 15  1  0  0  0  0
 14 20  2  0  0  0  0
 15 16  2  0  0  0  0
 16 17  1  0  0  0  0
 16 18  1  0  0  0  0
 18 19  1  0  0  0  0
 18 20  1  0  0  0  0
 20 21  1  0  0  0  0
 22 23  2  0  0  0  0
 22 24  1  0  0  0  0
 24 25  1  0  0  0  0
 24 26  1  0  0  0  0
 26 27  1  0  0  0  0
 26 28  1  0  0  0  0
 26 29  1  0  0  0  0
M  END
$$$$

  -OEChem-01062216083D

 29 29  0     1  0  0  0  0  0999 V2000
   -2.3971   -3.1983    1.0972 H   0  0  0  0  0  0  0  0  0  0  0  0
   -2.5936   -2.2228    0.6433 C   0  0  0  0  0  0  0  0  0  0  0  0
   -3.4774   -1.7863    1.1143 H   0  0  0  0  0  0  0  0  0  0  0  0
   -2.7870   -2.3648   -0.4225 H   0  0  0  0  0  0  0  0  0  0  0  0
   -1.3981   -1.3091    0.8350 C   0  0  0  0  0  0  0  0  0  0  0  0
   -0.4584   -1.6820    1.5137 O   0  0  0  0  0  0  0  0  0  0  0  0
   -1.4171   -0.0432    0.2834 N   0  0  0  0  0  0  0  0  0  0  0  0
   -2.2278    0.1830   -0.2844 H   0  0  0  0  0  0  0  0  0  0  0  0
   -0.2262    0.8194    0.1338 C   0  0  1  0  0  0  0  0  0  0  0  0
    0.5863    0.4617    0.7765 H   0  0  0  0  0  0  0  0  0  0  0  0
    0.2583    0.7660   -1.3302 C   0  0  0  0  0  0  0  0  0  0  0  0
   -0.5447    1.0907   -1.9975 H   0  0  0  0  0  0  0  0  0  0  0  0
    1.1016    1.4499   -1.4684 H   0  0  0  0  0  0  0  0  0  0  0  0
    0.7164   -0.6106   -1.7093 C   0  0  0  0  0  0  0  0  0  0  0  0
    1.9210   -1.1570   -1.2926 N   0  0  0  0  0  0  0  0  0  0  0  0
    1.9844   -2.3586   -1.8108 C   0  0  0  0  0  0  0  0  0  0  0  0
    2.8050   -3.0547   -1.6634 H   0  0  0  0  0  0  0  0  0  0  0  0
    0.8604   -2.6013   -2.5791 N   0  0  0  0  0  0  0  0  0  0  0  0
    0.6804   -3.4583   -3.0983 H   0  0  0  0  0  0  0  0  0  0  0  0
    0.0526   -1.4844   -2.5261 C   0  0  0  0  0  0  0  0  0  0  0  0
   -0.9007   -1.3193   -3.0174 H   0  0  0  0  0  0  0  0  0  0  0  0
   -0.5347    2.2680    0.5817 C   0  0  0  0  0  0  0  0  0  0  0  0
   -0.0440    3.2381    0.0180 O   0  0  0  0  0  0  0  0  0  0  0  0
   -1.4787    2.4848    1.5699 N   0  0  0  0  0  0  0  0  0  0  0  0
   -1.7921    1.6624    2.0787 H   0  0  0  0  0  0  0  0  0  0  0  0
   -1.8051    3.8059    2.0924 C   0  0  0  0  0  0  0  0  0  0  0  0
   -2.1739    4.4553    1.2915 H   0  0  0  0  0  0  0  0  0  0  0  0
   -2.5828    3.7279    2.8579 H   0  0  0  0  0  0  0  0  0  0  0  0
   -0.9203    4.2685    2.5422 H   0  0  0  0  0  0  0  0  0  0  0  0
  1  2  1  0  0  0  0
  2  3  1  0  0  0  0
  2  4  1  0  0  0  0
  2  5  1  0  0  0  0
  5  6  2  0  0  0  0
  5  7  1  0  0  0  0
  7  8  1  0  0  0  0
  7  9  1  0  0  0  0
  9 10  1  0  0  0  0
  9 11  1  0  0  0  0
  9 22  1  0  0  0  0
 11 12  1  0  0  0  0
 11 13  1  0  0  0  0
 11 14  1  0  0  0  0
 14 15  1  0  0  0  0
 14 20  2  0  0  0  0
 15 16  2  0  0  0  0
 16 17  1  0  0  0  0
 16 18  1  0  0  0  0
 18 19  1  0  0  0  0
 18 20  1  0  0  0  0
 20 21  1  0  0  0  0
 22 23  2  0  0  0  0
 22 24  1  0  0  0  0
 24 25  1  0  0  0  0
 24 26  1  0  0  0  0
 26 27  1  0  0  0  0
 26 28  1  0  0  0  0
 26 29  1  0  0  0  0
M  END
$$$$

  -OEChem-01062216083D

 29 29  0     1  0  0  0  0  0999 V2000
   -2.4219   -3.1711    1.1137 H   0  0  0  0  0  0  0  0  0  0  0  0
   -2.6112   -2.1942    0.6598 C   0  0  0  0  0  0  0  0  0  0  0  0
   -3.4799   -1.7428    1.1449 H   0  0  0  0  0  0  0  0  0  0  0  0
   -2.8260   -2.3369   -0.4018 H   0  0  0  0  0  0  0  0  0  0  0  0
   -1.3980   -1.2992    0.8272 C   0  0  0  0  0  0  0  0  0  0  0  0
   -0.4528   -1.6849    1.4915 O   0  0  0  0  0  0  0  0  0  0  0  0
   -1.4072   -0.0318    0.2798 N   0  0  0  0  0  0  0  0  0  0  0  0
   -2.2300    0.2177   -0.2605 H   0  0  0  0  0  0  0  0  0  0  0  0
   -0.2118    0.8218    0.1266 C   0  0  1  0  0  0  0  0  0  0  0  0
    0.6005    0.4600    0.7674 H   0  0  0  0  0  0  0  0  0  0  0  0
    0.2753    0.7690   -1.3361 C   0  0  0  0  0  0  0  0  0  0  0  0
   -0.5258    1.0963   -2.0046 H   0  0  0  0  0  0  0  0  0  0  0  0
    1.1197    1.4523   -1.4708 H   0  0  0  0  0  0  0  0  0  0  0  0
    0.7266   -0.6089   -1.7159 C   0  0  0  0  0  0  0  0  0  0  0  0
    1.9277   -1.1609   -1.2964 N   0  0  0  0  0  0  0  0  0  0  0  0
    1.9844   -2.3636   -1.8131 C   0  0  0  0  0  0  0  0  0  0  0  0
    2.8008   -3.0643   -1.6633 H   0  0  0  0  0  0  0  0  0  0  0  0
    0.8599   -2.6010   -2.5825 N   0  0  0  0  0  0  0  0  0  0  0  0
    0.6751   -3.4586   -3.0989 H   0  0  0  0  0  0  0  0  0  0  0  0
    0.0583   -1.4795   -2.5321 C   0  0  0  0  0  0  0  0  0  0  0  0
   -0.8943   -1.3095   -3.0231 H   0  0  0  0  0  0  0  0  0  0  0  0
   -0.5218    2.2654    0.5832 C   0  0  0  0  0  0  0  0  0  0  0  0
   -0.2664    3.2390   -0.1149 O   0  0  0  0  0  0  0  0  0  0  0  0
   -1.2127    2.4562    1.7661 N   0  0  0  0  0  0  0  0  0  0  0  0
   -1.3578    1.6320    2.3439 H   0  0  0  0  0  0  0  0  0  0  0  0
   -1.5367    3.7692    2.3092 C   0  0  0  0  0  0  0  0  0  0  0  0
   -2.1458    4.3387    1.5995 H   0  0  0  0  0  0  0  0  0  0  0  0
   -2.1016    3.6635    3.2403 H   0  0  0  0  0  0  0  0  0  0  0  0
   -0.6213    4.3319    2.5201 H   0  0  0  0  0  0  0  0  0  0  0  0
  1  2  1  0  0  0  0
  2  3  1  0  0  0  0
  2  4  1  0  0  0  0
  2  5  1  0  0  0  0
  5  6  2  0  0  0  0
  5  7  1  0  0  0  0
  7  8  1  0  0  0  0
  7  9  1  0  0  0  0
  9 10  1  0  0  0  0
  9 11  1  0  0  0  0
  9 22  1  0  0  0  0
 11 12  1  0  0  0  0
 11 13  1  0  0  0  0
 11 14  1  0  0  0  0
 14 15  1  0  0  0  0
 14 20  2  0  0  0  0
 15 16  2  0  0  0  0
 16 17  1  0  0  0  0
 16 18  1  0  0  0  0
 18 19  1  0  0  0  0
 18 20  1  0  0  0  0
 20 21  1  0  0  0  0
 22 23  2  0  0  0  0
 22 24  1  0  0  0  0
 24 25  1  0  0  0  0
 24 26  1  0  0  0  0
 26 27  1  0  0  0  0
 26 28  1  0  0  0  0
 26 29  1  0  0  0  0
M  END
$$$$

  -OEChem-01062216083D

 29 29  0     1  0  0  0  0  0999 V2000
   -2.4477   -3.1474    1.1377 H   0  0  0  0  0  0  0  0  0  0  0  0
   -2.6243   -2.1719    0.6756 C   0  0  0  0  0  0  0  0  0  0  0  0
   -3.4807   -1.7007    1.1637 H   0  0  0  0  0  0  0  0  0  0  0  0
   -2.8506   -2.3209   -0.3827 H   0  0  0  0  0  0  0  0  0  0  0  0
   -1.3954   -1.2949    0.8233 C   0  0  0  0  0  0  0  0  0  0  0  0
   -0.4432   -1.6953    1.4693 O   0  0  0  0  0  0  0  0  0  0  0  0
   -1.3956   -0.0266    0.2787 N   0  0  0  0  0  0  0  0  0  0  0  0
   -2.2256    0.2416   -0.2415 H   0  0  0  0  0  0  0  0  0  0  0  0
   -0.1974    0.8202    0.1262 C   0  0  1  0  0  0  0  0  0  0  0  0
    0.6153    0.4535    0.7637 H   0  0  0  0  0  0  0  0  0  0  0  0
    0.2891    0.7720   -1.3363 C   0  0  0  0  0  0  0  0  0  0  0  0
   -0.5122    1.1024   -2.0032 H   0  0  0  0  0  0  0  0  0  0  0  0
    1.1336    1.4557   -1.4682 H   0  0  0  0  0  0  0  0  0  0  0  0
    0.7343   -0.6064   -1.7216 C   0  0  0  0  0  0  0  0  0  0  0  0
    1.9337   -1.1635   -1.3032 N   0  0  0  0  0  0  0  0  0  0  0  0
    1.9842   -2.3668   -1.8197 C   0  0  0  0  0  0  0  0  0  0  0  0
    2.7973   -3.0714   -1.6700 H   0  0  0  0  0  0  0  0  0  0  0  0
    0.8580   -2.5992   -2.5883 N   0  0  0  0  0  0  0  0  0  0  0  0
    0.6664   -3.4576   -3.1011 H   0  0  0  0  0  0  0  0  0  0  0  0
    0.0613   -1.4743   -2.5367 C   0  0  0  0  0  0  0  0  0  0  0  0
   -0.8927   -1.3006   -3.0239 H   0  0  0  0  0  0  0  0  0  0  0  0
   -0.5063    2.2605    0.5868 C   0  0  0  0  0  0  0  0  0  0  0  0
   -0.5015    3.2072   -0.1910 O   0  0  0  0  0  0  0  0  0  0  0  0
   -0.9072    2.4667    1.8937 N   0  0  0  0  0  0  0  0  0  0  0  0
   -0.8840    1.6597    2.5128 H   0  0  0  0  0  0  0  0  0  0  0  0
   -1.2272    3.7772    2.4450 C   0  0  0  0  0  0  0  0  0  0  0  0
   -2.0505    4.2371    1.8885 H   0  0  0  0  0  0  0  0  0  0  0  0
   -1.5293    3.6826    3.4925 H   0  0  0  0  0  0  0  0  0  0  0  0
   -0.3549    4.4373    2.3943 H   0  0  0  0  0  0  0  0  0  0  0  0
  1  2  1  0  0  0  0
  2  3  1  0  0  0  0
  2  4  1  0  0  0  0
  2  5  1  0  0  0  0
  5  6  2  0  0  0  0
  5  7  1  0  0  0  0
  7  8  1  0  0  0  0
  7  9  1  0  0  0  0
  9 10  1  0  0  0  0
  9 11  1  0  0  0  0
  9 22  1  0  0  0  0
 11 12  1  0  0  0  0
 11 13  1  0  0  0  0
 11 14  1  0  0  0  0
 14 15  1  0  0  0  0
 14 20  2  0  0  0  0
 15 16  2  0  0  0  0
 16 17  1  0  0  0  0
 16 18  1  0  0  0  0
 18 19  1  0  0  0  0
 18 20  1  0  0  0  0
 20 21  1  0  0  0  0
 22 23  2  0  0  0  0
 22 24  1  0  0  0  0
 24 25  1  0  0  0  0
 24 26  1  0  0  0  0
 26 27  1  0  0  0  0
 26 28  1  0  0  0  0
 26 29  1  0  0  0  0
M  END
$$$$

  -OEChem-01062216083D

 29 29  0     1  0  0  0  0  0999 V2000
   -2.4714   -3.1356    1.1558 H   0  0  0  0  0  0  0  0  0  0  0  0
   -2.6430   -2.1552    0.7021 C   0  0  0  0  0  0  0  0  0  0  0  0
   -3.4805   -1.6731    1.2120 H   0  0  0  0  0  0  0  0  0  0  0  0
   -2.8963   -2.2959   -0.3514 H   0  0  0  0  0  0  0  0  0  0  0  0
   -1.3973   -1.2981    0.8255 C   0  0  0  0  0  0  0  0  0  0  0  0
   -0.4374   -1.7169    1.4488 O   0  0  0  0  0  0  0  0  0  0  0  0
   -1.3869   -0.0300    0.2807 N   0  0  0  0  0  0  0  0  0  0  0  0
   -2.2254    0.2613   -0.2132 H   0  0  0  0  0  0  0  0  0  0  0  0
   -0.1855    0.8106    0.1319 C   0  0  1  0  0  0  0  0  0  0  0  0
    0.6256    0.4375    0.7676 H   0  0  0  0  0  0  0  0  0  0  0  0
    0.3030    0.7702   -1.3298 C   0  0  0  0  0  0  0  0  0  0  0  0
   -0.4969    1.1057   -1.9966 H   0  0  0  0  0  0  0  0  0  0  0  0
    1.1484    1.4537   -1.4556 H   0  0  0  0  0  0  0  0  0  0  0  0
    0.7430   -0.6070   -1.7245 C   0  0  0  0  0  0  0  0  0  0  0  0
    1.9402   -1.1701   -1.3075 N   0  0  0  0  0  0  0  0  0  0  0  0
    1.9883   -2.3690   -1.8342 C   0  0  0  0  0  0  0  0  0  0  0  0
    2.7990   -3.0772   -1.6884 H   0  0  0  0  0  0  0  0  0  0  0  0
    0.8641   -2.5919   -2.6084 N   0  0  0  0  0  0  0  0  0  0  0  0
    0.6720   -3.4450   -3.1296 H   0  0  0  0  0  0  0  0  0  0  0  0
    0.0696   -1.4660   -2.5484 C   0  0  0  0  0  0  0  0  0  0  0  0
   -0.8831   -1.2860   -3.0359 H   0  0  0  0  0  0  0  0  0  0  0  0
   -0.4883    2.2515    0.5898 C   0  0  0  0  0  0  0  0  0  0  0  0
   -0.7437    3.1407   -0.2140 O   0  0  0  0  0  0  0  0  0  0  0  0
   -0.5849    2.5169    1.9430 N   0  0  0  0  0  0  0  0  0  0  0  0
   -0.3941    1.7467    2.5799 H   0  0  0  0  0  0  0  0  0  0  0  0
   -0.8974    3.8313    2.4888 C   0  0  0  0  0  0  0  0  0  0  0  0
   -1.8724    4.1749    2.1280 H   0  0  0  0  0  0  0  0  0  0  0  0
   -0.9288    3.7888    3.5817 H   0  0  0  0  0  0  0  0  0  0  0  0
   -0.1347    4.5589    2.1924 H   0  0  0  0  0  0  0  0  0  0  0  0
  1  2  1  0  0  0  0
  2  3  1  0  0  0  0
  2  4  1  0  0  0  0
  2  5  1  0  0  0  0
  5  6  2  0  0  0  0
  5  7  1  0  0  0  0
  7  8  1  0  0  0  0
  7  9  1  0  0  0  0
  9 10  1  0  0  0  0
  9 11  1  0  0  0  0
  9 22  1  0  0  0  0
 11 12  1  0  0  0  0
 11 13  1  0  0  0  0
 11 14  1  0  0  0  0
 14 15  1  0  0  0  0
 14 20  2  0  0  0  0
 15 16  2  0  0  0  0
 16 17  1  0  0  0  0
 16 18  1  0  0  0  0
 18 19  1  0  0  0  0
 18 20  1  0  0  0  0
 20 21  1  0  0  0  0
 22 23  2  0  0  0  0
 22 24  1  0  0  0  0
 24 25  1  0  0  0  0
 24 26  1  0  0  0  0
 26 27  1  0  0  0  0
 26 28  1  0  0  0  0
 26 29  1  0  0  0  0
M  END
$$$$

  -OEChem-01062216083D

 29 29  0     1  0  0  0  0  0999 V2000
   -2.5063   -3.1147    1.1865 H   0  0  0  0  0  0  0  0  0  0  0  0
   -2.6627   -2.1370    0.7217 C   0  0  0  0  0  0  0  0  0  0  0  0
   -3.4830   -1.6300    1.2353 H   0  0  0  0  0  0  0  0  0  0  0  0
   -2.9326   -2.2859   -0.3264 H   0  0  0  0  0  0  0  0  0  0  0  0
   -1.3978   -1.3049    0.8170 C   0  0  0  0  0  0  0  0  0  0  0  0
   -0.4278   -1.7489    1.4067 O   0  0  0  0  0  0  0  0  0  0  0  0
   -1.3764   -0.0362    0.2742 N   0  0  0  0  0  0  0  0  0  0  0  0
   -2.2267    0.2859   -0.1792 H   0  0  0  0  0  0  0  0  0  0  0  0
   -0.1732    0.8009    0.1315 C   0  0  1  0  0  0  0  0  0  0  0  0
    0.6349    0.4190    0.7658 H   0  0  0  0  0  0  0  0  0  0  0  0
    0.3184    0.7728   -1.3284 C   0  0  0  0  0  0  0  0  0  0  0  0
   -0.4800    1.1136   -1.9942 H   0  0  0  0  0  0  0  0  0  0  0  0
    1.1642    1.4566   -1.4475 H   0  0  0  0  0  0  0  0  0  0  0  0
    0.7551   -0.6026   -1.7312 C   0  0  0  0  0  0  0  0  0  0  0  0
    1.9498   -1.1704   -1.3134 N   0  0  0  0  0  0  0  0  0  0  0  0
    1.9918   -2.3699   -1.8395 C   0  0  0  0  0  0  0  0  0  0  0  0
    2.7980   -3.0826   -1.6916 H   0  0  0  0  0  0  0  0  0  0  0  0
    0.8681   -2.5872   -2.6161 N   0  0  0  0  0  0  0  0  0  0  0  0
    0.6701   -3.4410   -3.1339 H   0  0  0  0  0  0  0  0  0  0  0  0
    0.0789   -1.4576   -2.5569 C   0  0  0  0  0  0  0  0  0  0  0  0
   -0.8743   -1.2737   -3.0422 H   0  0  0  0  0  0  0  0  0  0  0  0
   -0.4689    2.2425    0.5872 C   0  0  0  0  0  0  0  0  0  0  0  0
   -0.9777    3.0529   -0.1789 O   0  0  0  0  0  0  0  0  0  0  0  0
   -0.2664    2.5934    1.9088 N   0  0  0  0  0  0  0  0  0  0  0  0
    0.0998    1.8754    2.5295 H   0  0  0  0  0  0  0  0  0  0  0  0
   -0.5730    3.9112    2.4498 C   0  0  0  0  0  0  0  0  0  0  0  0
   -1.6457    4.1166    2.3737 H   0  0  0  0  0  0  0  0  0  0  0  0
   -0.2842    3.9634    3.5039 H   0  0  0  0  0  0  0  0  0  0  0  0
   -0.0253    4.6861    1.9033 H   0  0  0  0  0  0  0  0  0  0  0  0
  1  2  1  0  0  0  0
  2  3  1  0  0  0  0
  2  4  1  0  0  0  0
  2  5  1  0  0  0  0
  5  6  2  0  0  0  0
  5  7  1  0  0  0  0
  7  8  1  0  0  0  0
  7  9  1  0  0  0  0
  9 10  1  0  0  0  0
  9 11  1  0  0  0  0
  9 22  1  0  0  0  0
 11 12  1  0  0  0  0
 11 13  1  0  0  0  0
 11 14  1  0  0  0  0
 14 15  1  0  0  0  0
 14 20  2  0  0  0  0
 15 16  2  0  0  0  0
 16 17  1  0  0  0  0
 16 18  1  0  0  0  0
 18 19  1  0  0  0  0
 18 20  1  0  0  0  0
 20 21  1  0  0  0  0
 22 23  2  0  0  0  0
 22 24  1  0  0  0  0
 24 25  1  0  0  0  0
 24 26  1  0  0  0  0
 26 27  1  0  0  0  0
 26 28  1  0  0  0  0
 26 29  1  0  0  0  0
M  END
$$$$

  -OEChem-01062216083D

 29 29  0     1  0  0  0  0  0999 V2000
   -2.5527   -3.0860    1.2378 H   0  0  0  0  0  0  0  0  0  0  0  0
   -2.6985   -2.1045    0.7780 C   0  0  0  0  0  0  0  0  0  0  0  0
   -3.4735   -1.5683    1.3310 H   0  0  0  0  0  0  0  0  0  0  0  0
   -3.0267   -2.2454   -0.2546 H   0  0  0  0  0  0  0  0  0  0  0  0
   -1.4020   -1.3173    0.8068 C   0  0  0  0  0  0  0  0  0  0  0  0
   -0.4180   -1.7966    1.3437 O   0  0  0  0  0  0  0  0  0  0  0  0
   -1.3662   -0.0502    0.2619 N   0  0  0  0  0  0  0  0  0  0  0  0
   -2.2335    0.3153   -0.1224 H   0  0  0  0  0  0  0  0  0  0  0  0
   -0.1618    0.7854    0.1261 C   0  0  1  0  0  0  0  0  0  0  0  0
    0.6411    0.3992    0.7638 H   0  0  0  0  0  0  0  0  0  0  0  0
    0.3361    0.7692   -1.3308 C   0  0  0  0  0  0  0  0  0  0  0  0
   -0.4603    1.1158   -1.9961 H   0  0  0  0  0  0  0  0  0  0  0  0
    1.1828    1.4530   -1.4408 H   0  0  0  0  0  0  0  0  0  0  0  0
    0.7744   -0.6018   -1.7450 C   0  0  0  0  0  0  0  0  0  0  0  0
    1.9684   -1.1709   -1.3263 N   0  0  0  0  0  0  0  0  0  0  0  0
    2.0131   -2.3668   -1.8607 C   0  0  0  0  0  0  0  0  0  0  0  0
    2.8196   -3.0798   -1.7158 H   0  0  0  0  0  0  0  0  0  0  0  0
    0.8921   -2.5800   -2.6423 N   0  0  0  0  0  0  0  0  0  0  0  0
    0.6939   -3.4327   -3.1618 H   0  0  0  0  0  0  0  0  0  0  0  0
    0.1014   -1.4516   -2.5780 C   0  0  0  0  0  0  0  0  0  0  0  0
   -0.8517   -1.2658   -3.0626 H   0  0  0  0  0  0  0  0  0  0  0  0
   -0.4595    2.2280    0.5742 C   0  0  0  0  0  0  0  0  0  0  0  0
   -1.1958    2.9427   -0.0969 O   0  0  0  0  0  0  0  0  0  0  0  0
    0.0106    2.6848    1.7914 N   0  0  0  0  0  0  0  0  0  0  0  0
    0.5664    2.0400    2.3481 H   0  0  0  0  0  0  0  0  0  0  0  0
   -0.2835    4.0088    2.3243 C   0  0  0  0  0  0  0  0  0  0  0  0
   -1.3625    4.1374    2.4581 H   0  0  0  0  0  0  0  0  0  0  0  0
    0.2036    4.1418    3.2951 H   0  0  0  0  0  0  0  0  0  0  0  0
    0.0833    4.7853    1.6450 H   0  0  0  0  0  0  0  0  0  0  0  0
  1  2  1  0  0  0  0
  2  3  1  0  0  0  0
  2  4  1  0  0  0  0
  2  5  1  0  0  0  0
  5  6  2  0  0  0  0
  5  7  1  0  0  0  0
  7  8  1  0  0  0  0
  7  9  1  0  0  0  0
  9 10  1  0  0  0  0
  9 11  1  0  0  0  0
  9 22  1  0  0  0  0
 11 12  1  0  0  0  0
 11 13  1  0  0  0  0
 11 14  1  0  0  0  0
 14 15  1  0  0  0  0
 14 20  2  0  0  0  0
 15 16  2  0  0  0  0
 16 17  1  0  0  0  0
 16 18  1  0  0  0  0
 18 19  1  0  0  0  0
 18 20  1  0  0  0  0
 20 21  1  0  0  0  0
 22 23  2  0  0  0  0
 22 24  1  0  0  0  0
 24 25  1  0  0  0  0
 24 26  1  0  0  0  0
 26 27  1  0  0  0  0
 26 28  1  0  0  0  0
 26 29  1  0  0  0  0
M  END
$$$$

  -OEChem-01062216083D

 29 29  0     1  0  0  0  0  0999 V2000
   -2.5856   -3.0638    1.2819 H   0  0  0  0  0  0  0  0  0  0  0  0
   -2.7244   -2.0811    0.8226 C   0  0  0  0  0  0  0  0  0  0  0  0
   -3.4611   -1.5214    1.4036 H   0  0  0  0  0  0  0  0  0  0  0  0
   -3.0988   -2.2180   -0.1944 H   0  0  0  0  0  0  0  0  0  0  0  0
   -1.4076   -1.3285    0.7923 C   0  0  0  0  0  0  0  0  0  0  0  0
   -0.4134   -1.8358    1.2826 O   0  0  0  0  0  0  0  0  0  0  0  0
   -1.3634   -0.0629    0.2447 N   0  0  0  0  0  0  0  0  0  0  0  0
   -2.2431    0.3418   -0.0671 H   0  0  0  0  0  0  0  0  0  0  0  0
   -0.1585    0.7731    0.1184 C   0  0  1  0  0  0  0  0  0  0  0  0
    0.6374    0.3848    0.7638 H   0  0  0  0  0  0  0  0  0  0  0  0
    0.3487    0.7686   -1.3339 C   0  0  0  0  0  0  0  0  0  0  0  0
   -0.4447    1.1195   -2.0005 H   0  0  0  0  0  0  0  0  0  0  0  0
    1.1955    1.4542   -1.4341 H   0  0  0  0  0  0  0  0  0  0  0  0
    0.7903   -0.5991   -1.7551 C   0  0  0  0  0  0  0  0  0  0  0  0
    1.9822   -1.1692   -1.3314 N   0  0  0  0  0  0  0  0  0  0  0  0
    2.0282   -2.3642   -1.8680 C   0  0  0  0  0  0  0  0  0  0  0  0
    2.8315   -3.0795   -1.7171 H   0  0  0  0  0  0  0  0  0  0  0  0
    0.9137   -2.5730   -2.6603 N   0  0  0  0  0  0  0  0  0  0  0  0
    0.7163   -3.4252   -3.1809 H   0  0  0  0  0  0  0  0  0  0  0  0
    0.1232   -1.4445   -2.5972 C   0  0  0  0  0  0  0  0  0  0  0  0
   -0.8277   -1.2573   -3.0856 H   0  0  0  0  0  0  0  0  0  0  0  0
   -0.4583    2.2172    0.5579 C   0  0  0  0  0  0  0  0  0  0  0  0
   -1.3744    2.8382    0.0295 O   0  0  0  0  0  0  0  0  0  0  0  0
    0.2389    2.7863    1.6071 N   0  0  0  0  0  0  0  0  0  0  0  0
    0.9523    2.2179    2.0569 H   0  0  0  0  0  0  0  0  0  0  0  0
   -0.0322    4.1217    2.1239 C   0  0  0  0  0  0  0  0  0  0  0  0
   -1.0573    4.1850    2.5035 H   0  0  0  0  0  0  0  0  0  0  0  0
    0.6549    4.3560    2.9426 H   0  0  0  0  0  0  0  0  0  0  0  0
    0.1003    4.8715    1.3368 H   0  0  0  0  0  0  0  0  0  0  0  0
  1  2  1  0  0  0  0
  2  3  1  0  0  0  0
  2  4  1  0  0  0  0
  2  5  1  0  0  0  0
  5  6  2  0  0  0  0
  5  7  1  0  0  0  0
  7  8  1  0  0  0  0
  7  9  1  0  0  0  0
  9 10  1  0  0  0  0
  9 11  1  0  0  0  0
  9 22  1  0  0  0  0
 11 12  1  0  0  0  0
 11 13  1  0  0  0  0
 11 14  1  0  0  0  0
 14 15  1  0  0  0  0
 14 20  2  0  0  0  0
 15 16  2  0  0  0  0
 16 17  1  0  0  0  0
 16 18  1  0  0  0  0
 18 19  1  0  0  0  0
 18 20  1  0  0  0  0
 20 21  1  0  0  0  0
 22 23  2  0  0  0  0
 22 24  1  0  0  0  0
 24 25  1  0  0  0  0
 24 26  1  0  0  0  0
 26 27  1  0  0  0  0
 26 28  1  0  0  0  0
 26 29  1  0  0  0  0
M  END
$$$$

  -OEChem-01062216083D

 29 29  0     1  0  0  0  0  0999 V2000
   -2.6157   -3.0546    1.3122 H   0  0  0  0  0  0  0  0  0  0  0  0
   -2.7510   -2.0676    0.8611 C   0  0  0  0  0  0  0  0  0  0  0  0
   -3.4496   -1.4929    1.4739 H   0  0  0  0  0  0  0  0  0  0  0  0
   -3.1711   -2.1928   -0.1397 H   0  0  0  0  0  0  0  0  0  0  0  0
   -1.4199   -1.3446    0.7773 C   0  0  0  0  0  0  0  0  0  0  0  0
   -0.4173   -1.8780    1.2206 O   0  0  0  0  0  0  0  0  0  0  0  0
   -1.3720   -0.0790    0.2301 N   0  0  0  0  0  0  0  0  0  0  0  0
   -2.2606    0.3597   -0.0020 H   0  0  0  0  0  0  0  0  0  0  0  0
   -0.1689    0.7617    0.1163 C   0  0  1  0  0  0  0  0  0  0  0  0
    0.6200    0.3734    0.7701 H   0  0  0  0  0  0  0  0  0  0  0  0
    0.3487    0.7664   -1.3317 C   0  0  0  0  0  0  0  0  0  0  0  0
   -0.4425    1.1171   -2.0012 H   0  0  0  0  0  0  0  0  0  0  0  0
    1.1934    1.4556   -1.4235 H   0  0  0  0  0  0  0  0  0  0  0  0
    0.7995   -0.5958   -1.7592 C   0  0  0  0  0  0  0  0  0  0  0  0
    1.9920   -1.1595   -1.3289 N   0  0  0  0  0  0  0  0  0  0  0  0
    2.0512   -2.3502   -1.8737 C   0  0  0  0  0  0  0  0  0  0  0  0
    2.8586   -3.0606   -1.7219 H   0  0  0  0  0  0  0  0  0  0  0  0
    0.9452   -2.5614   -2.6770 N   0  0  0  0  0  0  0  0  0  0  0  0
    0.7569   -3.4124   -3.2028 H   0  0  0  0  0  0  0  0  0  0  0  0
    0.1453   -1.4398   -2.6125 C   0  0  0  0  0  0  0  0  0  0  0  0
   -0.8036   -1.2569   -3.1067 H   0  0  0  0  0  0  0  0  0  0  0  0
   -0.4708    2.2074    0.5499 C   0  0  0  0  0  0  0  0  0  0  0  0
   -1.5130    2.7457    0.1908 O   0  0  0  0  0  0  0  0  0  0  0  0
    0.4026    2.8862    1.3791 N   0  0  0  0  0  0  0  0  0  0  0  0
    1.2401    2.3941    1.6802 H   0  0  0  0  0  0  0  0  0  0  0  0
    0.1715    4.2450    1.8525 C   0  0  0  0  0  0  0  0  0  0  0  0
   -0.7486    4.2935    2.4440 H   0  0  0  0  0  0  0  0  0  0  0  0
    1.0049    4.5725    2.4814 H   0  0  0  0  0  0  0  0  0  0  0  0
    0.0850    4.9355    1.0071 H   0  0  0  0  0  0  0  0  0  0  0  0
  1  2  1  0  0  0  0
  2  3  1  0  0  0  0
  2  4  1  0  0  0  0
  2  5  1  0  0  0  0
  5  6  2  0  0  0  0
  5  7  1  0  0  0  0
  7  8  1  0  0  0  0
  7  9  1  0  0  0  0
  9 10  1  0  0  0  0
  9 11  1  0  0  0  0
  9 22  1  0  0  0  0
 11 12  1  0  0  0  0
 11 13  1  0  0  0  0
 11 14  1  0  0  0  0
 14 15  1  0  0  0  0
 14 20  2  0  0  0  0
 15 16  2  0  0  0  0
 16 17  1  0  0  0  0
 16 18  1  0  0  0  0
 18 19  1  0  0  0  0
 18 20  1  0  0  0  0
 20 21  1  0  0  0  0
 22 23  2  0  0  0  0
 22 24  1  0  0  0  0
 24 25  1  0  0  0  0
 24 26  1  0  0  0  0
 26 27  1  0  0  0  0
 26 28  1  0  0  0  0
 26 29  1  0  0  0  0
M  END
$$$$

  -OEChem-01062216083D

 29 29  0     1  0  0  0  0  0999 V2000
   -2.6243   -3.0394    1.3408 H   0  0  0  0  0  0  0  0  0  0  0  0
   -2.7604   -2.0509    0.8931 C   0  0  0  0  0  0  0  0  0  0  0  0
   -3.4231   -1.4632    1.5328 H   0  0  0  0  0  0  0  0  0  0  0  0
   -3.2231   -2.1700   -0.0894 H   0  0  0  0  0  0  0  0  0  0  0  0
   -1.4215   -1.3510    0.7532 C   0  0  0  0  0  0  0  0  0  0  0  0
   -0.4109   -1.9026    1.1541 O   0  0  0  0  0  0  0  0  0  0  0  0
   -1.3754   -0.0860    0.2044 N   0  0  0  0  0  0  0  0  0  0  0  0
   -2.2677    0.3774    0.0435 H   0  0  0  0  0  0  0  0  0  0  0  0
   -0.1736    0.7593    0.1040 C   0  0  1  0  0  0  0  0  0  0  0  0
    0.6100    0.3744    0.7664 H   0  0  0  0  0  0  0  0  0  0  0  0
    0.3526    0.7679   -1.3412 C   0  0  0  0  0  0  0  0  0  0  0  0
   -0.4371    1.1176   -2.0129 H   0  0  0  0  0  0  0  0  0  0  0  0
    1.1958    1.4592   -1.4284 H   0  0  0  0  0  0  0  0  0  0  0  0
    0.8098   -0.5919   -1.7697 C   0  0  0  0  0  0  0  0  0  0  0  0
    2.0019   -1.1519   -1.3336 N   0  0  0  0  0  0  0  0  0  0  0  0
    2.0625   -2.3457   -1.8719 C   0  0  0  0  0  0  0  0  0  0  0  0
    2.8684   -3.0561   -1.7123 H   0  0  0  0  0  0  0  0  0  0  0  0
    0.9603   -2.5607   -2.6794 N   0  0  0  0  0  0  0  0  0  0  0  0
    0.7715   -3.4162   -3.1977 H   0  0  0  0  0  0  0  0  0  0  0  0
    0.1597   -1.4394   -2.6225 C   0  0  0  0  0  0  0  0  0  0  0  0
   -0.7896   -1.2606   -3.1173 H   0  0  0  0  0  0  0  0  0  0  0  0
   -0.4800    2.2065    0.5310 C   0  0  0  0  0  0  0  0  0  0  0  0
   -1.6049    2.6680    0.3653 O   0  0  0  0  0  0  0  0  0  0  0  0
    0.5062    2.9894    1.1017 N   0  0  0  0  0  0  0  0  0  0  0  0
    1.4177    2.5624    1.2474 H   0  0  0  0  0  0  0  0  0  0  0  0
    0.2863    4.3581    1.5512 C   0  0  0  0  0  0  0  0  0  0  0  0
   -0.4801    4.3853    2.3327 H   0  0  0  0  0  0  0  0  0  0  0  0
    1.2122    4.7750    1.9590 H   0  0  0  0  0  0  0  0  0  0  0  0
   -0.0380    4.9889    0.7168 H   0  0  0  0  0  0  0  0  0  0  0  0
  1  2  1  0  0  0  0
  2  3  1  0  0  0  0
  2  4  1  0  0  0  0
  2  5  1  0  0  0  0
  5  6  2  0  0  0  0
  5  7  1  0  0  0  0
  7  8  1  0  0  0  0
  7  9  1  0  0  0  0
  9 10  1  0  0  0  0
  9 11  1  0  0  0  0
  9 22  1  0  0  0  0
 11 12  1  0  0  0  0
 11 13  1  0  0  0  0
 11 14  1  0  0  0  0
 14 15  1  0  0  0  0
 14 20  2  0  0  0  0
 15 16  2  0  0  0  0
 16 17  1  0  0  0  0
 16 18  1  0  0  0  0
 18 19  1  0  0  0  0
 18 20  1  0  0  0  0
 20 21  1  0  0  0  0
 22 23  2  0  0  0  0
 22 24  1  0  0  0  0
 24 25  1  0  0  0  0
 24 26  1  0  0  0  0
 26 27  1  0  0  0  0
 26 28  1  0  0  0  0
 26 29  1  0  0  0  0
M  END
$$$$

  -OEChem-01062216083D

 29 29  0     1  0  0  0  0  0999 V2000
   -2.6229   -3.0292    1.3572 H   0  0  0  0  0  0  0  0  0  0  0  0
   -2.7629   -2.0390    0.9147 C   0  0  0  0  0  0  0  0  0  0  0  0
   -3.3950   -1.4432    1.5776 H   0  0  0  0  0  0  0  0  0  0  0  0
   -3.2620   -2.1519   -0.0505 H   0  0  0  0  0  0  0  0  0  0  0  0
   -1.4209   -1.3566    0.7275 C   0  0  0  0  0  0  0  0  0  0  0  0
   -0.4043   -1.9245    1.0883 O   0  0  0  0  0  0  0  0  0  0  0  0
   -1.3793   -0.0905    0.1811 N   0  0  0  0  0  0  0  0  0  0  0  0
   -2.2722    0.3914    0.0907 H   0  0  0  0  0  0  0  0  0  0  0  0
   -0.1789    0.7588    0.0942 C   0  0  1  0  0  0  0  0  0  0  0  0
    0.6015    0.3768    0.7622 H   0  0  0  0  0  0  0  0  0  0  0  0
    0.3536    0.7681   -1.3502 C   0  0  0  0  0  0  0  0  0  0  0  0
   -0.4342    1.1155   -2.0251 H   0  0  0  0  0  0  0  0  0  0  0  0
    1.1963    1.4598   -1.4370 H   0  0  0  0  0  0  0  0  0  0  0  0
    0.8153   -0.5902   -1.7777 C   0  0  0  0  0  0  0  0  0  0  0  0
    2.0073   -1.1463   -1.3363 N   0  0  0  0  0  0  0  0  0  0  0  0
    2.0700   -2.3424   -1.8694 C   0  0  0  0  0  0  0  0  0  0  0  0
    2.8757   -3.0520   -1.7042 H   0  0  0  0  0  0  0  0  0  0  0  0
    0.9702   -2.5614   -2.6796 N   0  0  0  0  0  0  0  0  0  0  0  0
    0.7811   -3.4211   -3.1906 H   0  0  0  0  0  0  0  0  0  0  0  0
    0.1679   -1.4411   -2.6290 C   0  0  0  0  0  0  0  0  0  0  0  0
   -0.7820   -1.2669   -3.1241 H   0  0  0  0  0  0  0  0  0  0  0  0
   -0.4932    2.2058    0.5222 C   0  0  0  0  0  0  0  0  0  0  0  0
   -1.6564    2.5949    0.5708 O   0  0  0  0  0  0  0  0  0  0  0  0
    0.5338    3.0849    0.8126 N   0  0  0  0  0  0  0  0  0  0  0  0
    1.4831    2.7209    0.7861 H   0  0  0  0  0  0  0  0  0  0  0  0
    0.3173    4.4662    1.2234 C   0  0  0  0  0  0  0  0  0  0  0  0
   -0.2661    4.5034    2.1493 H   0  0  0  0  0  0  0  0  0  0  0  0
    1.2763    4.9629    1.3989 H   0  0  0  0  0  0  0  0  0  0  0  0
   -0.2199    5.0175    0.4446 H   0  0  0  0  0  0  0  0  0  0  0  0
  1  2  1  0  0  0  0
  2  3  1  0  0  0  0
  2  4  1  0  0  0  0
  2  5  1  0  0  0  0
  5  6  2  0  0  0  0
  5  7  1  0  0  0  0
  7  8  1  0  0  0  0
  7  9  1  0  0  0  0
  9 10  1  0  0  0  0
  9 11  1  0  0  0  0
  9 22  1  0  0  0  0
 11 12  1  0  0  0  0
 11 13  1  0  0  0  0
 11 14  1  0  0  0  0
 14 15  1  0  0  0  0
 14 20  2  0  0  0  0
 15 16  2  0  0  0  0
 16 17  1  0  0  0  0
 16 18  1  0  0  0  0
 18 19  1  0  0  0  0
 18 20  1  0  0  0  0
 20 21  1  0  0  0  0
 22 23  2  0  0  0  0
 22 24  1  0  0  0  0
 24 25  1  0  0  0  0
 24 26  1  0  0  0  0
 26 27  1  0  0  0  0
 26 28  1  0  0  0  0
 26 29  1  0  0  0  0
M  END
$$$$

  -OEChem-01062216083D

 29 29  0     1  0  0  0  0  0999 V2000
   -2.5799   -3.0016    1.4010 H   0  0  0  0  0  0  0  0  0  0  0  0
   -2.7413   -2.0086    0.9721 C   0  0  0  0  0  0  0  0  0  0  0  0
   -3.2933   -1.3998    1.6924 H   0  0  0  0  0  0  0  0  0  0  0  0
   -3.3341   -2.1104    0.0601 H   0  0  0  0  0  0  0  0  0  0  0  0
   -1.4097   -1.3546    0.6543 C   0  0  0  0  0  0  0  0  0  0  0  0
   -0.3752   -1.9542    0.8946 O   0  0  0  0  0  0  0  0  0  0  0  0
   -1.3954   -0.0834    0.1175 N   0  0  0  0  0  0  0  0  0  0  0  0
   -2.2785    0.4183    0.1844 H   0  0  0  0  0  0  0  0  0  0  0  0
   -0.1916    0.7649    0.0501 C   0  0  1  0  0  0  0  0  0  0  0  0
    0.6698    0.2525    0.4932 H   0  0  0  0  0  0  0  0  0  0  0  0
    0.1184    1.0641   -1.4279 C   0  0  0  0  0  0  0  0  0  0  0  0
   -0.7487    1.5420   -1.8929 H   0  0  0  0  0  0  0  0  0  0  0  0
    0.9630    1.7536   -1.5092 H   0  0  0  0  0  0  0  0  0  0  0  0
    0.4649   -0.1878   -2.1736 C   0  0  0  0  0  0  0  0  0  0  0  0
    1.6890   -0.8258   -2.0348 N   0  0  0  0  0  0  0  0  0  0  0  0
    1.6369   -1.8883   -2.8010 C   0  0  0  0  0  0  0  0  0  0  0  0
    2.4363   -2.6163   -2.9045 H   0  0  0  0  0  0  0  0  0  0  0  0
    0.4233   -1.9380   -3.4628 N   0  0  0  0  0  0  0  0  0  0  0  0
    0.1364   -2.6725   -4.1066 H   0  0  0  0  0  0  0  0  0  0  0  0
   -0.3270   -0.8497   -3.0694 C   0  0  0  0  0  0  0  0  0  0  0  0
   -1.3322   -0.5760   -3.3737 H   0  0  0  0  0  0  0  0  0  0  0  0
   -0.3899    2.0833    0.8283 C   0  0  0  0  0  0  0  0  0  0  0  0
   -1.4865    2.3578    1.3064 O   0  0  0  0  0  0  0  0  0  0  0  0
    0.6265    3.0198    0.8902 N   0  0  0  0  0  0  0  0  0  0  0  0
    1.5321    2.7506    0.5143 H   0  0  0  0  0  0  0  0  0  0  0  0
    0.5013    4.2969    1.5816 C   0  0  0  0  0  0  0  0  0  0  0  0
    0.2792    4.1384    2.6422 H   0  0  0  0  0  0  0  0  0  0  0  0
    1.4355    4.8614    1.5043 H   0  0  0  0  0  0  0  0  0  0  0  0
   -0.3013    4.8956    1.1382 H   0  0  0  0  0  0  0  0  0  0  0  0
  1  2  1  0  0  0  0
  2  3  1  0  0  0  0
  2  4  1  0  0  0  0
  2  5  1  0  0  0  0
  5  6  2  0  0  0  0
  5  7  1  0  0  0  0
  7  8  1  0  0  0  0
  7  9  1  0  0  0  0
  9 10  1  0  0  0  0
  9 11  1  0  0  0  0
  9 22  1  0  0  0  0
 11 12  1  0  0  0  0
 11 13  1  0  0  0  0
 11 14  1  0  0  0  0
 14 15  1  0  0  0  0
 14 20  2  0  0  0  0
 15 16  2  0  0  0  0
 16 17  1  0  0  0  0
 16 18  1  0  0  0  0
 18 19  1  0  0  0  0
 18 20  1  0  0  0  0
 20 21  1  0  0  0  0
 22 23  2  0  0  0  0
 22 24  1  0  0  0  0
 24 25  1  0  0  0  0
 24 26  1  0  0  0  0
 26 27  1  0  0  0  0
 26 28  1  0  0  0  0
 26 29  1  0  0  0  0
M  END
$$$$

  -OEChem-01062216083D

 29 29  0     1  0  0  0  0  0999 V2000
   -2.5695   -2.9811    1.4195 H   0  0  0  0  0  0  0  0  0  0  0  0
   -2.7338   -1.9888    0.9903 C   0  0  0  0  0  0  0  0  0  0  0  0
   -3.2564   -1.3708    1.7246 H   0  0  0  0  0  0  0  0  0  0  0  0
   -3.3551   -2.0889    0.0973 H   0  0  0  0  0  0  0  0  0  0  0  0
   -1.4063   -1.3493    0.6293 C   0  0  0  0  0  0  0  0  0  0  0  0
   -0.3716   -1.9619    0.8334 O   0  0  0  0  0  0  0  0  0  0  0  0
   -1.3970   -0.0766    0.0949 N   0  0  0  0  0  0  0  0  0  0  0  0
   -2.2747    0.4278    0.1997 H   0  0  0  0  0  0  0  0  0  0  0  0
   -0.1908    0.7697    0.0349 C   0  0  1  0  0  0  0  0  0  0  0  0
    0.6686    0.2582    0.4834 H   0  0  0  0  0  0  0  0  0  0  0  0
    0.1226    1.0578   -1.4466 C   0  0  0  0  0  0  0  0  0  0  0  0
   -0.7425    1.5348   -1.9163 H   0  0  0  0  0  0  0  0  0  0  0  0
    0.9715    1.7408   -1.5343 H   0  0  0  0  0  0  0  0  0  0  0  0
    0.4690   -0.1982   -2.1856 C   0  0  0  0  0  0  0  0  0  0  0  0
    1.6919   -0.8375   -2.0430 N   0  0  0  0  0  0  0  0  0  0  0  0
    1.6375   -1.9049   -2.8025 C   0  0  0  0  0  0  0  0  0  0  0  0
    2.4351   -2.6357   -2.9017 H   0  0  0  0  0  0  0  0  0  0  0  0
    0.4238   -1.9559   -3.4643 N   0  0  0  0  0  0  0  0  0  0  0  0
    0.1349   -2.6946   -4.1024 H   0  0  0  0  0  0  0  0  0  0  0  0
   -0.3243   -0.8640   -3.0773 C   0  0  0  0  0  0  0  0  0  0  0  0
   -1.3296   -0.5912   -3.3818 H   0  0  0  0  0  0  0  0  0  0  0  0
   -0.3973    2.0859    0.8203 C   0  0  0  0  0  0  0  0  0  0  0  0
   -1.4137    2.2478    1.4888 O   0  0  0  0  0  0  0  0  0  0  0  0
    0.4659    3.1554    0.6563 N   0  0  0  0  0  0  0  0  0  0  0  0
    1.3202    2.9867    0.1320 H   0  0  0  0  0  0  0  0  0  0  0  0
    0.3025    4.4329    1.3391 C   0  0  0  0  0  0  0  0  0  0  0  0
    0.3233    4.2930    2.4251 H   0  0  0  0  0  0  0  0  0  0  0  0
    1.1125    5.1145    1.0622 H   0  0  0  0  0  0  0  0  0  0  0  0
   -0.6491    4.8974    1.0605 H   0  0  0  0  0  0  0  0  0  0  0  0
  1  2  1  0  0  0  0
  2  3  1  0  0  0  0
  2  4  1  0  0  0  0
  2  5  1  0  0  0  0
  5  6  2  0  0  0  0
  5  7  1  0  0  0  0
  7  8  1  0  0  0  0
  7  9  1  0  0  0  0
  9 10  1  0  0  0  0
  9 11  1  0  0  0  0
  9 22  1  0  0  0  0
 11 12  1  0  0  0  0
 11 13  1  0  0  0  0
 11 14  1  0  0  0  0
 14 15  1  0  0  0  0
 14 20  2  0  0  0  0
 15 16  2  0  0  0  0
 16 17  1  0  0  0  0
 16 18  1  0  0  0  0
 18 19  1  0  0  0  0
 18 20  1  0  0  0  0
 20 21  1  0  0  0  0
 22 23  2  0  0  0  0
 22 24  1  0  0  0  0
 24 25  1  0  0  0  0
 24 26  1  0  0  0  0
 26 27  1  0  0  0  0
 26 28  1  0  0  0  0
 26 29  1  0  0  0  0
M  END
$$$$

  -OEChem-01062216083D

 29 29  0     1  0  0  0  0  0999 V2000
   -2.5575   -2.9672    1.4249 H   0  0  0  0  0  0  0  0  0  0  0  0
   -2.7258   -1.9751    0.9965 C   0  0  0  0  0  0  0  0  0  0  0  0
   -3.2341   -1.3541    1.7384 H   0  0  0  0  0  0  0  0  0  0  0  0
   -3.3629   -2.0753    0.1147 H   0  0  0  0  0  0  0  0  0  0  0  0
   -1.4028   -1.3408    0.6103 C   0  0  0  0  0  0  0  0  0  0  0  0
   -0.3690   -1.9662    0.7755 O   0  0  0  0  0  0  0  0  0  0  0  0
   -1.3994   -0.0654    0.0815 N   0  0  0  0  0  0  0  0  0  0  0  0
   -2.2730    0.4383    0.2142 H   0  0  0  0  0  0  0  0  0  0  0  0
   -0.1913    0.7787    0.0167 C   0  0  1  0  0  0  0  0  0  0  0  0
    0.6681    0.2671    0.4652 H   0  0  0  0  0  0  0  0  0  0  0  0
    0.1249    1.0547   -1.4680 C   0  0  0  0  0  0  0  0  0  0  0  0
   -0.7363    1.5320   -1.9444 H   0  0  0  0  0  0  0  0  0  0  0  0
    0.9791    1.7303   -1.5593 H   0  0  0  0  0  0  0  0  0  0  0  0
    0.4700   -0.2078   -2.1970 C   0  0  0  0  0  0  0  0  0  0  0  0
    1.6919   -0.8468   -2.0472 N   0  0  0  0  0  0  0  0  0  0  0  0
    1.6359   -1.9233   -2.7932 C   0  0  0  0  0  0  0  0  0  0  0  0
    2.4323   -2.6564   -2.8834 H   0  0  0  0  0  0  0  0  0  0  0  0
    0.4228   -1.9800   -3.4554 N   0  0  0  0  0  0  0  0  0  0  0  0
    0.1310   -2.7294   -4.0796 H   0  0  0  0  0  0  0  0  0  0  0  0
   -0.3238   -0.8821   -3.0820 C   0  0  0  0  0  0  0  0  0  0  0  0
   -1.3290   -0.6123   -3.3892 H   0  0  0  0  0  0  0  0  0  0  0  0
   -0.3982    2.0903    0.8138 C   0  0  0  0  0  0  0  0  0  0  0  0
   -1.2745    2.1481    1.6703 O   0  0  0  0  0  0  0  0  0  0  0  0
    0.2445    3.2641    0.4573 N   0  0  0  0  0  0  0  0  0  0  0  0
    0.9923    3.1954   -0.2272 H   0  0  0  0  0  0  0  0  0  0  0  0
    0.0369    4.5338    1.1433 C   0  0  0  0  0  0  0  0  0  0  0  0
    0.2888    4.4413    2.2051 H   0  0  0  0  0  0  0  0  0  0  0  0
    0.6715    5.3093    0.7037 H   0  0  0  0  0  0  0  0  0  0  0  0
   -1.0072    4.8514    1.0544 H   0  0  0  0  0  0  0  0  0  0  0  0
  1  2  1  0  0  0  0
  2  3  1  0  0  0  0
  2  4  1  0  0  0  0
  2  5  1  0  0  0  0
  5  6  2  0  0  0  0
  5  7  1  0  0  0  0
  7  8  1  0  0  0  0
  7  9  1  0  0  0  0
  9 10  1  0  0  0  0
  9 11  1  0  0  0  0
  9 22  1  0  0  0  0
 11 12  1  0  0  0  0
 11 13  1  0  0  0  0
 11 14  1  0  0  0  0
 14 15  1  0  0  0  0
 14 20  2  0  0  0  0
 15 16  2  0  0  0  0
 16 17  1  0  0  0  0
 16 18  1  0  0  0  0
 18 19  1  0  0  0  0
 18 20  1  0  0  0  0
 20 21  1  0  0  0  0
 22 23  2  0  0  0  0
 22 24  1  0  0  0  0
 24 25  1  0  0  0  0
 24 26  1  0  0  0  0
 26 27  1  0  0  0  0
 26 28  1  0  0  0  0
 26 29  1  0  0  0  0
M  END
$$$$

  -OEChem-01062216083D

 29 29  0     1  0  0  0  0  0999 V2000
   -2.5477   -2.9618    1.4278 H   0  0  0  0  0  0  0  0  0  0  0  0
   -2.7219   -1.9701    1.0010 C   0  0  0  0  0  0  0  0  0  0  0  0
   -3.2231   -1.3495    1.7480 H   0  0  0  0  0  0  0  0  0  0  0  0
   -3.3682   -2.0716    0.1261 H   0  0  0  0  0  0  0  0  0  0  0  0
   -1.4031   -1.3348    0.6019 C   0  0  0  0  0  0  0  0  0  0  0  0
   -0.3686   -1.9630    0.7507 O   0  0  0  0  0  0  0  0  0  0  0  0
   -1.4050   -0.0584    0.0749 N   0  0  0  0  0  0  0  0  0  0  0  0
   -2.2817    0.4394    0.2034 H   0  0  0  0  0  0  0  0  0  0  0  0
   -0.1968    0.7856    0.0051 C   0  0  1  0  0  0  0  0  0  0  0  0
    0.6622    0.2755    0.4562 H   0  0  0  0  0  0  0  0  0  0  0  0
    0.1255    1.0526   -1.4799 C   0  0  0  0  0  0  0  0  0  0  0  0
   -0.7327    1.5274   -1.9638 H   0  0  0  0  0  0  0  0  0  0  0  0
    0.9822    1.7261   -1.5670 H   0  0  0  0  0  0  0  0  0  0  0  0
    0.4739   -0.2135   -2.2016 C   0  0  0  0  0  0  0  0  0  0  0  0
    1.6948   -0.8528   -2.0454 N   0  0  0  0  0  0  0  0  0  0  0  0
    1.6392   -1.9343   -2.7840 C   0  0  0  0  0  0  0  0  0  0  0  0
    2.4348   -2.6692   -2.8671 H   0  0  0  0  0  0  0  0  0  0  0  0
    0.4275   -1.9938   -3.4486 N   0  0  0  0  0  0  0  0  0  0  0  0
    0.1357   -2.7481   -4.0665 H   0  0  0  0  0  0  0  0  0  0  0  0
   -0.3190   -0.8930   -3.0837 C   0  0  0  0  0  0  0  0  0  0  0  0
   -1.3243   -0.6261   -3.3932 H   0  0  0  0  0  0  0  0  0  0  0  0
   -0.4053    2.0938    0.8075 C   0  0  0  0  0  0  0  0  0  0  0  0
   -1.0889    2.0743    1.8246 O   0  0  0  0  0  0  0  0  0  0  0  0
   -0.0304    3.3285    0.3028 N   0  0  0  0  0  0  0  0  0  0  0  0
    0.5532    3.3342   -0.5283 H   0  0  0  0  0  0  0  0  0  0  0  0
   -0.2717    4.5880    0.9972 C   0  0  0  0  0  0  0  0  0  0  0  0
    0.2016    4.5777    1.9846 H   0  0  0  0  0  0  0  0  0  0  0  0
    0.1439    5.4218    0.4232 H   0  0  0  0  0  0  0  0  0  0  0  0
   -1.3463    4.7574    1.1225 H   0  0  0  0  0  0  0  0  0  0  0  0
  1  2  1  0  0  0  0
  2  3  1  0  0  0  0
  2  4  1  0  0  0  0
  2  5  1  0  0  0  0
  5  6  2  0  0  0  0
  5  7  1  0  0  0  0
  7  8  1  0  0  0  0
  7  9  1  0  0  0  0
  9 10  1  0  0  0  0
  9 11  1  0  0  0  0
  9 22  1  0  0  0  0
 11 12  1  0  0  0  0
 11 13  1  0  0  0  0
 11 14  1  0  0  0  0
 14 15  1  0  0  0  0
 14 20  2  0  0  0  0
 15 16  2  0  0  0  0
 16 17  1  0  0  0  0
 16 18  1  0  0  0  0
 18 19  1  0  0  0  0
 18 20  1  0  0  0  0
 20 21  1  0  0  0  0
 22 23  2  0  0  0  0
 22 24  1  0  0  0  0
 24 25  1  0  0  0  0
 24 26  1  0  0  0  0
 26 27  1  0  0  0  0
 26 28  1  0  0  0  0
 26 29  1  0  0  0  0
M  END
$$$$

  -OEChem-01062216083D

 29 29  0     1  0  0  0  0  0999 V2000
   -2.5463   -2.9679    1.4220 H   0  0  0  0  0  0  0  0  0  0  0  0
   -2.7217   -1.9765    0.9947 C   0  0  0  0  0  0  0  0  0  0  0  0
   -3.2344   -1.3603    1.7374 H   0  0  0  0  0  0  0  0  0  0  0  0
   -3.3578   -2.0797    0.1126 H   0  0  0  0  0  0  0  0  0  0  0  0
   -1.4025   -1.3331    0.6104 C   0  0  0  0  0  0  0  0  0  0  0  0
   -0.3673   -1.9594    0.7605 O   0  0  0  0  0  0  0  0  0  0  0  0
   -1.4082   -0.0563    0.0832 N   0  0  0  0  0  0  0  0  0  0  0  0
   -2.2927    0.4321    0.1854 H   0  0  0  0  0  0  0  0  0  0  0  0
   -0.2031    0.7909    0.0043 C   0  0  1  0  0  0  0  0  0  0  0  0
    0.6581    0.2835    0.4546 H   0  0  0  0  0  0  0  0  0  0  0  0
    0.1194    1.0531   -1.4810 C   0  0  0  0  0  0  0  0  0  0  0  0
   -0.7412    1.5194   -1.9688 H   0  0  0  0  0  0  0  0  0  0  0  0
    0.9725    1.7323   -1.5654 H   0  0  0  0  0  0  0  0  0  0  0  0
    0.4726   -0.2144   -2.1983 C   0  0  0  0  0  0  0  0  0  0  0  0
    1.6949   -0.8497   -2.0397 N   0  0  0  0  0  0  0  0  0  0  0  0
    1.6439   -1.9331   -2.7756 C   0  0  0  0  0  0  0  0  0  0  0  0
    2.4425   -2.6649   -2.8562 H   0  0  0  0  0  0  0  0  0  0  0  0
    0.4328   -1.9985   -3.4408 N   0  0  0  0  0  0  0  0  0  0  0  0
    0.1441   -2.7548   -4.0580 H   0  0  0  0  0  0  0  0  0  0  0  0
   -0.3174   -0.8990   -3.0793 C   0  0  0  0  0  0  0  0  0  0  0  0
   -1.3230   -0.6362   -3.3911 H   0  0  0  0  0  0  0  0  0  0  0  0
   -0.4086    2.0981    0.8066 C   0  0  0  0  0  0  0  0  0  0  0  0
   -0.8524    2.0401    1.9463 O   0  0  0  0  0  0  0  0  0  0  0  0
   -0.3335    3.3440    0.2046 N   0  0  0  0  0  0  0  0  0  0  0  0
    0.0388    3.3850   -0.7392 H   0  0  0  0  0  0  0  0  0  0  0  0
   -0.6022    4.5933    0.9075 C   0  0  0  0  0  0  0  0  0  0  0  0
    0.0625    4.6978    1.7715 H   0  0  0  0  0  0  0  0  0  0  0  0
   -0.4379    5.4453    0.2408 H   0  0  0  0  0  0  0  0  0  0  0  0
   -1.6401    4.6217    1.2554 H   0  0  0  0  0  0  0  0  0  0  0  0
  1  2  1  0  0  0  0
  2  3  1  0  0  0  0
  2  4  1  0  0  0  0
  2  5  1  0  0  0  0
  5  6  2  0  0  0  0
  5  7  1  0  0  0  0
  7  8  1  0  0  0  0
  7  9  1  0  0  0  0
  9 10  1  0  0  0  0
  9 11  1  0  0  0  0
  9 22  1  0  0  0  0
 11 12  1  0  0  0  0
 11 13  1  0  0  0  0
 11 14  1  0  0  0  0
 14 15  1  0  0  0  0
 14 20  2  0  0  0  0
 15 16  2  0  0  0  0
 16 17  1  0  0  0  0
 16 18  1  0  0  0  0
 18 19  1  0  0  0  0
 18 20  1  0  0  0  0
 20 21  1  0  0  0  0
 22 23  2  0  0  0  0
 22 24  1  0  0  0  0
 24 25  1  0  0  0  0
 24 26  1  0  0  0  0
 26 27  1  0  0  0  0
 26 28  1  0  0  0  0
 26 29  1  0  0  0  0
M  END
$$$$

  -OEChem-01062216083D

 29 29  0     1  0  0  0  0  0999 V2000
   -2.5479   -2.9815    1.4106 H   0  0  0  0  0  0  0  0  0  0  0  0
   -2.7248   -1.9890    0.9865 C   0  0  0  0  0  0  0  0  0  0  0  0
   -3.2487   -1.3798    1.7273 H   0  0  0  0  0  0  0  0  0  0  0  0
   -3.3510   -2.0919    0.0972 H   0  0  0  0  0  0  0  0  0  0  0  0
   -1.4054   -1.3361    0.6197 C   0  0  0  0  0  0  0  0  0  0  0  0
   -0.3685   -1.9558    0.7813 O   0  0  0  0  0  0  0  0  0  0  0  0
   -1.4136   -0.0593    0.0928 N   0  0  0  0  0  0  0  0  0  0  0  0
   -2.3076    0.4176    0.1550 H   0  0  0  0  0  0  0  0  0  0  0  0
   -0.2127    0.7930    0.0093 C   0  0  1  0  0  0  0  0  0  0  0  0
    0.6509    0.2879    0.4583 H   0  0  0  0  0  0  0  0  0  0  0  0
    0.1104    1.0578   -1.4750 C   0  0  0  0  0  0  0  0  0  0  0  0
   -0.7520    1.5162   -1.9665 H   0  0  0  0  0  0  0  0  0  0  0  0
    0.9569    1.7466   -1.5544 H   0  0  0  0  0  0  0  0  0  0  0  0
    0.4708   -0.2084   -2.1924 C   0  0  0  0  0  0  0  0  0  0  0  0
    1.6956   -0.8385   -2.0327 N   0  0  0  0  0  0  0  0  0  0  0  0
    1.6509   -1.9228   -2.7675 C   0  0  0  0  0  0  0  0  0  0  0  0
    2.4531   -2.6509   -2.8465 H   0  0  0  0  0  0  0  0  0  0  0  0
    0.4408   -1.9944   -3.4335 N   0  0  0  0  0  0  0  0  0  0  0  0
    0.1571   -2.7520   -4.0512 H   0  0  0  0  0  0  0  0  0  0  0  0
   -0.3153   -0.8986   -3.0731 C   0  0  0  0  0  0  0  0  0  0  0  0
   -1.3223   -0.6430   -3.3863 H   0  0  0  0  0  0  0  0  0  0  0  0
   -0.4176    2.0992    0.8099 C   0  0  0  0  0  0  0  0  0  0  0  0
   -0.5849    2.0469    2.0206 O   0  0  0  0  0  0  0  0  0  0  0  0
   -0.6532    3.3072    0.1727 N   0  0  0  0  0  0  0  0  0  0  0  0
   -0.5041    3.3429   -0.8309 H   0  0  0  0  0  0  0  0  0  0  0  0
   -0.9351    4.5481    0.8850 C   0  0  0  0  0  0  0  0  0  0  0  0
   -0.1088    4.7991    1.5584 H   0  0  0  0  0  0  0  0  0  0  0  0
   -1.0651    5.3707    0.1753 H   0  0  0  0  0  0  0  0  0  0  0  0
   -1.8534    4.4524    1.4738 H   0  0  0  0  0  0  0  0  0  0  0  0
  1  2  1  0  0  0  0
  2  3  1  0  0  0  0
  2  4  1  0  0  0  0
  2  5  1  0  0  0  0
  5  6  2  0  0  0  0
  5  7  1  0  0  0  0
  7  8  1  0  0  0  0
  7  9  1  0  0  0  0
  9 10  1  0  0  0  0
  9 11  1  0  0  0  0
  9 22  1  0  0  0  0
 11 12  1  0  0  0  0
 11 13  1  0  0  0  0
 11 14  1  0  0  0  0
 14 15  1  0  0  0  0
 14 20  2  0  0  0  0
 15 16  2  0  0  0  0
 16 17  1  0  0  0  0
 16 18  1  0  0  0  0
 18 19  1  0  0  0  0
 18 20  1  0  0  0  0
 20 21  1  0  0  0  0
 22 23  2  0  0  0  0
 22 24  1  0  0  0  0
 24 25  1  0  0  0  0
 24 26  1  0  0  0  0
 26 27  1  0  0  0  0
 26 28  1  0  0  0  0
 26 29  1  0  0  0  0
M  END
$$$$

  -OEChem-01062216083D

 29 29  0     1  0  0  0  0  0999 V2000
   -2.5504   -3.0064    1.3971 H   0  0  0  0  0  0  0  0  0  0  0  0
   -2.7285   -2.0150    0.9710 C   0  0  0  0  0  0  0  0  0  0  0  0
   -3.2792   -1.4146    1.6991 H   0  0  0  0  0  0  0  0  0  0  0  0
   -3.3298   -2.1239    0.0656 H   0  0  0  0  0  0  0  0  0  0  0  0
   -1.4080   -1.3448    0.6399 C   0  0  0  0  0  0  0  0  0  0  0  0
   -0.3682   -1.9509    0.8302 O   0  0  0  0  0  0  0  0  0  0  0  0
   -1.4181   -0.0683    0.1110 N   0  0  0  0  0  0  0  0  0  0  0  0
   -2.3209    0.3947    0.1276 H   0  0  0  0  0  0  0  0  0  0  0  0
   -0.2227    0.7919    0.0224 C   0  0  1  0  0  0  0  0  0  0  0  0
    0.6453    0.2908    0.4679 H   0  0  0  0  0  0  0  0  0  0  0  0
    0.0975    1.0633   -1.4606 C   0  0  0  0  0  0  0  0  0  0  0  0
   -0.7673    1.5159   -1.9527 H   0  0  0  0  0  0  0  0  0  0  0  0
    0.9376    1.7604   -1.5367 H   0  0  0  0  0  0  0  0  0  0  0  0
    0.4651   -0.1996   -2.1805 C   0  0  0  0  0  0  0  0  0  0  0  0
    1.6929   -0.8239   -2.0238 N   0  0  0  0  0  0  0  0  0  0  0  0
    1.6547   -1.9055   -2.7627 C   0  0  0  0  0  0  0  0  0  0  0  0
    2.4615   -2.6282   -2.8452 H   0  0  0  0  0  0  0  0  0  0  0  0
    0.4444   -1.9818   -3.4280 N   0  0  0  0  0  0  0  0  0  0  0  0
    0.1656   -2.7375   -4.0503 H   0  0  0  0  0  0  0  0  0  0  0  0
   -0.3173   -0.8910   -3.0636 C   0  0  0  0  0  0  0  0  0  0  0  0
   -1.3248   -0.6386   -3.3776 H   0  0  0  0  0  0  0  0  0  0  0  0
   -0.4287    2.0993    0.8178 C   0  0  0  0  0  0  0  0  0  0  0  0
   -0.2923    2.1057    2.0328 O   0  0  0  0  0  0  0  0  0  0  0  0
   -0.9688    3.2229    0.2127 N   0  0  0  0  0  0  0  0  0  0  0  0
   -1.0528    3.2146   -0.7988 H   0  0  0  0  0  0  0  0  0  0  0  0
   -1.2457    4.4620    0.9300 C   0  0  0  0  0  0  0  0  0  0  0  0
   -0.3272    4.8619    1.3728 H   0  0  0  0  0  0  0  0  0  0  0  0
   -1.6555    5.2116    0.2463 H   0  0  0  0  0  0  0  0  0  0  0  0
   -1.9751    4.2882    1.7282 H   0  0  0  0  0  0  0  0  0  0  0  0
  1  2  1  0  0  0  0
  2  3  1  0  0  0  0
  2  4  1  0  0  0  0
  2  5  1  0  0  0  0
  5  6  2  0  0  0  0
  5  7  1  0  0  0  0
  7  8  1  0  0  0  0
  7  9  1  0  0  0  0
  9 10  1  0  0  0  0
  9 11  1  0  0  0  0
  9 22  1  0  0  0  0
 11 12  1  0  0  0  0
 11 13  1  0  0  0  0
 11 14  1  0  0  0  0
 14 15  1  0  0  0  0
 14 20  2  0  0  0  0
 15 16  2  0  0  0  0
 16 17  1  0  0  0  0
 16 18  1  0  0  0  0
 18 19  1  0  0  0  0
 18 20  1  0  0  0  0
 20 21  1  0  0  0  0
 22 23  2  0  0  0  0
 22 24  1  0  0  0  0
 24 25  1  0  0  0  0
 24 26  1  0  0  0  0
 26 27  1  0  0  0  0
 26 28  1  0  0  0  0
 26 29  1  0  0  0  0
M  END
$$$$

  -OEChem-01062216083D

 29 29  0     1  0  0  0  0  0999 V2000
   -2.5527   -3.0378    1.3878 H   0  0  0  0  0  0  0  0  0  0  0  0
   -2.7326   -2.0497    0.9547 C   0  0  0  0  0  0  0  0  0  0  0  0
   -3.3184   -1.4584    1.6625 H   0  0  0  0  0  0  0  0  0  0  0  0
   -3.3006   -2.1689    0.0291 H   0  0  0  0  0  0  0  0  0  0  0  0
   -1.4124   -1.3586    0.6685 C   0  0  0  0  0  0  0  0  0  0  0  0
   -0.3710   -1.9458    0.9010 O   0  0  0  0  0  0  0  0  0  0  0  0
   -1.4235   -0.0832    0.1365 N   0  0  0  0  0  0  0  0  0  0  0  0
   -2.3327    0.3655    0.1082 H   0  0  0  0  0  0  0  0  0  0  0  0
   -0.2320    0.7833    0.0453 C   0  0  1  0  0  0  0  0  0  0  0  0
    0.6393    0.2846    0.4875 H   0  0  0  0  0  0  0  0  0  0  0  0
    0.0862    1.0666   -1.4350 C   0  0  0  0  0  0  0  0  0  0  0  0
   -0.7781    1.5221   -1.9245 H   0  0  0  0  0  0  0  0  0  0  0  0
    0.9239    1.7674   -1.5046 H   0  0  0  0  0  0  0  0  0  0  0  0
    0.4587   -0.1899   -2.1637 C   0  0  0  0  0  0  0  0  0  0  0  0
    1.6880   -0.8126   -2.0136 N   0  0  0  0  0  0  0  0  0  0  0  0
    1.6543   -1.8852   -2.7654 C   0  0  0  0  0  0  0  0  0  0  0  0
    2.4634   -2.6044   -2.8558 H   0  0  0  0  0  0  0  0  0  0  0  0
    0.4448   -1.9574   -3.4323 N   0  0  0  0  0  0  0  0  0  0  0  0
    0.1719   -2.7033   -4.0689 H   0  0  0  0  0  0  0  0  0  0  0  0
   -0.3205   -0.8731   -3.0562 C   0  0  0  0  0  0  0  0  0  0  0  0
   -1.3265   -0.6174   -3.3715 H   0  0  0  0  0  0  0  0  0  0  0  0
   -0.4413    2.0923    0.8348 C   0  0  0  0  0  0  0  0  0  0  0  0
    0.0026    2.2157    1.9668 O   0  0  0  0  0  0  0  0  0  0  0  0
   -1.2556    3.0932    0.3293 N   0  0  0  0  0  0  0  0  0  0  0  0
   -1.5683    3.0009   -0.6315 H   0  0  0  0  0  0  0  0  0  0  0  0
   -1.5168    4.3421    1.0361 C   0  0  0  0  0  0  0  0  0  0  0  0
   -0.5826    4.8854    1.2131 H   0  0  0  0  0  0  0  0  0  0  0  0
   -2.1807    4.9795    0.4445 H   0  0  0  0  0  0  0  0  0  0  0  0
   -1.9973    4.1443    2.0002 H   0  0  0  0  0  0  0  0  0  0  0  0
  1  2  1  0  0  0  0
  2  3  1  0  0  0  0
  2  4  1  0  0  0  0
  2  5  1  0  0  0  0
  5  6  2  0  0  0  0
  5  7  1  0  0  0  0
  7  8  1  0  0  0  0
  7  9  1  0  0  0  0
  9 10  1  0  0  0  0
  9 11  1  0  0  0  0
  9 22  1  0  0  0  0
 11 12  1  0  0  0  0
 11 13  1  0  0  0  0
 11 14  1  0  0  0  0
 14 15  1  0  0  0  0
 14 20  2  0  0  0  0
 15 16  2  0  0  0  0
 16 17  1  0  0  0  0
 16 18  1  0  0  0  0
 18 19  1  0  0  0  0
 18 20  1  0  0  0  0
 20 21  1  0  0  0  0
 22 23  2  0  0  0  0
 22 24  1  0  0  0  0
 24 25  1  0  0  0  0
 24 26  1  0  0  0  0
 26 27  1  0  0  0  0
 26 28  1  0  0  0  0
 26 29  1  0  0  0  0
M  END
$$$$

  -OEChem-01062216083D

 29 29  0     1  0  0  0  0  0999 V2000
   -2.5513   -3.0879    1.3621 H   0  0  0  0  0  0  0  0  0  0  0  0
   -2.7317   -2.1020    0.9239 C   0  0  0  0  0  0  0  0  0  0  0  0
   -3.3650   -1.5274    1.6039 H   0  0  0  0  0  0  0  0  0  0  0  0
   -3.2499   -2.2304   -0.0293 H   0  0  0  0  0  0  0  0  0  0  0  0
   -1.4146   -1.3806    0.7058 C   0  0  0  0  0  0  0  0  0  0  0  0
   -0.3744   -1.9400    1.0015 O   0  0  0  0  0  0  0  0  0  0  0  0
   -1.4258   -0.1063    0.1712 N   0  0  0  0  0  0  0  0  0  0  0  0
   -2.3407    0.3194    0.0739 H   0  0  0  0  0  0  0  0  0  0  0  0
   -0.2388    0.7686    0.0820 C   0  0  1  0  0  0  0  0  0  0  0  0
    0.6367    0.2724    0.5193 H   0  0  0  0  0  0  0  0  0  0  0  0
    0.0711    1.0692   -1.3952 C   0  0  0  0  0  0  0  0  0  0  0  0
   -0.7955    1.5315   -1.8744 H   0  0  0  0  0  0  0  0  0  0  0  0
    0.9067    1.7733   -1.4589 H   0  0  0  0  0  0  0  0  0  0  0  0
    0.4466   -0.1777   -2.1390 C   0  0  0  0  0  0  0  0  0  0  0  0
    1.6782   -0.7991   -2.0035 N   0  0  0  0  0  0  0  0  0  0  0  0
    1.6466   -1.8588   -2.7731 C   0  0  0  0  0  0  0  0  0  0  0  0
    2.4590   -2.5719   -2.8788 H   0  0  0  0  0  0  0  0  0  0  0  0
    0.4340   -1.9260   -3.4350 N   0  0  0  0  0  0  0  0  0  0  0  0
    0.1622   -2.6605   -4.0854 H   0  0  0  0  0  0  0  0  0  0  0  0
   -0.3333   -0.8503   -3.0388 C   0  0  0  0  0  0  0  0  0  0  0  0
   -1.3401   -0.5920   -3.3488 H   0  0  0  0  0  0  0  0  0  0  0  0
   -0.4495    2.0810    0.8637 C   0  0  0  0  0  0  0  0  0  0  0  0
    0.2619    2.3692    1.8146 O   0  0  0  0  0  0  0  0  0  0  0  0
   -1.4859    2.9348    0.5203 N   0  0  0  0  0  0  0  0  0  0  0  0
   -1.9929    2.7336   -0.3347 H   0  0  0  0  0  0  0  0  0  0  0  0
   -1.7234    4.2067    1.1931 C   0  0  0  0  0  0  0  0  0  0  0  0
   -0.8531    4.8634    1.0899 H   0  0  0  0  0  0  0  0  0  0  0  0
   -2.5911    4.7098    0.7559 H   0  0  0  0  0  0  0  0  0  0  0  0
   -1.9190    4.0460    2.2587 H   0  0  0  0  0  0  0  0  0  0  0  0
  1  2  1  0  0  0  0
  2  3  1  0  0  0  0
  2  4  1  0  0  0  0
  2  5  1  0  0  0  0
  5  6  2  0  0  0  0
  5  7  1  0  0  0  0
  7  8  1  0  0  0  0
  7  9  1  0  0  0  0
  9 10  1  0  0  0  0
  9 11  1  0  0  0  0
  9 22  1  0  0  0  0
 11 12  1  0  0  0  0
 11 13  1  0  0  0  0
 11 14  1  0  0  0  0
 14 15  1  0  0  0  0
 14 20  2  0  0  0  0
 15 16  2  0  0  0  0
 16 17  1  0  0  0  0
 16 18  1  0  0  0  0
 18 19  1  0  0  0  0
 18 20  1  0  0  0  0
 20 21  1  0  0  0  0
 22 23  2  0  0  0  0
 22 24  1  0  0  0  0
 24 25  1  0  0  0  0
 24 26  1  0  0  0  0
 26 27  1  0  0  0  0
 26 28  1  0  0  0  0
 26 29  1  0  0  0  0
M  END
$$$$

  -OEChem-01062216083D

 29 29  0     1  0  0  0  0  0999 V2000
   -2.4405   -3.2046    1.1807 H   0  0  0  0  0  0  0  0  0  0  0  0
   -2.6295   -2.2396    0.7015 C   0  0  0  0  0  0  0  0  0  0  0  0
   -3.4979   -1.7764    1.1758 H   0  0  0  0  0  0  0  0  0  0  0  0
   -2.8444   -2.4098   -0.3560 H   0  0  0  0  0  0  0  0  0  0  0  0
   -1.4164   -1.3397    0.8466 C   0  0  0  0  0  0  0  0  0  0  0  0
   -0.4508   -1.7362    1.4733 O   0  0  0  0  0  0  0  0  0  0  0  0
   -1.4396   -0.0802    0.2786 N   0  0  0  0  0  0  0  0  0  0  0  0
   -2.2483    0.1271   -0.2949 H   0  0  0  0  0  0  0  0  0  0  0  0
   -0.2524    0.7906    0.1500 C   0  0  1  0  0  0  0  0  0  0  0  0
    0.6308    0.2976    0.5747 H   0  0  0  0  0  0  0  0  0  0  0  0
    0.0217    1.0637   -1.3389 C   0  0  0  0  0  0  0  0  0  0  0  0
   -0.8530    1.5286   -1.8015 H   0  0  0  0  0  0  0  0  0  0  0  0
    0.8596    1.7620   -1.4334 H   0  0  0  0  0  0  0  0  0  0  0  0
    0.3749   -0.1969   -2.0717 C   0  0  0  0  0  0  0  0  0  0  0  0
    1.6046   -0.8263   -1.9612 N   0  0  0  0  0  0  0  0  0  0  0  0
    1.5606   -1.8774   -2.7419 C   0  0  0  0  0  0  0  0  0  0  0  0
    2.3720   -2.5878   -2.8728 H   0  0  0  0  0  0  0  0  0  0  0  0
    0.3343   -1.9392   -3.3780 N   0  0  0  0  0  0  0  0  0  0  0  0
    0.0582   -2.6562   -4.0462 H   0  0  0  0  0  0  0  0  0  0  0  0
   -0.4222   -0.8624   -2.9626 C   0  0  0  0  0  0  0  0  0  0  0  0
   -1.4264   -0.5898   -3.2702 H   0  0  0  0  0  0  0  0  0  0  0  0
   -0.4213    2.1315    0.8948 C   0  0  0  0  0  0  0  0  0  0  0  0
    0.5273    2.6477    1.4682 O   0  0  0  0  0  0  0  0  0  0  0  0
   -1.6011    2.8499    0.7857 N   0  0  0  0  0  0  0  0  0  0  0  0
   -2.3912    2.3839    0.3557 H   0  0  0  0  0  0  0  0  0  0  0  0
   -1.8119    4.1389    1.4337 C   0  0  0  0  0  0  0  0  0  0  0  0
   -1.0895    4.8752    1.0660 H   0  0  0  0  0  0  0  0  0  0  0  0
   -2.8193    4.5089    1.2216 H   0  0  0  0  0  0  0  0  0  0  0  0
   -1.6981    4.0450    2.5188 H   0  0  0  0  0  0  0  0  0  0  0  0
  1  2  1  0  0  0  0
  2  3  1  0  0  0  0
  2  4  1  0  0  0  0
  2  5  1  0  0  0  0
  5  6  2  0  0  0  0
  5  7  1  0  0  0  0
  7  8  1  0  0  0  0
  7  9  1  0  0  0  0
  9 10  1  0  0  0  0
  9 11  1  0  0  0  0
  9 22  1  0  0  0  0
 11 12  1  0  0  0  0
 11 13  1  0  0  0  0
 11 14  1  0  0  0  0
 14 15  1  0  0  0  0
 14 20  2  0  0  0  0
 15 16  2  0  0  0  0
 16 17  1  0  0  0  0
 16 18  1  0  0  0  0
 18 19  1  0  0  0  0
 18 20  1  0  0  0  0
 20 21  1  0  0  0  0
 22 23  2  0  0  0  0
 22 24  1  0  0  0  0
 24 25  1  0  0  0  0
 24 26  1  0  0  0  0
 26 27  1  0  0  0  0
 26 28  1  0  0  0  0
 26 29  1  0  0  0  0
M  END
$$$$

  -OEChem-01062216083D

 29 29  0     1  0  0  0  0  0999 V2000
   -2.4027   -3.2221    1.1449 H   0  0  0  0  0  0  0  0  0  0  0  0
   -2.5846   -2.2729    0.6326 C   0  0  0  0  0  0  0  0  0  0  0  0
   -3.5066   -1.8351    1.0224 H   0  0  0  0  0  0  0  0  0  0  0  0
   -2.7016   -2.4683   -0.4359 H   0  0  0  0  0  0  0  0  0  0  0  0
   -1.4213   -1.3264    0.8622 C   0  0  0  0  0  0  0  0  0  0  0  0
   -0.4968   -1.6757    1.5733 O   0  0  0  0  0  0  0  0  0  0  0  0
   -1.4476   -0.0699    0.2879 N   0  0  0  0  0  0  0  0  0  0  0  0
   -2.2018    0.0857   -0.3712 H   0  0  0  0  0  0  0  0  0  0  0  0
   -0.2533    0.7931    0.1658 C   0  0  1  0  0  0  0  0  0  0  0  0
    0.6271    0.2970    0.5924 H   0  0  0  0  0  0  0  0  0  0  0  0
    0.0198    1.0634   -1.3236 C   0  0  0  0  0  0  0  0  0  0  0  0
   -0.8525    1.5358   -1.7832 H   0  0  0  0  0  0  0  0  0  0  0  0
    0.8630    1.7550   -1.4219 H   0  0  0  0  0  0  0  0  0  0  0  0
    0.3619   -0.2014   -2.0542 C   0  0  0  0  0  0  0  0  0  0  0  0
    1.5848   -0.8451   -1.9484 N   0  0  0  0  0  0  0  0  0  0  0  0
    1.5277   -1.8929   -2.7327 C   0  0  0  0  0  0  0  0  0  0  0  0
    2.3317   -2.6107   -2.8684 H   0  0  0  0  0  0  0  0  0  0  0  0
    0.2983   -1.9406   -3.3643 N   0  0  0  0  0  0  0  0  0  0  0  0
    0.0137   -2.6506   -4.0365 H   0  0  0  0  0  0  0  0  0  0  0  0
   -0.4451   -0.8570   -2.9437 C   0  0  0  0  0  0  0  0  0  0  0  0
   -1.4467   -0.5715   -3.2486 H   0  0  0  0  0  0  0  0  0  0  0  0
   -0.4169    2.1375    0.9059 C   0  0  0  0  0  0  0  0  0  0  0  0
    0.5663    2.7968    1.2138 O   0  0  0  0  0  0  0  0  0  0  0  0
   -1.6708    2.7087    1.0460 N   0  0  0  0  0  0  0  0  0  0  0  0
   -2.4632    2.0937    0.8984 H   0  0  0  0  0  0  0  0  0  0  0  0
   -1.8905    3.9807    1.7243 C   0  0  0  0  0  0  0  0  0  0  0  0
   -1.3496    4.7852    1.2148 H   0  0  0  0  0  0  0  0  0  0  0  0
   -2.9560    4.2298    1.7260 H   0  0  0  0  0  0  0  0  0  0  0  0
   -1.5447    3.9259    2.7621 H   0  0  0  0  0  0  0  0  0  0  0  0
  1  2  1  0  0  0  0
  2  3  1  0  0  0  0
  2  4  1  0  0  0  0
  2  5  1  0  0  0  0
  5  6  2  0  0  0  0
  5  7  1  0  0  0  0
  7  8  1  0  0  0  0
  7  9  1  0  0  0  0
  9 10  1  0  0  0  0
  9 11  1  0  0  0  0
  9 22  1  0  0  0  0
 11 12  1  0  0  0  0
 11 13  1  0  0  0  0
 11 14  1  0  0  0  0
 14 15  1  0  0  0  0
 14 20  2  0  0  0  0
 15 16  2  0  0  0  0
 16 17  1  0  0  0  0
 16 18  1  0  0  0  0
 18 19  1  0  0  0  0
 18 20  1  0  0  0  0
 20 21  1  0  0  0  0
 22 23  2  0  0  0  0
 22 24  1  0  0  0  0
 24 25  1  0  0  0  0
 24 26  1  0  0  0  0
 26 27  1  0  0  0  0
 26 28  1  0  0  0  0
 26 29  1  0  0  0  0
M  END
$$$$

  -OEChem-01062216083D

 29 29  0     1  0  0  0  0  0999 V2000
   -2.3934   -3.2294    1.1092 H   0  0  0  0  0  0  0  0  0  0  0  0
   -2.5756   -2.2773    0.6022 C   0  0  0  0  0  0  0  0  0  0  0  0
   -3.5043   -1.8473    0.9846 H   0  0  0  0  0  0  0  0  0  0  0  0
   -2.6798   -2.4652   -0.4691 H   0  0  0  0  0  0  0  0  0  0  0  0
   -1.4206   -1.3257    0.8509 C   0  0  0  0  0  0  0  0  0  0  0  0
   -0.5054   -1.6687    1.5772 O   0  0  0  0  0  0  0  0  0  0  0  0
   -1.4465   -0.0666    0.2830 N   0  0  0  0  0  0  0  0  0  0  0  0
   -2.2005    0.0961   -0.3756 H   0  0  0  0  0  0  0  0  0  0  0  0
   -0.2510    0.7958    0.1651 C   0  0  1  0  0  0  0  0  0  0  0  0
    0.6285    0.2985    0.5912 H   0  0  0  0  0  0  0  0  0  0  0  0
    0.0195    1.0617   -1.3264 C   0  0  0  0  0  0  0  0  0  0  0  0
   -0.8536    1.5340   -1.7848 H   0  0  0  0  0  0  0  0  0  0  0  0
    0.8631    1.7517   -1.4311 H   0  0  0  0  0  0  0  0  0  0  0  0
    0.3593   -0.2065   -2.0529 C   0  0  0  0  0  0  0  0  0  0  0  0
    1.5818   -0.8516   -1.9472 N   0  0  0  0  0  0  0  0  0  0  0  0
    1.5220   -1.9008   -2.7294 C   0  0  0  0  0  0  0  0  0  0  0  0
    2.3250   -2.6197   -2.8653 H   0  0  0  0  0  0  0  0  0  0  0  0
    0.2915   -1.9485   -3.3588 N   0  0  0  0  0  0  0  0  0  0  0  0
    0.0061   -2.6573   -4.0319 H   0  0  0  0  0  0  0  0  0  0  0  0
   -0.4498   -0.8630   -2.9398 C   0  0  0  0  0  0  0  0  0  0  0  0
   -1.4507   -0.5756   -3.2451 H   0  0  0  0  0  0  0  0  0  0  0  0
   -0.4129    2.1378    0.9125 C   0  0  0  0  0  0  0  0  0  0  0  0
    0.5270    2.9163    1.0000 O   0  0  0  0  0  0  0  0  0  0  0  0
   -1.6647    2.5584    1.3283 N   0  0  0  0  0  0  0  0  0  0  0  0
   -2.3828    1.8425    1.3660 H   0  0  0  0  0  0  0  0  0  0  0  0
   -1.8846    3.8079    2.0470 C   0  0  0  0  0  0  0  0  0  0  0  0
   -1.5682    4.6616    1.4383 H   0  0  0  0  0  0  0  0  0  0  0  0
   -2.9467    3.9279    2.2806 H   0  0  0  0  0  0  0  0  0  0  0  0
   -1.3196    3.8153    2.9851 H   0  0  0  0  0  0  0  0  0  0  0  0
  1  2  1  0  0  0  0
  2  3  1  0  0  0  0
  2  4  1  0  0  0  0
  2  5  1  0  0  0  0
  5  6  2  0  0  0  0
  5  7  1  0  0  0  0
  7  8  1  0  0  0  0
  7  9  1  0  0  0  0
  9 10  1  0  0  0  0
  9 11  1  0  0  0  0
  9 22  1  0  0  0  0
 11 12  1  0  0  0  0
 11 13  1  0  0  0  0
 11 14  1  0  0  0  0
 14 15  1  0  0  0  0
 14 20  2  0  0  0  0
 15 16  2  0  0  0  0
 16 17  1  0  0  0  0
 16 18  1  0  0  0  0
 18 19  1  0  0  0  0
 18 20  1  0  0  0  0
 20 21  1  0  0  0  0
 22 23  2  0  0  0  0
 22 24  1  0  0  0  0
 24 25  1  0  0  0  0
 24 26  1  0  0  0  0
 26 27  1  0  0  0  0
 26 28  1  0  0  0  0
 26 29  1  0  0  0  0
M  END
$$$$

  -OEChem-01062216083D

 29 29  0     1  0  0  0  0  0999 V2000
   -2.4075   -3.2168    1.0989 H   0  0  0  0  0  0  0  0  0  0  0  0
   -2.5865   -2.2620    0.5962 C   0  0  0  0  0  0  0  0  0  0  0  0
   -3.5049   -1.8225    0.9926 H   0  0  0  0  0  0  0  0  0  0  0  0
   -2.7083   -2.4466   -0.4737 H   0  0  0  0  0  0  0  0  0  0  0  0
   -1.4174   -1.3239    0.8299 C   0  0  0  0  0  0  0  0  0  0  0  0
   -0.4960   -1.6763    1.5437 O   0  0  0  0  0  0  0  0  0  0  0  0
   -1.4392   -0.0605    0.2721 N   0  0  0  0  0  0  0  0  0  0  0  0
   -2.2128    0.1300   -0.3560 H   0  0  0  0  0  0  0  0  0  0  0  0
   -0.2445    0.8032    0.1535 C   0  0  1  0  0  0  0  0  0  0  0  0
    0.6355    0.3060    0.5781 H   0  0  0  0  0  0  0  0  0  0  0  0
    0.0236    1.0626   -1.3411 C   0  0  0  0  0  0  0  0  0  0  0  0
   -0.8509    1.5317   -1.7999 H   0  0  0  0  0  0  0  0  0  0  0  0
    0.8667    1.7517   -1.4539 H   0  0  0  0  0  0  0  0  0  0  0  0
    0.3638   -0.2091   -2.0609 C   0  0  0  0  0  0  0  0  0  0  0  0
    1.5875   -0.8521   -1.9532 N   0  0  0  0  0  0  0  0  0  0  0  0
    1.5274   -1.9060   -2.7291 C   0  0  0  0  0  0  0  0  0  0  0  0
    2.3304   -2.6256   -2.8611 H   0  0  0  0  0  0  0  0  0  0  0  0
    0.2963   -1.9585   -3.3570 N   0  0  0  0  0  0  0  0  0  0  0  0
    0.0107   -2.6713   -4.0257 H   0  0  0  0  0  0  0  0  0  0  0  0
   -0.4454   -0.8713   -2.9433 C   0  0  0  0  0  0  0  0  0  0  0  0
   -1.4470   -0.5862   -3.2484 H   0  0  0  0  0  0  0  0  0  0  0  0
   -0.4101    2.1397    0.9137 C   0  0  0  0  0  0  0  0  0  0  0  0
    0.4254    3.0280    0.8091 O   0  0  0  0  0  0  0  0  0  0  0  0
   -1.5806    2.4086    1.6022 N   0  0  0  0  0  0  0  0  0  0  0  0
   -2.1805    1.6093    1.7819 H   0  0  0  0  0  0  0  0  0  0  0  0
   -1.7910    3.6304    2.3696 C   0  0  0  0  0  0  0  0  0  0  0  0
   -1.7036    4.5100    1.7229 H   0  0  0  0  0  0  0  0  0  0  0  0
   -2.7905    3.6299    2.8149 H   0  0  0  0  0  0  0  0  0  0  0  0
   -1.0518    3.7097    3.1737 H   0  0  0  0  0  0  0  0  0  0  0  0
  1  2  1  0  0  0  0
  2  3  1  0  0  0  0
  2  4  1  0  0  0  0
  2  5  1  0  0  0  0
  5  6  2  0  0  0  0
  5  7  1  0  0  0  0
  7  8  1  0  0  0  0
  7  9  1  0  0  0  0
  9 10  1  0  0  0  0
  9 11  1  0  0  0  0
  9 22  1  0  0  0  0
 11 12  1  0  0  0  0
 11 13  1  0  0  0  0
 11 14  1  0  0  0  0
 14 15  1  0  0  0  0
 14 20  2  0  0  0  0
 15 16  2  0  0  0  0
 16 17  1  0  0  0  0
 16 18  1  0  0  0  0
 18 19  1  0  0  0  0
 18 20  1  0  0  0  0
 20 21  1  0  0  0  0
 22 23  2  0  0  0  0
 22 24  1  0  0  0  0
 24 25  1  0  0  0  0
 24 26  1  0  0  0  0
 26 27  1  0  0  0  0
 26 28  1  0  0  0  0
 26 29  1  0  0  0  0
M  END
$$$$

  -OEChem-01062216083D

 29 29  0     1  0  0  0  0  0999 V2000
   -2.4133   -3.2087    1.0716 H   0  0  0  0  0  0  0  0  0  0  0  0
   -2.5958   -2.2460    0.5855 C   0  0  0  0  0  0  0  0  0  0  0  0
   -3.5077   -1.8097    0.9998 H   0  0  0  0  0  0  0  0  0  0  0  0
   -2.7325   -2.4152   -0.4855 H   0  0  0  0  0  0  0  0  0  0  0  0
   -1.4207   -1.3147    0.8173 C   0  0  0  0  0  0  0  0  0  0  0  0
   -0.5018   -1.6698    1.5333 O   0  0  0  0  0  0  0  0  0  0  0  0
   -1.4367   -0.0480    0.2682 N   0  0  0  0  0  0  0  0  0  0  0  0
   -2.2239    0.1633   -0.3363 H   0  0  0  0  0  0  0  0  0  0  0  0
   -0.2395    0.8113    0.1456 C   0  0  1  0  0  0  0  0  0  0  0  0
    0.6392    0.3101    0.5679 H   0  0  0  0  0  0  0  0  0  0  0  0
    0.0280    1.0636   -1.3512 C   0  0  0  0  0  0  0  0  0  0  0  0
   -0.8448    1.5351   -1.8109 H   0  0  0  0  0  0  0  0  0  0  0  0
    0.8746    1.7472   -1.4693 H   0  0  0  0  0  0  0  0  0  0  0  0
    0.3634   -0.2124   -2.0651 C   0  0  0  0  0  0  0  0  0  0  0  0
    1.5867   -0.8554   -1.9525 N   0  0  0  0  0  0  0  0  0  0  0  0
    1.5279   -1.9115   -2.7255 C   0  0  0  0  0  0  0  0  0  0  0  0
    2.3320   -2.6304   -2.8553 H   0  0  0  0  0  0  0  0  0  0  0  0
    0.2973   -1.9668   -3.3541 N   0  0  0  0  0  0  0  0  0  0  0  0
    0.0135   -2.6808   -4.0224 H   0  0  0  0  0  0  0  0  0  0  0  0
   -0.4451   -0.8780   -2.9456 C   0  0  0  0  0  0  0  0  0  0  0  0
   -1.4461   -0.5933   -3.2536 H   0  0  0  0  0  0  0  0  0  0  0  0
   -0.4028    2.1418    0.9185 C   0  0  0  0  0  0  0  0  0  0  0  0
    0.2736    3.1246    0.6434 O   0  0  0  0  0  0  0  0  0  0  0  0
   -1.4138    2.2755    1.8539 N   0  0  0  0  0  0  0  0  0  0  0  0
   -1.8653    1.4127    2.1442 H   0  0  0  0  0  0  0  0  0  0  0  0
   -1.6072    3.4766    2.6571 C   0  0  0  0  0  0  0  0  0  0  0  0
   -1.7950    4.3421    2.0130 H   0  0  0  0  0  0  0  0  0  0  0  0
   -2.4654    3.3514    3.3240 H   0  0  0  0  0  0  0  0  0  0  0  0
   -0.7197    3.6767    3.2667 H   0  0  0  0  0  0  0  0  0  0  0  0
  1  2  1  0  0  0  0
  2  3  1  0  0  0  0
  2  4  1  0  0  0  0
  2  5  1  0  0  0  0
  5  6  2  0  0  0  0
  5  7  1  0  0  0  0
  7  8  1  0  0  0  0
  7  9  1  0  0  0  0
  9 10  1  0  0  0  0
  9 11  1  0  0  0  0
  9 22  1  0  0  0  0
 11 12  1  0  0  0  0
 11 13  1  0  0  0  0
 11 14  1  0  0  0  0
 14 15  1  0  0  0  0
 14 20  2  0  0  0  0
 15 16  2  0  0  0  0
 16 17  1  0  0  0  0
 16 18  1  0  0  0  0
 18 19  1  0  0  0  0
 18 20  1  0  0  0  0
 20 21  1  0  0  0  0
 22 23  2  0  0  0  0
 22 24  1  0  0  0  0
 24 25  1  0  0  0  0
 24 26  1  0  0  0  0
 26 27  1  0  0  0  0
 26 28  1  0  0  0  0
 26 29  1  0  0  0  0
M  END
$$$$

  -OEChem-01062216083D

 29 29  0     1  0  0  0  0  0999 V2000
   -2.4159   -3.1914    1.0492 H   0  0  0  0  0  0  0  0  0  0  0  0
   -2.6100   -2.2125    0.6012 C   0  0  0  0  0  0  0  0  0  0  0  0
   -3.4970   -1.7799    1.0701 H   0  0  0  0  0  0  0  0  0  0  0  0
   -2.7971   -2.3472   -0.4668 H   0  0  0  0  0  0  0  0  0  0  0  0
   -1.4160   -1.2998    0.8077 C   0  0  0  0  0  0  0  0  0  0  0  0
   -0.4925   -1.6627    1.5142 O   0  0  0  0  0  0  0  0  0  0  0  0
   -1.4247   -0.0319    0.2629 N   0  0  0  0  0  0  0  0  0  0  0  0
   -2.2280    0.2030   -0.3111 H   0  0  0  0  0  0  0  0  0  0  0  0
   -0.2246    0.8201    0.1331 C   0  0  1  0  0  0  0  0  0  0  0  0
    0.6529    0.3167    0.5545 H   0  0  0  0  0  0  0  0  0  0  0  0
    0.0453    1.0672   -1.3641 C   0  0  0  0  0  0  0  0  0  0  0  0
   -0.8248    1.5418   -1.8261 H   0  0  0  0  0  0  0  0  0  0  0  0
    0.8959    1.7460   -1.4825 H   0  0  0  0  0  0  0  0  0  0  0  0
    0.3743   -0.2132   -2.0725 C   0  0  0  0  0  0  0  0  0  0  0  0
    1.5936   -0.8638   -1.9571 N   0  0  0  0  0  0  0  0  0  0  0  0
    1.5265   -1.9232   -2.7251 C   0  0  0  0  0  0  0  0  0  0  0  0
    2.3251   -2.6485   -2.8518 H   0  0  0  0  0  0  0  0  0  0  0  0
    0.2957   -1.9728   -3.3535 N   0  0  0  0  0  0  0  0  0  0  0  0
    0.0063   -2.6881   -4.0180 H   0  0  0  0  0  0  0  0  0  0  0  0
   -0.4390   -0.8774   -2.9493 C   0  0  0  0  0  0  0  0  0  0  0  0
   -1.4386   -0.5876   -3.2568 H   0  0  0  0  0  0  0  0  0  0  0  0
   -0.3932    2.1433    0.9170 C   0  0  0  0  0  0  0  0  0  0  0  0
    0.0644    3.2015    0.5032 O   0  0  0  0  0  0  0  0  0  0  0  0
   -1.1815    2.1603    2.0538 N   0  0  0  0  0  0  0  0  0  0  0  0
   -1.4546    1.2515    2.4197 H   0  0  0  0  0  0  0  0  0  0  0  0
   -1.3671    3.3418    2.8870 C   0  0  0  0  0  0  0  0  0  0  0  0
   -1.8049    4.1583    2.3032 H   0  0  0  0  0  0  0  0  0  0  0  0
   -2.0404    3.1146    3.7191 H   0  0  0  0  0  0  0  0  0  0  0  0
   -0.4083    3.6759    3.2971 H   0  0  0  0  0  0  0  0  0  0  0  0
  1  2  1  0  0  0  0
  2  3  1  0  0  0  0
  2  4  1  0  0  0  0
  2  5  1  0  0  0  0
  5  6  2  0  0  0  0
  5  7  1  0  0  0  0
  7  8  1  0  0  0  0
  7  9  1  0  0  0  0
  9 10  1  0  0  0  0
  9 11  1  0  0  0  0
  9 22  1  0  0  0  0
 11 12  1  0  0  0  0
 11 13  1  0  0  0  0
 11 14  1  0  0  0  0
 14 15  1  0  0  0  0
 14 20  2  0  0  0  0
 15 16  2  0  0  0  0
 16 17  1  0  0  0  0
 16 18  1  0  0  0  0
 18 19  1  0  0  0  0
 18 20  1  0  0  0  0
 20 21  1  0  0  0  0
 22 23  2  0  0  0  0
 22 24  1  0  0  0  0
 24 25  1  0  0  0  0
 24 26  1  0  0  0  0
 26 27  1  0  0  0  0
 26 28  1  0  0  0  0
 26 29  1  0  0  0  0
M  END
$$$$

  -OEChem-01062216083D

 29 29  0     1  0  0  0  0  0999 V2000
   -2.4337   -3.1645    1.0711 H   0  0  0  0  0  0  0  0  0  0  0  0
   -2.6193   -2.1870    0.6168 C   0  0  0  0  0  0  0  0  0  0  0  0
   -3.4975   -1.7393    1.0882 H   0  0  0  0  0  0  0  0  0  0  0  0
   -2.8162   -2.3276   -0.4487 H   0  0  0  0  0  0  0  0  0  0  0  0
   -1.4126   -1.2874    0.8065 C   0  0  0  0  0  0  0  0  0  0  0  0
   -0.4820   -1.6593    1.4998 O   0  0  0  0  0  0  0  0  0  0  0  0
   -1.4146   -0.0191    0.2638 N   0  0  0  0  0  0  0  0  0  0  0  0
   -2.2306    0.2362   -0.2832 H   0  0  0  0  0  0  0  0  0  0  0  0
   -0.2114    0.8247    0.1265 C   0  0  1  0  0  0  0  0  0  0  0  0
    0.6659    0.3179    0.5440 H   0  0  0  0  0  0  0  0  0  0  0  0
    0.0588    1.0704   -1.3704 C   0  0  0  0  0  0  0  0  0  0  0  0
   -0.8105    1.5471   -1.8319 H   0  0  0  0  0  0  0  0  0  0  0  0
    0.9107    1.7475   -1.4882 H   0  0  0  0  0  0  0  0  0  0  0  0
    0.3801   -0.2117   -2.0784 C   0  0  0  0  0  0  0  0  0  0  0  0
    1.5968   -0.8676   -1.9622 N   0  0  0  0  0  0  0  0  0  0  0  0
    1.5235   -1.9284   -2.7278 C   0  0  0  0  0  0  0  0  0  0  0  0
    2.3184   -2.6580   -2.8532 H   0  0  0  0  0  0  0  0  0  0  0  0
    0.2915   -1.9738   -3.3546 N   0  0  0  0  0  0  0  0  0  0  0  0
   -0.0030   -2.6909   -4.0149 H   0  0  0  0  0  0  0  0  0  0  0  0
   -0.4375   -0.8738   -2.9524 C   0  0  0  0  0  0  0  0  0  0  0  0
   -1.4363   -0.5795   -3.2582 H   0  0  0  0  0  0  0  0  0  0  0  0
   -0.3793    2.1421    0.9166 C   0  0  0  0  0  0  0  0  0  0  0  0
   -0.1678    3.2366    0.4080 O   0  0  0  0  0  0  0  0  0  0  0  0
   -0.8910    2.0877    2.2002 N   0  0  0  0  0  0  0  0  0  0  0  0
   -0.9891    1.1601    2.6075 H   0  0  0  0  0  0  0  0  0  0  0  0
   -1.0702    3.2589    3.0485 C   0  0  0  0  0  0  0  0  0  0  0  0
   -1.7430    3.9788    2.5707 H   0  0  0  0  0  0  0  0  0  0  0  0
   -1.5052    2.9663    4.0088 H   0  0  0  0  0  0  0  0  0  0  0  0
   -0.1075    3.7458    3.2370 H   0  0  0  0  0  0  0  0  0  0  0  0
  1  2  1  0  0  0  0
  2  3  1  0  0  0  0
  2  4  1  0  0  0  0
  2  5  1  0  0  0  0
  5  6  2  0  0  0  0
  5  7  1  0  0  0  0
  7  8  1  0  0  0  0
  7  9  1  0  0  0  0
  9 10  1  0  0  0  0
  9 11  1  0  0  0  0
  9 22  1  0  0  0  0
 11 12  1  0  0  0  0
 11 13  1  0  0  0  0
 11 14  1  0  0  0  0
 14 15  1  0  0  0  0
 14 20  2  0  0  0  0
 15 16  2  0  0  0  0
 16 17  1  0  0  0  0
 16 18  1  0  0  0  0
 18 19  1  0  0  0  0
 18 20  1  0  0  0  0
 20 21  1  0  0  0  0
 22 23  2  0  0  0  0
 22 24  1  0  0  0  0
 24 25  1  0  0  0  0
 24 26  1  0  0  0  0
 26 27  1  0  0  0  0
 26 28  1  0  0  0  0
 26 29  1  0  0  0  0
M  END
$$$$

  -OEChem-01062216083D

 29 29  0     1  0  0  0  0  0999 V2000
   -2.4508   -3.1372    1.1035 H   0  0  0  0  0  0  0  0  0  0  0  0
   -2.6263   -2.1619    0.6409 C   0  0  0  0  0  0  0  0  0  0  0  0
   -3.4927   -1.6966    1.1171 H   0  0  0  0  0  0  0  0  0  0  0  0
   -2.8366   -2.3103   -0.4210 H   0  0  0  0  0  0  0  0  0  0  0  0
   -1.4045   -1.2788    0.8078 C   0  0  0  0  0  0  0  0  0  0  0  0
   -0.4621   -1.6662    1.4772 O   0  0  0  0  0  0  0  0  0  0  0  0
   -1.3990   -0.0114    0.2635 N   0  0  0  0  0  0  0  0  0  0  0  0
   -2.2264    0.2643   -0.2557 H   0  0  0  0  0  0  0  0  0  0  0  0
   -0.1932    0.8249    0.1222 C   0  0  1  0  0  0  0  0  0  0  0  0
    0.6846    0.3158    0.5361 H   0  0  0  0  0  0  0  0  0  0  0  0
    0.0751    1.0730   -1.3743 C   0  0  0  0  0  0  0  0  0  0  0  0
   -0.7946    1.5519   -1.8335 H   0  0  0  0  0  0  0  0  0  0  0  0
    0.9272    1.7500   -1.4907 H   0  0  0  0  0  0  0  0  0  0  0  0
    0.3882   -0.2094   -2.0853 C   0  0  0  0  0  0  0  0  0  0  0  0
    1.6021   -0.8710   -1.9720 N   0  0  0  0  0  0  0  0  0  0  0  0
    1.5204   -1.9331   -2.7355 C   0  0  0  0  0  0  0  0  0  0  0  0
    2.3103   -2.6681   -2.8620 H   0  0  0  0  0  0  0  0  0  0  0  0
    0.2865   -1.9728   -3.3588 N   0  0  0  0  0  0  0  0  0  0  0  0
   -0.0155   -2.6907   -4.0146 H   0  0  0  0  0  0  0  0  0  0  0  0
   -0.4357   -0.8689   -2.9554 C   0  0  0  0  0  0  0  0  0  0  0  0
   -1.4350   -0.5710   -3.2566 H   0  0  0  0  0  0  0  0  0  0  0  0
   -0.3626    2.1389    0.9129 C   0  0  0  0  0  0  0  0  0  0  0  0
   -0.4076    3.2306    0.3576 O   0  0  0  0  0  0  0  0  0  0  0  0
   -0.5704    2.0657    2.2775 N   0  0  0  0  0  0  0  0  0  0  0  0
   -0.5161    1.1404    2.6992 H   0  0  0  0  0  0  0  0  0  0  0  0
   -0.7477    3.2310    3.1338 C   0  0  0  0  0  0  0  0  0  0  0  0
   -1.6193    3.8123    2.8152 H   0  0  0  0  0  0  0  0  0  0  0  0
   -0.9023    2.9175    4.1707 H   0  0  0  0  0  0  0  0  0  0  0  0
    0.1388    3.8726    3.0940 H   0  0  0  0  0  0  0  0  0  0  0  0
  1  2  1  0  0  0  0
  2  3  1  0  0  0  0
  2  4  1  0  0  0  0
  2  5  1  0  0  0  0
  5  6  2  0  0  0  0
  5  7  1  0  0  0  0
  7  8  1  0  0  0  0
  7  9  1  0  0  0  0
  9 10  1  0  0  0  0
  9 11  1  0  0  0  0
  9 22  1  0  0  0  0
 11 12  1  0  0  0  0
 11 13  1  0  0  0  0
 11 14  1  0  0  0  0
 14 15  1  0  0  0  0
 14 20  2  0  0  0  0
 15 16  2  0  0  0  0
 16 17  1  0  0  0  0
 16 18  1  0  0  0  0
 18 19  1  0  0  0  0
 18 20  1  0  0  0  0
 20 21  1  0  0  0  0
 22 23  2  0  0  0  0
 22 24  1  0  0  0  0
 24 25  1  0  0  0  0
 24 26  1  0  0  0  0
 26 27  1  0  0  0  0
 26 28  1  0  0  0  0
 26 29  1  0  0  0  0
M  END
$$$$

  -OEChem-01062216083D

 29 29  0     1  0  0  0  0  0999 V2000
   -2.4776   -3.1224    1.1440 H   0  0  0  0  0  0  0  0  0  0  0  0
   -2.6509   -2.1406    0.6941 C   0  0  0  0  0  0  0  0  0  0  0  0
   -3.4842   -1.6582    1.2105 H   0  0  0  0  0  0  0  0  0  0  0  0
   -2.9116   -2.2780   -0.3578 H   0  0  0  0  0  0  0  0  0  0  0  0
   -1.4030   -1.2860    0.8106 C   0  0  0  0  0  0  0  0  0  0  0  0
   -0.4444   -1.6968    1.4427 O   0  0  0  0  0  0  0  0  0  0  0  0
   -1.3888   -0.0199    0.2627 N   0  0  0  0  0  0  0  0  0  0  0  0
   -2.2304    0.2836   -0.2176 H   0  0  0  0  0  0  0  0  0  0  0  0
   -0.1809    0.8112    0.1212 C   0  0  1  0  0  0  0  0  0  0  0  0
    0.6962    0.2985    0.5324 H   0  0  0  0  0  0  0  0  0  0  0  0
    0.0902    1.0664   -1.3731 C   0  0  0  0  0  0  0  0  0  0  0  0
   -0.7782    1.5490   -1.8310 H   0  0  0  0  0  0  0  0  0  0  0  0
    0.9425    1.7439   -1.4838 H   0  0  0  0  0  0  0  0  0  0  0  0
    0.3994   -0.2114   -2.0934 C   0  0  0  0  0  0  0  0  0  0  0  0
    1.6122   -0.8759   -1.9820 N   0  0  0  0  0  0  0  0  0  0  0  0
    1.5320   -1.9286   -2.7586 C   0  0  0  0  0  0  0  0  0  0  0  0
    2.3216   -2.6630   -2.8904 H   0  0  0  0  0  0  0  0  0  0  0  0
    0.3013   -1.9583   -3.3888 N   0  0  0  0  0  0  0  0  0  0  0  0
    0.0024   -2.6661   -4.0569 H   0  0  0  0  0  0  0  0  0  0  0  0
   -0.4212   -0.8585   -2.9755 C   0  0  0  0  0  0  0  0  0  0  0  0
   -1.4183   -0.5550   -3.2780 H   0  0  0  0  0  0  0  0  0  0  0  0
   -0.3470    2.1273    0.9064 C   0  0  0  0  0  0  0  0  0  0  0  0
   -0.6436    3.1776    0.3483 O   0  0  0  0  0  0  0  0  0  0  0  0
   -0.2439    2.0965    2.2842 N   0  0  0  0  0  0  0  0  0  0  0  0
   -0.0387    1.1951    2.7112 H   0  0  0  0  0  0  0  0  0  0  0  0
   -0.4173    3.2665    3.1349 C   0  0  0  0  0  0  0  0  0  0  0  0
   -1.4205    3.6867    3.0093 H   0  0  0  0  0  0  0  0  0  0  0  0
   -0.2864    2.9920    4.1860 H   0  0  0  0  0  0  0  0  0  0  0  0
    0.3212    4.0349    2.8833 H   0  0  0  0  0  0  0  0  0  0  0  0
  1  2  1  0  0  0  0
  2  3  1  0  0  0  0
  2  4  1  0  0  0  0
  2  5  1  0  0  0  0
  5  6  2  0  0  0  0
  5  7  1  0  0  0  0
  7  8  1  0  0  0  0
  7  9  1  0  0  0  0
  9 10  1  0  0  0  0
  9 11  1  0  0  0  0
  9 22  1  0  0  0  0
 11 12  1  0  0  0  0
 11 13  1  0  0  0  0
 11 14  1  0  0  0  0
 14 15  1  0  0  0  0
 14 20  2  0  0  0  0
 15 16  2  0  0  0  0
 16 17  1  0  0  0  0
 16 18  1  0  0  0  0
 18 19  1  0  0  0  0
 18 20  1  0  0  0  0
 20 21  1  0  0  0  0
 22 23  2  0  0  0  0
 22 24  1  0  0  0  0
 24 25  1  0  0  0  0
 24 26  1  0  0  0  0
 26 27  1  0  0  0  0
 26 28  1  0  0  0  0
 26 29  1  0  0  0  0
M  END
$$$$

  -OEChem-01062216083D

 29 29  0     1  0  0  0  0  0999 V2000
   -2.5222   -3.0854    1.2043 H   0  0  0  0  0  0  0  0  0  0  0  0
   -2.6785   -2.1063    0.7430 C   0  0  0  0  0  0  0  0  0  0  0  0
   -3.4683   -1.5824    1.2865 H   0  0  0  0  0  0  0  0  0  0  0  0
   -2.9920   -2.2526   -0.2933 H   0  0  0  0  0  0  0  0  0  0  0  0
   -1.3958   -1.2978    0.7869 C   0  0  0  0  0  0  0  0  0  0  0  0
   -0.4121   -1.7527    1.3462 O   0  0  0  0  0  0  0  0  0  0  0  0
   -1.3722   -0.0300    0.2436 N   0  0  0  0  0  0  0  0  0  0  0  0
   -2.2401    0.3256   -0.1460 H   0  0  0  0  0  0  0  0  0  0  0  0
   -0.1661    0.8027    0.1071 C   0  0  1  0  0  0  0  0  0  0  0  0
    0.7103    0.2871    0.5156 H   0  0  0  0  0  0  0  0  0  0  0  0
    0.1060    1.0698   -1.3841 C   0  0  0  0  0  0  0  0  0  0  0  0
   -0.7635    1.5520   -1.8403 H   0  0  0  0  0  0  0  0  0  0  0  0
    0.9562    1.7504   -1.4896 H   0  0  0  0  0  0  0  0  0  0  0  0
    0.4176   -0.2033   -2.1113 C   0  0  0  0  0  0  0  0  0  0  0  0
    1.6321   -0.8651   -2.0007 N   0  0  0  0  0  0  0  0  0  0  0  0
    1.5495   -1.9226   -2.7707 C   0  0  0  0  0  0  0  0  0  0  0  0
    2.3382   -2.6585   -2.8998 H   0  0  0  0  0  0  0  0  0  0  0  0
    0.3173   -1.9564   -3.3976 N   0  0  0  0  0  0  0  0  0  0  0  0
    0.0135   -2.6726   -4.0544 H   0  0  0  0  0  0  0  0  0  0  0  0
   -0.4055   -0.8557   -2.9869 C   0  0  0  0  0  0  0  0  0  0  0  0
   -1.4066   -0.5579   -3.2817 H   0  0  0  0  0  0  0  0  0  0  0  0
   -0.3334    2.1169    0.8925 C   0  0  0  0  0  0  0  0  0  0  0  0
   -0.8897    3.0867    0.3897 O   0  0  0  0  0  0  0  0  0  0  0  0
    0.0664    2.1689    2.2143 N   0  0  0  0  0  0  0  0  0  0  0  0
    0.4494    1.3155    2.6154 H   0  0  0  0  0  0  0  0  0  0  0  0
   -0.1089    3.3379    3.0660 C   0  0  0  0  0  0  0  0  0  0  0  0
   -1.1721    3.5738    3.1786 H   0  0  0  0  0  0  0  0  0  0  0  0
    0.3113    3.1481    4.0584 H   0  0  0  0  0  0  0  0  0  0  0  0
    0.4021    4.2053    2.6351 H   0  0  0  0  0  0  0  0  0  0  0  0
  1  2  1  0  0  0  0
  2  3  1  0  0  0  0
  2  4  1  0  0  0  0
  2  5  1  0  0  0  0
  5  6  2  0  0  0  0
  5  7  1  0  0  0  0
  7  8  1  0  0  0  0
  7  9  1  0  0  0  0
  9 10  1  0  0  0  0
  9 11  1  0  0  0  0
  9 22  1  0  0  0  0
 11 12  1  0  0  0  0
 11 13  1  0  0  0  0
 11 14  1  0  0  0  0
 14 15  1  0  0  0  0
 14 20  2  0  0  0  0
 15 16  2  0  0  0  0
 16 17  1  0  0  0  0
 16 18  1  0  0  0  0
 18 19  1  0  0  0  0
 18 20  1  0  0  0  0
 20 21  1  0  0  0  0
 22 23  2  0  0  0  0
 22 24  1  0  0  0  0
 24 25  1  0  0  0  0
 24 26  1  0  0  0  0
 26 27  1  0  0  0  0
 26 28  1  0  0  0  0
 26 29  1  0  0  0  0
M  END
$$$$

  -OEChem-01062216083D

 29 29  0     1  0  0  0  0  0999 V2000
   -2.5576   -3.0634    1.2643 H   0  0  0  0  0  0  0  0  0  0  0  0
   -2.7079   -2.0795    0.8106 C   0  0  0  0  0  0  0  0  0  0  0  0
   -3.4405   -1.5264    1.4033 H   0  0  0  0  0  0  0  0  0  0  0  0
   -3.0939   -2.2145   -0.2025 H   0  0  0  0  0  0  0  0  0  0  0  0
   -1.3962   -1.3190    0.7666 C   0  0  0  0  0  0  0  0  0  0  0  0
   -0.3928   -1.8178    1.2479 O   0  0  0  0  0  0  0  0  0  0  0  0
   -1.3652   -0.0513    0.2233 N   0  0  0  0  0  0  0  0  0  0  0  0
   -2.2519    0.3548   -0.0625 H   0  0  0  0  0  0  0  0  0  0  0  0
   -0.1602    0.7838    0.0957 C   0  0  1  0  0  0  0  0  0  0  0  0
    0.7134    0.2659    0.5067 H   0  0  0  0  0  0  0  0  0  0  0  0
    0.1190    1.0668   -1.3897 C   0  0  0  0  0  0  0  0  0  0  0  0
   -0.7501    1.5513   -1.8446 H   0  0  0  0  0  0  0  0  0  0  0  0
    0.9686    1.7493   -1.4849 H   0  0  0  0  0  0  0  0  0  0  0  0
    0.4357   -0.1979   -2.1277 C   0  0  0  0  0  0  0  0  0  0  0  0
    1.6515   -0.8570   -2.0155 N   0  0  0  0  0  0  0  0  0  0  0  0
    1.5726   -1.9110   -2.7906 C   0  0  0  0  0  0  0  0  0  0  0  0
    2.3624   -2.6456   -2.9185 H   0  0  0  0  0  0  0  0  0  0  0  0
    0.3435   -1.9426   -3.4243 N   0  0  0  0  0  0  0  0  0  0  0  0
    0.0403   -2.6596   -4.0804 H   0  0  0  0  0  0  0  0  0  0  0  0
   -0.3824   -0.8452   -3.0111 C   0  0  0  0  0  0  0  0  0  0  0  0
   -1.3838   -0.5479   -3.3054 H   0  0  0  0  0  0  0  0  0  0  0  0
   -0.3324    2.0991    0.8761 C   0  0  0  0  0  0  0  0  0  0  0  0
   -1.1080    2.9595    0.4740 O   0  0  0  0  0  0  0  0  0  0  0  0
    0.3220    2.2767    2.0804 N   0  0  0  0  0  0  0  0  0  0  0  0
    0.8923    1.5046    2.4178 H   0  0  0  0  0  0  0  0  0  0  0  0
    0.1641    3.4596    2.9163 C   0  0  0  0  0  0  0  0  0  0  0  0
   -0.8801    3.5749    3.2245 H   0  0  0  0  0  0  0  0  0  0  0  0
    0.7824    3.3718    3.8147 H   0  0  0  0  0  0  0  0  0  0  0  0
    0.4728    4.3573    2.3706 H   0  0  0  0  0  0  0  0  0  0  0  0
  1  2  1  0  0  0  0
  2  3  1  0  0  0  0
  2  4  1  0  0  0  0
  2  5  1  0  0  0  0
  5  6  2  0  0  0  0
  5  7  1  0  0  0  0
  7  8  1  0  0  0  0
  7  9  1  0  0  0  0
  9 10  1  0  0  0  0
  9 11  1  0  0  0  0
  9 22  1  0  0  0  0
 11 12  1  0  0  0  0
 11 13  1  0  0  0  0
 11 14  1  0  0  0  0
 14 15  1  0  0  0  0
 14 20  2  0  0  0  0
 15 16  2  0  0  0  0
 16 17  1  0  0  0  0
 16 18  1  0  0  0  0
 18 19  1  0  0  0  0
 18 20  1  0  0  0  0
 20 21  1  0  0  0  0
 22 23  2  0  0  0  0
 22 24  1  0  0  0  0
 24 25  1  0  0  0  0
 24 26  1  0  0  0  0
 26 27  1  0  0  0  0
 26 28  1  0  0  0  0
 26 29  1  0  0  0  0
M  END
$$$$

  -OEChem-01062216083D

 29 29  0     1  0  0  0  0  0999 V2000
   -2.5827   -3.0356    1.3174 H   0  0  0  0  0  0  0  0  0  0  0  0
   -2.7266   -2.0505    0.8647 C   0  0  0  0  0  0  0  0  0  0  0  0
   -3.4102   -1.4716    1.4905 H   0  0  0  0  0  0  0  0  0  0  0  0
   -3.1695   -2.1795   -0.1257 H   0  0  0  0  0  0  0  0  0  0  0  0
   -1.3962   -1.3307    0.7467 C   0  0  0  0  0  0  0  0  0  0  0  0
   -0.3825   -1.8637    1.1661 O   0  0  0  0  0  0  0  0  0  0  0  0
   -1.3590   -0.0643    0.2010 N   0  0  0  0  0  0  0  0  0  0  0  0
   -2.2520    0.3812    0.0063 H   0  0  0  0  0  0  0  0  0  0  0  0
   -0.1532    0.7709    0.0834 C   0  0  1  0  0  0  0  0  0  0  0  0
    0.7163    0.2511    0.5010 H   0  0  0  0  0  0  0  0  0  0  0  0
    0.1315    1.0636   -1.3984 C   0  0  0  0  0  0  0  0  0  0  0  0
   -0.7373    1.5502   -1.8516 H   0  0  0  0  0  0  0  0  0  0  0  0
    0.9807    1.7473   -1.4871 H   0  0  0  0  0  0  0  0  0  0  0  0
    0.4507   -0.1961   -2.1443 C   0  0  0  0  0  0  0  0  0  0  0  0
    1.6671   -0.8543   -2.0309 N   0  0  0  0  0  0  0  0  0  0  0  0
    1.5902   -1.9070   -2.8083 C   0  0  0  0  0  0  0  0  0  0  0  0
    2.3800   -2.6416   -2.9360 H   0  0  0  0  0  0  0  0  0  0  0  0
    0.3628   -1.9381   -3.4452 N   0  0  0  0  0  0  0  0  0  0  0  0
    0.0599   -2.6570   -4.0994 H   0  0  0  0  0  0  0  0  0  0  0  0
   -0.3655   -0.8427   -3.0302 C   0  0  0  0  0  0  0  0  0  0  0  0
   -1.3688   -0.5485   -3.3220 H   0  0  0  0  0  0  0  0  0  0  0  0
   -0.3322    2.0887    0.8579 C   0  0  0  0  0  0  0  0  0  0  0  0
   -1.2769    2.8255    0.5960 O   0  0  0  0  0  0  0  0  0  0  0  0
    0.5247    2.4145    1.8924 N   0  0  0  0  0  0  0  0  0  0  0  0
    1.2500    1.7411    2.1266 H   0  0  0  0  0  0  0  0  0  0  0  0
    0.3767    3.6094    2.7136 C   0  0  0  0  0  0  0  0  0  0  0  0
   -0.5881    3.6020    3.2313 H   0  0  0  0  0  0  0  0  0  0  0  0
    1.1718    3.6523    3.4641 H   0  0  0  0  0  0  0  0  0  0  0  0
    0.4377    4.5099    2.0937 H   0  0  0  0  0  0  0  0  0  0  0  0
  1  2  1  0  0  0  0
  2  3  1  0  0  0  0
  2  4  1  0  0  0  0
  2  5  1  0  0  0  0
  5  6  2  0  0  0  0
  5  7  1  0  0  0  0
  7  8  1  0  0  0  0
  7  9  1  0  0  0  0
  9 10  1  0  0  0  0
  9 11  1  0  0  0  0
  9 22  1  0  0  0  0
 11 12  1  0  0  0  0
 11 13  1  0  0  0  0
 11 14  1  0  0  0  0
 14 15  1  0  0  0  0
 14 20  2  0  0  0  0
 15 16  2  0  0  0  0
 16 17  1  0  0  0  0
 16 18  1  0  0  0  0
 18 19  1  0  0  0  0
 18 20  1  0  0  0  0
 20 21  1  0  0  0  0
 22 23  2  0  0  0  0
 22 24  1  0  0  0  0
 24 25  1  0  0  0  0
 24 26  1  0  0  0  0
 26 27  1  0  0  0  0
 26 28  1  0  0  0  0
 26 29  1  0  0  0  0
M  END
$$$$

  -OEChem-01062216083D

 29 29  0     1  0  0  0  0  0999 V2000
   -2.5945   -3.0229    1.3543 H   0  0  0  0  0  0  0  0  0  0  0  0
   -2.7410   -2.0354    0.9077 C   0  0  0  0  0  0  0  0  0  0  0  0
   -3.3832   -1.4437    1.5645 H   0  0  0  0  0  0  0  0  0  0  0  0
   -3.2328   -2.1569   -0.0603 H   0  0  0  0  0  0  0  0  0  0  0  0
   -1.4046   -1.3402    0.7267 C   0  0  0  0  0  0  0  0  0  0  0  0
   -0.3830   -1.8951    1.0953 O   0  0  0  0  0  0  0  0  0  0  0  0
   -1.3697   -0.0744    0.1791 N   0  0  0  0  0  0  0  0  0  0  0  0
   -2.2638    0.3976    0.0661 H   0  0  0  0  0  0  0  0  0  0  0  0
   -0.1642    0.7638    0.0722 C   0  0  1  0  0  0  0  0  0  0  0  0
    0.7010    0.2444    0.4992 H   0  0  0  0  0  0  0  0  0  0  0  0
    0.1321    1.0633   -1.4051 C   0  0  0  0  0  0  0  0  0  0  0  0
   -0.7345    1.5506   -1.8619 H   0  0  0  0  0  0  0  0  0  0  0  0
    0.9810    1.7486   -1.4844 H   0  0  0  0  0  0  0  0  0  0  0  0
    0.4600   -0.1920   -2.1540 C   0  0  0  0  0  0  0  0  0  0  0  0
    1.6778   -0.8460   -2.0316 N   0  0  0  0  0  0  0  0  0  0  0  0
    1.6095   -1.8989   -2.8095 C   0  0  0  0  0  0  0  0  0  0  0  0
    2.4023   -2.6318   -2.9296 H   0  0  0  0  0  0  0  0  0  0  0  0
    0.3880   -1.9318   -3.4578 N   0  0  0  0  0  0  0  0  0  0  0  0
    0.0910   -2.6529   -4.1122 H   0  0  0  0  0  0  0  0  0  0  0  0
   -0.3469   -0.8391   -3.0476 C   0  0  0  0  0  0  0  0  0  0  0  0
   -1.3494   -0.5490   -3.3454 H   0  0  0  0  0  0  0  0  0  0  0  0
   -0.3466    2.0845    0.8410 C   0  0  0  0  0  0  0  0  0  0  0  0
   -1.4033    2.7008    0.7480 O   0  0  0  0  0  0  0  0  0  0  0  0
    0.6591    2.5643    1.6591 N   0  0  0  0  0  0  0  0  0  0  0  0
    1.4977    1.9963    1.7513 H   0  0  0  0  0  0  0  0  0  0  0  0
    0.5357    3.7777    2.4568 C   0  0  0  0  0  0  0  0  0  0  0  0
   -0.2876    3.6833    3.1725 H   0  0  0  0  0  0  0  0  0  0  0  0
    1.4595    3.9586    3.0147 H   0  0  0  0  0  0  0  0  0  0  0  0
    0.3467    4.6427    1.8125 H   0  0  0  0  0  0  0  0  0  0  0  0
  1  2  1  0  0  0  0
  2  3  1  0  0  0  0
  2  4  1  0  0  0  0
  2  5  1  0  0  0  0
  5  6  2  0  0  0  0
  5  7  1  0  0  0  0
  7  8  1  0  0  0  0
  7  9  1  0  0  0  0
  9 10  1  0  0  0  0
  9 11  1  0  0  0  0
  9 22  1  0  0  0  0
 11 12  1  0  0  0  0
 11 13  1  0  0  0  0
 11 14  1  0  0  0  0
 14 15  1  0  0  0  0
 14 20  2  0  0  0  0
 15 16  2  0  0  0  0
 16 17  1  0  0  0  0
 16 18  1  0  0  0  0
 18 19  1  0  0  0  0
 18 20  1  0  0  0  0
 20 21  1  0  0  0  0
 22 23  2  0  0  0  0
 22 24  1  0  0  0  0
 24 25  1  0  0  0  0
 24 26  1  0  0  0  0
 26 27  1  0  0  0  0
 26 28  1  0  0  0  0
 26 29  1  0  0  0  0
M  END
$$$$

  -OEChem-01062216083D

 29 29  0     1  0  0  0  0  0999 V2000
   -2.5976   -3.0150    1.3773 H   0  0  0  0  0  0  0  0  0  0  0  0
   -2.7479   -2.0242    0.9393 C   0  0  0  0  0  0  0  0  0  0  0  0
   -3.3542   -1.4251    1.6230 H   0  0  0  0  0  0  0  0  0  0  0  0
   -3.2801   -2.1349   -0.0083 H   0  0  0  0  0  0  0  0  0  0  0  0
   -1.4099   -1.3485    0.7054 C   0  0  0  0  0  0  0  0  0  0  0  0
   -0.3826   -1.9215    1.0275 O   0  0  0  0  0  0  0  0  0  0  0  0
   -1.3803   -0.0823    0.1582 N   0  0  0  0  0  0  0  0  0  0  0  0
   -2.2720    0.4063    0.1155 H   0  0  0  0  0  0  0  0  0  0  0  0
   -0.1757    0.7597    0.0656 C   0  0  1  0  0  0  0  0  0  0  0  0
    0.6866    0.2428    0.5012 H   0  0  0  0  0  0  0  0  0  0  0  0
    0.1297    1.0631   -1.4091 C   0  0  0  0  0  0  0  0  0  0  0  0
   -0.7360    1.5480   -1.8698 H   0  0  0  0  0  0  0  0  0  0  0  0
    0.9768    1.7513   -1.4825 H   0  0  0  0  0  0  0  0  0  0  0  0
    0.4666   -0.1889   -2.1596 C   0  0  0  0  0  0  0  0  0  0  0  0
    1.6857   -0.8387   -2.0306 N   0  0  0  0  0  0  0  0  0  0  0  0
    1.6243   -1.8920   -2.8088 C   0  0  0  0  0  0  0  0  0  0  0  0
    2.4188   -2.6239   -2.9235 H   0  0  0  0  0  0  0  0  0  0  0  0
    0.4077   -1.9270   -3.4660 N   0  0  0  0  0  0  0  0  0  0  0  0
    0.1159   -2.6494   -4.1213 H   0  0  0  0  0  0  0  0  0  0  0  0
   -0.3330   -0.8372   -3.0589 C   0  0  0  0  0  0  0  0  0  0  0  0
   -1.3355   -0.5507   -3.3604 H   0  0  0  0  0  0  0  0  0  0  0  0
   -0.3647    2.0814    0.8325 C   0  0  0  0  0  0  0  0  0  0  0  0
   -1.4818    2.5816    0.9221 O   0  0  0  0  0  0  0  0  0  0  0  0
    0.7202    2.7177    1.4062 N   0  0  0  0  0  0  0  0  0  0  0  0
    1.6223    2.2522    1.3441 H   0  0  0  0  0  0  0  0  0  0  0  0
    0.6142    3.9570    2.1655 C   0  0  0  0  0  0  0  0  0  0  0  0
   -0.0268    3.8155    3.0419 H   0  0  0  0  0  0  0  0  0  0  0  0
    1.6032    4.2761    2.5080 H   0  0  0  0  0  0  0  0  0  0  0  0
    0.1911    4.7527    1.5433 H   0  0  0  0  0  0  0  0  0  0  0  0
  1  2  1  0  0  0  0
  2  3  1  0  0  0  0
  2  4  1  0  0  0  0
  2  5  1  0  0  0  0
  5  6  2  0  0  0  0
  5  7  1  0  0  0  0
  7  8  1  0  0  0  0
  7  9  1  0  0  0  0
  9 10  1  0  0  0  0
  9 11  1  0  0  0  0
  9 22  1  0  0  0  0
 11 12  1  0  0  0  0
 11 13  1  0  0  0  0
 11 14  1  0  0  0  0
 14 15  1  0  0  0  0
 14 20  2  0  0  0  0
 15 16  2  0  0  0  0
 16 17  1  0  0  0  0
 16 18  1  0  0  0  0
 18 19  1  0  0  0  0
 18 20  1  0  0  0  0
 20 21  1  0  0  0  0
 22 23  2  0  0  0  0
 22 24  1  0  0  0  0
 24 25  1  0  0  0  0
 24 26  1  0  0  0  0
 26 27  1  0  0  0  0
 26 28  1  0  0  0  0
 26 29  1  0  0  0  0
M  END
$$$$

  -OEChem-01062216083D

 29 29  0     1  0  0  0  0  0999 V2000
   -2.5952   -3.0139    1.4020 H   0  0  0  0  0  0  0  0  0  0  0  0
   -2.7481   -2.0256    0.9595 C   0  0  0  0  0  0  0  0  0  0  0  0
   -3.3370   -1.4183    1.6512 H   0  0  0  0  0  0  0  0  0  0  0  0
   -3.2998   -2.1403    0.0235 H   0  0  0  0  0  0  0  0  0  0  0  0
   -1.4113   -1.3591    0.6937 C   0  0  0  0  0  0  0  0  0  0  0  0
   -0.3808   -1.9428    0.9854 O   0  0  0  0  0  0  0  0  0  0  0  0
   -1.3872   -0.0916    0.1485 N   0  0  0  0  0  0  0  0  0  0  0  0
   -2.2758    0.4049    0.1553 H   0  0  0  0  0  0  0  0  0  0  0  0
   -0.1840    0.7550    0.0693 C   0  0  1  0  0  0  0  0  0  0  0  0
    0.6780    0.2418    0.5097 H   0  0  0  0  0  0  0  0  0  0  0  0
    0.1228    1.0612   -1.4058 C   0  0  0  0  0  0  0  0  0  0  0  0
   -0.7452    1.5429   -1.8658 H   0  0  0  0  0  0  0  0  0  0  0  0
    0.9670    1.7527   -1.4801 H   0  0  0  0  0  0  0  0  0  0  0  0
    0.4662   -0.1858   -2.1611 C   0  0  0  0  0  0  0  0  0  0  0  0
    1.6886   -0.8298   -2.0331 N   0  0  0  0  0  0  0  0  0  0  0  0
    1.6327   -1.8801   -2.8160 C   0  0  0  0  0  0  0  0  0  0  0  0
    2.4310   -2.6069   -2.9349 H   0  0  0  0  0  0  0  0  0  0  0  0
    0.4163   -1.9190   -3.4734 N   0  0  0  0  0  0  0  0  0  0  0  0
    0.1276   -2.6414   -4.1301 H   0  0  0  0  0  0  0  0  0  0  0  0
   -0.3297   -0.8340   -3.0634 C   0  0  0  0  0  0  0  0  0  0  0  0
   -1.3335   -0.5509   -3.3643 H   0  0  0  0  0  0  0  0  0  0  0  0
   -0.3787    2.0775    0.8362 C   0  0  0  0  0  0  0  0  0  0  0  0
   -1.5092    2.4689    1.1106 O   0  0  0  0  0  0  0  0  0  0  0  0
    0.7120    2.8674    1.1496 N   0  0  0  0  0  0  0  0  0  0  0  0
    1.6344    2.5006    0.9284 H   0  0  0  0  0  0  0  0  0  0  0  0
    0.6066    4.1398    1.8521 C   0  0  0  0  0  0  0  0  0  0  0  0
    0.1081    4.0048    2.8178 H   0  0  0  0  0  0  0  0  0  0  0  0
    1.6029    4.5547    2.0329 H   0  0  0  0  0  0  0  0  0  0  0  0
    0.0349    4.8593    1.2567 H   0  0  0  0  0  0  0  0  0  0  0  0
  1  2  1  0  0  0  0
  2  3  1  0  0  0  0
  2  4  1  0  0  0  0
  2  5  1  0  0  0  0
  5  6  2  0  0  0  0
  5  7  1  0  0  0  0
  7  8  1  0  0  0  0
  7  9  1  0  0  0  0
  9 10  1  0  0  0  0
  9 11  1  0  0  0  0
  9 22  1  0  0  0  0
 11 12  1  0  0  0  0
 11 13  1  0  0  0  0
 11 14  1  0  0  0  0
 14 15  1  0  0  0  0
 14 20  2  0  0  0  0
 15 16  2  0  0  0  0
 16 17  1  0  0  0  0
 16 18  1  0  0  0  0
 18 19  1  0  0  0  0
 18 20  1  0  0  0  0
 20 21  1  0  0  0  0
 22 23  2  0  0  0  0
 22 24  1  0  0  0  0
 24 25  1  0  0  0  0
 24 26  1  0  0  0  0
 26 27  1  0  0  0  0
 26 28  1  0  0  0  0
 26 29  1  0  0  0  0
M  END
$$$$

  -OEChem-01062216083D

 29 29  0     1  0  0  0  0  0999 V2000
   -2.5471   -2.9956    1.4438 H   0  0  0  0  0  0  0  0  0  0  0  0
   -2.7233   -2.0032    1.0193 C   0  0  0  0  0  0  0  0  0  0  0  0
   -3.2475   -1.3922    1.7585 H   0  0  0  0  0  0  0  0  0  0  0  0
   -3.3493   -2.1062    0.1299 H   0  0  0  0  0  0  0  0  0  0  0  0
   -1.4040   -1.3504    0.6520 C   0  0  0  0  0  0  0  0  0  0  0  0
   -0.3603   -1.9473    0.8597 O   0  0  0  0  0  0  0  0  0  0  0  0
   -1.4088   -0.0819    0.1083 N   0  0  0  0  0  0  0  0  0  0  0  0
   -2.2881    0.4166    0.2169 H   0  0  0  0  0  0  0  0  0  0  0  0
   -0.2032    0.7632    0.0360 C   0  0  1  0  0  0  0  0  0  0  0  0
    0.7005    0.1703    0.2168 H   0  0  0  0  0  0  0  0  0  0  0  0
   -0.1150    1.3605   -1.3796 C   0  0  0  0  0  0  0  0  0  0  0  0
   -1.0274    1.9236   -1.5966 H   0  0  0  0  0  0  0  0  0  0  0  0
    0.7285    2.0528   -1.4493 H   0  0  0  0  0  0  0  0  0  0  0  0
    0.0750    0.2888   -2.4099 C   0  0  0  0  0  0  0  0  0  0  0  0
    1.2841   -0.3647   -2.6006 N   0  0  0  0  0  0  0  0  0  0  0  0
    1.0871   -1.2288   -3.5668 C   0  0  0  0  0  0  0  0  0  0  0  0
    1.8401   -1.9115   -3.9502 H   0  0  0  0  0  0  0  0  0  0  0  0
   -0.2129   -1.1352   -4.0294 N   0  0  0  0  0  0  0  0  0  0  0  0
   -0.6117   -1.7013   -4.7758 H   0  0  0  0  0  0  0  0  0  0  0  0
   -0.8615   -0.1626   -3.2976 C   0  0  0  0  0  0  0  0  0  0  0  0
   -1.8898    0.1736   -3.3843 H   0  0  0  0  0  0  0  0  0  0  0  0
   -0.2350    1.8914    1.0905 C   0  0  0  0  0  0  0  0  0  0  0  0
   -1.2435    2.0792    1.7642 O   0  0  0  0  0  0  0  0  0  0  0  0
    0.8119    2.7913    1.1838 N   0  0  0  0  0  0  0  0  0  0  0  0
    1.6484    2.5895    0.6421 H   0  0  0  0  0  0  0  0  0  0  0  0
    0.8380    3.8968    2.1337 C   0  0  0  0  0  0  0  0  0  0  0  0
    0.7661    3.5225    3.1603 H   0  0  0  0  0  0  0  0  0  0  0  0
    1.7724    4.4574    2.0348 H   0  0  0  0  0  0  0  0  0  0  0  0
    0.0039    4.5816    1.9483 H   0  0  0  0  0  0  0  0  0  0  0  0
  1  2  1  0  0  0  0
  2  3  1  0  0  0  0
  2  4  1  0  0  0  0
  2  5  1  0  0  0  0
  5  6  2  0  0  0  0
  5  7  1  0  0  0  0
  7  8  1  0  0  0  0
  7  9  1  0  0  0  0
  9 10  1  0  0  0  0
  9 11  1  0  0  0  0
  9 22  1  0  0  0  0
 11 12  1  0  0  0  0
 11 13  1  0  0  0  0
 11 14  1  0  0  0  0
 14 15  1  0  0  0  0
 14 20  2  0  0  0  0
 15 16  2  0  0  0  0
 16 17  1  0  0  0  0
 16 18  1  0  0  0  0
 18 19  1  0  0  0  0
 18 20  1  0  0  0  0
 20 21  1  0  0  0  0
 22 23  2  0  0  0  0
 22 24  1  0  0  0  0
 24 25  1  0  0  0  0
 24 26  1  0  0  0  0
 26 27  1  0  0  0  0
 26 28  1  0  0  0  0
 26 29  1  0  0  0  0
M  END
$$$$

  -OEChem-01062216083D

 29 29  0     1  0  0  0  0  0999 V2000
   -2.5312   -2.9768    1.4584 H   0  0  0  0  0  0  0  0  0  0  0  0
   -2.7133   -1.9866    1.0313 C   0  0  0  0  0  0  0  0  0  0  0  0
   -3.2156   -1.3684    1.7793 H   0  0  0  0  0  0  0  0  0  0  0  0
   -3.3616   -2.0926    0.1586 H   0  0  0  0  0  0  0  0  0  0  0  0
   -1.4007   -1.3427    0.6260 C   0  0  0  0  0  0  0  0  0  0  0  0
   -0.3576   -1.9545    0.7884 O   0  0  0  0  0  0  0  0  0  0  0  0
   -1.4123   -0.0707    0.0893 N   0  0  0  0  0  0  0  0  0  0  0  0
   -2.2865    0.4276    0.2321 H   0  0  0  0  0  0  0  0  0  0  0  0
   -0.2047    0.7735    0.0223 C   0  0  1  0  0  0  0  0  0  0  0  0
    0.6991    0.1816    0.2048 H   0  0  0  0  0  0  0  0  0  0  0  0
   -0.1171    1.3622   -1.3992 C   0  0  0  0  0  0  0  0  0  0  0  0
   -1.0288    1.9247   -1.6200 H   0  0  0  0  0  0  0  0  0  0  0  0
    0.7282    2.0505   -1.4786 H   0  0  0  0  0  0  0  0  0  0  0  0
    0.0740    0.2841   -2.4226 C   0  0  0  0  0  0  0  0  0  0  0  0
    1.2839   -0.3689   -2.6090 N   0  0  0  0  0  0  0  0  0  0  0  0
    1.0861   -1.2436   -3.5655 C   0  0  0  0  0  0  0  0  0  0  0  0
    1.8390   -1.9294   -3.9433 H   0  0  0  0  0  0  0  0  0  0  0  0
   -0.2149   -1.1566   -4.0266 N   0  0  0  0  0  0  0  0  0  0  0  0
   -0.6162   -1.7357   -4.7616 H   0  0  0  0  0  0  0  0  0  0  0  0
   -0.8634   -0.1769   -3.3042 C   0  0  0  0  0  0  0  0  0  0  0  0
   -1.8930    0.1554   -3.3909 H   0  0  0  0  0  0  0  0  0  0  0  0
   -0.2391    1.8947    1.0879 C   0  0  0  0  0  0  0  0  0  0  0  0
   -1.1426    1.9284    1.9176 O   0  0  0  0  0  0  0  0  0  0  0  0
    0.6266    2.9722    1.0115 N   0  0  0  0  0  0  0  0  0  0  0  0
    1.3945    2.9041    0.3491 H   0  0  0  0  0  0  0  0  0  0  0  0
    0.6122    4.0816    1.9573 C   0  0  0  0  0  0  0  0  0  0  0  0
    0.7831    3.7191    2.9764 H   0  0  0  0  0  0  0  0  0  0  0  0
    1.3995    4.7997    1.7089 H   0  0  0  0  0  0  0  0  0  0  0  0
   -0.3511    4.6011    1.9241 H   0  0  0  0  0  0  0  0  0  0  0  0
  1  2  1  0  0  0  0
  2  3  1  0  0  0  0
  2  4  1  0  0  0  0
  2  5  1  0  0  0  0
  5  6  2  0  0  0  0
  5  7  1  0  0  0  0
  7  8  1  0  0  0  0
  7  9  1  0  0  0  0
  9 10  1  0  0  0  0
  9 11  1  0  0  0  0
  9 22  1  0  0  0  0
 11 12  1  0  0  0  0
 11 13  1  0  0  0  0
 11 14  1  0  0  0  0
 14 15  1  0  0  0  0
 14 20  2  0  0  0  0
 15 16  2  0  0  0  0
 16 17  1  0  0  0  0
 16 18  1  0  0  0  0
 18 19  1  0  0  0  0
 18 20  1  0  0  0  0
 20 21  1  0  0  0  0
 22 23  2  0  0  0  0
 22 24  1  0  0  0  0
 24 25  1  0  0  0  0
 24 26  1  0  0  0  0
 26 27  1  0  0  0  0
 26 28  1  0  0  0  0
 26 29  1  0  0  0  0
M  END
$$$$

  -OEChem-01062216083D

 29 29  0     1  0  0  0  0  0999 V2000
   -2.5187   -2.9598    1.4647 H   0  0  0  0  0  0  0  0  0  0  0  0
   -2.7050   -1.9688    1.0414 C   0  0  0  0  0  0  0  0  0  0  0  0
   -3.1854   -1.3473    1.8011 H   0  0  0  0  0  0  0  0  0  0  0  0
   -3.3744   -2.0713    0.1842 H   0  0  0  0  0  0  0  0  0  0  0  0
   -1.3986   -1.3324    0.6061 C   0  0  0  0  0  0  0  0  0  0  0  0
   -0.3572   -1.9550    0.7331 O   0  0  0  0  0  0  0  0  0  0  0  0
   -1.4170   -0.0582    0.0743 N   0  0  0  0  0  0  0  0  0  0  0  0
   -2.2912    0.4357    0.2276 H   0  0  0  0  0  0  0  0  0  0  0  0
   -0.2094    0.7864    0.0058 C   0  0  1  0  0  0  0  0  0  0  0  0
    0.6954    0.1961    0.1907 H   0  0  0  0  0  0  0  0  0  0  0  0
   -0.1197    1.3632   -1.4215 C   0  0  0  0  0  0  0  0  0  0  0  0
   -1.0303    1.9246   -1.6497 H   0  0  0  0  0  0  0  0  0  0  0  0
    0.7283    2.0471   -1.5067 H   0  0  0  0  0  0  0  0  0  0  0  0
    0.0745    0.2764   -2.4351 C   0  0  0  0  0  0  0  0  0  0  0  0
    1.2850   -0.3769   -2.6138 N   0  0  0  0  0  0  0  0  0  0  0  0
    1.0887   -1.2634   -3.5595 C   0  0  0  0  0  0  0  0  0  0  0  0
    1.8421   -1.9535   -3.9281 H   0  0  0  0  0  0  0  0  0  0  0  0
   -0.2118   -1.1825   -4.0228 N   0  0  0  0  0  0  0  0  0  0  0  0
   -0.6126   -1.7717   -4.7499 H   0  0  0  0  0  0  0  0  0  0  0  0
   -0.8620   -0.1956   -3.3118 C   0  0  0  0  0  0  0  0  0  0  0  0
   -1.8924    0.1333   -3.4015 H   0  0  0  0  0  0  0  0  0  0  0  0
   -0.2473    1.9015    1.0808 C   0  0  0  0  0  0  0  0  0  0  0  0
   -0.9860    1.7894    2.0535 O   0  0  0  0  0  0  0  0  0  0  0  0
    0.3740    3.1220    0.8743 N   0  0  0  0  0  0  0  0  0  0  0  0
    1.0162    3.1883    0.0899 H   0  0  0  0  0  0  0  0  0  0  0  0
    0.3265    4.2186    1.8341 C   0  0  0  0  0  0  0  0  0  0  0  0
    0.7432    3.9041    2.7968 H   0  0  0  0  0  0  0  0  0  0  0  0
    0.9094    5.0682    1.4659 H   0  0  0  0  0  0  0  0  0  0  0  0
   -0.7061    4.5493    1.9873 H   0  0  0  0  0  0  0  0  0  0  0  0
  1  2  1  0  0  0  0
  2  3  1  0  0  0  0
  2  4  1  0  0  0  0
  2  5  1  0  0  0  0
  5  6  2  0  0  0  0
  5  7  1  0  0  0  0
  7  8  1  0  0  0  0
  7  9  1  0  0  0  0
  9 10  1  0  0  0  0
  9 11  1  0  0  0  0
  9 22  1  0  0  0  0
 11 12  1  0  0  0  0
 11 13  1  0  0  0  0
 11 14  1  0  0  0  0
 14 15  1  0  0  0  0
 14 20  2  0  0  0  0
 15 16  2  0  0  0  0
 16 17  1  0  0  0  0
 16 18  1  0  0  0  0
 18 19  1  0  0  0  0
 18 20  1  0  0  0  0
 20 21  1  0  0  0  0
 22 23  2  0  0  0  0
 22 24  1  0  0  0  0
 24 25  1  0  0  0  0
 24 26  1  0  0  0  0
 26 27  1  0  0  0  0
 26 28  1  0  0  0  0
 26 29  1  0  0  0  0
M  END
$$$$

  -OEChem-01062216083D

 29 29  0     1  0  0  0  0  0999 V2000
   -2.5107   -2.9563    1.4612 H   0  0  0  0  0  0  0  0  0  0  0  0
   -2.7022   -1.9652    1.0406 C   0  0  0  0  0  0  0  0  0  0  0  0
   -3.1814   -1.3471    1.8039 H   0  0  0  0  0  0  0  0  0  0  0  0
   -3.3747   -2.0685    0.1861 H   0  0  0  0  0  0  0  0  0  0  0  0
   -1.3990   -1.3249    0.6010 C   0  0  0  0  0  0  0  0  0  0  0  0
   -0.3580   -1.9514    0.7098 O   0  0  0  0  0  0  0  0  0  0  0  0
   -1.4221   -0.0490    0.0724 N   0  0  0  0  0  0  0  0  0  0  0  0
   -2.3004    0.4391    0.2164 H   0  0  0  0  0  0  0  0  0  0  0  0
   -0.2158    0.7969   -0.0031 C   0  0  1  0  0  0  0  0  0  0  0  0
    0.6896    0.2078    0.1824 H   0  0  0  0  0  0  0  0  0  0  0  0
   -0.1225    1.3648   -1.4334 C   0  0  0  0  0  0  0  0  0  0  0  0
   -1.0320    1.9252   -1.6690 H   0  0  0  0  0  0  0  0  0  0  0  0
    0.7288    2.0453   -1.5169 H   0  0  0  0  0  0  0  0  0  0  0  0
    0.0748    0.2716   -2.4396 C   0  0  0  0  0  0  0  0  0  0  0  0
    1.2858   -0.3822   -2.6110 N   0  0  0  0  0  0  0  0  0  0  0  0
    1.0919   -1.2769   -3.5493 C   0  0  0  0  0  0  0  0  0  0  0  0
    1.8465   -1.9703   -3.9096 H   0  0  0  0  0  0  0  0  0  0  0  0
   -0.2077   -1.1994   -4.0166 N   0  0  0  0  0  0  0  0  0  0  0  0
   -0.6072   -1.7958   -4.7385 H   0  0  0  0  0  0  0  0  0  0  0  0
   -0.8597   -0.2073   -3.3147 C   0  0  0  0  0  0  0  0  0  0  0  0
   -1.8903    0.1193   -3.4089 H   0  0  0  0  0  0  0  0  0  0  0  0
   -0.2525    1.9072    1.0774 C   0  0  0  0  0  0  0  0  0  0  0  0
   -0.7717    1.6818    2.1643 O   0  0  0  0  0  0  0  0  0  0  0  0
    0.0816    3.2193    0.7825 N   0  0  0  0  0  0  0  0  0  0  0  0
    0.5378    3.3940   -0.1078 H   0  0  0  0  0  0  0  0  0  0  0  0
    0.0035    4.3050    1.7529 C   0  0  0  0  0  0  0  0  0  0  0  0
    0.6333    4.0876    2.6221 H   0  0  0  0  0  0  0  0  0  0  0  0
    0.3471    5.2406    1.3015 H   0  0  0  0  0  0  0  0  0  0  0  0
   -1.0287    4.4439    2.0911 H   0  0  0  0  0  0  0  0  0  0  0  0
  1  2  1  0  0  0  0
  2  3  1  0  0  0  0
  2  4  1  0  0  0  0
  2  5  1  0  0  0  0
  5  6  2  0  0  0  0
  5  7  1  0  0  0  0
  7  8  1  0  0  0  0
  7  9  1  0  0  0  0
  9 10  1  0  0  0  0
  9 11  1  0  0  0  0
  9 22  1  0  0  0  0
 11 12  1  0  0  0  0
 11 13  1  0  0  0  0
 11 14  1  0  0  0  0
 14 15  1  0  0  0  0
 14 20  2  0  0  0  0
 15 16  2  0  0  0  0
 16 17  1  0  0  0  0
 16 18  1  0  0  0  0
 18 19  1  0  0  0  0
 18 20  1  0  0  0  0
 20 21  1  0  0  0  0
 22 23  2  0  0  0  0
 22 24  1  0  0  0  0
 24 25  1  0  0  0  0
 24 26  1  0  0  0  0
 26 27  1  0  0  0  0
 26 28  1  0  0  0  0
 26 29  1  0  0  0  0
M  END
$$$$

  -OEChem-01062216083D

 29 29  0     1  0  0  0  0  0999 V2000
   -2.5090   -2.9616    1.4559 H   0  0  0  0  0  0  0  0  0  0  0  0
   -2.7032   -1.9726    1.0314 C   0  0  0  0  0  0  0  0  0  0  0  0
   -3.1949   -1.3570    1.7887 H   0  0  0  0  0  0  0  0  0  0  0  0
   -3.3665   -2.0829    0.1705 H   0  0  0  0  0  0  0  0  0  0  0  0
   -1.4002   -1.3236    0.6040 C   0  0  0  0  0  0  0  0  0  0  0  0
   -0.3589   -1.9496    0.7092 O   0  0  0  0  0  0  0  0  0  0  0  0
   -1.4259   -0.0462    0.0780 N   0  0  0  0  0  0  0  0  0  0  0  0
   -2.3123    0.4337    0.1941 H   0  0  0  0  0  0  0  0  0  0  0  0
   -0.2228    0.8036   -0.0033 C   0  0  1  0  0  0  0  0  0  0  0  0
    0.6838    0.2158    0.1826 H   0  0  0  0  0  0  0  0  0  0  0  0
   -0.1266    1.3690   -1.4339 C   0  0  0  0  0  0  0  0  0  0  0  0
   -1.0373    1.9243   -1.6761 H   0  0  0  0  0  0  0  0  0  0  0  0
    0.7231    2.0534   -1.5108 H   0  0  0  0  0  0  0  0  0  0  0  0
    0.0762    0.2734   -2.4366 C   0  0  0  0  0  0  0  0  0  0  0  0
    1.2881   -0.3794   -2.6044 N   0  0  0  0  0  0  0  0  0  0  0  0
    1.0967   -1.2791   -3.5383 C   0  0  0  0  0  0  0  0  0  0  0  0
    1.8533   -1.9718   -3.8957 H   0  0  0  0  0  0  0  0  0  0  0  0
   -0.2033   -1.2069   -4.0054 N   0  0  0  0  0  0  0  0  0  0  0  0
   -0.6016   -1.8085   -4.7237 H   0  0  0  0  0  0  0  0  0  0  0  0
   -0.8574   -0.2121   -3.3090 C   0  0  0  0  0  0  0  0  0  0  0  0
   -1.8887    0.1113   -3.4044 H   0  0  0  0  0  0  0  0  0  0  0  0
   -0.2567    1.9116    1.0775 C   0  0  0  0  0  0  0  0  0  0  0  0
   -0.5195    1.6205    2.2371 O   0  0  0  0  0  0  0  0  0  0  0  0
   -0.2325    3.2556    0.7398 N   0  0  0  0  0  0  0  0  0  0  0  0
    0.0028    3.4912   -0.2194 H   0  0  0  0  0  0  0  0  0  0  0  0
   -0.3362    4.3310    1.7194 C   0  0  0  0  0  0  0  0  0  0  0  0
    0.4677    4.2545    2.4592 H   0  0  0  0  0  0  0  0  0  0  0  0
   -0.2586    5.3030    1.2230 H   0  0  0  0  0  0  0  0  0  0  0  0
   -1.2991    4.2843    2.2389 H   0  0  0  0  0  0  0  0  0  0  0  0
  1  2  1  0  0  0  0
  2  3  1  0  0  0  0
  2  4  1  0  0  0  0
  2  5  1  0  0  0  0
  5  6  2  0  0  0  0
  5  7  1  0  0  0  0
  7  8  1  0  0  0  0
  7  9  1  0  0  0  0
  9 10  1  0  0  0  0
  9 11  1  0  0  0  0
  9 22  1  0  0  0  0
 11 12  1  0  0  0  0
 11 13  1  0  0  0  0
 11 14  1  0  0  0  0
 14 15  1  0  0  0  0
 14 20  2  0  0  0  0
 15 16  2  0  0  0  0
 16 17  1  0  0  0  0
 16 18  1  0  0  0  0
 18 19  1  0  0  0  0
 18 20  1  0  0  0  0
 20 21  1  0  0  0  0
 22 23  2  0  0  0  0
 22 24  1  0  0  0  0
 24 25  1  0  0  0  0
 24 26  1  0  0  0  0
 26 27  1  0  0  0  0
 26 28  1  0  0  0  0
 26 29  1  0  0  0  0
M  END
$$$$

  -OEChem-01062216083D

 29 29  0     1  0  0  0  0  0999 V2000
   -2.5148   -2.9748    1.4434 H   0  0  0  0  0  0  0  0  0  0  0  0
   -2.7088   -1.9869    1.0163 C   0  0  0  0  0  0  0  0  0  0  0  0
   -3.2211   -1.3765    1.7639 H   0  0  0  0  0  0  0  0  0  0  0  0
   -3.3530   -2.1010    0.1415 H   0  0  0  0  0  0  0  0  0  0  0  0
   -1.4027   -1.3273    0.6159 C   0  0  0  0  0  0  0  0  0  0  0  0
   -0.3598   -1.9466    0.7382 O   0  0  0  0  0  0  0  0  0  0  0  0
   -1.4289   -0.0498    0.0901 N   0  0  0  0  0  0  0  0  0  0  0  0
   -2.3247    0.4199    0.1666 H   0  0  0  0  0  0  0  0  0  0  0  0
   -0.2306    0.8058    0.0042 C   0  0  1  0  0  0  0  0  0  0  0  0
    0.6780    0.2204    0.1899 H   0  0  0  0  0  0  0  0  0  0  0  0
   -0.1338    1.3728   -1.4251 C   0  0  0  0  0  0  0  0  0  0  0  0
   -1.0473    1.9207   -1.6718 H   0  0  0  0  0  0  0  0  0  0  0  0
    0.7110    2.0648   -1.4942 H   0  0  0  0  0  0  0  0  0  0  0  0
    0.0755    0.2787   -2.4291 C   0  0  0  0  0  0  0  0  0  0  0  0
    1.2898   -0.3695   -2.5958 N   0  0  0  0  0  0  0  0  0  0  0  0
    1.1032   -1.2710   -3.5288 C   0  0  0  0  0  0  0  0  0  0  0  0
    1.8629   -1.9616   -3.8840 H   0  0  0  0  0  0  0  0  0  0  0  0
   -0.1964   -1.2047   -3.9974 N   0  0  0  0  0  0  0  0  0  0  0  0
   -0.5912   -1.8086   -4.7156 H   0  0  0  0  0  0  0  0  0  0  0  0
   -0.8554   -0.2125   -3.3020 C   0  0  0  0  0  0  0  0  0  0  0  0
   -1.8887    0.1045   -3.3987 H   0  0  0  0  0  0  0  0  0  0  0  0
   -0.2652    1.9140    1.0822 C   0  0  0  0  0  0  0  0  0  0  0  0
   -0.2365    1.6140    2.2676 O   0  0  0  0  0  0  0  0  0  0  0  0
   -0.5564    3.2283    0.7524 N   0  0  0  0  0  0  0  0  0  0  0  0
   -0.5560    3.4736   -0.2326 H   0  0  0  0  0  0  0  0  0  0  0  0
   -0.6684    4.2952    1.7402 C   0  0  0  0  0  0  0  0  0  0  0  0
    0.2664    4.3966    2.3017 H   0  0  0  0  0  0  0  0  0  0  0  0
   -0.8806    5.2480    1.2459 H   0  0  0  0  0  0  0  0  0  0  0  0
   -1.4807    4.0828    2.4434 H   0  0  0  0  0  0  0  0  0  0  0  0
  1  2  1  0  0  0  0
  2  3  1  0  0  0  0
  2  4  1  0  0  0  0
  2  5  1  0  0  0  0
  5  6  2  0  0  0  0
  5  7  1  0  0  0  0
  7  8  1  0  0  0  0
  7  9  1  0  0  0  0
  9 10  1  0  0  0  0
  9 11  1  0  0  0  0
  9 22  1  0  0  0  0
 11 12  1  0  0  0  0
 11 13  1  0  0  0  0
 11 14  1  0  0  0  0
 14 15  1  0  0  0  0
 14 20  2  0  0  0  0
 15 16  2  0  0  0  0
 16 17  1  0  0  0  0
 16 18  1  0  0  0  0
 18 19  1  0  0  0  0
 18 20  1  0  0  0  0
 20 21  1  0  0  0  0
 22 23  2  0  0  0  0
 22 24  1  0  0  0  0
 24 25  1  0  0  0  0
 24 26  1  0  0  0  0
 26 27  1  0  0  0  0
 26 28  1  0  0  0  0
 26 29  1  0  0  0  0
M  END
$$$$

  -OEChem-01062216083D

 29 29  0     1  0  0  0  0  0999 V2000
   -2.5281   -3.0065    1.4164 H   0  0  0  0  0  0  0  0  0  0  0  0
   -2.7192   -2.0172    0.9907 C   0  0  0  0  0  0  0  0  0  0  0  0
   -3.2660   -1.4199    1.7244 H   0  0  0  0  0  0  0  0  0  0  0  0
   -3.3300   -2.1327    0.0924 H   0  0  0  0  0  0  0  0  0  0  0  0
   -1.4078   -1.3375    0.6435 C   0  0  0  0  0  0  0  0  0  0  0  0
   -0.3621   -1.9393    0.8131 O   0  0  0  0  0  0  0  0  0  0  0  0
   -1.4315   -0.0608    0.1150 N   0  0  0  0  0  0  0  0  0  0  0  0
   -2.3368    0.3956    0.1350 H   0  0  0  0  0  0  0  0  0  0  0  0
   -0.2384    0.8019    0.0230 C   0  0  1  0  0  0  0  0  0  0  0  0
    0.6727    0.2194    0.2062 H   0  0  0  0  0  0  0  0  0  0  0  0
   -0.1442    1.3720   -1.4049 C   0  0  0  0  0  0  0  0  0  0  0  0
   -1.0591    1.9160   -1.6533 H   0  0  0  0  0  0  0  0  0  0  0  0
    0.6958    2.0705   -1.4696 H   0  0  0  0  0  0  0  0  0  0  0  0
    0.0700    0.2812   -2.4119 C   0  0  0  0  0  0  0  0  0  0  0  0
    1.2867   -0.3618   -2.5808 N   0  0  0  0  0  0  0  0  0  0  0  0
    1.1074   -1.2554   -3.5226 C   0  0  0  0  0  0  0  0  0  0  0  0
    1.8715   -1.9387   -3.8825 H   0  0  0  0  0  0  0  0  0  0  0  0
   -0.1915   -1.1906   -3.9934 N   0  0  0  0  0  0  0  0  0  0  0  0
   -0.5803   -1.7870   -4.7211 H   0  0  0  0  0  0  0  0  0  0  0  0
   -0.8564   -0.2065   -3.2919 C   0  0  0  0  0  0  0  0  0  0  0  0
   -1.8894    0.1097   -3.3927 H   0  0  0  0  0  0  0  0  0  0  0  0
   -0.2721    1.9148    1.0941 C   0  0  0  0  0  0  0  0  0  0  0  0
    0.0729    1.6793    2.2428 O   0  0  0  0  0  0  0  0  0  0  0  0
   -0.8614    3.1402    0.8253 N   0  0  0  0  0  0  0  0  0  0  0  0
   -1.1095    3.3384   -0.1384 H   0  0  0  0  0  0  0  0  0  0  0  0
   -0.9677    4.2092    1.8116 C   0  0  0  0  0  0  0  0  0  0  0  0
    0.0265    4.5133    2.1557 H   0  0  0  0  0  0  0  0  0  0  0  0
   -1.4644    5.0803    1.3737 H   0  0  0  0  0  0  0  0  0  0  0  0
   -1.5531    3.8766    2.6753 H   0  0  0  0  0  0  0  0  0  0  0  0
  1  2  1  0  0  0  0
  2  3  1  0  0  0  0
  2  4  1  0  0  0  0
  2  5  1  0  0  0  0
  5  6  2  0  0  0  0
  5  7  1  0  0  0  0
  7  8  1  0  0  0  0
  7  9  1  0  0  0  0
  9 10  1  0  0  0  0
  9 11  1  0  0  0  0
  9 22  1  0  0  0  0
 11 12  1  0  0  0  0
 11 13  1  0  0  0  0
 11 14  1  0  0  0  0
 14 15  1  0  0  0  0
 14 20  2  0  0  0  0
 15 16  2  0  0  0  0
 16 17  1  0  0  0  0
 16 18  1  0  0  0  0
 18 19  1  0  0  0  0
 18 20  1  0  0  0  0
 20 21  1  0  0  0  0
 22 23  2  0  0  0  0
 22 24  1  0  0  0  0
 24 25  1  0  0  0  0
 24 26  1  0  0  0  0
 26 27  1  0  0  0  0
 26 28  1  0  0  0  0
 26 29  1  0  0  0  0
M  END
$$$$

  -OEChem-01062216083D

 29 29  0     1  0  0  0  0  0999 V2000
   -2.5390   -3.0543    1.3783 H   0  0  0  0  0  0  0  0  0  0  0  0
   -2.7264   -2.0684    0.9433 C   0  0  0  0  0  0  0  0  0  0  0  0
   -3.3339   -1.4876    1.6412 H   0  0  0  0  0  0  0  0  0  0  0  0
   -3.2749   -2.1958    0.0073 H   0  0  0  0  0  0  0  0  0  0  0  0
   -1.4123   -1.3562    0.6814 C   0  0  0  0  0  0  0  0  0  0  0  0
   -0.3658   -1.9280    0.9291 O   0  0  0  0  0  0  0  0  0  0  0  0
   -1.4326   -0.0810    0.1491 N   0  0  0  0  0  0  0  0  0  0  0  0
   -2.3469    0.3524    0.0883 H   0  0  0  0  0  0  0  0  0  0  0  0
   -0.2451    0.7901    0.0535 C   0  0  1  0  0  0  0  0  0  0  0  0
    0.6689    0.2104    0.2320 H   0  0  0  0  0  0  0  0  0  0  0  0
   -0.1562    1.3707   -1.3698 C   0  0  0  0  0  0  0  0  0  0  0  0
   -1.0721    1.9152   -1.6127 H   0  0  0  0  0  0  0  0  0  0  0  0
    0.6807    2.0734   -1.4292 H   0  0  0  0  0  0  0  0  0  0  0  0
    0.0610    0.2879   -2.3851 C   0  0  0  0  0  0  0  0  0  0  0  0
    1.2784   -0.3508   -2.5636 N   0  0  0  0  0  0  0  0  0  0  0  0
    1.1010   -1.2327   -3.5165 C   0  0  0  0  0  0  0  0  0  0  0  0
    1.8667   -1.9087   -3.8861 H   0  0  0  0  0  0  0  0  0  0  0  0
   -0.1986   -1.1660   -3.9844 N   0  0  0  0  0  0  0  0  0  0  0  0
   -0.5855   -1.7510   -4.7225 H   0  0  0  0  0  0  0  0  0  0  0  0
   -0.8646   -0.1911   -3.2709 C   0  0  0  0  0  0  0  0  0  0  0  0
   -1.8970    0.1272   -3.3712 H   0  0  0  0  0  0  0  0  0  0  0  0
   -0.2796    1.9094    1.1160 C   0  0  0  0  0  0  0  0  0  0  0  0
    0.3766    1.8216    2.1431 O   0  0  0  0  0  0  0  0  0  0  0  0
   -1.1281    2.9945    0.9623 N   0  0  0  0  0  0  0  0  0  0  0  0
   -1.6131    3.0883    0.0765 H   0  0  0  0  0  0  0  0  0  0  0  0
   -1.2097    4.0854    1.9267 C   0  0  0  0  0  0  0  0  0  0  0  0
   -0.2383    4.5806    2.0282 H   0  0  0  0  0  0  0  0  0  0  0  0
   -1.9442    4.8269    1.5984 H   0  0  0  0  0  0  0  0  0  0  0  0
   -1.5163    3.7075    2.9078 H   0  0  0  0  0  0  0  0  0  0  0  0
  1  2  1  0  0  0  0
  2  3  1  0  0  0  0
  2  4  1  0  0  0  0
  2  5  1  0  0  0  0
  5  6  2  0  0  0  0
  5  7  1  0  0  0  0
  7  8  1  0  0  0  0
  7  9  1  0  0  0  0
  9 10  1  0  0  0  0
  9 11  1  0  0  0  0
  9 22  1  0  0  0  0
 11 12  1  0  0  0  0
 11 13  1  0  0  0  0
 11 14  1  0  0  0  0
 14 15  1  0  0  0  0
 14 20  2  0  0  0  0
 15 16  2  0  0  0  0
 16 17  1  0  0  0  0
 16 18  1  0  0  0  0
 18 19  1  0  0  0  0
 18 20  1  0  0  0  0
 20 21  1  0  0  0  0
 22 23  2  0  0  0  0
 22 24  1  0  0  0  0
 24 25  1  0  0  0  0
 24 26  1  0  0  0  0
 26 27  1  0  0  0  0
 26 28  1  0  0  0  0
 26 29  1  0  0  0  0
M  END
$$$$

  -OEChem-01062216083D

 29 29  0     1  0  0  0  0  0999 V2000
   -2.5233   -3.1459    1.2529 H   0  0  0  0  0  0  0  0  0  0  0  0
   -2.7087   -2.1610    0.8149 C   0  0  0  0  0  0  0  0  0  0  0  0
   -3.4527   -1.6410    1.4230 H   0  0  0  0  0  0  0  0  0  0  0  0
   -3.0995   -2.2950   -0.1964 H   0  0  0  0  0  0  0  0  0  0  0  0
   -1.4210   -1.3593    0.7739 C   0  0  0  0  0  0  0  0  0  0  0  0
   -0.4024   -1.8404    1.2355 O   0  0  0  0  0  0  0  0  0  0  0  0
   -1.4322   -0.0919    0.2245 N   0  0  0  0  0  0  0  0  0  0  0  0
   -2.3197    0.2372   -0.1361 H   0  0  0  0  0  0  0  0  0  0  0  0
   -0.2459    0.7796    0.1104 C   0  0  1  0  0  0  0  0  0  0  0  0
    0.6682    0.1979    0.2825 H   0  0  0  0  0  0  0  0  0  0  0  0
   -0.1710    1.3610   -1.3118 C   0  0  0  0  0  0  0  0  0  0  0  0
   -1.0848    1.9155   -1.5406 H   0  0  0  0  0  0  0  0  0  0  0  0
    0.6698    2.0590   -1.3765 H   0  0  0  0  0  0  0  0  0  0  0  0
    0.0329    0.2809   -2.3331 C   0  0  0  0  0  0  0  0  0  0  0  0
    1.2440   -0.3637   -2.5312 N   0  0  0  0  0  0  0  0  0  0  0  0
    1.0569   -1.2248   -3.5008 C   0  0  0  0  0  0  0  0  0  0  0  0
    1.8173   -1.8962   -3.8897 H   0  0  0  0  0  0  0  0  0  0  0  0
   -0.2459   -1.1430   -3.9573 N   0  0  0  0  0  0  0  0  0  0  0  0
   -0.6371   -1.7026   -4.7126 H   0  0  0  0  0  0  0  0  0  0  0  0
   -0.9011   -0.1765   -3.2222 C   0  0  0  0  0  0  0  0  0  0  0  0
   -1.9290    0.1574   -3.3189 H   0  0  0  0  0  0  0  0  0  0  0  0
   -0.2642    1.9190    1.1513 C   0  0  0  0  0  0  0  0  0  0  0  0
    0.6679    2.0786    1.9259 O   0  0  0  0  0  0  0  0  0  0  0  0
   -1.3038    2.8353    1.1648 N   0  0  0  0  0  0  0  0  0  0  0  0
   -2.0550    2.7063    0.4971 H   0  0  0  0  0  0  0  0  0  0  0  0
   -1.3641    3.9632    2.0865 C   0  0  0  0  0  0  0  0  0  0  0  0
   -0.5011    4.6220    1.9427 H   0  0  0  0  0  0  0  0  0  0  0  0
   -2.2751    4.5442    1.9143 H   0  0  0  0  0  0  0  0  0  0  0  0
   -1.3698    3.6101    3.1232 H   0  0  0  0  0  0  0  0  0  0  0  0
  1  2  1  0  0  0  0
  2  3  1  0  0  0  0
  2  4  1  0  0  0  0
  2  5  1  0  0  0  0
  5  6  2  0  0  0  0
  5  7  1  0  0  0  0
  7  8  1  0  0  0  0
  7  9  1  0  0  0  0
  9 10  1  0  0  0  0
  9 11  1  0  0  0  0
  9 22  1  0  0  0  0
 11 12  1  0  0  0  0
 11 13  1  0  0  0  0
 11 14  1  0  0  0  0
 14 15  1  0  0  0  0
 14 20  2  0  0  0  0
 15 16  2  0  0  0  0
 16 17  1  0  0  0  0
 16 18  1  0  0  0  0
 18 19  1  0  0  0  0
 18 20  1  0  0  0  0
 20 21  1  0  0  0  0
 22 23  2  0  0  0  0
 22 24  1  0  0  0  0
 24 25  1  0  0  0  0
 24 26  1  0  0  0  0
 26 27  1  0  0  0  0
 26 28  1  0  0  0  0
 26 29  1  0  0  0  0
M  END
$$$$

  -OEChem-01062216083D

 29 29  0     1  0  0  0  0  0999 V2000
   -2.4400   -3.2129    1.1338 H   0  0  0  0  0  0  0  0  0  0  0  0
   -2.6295   -2.2523    0.6462 C   0  0  0  0  0  0  0  0  0  0  0  0
   -3.5341   -1.8135    1.0736 H   0  0  0  0  0  0  0  0  0  0  0  0
   -2.7826   -2.4258   -0.4215 H   0  0  0  0  0  0  0  0  0  0  0  0
   -1.4506   -1.3208    0.8564 C   0  0  0  0  0  0  0  0  0  0  0  0
   -0.5160   -1.6817    1.5483 O   0  0  0  0  0  0  0  0  0  0  0  0
   -1.4664   -0.0656    0.2802 N   0  0  0  0  0  0  0  0  0  0  0  0
   -2.2264    0.1049   -0.3682 H   0  0  0  0  0  0  0  0  0  0  0  0
   -0.2618    0.7797    0.1607 C   0  0  1  0  0  0  0  0  0  0  0  0
    0.6405    0.1814    0.3382 H   0  0  0  0  0  0  0  0  0  0  0  0
   -0.1811    1.3520   -1.2641 C   0  0  0  0  0  0  0  0  0  0  0  0
   -1.0826    1.9288   -1.4879 H   0  0  0  0  0  0  0  0  0  0  0  0
    0.6749    2.0306   -1.3365 H   0  0  0  0  0  0  0  0  0  0  0  0
   -0.0058    0.2630   -2.2808 C   0  0  0  0  0  0  0  0  0  0  0  0
    1.1869   -0.4127   -2.4853 N   0  0  0  0  0  0  0  0  0  0  0  0
    0.9787   -1.2569   -3.4653 C   0  0  0  0  0  0  0  0  0  0  0  0
    1.7232   -1.9402   -3.8640 H   0  0  0  0  0  0  0  0  0  0  0  0
   -0.3231   -1.1396   -3.9171 N   0  0  0  0  0  0  0  0  0  0  0  0
   -0.7241   -1.6706   -4.6880 H   0  0  0  0  0  0  0  0  0  0  0  0
   -0.9519   -0.1622   -3.1734 C   0  0  0  0  0  0  0  0  0  0  0  0
   -1.9669    0.2081   -3.2755 H   0  0  0  0  0  0  0  0  0  0  0  0
   -0.2514    1.9386    1.1790 C   0  0  0  0  0  0  0  0  0  0  0  0
    0.8006    2.3259    1.6678 O   0  0  0  0  0  0  0  0  0  0  0  0
   -1.3963    2.6900    1.3859 N   0  0  0  0  0  0  0  0  0  0  0  0
   -2.2658    2.2997    1.0400 H   0  0  0  0  0  0  0  0  0  0  0  0
   -1.4490    3.8188    2.3074 C   0  0  0  0  0  0  0  0  0  0  0  0
   -0.7437    4.5980    1.9993 H   0  0  0  0  0  0  0  0  0  0  0  0
   -2.4544    4.2502    2.3208 H   0  0  0  0  0  0  0  0  0  0  0  0
   -1.1954    3.4963    3.3229 H   0  0  0  0  0  0  0  0  0  0  0  0
  1  2  1  0  0  0  0
  2  3  1  0  0  0  0
  2  4  1  0  0  0  0
  2  5  1  0  0  0  0
  5  6  2  0  0  0  0
  5  7  1  0  0  0  0
  7  8  1  0  0  0  0
  7  9  1  0  0  0  0
  9 10  1  0  0  0  0
  9 11  1  0  0  0  0
  9 22  1  0  0  0  0
 11 12  1  0  0  0  0
 11 13  1  0  0  0  0
 11 14  1  0  0  0  0
 14 15  1  0  0  0  0
 14 20  2  0  0  0  0
 15 16  2  0  0  0  0
 16 17  1  0  0  0  0
 16 18  1  0  0  0  0
 18 19  1  0  0  0  0
 18 20  1  0  0  0  0
 20 21  1  0  0  0  0
 22 23  2  0  0  0  0
 22 24  1  0  0  0  0
 24 25  1  0  0  0  0
 24 26  1  0  0  0  0
 26 27  1  0  0  0  0
 26 28  1  0  0  0  0
 26 29  1  0  0  0  0
M  END
$$$$

  -OEChem-01062216083D

 29 29  0     1  0  0  0  0  0999 V2000
   -2.4367   -3.2136    1.1199 H   0  0  0  0  0  0  0  0  0  0  0  0
   -2.6132   -2.2635    0.6077 C   0  0  0  0  0  0  0  0  0  0  0  0
   -3.5406   -1.8271    0.9859 H   0  0  0  0  0  0  0  0  0  0  0  0
   -2.7159   -2.4561   -0.4629 H   0  0  0  0  0  0  0  0  0  0  0  0
   -1.4543   -1.3164    0.8549 C   0  0  0  0  0  0  0  0  0  0  0  0
   -0.5413   -1.6572    1.5851 O   0  0  0  0  0  0  0  0  0  0  0  0
   -1.4669   -0.0619    0.2784 N   0  0  0  0  0  0  0  0  0  0  0  0
   -2.2038    0.0943   -0.4001 H   0  0  0  0  0  0  0  0  0  0  0  0
   -0.2560    0.7769    0.1661 C   0  0  1  0  0  0  0  0  0  0  0  0
    0.6434    0.1747    0.3447 H   0  0  0  0  0  0  0  0  0  0  0  0
   -0.1739    1.3511   -1.2578 C   0  0  0  0  0  0  0  0  0  0  0  0
   -1.0723    1.9342   -1.4777 H   0  0  0  0  0  0  0  0  0  0  0  0
    0.6857    2.0254   -1.3309 H   0  0  0  0  0  0  0  0  0  0  0  0
   -0.0051    0.2613   -2.2754 C   0  0  0  0  0  0  0  0  0  0  0  0
    1.1813   -0.4242   -2.4858 N   0  0  0  0  0  0  0  0  0  0  0  0
    0.9616   -1.2665   -3.4652 C   0  0  0  0  0  0  0  0  0  0  0  0
    1.6982   -1.9555   -3.8690 H   0  0  0  0  0  0  0  0  0  0  0  0
   -0.3419   -1.1402   -3.9093 N   0  0  0  0  0  0  0  0  0  0  0  0
   -0.7506   -1.6657   -4.6801 H   0  0  0  0  0  0  0  0  0  0  0  0
   -0.9590   -0.1579   -3.1624 C   0  0  0  0  0  0  0  0  0  0  0  0
   -1.9716    0.2204   -3.2589 H   0  0  0  0  0  0  0  0  0  0  0  0
   -0.2433    1.9355    1.1854 C   0  0  0  0  0  0  0  0  0  0  0  0
    0.8046    2.5023    1.4641 O   0  0  0  0  0  0  0  0  0  0  0  0
   -1.4361    2.4893    1.6180 N   0  0  0  0  0  0  0  0  0  0  0  0
   -2.2683    1.9301    1.4635 H   0  0  0  0  0  0  0  0  0  0  0  0
   -1.4989    3.5903    2.5714 C   0  0  0  0  0  0  0  0  0  0  0  0
   -0.9902    4.4736    2.1709 H   0  0  0  0  0  0  0  0  0  0  0  0
   -2.5407    3.8555    2.7744 H   0  0  0  0  0  0  0  0  0  0  0  0
   -1.0217    3.3066    3.5154 H   0  0  0  0  0  0  0  0  0  0  0  0
  1  2  1  0  0  0  0
  2  3  1  0  0  0  0
  2  4  1  0  0  0  0
  2  5  1  0  0  0  0
  5  6  2  0  0  0  0
  5  7  1  0  0  0  0
  7  8  1  0  0  0  0
  7  9  1  0  0  0  0
  9 10  1  0  0  0  0
  9 11  1  0  0  0  0
  9 22  1  0  0  0  0
 11 12  1  0  0  0  0
 11 13  1  0  0  0  0
 11 14  1  0  0  0  0
 14 15  1  0  0  0  0
 14 20  2  0  0  0  0
 15 16  2  0  0  0  0
 16 17  1  0  0  0  0
 16 18  1  0  0  0  0
 18 19  1  0  0  0  0
 18 20  1  0  0  0  0
 20 21  1  0  0  0  0
 22 23  2  0  0  0  0
 22 24  1  0  0  0  0
 24 25  1  0  0  0  0
 24 26  1  0  0  0  0
 26 27  1  0  0  0  0
 26 28  1  0  0  0  0
 26 29  1  0  0  0  0
M  END
$$$$

  -OEChem-01062216083D

 29 29  0     1  0  0  0  0  0999 V2000
   -2.4299   -3.2215    1.0871 H   0  0  0  0  0  0  0  0  0  0  0  0
   -2.6145   -2.2640    0.5915 C   0  0  0  0  0  0  0  0  0  0  0  0
   -3.5407   -1.8375    0.9839 H   0  0  0  0  0  0  0  0  0  0  0  0
   -2.7252   -2.4404   -0.4811 H   0  0  0  0  0  0  0  0  0  0  0  0
   -1.4581   -1.3156    0.8444 C   0  0  0  0  0  0  0  0  0  0  0  0
   -0.5545   -1.6480    1.5902 O   0  0  0  0  0  0  0  0  0  0  0  0
   -1.4694   -0.0598    0.2716 N   0  0  0  0  0  0  0  0  0  0  0  0
   -2.2079    0.1037   -0.4038 H   0  0  0  0  0  0  0  0  0  0  0  0
   -0.2578    0.7791    0.1627 C   0  0  1  0  0  0  0  0  0  0  0  0
    0.6409    0.1764    0.3420 H   0  0  0  0  0  0  0  0  0  0  0  0
   -0.1779    1.3475   -1.2649 C   0  0  0  0  0  0  0  0  0  0  0  0
   -1.0779    1.9279   -1.4856 H   0  0  0  0  0  0  0  0  0  0  0  0
    0.6803    2.0229   -1.3451 H   0  0  0  0  0  0  0  0  0  0  0  0
   -0.0081    0.2543   -2.2784 C   0  0  0  0  0  0  0  0  0  0  0  0
    1.1803   -0.4288   -2.4858 N   0  0  0  0  0  0  0  0  0  0  0  0
    0.9649   -1.2705   -3.4664 C   0  0  0  0  0  0  0  0  0  0  0  0
    1.7045   -1.9571   -3.8684 H   0  0  0  0  0  0  0  0  0  0  0  0
   -0.3378   -1.1467   -3.9140 N   0  0  0  0  0  0  0  0  0  0  0  0
   -0.7426   -1.6706   -4.6880 H   0  0  0  0  0  0  0  0  0  0  0  0
   -0.9586   -0.1656   -3.1686 C   0  0  0  0  0  0  0  0  0  0  0  0
   -1.9705    0.2135   -3.2694 H   0  0  0  0  0  0  0  0  0  0  0  0
   -0.2416    1.9373    1.1846 C   0  0  0  0  0  0  0  0  0  0  0  0
    0.7425    2.6574    1.2892 O   0  0  0  0  0  0  0  0  0  0  0  0
   -1.4001    2.2910    1.8544 N   0  0  0  0  0  0  0  0  0  0  0  0
   -2.1445    1.6010    1.8416 H   0  0  0  0  0  0  0  0  0  0  0  0
   -1.4467    3.3536    2.8510 C   0  0  0  0  0  0  0  0  0  0  0  0
   -1.1474    4.3090    2.4074 H   0  0  0  0  0  0  0  0  0  0  0  0
   -2.4626    3.4596    3.2430 H   0  0  0  0  0  0  0  0  0  0  0  0
   -0.7739    3.1260    3.6845 H   0  0  0  0  0  0  0  0  0  0  0  0
  1  2  1  0  0  0  0
  2  3  1  0  0  0  0
  2  4  1  0  0  0  0
  2  5  1  0  0  0  0
  5  6  2  0  0  0  0
  5  7  1  0  0  0  0
  7  8  1  0  0  0  0
  7  9  1  0  0  0  0
  9 10  1  0  0  0  0
  9 11  1  0  0  0  0
  9 22  1  0  0  0  0
 11 12  1  0  0  0  0
 11 13  1  0  0  0  0
 11 14  1  0  0  0  0
 14 15  1  0  0  0  0
 14 20  2  0  0  0  0
 15 16  2  0  0  0  0
 16 17  1  0  0  0  0
 16 18  1  0  0  0  0
 18 19  1  0  0  0  0
 18 20  1  0  0  0  0
 20 21  1  0  0  0  0
 22 23  2  0  0  0  0
 22 24  1  0  0  0  0
 24 25  1  0  0  0  0
 24 26  1  0  0  0  0
 26 27  1  0  0  0  0
 26 28  1  0  0  0  0
 26 29  1  0  0  0  0
M  END
$$$$

  -OEChem-01062216083D

 29 29  0     1  0  0  0  0  0999 V2000
   -2.4318   -3.2173    1.0445 H   0  0  0  0  0  0  0  0  0  0  0  0
   -2.6143   -2.2544    0.5587 C   0  0  0  0  0  0  0  0  0  0  0  0
   -3.5414   -1.8311    0.9524 H   0  0  0  0  0  0  0  0  0  0  0  0
   -2.7225   -2.4197   -0.5160 H   0  0  0  0  0  0  0  0  0  0  0  0
   -1.4576   -1.3095    0.8244 C   0  0  0  0  0  0  0  0  0  0  0  0
   -0.5599   -1.6443    1.5762 O   0  0  0  0  0  0  0  0  0  0  0  0
   -1.4635   -0.0488    0.2637 N   0  0  0  0  0  0  0  0  0  0  0  0
   -2.2122    0.1348   -0.3956 H   0  0  0  0  0  0  0  0  0  0  0  0
   -0.2508    0.7892    0.1585 C   0  0  1  0  0  0  0  0  0  0  0  0
    0.6471    0.1852    0.3355 H   0  0  0  0  0  0  0  0  0  0  0  0
   -0.1757    1.3521   -1.2725 C   0  0  0  0  0  0  0  0  0  0  0  0
   -1.0768    1.9315   -1.4925 H   0  0  0  0  0  0  0  0  0  0  0  0
    0.6820    2.0266   -1.3618 H   0  0  0  0  0  0  0  0  0  0  0  0
   -0.0077    0.2525   -2.2800 C   0  0  0  0  0  0  0  0  0  0  0  0
    1.1800   -0.4324   -2.4882 N   0  0  0  0  0  0  0  0  0  0  0  0
    0.9592   -1.2817   -3.4615 C   0  0  0  0  0  0  0  0  0  0  0  0
    1.6966   -1.9713   -3.8626 H   0  0  0  0  0  0  0  0  0  0  0  0
   -0.3460   -1.1622   -3.9024 N   0  0  0  0  0  0  0  0  0  0  0  0
   -0.7557   -1.6934   -4.6688 H   0  0  0  0  0  0  0  0  0  0  0  0
   -0.9630   -0.1757   -3.1611 C   0  0  0  0  0  0  0  0  0  0  0  0
   -1.9764    0.2011   -3.2579 H   0  0  0  0  0  0  0  0  0  0  0  0
   -0.2328    1.9392    1.1928 C   0  0  0  0  0  0  0  0  0  0  0  0
    0.6309    2.8061    1.1492 O   0  0  0  0  0  0  0  0  0  0  0  0
   -1.2807    2.0906    2.0841 N   0  0  0  0  0  0  0  0  0  0  0  0
   -1.8947    1.2871    2.1805 H   0  0  0  0  0  0  0  0  0  0  0  0
   -1.3095    3.1239    3.1118 C   0  0  0  0  0  0  0  0  0  0  0  0
   -1.2659    4.1186    2.6563 H   0  0  0  0  0  0  0  0  0  0  0  0
   -2.2331    3.0525    3.6939 H   0  0  0  0  0  0  0  0  0  0  0  0
   -0.4592    3.0107    3.7925 H   0  0  0  0  0  0  0  0  0  0  0  0
  1  2  1  0  0  0  0
  2  3  1  0  0  0  0
  2  4  1  0  0  0  0
  2  5  1  0  0  0  0
  5  6  2  0  0  0  0
  5  7  1  0  0  0  0
  7  8  1  0  0  0  0
  7  9  1  0  0  0  0
  9 10  1  0  0  0  0
  9 11  1  0  0  0  0
  9 22  1  0  0  0  0
 11 12  1  0  0  0  0
 11 13  1  0  0  0  0
 11 14  1  0  0  0  0
 14 15  1  0  0  0  0
 14 20  2  0  0  0  0
 15 16  2  0  0  0  0
 16 17  1  0  0  0  0
 16 18  1  0  0  0  0
 18 19  1  0  0  0  0
 18 20  1  0  0  0  0
 20 21  1  0  0  0  0
 22 23  2  0  0  0  0
 22 24  1  0  0  0  0
 24 25  1  0  0  0  0
 24 26  1  0  0  0  0
 26 27  1  0  0  0  0
 26 28  1  0  0  0  0
 26 29  1  0  0  0  0
M  END
$$$$

  -OEChem-01062216083D

 29 29  0     1  0  0  0  0  0999 V2000
   -2.4419   -3.1968    1.0358 H   0  0  0  0  0  0  0  0  0  0  0  0
   -2.6150   -2.2376    0.5393 C   0  0  0  0  0  0  0  0  0  0  0  0
   -3.5471   -1.8092    0.9153 H   0  0  0  0  0  0  0  0  0  0  0  0
   -2.7072   -2.4110   -0.5356 H   0  0  0  0  0  0  0  0  0  0  0  0
   -1.4597   -1.2934    0.8132 C   0  0  0  0  0  0  0  0  0  0  0  0
   -0.5704   -1.6228    1.5779 O   0  0  0  0  0  0  0  0  0  0  0  0
   -1.4619   -0.0295    0.2612 N   0  0  0  0  0  0  0  0  0  0  0  0
   -2.2218    0.1714   -0.3801 H   0  0  0  0  0  0  0  0  0  0  0  0
   -0.2467    0.8034    0.1504 C   0  0  1  0  0  0  0  0  0  0  0  0
    0.6488    0.1949    0.3241 H   0  0  0  0  0  0  0  0  0  0  0  0
   -0.1720    1.3587   -1.2847 C   0  0  0  0  0  0  0  0  0  0  0  0
   -1.0712    1.9402   -1.5061 H   0  0  0  0  0  0  0  0  0  0  0  0
    0.6879    2.0290   -1.3818 H   0  0  0  0  0  0  0  0  0  0  0  0
   -0.0093    0.2513   -2.2838 C   0  0  0  0  0  0  0  0  0  0  0  0
    1.1765   -0.4388   -2.4876 N   0  0  0  0  0  0  0  0  0  0  0  0
    0.9516   -1.2947   -3.4542 C   0  0  0  0  0  0  0  0  0  0  0  0
    1.6861   -1.9902   -3.8503 H   0  0  0  0  0  0  0  0  0  0  0  0
   -0.3534   -1.1743   -3.8953 N   0  0  0  0  0  0  0  0  0  0  0  0
   -0.7655   -1.7103   -4.6568 H   0  0  0  0  0  0  0  0  0  0  0  0
   -0.9667   -0.1805   -3.1607 C   0  0  0  0  0  0  0  0  0  0  0  0
   -1.9791    0.1985   -3.2581 H   0  0  0  0  0  0  0  0  0  0  0  0
   -0.2247    1.9439    1.1971 C   0  0  0  0  0  0  0  0  0  0  0  0
    0.4617    2.9445    1.0304 O   0  0  0  0  0  0  0  0  0  0  0  0
   -1.0887    1.9058    2.2770 N   0  0  0  0  0  0  0  0  0  0  0  0
   -1.5226    1.0041    2.4573 H   0  0  0  0  0  0  0  0  0  0  0  0
   -1.0907    2.9096    3.3338 C   0  0  0  0  0  0  0  0  0  0  0  0
   -1.3056    3.9006    2.9203 H   0  0  0  0  0  0  0  0  0  0  0  0
   -1.8577    2.6739    4.0777 H   0  0  0  0  0  0  0  0  0  0  0  0
   -0.1178    2.9400    3.8354 H   0  0  0  0  0  0  0  0  0  0  0  0
  1  2  1  0  0  0  0
  2  3  1  0  0  0  0
  2  4  1  0  0  0  0
  2  5  1  0  0  0  0
  5  6  2  0  0  0  0
  5  7  1  0  0  0  0
  7  8  1  0  0  0  0
  7  9  1  0  0  0  0
  9 10  1  0  0  0  0
  9 11  1  0  0  0  0
  9 22  1  0  0  0  0
 11 12  1  0  0  0  0
 11 13  1  0  0  0  0
 11 14  1  0  0  0  0
 14 15  1  0  0  0  0
 14 20  2  0  0  0  0
 15 16  2  0  0  0  0
 16 17  1  0  0  0  0
 16 18  1  0  0  0  0
 18 19  1  0  0  0  0
 18 20  1  0  0  0  0
 20 21  1  0  0  0  0
 22 23  2  0  0  0  0
 22 24  1  0  0  0  0
 24 25  1  0  0  0  0
 24 26  1  0  0  0  0
 26 27  1  0  0  0  0
 26 28  1  0  0  0  0
 26 29  1  0  0  0  0
M  END
$$$$

  -OEChem-01062216083D

 29 29  0     1  0  0  0  0  0999 V2000
   -2.4195   -3.1890    1.0039 H   0  0  0  0  0  0  0  0  0  0  0  0
   -2.6206   -2.2115    0.5560 C   0  0  0  0  0  0  0  0  0  0  0  0
   -3.5378   -1.8057    0.9896 H   0  0  0  0  0  0  0  0  0  0  0  0
   -2.7590   -2.3413   -0.5200 H   0  0  0  0  0  0  0  0  0  0  0  0
   -1.4607   -1.2704    0.8197 C   0  0  0  0  0  0  0  0  0  0  0  0
   -0.5791   -1.5885    1.5991 O   0  0  0  0  0  0  0  0  0  0  0  0
   -1.4575   -0.0084    0.2652 N   0  0  0  0  0  0  0  0  0  0  0  0
   -2.2224    0.1995   -0.3678 H   0  0  0  0  0  0  0  0  0  0  0  0
   -0.2369    0.8133    0.1419 C   0  0  1  0  0  0  0  0  0  0  0  0
    0.6547    0.1995    0.3161 H   0  0  0  0  0  0  0  0  0  0  0  0
   -0.1565    1.3610   -1.2960 C   0  0  0  0  0  0  0  0  0  0  0  0
   -1.0502    1.9501   -1.5203 H   0  0  0  0  0  0  0  0  0  0  0  0
    0.7102    2.0224   -1.3953 H   0  0  0  0  0  0  0  0  0  0  0  0
   -0.0043    0.2481   -2.2899 C   0  0  0  0  0  0  0  0  0  0  0  0
    1.1757   -0.4531   -2.4889 N   0  0  0  0  0  0  0  0  0  0  0  0
    0.9453   -1.3087   -3.4543 C   0  0  0  0  0  0  0  0  0  0  0  0
    1.6745   -2.0112   -3.8476 H   0  0  0  0  0  0  0  0  0  0  0  0
   -0.3577   -1.1777   -3.8985 N   0  0  0  0  0  0  0  0  0  0  0  0
   -0.7725   -1.7100   -4.6612 H   0  0  0  0  0  0  0  0  0  0  0  0
   -0.9636   -0.1765   -3.1679 C   0  0  0  0  0  0  0  0  0  0  0  0
   -1.9716    0.2131   -3.2696 H   0  0  0  0  0  0  0  0  0  0  0  0
   -0.2137    1.9480    1.1940 C   0  0  0  0  0  0  0  0  0  0  0  0
    0.2515    3.0530    0.9408 O   0  0  0  0  0  0  0  0  0  0  0  0
   -0.8385    1.7500    2.4118 N   0  0  0  0  0  0  0  0  0  0  0  0
   -1.0789    0.7841    2.6277 H   0  0  0  0  0  0  0  0  0  0  0  0
   -0.8211    2.7292    3.4906 C   0  0  0  0  0  0  0  0  0  0  0  0
   -1.2857    3.6660    3.1656 H   0  0  0  0  0  0  0  0  0  0  0  0
   -1.3779    2.3500    4.3527 H   0  0  0  0  0  0  0  0  0  0  0  0
    0.2076    2.9351    3.8045 H   0  0  0  0  0  0  0  0  0  0  0  0
  1  2  1  0  0  0  0
  2  3  1  0  0  0  0
  2  4  1  0  0  0  0
  2  5  1  0  0  0  0
  5  6  2  0  0  0  0
  5  7  1  0  0  0  0
  7  8  1  0  0  0  0
  7  9  1  0  0  0  0
  9 10  1  0  0  0  0
  9 11  1  0  0  0  0
  9 22  1  0  0  0  0
 11 12  1  0  0  0  0
 11 13  1  0  0  0  0
 11 14  1  0  0  0  0
 14 15  1  0  0  0  0
 14 20  2  0  0  0  0
 15 16  2  0  0  0  0
 16 17  1  0  0  0  0
 16 18  1  0  0  0  0
 18 19  1  0  0  0  0
 18 20  1  0  0  0  0
 20 21  1  0  0  0  0
 22 23  2  0  0  0  0
 22 24  1  0  0  0  0
 24 25  1  0  0  0  0
 24 26  1  0  0  0  0
 26 27  1  0  0  0  0
 26 28  1  0  0  0  0
 26 29  1  0  0  0  0
M  END
$$$$

  -OEChem-01062216083D

 29 29  0     1  0  0  0  0  0999 V2000
   -2.4215   -3.1566    1.0428 H   0  0  0  0  0  0  0  0  0  0  0  0
   -2.6157   -2.1851    0.5796 C   0  0  0  0  0  0  0  0  0  0  0  0
   -3.5306   -1.7673    1.0065 H   0  0  0  0  0  0  0  0  0  0  0  0
   -2.7538   -2.3308   -0.4945 H   0  0  0  0  0  0  0  0  0  0  0  0
   -1.4504   -1.2469    0.8293 C   0  0  0  0  0  0  0  0  0  0  0  0
   -0.5632   -1.5618    1.6052 O   0  0  0  0  0  0  0  0  0  0  0  0
   -1.4452    0.0123    0.2692 N   0  0  0  0  0  0  0  0  0  0  0  0
   -2.2177    0.2285   -0.3517 H   0  0  0  0  0  0  0  0  0  0  0  0
   -0.2201    0.8228    0.1342 C   0  0  1  0  0  0  0  0  0  0  0  0
    0.6696    0.2060    0.3066 H   0  0  0  0  0  0  0  0  0  0  0  0
   -0.1392    1.3656   -1.3052 C   0  0  0  0  0  0  0  0  0  0  0  0
   -1.0288    1.9609   -1.5297 H   0  0  0  0  0  0  0  0  0  0  0  0
    0.7317    2.0212   -1.4060 H   0  0  0  0  0  0  0  0  0  0  0  0
    0.0002    0.2487   -2.2968 C   0  0  0  0  0  0  0  0  0  0  0  0
    1.1744   -0.4626   -2.4966 N   0  0  0  0  0  0  0  0  0  0  0  0
    0.9345   -1.3190   -3.4594 C   0  0  0  0  0  0  0  0  0  0  0  0
    1.6575   -2.0272   -3.8542 H   0  0  0  0  0  0  0  0  0  0  0  0
   -0.3695   -1.1809   -3.8987 N   0  0  0  0  0  0  0  0  0  0  0  0
   -0.7913   -1.7140   -4.6573 H   0  0  0  0  0  0  0  0  0  0  0  0
   -0.9656   -0.1733   -3.1690 C   0  0  0  0  0  0  0  0  0  0  0  0
   -1.9719    0.2218   -3.2668 H   0  0  0  0  0  0  0  0  0  0  0  0
   -0.1992    1.9526    1.1882 C   0  0  0  0  0  0  0  0  0  0  0  0
    0.0286    3.1194    0.8898 O   0  0  0  0  0  0  0  0  0  0  0  0
   -0.5408    1.6423    2.4913 N   0  0  0  0  0  0  0  0  0  0  0  0
   -0.6337    0.6485    2.7023 H   0  0  0  0  0  0  0  0  0  0  0  0
   -0.5123    2.6027    3.5859 C   0  0  0  0  0  0  0  0  0  0  0  0
   -1.1932    3.4357    3.3824 H   0  0  0  0  0  0  0  0  0  0  0  0
   -0.8242    2.1214    4.5178 H   0  0  0  0  0  0  0  0  0  0  0  0
    0.4995    2.9986    3.7209 H   0  0  0  0  0  0  0  0  0  0  0  0
  1  2  1  0  0  0  0
  2  3  1  0  0  0  0
  2  4  1  0  0  0  0
  2  5  1  0  0  0  0
  5  6  2  0  0  0  0
  5  7  1  0  0  0  0
  7  8  1  0  0  0  0
  7  9  1  0  0  0  0
  9 10  1  0  0  0  0
  9 11  1  0  0  0  0
  9 22  1  0  0  0  0
 11 12  1  0  0  0  0
 11 13  1  0  0  0  0
 11 14  1  0  0  0  0
 14 15  1  0  0  0  0
 14 20  2  0  0  0  0
 15 16  2  0  0  0  0
 16 17  1  0  0  0  0
 16 18  1  0  0  0  0
 18 19  1  0  0  0  0
 18 20  1  0  0  0  0
 20 21  1  0  0  0  0
 22 23  2  0  0  0  0
 22 24  1  0  0  0  0
 24 25  1  0  0  0  0
 24 26  1  0  0  0  0
 26 27  1  0  0  0  0
 26 28  1  0  0  0  0
 26 29  1  0  0  0  0
M  END
$$$$

  -OEChem-01062216083D

 29 29  0     1  0  0  0  0  0999 V2000
   -2.4386   -3.1221    1.1049 H   0  0  0  0  0  0  0  0  0  0  0  0
   -2.6241   -2.1528    0.6336 C   0  0  0  0  0  0  0  0  0  0  0  0
   -3.5123   -1.7049    1.0856 H   0  0  0  0  0  0  0  0  0  0  0  0
   -2.8039   -2.3101   -0.4324 H   0  0  0  0  0  0  0  0  0  0  0  0
   -1.4272   -1.2414    0.8279 C   0  0  0  0  0  0  0  0  0  0  0  0
   -0.5090   -1.5803    1.5572 O   0  0  0  0  0  0  0  0  0  0  0  0
   -1.4201    0.0173    0.2657 N   0  0  0  0  0  0  0  0  0  0  0  0
   -2.2161    0.2604   -0.3143 H   0  0  0  0  0  0  0  0  0  0  0  0
   -0.1958    0.8240    0.1210 C   0  0  1  0  0  0  0  0  0  0  0  0
    0.6962    0.2084    0.2862 H   0  0  0  0  0  0  0  0  0  0  0  0
   -0.1211    1.3701   -1.3166 C   0  0  0  0  0  0  0  0  0  0  0  0
   -1.0123    1.9653   -1.5353 H   0  0  0  0  0  0  0  0  0  0  0  0
    0.7488    2.0267   -1.4180 H   0  0  0  0  0  0  0  0  0  0  0  0
    0.0096    0.2546   -2.3100 C   0  0  0  0  0  0  0  0  0  0  0  0
    1.1823   -0.4578   -2.5144 N   0  0  0  0  0  0  0  0  0  0  0  0
    0.9357   -1.3168   -3.4732 C   0  0  0  0  0  0  0  0  0  0  0  0
    1.6558   -2.0270   -3.8696 H   0  0  0  0  0  0  0  0  0  0  0  0
   -0.3705   -1.1783   -3.9057 N   0  0  0  0  0  0  0  0  0  0  0  0
   -0.7977   -1.7142   -4.6590 H   0  0  0  0  0  0  0  0  0  0  0  0
   -0.9620   -0.1685   -3.1750 C   0  0  0  0  0  0  0  0  0  0  0  0
   -1.9691    0.2264   -3.2663 H   0  0  0  0  0  0  0  0  0  0  0  0
   -0.1770    1.9497    1.1755 C   0  0  0  0  0  0  0  0  0  0  0  0
   -0.2003    3.1361    0.8682 O   0  0  0  0  0  0  0  0  0  0  0  0
   -0.2036    1.5894    2.5091 N   0  0  0  0  0  0  0  0  0  0  0  0
   -0.1838    0.5888    2.7094 H   0  0  0  0  0  0  0  0  0  0  0  0
   -0.1948    2.5422    3.6102 C   0  0  0  0  0  0  0  0  0  0  0  0
   -1.0629    3.2065    3.5484 H   0  0  0  0  0  0  0  0  0  0  0  0
   -0.2316    2.0128    4.5670 H   0  0  0  0  0  0  0  0  0  0  0  0
    0.7165    3.1485    3.5845 H   0  0  0  0  0  0  0  0  0  0  0  0
  1  2  1  0  0  0  0
  2  3  1  0  0  0  0
  2  4  1  0  0  0  0
  2  5  1  0  0  0  0
  5  6  2  0  0  0  0
  5  7  1  0  0  0  0
  7  8  1  0  0  0  0
  7  9  1  0  0  0  0
  9 10  1  0  0  0  0
  9 11  1  0  0  0  0
  9 22  1  0  0  0  0
 11 12  1  0  0  0  0
 11 13  1  0  0  0  0
 11 14  1  0  0  0  0
 14 15  1  0  0  0  0
 14 20  2  0  0  0  0
 15 16  2  0  0  0  0
 16 17  1  0  0  0  0
 16 18  1  0  0  0  0
 18 19  1  0  0  0  0
 18 20  1  0  0  0  0
 20 21  1  0  0  0  0
 22 23  2  0  0  0  0
 22 24  1  0  0  0  0
 24 25  1  0  0  0  0
 24 26  1  0  0  0  0
 26 27  1  0  0  0  0
 26 28  1  0  0  0  0
 26 29  1  0  0  0  0
M  END
$$$$

  -OEChem-01062216083D

 29 29  0     1  0  0  0  0  0999 V2000
   -2.4607   -3.0913    1.1674 H   0  0  0  0  0  0  0  0  0  0  0  0
   -2.6397   -2.1213    0.6948 C   0  0  0  0  0  0  0  0  0  0  0  0
   -3.4895   -1.6409    1.1855 H   0  0  0  0  0  0  0  0  0  0  0  0
   -2.8779   -2.2830   -0.3592 H   0  0  0  0  0  0  0  0  0  0  0  0
   -1.4070   -1.2465    0.8194 C   0  0  0  0  0  0  0  0  0  0  0  0
   -0.4540   -1.6221    1.4835 O   0  0  0  0  0  0  0  0  0  0  0  0
   -1.3968    0.0121    0.2569 N   0  0  0  0  0  0  0  0  0  0  0  0
   -2.2260    0.2994   -0.2526 H   0  0  0  0  0  0  0  0  0  0  0  0
   -0.1754    0.8193    0.1069 C   0  0  1  0  0  0  0  0  0  0  0  0
    0.7189    0.2054    0.2651 H   0  0  0  0  0  0  0  0  0  0  0  0
   -0.1050    1.3702   -1.3286 C   0  0  0  0  0  0  0  0  0  0  0  0
   -0.9990    1.9628   -1.5441 H   0  0  0  0  0  0  0  0  0  0  0  0
    0.7623    2.0301   -1.4284 H   0  0  0  0  0  0  0  0  0  0  0  0
    0.0231    0.2581   -2.3262 C   0  0  0  0  0  0  0  0  0  0  0  0
    1.1960   -0.4528   -2.5358 N   0  0  0  0  0  0  0  0  0  0  0  0
    0.9455   -1.3118   -3.4937 C   0  0  0  0  0  0  0  0  0  0  0  0
    1.6633   -2.0233   -3.8918 H   0  0  0  0  0  0  0  0  0  0  0  0
   -0.3615   -1.1720   -3.9232 N   0  0  0  0  0  0  0  0  0  0  0  0
   -0.7918   -1.7083   -4.6744 H   0  0  0  0  0  0  0  0  0  0  0  0
   -0.9507   -0.1637   -3.1890 C   0  0  0  0  0  0  0  0  0  0  0  0
   -1.9587    0.2299   -3.2743 H   0  0  0  0  0  0  0  0  0  0  0  0
   -0.1566    1.9444    1.1598 C   0  0  0  0  0  0  0  0  0  0  0  0
   -0.4400    3.1034    0.8776 O   0  0  0  0  0  0  0  0  0  0  0  0
    0.1364    1.6081    2.4673 N   0  0  0  0  0  0  0  0  0  0  0  0
    0.2746    0.6164    2.6618 H   0  0  0  0  0  0  0  0  0  0  0  0
    0.1211    2.5570    3.5720 C   0  0  0  0  0  0  0  0  0  0  0  0
   -0.8796    2.9831    3.6967 H   0  0  0  0  0  0  0  0  0  0  0  0
    0.4035    2.0561    4.5030 H   0  0  0  0  0  0  0  0  0  0  0  0
    0.8315    3.3698    3.3881 H   0  0  0  0  0  0  0  0  0  0  0  0
  1  2  1  0  0  0  0
  2  3  1  0  0  0  0
  2  4  1  0  0  0  0
  2  5  1  0  0  0  0
  5  6  2  0  0  0  0
  5  7  1  0  0  0  0
  7  8  1  0  0  0  0
  7  9  1  0  0  0  0
  9 10  1  0  0  0  0
  9 11  1  0  0  0  0
  9 22  1  0  0  0  0
 11 12  1  0  0  0  0
 11 13  1  0  0  0  0
 11 14  1  0  0  0  0
 14 15  1  0  0  0  0
 14 20  2  0  0  0  0
 15 16  2  0  0  0  0
 16 17  1  0  0  0  0
 16 18  1  0  0  0  0
 18 19  1  0  0  0  0
 18 20  1  0  0  0  0
 20 21  1  0  0  0  0
 22 23  2  0  0  0  0
 22 24  1  0  0  0  0
 24 25  1  0  0  0  0
 24 26  1  0  0  0  0
 26 27  1  0  0  0  0
 26 28  1  0  0  0  0
 26 29  1  0  0  0  0
M  END
$$$$

  -OEChem-01062216083D

 29 29  0     1  0  0  0  0  0999 V2000
   -2.5108   -3.0651    1.2404 H   0  0  0  0  0  0  0  0  0  0  0  0
   -2.6787   -2.0901    0.7745 C   0  0  0  0  0  0  0  0  0  0  0  0
   -3.4618   -1.5655    1.3272 H   0  0  0  0  0  0  0  0  0  0  0  0
   -3.0085   -2.2455   -0.2555 H   0  0  0  0  0  0  0  0  0  0  0  0
   -1.3981   -1.2770    0.7913 C   0  0  0  0  0  0  0  0  0  0  0  0
   -0.4059   -1.7139    1.3523 O   0  0  0  0  0  0  0  0  0  0  0  0
   -1.3802   -0.0158    0.2339 N   0  0  0  0  0  0  0  0  0  0  0  0
   -2.2515    0.3447   -0.1422 H   0  0  0  0  0  0  0  0  0  0  0  0
   -0.1659    0.8019    0.0904 C   0  0  1  0  0  0  0  0  0  0  0  0
    0.7322    0.1930    0.2450 H   0  0  0  0  0  0  0  0  0  0  0  0
   -0.0962    1.3660   -1.3394 C   0  0  0  0  0  0  0  0  0  0  0  0
   -0.9956    1.9513   -1.5527 H   0  0  0  0  0  0  0  0  0  0  0  0
    0.7650    2.0348   -1.4309 H   0  0  0  0  0  0  0  0  0  0  0  0
    0.0429    0.2647   -2.3469 C   0  0  0  0  0  0  0  0  0  0  0  0
    1.2228   -0.4340   -2.5591 N   0  0  0  0  0  0  0  0  0  0  0  0
    0.9797   -1.2906   -3.5210 C   0  0  0  0  0  0  0  0  0  0  0  0
    1.7035   -1.9947   -3.9213 H   0  0  0  0  0  0  0  0  0  0  0  0
   -0.3277   -1.1586   -3.9522 N   0  0  0  0  0  0  0  0  0  0  0  0
   -0.7548   -1.6985   -4.7025 H   0  0  0  0  0  0  0  0  0  0  0  0
   -0.9263   -0.1594   -3.2134 C   0  0  0  0  0  0  0  0  0  0  0  0
   -1.9386    0.2244   -3.2941 H   0  0  0  0  0  0  0  0  0  0  0  0
   -0.1540    1.9282    1.1412 C   0  0  0  0  0  0  0  0  0  0  0  0
   -0.6969    3.0059    0.9242 O   0  0  0  0  0  0  0  0  0  0  0  0
    0.4316    1.6900    2.3697 N   0  0  0  0  0  0  0  0  0  0  0  0
    0.7540    0.7395    2.5445 H   0  0  0  0  0  0  0  0  0  0  0  0
    0.4198    2.6476    3.4675 C   0  0  0  0  0  0  0  0  0  0  0  0
   -0.6057    2.8330    3.8029 H   0  0  0  0  0  0  0  0  0  0  0  0
    0.9978    2.2601    4.3120 H   0  0  0  0  0  0  0  0  0  0  0  0
    0.8657    3.5969    3.1524 H   0  0  0  0  0  0  0  0  0  0  0  0
  1  2  1  0  0  0  0
  2  3  1  0  0  0  0
  2  4  1  0  0  0  0
  2  5  1  0  0  0  0
  5  6  2  0  0  0  0
  5  7  1  0  0  0  0
  7  8  1  0  0  0  0
  7  9  1  0  0  0  0
  9 10  1  0  0  0  0
  9 11  1  0  0  0  0
  9 22  1  0  0  0  0
 11 12  1  0  0  0  0
 11 13  1  0  0  0  0
 11 14  1  0  0  0  0
 14 15  1  0  0  0  0
 14 20  2  0  0  0  0
 15 16  2  0  0  0  0
 16 17  1  0  0  0  0
 16 18  1  0  0  0  0
 18 19  1  0  0  0  0
 18 20  1  0  0  0  0
 20 21  1  0  0  0  0
 22 23  2  0  0  0  0
 22 24  1  0  0  0  0
 24 25  1  0  0  0  0
 24 26  1  0  0  0  0
 26 27  1  0  0  0  0
 26 28  1  0  0  0  0
 26 29  1  0  0  0  0
M  END
$$$$

  -OEChem-01062216083D

 29 29  0     1  0  0  0  0  0999 V2000
   -2.5374   -3.0362    1.3220 H   0  0  0  0  0  0  0  0  0  0  0  0
   -2.7027   -2.0564    0.8648 C   0  0  0  0  0  0  0  0  0  0  0  0
   -3.4068   -1.4937    1.4824 H   0  0  0  0  0  0  0  0  0  0  0  0
   -3.1327   -2.2006   -0.1292 H   0  0  0  0  0  0  0  0  0  0  0  0
   -1.3903   -1.3034    0.7564 C   0  0  0  0  0  0  0  0  0  0  0  0
   -0.3689   -1.7978    1.2054 O   0  0  0  0  0  0  0  0  0  0  0  0
   -1.3725   -0.0403    0.2024 N   0  0  0  0  0  0  0  0  0  0  0  0
   -2.2682    0.3861   -0.0155 H   0  0  0  0  0  0  0  0  0  0  0  0
   -0.1638    0.7873    0.0676 C   0  0  1  0  0  0  0  0  0  0  0  0
    0.7369    0.1826    0.2215 H   0  0  0  0  0  0  0  0  0  0  0  0
   -0.0923    1.3648   -1.3559 C   0  0  0  0  0  0  0  0  0  0  0  0
   -0.9962    1.9440   -1.5673 H   0  0  0  0  0  0  0  0  0  0  0  0
    0.7633    2.0417   -1.4393 H   0  0  0  0  0  0  0  0  0  0  0  0
    0.0585    0.2732   -2.3721 C   0  0  0  0  0  0  0  0  0  0  0  0
    1.2464   -0.4129   -2.5823 N   0  0  0  0  0  0  0  0  0  0  0  0
    1.0141   -1.2698   -3.5468 C   0  0  0  0  0  0  0  0  0  0  0  0
    1.7453   -1.9671   -3.9458 H   0  0  0  0  0  0  0  0  0  0  0  0
   -0.2924   -1.1481   -3.9836 N   0  0  0  0  0  0  0  0  0  0  0  0
   -0.7136   -1.6945   -4.7326 H   0  0  0  0  0  0  0  0  0  0  0  0
   -0.9033   -0.1572   -3.2434 C   0  0  0  0  0  0  0  0  0  0  0  0
   -1.9203    0.2137   -3.3229 H   0  0  0  0  0  0  0  0  0  0  0  0
   -0.1631    1.9134    1.1177 C   0  0  0  0  0  0  0  0  0  0  0  0
   -0.9317    2.8628    1.0110 O   0  0  0  0  0  0  0  0  0  0  0  0
    0.6678    1.8221    2.2183 N   0  0  0  0  0  0  0  0  0  0  0  0
    1.1920    0.9564    2.3266 H   0  0  0  0  0  0  0  0  0  0  0  0
    0.6660    2.7864    3.3106 C   0  0  0  0  0  0  0  0  0  0  0  0
   -0.3149    2.8143    3.7962 H   0  0  0  0  0  0  0  0  0  0  0  0
    1.4153    2.5098    4.0585 H   0  0  0  0  0  0  0  0  0  0  0  0
    0.9046    3.7880    2.9377 H   0  0  0  0  0  0  0  0  0  0  0  0
  1  2  1  0  0  0  0
  2  3  1  0  0  0  0
  2  4  1  0  0  0  0
  2  5  1  0  0  0  0
  5  6  2  0  0  0  0
  5  7  1  0  0  0  0
  7  8  1  0  0  0  0
  7  9  1  0  0  0  0
  9 10  1  0  0  0  0
  9 11  1  0  0  0  0
  9 22  1  0  0  0  0
 11 12  1  0  0  0  0
 11 13  1  0  0  0  0
 11 14  1  0  0  0  0
 14 15  1  0  0  0  0
 14 20  2  0  0  0  0
 15 16  2  0  0  0  0
 16 17  1  0  0  0  0
 16 18  1  0  0  0  0
 18 19  1  0  0  0  0
 18 20  1  0  0  0  0
 20 21  1  0  0  0  0
 22 23  2  0  0  0  0
 22 24  1  0  0  0  0
 24 25  1  0  0  0  0
 24 26  1  0  0  0  0
 26 27  1  0  0  0  0
 26 28  1  0  0  0  0
 26 29  1  0  0  0  0
M  END
$$$$

  -OEChem-01062216083D

 29 29  0     1  0  0  0  0  0999 V2000
   -2.5596   -3.0187    1.3795 H   0  0  0  0  0  0  0  0  0  0  0  0
   -2.7208   -2.0358    0.9278 C   0  0  0  0  0  0  0  0  0  0  0  0
   -3.3669   -1.4482    1.5843 H   0  0  0  0  0  0  0  0  0  0  0  0
   -3.2157   -2.1690   -0.0370 H   0  0  0  0  0  0  0  0  0  0  0  0
   -1.3943   -1.3255    0.7355 C   0  0  0  0  0  0  0  0  0  0  0  0
   -0.3636   -1.8561    1.1162 O   0  0  0  0  0  0  0  0  0  0  0  0
   -1.3747   -0.0632    0.1793 N   0  0  0  0  0  0  0  0  0  0  0  0
   -2.2721    0.3999    0.0659 H   0  0  0  0  0  0  0  0  0  0  0  0
   -0.1664    0.7676    0.0561 C   0  0  1  0  0  0  0  0  0  0  0  0
    0.7335    0.1635    0.2165 H   0  0  0  0  0  0  0  0  0  0  0  0
   -0.0870    1.3573   -1.3606 C   0  0  0  0  0  0  0  0  0  0  0  0
   -0.9907    1.9373   -1.5706 H   0  0  0  0  0  0  0  0  0  0  0  0
    0.7684    2.0356   -1.4332 H   0  0  0  0  0  0  0  0  0  0  0  0
    0.0712    0.2765   -2.3866 C   0  0  0  0  0  0  0  0  0  0  0  0
    1.2626   -0.4042   -2.5947 N   0  0  0  0  0  0  0  0  0  0  0  0
    1.0377   -1.2543   -3.5669 C   0  0  0  0  0  0  0  0  0  0  0  0
    1.7730   -1.9471   -3.9664 H   0  0  0  0  0  0  0  0  0  0  0  0
   -0.2662   -1.1318   -4.0112 N   0  0  0  0  0  0  0  0  0  0  0  0
   -0.6823   -1.6751   -4.7651 H   0  0  0  0  0  0  0  0  0  0  0  0
   -0.8844   -0.1488   -3.2670 C   0  0  0  0  0  0  0  0  0  0  0  0
   -1.9026    0.2187   -3.3474 H   0  0  0  0  0  0  0  0  0  0  0  0
   -0.1751    1.8977    1.1012 C   0  0  0  0  0  0  0  0  0  0  0  0
   -1.1016    2.7011    1.1245 O   0  0  0  0  0  0  0  0  0  0  0  0
    0.8377    1.9891    2.0371 N   0  0  0  0  0  0  0  0  0  0  0  0
    1.5306    1.2443    2.0440 H   0  0  0  0  0  0  0  0  0  0  0  0
    0.8571    2.9811    3.1042 C   0  0  0  0  0  0  0  0  0  0  0  0
   -0.0034    2.8465    3.7679 H   0  0  0  0  0  0  0  0  0  0  0  0
    1.7715    2.8805    3.6966 H   0  0  0  0  0  0  0  0  0  0  0  0
    0.8268    3.9931    2.6871 H   0  0  0  0  0  0  0  0  0  0  0  0
  1  2  1  0  0  0  0
  2  3  1  0  0  0  0
  2  4  1  0  0  0  0
  2  5  1  0  0  0  0
  5  6  2  0  0  0  0
  5  7  1  0  0  0  0
  7  8  1  0  0  0  0
  7  9  1  0  0  0  0
  9 10  1  0  0  0  0
  9 11  1  0  0  0  0
  9 22  1  0  0  0  0
 11 12  1  0  0  0  0
 11 13  1  0  0  0  0
 11 14  1  0  0  0  0
 14 15  1  0  0  0  0
 14 20  2  0  0  0  0
 15 16  2  0  0  0  0
 16 17  1  0  0  0  0
 16 18  1  0  0  0  0
 18 19  1  0  0  0  0
 18 20  1  0  0  0  0
 20 21  1  0  0  0  0
 22 23  2  0  0  0  0
 22 24  1  0  0  0  0
 24 25  1  0  0  0  0
 24 26  1  0  0  0  0
 26 27  1  0  0  0  0
 26 28  1  0  0  0  0
 26 29  1  0  0  0  0
M  END
$$$$

  -OEChem-01062216083D

 29 29  0     1  0  0  0  0  0999 V2000
   -2.5671   -3.0117    1.4105 H   0  0  0  0  0  0  0  0  0  0  0  0
   -2.7281   -2.0255    0.9660 C   0  0  0  0  0  0  0  0  0  0  0  0
   -3.3341   -1.4258    1.6495 H   0  0  0  0  0  0  0  0  0  0  0  0
   -3.2665   -2.1480    0.0233 H   0  0  0  0  0  0  0  0  0  0  0  0
   -1.3975   -1.3404    0.7165 C   0  0  0  0  0  0  0  0  0  0  0  0
   -0.3618   -1.8968    1.0429 O   0  0  0  0  0  0  0  0  0  0  0  0
   -1.3804   -0.0781    0.1600 N   0  0  0  0  0  0  0  0  0  0  0  0
   -2.2733    0.4066    0.1267 H   0  0  0  0  0  0  0  0  0  0  0  0
   -0.1733    0.7570    0.0494 C   0  0  1  0  0  0  0  0  0  0  0  0
    0.7264    0.1547    0.2169 H   0  0  0  0  0  0  0  0  0  0  0  0
   -0.0885    1.3551   -1.3628 C   0  0  0  0  0  0  0  0  0  0  0  0
   -0.9946    1.9315   -1.5725 H   0  0  0  0  0  0  0  0  0  0  0  0
    0.7642    2.0376   -1.4282 H   0  0  0  0  0  0  0  0  0  0  0  0
    0.0787    0.2818   -2.3951 C   0  0  0  0  0  0  0  0  0  0  0  0
    1.2739   -0.3930   -2.6012 N   0  0  0  0  0  0  0  0  0  0  0  0
    1.0551   -1.2419   -3.5762 C   0  0  0  0  0  0  0  0  0  0  0  0
    1.7936   -1.9318   -3.9748 H   0  0  0  0  0  0  0  0  0  0  0  0
   -0.2476   -1.1227   -4.0250 N   0  0  0  0  0  0  0  0  0  0  0  0
   -0.6613   -1.6699   -4.7774 H   0  0  0  0  0  0  0  0  0  0  0  0
   -0.8724   -0.1452   -3.2790 C   0  0  0  0  0  0  0  0  0  0  0  0
   -1.8932    0.2152   -3.3579 H   0  0  0  0  0  0  0  0  0  0  0  0
   -0.1922    1.8891    1.0924 C   0  0  0  0  0  0  0  0  0  0  0  0
   -1.2190    2.5379    1.2659 O   0  0  0  0  0  0  0  0  0  0  0  0
    0.9388    2.1807    1.8318 N   0  0  0  0  0  0  0  0  0  0  0  0
    1.7447    1.5724    1.7094 H   0  0  0  0  0  0  0  0  0  0  0  0
    0.9801    3.2082    2.8644 C   0  0  0  0  0  0  0  0  0  0  0  0
    0.2641    2.9799    3.6608 H   0  0  0  0  0  0  0  0  0  0  0  0
    1.9810    3.2617    3.3032 H   0  0  0  0  0  0  0  0  0  0  0  0
    0.7368    4.1881    2.4405 H   0  0  0  0  0  0  0  0  0  0  0  0
  1  2  1  0  0  0  0
  2  3  1  0  0  0  0
  2  4  1  0  0  0  0
  2  5  1  0  0  0  0
  5  6  2  0  0  0  0
  5  7  1  0  0  0  0
  7  8  1  0  0  0  0
  7  9  1  0  0  0  0
  9 10  1  0  0  0  0
  9 11  1  0  0  0  0
  9 22  1  0  0  0  0
 11 12  1  0  0  0  0
 11 13  1  0  0  0  0
 11 14  1  0  0  0  0
 14 15  1  0  0  0  0
 14 20  2  0  0  0  0
 15 16  2  0  0  0  0
 16 17  1  0  0  0  0
 16 18  1  0  0  0  0
 18 19  1  0  0  0  0
 18 20  1  0  0  0  0
 20 21  1  0  0  0  0
 22 23  2  0  0  0  0
 22 24  1  0  0  0  0
 24 25  1  0  0  0  0
 24 26  1  0  0  0  0
 26 27  1  0  0  0  0
 26 28  1  0  0  0  0
 26 29  1  0  0  0  0
M  END
$$$$

  -OEChem-01062216083D

 29 29  0     1  0  0  0  0  0999 V2000
   -2.5617   -3.0066    1.4275 H   0  0  0  0  0  0  0  0  0  0  0  0
   -2.7300   -2.0169    0.9939 C   0  0  0  0  0  0  0  0  0  0  0  0
   -3.3026   -1.4145    1.7033 H   0  0  0  0  0  0  0  0  0  0  0  0
   -3.3058   -2.1297    0.0724 H   0  0  0  0  0  0  0  0  0  0  0  0
   -1.4028   -1.3448    0.6964 C   0  0  0  0  0  0  0  0  0  0  0  0
   -0.3625   -1.9160    0.9796 O   0  0  0  0  0  0  0  0  0  0  0  0
   -1.3941   -0.0817    0.1410 N   0  0  0  0  0  0  0  0  0  0  0  0
   -2.2821    0.4131    0.1685 H   0  0  0  0  0  0  0  0  0  0  0  0
   -0.1879    0.7573    0.0427 C   0  0  1  0  0  0  0  0  0  0  0  0
    0.7124    0.1579    0.2176 H   0  0  0  0  0  0  0  0  0  0  0  0
   -0.0969    1.3579   -1.3679 C   0  0  0  0  0  0  0  0  0  0  0  0
   -1.0037    1.9317   -1.5817 H   0  0  0  0  0  0  0  0  0  0  0  0
    0.7541    2.0427   -1.4288 H   0  0  0  0  0  0  0  0  0  0  0  0
    0.0802    0.2862   -2.4004 C   0  0  0  0  0  0  0  0  0  0  0  0
    1.2805   -0.3821   -2.5977 N   0  0  0  0  0  0  0  0  0  0  0  0
    1.0715   -1.2348   -3.5716 C   0  0  0  0  0  0  0  0  0  0  0  0
    1.8154   -1.9230   -3.9627 H   0  0  0  0  0  0  0  0  0  0  0  0
   -0.2284   -1.1223   -4.0300 N   0  0  0  0  0  0  0  0  0  0  0  0
   -0.6350   -1.6750   -4.7821 H   0  0  0  0  0  0  0  0  0  0  0  0
   -0.8630   -0.1466   -3.2902 C   0  0  0  0  0  0  0  0  0  0  0  0
   -1.8856    0.2069   -3.3751 H   0  0  0  0  0  0  0  0  0  0  0  0
   -0.2117    1.8905    1.0853 C   0  0  0  0  0  0  0  0  0  0  0  0
   -1.2817    2.3863    1.4249 O   0  0  0  0  0  0  0  0  0  0  0  0
    0.9695    2.3871    1.6045 N   0  0  0  0  0  0  0  0  0  0  0  0
    1.8304    1.9156    1.3385 H   0  0  0  0  0  0  0  0  0  0  0  0
    1.0228    3.4393    2.6114 C   0  0  0  0  0  0  0  0  0  0  0  0
    0.5124    3.1202    3.5261 H   0  0  0  0  0  0  0  0  0  0  0  0
    2.0628    3.6729    2.8587 H   0  0  0  0  0  0  0  0  0  0  0  0
    0.5436    4.3507    2.2389 H   0  0  0  0  0  0  0  0  0  0  0  0
  1  2  1  0  0  0  0
  2  3  1  0  0  0  0
  2  4  1  0  0  0  0
  2  5  1  0  0  0  0
  5  6  2  0  0  0  0
  5  7  1  0  0  0  0
  7  8  1  0  0  0  0
  7  9  1  0  0  0  0
  9 10  1  0  0  0  0
  9 11  1  0  0  0  0
  9 22  1  0  0  0  0
 11 12  1  0  0  0  0
 11 13  1  0  0  0  0
 11 14  1  0  0  0  0
 14 15  1  0  0  0  0
 14 20  2  0  0  0  0
 15 16  2  0  0  0  0
 16 17  1  0  0  0  0
 16 18  1  0  0  0  0
 18 19  1  0  0  0  0
 18 20  1  0  0  0  0
 20 21  1  0  0  0  0
 22 23  2  0  0  0  0
 22 24  1  0  0  0  0
 24 25  1  0  0  0  0
 24 26  1  0  0  0  0
 26 27  1  0  0  0  0
 26 28  1  0  0  0  0
 26 29  1  0  0  0  0
M  END
$$$$

  -OEChem-01062216083D

 29 29  0     1  0  0  0  0  0999 V2000
   -2.5563   -3.0053    1.4340 H   0  0  0  0  0  0  0  0  0  0  0  0
   -2.7289   -2.0137    1.0064 C   0  0  0  0  0  0  0  0  0  0  0  0
   -3.2783   -1.4086    1.7319 H   0  0  0  0  0  0  0  0  0  0  0  0
   -3.3297   -2.1206    0.1003 H   0  0  0  0  0  0  0  0  0  0  0  0
   -1.4051   -1.3506    0.6753 C   0  0  0  0  0  0  0  0  0  0  0  0
   -0.3623   -1.9339    0.9222 O   0  0  0  0  0  0  0  0  0  0  0  0
   -1.4033   -0.0852    0.1248 N   0  0  0  0  0  0  0  0  0  0  0  0
   -2.2873    0.4125    0.1957 H   0  0  0  0  0  0  0  0  0  0  0  0
   -0.1982    0.7587    0.0410 C   0  0  1  0  0  0  0  0  0  0  0  0
    0.7042    0.1630    0.2200 H   0  0  0  0  0  0  0  0  0  0  0  0
   -0.1072    1.3607   -1.3700 C   0  0  0  0  0  0  0  0  0  0  0  0
   -1.0170    1.9287   -1.5856 H   0  0  0  0  0  0  0  0  0  0  0  0
    0.7396    2.0504   -1.4318 H   0  0  0  0  0  0  0  0  0  0  0  0
    0.0788    0.2910   -2.4028 C   0  0  0  0  0  0  0  0  0  0  0  0
    1.2843   -0.3687   -2.5964 N   0  0  0  0  0  0  0  0  0  0  0  0
    1.0824   -1.2265   -3.5672 C   0  0  0  0  0  0  0  0  0  0  0  0
    1.8318   -1.9107   -3.9547 H   0  0  0  0  0  0  0  0  0  0  0  0
   -0.2177   -1.1247   -4.0279 N   0  0  0  0  0  0  0  0  0  0  0  0
   -0.6208   -1.6859   -4.7757 H   0  0  0  0  0  0  0  0  0  0  0  0
   -0.8605   -0.1515   -3.2918 C   0  0  0  0  0  0  0  0  0  0  0  0
   -1.8866    0.1923   -3.3766 H   0  0  0  0  0  0  0  0  0  0  0  0
   -0.2264    1.8908    1.0868 C   0  0  0  0  0  0  0  0  0  0  0  0
   -1.2895    2.2327    1.5959 O   0  0  0  0  0  0  0  0  0  0  0  0
    0.9272    2.5932    1.3836 N   0  0  0  0  0  0  0  0  0  0  0  0
    1.7955    2.2584    0.9734 H   0  0  0  0  0  0  0  0  0  0  0  0
    0.9778    3.6766    2.3573 C   0  0  0  0  0  0  0  0  0  0  0  0
    0.6719    3.3178    3.3457 H   0  0  0  0  0  0  0  0  0  0  0  0
    1.9961    4.0701    2.4320 H   0  0  0  0  0  0  0  0  0  0  0  0
    0.3129    4.4934    2.0574 H   0  0  0  0  0  0  0  0  0  0  0  0
  1  2  1  0  0  0  0
  2  3  1  0  0  0  0
  2  4  1  0  0  0  0
  2  5  1  0  0  0  0
  5  6  2  0  0  0  0
  5  7  1  0  0  0  0
  7  8  1  0  0  0  0
  7  9  1  0  0  0  0
  9 10  1  0  0  0  0
  9 11  1  0  0  0  0
  9 22  1  0  0  0  0
 11 12  1  0  0  0  0
 11 13  1  0  0  0  0
 11 14  1  0  0  0  0
 14 15  1  0  0  0  0
 14 20  2  0  0  0  0
 15 16  2  0  0  0  0
 16 17  1  0  0  0  0
 16 18  1  0  0  0  0
 18 19  1  0  0  0  0
 18 20  1  0  0  0  0
 20 21  1  0  0  0  0
 22 23  2  0  0  0  0
 22 24  1  0  0  0  0
 24 25  1  0  0  0  0
 24 26  1  0  0  0  0
 26 27  1  0  0  0  0
 26 28  1  0  0  0  0
 26 29  1  0  0  0  0
M  END
$$$$

  -OEChem-01062216083D

 29 29  0     1  0  0  0  0  0999 V2000
   -2.4899   -3.0057    1.4743 H   0  0  0  0  0  0  0  0  0  0  0  0
   -2.6920   -2.0123    1.0642 C   0  0  0  0  0  0  0  0  0  0  0  0
   -3.1877   -1.4100    1.8295 H   0  0  0  0  0  0  0  0  0  0  0  0
   -3.3551   -2.1149    0.2023 H   0  0  0  0  0  0  0  0  0  0  0  0
   -1.3947   -1.3476    0.6444 C   0  0  0  0  0  0  0  0  0  0  0  0
   -0.3369   -1.9347    0.8068 O   0  0  0  0  0  0  0  0  0  0  0  0
   -1.4292   -0.0797    0.0993 N   0  0  0  0  0  0  0  0  0  0  0  0
   -2.3069    0.4099    0.2440 H   0  0  0  0  0  0  0  0  0  0  0  0
   -0.2238    0.7649    0.0216 C   0  0  1  0  0  0  0  0  0  0  0  0
    0.6734    0.1427   -0.0744 H   0  0  0  0  0  0  0  0  0  0  0  0
   -0.3307    1.6468   -1.2350 C   0  0  0  0  0  0  0  0  0  0  0  0
   -1.2473    2.2418   -1.1879 H   0  0  0  0  0  0  0  0  0  0  0  0
    0.5142    2.3392   -1.2867 H   0  0  0  0  0  0  0  0  0  0  0  0
   -0.3291    0.8148   -2.4821 C   0  0  0  0  0  0  0  0  0  0  0  0
    0.8174    0.2178   -2.9866 N   0  0  0  0  0  0  0  0  0  0  0  0
    0.4547   -0.4156   -4.0759 C   0  0  0  0  0  0  0  0  0  0  0  0
    1.1219   -0.9973   -4.7055 H   0  0  0  0  0  0  0  0  0  0  0  0
   -0.8956   -0.2267   -4.3069 N   0  0  0  0  0  0  0  0  0  0  0  0
   -1.4168   -0.6171   -5.0896 H   0  0  0  0  0  0  0  0  0  0  0  0
   -1.3988    0.5657   -3.2963 C   0  0  0  0  0  0  0  0  0  0  0  0
   -2.4167    0.9161   -3.1580 H   0  0  0  0  0  0  0  0  0  0  0  0
   -0.0503    1.6446    1.2807 C   0  0  0  0  0  0  0  0  0  0  0  0
   -0.9433    1.7091    2.1199 O   0  0  0  0  0  0  0  0  0  0  0  0
    1.0299    2.5029    1.3883 N   0  0  0  0  0  0  0  0  0  0  0  0
    1.7738    2.3999    0.7031 H   0  0  0  0  0  0  0  0  0  0  0  0
    1.2411    3.3868    2.5283 C   0  0  0  0  0  0  0  0  0  0  0  0
    1.3172    2.8073    3.4544 H   0  0  0  0  0  0  0  0  0  0  0  0
    2.1672    3.9551    2.3990 H   0  0  0  0  0  0  0  0  0  0  0  0
    0.4118    4.0955    2.6230 H   0  0  0  0  0  0  0  0  0  0  0  0
  1  2  1  0  0  0  0
  2  3  1  0  0  0  0
  2  4  1  0  0  0  0
  2  5  1  0  0  0  0
  5  6  2  0  0  0  0
  5  7  1  0  0  0  0
  7  8  1  0  0  0  0
  7  9  1  0  0  0  0
  9 10  1  0  0  0  0
  9 11  1  0  0  0  0
  9 22  1  0  0  0  0
 11 12  1  0  0  0  0
 11 13  1  0  0  0  0
 11 14  1  0  0  0  0
 14 15  1  0  0  0  0
 14 20  2  0  0  0  0
 15 16  2  0  0  0  0
 16 17  1  0  0  0  0
 16 18  1  0  0  0  0
 18 19  1  0  0  0  0
 18 20  1  0  0  0  0
 20 21  1  0  0  0  0
 22 23  2  0  0  0  0
 22 24  1  0  0  0  0
 24 25  1  0  0  0  0
 24 26  1  0  0  0  0
 26 27  1  0  0  0  0
 26 28  1  0  0  0  0
 26 29  1  0  0  0  0
M  END
$$$$

  -OEChem-01062216083D

 29 29  0     1  0  0  0  0  0999 V2000
   -2.4779   -2.9894    1.4868 H   0  0  0  0  0  0  0  0  0  0  0  0
   -2.6837   -1.9963    1.0782 C   0  0  0  0  0  0  0  0  0  0  0  0
   -3.1558   -1.3883    1.8538 H   0  0  0  0  0  0  0  0  0  0  0  0
   -3.3689   -2.0982    0.2335 H   0  0  0  0  0  0  0  0  0  0  0  0
   -1.3929   -1.3408    0.6247 C   0  0  0  0  0  0  0  0  0  0  0  0
   -0.3378   -1.9426    0.7453 O   0  0  0  0  0  0  0  0  0  0  0  0
   -1.4331   -0.0695    0.0867 N   0  0  0  0  0  0  0  0  0  0  0  0
   -2.3081    0.4175    0.2523 H   0  0  0  0  0  0  0  0  0  0  0  0
   -0.2269    0.7757    0.0136 C   0  0  1  0  0  0  0  0  0  0  0  0
    0.6725    0.1566   -0.0814 H   0  0  0  0  0  0  0  0  0  0  0  0
   -0.3384    1.6493   -1.2510 C   0  0  0  0  0  0  0  0  0  0  0  0
   -1.2561    2.2431   -1.2078 H   0  0  0  0  0  0  0  0  0  0  0  0
    0.5048    2.3417   -1.3146 H   0  0  0  0  0  0  0  0  0  0  0  0
   -0.3330    0.8102   -2.4933 C   0  0  0  0  0  0  0  0  0  0  0  0
    0.8164    0.2161   -2.9946 N   0  0  0  0  0  0  0  0  0  0  0  0
    0.4563   -0.4271   -4.0790 C   0  0  0  0  0  0  0  0  0  0  0  0
    1.1262   -1.0101   -4.7048 H   0  0  0  0  0  0  0  0  0  0  0  0
   -0.8951   -0.2459   -4.3105 N   0  0  0  0  0  0  0  0  0  0  0  0
   -1.4152   -0.6451   -5.0895 H   0  0  0  0  0  0  0  0  0  0  0  0
   -1.4018    0.5510   -3.3052 C   0  0  0  0  0  0  0  0  0  0  0  0
   -2.4214    0.8971   -3.1682 H   0  0  0  0  0  0  0  0  0  0  0  0
   -0.0544    1.6483    1.2815 C   0  0  0  0  0  0  0  0  0  0  0  0
   -0.8228    1.5240    2.2299 O   0  0  0  0  0  0  0  0  0  0  0  0
    0.8252    2.7177    1.2870 N   0  0  0  0  0  0  0  0  0  0  0  0
    1.4839    2.7788    0.5154 H   0  0  0  0  0  0  0  0  0  0  0  0
    1.0004    3.6067    2.4292 C   0  0  0  0  0  0  0  0  0  0  0  0
    1.3203    3.0398    3.3098 H   0  0  0  0  0  0  0  0  0  0  0  0
    1.7613    4.3611    2.2073 H   0  0  0  0  0  0  0  0  0  0  0  0
    0.0622    4.1209    2.6623 H   0  0  0  0  0  0  0  0  0  0  0  0
  1  2  1  0  0  0  0
  2  3  1  0  0  0  0
  2  4  1  0  0  0  0
  2  5  1  0  0  0  0
  5  6  2  0  0  0  0
  5  7  1  0  0  0  0
  7  8  1  0  0  0  0
  7  9  1  0  0  0  0
  9 10  1  0  0  0  0
  9 11  1  0  0  0  0
  9 22  1  0  0  0  0
 11 12  1  0  0  0  0
 11 13  1  0  0  0  0
 11 14  1  0  0  0  0
 14 15  1  0  0  0  0
 14 20  2  0  0  0  0
 15 16  2  0  0  0  0
 16 17  1  0  0  0  0
 16 18  1  0  0  0  0
 18 19  1  0  0  0  0
 18 20  1  0  0  0  0
 20 21  1  0  0  0  0
 22 23  2  0  0  0  0
 22 24  1  0  0  0  0
 24 25  1  0  0  0  0
 24 26  1  0  0  0  0
 26 27  1  0  0  0  0
 26 28  1  0  0  0  0
 26 29  1  0  0  0  0
M  END
$$$$

  -OEChem-01062216083D

 29 29  0     1  0  0  0  0  0999 V2000
   -2.4649   -2.9717    1.4999 H   0  0  0  0  0  0  0  0  0  0  0  0
   -2.6756   -1.9794    1.0914 C   0  0  0  0  0  0  0  0  0  0  0  0
   -3.1306   -1.3674    1.8740 H   0  0  0  0  0  0  0  0  0  0  0  0
   -3.3771   -2.0814    0.2604 H   0  0  0  0  0  0  0  0  0  0  0  0
   -1.3920   -1.3297    0.6102 C   0  0  0  0  0  0  0  0  0  0  0  0
   -0.3406   -1.9444    0.6904 O   0  0  0  0  0  0  0  0  0  0  0  0
   -1.4379   -0.0557    0.0775 N   0  0  0  0  0  0  0  0  0  0  0  0
   -2.3143    0.4271    0.2466 H   0  0  0  0  0  0  0  0  0  0  0  0
   -0.2323    0.7912    0.0026 C   0  0  1  0  0  0  0  0  0  0  0  0
    0.6684    0.1734   -0.0904 H   0  0  0  0  0  0  0  0  0  0  0  0
   -0.3446    1.6533   -1.2712 C   0  0  0  0  0  0  0  0  0  0  0  0
   -1.2628    2.2466   -1.2353 H   0  0  0  0  0  0  0  0  0  0  0  0
    0.4997    2.3438   -1.3429 H   0  0  0  0  0  0  0  0  0  0  0  0
   -0.3347    0.8031   -2.5060 C   0  0  0  0  0  0  0  0  0  0  0  0
    0.8163    0.2076   -3.0013 N   0  0  0  0  0  0  0  0  0  0  0  0
    0.4587   -0.4465   -4.0800 C   0  0  0  0  0  0  0  0  0  0  0  0
    1.1299   -1.0332   -4.7007 H   0  0  0  0  0  0  0  0  0  0  0  0
   -0.8929   -0.2706   -4.3140 N   0  0  0  0  0  0  0  0  0  0  0  0
   -1.4112   -0.6781   -5.0900 H   0  0  0  0  0  0  0  0  0  0  0  0
   -1.4026    0.5329   -3.3156 C   0  0  0  0  0  0  0  0  0  0  0  0
   -2.4238    0.8753   -3.1815 H   0  0  0  0  0  0  0  0  0  0  0  0
   -0.0604    1.6570    1.2782 C   0  0  0  0  0  0  0  0  0  0  0  0
   -0.6487    1.3586    2.3120 O   0  0  0  0  0  0  0  0  0  0  0  0
    0.5614    2.8939    1.2254 N   0  0  0  0  0  0  0  0  0  0  0  0
    1.0847    3.1129    0.3828 H   0  0  0  0  0  0  0  0  0  0  0  0
    0.7040    3.7695    2.3827 C   0  0  0  0  0  0  0  0  0  0  0  0
    1.2588    3.2638    3.1800 H   0  0  0  0  0  0  0  0  0  0  0  0
    1.2479    4.6774    2.1048 H   0  0  0  0  0  0  0  0  0  0  0  0
   -0.2793    4.0604    2.7671 H   0  0  0  0  0  0  0  0  0  0  0  0
  1  2  1  0  0  0  0
  2  3  1  0  0  0  0
  2  4  1  0  0  0  0
  2  5  1  0  0  0  0
  5  6  2  0  0  0  0
  5  7  1  0  0  0  0
  7  8  1  0  0  0  0
  7  9  1  0  0  0  0
  9 10  1  0  0  0  0
  9 11  1  0  0  0  0
  9 22  1  0  0  0  0
 11 12  1  0  0  0  0
 11 13  1  0  0  0  0
 11 14  1  0  0  0  0
 14 15  1  0  0  0  0
 14 20  2  0  0  0  0
 15 16  2  0  0  0  0
 16 17  1  0  0  0  0
 16 18  1  0  0  0  0
 18 19  1  0  0  0  0
 18 20  1  0  0  0  0
 20 21  1  0  0  0  0
 22 23  2  0  0  0  0
 22 24  1  0  0  0  0
 24 25  1  0  0  0  0
 24 26  1  0  0  0  0
 26 27  1  0  0  0  0
 26 28  1  0  0  0  0
 26 29  1  0  0  0  0
M  END
$$$$

  -OEChem-01062216083D

 29 29  0     1  0  0  0  0  0999 V2000
   -2.4625   -2.9662    1.4942 H   0  0  0  0  0  0  0  0  0  0  0  0
   -2.6750   -1.9727    1.0896 C   0  0  0  0  0  0  0  0  0  0  0  0
   -3.1256   -1.3631    1.8766 H   0  0  0  0  0  0  0  0  0  0  0  0
   -3.3807   -2.0721    0.2618 H   0  0  0  0  0  0  0  0  0  0  0  0
   -1.3934   -1.3226    0.6038 C   0  0  0  0  0  0  0  0  0  0  0  0
   -0.3457   -1.9455    0.6598 O   0  0  0  0  0  0  0  0  0  0  0  0
   -1.4420   -0.0455    0.0781 N   0  0  0  0  0  0  0  0  0  0  0  0
   -2.3225    0.4318    0.2373 H   0  0  0  0  0  0  0  0  0  0  0  0
   -0.2389    0.8041   -0.0029 C   0  0  1  0  0  0  0  0  0  0  0  0
    0.6619    0.1863   -0.0957 H   0  0  0  0  0  0  0  0  0  0  0  0
   -0.3491    1.6587   -1.2821 C   0  0  0  0  0  0  0  0  0  0  0  0
   -1.2676    2.2518   -1.2533 H   0  0  0  0  0  0  0  0  0  0  0  0
    0.4979    2.3460   -1.3536 H   0  0  0  0  0  0  0  0  0  0  0  0
   -0.3356    0.8015   -2.5122 C   0  0  0  0  0  0  0  0  0  0  0  0
    0.8173    0.2051   -3.0010 N   0  0  0  0  0  0  0  0  0  0  0  0
    0.4632   -0.4610   -4.0731 C   0  0  0  0  0  0  0  0  0  0  0  0
    1.1374   -1.0527   -4.6857 H   0  0  0  0  0  0  0  0  0  0  0  0
   -0.8885   -0.2908   -4.3108 N   0  0  0  0  0  0  0  0  0  0  0  0
   -1.4060   -0.7120   -5.0799 H   0  0  0  0  0  0  0  0  0  0  0  0
   -1.4018    0.5210   -3.3207 C   0  0  0  0  0  0  0  0  0  0  0  0
   -2.4247    0.8598   -3.1903 H   0  0  0  0  0  0  0  0  0  0  0  0
   -0.0619    1.6631    1.2772 C   0  0  0  0  0  0  0  0  0  0  0  0
   -0.4140    1.2257    2.3662 O   0  0  0  0  0  0  0  0  0  0  0  0
    0.2653    3.0080    1.2047 N   0  0  0  0  0  0  0  0  0  0  0  0
    0.5852    3.3606    0.3079 H   0  0  0  0  0  0  0  0  0  0  0  0
    0.3760    3.8723    2.3743 C   0  0  0  0  0  0  0  0  0  0  0  0
    1.1317    3.4859    3.0663 H   0  0  0  0  0  0  0  0  0  0  0  0
    0.6683    4.8822    2.0712 H   0  0  0  0  0  0  0  0  0  0  0  0
   -0.5836    3.9338    2.8981 H   0  0  0  0  0  0  0  0  0  0  0  0
  1  2  1  0  0  0  0
  2  3  1  0  0  0  0
  2  4  1  0  0  0  0
  2  5  1  0  0  0  0
  5  6  2  0  0  0  0
  5  7  1  0  0  0  0
  7  8  1  0  0  0  0
  7  9  1  0  0  0  0
  9 10  1  0  0  0  0
  9 11  1  0  0  0  0
  9 22  1  0  0  0  0
 11 12  1  0  0  0  0
 11 13  1  0  0  0  0
 11 14  1  0  0  0  0
 14 15  1  0  0  0  0
 14 20  2  0  0  0  0
 15 16  2  0  0  0  0
 16 17  1  0  0  0  0
 16 18  1  0  0  0  0
 18 19  1  0  0  0  0
 18 20  1  0  0  0  0
 20 21  1  0  0  0  0
 22 23  2  0  0  0  0
 22 24  1  0  0  0  0
 24 25  1  0  0  0  0
 24 26  1  0  0  0  0
 26 27  1  0  0  0  0
 26 28  1  0  0  0  0
 26 29  1  0  0  0  0
M  END
$$$$

  -OEChem-01062216083D

 29 29  0     1  0  0  0  0  0999 V2000
   -2.4643   -2.9694    1.4957 H   0  0  0  0  0  0  0  0  0  0  0  0
   -2.6795   -1.9786    1.0857 C   0  0  0  0  0  0  0  0  0  0  0  0
   -3.1439   -1.3705    1.8658 H   0  0  0  0  0  0  0  0  0  0  0  0
   -3.3745   -2.0859    0.2498 H   0  0  0  0  0  0  0  0  0  0  0  0
   -1.3964   -1.3215    0.6129 C   0  0  0  0  0  0  0  0  0  0  0  0
   -0.3497   -1.9453    0.6659 O   0  0  0  0  0  0  0  0  0  0  0  0
   -1.4457   -0.0444    0.0864 N   0  0  0  0  0  0  0  0  0  0  0  0
   -2.3337    0.4266    0.2190 H   0  0  0  0  0  0  0  0  0  0  0  0
   -0.2459    0.8091    0.0002 C   0  0  1  0  0  0  0  0  0  0  0  0
    0.6561    0.1922   -0.0887 H   0  0  0  0  0  0  0  0  0  0  0  0
   -0.3499    1.6594   -1.2810 C   0  0  0  0  0  0  0  0  0  0  0  0
   -1.2697    2.2508   -1.2610 H   0  0  0  0  0  0  0  0  0  0  0  0
    0.4983    2.3472   -1.3437 H   0  0  0  0  0  0  0  0  0  0  0  0
   -0.3301    0.7995   -2.5095 C   0  0  0  0  0  0  0  0  0  0  0  0
    0.8223    0.2001   -2.9953 N   0  0  0  0  0  0  0  0  0  0  0  0
    0.4693   -0.4664   -4.0676 C   0  0  0  0  0  0  0  0  0  0  0  0
    1.1437   -1.0598   -4.6786 H   0  0  0  0  0  0  0  0  0  0  0  0
   -0.8816   -0.2939   -4.3082 N   0  0  0  0  0  0  0  0  0  0  0  0
   -1.3977   -0.7134   -5.0790 H   0  0  0  0  0  0  0  0  0  0  0  0
   -1.3950    0.5200   -3.3201 C   0  0  0  0  0  0  0  0  0  0  0  0
   -2.4172    0.8614   -3.1928 H   0  0  0  0  0  0  0  0  0  0  0  0
   -0.0706    1.6687    1.2784 C   0  0  0  0  0  0  0  0  0  0  0  0
   -0.1552    1.1520    2.3847 O   0  0  0  0  0  0  0  0  0  0  0  0
   -0.0563    3.0538    1.2187 N   0  0  0  0  0  0  0  0  0  0  0  0
    0.0389    3.4797    0.3022 H   0  0  0  0  0  0  0  0  0  0  0  0
    0.0348    3.9066    2.3983 C   0  0  0  0  0  0  0  0  0  0  0  0
    0.9522    3.6914    2.9564 H   0  0  0  0  0  0  0  0  0  0  0  0
    0.0479    4.9601    2.1032 H   0  0  0  0  0  0  0  0  0  0  0  0
   -0.8250    3.7438    3.0567 H   0  0  0  0  0  0  0  0  0  0  0  0
  1  2  1  0  0  0  0
  2  3  1  0  0  0  0
  2  4  1  0  0  0  0
  2  5  1  0  0  0  0
  5  6  2  0  0  0  0
  5  7  1  0  0  0  0
  7  8  1  0  0  0  0
  7  9  1  0  0  0  0
  9 10  1  0  0  0  0
  9 11  1  0  0  0  0
  9 22  1  0  0  0  0
 11 12  1  0  0  0  0
 11 13  1  0  0  0  0
 11 14  1  0  0  0  0
 14 15  1  0  0  0  0
 14 20  2  0  0  0  0
 15 16  2  0  0  0  0
 16 17  1  0  0  0  0
 16 18  1  0  0  0  0
 18 19  1  0  0  0  0
 18 20  1  0  0  0  0
 20 21  1  0  0  0  0
 22 23  2  0  0  0  0
 22 24  1  0  0  0  0
 24 25  1  0  0  0  0
 24 26  1  0  0  0  0
 26 27  1  0  0  0  0
 26 28  1  0  0  0  0
 26 29  1  0  0  0  0
M  END
$$$$

  -OEChem-01062216083D

 29 29  0     1  0  0  0  0  0999 V2000
   -2.4763   -2.9801    1.4833 H   0  0  0  0  0  0  0  0  0  0  0  0
   -2.6905   -1.9942    1.0613 C   0  0  0  0  0  0  0  0  0  0  0  0
   -3.1854   -1.3875    1.8233 H   0  0  0  0  0  0  0  0  0  0  0  0
   -3.3591   -2.1145    0.2059 H   0  0  0  0  0  0  0  0  0  0  0  0
   -1.4010   -1.3252    0.6237 C   0  0  0  0  0  0  0  0  0  0  0  0
   -0.3522   -1.9416    0.7014 O   0  0  0  0  0  0  0  0  0  0  0  0
   -1.4475   -0.0471    0.0996 N   0  0  0  0  0  0  0  0  0  0  0  0
   -2.3454    0.4146    0.1891 H   0  0  0  0  0  0  0  0  0  0  0  0
   -0.2532    0.8131    0.0091 C   0  0  1  0  0  0  0  0  0  0  0  0
    0.6499    0.1979   -0.0808 H   0  0  0  0  0  0  0  0  0  0  0  0
   -0.3577    1.6637   -1.2714 C   0  0  0  0  0  0  0  0  0  0  0  0
   -1.2816    2.2482   -1.2572 H   0  0  0  0  0  0  0  0  0  0  0  0
    0.4859    2.3585   -1.3261 H   0  0  0  0  0  0  0  0  0  0  0  0
   -0.3324    0.8027   -2.4991 C   0  0  0  0  0  0  0  0  0  0  0  0
    0.8233    0.2072   -2.9813 N   0  0  0  0  0  0  0  0  0  0  0  0
    0.4766   -0.4629   -4.0532 C   0  0  0  0  0  0  0  0  0  0  0  0
    1.1554   -1.0542   -4.6614 H   0  0  0  0  0  0  0  0  0  0  0  0
   -0.8746   -0.2969   -4.2969 N   0  0  0  0  0  0  0  0  0  0  0  0
   -1.3861   -0.7190   -5.0693 H   0  0  0  0  0  0  0  0  0  0  0  0
   -1.3943    0.5165   -3.3116 C   0  0  0  0  0  0  0  0  0  0  0  0
   -2.4186    0.8529   -3.1884 H   0  0  0  0  0  0  0  0  0  0  0  0
   -0.0757    1.6737    1.2836 C   0  0  0  0  0  0  0  0  0  0  0  0
    0.1439    1.1433    2.3631 O   0  0  0  0  0  0  0  0  0  0  0  0
   -0.3723    3.0279    1.2785 N   0  0  0  0  0  0  0  0  0  0  0  0
   -0.5260    3.4689    0.3775 H   0  0  0  0  0  0  0  0  0  0  0  0
   -0.2852    3.8709    2.4654 C   0  0  0  0  0  0  0  0  0  0  0  0
    0.7344    3.8659    2.8648 H   0  0  0  0  0  0  0  0  0  0  0  0
   -0.5554    4.9020    2.2182 H   0  0  0  0  0  0  0  0  0  0  0  0
   -0.9694    3.5116    3.2413 H   0  0  0  0  0  0  0  0  0  0  0  0
  1  2  1  0  0  0  0
  2  3  1  0  0  0  0
  2  4  1  0  0  0  0
  2  5  1  0  0  0  0
  5  6  2  0  0  0  0
  5  7  1  0  0  0  0
  7  8  1  0  0  0  0
  7  9  1  0  0  0  0
  9 10  1  0  0  0  0
  9 11  1  0  0  0  0
  9 22  1  0  0  0  0
 11 12  1  0  0  0  0
 11 13  1  0  0  0  0
 11 14  1  0  0  0  0
 14 15  1  0  0  0  0
 14 20  2  0  0  0  0
 15 16  2  0  0  0  0
 16 17  1  0  0  0  0
 16 18  1  0  0  0  0
 18 19  1  0  0  0  0
 18 20  1  0  0  0  0
 20 21  1  0  0  0  0
 22 23  2  0  0  0  0
 22 24  1  0  0  0  0
 24 25  1  0  0  0  0
 24 26  1  0  0  0  0
 26 27  1  0  0  0  0
 26 28  1  0  0  0  0
 26 29  1  0  0  0  0
M  END
$$$$

  -OEChem-01062216083D

 29 29  0     1  0  0  0  0  0999 V2000
   -2.5027   -3.0188    1.4370 H   0  0  0  0  0  0  0  0  0  0  0  0
   -2.7088   -2.0347    1.0065 C   0  0  0  0  0  0  0  0  0  0  0  0
   -3.2648   -1.4425    1.7372 H   0  0  0  0  0  0  0  0  0  0  0  0
   -3.3170   -2.1639    0.1084 H   0  0  0  0  0  0  0  0  0  0  0  0
   -1.4078   -1.3373    0.6555 C   0  0  0  0  0  0  0  0  0  0  0  0
   -0.3535   -1.9274    0.8115 O   0  0  0  0  0  0  0  0  0  0  0  0
   -1.4475   -0.0608    0.1276 N   0  0  0  0  0  0  0  0  0  0  0  0
   -2.3584    0.3834    0.1348 H   0  0  0  0  0  0  0  0  0  0  0  0
   -0.2592    0.8073    0.0332 C   0  0  1  0  0  0  0  0  0  0  0  0
    0.6466    0.1950   -0.0564 H   0  0  0  0  0  0  0  0  0  0  0  0
   -0.3654    1.6600   -1.2452 C   0  0  0  0  0  0  0  0  0  0  0  0
   -1.2904    2.2421   -1.2335 H   0  0  0  0  0  0  0  0  0  0  0  0
    0.4755    2.3590   -1.2930 H   0  0  0  0  0  0  0  0  0  0  0  0
   -0.3357    0.8030   -2.4763 C   0  0  0  0  0  0  0  0  0  0  0  0
    0.8204    0.2120   -2.9622 N   0  0  0  0  0  0  0  0  0  0  0  0
    0.4763   -0.4510   -4.0391 C   0  0  0  0  0  0  0  0  0  0  0  0
    1.1568   -1.0357   -4.6517 H   0  0  0  0  0  0  0  0  0  0  0  0
   -0.8753   -0.2872   -4.2816 N   0  0  0  0  0  0  0  0  0  0  0  0
   -1.3850   -0.7021   -5.0595 H   0  0  0  0  0  0  0  0  0  0  0  0
   -1.3969    0.5191   -3.2911 C   0  0  0  0  0  0  0  0  0  0  0  0
   -2.4215    0.8547   -3.1681 H   0  0  0  0  0  0  0  0  0  0  0  0
   -0.0852    1.6761    1.3010 C   0  0  0  0  0  0  0  0  0  0  0  0
    0.4641    1.2288    2.2967 O   0  0  0  0  0  0  0  0  0  0  0  0
   -0.6694    2.9305    1.3859 N   0  0  0  0  0  0  0  0  0  0  0  0
   -1.0814    3.3130    0.5417 H   0  0  0  0  0  0  0  0  0  0  0  0
   -0.5585    3.7855    2.5626 C   0  0  0  0  0  0  0  0  0  0  0  0
    0.4911    4.0208    2.7680 H   0  0  0  0  0  0  0  0  0  0  0  0
   -1.0987    4.7233    2.4017 H   0  0  0  0  0  0  0  0  0  0  0  0
   -0.9858    3.2881    3.4397 H   0  0  0  0  0  0  0  0  0  0  0  0
  1  2  1  0  0  0  0
  2  3  1  0  0  0  0
  2  4  1  0  0  0  0
  2  5  1  0  0  0  0
  5  6  2  0  0  0  0
  5  7  1  0  0  0  0
  7  8  1  0  0  0  0
  7  9  1  0  0  0  0
  9 10  1  0  0  0  0
  9 11  1  0  0  0  0
  9 22  1  0  0  0  0
 11 12  1  0  0  0  0
 11 13  1  0  0  0  0
 11 14  1  0  0  0  0
 14 15  1  0  0  0  0
 14 20  2  0  0  0  0
 15 16  2  0  0  0  0
 16 17  1  0  0  0  0
 16 18  1  0  0  0  0
 18 19  1  0  0  0  0
 18 20  1  0  0  0  0
 20 21  1  0  0  0  0
 22 23  2  0  0  0  0
 22 24  1  0  0  0  0
 24 25  1  0  0  0  0
 24 26  1  0  0  0  0
 26 27  1  0  0  0  0
 26 28  1  0  0  0  0
 26 29  1  0  0  0  0
M  END
$$$$

  -OEChem-01062216083D

 29 29  0     1  0  0  0  0  0999 V2000
   -2.5326   -3.0961    1.3283 H   0  0  0  0  0  0  0  0  0  0  0  0
   -2.7263   -2.1127    0.8904 C   0  0  0  0  0  0  0  0  0  0  0  0
   -3.3975   -1.5601    1.5521 H   0  0  0  0  0  0  0  0  0  0  0  0
   -3.2084   -2.2498   -0.0803 H   0  0  0  0  0  0  0  0  0  0  0  0
   -1.4240   -1.3531    0.7199 C   0  0  0  0  0  0  0  0  0  0  0  0
   -0.3772   -1.8806    1.0481 O   0  0  0  0  0  0  0  0  0  0  0  0
   -1.4483   -0.0799    0.1846 N   0  0  0  0  0  0  0  0  0  0  0  0
   -2.3617    0.3066   -0.0215 H   0  0  0  0  0  0  0  0  0  0  0  0
   -0.2645    0.7936    0.0781 C   0  0  1  0  0  0  0  0  0  0  0  0
    0.6392    0.1783   -0.0158 H   0  0  0  0  0  0  0  0  0  0  0  0
   -0.3744    1.6510   -1.1957 C   0  0  0  0  0  0  0  0  0  0  0  0
   -1.2956    2.2388   -1.1778 H   0  0  0  0  0  0  0  0  0  0  0  0
    0.4684    2.3478   -1.2419 H   0  0  0  0  0  0  0  0  0  0  0  0
   -0.3499    0.7984   -2.4299 C   0  0  0  0  0  0  0  0  0  0  0  0
    0.8020    0.2063   -2.9242 N   0  0  0  0  0  0  0  0  0  0  0  0
    0.4546   -0.4407   -4.0096 C   0  0  0  0  0  0  0  0  0  0  0  0
    1.1325   -1.0193   -4.6309 H   0  0  0  0  0  0  0  0  0  0  0  0
   -0.8968   -0.2687   -4.2476 N   0  0  0  0  0  0  0  0  0  0  0  0
   -1.4069   -0.6640   -5.0353 H   0  0  0  0  0  0  0  0  0  0  0  0
   -1.4130    0.5297   -3.2479 C   0  0  0  0  0  0  0  0  0  0  0  0
   -2.4341    0.8761   -3.1264 H   0  0  0  0  0  0  0  0  0  0  0  0
   -0.0802    1.6782    1.3320 C   0  0  0  0  0  0  0  0  0  0  0  0
    0.8034    1.4465    2.1439 O   0  0  0  0  0  0  0  0  0  0  0  0
   -0.9005    2.7755    1.5439 N   0  0  0  0  0  0  0  0  0  0  0  0
   -1.6022    2.9823    0.8422 H   0  0  0  0  0  0  0  0  0  0  0  0
   -0.7541    3.6747    2.6826 C   0  0  0  0  0  0  0  0  0  0  0  0
    0.2345    4.1458    2.6743 H   0  0  0  0  0  0  0  0  0  0  0  0
   -1.5130    4.4620    2.6444 H   0  0  0  0  0  0  0  0  0  0  0  0
   -0.8737    3.1251    3.6222 H   0  0  0  0  0  0  0  0  0  0  0  0
  1  2  1  0  0  0  0
  2  3  1  0  0  0  0
  2  4  1  0  0  0  0
  2  5  1  0  0  0  0
  5  6  2  0  0  0  0
  5  7  1  0  0  0  0
  7  8  1  0  0  0  0
  7  9  1  0  0  0  0
  9 10  1  0  0  0  0
  9 11  1  0  0  0  0
  9 22  1  0  0  0  0
 11 12  1  0  0  0  0
 11 13  1  0  0  0  0
 11 14  1  0  0  0  0
 14 15  1  0  0  0  0
 14 20  2  0  0  0  0
 15 16  2  0  0  0  0
 16 17  1  0  0  0  0
 16 18  1  0  0  0  0
 18 19  1  0  0  0  0
 18 20  1  0  0  0  0
 20 21  1  0  0  0  0
 22 23  2  0  0  0  0
 22 24  1  0  0  0  0
 24 25  1  0  0  0  0
 24 26  1  0  0  0  0
 26 27  1  0  0  0  0
 26 28  1  0  0  0  0
 26 29  1  0  0  0  0
M  END
$$$$

  -OEChem-01062216083D

 29 29  0     1  0  0  0  0  0999 V2000
   -2.4911   -3.1859    1.1491 H   0  0  0  0  0  0  0  0  0  0  0  0
   -2.6795   -2.2172    0.6770 C   0  0  0  0  0  0  0  0  0  0  0  0
   -3.5493   -1.7579    1.1522 H   0  0  0  0  0  0  0  0  0  0  0  0
   -2.8913   -2.3791   -0.3826 H   0  0  0  0  0  0  0  0  0  0  0  0
   -1.4678   -1.3175    0.8336 C   0  0  0  0  0  0  0  0  0  0  0  0
   -0.5034   -1.7109    1.4636 O   0  0  0  0  0  0  0  0  0  0  0  0
   -1.4781   -0.0591    0.2655 N   0  0  0  0  0  0  0  0  0  0  0  0
   -2.2564    0.1368   -0.3532 H   0  0  0  0  0  0  0  0  0  0  0  0
   -0.2708    0.7794    0.1453 C   0  0  1  0  0  0  0  0  0  0  0  0
    0.6148    0.1377    0.0562 H   0  0  0  0  0  0  0  0  0  0  0  0
   -0.3667    1.6353   -1.1289 C   0  0  0  0  0  0  0  0  0  0  0  0
   -1.2666    2.2556   -1.0993 H   0  0  0  0  0  0  0  0  0  0  0  0
    0.4978    2.3048   -1.1838 H   0  0  0  0  0  0  0  0  0  0  0  0
   -0.3797    0.7795   -2.3606 C   0  0  0  0  0  0  0  0  0  0  0  0
    0.7435    0.1475   -2.8703 N   0  0  0  0  0  0  0  0  0  0  0  0
    0.3646   -0.4734   -3.9602 C   0  0  0  0  0  0  0  0  0  0  0  0
    1.0164   -1.0674   -4.5947 H   0  0  0  0  0  0  0  0  0  0  0  0
   -0.9825   -0.2524   -4.1816 N   0  0  0  0  0  0  0  0  0  0  0  0
   -1.5114   -0.6113   -4.9747 H   0  0  0  0  0  0  0  0  0  0  0  0
   -1.4594    0.5570   -3.1709 C   0  0  0  0  0  0  0  0  0  0  0  0
   -2.4635    0.9496   -3.0452 H   0  0  0  0  0  0  0  0  0  0  0  0
   -0.0584    1.6888    1.3751 C   0  0  0  0  0  0  0  0  0  0  0  0
    1.0266    1.7367    1.9374 O   0  0  0  0  0  0  0  0  0  0  0  0
   -1.0265    2.6164    1.7235 N   0  0  0  0  0  0  0  0  0  0  0  0
   -1.9340    2.5235    1.2815 H   0  0  0  0  0  0  0  0  0  0  0  0
   -0.8747    3.5475    2.8348 C   0  0  0  0  0  0  0  0  0  0  0  0
   -0.0061    4.1954    2.6760 H   0  0  0  0  0  0  0  0  0  0  0  0
   -1.7636    4.1790    2.9233 H   0  0  0  0  0  0  0  0  0  0  0  0
   -0.7407    3.0024    3.7751 H   0  0  0  0  0  0  0  0  0  0  0  0
  1  2  1  0  0  0  0
  2  3  1  0  0  0  0
  2  4  1  0  0  0  0
  2  5  1  0  0  0  0
  5  6  2  0  0  0  0
  5  7  1  0  0  0  0
  7  8  1  0  0  0  0
  7  9  1  0  0  0  0
  9 10  1  0  0  0  0
  9 11  1  0  0  0  0
  9 22  1  0  0  0  0
 11 12  1  0  0  0  0
 11 13  1  0  0  0  0
 11 14  1  0  0  0  0
 14 15  1  0  0  0  0
 14 20  2  0  0  0  0
 15 16  2  0  0  0  0
 16 17  1  0  0  0  0
 16 18  1  0  0  0  0
 18 19  1  0  0  0  0
 18 20  1  0  0  0  0
 20 21  1  0  0  0  0
 22 23  2  0  0  0  0
 22 24  1  0  0  0  0
 24 25  1  0  0  0  0
 24 26  1  0  0  0  0
 26 27  1  0  0  0  0
 26 28  1  0  0  0  0
 26 29  1  0  0  0  0
M  END
$$$$

  -OEChem-01062216083D

 29 29  0     1  0  0  0  0  0999 V2000
   -2.4717   -3.2086    1.1129 H   0  0  0  0  0  0  0  0  0  0  0  0
   -2.6613   -2.2443    0.6327 C   0  0  0  0  0  0  0  0  0  0  0  0
   -3.5667   -1.8091    1.0620 H   0  0  0  0  0  0  0  0  0  0  0  0
   -2.8129   -2.4094   -0.4367 H   0  0  0  0  0  0  0  0  0  0  0  0
   -1.4841   -1.3129    0.8525 C   0  0  0  0  0  0  0  0  0  0  0  0
   -0.5556   -1.6673    1.5556 O   0  0  0  0  0  0  0  0  0  0  0  0
   -1.4889   -0.0597    0.2737 N   0  0  0  0  0  0  0  0  0  0  0  0
   -2.2208    0.0970   -0.4102 H   0  0  0  0  0  0  0  0  0  0  0  0
   -0.2677    0.7604    0.1590 C   0  0  1  0  0  0  0  0  0  0  0  0
    0.6102    0.1078    0.0733 H   0  0  0  0  0  0  0  0  0  0  0  0
   -0.3518    1.6237   -1.1096 C   0  0  0  0  0  0  0  0  0  0  0  0
   -1.2414    2.2583   -1.0718 H   0  0  0  0  0  0  0  0  0  0  0  0
    0.5229    2.2804   -1.1623 H   0  0  0  0  0  0  0  0  0  0  0  0
   -0.3796    0.7729   -2.3448 C   0  0  0  0  0  0  0  0  0  0  0  0
    0.7303    0.1234   -2.8618 N   0  0  0  0  0  0  0  0  0  0  0  0
    0.3382   -0.4791   -3.9575 C   0  0  0  0  0  0  0  0  0  0  0  0
    0.9778   -1.0781   -4.5996 H   0  0  0  0  0  0  0  0  0  0  0  0
   -1.0052   -0.2322   -4.1735 N   0  0  0  0  0  0  0  0  0  0  0  0
   -1.5402   -0.5681   -4.9725 H   0  0  0  0  0  0  0  0  0  0  0  0
   -1.4649    0.5768   -3.1548 C   0  0  0  0  0  0  0  0  0  0  0  0
   -2.4600    0.9909   -3.0257 H   0  0  0  0  0  0  0  0  0  0  0  0
   -0.0497    1.6737    1.3835 C   0  0  0  0  0  0  0  0  0  0  0  0
    1.0820    1.9482    1.7582 O   0  0  0  0  0  0  0  0  0  0  0  0
   -1.1147    2.3895    1.9038 N   0  0  0  0  0  0  0  0  0  0  0  0
   -2.0415    2.0771    1.6351 H   0  0  0  0  0  0  0  0  0  0  0  0
   -0.9803    3.3108    3.0256 C   0  0  0  0  0  0  0  0  0  0  0  0
   -0.2746    4.1117    2.7807 H   0  0  0  0  0  0  0  0  0  0  0  0
   -1.9476    3.7650    3.2602 H   0  0  0  0  0  0  0  0  0  0  0  0
   -0.6193    2.7822    3.9142 H   0  0  0  0  0  0  0  0  0  0  0  0
  1  2  1  0  0  0  0
  2  3  1  0  0  0  0
  2  4  1  0  0  0  0
  2  5  1  0  0  0  0
  5  6  2  0  0  0  0
  5  7  1  0  0  0  0
  7  8  1  0  0  0  0
  7  9  1  0  0  0  0
  9 10  1  0  0  0  0
  9 11  1  0  0  0  0
  9 22  1  0  0  0  0
 11 12  1  0  0  0  0
 11 13  1  0  0  0  0
 11 14  1  0  0  0  0
 14 15  1  0  0  0  0
 14 20  2  0  0  0  0
 15 16  2  0  0  0  0
 16 17  1  0  0  0  0
 16 18  1  0  0  0  0
 18 19  1  0  0  0  0
 18 20  1  0  0  0  0
 20 21  1  0  0  0  0
 22 23  2  0  0  0  0
 22 24  1  0  0  0  0
 24 25  1  0  0  0  0
 24 26  1  0  0  0  0
 26 27  1  0  0  0  0
 26 28  1  0  0  0  0
 26 29  1  0  0  0  0
M  END
$$$$

  -OEChem-01062216083D

 29 29  0     1  0  0  0  0  0999 V2000
   -2.4835   -3.1969    1.1305 H   0  0  0  0  0  0  0  0  0  0  0  0
   -2.6541   -2.2503    0.6097 C   0  0  0  0  0  0  0  0  0  0  0  0
   -3.5814   -1.8071    0.9803 H   0  0  0  0  0  0  0  0  0  0  0  0
   -2.7538   -2.4515   -0.4596 H   0  0  0  0  0  0  0  0  0  0  0  0
   -1.4924   -1.3057    0.8536 C   0  0  0  0  0  0  0  0  0  0  0  0
   -0.5842   -1.6381    1.5935 O   0  0  0  0  0  0  0  0  0  0  0  0
   -1.4939   -0.0548    0.2707 N   0  0  0  0  0  0  0  0  0  0  0  0
   -2.2104    0.0922   -0.4319 H   0  0  0  0  0  0  0  0  0  0  0  0
   -0.2666    0.7581    0.1587 C   0  0  1  0  0  0  0  0  0  0  0  0
    0.6085    0.1017    0.0753 H   0  0  0  0  0  0  0  0  0  0  0  0
   -0.3493    1.6188   -1.1126 C   0  0  0  0  0  0  0  0  0  0  0  0
   -1.2369    2.2565   -1.0729 H   0  0  0  0  0  0  0  0  0  0  0  0
    0.5272    2.2729   -1.1700 H   0  0  0  0  0  0  0  0  0  0  0  0
   -0.3819    0.7665   -2.3470 C   0  0  0  0  0  0  0  0  0  0  0  0
    0.7243    0.1117   -2.8657 N   0  0  0  0  0  0  0  0  0  0  0  0
    0.3294   -0.4857   -3.9632 C   0  0  0  0  0  0  0  0  0  0  0  0
    0.9660   -1.0855   -4.6076 H   0  0  0  0  0  0  0  0  0  0  0  0
   -1.0128   -0.2318   -4.1784 N   0  0  0  0  0  0  0  0  0  0  0  0
   -1.5487   -0.5601   -4.9800 H   0  0  0  0  0  0  0  0  0  0  0  0
   -1.4679    0.5780   -3.1580 C   0  0  0  0  0  0  0  0  0  0  0  0
   -2.4600    0.9997   -3.0296 H   0  0  0  0  0  0  0  0  0  0  0  0
   -0.0428    1.6754    1.3804 C   0  0  0  0  0  0  0  0  0  0  0  0
    1.0641    2.1479    1.6022 O   0  0  0  0  0  0  0  0  0  0  0  0
   -1.1292    2.1570    2.0902 N   0  0  0  0  0  0  0  0  0  0  0  0
   -2.0011    1.6554    1.9562 H   0  0  0  0  0  0  0  0  0  0  0  0
   -0.9930    3.0273    3.2515 C   0  0  0  0  0  0  0  0  0  0  0  0
   -0.4857    3.9579    2.9761 H   0  0  0  0  0  0  0  0  0  0  0  0
   -1.9791    3.2792    3.6530 H   0  0  0  0  0  0  0  0  0  0  0  0
   -0.4143    2.5290    4.0364 H   0  0  0  0  0  0  0  0  0  0  0  0
  1  2  1  0  0  0  0
  2  3  1  0  0  0  0
  2  4  1  0  0  0  0
  2  5  1  0  0  0  0
  5  6  2  0  0  0  0
  5  7  1  0  0  0  0
  7  8  1  0  0  0  0
  7  9  1  0  0  0  0
  9 10  1  0  0  0  0
  9 11  1  0  0  0  0
  9 22  1  0  0  0  0
 11 12  1  0  0  0  0
 11 13  1  0  0  0  0
 11 14  1  0  0  0  0
 14 15  1  0  0  0  0
 14 20  2  0  0  0  0
 15 16  2  0  0  0  0
 16 17  1  0  0  0  0
 16 18  1  0  0  0  0
 18 19  1  0  0  0  0
 18 20  1  0  0  0  0
 20 21  1  0  0  0  0
 22 23  2  0  0  0  0
 22 24  1  0  0  0  0
 24 25  1  0  0  0  0
 24 26  1  0  0  0  0
 26 27  1  0  0  0  0
 26 28  1  0  0  0  0
 26 29  1  0  0  0  0
M  END
$$$$

  -OEChem-01062216083D

 29 29  0     1  0  0  0  0  0999 V2000
   -2.4808   -3.2015    1.0959 H   0  0  0  0  0  0  0  0  0  0  0  0
   -2.6522   -2.2543    0.5762 C   0  0  0  0  0  0  0  0  0  0  0  0
   -3.5899   -1.8215    0.9324 H   0  0  0  0  0  0  0  0  0  0  0  0
   -2.7316   -2.4525   -0.4955 H   0  0  0  0  0  0  0  0  0  0  0  0
   -1.5041   -1.2993    0.8430 C   0  0  0  0  0  0  0  0  0  0  0  0
   -0.6084   -1.6212    1.6029 O   0  0  0  0  0  0  0  0  0  0  0  0
   -1.5051   -0.0461    0.2656 N   0  0  0  0  0  0  0  0  0  0  0  0
   -2.2217    0.1072   -0.4358 H   0  0  0  0  0  0  0  0  0  0  0  0
   -0.2760    0.7653    0.1574 C   0  0  1  0  0  0  0  0  0  0  0  0
    0.5967    0.1061    0.0746 H   0  0  0  0  0  0  0  0  0  0  0  0
   -0.3584    1.6196   -1.1188 C   0  0  0  0  0  0  0  0  0  0  0  0
   -1.2467    2.2568   -1.0828 H   0  0  0  0  0  0  0  0  0  0  0  0
    0.5169    2.2743   -1.1823 H   0  0  0  0  0  0  0  0  0  0  0  0
   -0.3883    0.7592   -2.3473 C   0  0  0  0  0  0  0  0  0  0  0  0
    0.7203    0.1027   -2.8594 N   0  0  0  0  0  0  0  0  0  0  0  0
    0.3297   -0.4966   -3.9572 C   0  0  0  0  0  0  0  0  0  0  0  0
    0.9691   -1.0981   -4.5972 H   0  0  0  0  0  0  0  0  0  0  0  0
   -1.0111   -0.2416   -4.1794 N   0  0  0  0  0  0  0  0  0  0  0  0
   -1.5423   -0.5671   -4.9854 H   0  0  0  0  0  0  0  0  0  0  0  0
   -1.4704    0.5707   -3.1630 C   0  0  0  0  0  0  0  0  0  0  0  0
   -2.4618    0.9961   -3.0412 H   0  0  0  0  0  0  0  0  0  0  0  0
   -0.0428    1.6808    1.3808 C   0  0  0  0  0  0  0  0  0  0  0  0
    0.9872    2.3364    1.4730 O   0  0  0  0  0  0  0  0  0  0  0  0
   -1.0678    1.9199    2.2790 N   0  0  0  0  0  0  0  0  0  0  0  0
   -1.8386    1.2599    2.2474 H   0  0  0  0  0  0  0  0  0  0  0  0
   -0.8987    2.7412    3.4711 C   0  0  0  0  0  0  0  0  0  0  0  0
   -0.6108    3.7615    3.1964 H   0  0  0  0  0  0  0  0  0  0  0  0
   -1.8358    2.7882    4.0340 H   0  0  0  0  0  0  0  0  0  0  0  0
   -0.1240    2.3186    4.1196 H   0  0  0  0  0  0  0  0  0  0  0  0
  1  2  1  0  0  0  0
  2  3  1  0  0  0  0
  2  4  1  0  0  0  0
  2  5  1  0  0  0  0
  5  6  2  0  0  0  0
  5  7  1  0  0  0  0
  7  8  1  0  0  0  0
  7  9  1  0  0  0  0
  9 10  1  0  0  0  0
  9 11  1  0  0  0  0
  9 22  1  0  0  0  0
 11 12  1  0  0  0  0
 11 13  1  0  0  0  0
 11 14  1  0  0  0  0
 14 15  1  0  0  0  0
 14 20  2  0  0  0  0
 15 16  2  0  0  0  0
 16 17  1  0  0  0  0
 16 18  1  0  0  0  0
 18 19  1  0  0  0  0
 18 20  1  0  0  0  0
 20 21  1  0  0  0  0
 22 23  2  0  0  0  0
 22 24  1  0  0  0  0
 24 25  1  0  0  0  0
 24 26  1  0  0  0  0
 26 27  1  0  0  0  0
 26 28  1  0  0  0  0
 26 29  1  0  0  0  0
M  END
$$$$

  -OEChem-01062216083D

 29 29  0     1  0  0  0  0  0999 V2000
   -2.4935   -3.1914    1.0513 H   0  0  0  0  0  0  0  0  0  0  0  0
   -2.6593   -2.2370    0.5438 C   0  0  0  0  0  0  0  0  0  0  0  0
   -3.5956   -1.8044    0.9046 H   0  0  0  0  0  0  0  0  0  0  0  0
   -2.7384   -2.4208   -0.5305 H   0  0  0  0  0  0  0  0  0  0  0  0
   -1.5067   -1.2913    0.8240 C   0  0  0  0  0  0  0  0  0  0  0  0
   -0.6273   -1.6110    1.6038 O   0  0  0  0  0  0  0  0  0  0  0  0
   -1.4961   -0.0339    0.2583 N   0  0  0  0  0  0  0  0  0  0  0  0
   -2.2191    0.1382   -0.4321 H   0  0  0  0  0  0  0  0  0  0  0  0
   -0.2654    0.7767    0.1542 C   0  0  1  0  0  0  0  0  0  0  0  0
    0.6068    0.1173    0.0694 H   0  0  0  0  0  0  0  0  0  0  0  0
   -0.3558    1.6276   -1.1258 C   0  0  0  0  0  0  0  0  0  0  0  0
   -1.2451    2.2632   -1.0877 H   0  0  0  0  0  0  0  0  0  0  0  0
    0.5174    2.2840   -1.1991 H   0  0  0  0  0  0  0  0  0  0  0  0
   -0.3873    0.7618   -2.3504 C   0  0  0  0  0  0  0  0  0  0  0  0
    0.7207    0.1064   -2.8655 N   0  0  0  0  0  0  0  0  0  0  0  0
    0.3240   -0.5050   -3.9545 C   0  0  0  0  0  0  0  0  0  0  0  0
    0.9613   -1.1092   -4.5941 H   0  0  0  0  0  0  0  0  0  0  0  0
   -1.0206   -0.2610   -4.1668 N   0  0  0  0  0  0  0  0  0  0  0  0
   -1.5586   -0.6011   -4.9620 H   0  0  0  0  0  0  0  0  0  0  0  0
   -1.4758    0.5578   -3.1539 C   0  0  0  0  0  0  0  0  0  0  0  0
   -2.4695    0.9757   -3.0245 H   0  0  0  0  0  0  0  0  0  0  0  0
   -0.0305    1.6830    1.3872 C   0  0  0  0  0  0  0  0  0  0  0  0
    0.8633    2.5206    1.3827 O   0  0  0  0  0  0  0  0  0  0  0  0
   -0.9280    1.6743    2.4401 N   0  0  0  0  0  0  0  0  0  0  0  0
   -1.5278    0.8550    2.4846 H   0  0  0  0  0  0  0  0  0  0  0  0
   -0.7346    2.4607    3.6517 C   0  0  0  0  0  0  0  0  0  0  0  0
   -0.6765    3.5274    3.4116 H   0  0  0  0  0  0  0  0  0  0  0  0
   -1.5730    2.3088    4.3381 H   0  0  0  0  0  0  0  0  0  0  0  0
    0.1895    2.1625    4.1578 H   0  0  0  0  0  0  0  0  0  0  0  0
  1  2  1  0  0  0  0
  2  3  1  0  0  0  0
  2  4  1  0  0  0  0
  2  5  1  0  0  0  0
  5  6  2  0  0  0  0
  5  7  1  0  0  0  0
  7  8  1  0  0  0  0
  7  9  1  0  0  0  0
  9 10  1  0  0  0  0
  9 11  1  0  0  0  0
  9 22  1  0  0  0  0
 11 12  1  0  0  0  0
 11 13  1  0  0  0  0
 11 14  1  0  0  0  0
 14 15  1  0  0  0  0
 14 20  2  0  0  0  0
 15 16  2  0  0  0  0
 16 17  1  0  0  0  0
 16 18  1  0  0  0  0
 18 19  1  0  0  0  0
 18 20  1  0  0  0  0
 20 21  1  0  0  0  0
 22 23  2  0  0  0  0
 22 24  1  0  0  0  0
 24 25  1  0  0  0  0
 24 26  1  0  0  0  0
 26 27  1  0  0  0  0
 26 28  1  0  0  0  0
 26 29  1  0  0  0  0
M  END
$$$$

  -OEChem-01062216083D

 29 29  0     1  0  0  0  0  0999 V2000
   -2.5006   -3.1715    1.0544 H   0  0  0  0  0  0  0  0  0  0  0  0
   -2.6590   -2.2231    0.5331 C   0  0  0  0  0  0  0  0  0  0  0  0
   -3.6016   -1.7873    0.8729 H   0  0  0  0  0  0  0  0  0  0  0  0
   -2.7198   -2.4191   -0.5402 H   0  0  0  0  0  0  0  0  0  0  0  0
   -1.5131   -1.2724    0.8219 C   0  0  0  0  0  0  0  0  0  0  0  0
   -0.6467   -1.5796    1.6222 O   0  0  0  0  0  0  0  0  0  0  0  0
   -1.5012   -0.0127    0.2628 N   0  0  0  0  0  0  0  0  0  0  0  0
   -2.2311    0.1690   -0.4177 H   0  0  0  0  0  0  0  0  0  0  0  0
   -0.2678    0.7922    0.1505 C   0  0  1  0  0  0  0  0  0  0  0  0
    0.5995    0.1270    0.0638 H   0  0  0  0  0  0  0  0  0  0  0  0
   -0.3545    1.6340   -1.1367 C   0  0  0  0  0  0  0  0  0  0  0  0
   -1.2404    2.2746   -1.1031 H   0  0  0  0  0  0  0  0  0  0  0  0
    0.5218    2.2849   -1.2182 H   0  0  0  0  0  0  0  0  0  0  0  0
   -0.3904    0.7570   -2.3532 C   0  0  0  0  0  0  0  0  0  0  0  0
    0.7142    0.0909   -2.8624 N   0  0  0  0  0  0  0  0  0  0  0  0
    0.3151   -0.5216   -3.9501 C   0  0  0  0  0  0  0  0  0  0  0  0
    0.9492   -1.1328   -4.5860 H   0  0  0  0  0  0  0  0  0  0  0  0
   -1.0267   -0.2674   -4.1676 N   0  0  0  0  0  0  0  0  0  0  0  0
   -1.5632   -0.6001   -4.9671 H   0  0  0  0  0  0  0  0  0  0  0  0
   -1.4777    0.5599   -3.1599 C   0  0  0  0  0  0  0  0  0  0  0  0
   -2.4670    0.9901   -3.0375 H   0  0  0  0  0  0  0  0  0  0  0  0
   -0.0240    1.6879    1.3921 C   0  0  0  0  0  0  0  0  0  0  0  0
    0.6856    2.6845    1.3222 O   0  0  0  0  0  0  0  0  0  0  0  0
   -0.7231    1.4517    2.5621 N   0  0  0  0  0  0  0  0  0  0  0  0
   -1.1144    0.5140    2.6367 H   0  0  0  0  0  0  0  0  0  0  0  0
   -0.4918    2.2037    3.7888 C   0  0  0  0  0  0  0  0  0  0  0  0
   -0.6757    3.2708    3.6261 H   0  0  0  0  0  0  0  0  0  0  0  0
   -1.1661    1.8553    4.5768 H   0  0  0  0  0  0  0  0  0  0  0  0
    0.5402    2.0718    4.1301 H   0  0  0  0  0  0  0  0  0  0  0  0
  1  2  1  0  0  0  0
  2  3  1  0  0  0  0
  2  4  1  0  0  0  0
  2  5  1  0  0  0  0
  5  6  2  0  0  0  0
  5  7  1  0  0  0  0
  7  8  1  0  0  0  0
  7  9  1  0  0  0  0
  9 10  1  0  0  0  0
  9 11  1  0  0  0  0
  9 22  1  0  0  0  0
 11 12  1  0  0  0  0
 11 13  1  0  0  0  0
 11 14  1  0  0  0  0
 14 15  1  0  0  0  0
 14 20  2  0  0  0  0
 15 16  2  0  0  0  0
 16 17  1  0  0  0  0
 16 18  1  0  0  0  0
 18 19  1  0  0  0  0
 18 20  1  0  0  0  0
 20 21  1  0  0  0  0
 22 23  2  0  0  0  0
 22 24  1  0  0  0  0
 24 25  1  0  0  0  0
 24 26  1  0  0  0  0
 26 27  1  0  0  0  0
 26 28  1  0  0  0  0
 26 29  1  0  0  0  0
M  END
$$$$

  -OEChem-01062216083D

 29 29  0     1  0  0  0  0  0999 V2000
   -2.5019   -3.1549    1.0574 H   0  0  0  0  0  0  0  0  0  0  0  0
   -2.6728   -2.1938    0.5643 C   0  0  0  0  0  0  0  0  0  0  0  0
   -3.5930   -1.7547    0.9573 H   0  0  0  0  0  0  0  0  0  0  0  0
   -2.7862   -2.3659   -0.5088 H   0  0  0  0  0  0  0  0  0  0  0  0
   -1.5030   -1.2626    0.8194 C   0  0  0  0  0  0  0  0  0  0  0  0
   -0.6155   -1.5873    1.5910 O   0  0  0  0  0  0  0  0  0  0  0  0
   -1.4883   -0.0012    0.2637 N   0  0  0  0  0  0  0  0  0  0  0  0
   -2.2421    0.2047   -0.3829 H   0  0  0  0  0  0  0  0  0  0  0  0
   -0.2568    0.8042    0.1418 C   0  0  1  0  0  0  0  0  0  0  0  0
    0.6106    0.1396    0.0529 H   0  0  0  0  0  0  0  0  0  0  0  0
   -0.3455    1.6413   -1.1486 C   0  0  0  0  0  0  0  0  0  0  0  0
   -1.2306    2.2829   -1.1153 H   0  0  0  0  0  0  0  0  0  0  0  0
    0.5317    2.2908   -1.2329 H   0  0  0  0  0  0  0  0  0  0  0  0
   -0.3839    0.7606   -2.3619 C   0  0  0  0  0  0  0  0  0  0  0  0
    0.7207    0.0931   -2.8698 N   0  0  0  0  0  0  0  0  0  0  0  0
    0.3193   -0.5253   -3.9535 C   0  0  0  0  0  0  0  0  0  0  0  0
    0.9525   -1.1395   -4.5876 H   0  0  0  0  0  0  0  0  0  0  0  0
   -1.0233   -0.2739   -4.1693 N   0  0  0  0  0  0  0  0  0  0  0  0
   -1.5627   -0.6159   -4.9628 H   0  0  0  0  0  0  0  0  0  0  0  0
   -1.4728    0.5581   -3.1650 C   0  0  0  0  0  0  0  0  0  0  0  0
   -2.4627    0.9865   -3.0411 H   0  0  0  0  0  0  0  0  0  0  0  0
   -0.0150    1.6924    1.3890 C   0  0  0  0  0  0  0  0  0  0  0  0
    0.4748    2.8120    1.2940 O   0  0  0  0  0  0  0  0  0  0  0  0
   -0.4630    1.2643    2.6250 N   0  0  0  0  0  0  0  0  0  0  0  0
   -0.6846    0.2686    2.6779 H   0  0  0  0  0  0  0  0  0  0  0  0
   -0.2071    1.9893    3.8623 C   0  0  0  0  0  0  0  0  0  0  0  0
   -0.6313    2.9974    3.8109 H   0  0  0  0  0  0  0  0  0  0  0  0
   -0.6648    1.4657    4.7069 H   0  0  0  0  0  0  0  0  0  0  0  0
    0.8697    2.0681    4.0438 H   0  0  0  0  0  0  0  0  0  0  0  0
  1  2  1  0  0  0  0
  2  3  1  0  0  0  0
  2  4  1  0  0  0  0
  2  5  1  0  0  0  0
  5  6  2  0  0  0  0
  5  7  1  0  0  0  0
  7  8  1  0  0  0  0
  7  9  1  0  0  0  0
  9 10  1  0  0  0  0
  9 11  1  0  0  0  0
  9 22  1  0  0  0  0
 11 12  1  0  0  0  0
 11 13  1  0  0  0  0
 11 14  1  0  0  0  0
 14 15  1  0  0  0  0
 14 20  2  0  0  0  0
 15 16  2  0  0  0  0
 16 17  1  0  0  0  0
 16 18  1  0  0  0  0
 18 19  1  0  0  0  0
 18 20  1  0  0  0  0
 20 21  1  0  0  0  0
 22 23  2  0  0  0  0
 22 24  1  0  0  0  0
 24 25  1  0  0  0  0
 24 26  1  0  0  0  0
 26 27  1  0  0  0  0
 26 28  1  0  0  0  0
 26 29  1  0  0  0  0
M  END
$$$$

  -OEChem-01062216083D

 29 29  0     1  0  0  0  0  0999 V2000
   -2.4950   -3.1372    1.0843 H   0  0  0  0  0  0  0  0  0  0  0  0
   -2.6832   -2.1577    0.6358 C   0  0  0  0  0  0  0  0  0  0  0  0
   -3.5539   -1.7090    1.1201 H   0  0  0  0  0  0  0  0  0  0  0  0
   -2.8947   -2.2938   -0.4274 H   0  0  0  0  0  0  0  0  0  0  0  0
   -1.4722   -1.2619    0.8134 C   0  0  0  0  0  0  0  0  0  0  0  0
   -0.5395   -1.6214    1.5144 O   0  0  0  0  0  0  0  0  0  0  0  0
   -1.4610    0.0010    0.2598 N   0  0  0  0  0  0  0  0  0  0  0  0
   -2.2546    0.2450   -0.3226 H   0  0  0  0  0  0  0  0  0  0  0  0
   -0.2365    0.8125    0.1249 C   0  0  1  0  0  0  0  0  0  0  0  0
    0.6354    0.1549    0.0294 H   0  0  0  0  0  0  0  0  0  0  0  0
   -0.3334    1.6487   -1.1649 C   0  0  0  0  0  0  0  0  0  0  0  0
   -1.2219    2.2855   -1.1296 H   0  0  0  0  0  0  0  0  0  0  0  0
    0.5399    2.3034   -1.2504 H   0  0  0  0  0  0  0  0  0  0  0  0
   -0.3740    0.7660   -2.3763 C   0  0  0  0  0  0  0  0  0  0  0  0
    0.7328    0.1026   -2.8857 N   0  0  0  0  0  0  0  0  0  0  0  0
    0.3306   -0.5210   -3.9661 C   0  0  0  0  0  0  0  0  0  0  0  0
    0.9643   -1.1337   -4.6010 H   0  0  0  0  0  0  0  0  0  0  0  0
   -1.0139   -0.2768   -4.1781 N   0  0  0  0  0  0  0  0  0  0  0  0
   -1.5546   -0.6245   -4.9679 H   0  0  0  0  0  0  0  0  0  0  0  0
   -1.4648    0.5548   -3.1743 C   0  0  0  0  0  0  0  0  0  0  0  0
   -2.4568    0.9766   -3.0458 H   0  0  0  0  0  0  0  0  0  0  0  0
   -0.0019    1.6936    1.3760 C   0  0  0  0  0  0  0  0  0  0  0  0
    0.2403    2.8922    1.2888 O   0  0  0  0  0  0  0  0  0  0  0  0
   -0.1545    1.1284    2.6279 N   0  0  0  0  0  0  0  0  0  0  0  0
   -0.2545    0.1107    2.6440 H   0  0  0  0  0  0  0  0  0  0  0  0
    0.0944    1.8381    3.8747 C   0  0  0  0  0  0  0  0  0  0  0  0
   -0.5339    2.7325    3.9390 H   0  0  0  0  0  0  0  0  0  0  0  0
   -0.1373    1.1927    4.7273 H   0  0  0  0  0  0  0  0  0  0  0  0
    1.1452    2.1384    3.9397 H   0  0  0  0  0  0  0  0  0  0  0  0
  1  2  1  0  0  0  0
  2  3  1  0  0  0  0
  2  4  1  0  0  0  0
  2  5  1  0  0  0  0
  5  6  2  0  0  0  0
  5  7  1  0  0  0  0
  7  8  1  0  0  0  0
  7  9  1  0  0  0  0
  9 10  1  0  0  0  0
  9 11  1  0  0  0  0
  9 22  1  0  0  0  0
 11 12  1  0  0  0  0
 11 13  1  0  0  0  0
 11 14  1  0  0  0  0
 14 15  1  0  0  0  0
 14 20  2  0  0  0  0
 15 16  2  0  0  0  0
 16 17  1  0  0  0  0
 16 18  1  0  0  0  0
 18 19  1  0  0  0  0
 18 20  1  0  0  0  0
 20 21  1  0  0  0  0
 22 23  2  0  0  0  0
 22 24  1  0  0  0  0
 24 25  1  0  0  0  0
 24 26  1  0  0  0  0
 26 27  1  0  0  0  0
 26 28  1  0  0  0  0
 26 29  1  0  0  0  0
M  END
$$$$

  -OEChem-01062216083D

 29 29  0     1  0  0  0  0  0999 V2000
   -2.4837   -3.1078    1.1506 H   0  0  0  0  0  0  0  0  0  0  0  0
   -2.6705   -2.1332    0.6908 C   0  0  0  0  0  0  0  0  0  0  0  0
   -3.5206   -1.6640    1.1918 H   0  0  0  0  0  0  0  0  0  0  0  0
   -2.9135   -2.2838   -0.3638 H   0  0  0  0  0  0  0  0  0  0  0  0
   -1.4421   -1.2526    0.8188 C   0  0  0  0  0  0  0  0  0  0  0  0
   -0.4810   -1.6310    1.4710 O   0  0  0  0  0  0  0  0  0  0  0  0
   -1.4343    0.0081    0.2594 N   0  0  0  0  0  0  0  0  0  0  0  0
   -2.2518    0.2780   -0.2770 H   0  0  0  0  0  0  0  0  0  0  0  0
   -0.2093    0.8133    0.1103 C   0  0  1  0  0  0  0  0  0  0  0  0
    0.6615    0.1551    0.0077 H   0  0  0  0  0  0  0  0  0  0  0  0
   -0.3101    1.6508   -1.1778 C   0  0  0  0  0  0  0  0  0  0  0  0
   -1.1955    2.2918   -1.1367 H   0  0  0  0  0  0  0  0  0  0  0  0
    0.5657    2.3017   -1.2651 H   0  0  0  0  0  0  0  0  0  0  0  0
   -0.3650    0.7704   -2.3905 C   0  0  0  0  0  0  0  0  0  0  0  0
    0.7345    0.1011   -2.9083 N   0  0  0  0  0  0  0  0  0  0  0  0
    0.3199   -0.5215   -3.9848 C   0  0  0  0  0  0  0  0  0  0  0  0
    0.9448   -1.1391   -4.6238 H   0  0  0  0  0  0  0  0  0  0  0  0
   -1.0248   -0.2696   -4.1868 N   0  0  0  0  0  0  0  0  0  0  0  0
   -1.5744   -0.6168   -4.9708 H   0  0  0  0  0  0  0  0  0  0  0  0
   -1.4631    0.5649   -3.1798 C   0  0  0  0  0  0  0  0  0  0  0  0
   -2.4523    0.9906   -3.0426 H   0  0  0  0  0  0  0  0  0  0  0  0
    0.0264    1.6913    1.3604 C   0  0  0  0  0  0  0  0  0  0  0  0
    0.0308    2.9162    1.3045 O   0  0  0  0  0  0  0  0  0  0  0  0
    0.1844    1.0679    2.5829 N   0  0  0  0  0  0  0  0  0  0  0  0
    0.1462    0.0455    2.5770 H   0  0  0  0  0  0  0  0  0  0  0  0
    0.4005    1.7723    3.8386 C   0  0  0  0  0  0  0  0  0  0  0  0
   -0.4328    2.4518    4.0453 H   0  0  0  0  0  0  0  0  0  0  0  0
    0.4764    1.0570    4.6631 H   0  0  0  0  0  0  0  0  0  0  0  0
    1.3281    2.3524    3.7959 H   0  0  0  0  0  0  0  0  0  0  0  0
  1  2  1  0  0  0  0
  2  3  1  0  0  0  0
  2  4  1  0  0  0  0
  2  5  1  0  0  0  0
  5  6  2  0  0  0  0
  5  7  1  0  0  0  0
  7  8  1  0  0  0  0
  7  9  1  0  0  0  0
  9 10  1  0  0  0  0
  9 11  1  0  0  0  0
  9 22  1  0  0  0  0
 11 12  1  0  0  0  0
 11 13  1  0  0  0  0
 11 14  1  0  0  0  0
 14 15  1  0  0  0  0
 14 20  2  0  0  0  0
 15 16  2  0  0  0  0
 16 17  1  0  0  0  0
 16 18  1  0  0  0  0
 18 19  1  0  0  0  0
 18 20  1  0  0  0  0
 20 21  1  0  0  0  0
 22 23  2  0  0  0  0
 22 24  1  0  0  0  0
 24 25  1  0  0  0  0
 24 26  1  0  0  0  0
 26 27  1  0  0  0  0
 26 28  1  0  0  0  0
 26 29  1  0  0  0  0
M  END
$$$$

  -OEChem-01062216083D

 29 29  0     1  0  0  0  0  0999 V2000
   -2.4773   -3.0638    1.2494 H   0  0  0  0  0  0  0  0  0  0  0  0
   -2.6556   -2.1009    0.7623 C   0  0  0  0  0  0  0  0  0  0  0  0
   -3.4794   -1.5954    1.2719 H   0  0  0  0  0  0  0  0  0  0  0  0
   -2.9338   -2.2803   -0.2790 H   0  0  0  0  0  0  0  0  0  0  0  0
   -1.4050   -1.2448    0.8235 C   0  0  0  0  0  0  0  0  0  0  0  0
   -0.4203   -1.6364    1.4322 O   0  0  0  0  0  0  0  0  0  0  0  0
   -1.4005    0.0107    0.2532 N   0  0  0  0  0  0  0  0  0  0  0  0
   -2.2407    0.3071   -0.2317 H   0  0  0  0  0  0  0  0  0  0  0  0
   -0.1759    0.8098    0.0898 C   0  0  1  0  0  0  0  0  0  0  0  0
    0.6946    0.1523   -0.0196 H   0  0  0  0  0  0  0  0  0  0  0  0
   -0.2844    1.6493   -1.1959 C   0  0  0  0  0  0  0  0  0  0  0  0
   -1.1693    2.2911   -1.1471 H   0  0  0  0  0  0  0  0  0  0  0  0
    0.5910    2.3000   -1.2869 H   0  0  0  0  0  0  0  0  0  0  0  0
   -0.3551    0.7732   -2.4107 C   0  0  0  0  0  0  0  0  0  0  0  0
    0.7370    0.1006   -2.9401 N   0  0  0  0  0  0  0  0  0  0  0  0
    0.3100   -0.5172   -4.0145 C   0  0  0  0  0  0  0  0  0  0  0  0
    0.9265   -1.1364   -4.6601 H   0  0  0  0  0  0  0  0  0  0  0  0
   -1.0350   -0.2583   -4.2044 N   0  0  0  0  0  0  0  0  0  0  0  0
   -1.5931   -0.6018   -4.9839 H   0  0  0  0  0  0  0  0  0  0  0  0
   -1.4610    0.5746   -3.1907 C   0  0  0  0  0  0  0  0  0  0  0  0
   -2.4474    1.0033   -3.0425 H   0  0  0  0  0  0  0  0  0  0  0  0
    0.0576    1.6903    1.3352 C   0  0  0  0  0  0  0  0  0  0  0  0
   -0.1843    2.8925    1.3346 O   0  0  0  0  0  0  0  0  0  0  0  0
    0.5225    1.0842    2.4860 N   0  0  0  0  0  0  0  0  0  0  0  0
    0.5585    0.0625    2.4679 H   0  0  0  0  0  0  0  0  0  0  0  0
    0.6836    1.7784    3.7560 C   0  0  0  0  0  0  0  0  0  0  0  0
   -0.2814    2.1519    4.1138 H   0  0  0  0  0  0  0  0  0  0  0  0
    1.0935    1.0973    4.5079 H   0  0  0  0  0  0  0  0  0  0  0  0
    1.3709    2.6238    3.6452 H   0  0  0  0  0  0  0  0  0  0  0  0
  1  2  1  0  0  0  0
  2  3  1  0  0  0  0
  2  4  1  0  0  0  0
  2  5  1  0  0  0  0
  5  6  2  0  0  0  0
  5  7  1  0  0  0  0
  7  8  1  0  0  0  0
  7  9  1  0  0  0  0
  9 10  1  0  0  0  0
  9 11  1  0  0  0  0
  9 22  1  0  0  0  0
 11 12  1  0  0  0  0
 11 13  1  0  0  0  0
 11 14  1  0  0  0  0
 14 15  1  0  0  0  0
 14 20  2  0  0  0  0
 15 16  2  0  0  0  0
 16 17  1  0  0  0  0
 16 18  1  0  0  0  0
 18 19  1  0  0  0  0
 18 20  1  0  0  0  0
 20 21  1  0  0  0  0
 22 23  2  0  0  0  0
 22 24  1  0  0  0  0
 24 25  1  0  0  0  0
 24 26  1  0  0  0  0
 26 27  1  0  0  0  0
 26 28  1  0  0  0  0
 26 29  1  0  0  0  0
M  END
$$$$

  -OEChem-01062216083D

 29 29  0     1  0  0  0  0  0999 V2000
   -2.4786   -3.0485    1.3070 H   0  0  0  0  0  0  0  0  0  0  0  0
   -2.6671   -2.0769    0.8417 C   0  0  0  0  0  0  0  0  0  0  0  0
   -3.4253   -1.5481    1.4242 H   0  0  0  0  0  0  0  0  0  0  0  0
   -3.0415   -2.2394   -0.1718 H   0  0  0  0  0  0  0  0  0  0  0  0
   -1.3877   -1.2634    0.7972 C   0  0  0  0  0  0  0  0  0  0  0  0
   -0.3693   -1.6920    1.3190 O   0  0  0  0  0  0  0  0  0  0  0  0
   -1.3883   -0.0081    0.2265 N   0  0  0  0  0  0  0  0  0  0  0  0
   -2.2692    0.3571   -0.1199 H   0  0  0  0  0  0  0  0  0  0  0  0
   -0.1717    0.8014    0.0677 C   0  0  1  0  0  0  0  0  0  0  0  0
    0.7048    0.1527   -0.0444 H   0  0  0  0  0  0  0  0  0  0  0  0
   -0.2814    1.6491   -1.2110 C   0  0  0  0  0  0  0  0  0  0  0  0
   -1.1720    2.2827   -1.1614 H   0  0  0  0  0  0  0  0  0  0  0  0
    0.5894    2.3066   -1.2928 H   0  0  0  0  0  0  0  0  0  0  0  0
   -0.3424    0.7811   -2.4318 C   0  0  0  0  0  0  0  0  0  0  0  0
    0.7575    0.1205   -2.9605 N   0  0  0  0  0  0  0  0  0  0  0  0
    0.3379   -0.4974   -4.0379 C   0  0  0  0  0  0  0  0  0  0  0  0
    0.9606   -1.1103   -4.6834 H   0  0  0  0  0  0  0  0  0  0  0  0
   -1.0083   -0.2479   -4.2317 N   0  0  0  0  0  0  0  0  0  0  0  0
   -1.5628   -0.5968   -5.0113 H   0  0  0  0  0  0  0  0  0  0  0  0
   -1.4441    0.5768   -3.2159 C   0  0  0  0  0  0  0  0  0  0  0  0
   -2.4350    0.9937   -3.0655 H   0  0  0  0  0  0  0  0  0  0  0  0
    0.0471    1.6841    1.3121 C   0  0  0  0  0  0  0  0  0  0  0  0
   -0.4429    2.8054    1.3936 O   0  0  0  0  0  0  0  0  0  0  0  0
    0.7942    1.1801    2.3587 N   0  0  0  0  0  0  0  0  0  0  0  0
    1.0037    0.1825    2.3137 H   0  0  0  0  0  0  0  0  0  0  0  0
    0.9659    1.8768    3.6262 C   0  0  0  0  0  0  0  0  0  0  0  0
    0.0038    1.9821    4.1381 H   0  0  0  0  0  0  0  0  0  0  0  0
    1.6466    1.3168    4.2744 H   0  0  0  0  0  0  0  0  0  0  0  0
    1.3897    2.8733    3.4626 H   0  0  0  0  0  0  0  0  0  0  0  0
  1  2  1  0  0  0  0
  2  3  1  0  0  0  0
  2  4  1  0  0  0  0
  2  5  1  0  0  0  0
  5  6  2  0  0  0  0
  5  7  1  0  0  0  0
  7  8  1  0  0  0  0
  7  9  1  0  0  0  0
  9 10  1  0  0  0  0
  9 11  1  0  0  0  0
  9 22  1  0  0  0  0
 11 12  1  0  0  0  0
 11 13  1  0  0  0  0
 11 14  1  0  0  0  0
 14 15  1  0  0  0  0
 14 20  2  0  0  0  0
 15 16  2  0  0  0  0
 16 17  1  0  0  0  0
 16 18  1  0  0  0  0
 18 19  1  0  0  0  0
 18 20  1  0  0  0  0
 20 21  1  0  0  0  0
 22 23  2  0  0  0  0
 22 24  1  0  0  0  0
 24 25  1  0  0  0  0
 24 26  1  0  0  0  0
 26 27  1  0  0  0  0
 26 28  1  0  0  0  0
 26 29  1  0  0  0  0
M  END
$$$$

  -OEChem-01062216083D

 29 29  0     1  0  0  0  0  0999 V2000
   -2.4963   -3.0224    1.3996 H   0  0  0  0  0  0  0  0  0  0  0  0
   -2.6847   -2.0467    0.9429 C   0  0  0  0  0  0  0  0  0  0  0  0
   -3.3491   -1.4748    1.5953 H   0  0  0  0  0  0  0  0  0  0  0  0
   -3.1733   -2.1985   -0.0225 H   0  0  0  0  0  0  0  0  0  0  0  0
   -1.3782   -1.3005    0.7504 C   0  0  0  0  0  0  0  0  0  0  0  0
   -0.3317   -1.7893    1.1473 O   0  0  0  0  0  0  0  0  0  0  0  0
   -1.3854   -0.0425    0.1854 N   0  0  0  0  0  0  0  0  0  0  0  0
   -2.2883    0.3984    0.0413 H   0  0  0  0  0  0  0  0  0  0  0  0
   -0.1769    0.7821    0.0419 C   0  0  1  0  0  0  0  0  0  0  0  0
    0.7066    0.1434   -0.0708 H   0  0  0  0  0  0  0  0  0  0  0  0
   -0.2851    1.6439   -1.2266 C   0  0  0  0  0  0  0  0  0  0  0  0
   -1.1827    2.2669   -1.1759 H   0  0  0  0  0  0  0  0  0  0  0  0
    0.5790    2.3117   -1.2937 H   0  0  0  0  0  0  0  0  0  0  0  0
   -0.3283    0.7920   -2.4592 C   0  0  0  0  0  0  0  0  0  0  0  0
    0.7846    0.1509   -2.9855 N   0  0  0  0  0  0  0  0  0  0  0  0
    0.3796   -0.4644   -4.0700 C   0  0  0  0  0  0  0  0  0  0  0  0
    1.0143   -1.0651   -4.7152 H   0  0  0  0  0  0  0  0  0  0  0  0
   -0.9681   -0.2296   -4.2723 N   0  0  0  0  0  0  0  0  0  0  0  0
   -1.5147   -0.5853   -5.0545 H   0  0  0  0  0  0  0  0  0  0  0  0
   -1.4218    0.5805   -3.2523 C   0  0  0  0  0  0  0  0  0  0  0  0
   -2.4203    0.9784   -3.1010 H   0  0  0  0  0  0  0  0  0  0  0  0
    0.0249    1.6650    1.2880 C   0  0  0  0  0  0  0  0  0  0  0  0
   -0.6941    2.6393    1.4832 O   0  0  0  0  0  0  0  0  0  0  0  0
    1.0030    1.3361    2.2065 N   0  0  0  0  0  0  0  0  0  0  0  0
    1.4454    0.4265    2.0876 H   0  0  0  0  0  0  0  0  0  0  0  0
    1.1904    2.0479    3.4638 C   0  0  0  0  0  0  0  0  0  0  0  0
    0.3080    1.9356    4.1022 H   0  0  0  0  0  0  0  0  0  0  0  0
    2.0590    1.6495    3.9969 H   0  0  0  0  0  0  0  0  0  0  0  0
    1.3601    3.1140    3.2799 H   0  0  0  0  0  0  0  0  0  0  0  0
  1  2  1  0  0  0  0
  2  3  1  0  0  0  0
  2  4  1  0  0  0  0
  2  5  1  0  0  0  0
  5  6  2  0  0  0  0
  5  7  1  0  0  0  0
  7  8  1  0  0  0  0
  7  9  1  0  0  0  0
  9 10  1  0  0  0  0
  9 11  1  0  0  0  0
  9 22  1  0  0  0  0
 11 12  1  0  0  0  0
 11 13  1  0  0  0  0
 11 14  1  0  0  0  0
 14 15  1  0  0  0  0
 14 20  2  0  0  0  0
 15 16  2  0  0  0  0
 16 17  1  0  0  0  0
 16 18  1  0  0  0  0
 18 19  1  0  0  0  0
 18 20  1  0  0  0  0
 20 21  1  0  0  0  0
 22 23  2  0  0  0  0
 22 24  1  0  0  0  0
 24 25  1  0  0  0  0
 24 26  1  0  0  0  0
 26 27  1  0  0  0  0
 26 28  1  0  0  0  0
 26 29  1  0  0  0  0
M  END
$$$$

  -OEChem-01062216083D

 29 29  0     1  0  0  0  0  0999 V2000
   -2.5014   -3.0079    1.4641 H   0  0  0  0  0  0  0  0  0  0  0  0
   -2.6916   -2.0303    1.0126 C   0  0  0  0  0  0  0  0  0  0  0  0
   -3.2925   -1.4347    1.7043 H   0  0  0  0  0  0  0  0  0  0  0  0
   -3.2496   -2.1738    0.0844 H   0  0  0  0  0  0  0  0  0  0  0  0
   -1.3801   -1.3244    0.7246 C   0  0  0  0  0  0  0  0  0  0  0  0
   -0.3251   -1.8487    1.0452 O   0  0  0  0  0  0  0  0  0  0  0  0
   -1.3925   -0.0670    0.1576 N   0  0  0  0  0  0  0  0  0  0  0  0
   -2.2913    0.4044    0.1221 H   0  0  0  0  0  0  0  0  0  0  0  0
   -0.1857    0.7632    0.0267 C   0  0  1  0  0  0  0  0  0  0  0  0
    0.7003    0.1271   -0.0814 H   0  0  0  0  0  0  0  0  0  0  0  0
   -0.2870    1.6367   -1.2329 C   0  0  0  0  0  0  0  0  0  0  0  0
   -1.1872    2.2564   -1.1809 H   0  0  0  0  0  0  0  0  0  0  0  0
    0.5753    2.3082   -1.2883 H   0  0  0  0  0  0  0  0  0  0  0  0
   -0.3201    0.7978   -2.4744 C   0  0  0  0  0  0  0  0  0  0  0  0
    0.7998    0.1661   -2.9973 N   0  0  0  0  0  0  0  0  0  0  0  0
    0.4055   -0.4412   -4.0902 C   0  0  0  0  0  0  0  0  0  0  0  0
    1.0477   -1.0336   -4.7356 H   0  0  0  0  0  0  0  0  0  0  0  0
   -0.9415   -0.2096   -4.3010 N   0  0  0  0  0  0  0  0  0  0  0  0
   -1.4811   -0.5624   -5.0891 H   0  0  0  0  0  0  0  0  0  0  0  0
   -1.4068    0.5885   -3.2771 C   0  0  0  0  0  0  0  0  0  0  0  0
   -2.4089    0.9782   -3.1279 H   0  0  0  0  0  0  0  0  0  0  0  0
    0.0031    1.6502    1.2710 C   0  0  0  0  0  0  0  0  0  0  0  0
   -0.8670    2.4558    1.5852 O   0  0  0  0  0  0  0  0  0  0  0  0
    1.1457    1.5356    2.0395 N   0  0  0  0  0  0  0  0  0  0  0  0
    1.7679    0.7605    1.8216 H   0  0  0  0  0  0  0  0  0  0  0  0
    1.3558    2.2790    3.2749 C   0  0  0  0  0  0  0  0  0  0  0  0
    0.6149    1.9890    4.0270 H   0  0  0  0  0  0  0  0  0  0  0  0
    2.3544    2.0744    3.6728 H   0  0  0  0  0  0  0  0  0  0  0  0
    1.2725    3.3558    3.0937 H   0  0  0  0  0  0  0  0  0  0  0  0
  1  2  1  0  0  0  0
  2  3  1  0  0  0  0
  2  4  1  0  0  0  0
  2  5  1  0  0  0  0
  5  6  2  0  0  0  0
  5  7  1  0  0  0  0
  7  8  1  0  0  0  0
  7  9  1  0  0  0  0
  9 10  1  0  0  0  0
  9 11  1  0  0  0  0
  9 22  1  0  0  0  0
 11 12  1  0  0  0  0
 11 13  1  0  0  0  0
 11 14  1  0  0  0  0
 14 15  1  0  0  0  0
 14 20  2  0  0  0  0
 15 16  2  0  0  0  0
 16 17  1  0  0  0  0
 16 18  1  0  0  0  0
 18 19  1  0  0  0  0
 18 20  1  0  0  0  0
 20 21  1  0  0  0  0
 22 23  2  0  0  0  0
 22 24  1  0  0  0  0
 24 25  1  0  0  0  0
 24 26  1  0  0  0  0
 26 27  1  0  0  0  0
 26 28  1  0  0  0  0
 26 29  1  0  0  0  0
M  END
$$$$

  -OEChem-01062216083D

 29 29  0     1  0  0  0  0  0999 V2000
   -2.4981   -3.0072    1.4746 H   0  0  0  0  0  0  0  0  0  0  0  0
   -2.6921   -2.0236    1.0375 C   0  0  0  0  0  0  0  0  0  0  0  0
   -3.2588   -1.4253    1.7551 H   0  0  0  0  0  0  0  0  0  0  0  0
   -3.2855   -2.1530    0.1294 H   0  0  0  0  0  0  0  0  0  0  0  0
   -1.3833   -1.3314    0.7072 C   0  0  0  0  0  0  0  0  0  0  0  0
   -0.3252   -1.8729    0.9849 O   0  0  0  0  0  0  0  0  0  0  0  0
   -1.4029   -0.0735    0.1408 N   0  0  0  0  0  0  0  0  0  0  0  0
   -2.2953    0.4107    0.1741 H   0  0  0  0  0  0  0  0  0  0  0  0
   -0.1982    0.7625    0.0206 C   0  0  1  0  0  0  0  0  0  0  0  0
    0.6908    0.1298   -0.0822 H   0  0  0  0  0  0  0  0  0  0  0  0
   -0.2982    1.6394   -1.2361 C   0  0  0  0  0  0  0  0  0  0  0  0
   -1.2022    2.2539   -1.1854 H   0  0  0  0  0  0  0  0  0  0  0  0
    0.5610    2.3147   -1.2872 H   0  0  0  0  0  0  0  0  0  0  0  0
   -0.3209    0.8030   -2.4794 C   0  0  0  0  0  0  0  0  0  0  0  0
    0.8070    0.1799   -2.9956 N   0  0  0  0  0  0  0  0  0  0  0  0
    0.4224   -0.4332   -4.0889 C   0  0  0  0  0  0  0  0  0  0  0  0
    1.0716   -1.0235   -4.7294 H   0  0  0  0  0  0  0  0  0  0  0  0
   -0.9249   -0.2112   -4.3078 N   0  0  0  0  0  0  0  0  0  0  0  0
   -1.4587   -0.5739   -5.0954 H   0  0  0  0  0  0  0  0  0  0  0  0
   -1.4016    0.5851   -3.2877 C   0  0  0  0  0  0  0  0  0  0  0  0
   -2.4080    0.9657   -3.1434 H   0  0  0  0  0  0  0  0  0  0  0  0
   -0.0158    1.6526    1.2636 C   0  0  0  0  0  0  0  0  0  0  0  0
   -0.9724    2.2772    1.7108 O   0  0  0  0  0  0  0  0  0  0  0  0
    1.2257    1.7759    1.8581 N   0  0  0  0  0  0  0  0  0  0  0  0
    1.9634    1.1654    1.5155 H   0  0  0  0  0  0  0  0  0  0  0  0
    1.4562    2.5416    3.0761 C   0  0  0  0  0  0  0  0  0  0  0  0
    0.8828    2.1194    3.9080 H   0  0  0  0  0  0  0  0  0  0  0  0
    2.5179    2.5197    3.3400 H   0  0  0  0  0  0  0  0  0  0  0  0
    1.1580    3.5856    2.9348 H   0  0  0  0  0  0  0  0  0  0  0  0
  1  2  1  0  0  0  0
  2  3  1  0  0  0  0
  2  4  1  0  0  0  0
  2  5  1  0  0  0  0
  5  6  2  0  0  0  0
  5  7  1  0  0  0  0
  7  8  1  0  0  0  0
  7  9  1  0  0  0  0
  9 10  1  0  0  0  0
  9 11  1  0  0  0  0
  9 22  1  0  0  0  0
 11 12  1  0  0  0  0
 11 13  1  0  0  0  0
 11 14  1  0  0  0  0
 14 15  1  0  0  0  0
 14 20  2  0  0  0  0
 15 16  2  0  0  0  0
 16 17  1  0  0  0  0
 16 18  1  0  0  0  0
 18 19  1  0  0  0  0
 18 20  1  0  0  0  0
 20 21  1  0  0  0  0
 22 23  2  0  0  0  0
 22 24  1  0  0  0  0
 24 25  1  0  0  0  0
 24 26  1  0  0  0  0
 26 27  1  0  0  0  0
 26 28  1  0  0  0  0
 26 29  1  0  0  0  0
M  END
$$$$

  -OEChem-01062216083D

 29 29  0     1  0  0  0  0  0999 V2000
   -2.4993   -3.0131    1.4725 H   0  0  0  0  0  0  0  0  0  0  0  0
   -2.6954   -2.0264    1.0435 C   0  0  0  0  0  0  0  0  0  0  0  0
   -3.2439   -1.4275    1.7746 H   0  0  0  0  0  0  0  0  0  0  0  0
   -3.3075   -2.1476    0.1467 H   0  0  0  0  0  0  0  0  0  0  0  0
   -1.3885   -1.3421    0.6897 C   0  0  0  0  0  0  0  0  0  0  0  0
   -0.3296   -1.8985    0.9329 O   0  0  0  0  0  0  0  0  0  0  0  0
   -1.4126   -0.0820    0.1282 N   0  0  0  0  0  0  0  0  0  0  0  0
   -2.2995    0.4071    0.2060 H   0  0  0  0  0  0  0  0  0  0  0  0
   -0.2083    0.7582    0.0235 C   0  0  1  0  0  0  0  0  0  0  0  0
    0.6837    0.1293   -0.0758 H   0  0  0  0  0  0  0  0  0  0  0  0
   -0.3089    1.6399   -1.2300 C   0  0  0  0  0  0  0  0  0  0  0  0
   -1.2170    2.2478   -1.1795 H   0  0  0  0  0  0  0  0  0  0  0  0
    0.5457    2.3216   -1.2765 H   0  0  0  0  0  0  0  0  0  0  0  0
   -0.3220    0.8085   -2.4772 C   0  0  0  0  0  0  0  0  0  0  0  0
    0.8122    0.1950   -2.9908 N   0  0  0  0  0  0  0  0  0  0  0  0
    0.4348   -0.4220   -4.0846 C   0  0  0  0  0  0  0  0  0  0  0  0
    1.0898   -1.0083   -4.7229 H   0  0  0  0  0  0  0  0  0  0  0  0
   -0.9135   -0.2101   -4.3074 N   0  0  0  0  0  0  0  0  0  0  0  0
   -1.4435   -0.5806   -5.0940 H   0  0  0  0  0  0  0  0  0  0  0  0
   -1.3991    0.5820   -3.2881 C   0  0  0  0  0  0  0  0  0  0  0  0
   -2.4094    0.9515   -3.1439 H   0  0  0  0  0  0  0  0  0  0  0  0
   -0.0319    1.6479    1.2693 C   0  0  0  0  0  0  0  0  0  0  0  0
   -1.0183    2.0898    1.8504 O   0  0  0  0  0  0  0  0  0  0  0  0
    1.2323    2.0202    1.6869 N   0  0  0  0  0  0  0  0  0  0  0  0
    2.0223    1.5799    1.2222 H   0  0  0  0  0  0  0  0  0  0  0  0
    1.4764    2.8384    2.8680 C   0  0  0  0  0  0  0  0  0  0  0  0
    1.0790    2.3480    3.7629 H   0  0  0  0  0  0  0  0  0  0  0  0
    2.5512    2.9909    3.0057 H   0  0  0  0  0  0  0  0  0  0  0  0
    1.0000    3.8186    2.7609 H   0  0  0  0  0  0  0  0  0  0  0  0
  1  2  1  0  0  0  0
  2  3  1  0  0  0  0
  2  4  1  0  0  0  0
  2  5  1  0  0  0  0
  5  6  2  0  0  0  0
  5  7  1  0  0  0  0
  7  8  1  0  0  0  0
  7  9  1  0  0  0  0
  9 10  1  0  0  0  0
  9 11  1  0  0  0  0
  9 22  1  0  0  0  0
 11 12  1  0  0  0  0
 11 13  1  0  0  0  0
 11 14  1  0  0  0  0
 14 15  1  0  0  0  0
 14 20  2  0  0  0  0
 15 16  2  0  0  0  0
 16 17  1  0  0  0  0
 16 18  1  0  0  0  0
 18 19  1  0  0  0  0
 18 20  1  0  0  0  0
 20 21  1  0  0  0  0
 22 23  2  0  0  0  0
 22 24  1  0  0  0  0
 24 25  1  0  0  0  0
 24 26  1  0  0  0  0
 26 27  1  0  0  0  0
 26 28  1  0  0  0  0
 26 29  1  0  0  0  0
M  END
$$$$

  -OEChem-01062216083D

 29 29  0     1  0  0  0  0  0999 V2000
   -2.4969   -3.0121    1.4698 H   0  0  0  0  0  0  0  0  0  0  0  0
   -2.6953   -2.0186    1.0579 C   0  0  0  0  0  0  0  0  0  0  0  0
   -3.2114   -1.4215    1.8137 H   0  0  0  0  0  0  0  0  0  0  0  0
   -3.3385   -2.1226    0.1811 H   0  0  0  0  0  0  0  0  0  0  0  0
   -1.3931   -1.3457    0.6672 C   0  0  0  0  0  0  0  0  0  0  0  0
   -0.3342   -1.9179    0.8701 O   0  0  0  0  0  0  0  0  0  0  0  0
   -1.4227   -0.0825    0.1117 N   0  0  0  0  0  0  0  0  0  0  0  0
   -2.3046    0.4083    0.2265 H   0  0  0  0  0  0  0  0  0  0  0  0
   -0.2184    0.7609    0.0220 C   0  0  1  0  0  0  0  0  0  0  0  0
    0.6766    0.1357   -0.0731 H   0  0  0  0  0  0  0  0  0  0  0  0
   -0.3193    1.6440   -1.2317 C   0  0  0  0  0  0  0  0  0  0  0  0
   -1.2317    2.2456   -1.1843 H   0  0  0  0  0  0  0  0  0  0  0  0
    0.5306    2.3311   -1.2773 H   0  0  0  0  0  0  0  0  0  0  0  0
   -0.3224    0.8134   -2.4792 C   0  0  0  0  0  0  0  0  0  0  0  0
    0.8183    0.2078   -2.9872 N   0  0  0  0  0  0  0  0  0  0  0  0
    0.4487   -0.4178   -4.0788 C   0  0  0  0  0  0  0  0  0  0  0  0
    1.1098   -1.0025   -4.7124 H   0  0  0  0  0  0  0  0  0  0  0  0
   -0.9005   -0.2168   -4.3065 N   0  0  0  0  0  0  0  0  0  0  0  0
   -1.4262   -0.5982   -5.0907 H   0  0  0  0  0  0  0  0  0  0  0  0
   -1.3952    0.5764   -3.2924 C   0  0  0  0  0  0  0  0  0  0  0  0
   -2.4092    0.9370   -3.1520 H   0  0  0  0  0  0  0  0  0  0  0  0
   -0.0462    1.6477    1.2726 C   0  0  0  0  0  0  0  0  0  0  0  0
   -1.0110    1.8991    1.9885 O   0  0  0  0  0  0  0  0  0  0  0  0
    1.1637    2.2695    1.5220 N   0  0  0  0  0  0  0  0  0  0  0  0
    1.9526    2.0019    0.9390 H   0  0  0  0  0  0  0  0  0  0  0  0
    1.4015    3.1195    2.6817 C   0  0  0  0  0  0  0  0  0  0  0  0
    1.2515    2.5545    3.6076 H   0  0  0  0  0  0  0  0  0  0  0  0
    2.4282    3.4976    2.6688 H   0  0  0  0  0  0  0  0  0  0  0  0
    0.7186    3.9754    2.6763 H   0  0  0  0  0  0  0  0  0  0  0  0
  1  2  1  0  0  0  0
  2  3  1  0  0  0  0
  2  4  1  0  0  0  0
  2  5  1  0  0  0  0
  5  6  2  0  0  0  0
  5  7  1  0  0  0  0
  7  8  1  0  0  0  0
  7  9  1  0  0  0  0
  9 10  1  0  0  0  0
  9 11  1  0  0  0  0
  9 22  1  0  0  0  0
 11 12  1  0  0  0  0
 11 13  1  0  0  0  0
 11 14  1  0  0  0  0
 14 15  1  0  0  0  0
 14 20  2  0  0  0  0
 15 16  2  0  0  0  0
 16 17  1  0  0  0  0
 16 18  1  0  0  0  0
 18 19  1  0  0  0  0
 18 20  1  0  0  0  0
 20 21  1  0  0  0  0
 22 23  2  0  0  0  0
 22 24  1  0  0  0  0
 24 25  1  0  0  0  0
 24 26  1  0  0  0  0
 26 27  1  0  0  0  0
 26 28  1  0  0  0  0
 26 29  1  0  0  0  0
M  END
$$$$

  -OEChem-01062216083D

 29 29  0     1  0  0  0  0  0999 V2000
   -2.4218   -3.0280    1.4936 H   0  0  0  0  0  0  0  0  0  0  0  0
   -2.6499   -2.0278    1.1147 C   0  0  0  0  0  0  0  0  0  0  0  0
   -3.0999   -1.4414    1.9196 H   0  0  0  0  0  0  0  0  0  0  0  0
   -3.3624   -2.1164    0.2914 H   0  0  0  0  0  0  0  0  0  0  0  0
   -1.3811   -1.3513    0.6317 C   0  0  0  0  0  0  0  0  0  0  0  0
   -0.3111   -1.9321    0.7255 O   0  0  0  0  0  0  0  0  0  0  0  0
   -1.4490   -0.0832    0.0890 N   0  0  0  0  0  0  0  0  0  0  0  0
   -2.3268    0.3941    0.2634 H   0  0  0  0  0  0  0  0  0  0  0  0
   -0.2471    0.7658    0.0110 C   0  0  1  0  0  0  0  0  0  0  0  0
    0.6004    0.1727   -0.3518 H   0  0  0  0  0  0  0  0  0  0  0  0
   -0.5133    1.8933   -1.0022 C   0  0  0  0  0  0  0  0  0  0  0  0
   -1.3954    2.4619   -0.6945 H   0  0  0  0  0  0  0  0  0  0  0  0
    0.3330    2.5849   -1.0330 H   0  0  0  0  0  0  0  0  0  0  0  0
   -0.7166    1.3464   -2.3832 C   0  0  0  0  0  0  0  0  0  0  0  0
    0.3252    0.8754   -3.1700 N   0  0  0  0  0  0  0  0  0  0  0  0
   -0.2110    0.4975   -4.3055 C   0  0  0  0  0  0  0  0  0  0  0  0
    0.3394    0.0722   -5.1400 H   0  0  0  0  0  0  0  0  0  0  0  0
   -1.5745    0.7272   -4.2849 N   0  0  0  0  0  0  0  0  0  0  0  0
   -2.2158    0.5202   -5.0483 H   0  0  0  0  0  0  0  0  0  0  0  0
   -1.9007    1.2777   -3.0630 C   0  0  0  0  0  0  0  0  0  0  0  0
   -2.8763    1.5895   -2.7035 H   0  0  0  0  0  0  0  0  0  0  0  0
    0.1496    1.3601    1.3839 C   0  0  0  0  0  0  0  0  0  0  0  0
   -0.6119    1.2748    2.3426 O   0  0  0  0  0  0  0  0  0  0  0  0
    1.2596    2.1799    1.4910 N   0  0  0  0  0  0  0  0  0  0  0  0
    1.8972    2.1997    0.6997 H   0  0  0  0  0  0  0  0  0  0  0  0
    1.6734    2.8065    2.7406 C   0  0  0  0  0  0  0  0  0  0  0  0
    1.8817    2.0458    3.5003 H   0  0  0  0  0  0  0  0  0  0  0  0
    2.5807    3.3975    2.5843 H   0  0  0  0  0  0  0  0  0  0  0  0
    0.8886    3.4725    3.1144 H   0  0  0  0  0  0  0  0  0  0  0  0
  1  2  1  0  0  0  0
  2  3  1  0  0  0  0
  2  4  1  0  0  0  0
  2  5  1  0  0  0  0
  5  6  2  0  0  0  0
  5  7  1  0  0  0  0
  7  8  1  0  0  0  0
  7  9  1  0  0  0  0
  9 10  1  0  0  0  0
  9 11  1  0  0  0  0
  9 22  1  0  0  0  0
 11 12  1  0  0  0  0
 11 13  1  0  0  0  0
 11 14  1  0  0  0  0
 14 15  1  0  0  0  0
 14 20  2  0  0  0  0
 15 16  2  0  0  0  0
 16 17  1  0  0  0  0
 16 18  1  0  0  0  0
 18 19  1  0  0  0  0
 18 20  1  0  0  0  0
 20 21  1  0  0  0  0
 22 23  2  0  0  0  0
 22 24  1  0  0  0  0
 24 25  1  0  0  0  0
 24 26  1  0  0  0  0
 26 27  1  0  0  0  0
 26 28  1  0  0  0  0
 26 29  1  0  0  0  0
M  END
$$$$

  -OEChem-01062216083D

 29 29  0     1  0  0  0  0  0999 V2000
   -2.4133   -3.0218    1.4889 H   0  0  0  0  0  0  0  0  0  0  0  0
   -2.6448   -2.0181    1.1218 C   0  0  0  0  0  0  0  0  0  0  0  0
   -3.0717   -1.4343    1.9410 H   0  0  0  0  0  0  0  0  0  0  0  0
   -3.3775   -2.0976    0.3157 H   0  0  0  0  0  0  0  0  0  0  0  0
   -1.3832   -1.3460    0.6140 C   0  0  0  0  0  0  0  0  0  0  0  0
   -0.3191   -1.9433    0.6593 O   0  0  0  0  0  0  0  0  0  0  0  0
   -1.4549   -0.0719    0.0839 N   0  0  0  0  0  0  0  0  0  0  0  0
   -2.3317    0.4018    0.2715 H   0  0  0  0  0  0  0  0  0  0  0  0
   -0.2527    0.7788    0.0112 C   0  0  1  0  0  0  0  0  0  0  0  0
    0.5961    0.1884   -0.3531 H   0  0  0  0  0  0  0  0  0  0  0  0
   -0.5272    1.8990   -1.0110 C   0  0  0  0  0  0  0  0  0  0  0  0
   -1.4129    2.4641   -0.7067 H   0  0  0  0  0  0  0  0  0  0  0  0
    0.3148    2.5947   -1.0530 H   0  0  0  0  0  0  0  0  0  0  0  0
   -0.7251    1.3424   -2.3892 C   0  0  0  0  0  0  0  0  0  0  0  0
    0.3220    0.8755   -3.1709 N   0  0  0  0  0  0  0  0  0  0  0  0
   -0.2086    0.4859   -4.3051 C   0  0  0  0  0  0  0  0  0  0  0  0
    0.3470    0.0575   -5.1346 H   0  0  0  0  0  0  0  0  0  0  0  0
   -1.5734    0.7086   -4.2905 N   0  0  0  0  0  0  0  0  0  0  0  0
   -2.2110    0.4921   -5.0545 H   0  0  0  0  0  0  0  0  0  0  0  0
   -1.9066    1.2641   -3.0727 C   0  0  0  0  0  0  0  0  0  0  0  0
   -2.8853    1.5723   -2.7186 H   0  0  0  0  0  0  0  0  0  0  0  0
    0.1526    1.3642    1.3899 C   0  0  0  0  0  0  0  0  0  0  0  0
   -0.4752    1.0713    2.4025 O   0  0  0  0  0  0  0  0  0  0  0  0
    1.0549    2.4120    1.4692 N   0  0  0  0  0  0  0  0  0  0  0  0
    1.5965    2.6182    0.6346 H   0  0  0  0  0  0  0  0  0  0  0  0
    1.4351    3.0497    2.7243 C   0  0  0  0  0  0  0  0  0  0  0  0
    1.8768    2.3172    3.4080 H   0  0  0  0  0  0  0  0  0  0  0  0
    2.1706    3.8386    2.5399 H   0  0  0  0  0  0  0  0  0  0  0  0
    0.5609    3.4999    3.2063 H   0  0  0  0  0  0  0  0  0  0  0  0
  1  2  1  0  0  0  0
  2  3  1  0  0  0  0
  2  4  1  0  0  0  0
  2  5  1  0  0  0  0
  5  6  2  0  0  0  0
  5  7  1  0  0  0  0
  7  8  1  0  0  0  0
  7  9  1  0  0  0  0
  9 10  1  0  0  0  0
  9 11  1  0  0  0  0
  9 22  1  0  0  0  0
 11 12  1  0  0  0  0
 11 13  1  0  0  0  0
 11 14  1  0  0  0  0
 14 15  1  0  0  0  0
 14 20  2  0  0  0  0
 15 16  2  0  0  0  0
 16 17  1  0  0  0  0
 16 18  1  0  0  0  0
 18 19  1  0  0  0  0
 18 20  1  0  0  0  0
 20 21  1  0  0  0  0
 22 23  2  0  0  0  0
 22 24  1  0  0  0  0
 24 25  1  0  0  0  0
 24 26  1  0  0  0  0
 26 27  1  0  0  0  0
 26 28  1  0  0  0  0
 26 29  1  0  0  0  0
M  END
$$$$

  -OEChem-01062216083D

 29 29  0     1  0  0  0  0  0999 V2000
   -2.4016   -3.0001    1.5161 H   0  0  0  0  0  0  0  0  0  0  0  0
   -2.6380   -2.0020    1.1368 C   0  0  0  0  0  0  0  0  0  0  0  0
   -3.0504   -1.4054    1.9541 H   0  0  0  0  0  0  0  0  0  0  0  0
   -3.3841   -2.0930    0.3442 H   0  0  0  0  0  0  0  0  0  0  0  0
   -1.3841   -1.3395    0.5980 C   0  0  0  0  0  0  0  0  0  0  0  0
   -0.3297   -1.9549    0.5936 O   0  0  0  0  0  0  0  0  0  0  0  0
   -1.4582   -0.0607    0.0788 N   0  0  0  0  0  0  0  0  0  0  0  0
   -2.3340    0.4098    0.2766 H   0  0  0  0  0  0  0  0  0  0  0  0
   -0.2577    0.7933    0.0058 C   0  0  1  0  0  0  0  0  0  0  0  0
    0.5922    0.2049   -0.3597 H   0  0  0  0  0  0  0  0  0  0  0  0
   -0.5377    1.9057   -1.0256 C   0  0  0  0  0  0  0  0  0  0  0  0
   -1.4248    2.4712   -0.7261 H   0  0  0  0  0  0  0  0  0  0  0  0
    0.3030    2.6018   -1.0770 H   0  0  0  0  0  0  0  0  0  0  0  0
   -0.7311    1.3399   -2.4008 C   0  0  0  0  0  0  0  0  0  0  0  0
    0.3200    0.8748   -3.1777 N   0  0  0  0  0  0  0  0  0  0  0  0
   -0.2057    0.4739   -4.3100 C   0  0  0  0  0  0  0  0  0  0  0  0
    0.3541    0.0437   -5.1356 H   0  0  0  0  0  0  0  0  0  0  0  0
   -1.5719    0.6878   -4.2991 N   0  0  0  0  0  0  0  0  0  0  0  0
   -2.2071    0.4595   -5.0616 H   0  0  0  0  0  0  0  0  0  0  0  0
   -1.9111    1.2490   -3.0854 C   0  0  0  0  0  0  0  0  0  0  0  0
   -2.8930    1.5514   -2.7354 H   0  0  0  0  0  0  0  0  0  0  0  0
    0.1537    1.3701    1.3897 C   0  0  0  0  0  0  0  0  0  0  0  0
   -0.2873    0.8858    2.4263 O   0  0  0  0  0  0  0  0  0  0  0  0
    0.7970    2.5940    1.4865 N   0  0  0  0  0  0  0  0  0  0  0  0
    1.1952    2.9751    0.6333 H   0  0  0  0  0  0  0  0  0  0  0  0
    1.1403    3.2233    2.7567 C   0  0  0  0  0  0  0  0  0  0  0  0
    1.7969    2.5711    3.3422 H   0  0  0  0  0  0  0  0  0  0  0  0
    1.6599    4.1699    2.5806 H   0  0  0  0  0  0  0  0  0  0  0  0
    0.2367    3.4298    3.3399 H   0  0  0  0  0  0  0  0  0  0  0  0
  1  2  1  0  0  0  0
  2  3  1  0  0  0  0
  2  4  1  0  0  0  0
  2  5  1  0  0  0  0
  5  6  2  0  0  0  0
  5  7  1  0  0  0  0
  7  8  1  0  0  0  0
  7  9  1  0  0  0  0
  9 10  1  0  0  0  0
  9 11  1  0  0  0  0
  9 22  1  0  0  0  0
 11 12  1  0  0  0  0
 11 13  1  0  0  0  0
 11 14  1  0  0  0  0
 14 15  1  0  0  0  0
 14 20  2  0  0  0  0
 15 16  2  0  0  0  0
 16 17  1  0  0  0  0
 16 18  1  0  0  0  0
 18 19  1  0  0  0  0
 18 20  1  0  0  0  0
 20 21  1  0  0  0  0
 22 23  2  0  0  0  0
 22 24  1  0  0  0  0
 24 25  1  0  0  0  0
 24 26  1  0  0  0  0
 26 27  1  0  0  0  0
 26 28  1  0  0  0  0
 26 29  1  0  0  0  0
M  END
$$$$

  -OEChem-01062216083D

 29 29  0     1  0  0  0  0  0999 V2000
   -2.4124   -3.0096    1.4662 H   0  0  0  0  0  0  0  0  0  0  0  0
   -2.6386   -1.9907    1.1391 C   0  0  0  0  0  0  0  0  0  0  0  0
   -3.0127   -1.4231    1.9946 H   0  0  0  0  0  0  0  0  0  0  0  0
   -3.4101   -2.0313    0.3669 H   0  0  0  0  0  0  0  0  0  0  0  0
   -1.3880   -1.3302    0.5907 C   0  0  0  0  0  0  0  0  0  0  0  0
   -0.3428   -1.9587    0.5486 O   0  0  0  0  0  0  0  0  0  0  0  0
   -1.4633   -0.0477    0.0799 N   0  0  0  0  0  0  0  0  0  0  0  0
   -2.3432    0.4180    0.2700 H   0  0  0  0  0  0  0  0  0  0  0  0
   -0.2668    0.8122    0.0037 C   0  0  1  0  0  0  0  0  0  0  0  0
    0.5846    0.2245   -0.3596 H   0  0  0  0  0  0  0  0  0  0  0  0
   -0.5451    1.9161   -1.0371 C   0  0  0  0  0  0  0  0  0  0  0  0
   -1.4346    2.4830   -0.7479 H   0  0  0  0  0  0  0  0  0  0  0  0
    0.2981    2.6101   -1.0894 H   0  0  0  0  0  0  0  0  0  0  0  0
   -0.7299    1.3379   -2.4085 C   0  0  0  0  0  0  0  0  0  0  0  0
    0.3247    0.8693   -3.1780 N   0  0  0  0  0  0  0  0  0  0  0  0
   -0.1974    0.4515   -4.3058 C   0  0  0  0  0  0  0  0  0  0  0  0
    0.3658    0.0143   -5.1254 H   0  0  0  0  0  0  0  0  0  0  0  0
   -1.5647    0.6584   -4.2996 N   0  0  0  0  0  0  0  0  0  0  0  0
   -2.1973    0.4173   -5.0603 H   0  0  0  0  0  0  0  0  0  0  0  0
   -1.9086    1.2319   -3.0932 C   0  0  0  0  0  0  0  0  0  0  0  0
   -2.8928    1.5305   -2.7469 H   0  0  0  0  0  0  0  0  0  0  0  0
    0.1490    1.3838    1.3893 C   0  0  0  0  0  0  0  0  0  0  0  0
   -0.0446    0.7443    2.4158 O   0  0  0  0  0  0  0  0  0  0  0  0
    0.4988    2.7173    1.5376 N   0  0  0  0  0  0  0  0  0  0  0  0
    0.6912    3.2434    0.6910 H   0  0  0  0  0  0  0  0  0  0  0  0
    0.8189    3.3262    2.8240 C   0  0  0  0  0  0  0  0  0  0  0  0
    1.6762    2.8227    3.2831 H   0  0  0  0  0  0  0  0  0  0  0  0
    1.0685    4.3830    2.6901 H   0  0  0  0  0  0  0  0  0  0  0  0
   -0.0362    3.2581    3.5048 H   0  0  0  0  0  0  0  0  0  0  0  0
  1  2  1  0  0  0  0
  2  3  1  0  0  0  0
  2  4  1  0  0  0  0
  2  5  1  0  0  0  0
  5  6  2  0  0  0  0
  5  7  1  0  0  0  0
  7  8  1  0  0  0  0
  7  9  1  0  0  0  0
  9 10  1  0  0  0  0
  9 11  1  0  0  0  0
  9 22  1  0  0  0  0
 11 12  1  0  0  0  0
 11 13  1  0  0  0  0
 11 14  1  0  0  0  0
 14 15  1  0  0  0  0
 14 20  2  0  0  0  0
 15 16  2  0  0  0  0
 16 17  1  0  0  0  0
 16 18  1  0  0  0  0
 18 19  1  0  0  0  0
 18 20  1  0  0  0  0
 20 21  1  0  0  0  0
 22 23  2  0  0  0  0
 22 24  1  0  0  0  0
 24 25  1  0  0  0  0
 24 26  1  0  0  0  0
 26 27  1  0  0  0  0
 26 28  1  0  0  0  0
 26 29  1  0  0  0  0
M  END
$$$$

  -OEChem-01062216083D

 29 29  0     1  0  0  0  0  0999 V2000
   -2.4035   -2.9845    1.5381 H   0  0  0  0  0  0  0  0  0  0  0  0
   -2.6451   -1.9949    1.1399 C   0  0  0  0  0  0  0  0  0  0  0  0
   -3.0693   -1.3889    1.9439 H   0  0  0  0  0  0  0  0  0  0  0  0
   -3.3835   -2.1053    0.3426 H   0  0  0  0  0  0  0  0  0  0  0  0
   -1.3921   -1.3329    0.5989 C   0  0  0  0  0  0  0  0  0  0  0  0
   -0.3510   -1.9663    0.5494 O   0  0  0  0  0  0  0  0  0  0  0  0
   -1.4664   -0.0503    0.0881 N   0  0  0  0  0  0  0  0  0  0  0  0
   -2.3536    0.4103    0.2536 H   0  0  0  0  0  0  0  0  0  0  0  0
   -0.2745    0.8152    0.0080 C   0  0  1  0  0  0  0  0  0  0  0  0
    0.5790    0.2280   -0.3512 H   0  0  0  0  0  0  0  0  0  0  0  0
   -0.5478    1.9168   -1.0357 C   0  0  0  0  0  0  0  0  0  0  0  0
   -1.4400    2.4839   -0.7544 H   0  0  0  0  0  0  0  0  0  0  0  0
    0.2980    2.6090   -1.0787 H   0  0  0  0  0  0  0  0  0  0  0  0
   -0.7269    1.3376   -2.4075 C   0  0  0  0  0  0  0  0  0  0  0  0
    0.3288    0.8673   -3.1739 N   0  0  0  0  0  0  0  0  0  0  0  0
   -0.1898    0.4503   -4.3036 C   0  0  0  0  0  0  0  0  0  0  0  0
    0.3758    0.0117   -5.1207 H   0  0  0  0  0  0  0  0  0  0  0  0
   -1.5567    0.6603   -4.3018 N   0  0  0  0  0  0  0  0  0  0  0  0
   -2.1871    0.4211   -5.0649 H   0  0  0  0  0  0  0  0  0  0  0  0
   -1.9033    1.2356   -3.0971 C   0  0  0  0  0  0  0  0  0  0  0  0
   -2.8878    1.5384   -2.7554 H   0  0  0  0  0  0  0  0  0  0  0  0
    0.1390    1.3885    1.3920 C   0  0  0  0  0  0  0  0  0  0  0  0
    0.2267    0.6638    2.3738 O   0  0  0  0  0  0  0  0  0  0  0  0
    0.1812    2.7570    1.6128 N   0  0  0  0  0  0  0  0  0  0  0  0
    0.1385    3.3608    0.7983 H   0  0  0  0  0  0  0  0  0  0  0  0
    0.4916    3.3527    2.9075 C   0  0  0  0  0  0  0  0  0  0  0  0
    1.4869    3.0426    3.2428 H   0  0  0  0  0  0  0  0  0  0  0  0
    0.4748    4.4443    2.8354 H   0  0  0  0  0  0  0  0  0  0  0  0
   -0.2446    3.0458    3.6578 H   0  0  0  0  0  0  0  0  0  0  0  0
  1  2  1  0  0  0  0
  2  3  1  0  0  0  0
  2  4  1  0  0  0  0
  2  5  1  0  0  0  0
  5  6  2  0  0  0  0
  5  7  1  0  0  0  0
  7  8  1  0  0  0  0
  7  9  1  0  0  0  0
  9 10  1  0  0  0  0
  9 11  1  0  0  0  0
  9 22  1  0  0  0  0
 11 12  1  0  0  0  0
 11 13  1  0  0  0  0
 11 14  1  0  0  0  0
 14 15  1  0  0  0  0
 14 20  2  0  0  0  0
 15 16  2  0  0  0  0
 16 17  1  0  0  0  0
 16 18  1  0  0  0  0
 18 19  1  0  0  0  0
 18 20  1  0  0  0  0
 20 21  1  0  0  0  0
 22 23  2  0  0  0  0
 22 24  1  0  0  0  0
 24 25  1  0  0  0  0
 24 26  1  0  0  0  0
 26 27  1  0  0  0  0
 26 28  1  0  0  0  0
 26 29  1  0  0  0  0
M  END
$$$$

  -OEChem-01062216083D

 29 29  0     1  0  0  0  0  0999 V2000
   -2.4369   -3.0026    1.5055 H   0  0  0  0  0  0  0  0  0  0  0  0
   -2.6704   -2.0176    1.0911 C   0  0  0  0  0  0  0  0  0  0  0  0
   -3.1488   -1.4160    1.8673 H   0  0  0  0  0  0  0  0  0  0  0  0
   -3.3605   -2.1420    0.2534 H   0  0  0  0  0  0  0  0  0  0  0  0
   -1.3991   -1.3374    0.6190 C   0  0  0  0  0  0  0  0  0  0  0  0
   -0.3511   -1.9592    0.6200 O   0  0  0  0  0  0  0  0  0  0  0  0
   -1.4657   -0.0547    0.1081 N   0  0  0  0  0  0  0  0  0  0  0  0
   -2.3664    0.3963    0.2163 H   0  0  0  0  0  0  0  0  0  0  0  0
   -0.2809    0.8193    0.0243 C   0  0  1  0  0  0  0  0  0  0  0  0
    0.5749    0.2341   -0.3334 H   0  0  0  0  0  0  0  0  0  0  0  0
   -0.5540    1.9197   -1.0194 C   0  0  0  0  0  0  0  0  0  0  0  0
   -1.4513    2.4815   -0.7455 H   0  0  0  0  0  0  0  0  0  0  0  0
    0.2889    2.6168   -1.0520 H   0  0  0  0  0  0  0  0  0  0  0  0
   -0.7270    1.3378   -2.3913 C   0  0  0  0  0  0  0  0  0  0  0  0
    0.3312    0.8690   -3.1550 N   0  0  0  0  0  0  0  0  0  0  0  0
   -0.1832    0.4469   -4.2844 C   0  0  0  0  0  0  0  0  0  0  0  0
    0.3853    0.0072   -5.0991 H   0  0  0  0  0  0  0  0  0  0  0  0
   -1.5508    0.6526   -4.2858 N   0  0  0  0  0  0  0  0  0  0  0  0
   -2.1788    0.4086   -5.0494 H   0  0  0  0  0  0  0  0  0  0  0  0
   -1.9018    1.2298   -3.0831 C   0  0  0  0  0  0  0  0  0  0  0  0
   -2.8884    1.5302   -2.7453 H   0  0  0  0  0  0  0  0  0  0  0  0
    0.1298    1.3982    1.4037 C   0  0  0  0  0  0  0  0  0  0  0  0
    0.5454    0.6749    2.2968 O   0  0  0  0  0  0  0  0  0  0  0  0
   -0.1301    2.7228    1.7216 N   0  0  0  0  0  0  0  0  0  0  0  0
   -0.4343    3.3320    0.9695 H   0  0  0  0  0  0  0  0  0  0  0  0
    0.1989    3.3164    3.0128 C   0  0  0  0  0  0  0  0  0  0  0  0
    1.2758    3.2514    3.2007 H   0  0  0  0  0  0  0  0  0  0  0  0
   -0.0925    4.3709    3.0295 H   0  0  0  0  0  0  0  0  0  0  0  0
   -0.3316    2.7992    3.8192 H   0  0  0  0  0  0  0  0  0  0  0  0
  1  2  1  0  0  0  0
  2  3  1  0  0  0  0
  2  4  1  0  0  0  0
  2  5  1  0  0  0  0
  5  6  2  0  0  0  0
  5  7  1  0  0  0  0
  7  8  1  0  0  0  0
  7  9  1  0  0  0  0
  9 10  1  0  0  0  0
  9 11  1  0  0  0  0
  9 22  1  0  0  0  0
 11 12  1  0  0  0  0
 11 13  1  0  0  0  0
 11 14  1  0  0  0  0
 14 15  1  0  0  0  0
 14 20  2  0  0  0  0
 15 16  2  0  0  0  0
 16 17  1  0  0  0  0
 16 18  1  0  0  0  0
 18 19  1  0  0  0  0
 18 20  1  0  0  0  0
 20 21  1  0  0  0  0
 22 23  2  0  0  0  0
 22 24  1  0  0  0  0
 24 25  1  0  0  0  0
 24 26  1  0  0  0  0
 26 27  1  0  0  0  0
 26 28  1  0  0  0  0
 26 29  1  0  0  0  0
M  END
$$$$

  -OEChem-01062216083D

 29 29  0     1  0  0  0  0  0999 V2000
   -2.5079   -3.0623    1.4013 H   0  0  0  0  0  0  0  0  0  0  0  0
   -2.7192   -2.0769    0.9762 C   0  0  0  0  0  0  0  0  0  0  0  0
   -3.3063   -1.5030    1.6969 H   0  0  0  0  0  0  0  0  0  0  0  0
   -3.2995   -2.2063    0.0597 H   0  0  0  0  0  0  0  0  0  0  0  0
   -1.4211   -1.3539    0.6698 C   0  0  0  0  0  0  0  0  0  0  0  0
   -0.3621   -1.9318    0.8315 O   0  0  0  0  0  0  0  0  0  0  0  0
   -1.4659   -0.0731    0.1540 N   0  0  0  0  0  0  0  0  0  0  0  0
   -2.3846    0.3510    0.1081 H   0  0  0  0  0  0  0  0  0  0  0  0
   -0.2870    0.8079    0.0649 C   0  0  1  0  0  0  0  0  0  0  0  0
    0.5694    0.2220   -0.2913 H   0  0  0  0  0  0  0  0  0  0  0  0
   -0.5618    1.9076   -0.9782 C   0  0  0  0  0  0  0  0  0  0  0  0
   -1.4605    2.4670   -0.7062 H   0  0  0  0  0  0  0  0  0  0  0  0
    0.2787    2.6082   -1.0038 H   0  0  0  0  0  0  0  0  0  0  0  0
   -0.7333    1.3282   -2.3517 C   0  0  0  0  0  0  0  0  0  0  0  0
    0.3252    0.8626   -3.1165 N   0  0  0  0  0  0  0  0  0  0  0  0
   -0.1854    0.4510   -4.2513 C   0  0  0  0  0  0  0  0  0  0  0  0
    0.3858    0.0196   -5.0687 H   0  0  0  0  0  0  0  0  0  0  0  0
   -1.5531    0.6558   -4.2534 N   0  0  0  0  0  0  0  0  0  0  0  0
   -2.1781    0.4247   -5.0233 H   0  0  0  0  0  0  0  0  0  0  0  0
   -1.9068    1.2247   -3.0473 C   0  0  0  0  0  0  0  0  0  0  0  0
   -2.8939    1.5274   -2.7127 H   0  0  0  0  0  0  0  0  0  0  0  0
    0.1244    1.4023    1.4350 C   0  0  0  0  0  0  0  0  0  0  0  0
    0.9031    0.8199    2.1744 O   0  0  0  0  0  0  0  0  0  0  0  0
   -0.4037    2.6096    1.8663 N   0  0  0  0  0  0  0  0  0  0  0  0
   -0.9955    3.1200    1.2204 H   0  0  0  0  0  0  0  0  0  0  0  0
   -0.0232    3.2457    3.1223 C   0  0  0  0  0  0  0  0  0  0  0  0
    1.0456    3.4848    3.1217 H   0  0  0  0  0  0  0  0  0  0  0  0
   -0.5861    4.1735    3.2623 H   0  0  0  0  0  0  0  0  0  0  0  0
   -0.2353    2.5829    3.9680 H   0  0  0  0  0  0  0  0  0  0  0  0
  1  2  1  0  0  0  0
  2  3  1  0  0  0  0
  2  4  1  0  0  0  0
  2  5  1  0  0  0  0
  5  6  2  0  0  0  0
  5  7  1  0  0  0  0
  7  8  1  0  0  0  0
  7  9  1  0  0  0  0
  9 10  1  0  0  0  0
  9 11  1  0  0  0  0
  9 22  1  0  0  0  0
 11 12  1  0  0  0  0
 11 13  1  0  0  0  0
 11 14  1  0  0  0  0
 14 15  1  0  0  0  0
 14 20  2  0  0  0  0
 15 16  2  0  0  0  0
 16 17  1  0  0  0  0
 16 18  1  0  0  0  0
 18 19  1  0  0  0  0
 18 20  1  0  0  0  0
 20 21  1  0  0  0  0
 22 23  2  0  0  0  0
 22 24  1  0  0  0  0
 24 25  1  0  0  0  0
 24 26  1  0  0  0  0
 26 27  1  0  0  0  0
 26 28  1  0  0  0  0
 26 29  1  0  0  0  0
M  END
$$$$

  -OEChem-01062216083D

 29 29  0     1  0  0  0  0  0999 V2000
   -2.5427   -3.1624    1.1566 H   0  0  0  0  0  0  0  0  0  0  0  0
   -2.7268   -2.1859    0.6994 C   0  0  0  0  0  0  0  0  0  0  0  0
   -3.5667   -1.7109    1.2114 H   0  0  0  0  0  0  0  0  0  0  0  0
   -2.9829   -2.3334   -0.3524 H   0  0  0  0  0  0  0  0  0  0  0  0
   -1.4895   -1.3154    0.8166 C   0  0  0  0  0  0  0  0  0  0  0  0
   -0.5080   -1.7424    1.3946 O   0  0  0  0  0  0  0  0  0  0  0  0
   -1.4946   -0.0513    0.2612 N   0  0  0  0  0  0  0  0  0  0  0  0
   -2.2865    0.1644   -0.3332 H   0  0  0  0  0  0  0  0  0  0  0  0
   -0.2913    0.7921    0.1416 C   0  0  1  0  0  0  0  0  0  0  0  0
    0.5414    0.1704   -0.2104 H   0  0  0  0  0  0  0  0  0  0  0  0
   -0.5412    1.8887   -0.9086 C   0  0  0  0  0  0  0  0  0  0  0  0
   -1.4117    2.4875   -0.6280 H   0  0  0  0  0  0  0  0  0  0  0  0
    0.3251    2.5569   -0.9525 H   0  0  0  0  0  0  0  0  0  0  0  0
   -0.7521    1.2987   -2.2717 C   0  0  0  0  0  0  0  0  0  0  0  0
    0.2699    0.7830   -3.0531 N   0  0  0  0  0  0  0  0  0  0  0  0
   -0.2760    0.3972   -4.1804 C   0  0  0  0  0  0  0  0  0  0  0  0
    0.2630   -0.0537   -5.0090 H   0  0  0  0  0  0  0  0  0  0  0  0
   -1.6341    0.6570   -4.1570 N   0  0  0  0  0  0  0  0  0  0  0  0
   -2.2790    0.4677   -4.9226 H   0  0  0  0  0  0  0  0  0  0  0  0
   -1.9411    1.2438   -2.9465 C   0  0  0  0  0  0  0  0  0  0  0  0
   -2.9058    1.6032   -2.6022 H   0  0  0  0  0  0  0  0  0  0  0  0
    0.1500    1.4182    1.4860 C   0  0  0  0  0  0  0  0  0  0  0  0
    1.2283    1.1302    1.9858 O   0  0  0  0  0  0  0  0  0  0  0  0
   -0.5577    2.4802    2.0264 N   0  0  0  0  0  0  0  0  0  0  0  0
   -1.4627    2.6898    1.6204 H   0  0  0  0  0  0  0  0  0  0  0  0
   -0.1556    3.1664    3.2482 C   0  0  0  0  0  0  0  0  0  0  0  0
    0.8285    3.6295    3.1206 H   0  0  0  0  0  0  0  0  0  0  0  0
   -0.8762    3.9509    3.4971 H   0  0  0  0  0  0  0  0  0  0  0  0
   -0.1074    2.4612    4.0848 H   0  0  0  0  0  0  0  0  0  0  0  0
  1  2  1  0  0  0  0
  2  3  1  0  0  0  0
  2  4  1  0  0  0  0
  2  5  1  0  0  0  0
  5  6  2  0  0  0  0
  5  7  1  0  0  0  0
  7  8  1  0  0  0  0
  7  9  1  0  0  0  0
  9 10  1  0  0  0  0
  9 11  1  0  0  0  0
  9 22  1  0  0  0  0
 11 12  1  0  0  0  0
 11 13  1  0  0  0  0
 11 14  1  0  0  0  0
 14 15  1  0  0  0  0
 14 20  2  0  0  0  0
 15 16  2  0  0  0  0
 16 17  1  0  0  0  0
 16 18  1  0  0  0  0
 18 19  1  0  0  0  0
 18 20  1  0  0  0  0
 20 21  1  0  0  0  0
 22 23  2  0  0  0  0
 22 24  1  0  0  0  0
 24 25  1  0  0  0  0
 24 26  1  0  0  0  0
 26 27  1  0  0  0  0
 26 28  1  0  0  0  0
 26 29  1  0  0  0  0
M  END
$$$$

  -OEChem-01062216083D

 29 29  0     1  0  0  0  0  0999 V2000
   -2.5237   -3.1894    1.1277 H   0  0  0  0  0  0  0  0  0  0  0  0
   -2.7103   -2.2192    0.6583 C   0  0  0  0  0  0  0  0  0  0  0  0
   -3.5939   -1.7706    1.1179 H   0  0  0  0  0  0  0  0  0  0  0  0
   -2.8986   -2.3757   -0.4064 H   0  0  0  0  0  0  0  0  0  0  0  0
   -1.5095   -1.3109    0.8461 C   0  0  0  0  0  0  0  0  0  0  0  0
   -0.5631   -1.6925    1.5090 O   0  0  0  0  0  0  0  0  0  0  0  0
   -1.5085   -0.0548    0.2730 N   0  0  0  0  0  0  0  0  0  0  0  0
   -2.2508    0.1137   -0.3970 H   0  0  0  0  0  0  0  0  0  0  0  0
   -0.2883    0.7646    0.1508 C   0  0  1  0  0  0  0  0  0  0  0  0
    0.5347    0.1285   -0.1981 H   0  0  0  0  0  0  0  0  0  0  0  0
   -0.5170    1.8723   -0.8913 C   0  0  0  0  0  0  0  0  0  0  0  0
   -1.3708    2.4906   -0.6005 H   0  0  0  0  0  0  0  0  0  0  0  0
    0.3641    2.5206   -0.9348 H   0  0  0  0  0  0  0  0  0  0  0  0
   -0.7470    1.2948   -2.2561 C   0  0  0  0  0  0  0  0  0  0  0  0
    0.2565    0.7587   -3.0474 N   0  0  0  0  0  0  0  0  0  0  0  0
   -0.3050    0.3974   -4.1751 C   0  0  0  0  0  0  0  0  0  0  0  0
    0.2175   -0.0611   -5.0100 H   0  0  0  0  0  0  0  0  0  0  0  0
   -1.6556    0.6924   -4.1419 N   0  0  0  0  0  0  0  0  0  0  0  0
   -2.3082    0.5315   -4.9074 H   0  0  0  0  0  0  0  0  0  0  0  0
   -1.9403    1.2775   -2.9252 C   0  0  0  0  0  0  0  0  0  0  0  0
   -2.8924    1.6631   -2.5737 H   0  0  0  0  0  0  0  0  0  0  0  0
    0.1574    1.3955    1.4890 C   0  0  0  0  0  0  0  0  0  0  0  0
    1.3295    1.3484    1.8367 O   0  0  0  0  0  0  0  0  0  0  0  0
   -0.6978    2.2530    2.1612 N   0  0  0  0  0  0  0  0  0  0  0  0
   -1.6762    2.2178    1.8967 H   0  0  0  0  0  0  0  0  0  0  0  0
   -0.3267    2.9392    3.3926 C   0  0  0  0  0  0  0  0  0  0  0  0
    0.5418    3.5850    3.2250 H   0  0  0  0  0  0  0  0  0  0  0  0
   -1.1549    3.5619    3.7436 H   0  0  0  0  0  0  0  0  0  0  0  0
   -0.0805    2.2134    4.1749 H   0  0  0  0  0  0  0  0  0  0  0  0
  1  2  1  0  0  0  0
  2  3  1  0  0  0  0
  2  4  1  0  0  0  0
  2  5  1  0  0  0  0
  5  6  2  0  0  0  0
  5  7  1  0  0  0  0
  7  8  1  0  0  0  0
  7  9  1  0  0  0  0
  9 10  1  0  0  0  0
  9 11  1  0  0  0  0
  9 22  1  0  0  0  0
 11 12  1  0  0  0  0
 11 13  1  0  0  0  0
 11 14  1  0  0  0  0
 14 15  1  0  0  0  0
 14 20  2  0  0  0  0
 15 16  2  0  0  0  0
 16 17  1  0  0  0  0
 16 18  1  0  0  0  0
 18 19  1  0  0  0  0
 18 20  1  0  0  0  0
 20 21  1  0  0  0  0
 22 23  2  0  0  0  0
 22 24  1  0  0  0  0
 24 25  1  0  0  0  0
 24 26  1  0  0  0  0
 26 27  1  0  0  0  0
 26 28  1  0  0  0  0
 26 29  1  0  0  0  0
M  END
$$$$

  -OEChem-01062216083D

 29 29  0     1  0  0  0  0  0999 V2000
   -2.5410   -3.1743    1.1680 H   0  0  0  0  0  0  0  0  0  0  0  0
   -2.7016   -2.2292    0.6414 C   0  0  0  0  0  0  0  0  0  0  0  0
   -3.6145   -1.7653    1.0223 H   0  0  0  0  0  0  0  0  0  0  0  0
   -2.8219   -2.4378   -0.4244 H   0  0  0  0  0  0  0  0  0  0  0  0
   -1.5181   -1.3053    0.8590 C   0  0  0  0  0  0  0  0  0  0  0  0
   -0.5932   -1.6616    1.5658 O   0  0  0  0  0  0  0  0  0  0  0  0
   -1.5102   -0.0554    0.2733 N   0  0  0  0  0  0  0  0  0  0  0  0
   -2.2292    0.0942   -0.4265 H   0  0  0  0  0  0  0  0  0  0  0  0
   -0.2799    0.7493    0.1497 C   0  0  1  0  0  0  0  0  0  0  0  0
    0.5383    0.1054   -0.1958 H   0  0  0  0  0  0  0  0  0  0  0  0
   -0.5024    1.8591   -0.8899 C   0  0  0  0  0  0  0  0  0  0  0  0
   -1.3479    2.4853   -0.5915 H   0  0  0  0  0  0  0  0  0  0  0  0
    0.3852    2.4984   -0.9373 H   0  0  0  0  0  0  0  0  0  0  0  0
   -0.7449    1.2872   -2.2552 C   0  0  0  0  0  0  0  0  0  0  0  0
    0.2471    0.7418   -3.0551 N   0  0  0  0  0  0  0  0  0  0  0  0
   -0.3243    0.3998   -4.1838 C   0  0  0  0  0  0  0  0  0  0  0  0
    0.1886   -0.0566   -5.0258 H   0  0  0  0  0  0  0  0  0  0  0  0
   -1.6708    0.7121   -4.1418 N   0  0  0  0  0  0  0  0  0  0  0  0
   -2.3275    0.5725   -4.9079 H   0  0  0  0  0  0  0  0  0  0  0  0
   -1.9417    1.2904   -2.9187 C   0  0  0  0  0  0  0  0  0  0  0  0
   -2.8859    1.6894   -2.5605 H   0  0  0  0  0  0  0  0  0  0  0  0
    0.1681    1.3872    1.4830 C   0  0  0  0  0  0  0  0  0  0  0  0
    1.3568    1.5715    1.7085 O   0  0  0  0  0  0  0  0  0  0  0  0
   -0.7680    2.0016    2.2971 N   0  0  0  0  0  0  0  0  0  0  0  0
   -1.7353    1.7423    2.1349 H   0  0  0  0  0  0  0  0  0  0  0  0
   -0.4177    2.6442    3.5577 C   0  0  0  0  0  0  0  0  0  0  0  0
    0.2813    3.4696    3.3866 H   0  0  0  0  0  0  0  0  0  0  0  0
   -1.3142    3.0467    4.0385 H   0  0  0  0  0  0  0  0  0  0  0  0
    0.0479    1.9233    4.2380 H   0  0  0  0  0  0  0  0  0  0  0  0
  1  2  1  0  0  0  0
  2  3  1  0  0  0  0
  2  4  1  0  0  0  0
  2  5  1  0  0  0  0
  5  6  2  0  0  0  0
  5  7  1  0  0  0  0
  7  8  1  0  0  0  0
  7  9  1  0  0  0  0
  9 10  1  0  0  0  0
  9 11  1  0  0  0  0
  9 22  1  0  0  0  0
 11 12  1  0  0  0  0
 11 13  1  0  0  0  0
 11 14  1  0  0  0  0
 14 15  1  0  0  0  0
 14 20  2  0  0  0  0
 15 16  2  0  0  0  0
 16 17  1  0  0  0  0
 16 18  1  0  0  0  0
 18 19  1  0  0  0  0
 18 20  1  0  0  0  0
 20 21  1  0  0  0  0
 22 23  2  0  0  0  0
 22 24  1  0  0  0  0
 24 25  1  0  0  0  0
 24 26  1  0  0  0  0
 26 27  1  0  0  0  0
 26 28  1  0  0  0  0
 26 29  1  0  0  0  0
M  END
$$$$

  -OEChem-01062216083D

 29 29  0     1  0  0  0  0  0999 V2000
   -2.5545   -3.1707    1.1517 H   0  0  0  0  0  0  0  0  0  0  0  0
   -2.7049   -2.2289    0.6162 C   0  0  0  0  0  0  0  0  0  0  0  0
   -3.6233   -1.7609    0.9783 H   0  0  0  0  0  0  0  0  0  0  0  0
   -2.8078   -2.4447   -0.4500 H   0  0  0  0  0  0  0  0  0  0  0  0
   -1.5246   -1.3043    0.8472 C   0  0  0  0  0  0  0  0  0  0  0  0
   -0.6110   -1.6540    1.5720 O   0  0  0  0  0  0  0  0  0  0  0  0
   -1.5110   -0.0537    0.2640 N   0  0  0  0  0  0  0  0  0  0  0  0
   -2.2262    0.1008   -0.4388 H   0  0  0  0  0  0  0  0  0  0  0  0
   -0.2770    0.7479    0.1466 C   0  0  1  0  0  0  0  0  0  0  0  0
    0.5407    0.1039   -0.1988 H   0  0  0  0  0  0  0  0  0  0  0  0
   -0.5004    1.8594   -0.8912 C   0  0  0  0  0  0  0  0  0  0  0  0
   -1.3450    2.4853   -0.5894 H   0  0  0  0  0  0  0  0  0  0  0  0
    0.3866    2.4998   -0.9412 H   0  0  0  0  0  0  0  0  0  0  0  0
   -0.7432    1.2858   -2.2556 C   0  0  0  0  0  0  0  0  0  0  0  0
    0.2466    0.7392   -3.0578 N   0  0  0  0  0  0  0  0  0  0  0  0
   -0.3289    0.3940   -4.1836 C   0  0  0  0  0  0  0  0  0  0  0  0
    0.1807   -0.0657   -5.0259 H   0  0  0  0  0  0  0  0  0  0  0  0
   -1.6752    0.7071   -4.1377 N   0  0  0  0  0  0  0  0  0  0  0  0
   -2.3342    0.5686   -4.9019 H   0  0  0  0  0  0  0  0  0  0  0  0
   -1.9418    1.2881   -2.9152 C   0  0  0  0  0  0  0  0  0  0  0  0
   -2.8843    1.6880   -2.5538 H   0  0  0  0  0  0  0  0  0  0  0  0
    0.1745    1.3859    1.4799 C   0  0  0  0  0  0  0  0  0  0  0  0
    1.3215    1.7950    1.6063 O   0  0  0  0  0  0  0  0  0  0  0  0
   -0.7664    1.7269    2.4359 N   0  0  0  0  0  0  0  0  0  0  0  0
   -1.6618    1.2563    2.3534 H   0  0  0  0  0  0  0  0  0  0  0  0
   -0.4084    2.3254    3.7158 C   0  0  0  0  0  0  0  0  0  0  0  0
    0.0992    3.2836    3.5629 H   0  0  0  0  0  0  0  0  0  0  0  0
   -1.3068    2.5042    4.3141 H   0  0  0  0  0  0  0  0  0  0  0  0
    0.2565    1.6599    4.2764 H   0  0  0  0  0  0  0  0  0  0  0  0
  1  2  1  0  0  0  0
  2  3  1  0  0  0  0
  2  4  1  0  0  0  0
  2  5  1  0  0  0  0
  5  6  2  0  0  0  0
  5  7  1  0  0  0  0
  7  8  1  0  0  0  0
  7  9  1  0  0  0  0
  9 10  1  0  0  0  0
  9 11  1  0  0  0  0
  9 22  1  0  0  0  0
 11 12  1  0  0  0  0
 11 13  1  0  0  0  0
 11 14  1  0  0  0  0
 14 15  1  0  0  0  0
 14 20  2  0  0  0  0
 15 16  2  0  0  0  0
 16 17  1  0  0  0  0
 16 18  1  0  0  0  0
 18 19  1  0  0  0  0
 18 20  1  0  0  0  0
 20 21  1  0  0  0  0
 22 23  2  0  0  0  0
 22 24  1  0  0  0  0
 24 25  1  0  0  0  0
 24 26  1  0  0  0  0
 26 27  1  0  0  0  0
 26 28  1  0  0  0  0
 26 29  1  0  0  0  0
M  END
$$$$

  -OEChem-01062216083D

 29 29  0     1  0  0  0  0  0999 V2000
   -2.5637   -3.1792    1.0973 H   0  0  0  0  0  0  0  0  0  0  0  0
   -2.7153   -2.2297    0.5759 C   0  0  0  0  0  0  0  0  0  0  0  0
   -3.6422   -1.7757    0.9344 H   0  0  0  0  0  0  0  0  0  0  0  0
   -2.8036   -2.4285   -0.4950 H   0  0  0  0  0  0  0  0  0  0  0  0
   -1.5452   -1.2997    0.8362 C   0  0  0  0  0  0  0  0  0  0  0  0
   -0.6533   -1.6393    1.5926 O   0  0  0  0  0  0  0  0  0  0  0  0
   -1.5210   -0.0465    0.2593 N   0  0  0  0  0  0  0  0  0  0  0  0
   -2.2309    0.1154   -0.4474 H   0  0  0  0  0  0  0  0  0  0  0  0
   -0.2834    0.7527    0.1507 C   0  0  1  0  0  0  0  0  0  0  0  0
    0.5328    0.1070   -0.1943 H   0  0  0  0  0  0  0  0  0  0  0  0
   -0.5098    1.8607   -0.8922 C   0  0  0  0  0  0  0  0  0  0  0  0
   -1.3568    2.4848   -0.5928 H   0  0  0  0  0  0  0  0  0  0  0  0
    0.3735    2.5053   -0.9460 H   0  0  0  0  0  0  0  0  0  0  0  0
   -0.7479    1.2824   -2.2555 C   0  0  0  0  0  0  0  0  0  0  0  0
    0.2454    0.7376   -3.0547 N   0  0  0  0  0  0  0  0  0  0  0  0
   -0.3265    0.3892   -4.1813 C   0  0  0  0  0  0  0  0  0  0  0  0
    0.1866   -0.0692   -5.0221 H   0  0  0  0  0  0  0  0  0  0  0  0
   -1.6743    0.6960   -4.1383 N   0  0  0  0  0  0  0  0  0  0  0  0
   -2.3321    0.5511   -4.9024 H   0  0  0  0  0  0  0  0  0  0  0  0
   -1.9451    1.2789   -2.9176 C   0  0  0  0  0  0  0  0  0  0  0  0
   -2.8897    1.6766   -2.5590 H   0  0  0  0  0  0  0  0  0  0  0  0
    0.1766    1.3910    1.4840 C   0  0  0  0  0  0  0  0  0  0  0  0
    1.2377    2.0005    1.5370 O   0  0  0  0  0  0  0  0  0  0  0  0
   -0.6866    1.4589    2.5631 N   0  0  0  0  0  0  0  0  0  0  0  0
   -1.4504    0.7899    2.5399 H   0  0  0  0  0  0  0  0  0  0  0  0
   -0.2900    2.0099    3.8526 C   0  0  0  0  0  0  0  0  0  0  0  0
    0.0117    3.0572    3.7464 H   0  0  0  0  0  0  0  0  0  0  0  0
   -1.1261    1.9625    4.5565 H   0  0  0  0  0  0  0  0  0  0  0  0
    0.5486    1.4424    4.2690 H   0  0  0  0  0  0  0  0  0  0  0  0
  1  2  1  0  0  0  0
  2  3  1  0  0  0  0
  2  4  1  0  0  0  0
  2  5  1  0  0  0  0
  5  6  2  0  0  0  0
  5  7  1  0  0  0  0
  7  8  1  0  0  0  0
  7  9  1  0  0  0  0
  9 10  1  0  0  0  0
  9 11  1  0  0  0  0
  9 22  1  0  0  0  0
 11 12  1  0  0  0  0
 11 13  1  0  0  0  0
 11 14  1  0  0  0  0
 14 15  1  0  0  0  0
 14 20  2  0  0  0  0
 15 16  2  0  0  0  0
 16 17  1  0  0  0  0
 16 18  1  0  0  0  0
 18 19  1  0  0  0  0
 18 20  1  0  0  0  0
 20 21  1  0  0  0  0
 22 23  2  0  0  0  0
 22 24  1  0  0  0  0
 24 25  1  0  0  0  0
 24 26  1  0  0  0  0
 26 27  1  0  0  0  0
 26 28  1  0  0  0  0
 26 29  1  0  0  0  0
M  END
$$$$

  -OEChem-01062216083D

 29 29  0     1  0  0  0  0  0999 V2000
   -2.5940   -3.1748    1.0318 H   0  0  0  0  0  0  0  0  0  0  0  0
   -2.7404   -2.2088    0.5402 C   0  0  0  0  0  0  0  0  0  0  0  0
   -3.6575   -1.7541    0.9223 H   0  0  0  0  0  0  0  0  0  0  0  0
   -2.8435   -2.3750   -0.5349 H   0  0  0  0  0  0  0  0  0  0  0  0
   -1.5571   -1.3000    0.8131 C   0  0  0  0  0  0  0  0  0  0  0  0
   -0.6772   -1.6535    1.5780 O   0  0  0  0  0  0  0  0  0  0  0  0
   -1.5170   -0.0393    0.2560 N   0  0  0  0  0  0  0  0  0  0  0  0
   -2.2411    0.1528   -0.4284 H   0  0  0  0  0  0  0  0  0  0  0  0
   -0.2801    0.7634    0.1544 C   0  0  1  0  0  0  0  0  0  0  0  0
    0.5358    0.1200   -0.1953 H   0  0  0  0  0  0  0  0  0  0  0  0
   -0.5187    1.8662   -0.8939 C   0  0  0  0  0  0  0  0  0  0  0  0
   -1.3708    2.4832   -0.5953 H   0  0  0  0  0  0  0  0  0  0  0  0
    0.3572    2.5200   -0.9559 H   0  0  0  0  0  0  0  0  0  0  0  0
   -0.7518    1.2792   -2.2546 C   0  0  0  0  0  0  0  0  0  0  0  0
    0.2467    0.7407   -3.0522 N   0  0  0  0  0  0  0  0  0  0  0  0
   -0.3228    0.3817   -4.1767 C   0  0  0  0  0  0  0  0  0  0  0  0
    0.1946   -0.0734   -5.0164 H   0  0  0  0  0  0  0  0  0  0  0  0
   -1.6739    0.6734   -4.1335 N   0  0  0  0  0  0  0  0  0  0  0  0
   -2.3309    0.5188   -4.8966 H   0  0  0  0  0  0  0  0  0  0  0  0
   -1.9497    1.2591   -2.9153 C   0  0  0  0  0  0  0  0  0  0  0  0
   -2.8981    1.6483   -2.5577 H   0  0  0  0  0  0  0  0  0  0  0  0
    0.1897    1.3900    1.4941 C   0  0  0  0  0  0  0  0  0  0  0  0
    1.1039    2.2058    1.5056 O   0  0  0  0  0  0  0  0  0  0  0  0
   -0.5250    1.1811    2.6600 N   0  0  0  0  0  0  0  0  0  0  0  0
   -1.0785    0.3266    2.6566 H   0  0  0  0  0  0  0  0  0  0  0  0
   -0.0981    1.7112    3.9489 C   0  0  0  0  0  0  0  0  0  0  0  0
   -0.0355    2.8038    3.9137 H   0  0  0  0  0  0  0  0  0  0  0  0
   -0.8159    1.4336    4.7263 H   0  0  0  0  0  0  0  0  0  0  0  0
    0.8836    1.3104    4.2219 H   0  0  0  0  0  0  0  0  0  0  0  0
  1  2  1  0  0  0  0
  2  3  1  0  0  0  0
  2  4  1  0  0  0  0
  2  5  1  0  0  0  0
  5  6  2  0  0  0  0
  5  7  1  0  0  0  0
  7  8  1  0  0  0  0
  7  9  1  0  0  0  0
  9 10  1  0  0  0  0
  9 11  1  0  0  0  0
  9 22  1  0  0  0  0
 11 12  1  0  0  0  0
 11 13  1  0  0  0  0
 11 14  1  0  0  0  0
 14 15  1  0  0  0  0
 14 20  2  0  0  0  0
 15 16  2  0  0  0  0
 16 17  1  0  0  0  0
 16 18  1  0  0  0  0
 18 19  1  0  0  0  0
 18 20  1  0  0  0  0
 20 21  1  0  0  0  0
 22 23  2  0  0  0  0
 22 24  1  0  0  0  0
 24 25  1  0  0  0  0
 24 26  1  0  0  0  0
 26 27  1  0  0  0  0
 26 28  1  0  0  0  0
 26 29  1  0  0  0  0
M  END
$$$$

  -OEChem-01062216083D

 29 29  0     1  0  0  0  0  0999 V2000
   -2.5969   -3.1833    0.9916 H   0  0  0  0  0  0  0  0  0  0  0  0
   -2.7691   -2.1878    0.5723 C   0  0  0  0  0  0  0  0  0  0  0  0
   -3.6418   -1.7462    1.0596 H   0  0  0  0  0  0  0  0  0  0  0  0
   -2.9679   -2.2883   -0.4975 H   0  0  0  0  0  0  0  0  0  0  0  0
   -1.5516   -1.3105    0.7945 C   0  0  0  0  0  0  0  0  0  0  0  0
   -0.6386   -1.7020    1.5012 O   0  0  0  0  0  0  0  0  0  0  0  0
   -1.5101   -0.0423    0.2539 N   0  0  0  0  0  0  0  0  0  0  0  0
   -2.2703    0.1899   -0.3763 H   0  0  0  0  0  0  0  0  0  0  0  0
   -0.2816    0.7736    0.1514 C   0  0  1  0  0  0  0  0  0  0  0  0
    0.5368    0.1363   -0.2029 H   0  0  0  0  0  0  0  0  0  0  0  0
   -0.5290    1.8702   -0.9029 C   0  0  0  0  0  0  0  0  0  0  0  0
   -1.3870    2.4809   -0.6079 H   0  0  0  0  0  0  0  0  0  0  0  0
    0.3406    2.5316   -0.9688 H   0  0  0  0  0  0  0  0  0  0  0  0
   -0.7524    1.2759   -2.2619 C   0  0  0  0  0  0  0  0  0  0  0  0
    0.2558    0.7453   -3.0527 N   0  0  0  0  0  0  0  0  0  0  0  0
   -0.3030    0.3851   -4.1821 C   0  0  0  0  0  0  0  0  0  0  0  0
    0.2232   -0.0667   -5.0183 H   0  0  0  0  0  0  0  0  0  0  0  0
   -1.6555    0.6712   -4.1499 N   0  0  0  0  0  0  0  0  0  0  0  0
   -2.3041    0.5187   -4.9203 H   0  0  0  0  0  0  0  0  0  0  0  0
   -1.9445    1.2525   -2.9327 C   0  0  0  0  0  0  0  0  0  0  0  0
   -2.8969    1.6395   -2.5834 H   0  0  0  0  0  0  0  0  0  0  0  0
    0.1928    1.3921    1.4962 C   0  0  0  0  0  0  0  0  0  0  0  0
    0.9186    2.3798    1.5073 O   0  0  0  0  0  0  0  0  0  0  0  0
   -0.3067    0.9336    2.7016 N   0  0  0  0  0  0  0  0  0  0  0  0
   -0.6760   -0.0173    2.6622 H   0  0  0  0  0  0  0  0  0  0  0  0
    0.1522    1.4353    3.9905 C   0  0  0  0  0  0  0  0  0  0  0  0
   -0.0204    2.5140    4.0664 H   0  0  0  0  0  0  0  0  0  0  0  0
   -0.3926    0.9425    4.8013 H   0  0  0  0  0  0  0  0  0  0  0  0
    1.2217    1.2389    4.1189 H   0  0  0  0  0  0  0  0  0  0  0  0
  1  2  1  0  0  0  0
  2  3  1  0  0  0  0
  2  4  1  0  0  0  0
  2  5  1  0  0  0  0
  5  6  2  0  0  0  0
  5  7  1  0  0  0  0
  7  8  1  0  0  0  0
  7  9  1  0  0  0  0
  9 10  1  0  0  0  0
  9 11  1  0  0  0  0
  9 22  1  0  0  0  0
 11 12  1  0  0  0  0
 11 13  1  0  0  0  0
 11 14  1  0  0  0  0
 14 15  1  0  0  0  0
 14 20  2  0  0  0  0
 15 16  2  0  0  0  0
 16 17  1  0  0  0  0
 16 18  1  0  0  0  0
 18 19  1  0  0  0  0
 18 20  1  0  0  0  0
 20 21  1  0  0  0  0
 22 23  2  0  0  0  0
 22 24  1  0  0  0  0
 24 25  1  0  0  0  0
 24 26  1  0  0  0  0
 26 27  1  0  0  0  0
 26 28  1  0  0  0  0
 26 29  1  0  0  0  0
M  END
$$$$

  -OEChem-01062216083D

 29 29  0     1  0  0  0  0  0999 V2000
   -2.6258   -3.1556    1.0392 H   0  0  0  0  0  0  0  0  0  0  0  0
   -2.7889   -2.1551    0.6284 C   0  0  0  0  0  0  0  0  0  0  0  0
   -3.6129   -1.6822    1.1683 H   0  0  0  0  0  0  0  0  0  0  0  0
   -3.0578   -2.2489   -0.4265 H   0  0  0  0  0  0  0  0  0  0  0  0
   -1.5297   -1.3213    0.7701 C   0  0  0  0  0  0  0  0  0  0  0  0
   -0.5691   -1.7665    1.3764 O   0  0  0  0  0  0  0  0  0  0  0  0
   -1.4913   -0.0455    0.2466 N   0  0  0  0  0  0  0  0  0  0  0  0
   -2.3060    0.2465   -0.2822 H   0  0  0  0  0  0  0  0  0  0  0  0
   -0.2753    0.7873    0.1421 C   0  0  1  0  0  0  0  0  0  0  0  0
    0.5494    0.1606   -0.2164 H   0  0  0  0  0  0  0  0  0  0  0  0
   -0.5339    1.8802   -0.9144 C   0  0  0  0  0  0  0  0  0  0  0  0
   -1.3996    2.4812   -0.6220 H   0  0  0  0  0  0  0  0  0  0  0  0
    0.3287    2.5512   -0.9791 H   0  0  0  0  0  0  0  0  0  0  0  0
   -0.7474    1.2833   -2.2738 C   0  0  0  0  0  0  0  0  0  0  0  0
    0.2708    0.7656   -3.0610 N   0  0  0  0  0  0  0  0  0  0  0  0
   -0.2811    0.3935   -4.1901 C   0  0  0  0  0  0  0  0  0  0  0  0
    0.2530   -0.0529   -5.0242 H   0  0  0  0  0  0  0  0  0  0  0  0
   -1.6380    0.6592   -4.1617 N   0  0  0  0  0  0  0  0  0  0  0  0
   -2.2841    0.4905   -4.9309 H   0  0  0  0  0  0  0  0  0  0  0  0
   -1.9378    1.2399   -2.9468 C   0  0  0  0  0  0  0  0  0  0  0  0
   -2.8968    1.6110   -2.5986 H   0  0  0  0  0  0  0  0  0  0  0  0
    0.1953    1.3942    1.4942 C   0  0  0  0  0  0  0  0  0  0  0  0
    0.6959    2.5122    1.5442 O   0  0  0  0  0  0  0  0  0  0  0  0
   -0.0406    0.7330    2.6853 N   0  0  0  0  0  0  0  0  0  0  0  0
   -0.2722   -0.2581    2.5863 H   0  0  0  0  0  0  0  0  0  0  0  0
    0.4444    1.2070    3.9748 C   0  0  0  0  0  0  0  0  0  0  0  0
    0.0426    2.2018    4.1938 H   0  0  0  0  0  0  0  0  0  0  0  0
    0.1273    0.5252    4.7696 H   0  0  0  0  0  0  0  0  0  0  0  0
    1.5380    1.2589    3.9763 H   0  0  0  0  0  0  0  0  0  0  0  0
  1  2  1  0  0  0  0
  2  3  1  0  0  0  0
  2  4  1  0  0  0  0
  2  5  1  0  0  0  0
  5  6  2  0  0  0  0
  5  7  1  0  0  0  0
  7  8  1  0  0  0  0
  7  9  1  0  0  0  0
  9 10  1  0  0  0  0
  9 11  1  0  0  0  0
  9 22  1  0  0  0  0
 11 12  1  0  0  0  0
 11 13  1  0  0  0  0
 11 14  1  0  0  0  0
 14 15  1  0  0  0  0
 14 20  2  0  0  0  0
 15 16  2  0  0  0  0
 16 17  1  0  0  0  0
 16 18  1  0  0  0  0
 18 19  1  0  0  0  0
 18 20  1  0  0  0  0
 20 21  1  0  0  0  0
 22 23  2  0  0  0  0
 22 24  1  0  0  0  0
 24 25  1  0  0  0  0
 24 26  1  0  0  0  0
 26 27  1  0  0  0  0
 26 28  1  0  0  0  0
 26 29  1  0  0  0  0
M  END
$$$$

  -OEChem-01062216083D

 29 29  0     1  0  0  0  0  0999 V2000
   -2.6128   -3.1243    1.1391 H   0  0  0  0  0  0  0  0  0  0  0  0
   -2.7789   -2.1262    0.7239 C   0  0  0  0  0  0  0  0  0  0  0  0
   -3.5420   -1.6195    1.3196 H   0  0  0  0  0  0  0  0  0  0  0  0
   -3.1355   -2.2283   -0.3038 H   0  0  0  0  0  0  0  0  0  0  0  0
   -1.4883   -1.3296    0.7475 C   0  0  0  0  0  0  0  0  0  0  0  0
   -0.4831   -1.8129    1.2440 O   0  0  0  0  0  0  0  0  0  0  0  0
   -1.4650   -0.0497    0.2325 N   0  0  0  0  0  0  0  0  0  0  0  0
   -2.3293    0.2971   -0.1690 H   0  0  0  0  0  0  0  0  0  0  0  0
   -0.2599    0.7955    0.1194 C   0  0  1  0  0  0  0  0  0  0  0  0
    0.5689    0.1790   -0.2473 H   0  0  0  0  0  0  0  0  0  0  0  0
   -0.5258    1.8906   -0.9321 C   0  0  0  0  0  0  0  0  0  0  0  0
   -1.3948    2.4856   -0.6370 H   0  0  0  0  0  0  0  0  0  0  0  0
    0.3335    2.5662   -0.9924 H   0  0  0  0  0  0  0  0  0  0  0  0
   -0.7389    1.2953   -2.2924 C   0  0  0  0  0  0  0  0  0  0  0  0
    0.2827    0.7851   -3.0806 N   0  0  0  0  0  0  0  0  0  0  0  0
   -0.2683    0.4061   -4.2080 C   0  0  0  0  0  0  0  0  0  0  0  0
    0.2678   -0.0391   -5.0415 H   0  0  0  0  0  0  0  0  0  0  0  0
   -1.6266    0.6634   -4.1786 N   0  0  0  0  0  0  0  0  0  0  0  0
   -2.2729    0.4860   -4.9455 H   0  0  0  0  0  0  0  0  0  0  0  0
   -1.9293    1.2434   -2.9642 C   0  0  0  0  0  0  0  0  0  0  0  0
   -2.8908    1.6061   -2.6141 H   0  0  0  0  0  0  0  0  0  0  0  0
    0.2043    1.3890    1.4776 C   0  0  0  0  0  0  0  0  0  0  0  0
    0.4523    2.5835    1.5992 O   0  0  0  0  0  0  0  0  0  0  0  0
    0.2598    0.5909    2.6045 N   0  0  0  0  0  0  0  0  0  0  0  0
    0.1369   -0.4125    2.4443 H   0  0  0  0  0  0  0  0  0  0  0  0
    0.7305    1.0481    3.9050 C   0  0  0  0  0  0  0  0  0  0  0  0
    0.1434    1.9070    4.2462 H   0  0  0  0  0  0  0  0  0  0  0  0
    0.6298    0.2478    4.6443 H   0  0  0  0  0  0  0  0  0  0  0  0
    1.7843    1.3398    3.8490 H   0  0  0  0  0  0  0  0  0  0  0  0
  1  2  1  0  0  0  0
  2  3  1  0  0  0  0
  2  4  1  0  0  0  0
  2  5  1  0  0  0  0
  5  6  2  0  0  0  0
  5  7  1  0  0  0  0
  7  8  1  0  0  0  0
  7  9  1  0  0  0  0
  9 10  1  0  0  0  0
  9 11  1  0  0  0  0
  9 22  1  0  0  0  0
 11 12  1  0  0  0  0
 11 13  1  0  0  0  0
 11 14  1  0  0  0  0
 14 15  1  0  0  0  0
 14 20  2  0  0  0  0
 15 16  2  0  0  0  0
 16 17  1  0  0  0  0
 16 18  1  0  0  0  0
 18 19  1  0  0  0  0
 18 20  1  0  0  0  0
 20 21  1  0  0  0  0
 22 23  2  0  0  0  0
 22 24  1  0  0  0  0
 24 25  1  0  0  0  0
 24 26  1  0  0  0  0
 26 27  1  0  0  0  0
 26 28  1  0  0  0  0
 26 29  1  0  0  0  0
M  END
$$$$

  -OEChem-01062216083D

 29 29  0     1  0  0  0  0  0999 V2000
   -2.5753   -3.0960    1.2184 H   0  0  0  0  0  0  0  0  0  0  0  0
   -2.7484   -2.1029    0.7940 C   0  0  0  0  0  0  0  0  0  0  0  0
   -3.4807   -1.5786    1.4125 H   0  0  0  0  0  0  0  0  0  0  0  0
   -3.1478   -2.2177   -0.2166 H   0  0  0  0  0  0  0  0  0  0  0  0
   -1.4499   -1.3200    0.7516 C   0  0  0  0  0  0  0  0  0  0  0  0
   -0.4256   -1.8142    1.1968 O   0  0  0  0  0  0  0  0  0  0  0  0
   -1.4365   -0.0434    0.2275 N   0  0  0  0  0  0  0  0  0  0  0  0
   -2.3190    0.3282   -0.1069 H   0  0  0  0  0  0  0  0  0  0  0  0
   -0.2308    0.7955    0.0960 C   0  0  1  0  0  0  0  0  0  0  0  0
    0.5937    0.1777   -0.2780 H   0  0  0  0  0  0  0  0  0  0  0  0
   -0.4985    1.8931   -0.9511 C   0  0  0  0  0  0  0  0  0  0  0  0
   -1.3616    2.4932   -0.6482 H   0  0  0  0  0  0  0  0  0  0  0  0
    0.3647    2.5633   -1.0138 H   0  0  0  0  0  0  0  0  0  0  0  0
   -0.7305    1.3009   -2.3090 C   0  0  0  0  0  0  0  0  0  0  0  0
    0.2811    0.7839   -3.1058 N   0  0  0  0  0  0  0  0  0  0  0  0
   -0.2826    0.4086   -4.2281 C   0  0  0  0  0  0  0  0  0  0  0  0
    0.2428   -0.0401   -5.0665 H   0  0  0  0  0  0  0  0  0  0  0  0
   -1.6388    0.6748   -4.1870 N   0  0  0  0  0  0  0  0  0  0  0  0
   -2.2933    0.5001   -4.9473 H   0  0  0  0  0  0  0  0  0  0  0  0
   -1.9274    1.2559   -2.9697 C   0  0  0  0  0  0  0  0  0  0  0  0
   -2.8842    1.6216   -2.6097 H   0  0  0  0  0  0  0  0  0  0  0  0
    0.2362    1.3852    1.4517 C   0  0  0  0  0  0  0  0  0  0  0  0
    0.2564    2.5950    1.6505 O   0  0  0  0  0  0  0  0  0  0  0  0
    0.5856    0.5372    2.4844 N   0  0  0  0  0  0  0  0  0  0  0  0
    0.5006   -0.4653    2.2945 H   0  0  0  0  0  0  0  0  0  0  0  0
    1.0090    0.9828    3.8045 C   0  0  0  0  0  0  0  0  0  0  0  0
    0.2159    1.5640    4.2857 H   0  0  0  0  0  0  0  0  0  0  0  0
    1.2392    0.1200    4.4367 H   0  0  0  0  0  0  0  0  0  0  0  0
    1.9068    1.6049    3.7280 H   0  0  0  0  0  0  0  0  0  0  0  0
  1  2  1  0  0  0  0
  2  3  1  0  0  0  0
  2  4  1  0  0  0  0
  2  5  1  0  0  0  0
  5  6  2  0  0  0  0
  5  7  1  0  0  0  0
  7  8  1  0  0  0  0
  7  9  1  0  0  0  0
  9 10  1  0  0  0  0
  9 11  1  0  0  0  0
  9 22  1  0  0  0  0
 11 12  1  0  0  0  0
 11 13  1  0  0  0  0
 11 14  1  0  0  0  0
 14 15  1  0  0  0  0
 14 20  2  0  0  0  0
 15 16  2  0  0  0  0
 16 17  1  0  0  0  0
 16 18  1  0  0  0  0
 18 19  1  0  0  0  0
 18 20  1  0  0  0  0
 20 21  1  0  0  0  0
 22 23  2  0  0  0  0
 22 24  1  0  0  0  0
 24 25  1  0  0  0  0
 24 26  1  0  0  0  0
 26 27  1  0  0  0  0
 26 28  1  0  0  0  0
 26 29  1  0  0  0  0
M  END
$$$$

  -OEChem-01062216083D

 29 29  0     1  0  0  0  0  0999 V2000
   -2.5105   -3.0695    1.3119 H   0  0  0  0  0  0  0  0  0  0  0  0
   -2.6998   -2.0850    0.8745 C   0  0  0  0  0  0  0  0  0  0  0  0
   -3.4083   -1.5480    1.5098 H   0  0  0  0  0  0  0  0  0  0  0  0
   -3.1381   -2.2200   -0.1172 H   0  0  0  0  0  0  0  0  0  0  0  0
   -1.4040   -1.3035    0.7672 C   0  0  0  0  0  0  0  0  0  0  0  0
   -0.3625   -1.7870    1.1853 O   0  0  0  0  0  0  0  0  0  0  0  0
   -1.4082   -0.0359    0.2217 N   0  0  0  0  0  0  0  0  0  0  0  0
   -2.3024    0.3477   -0.0650 H   0  0  0  0  0  0  0  0  0  0  0  0
   -0.2020    0.7949    0.0678 C   0  0  1  0  0  0  0  0  0  0  0  0
    0.6186    0.1741   -0.3097 H   0  0  0  0  0  0  0  0  0  0  0  0
   -0.4683    1.8937   -0.9770 C   0  0  0  0  0  0  0  0  0  0  0  0
   -1.3236    2.5014   -0.6670 H   0  0  0  0  0  0  0  0  0  0  0  0
    0.4007    2.5556   -1.0445 H   0  0  0  0  0  0  0  0  0  0  0  0
   -0.7216    1.3054   -2.3326 C   0  0  0  0  0  0  0  0  0  0  0  0
    0.2754    0.7774   -3.1405 N   0  0  0  0  0  0  0  0  0  0  0  0
   -0.3045    0.4125   -4.2581 C   0  0  0  0  0  0  0  0  0  0  0  0
    0.2065   -0.0408   -5.1027 H   0  0  0  0  0  0  0  0  0  0  0  0
   -1.6566    0.6964   -4.2031 N   0  0  0  0  0  0  0  0  0  0  0  0
   -2.3208    0.5319   -4.9574 H   0  0  0  0  0  0  0  0  0  0  0  0
   -1.9252    1.2782   -2.9815 C   0  0  0  0  0  0  0  0  0  0  0  0
   -2.8726    1.6569   -2.6109 H   0  0  0  0  0  0  0  0  0  0  0  0
    0.2599    1.3895    1.4193 C   0  0  0  0  0  0  0  0  0  0  0  0
    0.0545    2.5645    1.7048 O   0  0  0  0  0  0  0  0  0  0  0  0
    0.8907    0.5704    2.3347 N   0  0  0  0  0  0  0  0  0  0  0  0
    0.8582   -0.4307    2.1239 H   0  0  0  0  0  0  0  0  0  0  0  0
    1.2600    0.9958    3.6776 C   0  0  0  0  0  0  0  0  0  0  0  0
    0.3666    1.2429    4.2599 H   0  0  0  0  0  0  0  0  0  0  0  0
    1.8002    0.1945    4.1907 H   0  0  0  0  0  0  0  0  0  0  0  0
    1.9097    1.8763    3.6362 H   0  0  0  0  0  0  0  0  0  0  0  0
  1  2  1  0  0  0  0
  2  3  1  0  0  0  0
  2  4  1  0  0  0  0
  2  5  1  0  0  0  0
  5  6  2  0  0  0  0
  5  7  1  0  0  0  0
  7  8  1  0  0  0  0
  7  9  1  0  0  0  0
  9 10  1  0  0  0  0
  9 11  1  0  0  0  0
  9 22  1  0  0  0  0
 11 12  1  0  0  0  0
 11 13  1  0  0  0  0
 11 14  1  0  0  0  0
 14 15  1  0  0  0  0
 14 20  2  0  0  0  0
 15 16  2  0  0  0  0
 16 17  1  0  0  0  0
 16 18  1  0  0  0  0
 18 19  1  0  0  0  0
 18 20  1  0  0  0  0
 20 21  1  0  0  0  0
 22 23  2  0  0  0  0
 22 24  1  0  0  0  0
 24 25  1  0  0  0  0
 24 26  1  0  0  0  0
 26 27  1  0  0  0  0
 26 28  1  0  0  0  0
 26 29  1  0  0  0  0
M  END
$$$$

  -OEChem-01062216083D

 29 29  0     1  0  0  0  0  0999 V2000
   -2.4501   -3.0434    1.3989 H   0  0  0  0  0  0  0  0  0  0  0  0
   -2.6594   -2.0680    0.9507 C   0  0  0  0  0  0  0  0  0  0  0  0
   -3.3283   -1.5125    1.6125 H   0  0  0  0  0  0  0  0  0  0  0  0
   -3.1534   -2.2219   -0.0116 H   0  0  0  0  0  0  0  0  0  0  0  0
   -1.3682   -1.2968    0.7532 C   0  0  0  0  0  0  0  0  0  0  0  0
   -0.3050   -1.7763    1.1191 O   0  0  0  0  0  0  0  0  0  0  0  0
   -1.3980   -0.0351    0.1952 N   0  0  0  0  0  0  0  0  0  0  0  0
   -2.3065    0.3814    0.0205 H   0  0  0  0  0  0  0  0  0  0  0  0
   -0.1958    0.7974    0.0402 C   0  0  1  0  0  0  0  0  0  0  0  0
    0.6302    0.1830   -0.3368 H   0  0  0  0  0  0  0  0  0  0  0  0
   -0.4611    1.9013   -0.9978 C   0  0  0  0  0  0  0  0  0  0  0  0
   -1.3178    2.5065   -0.6863 H   0  0  0  0  0  0  0  0  0  0  0  0
    0.4075    2.5639   -1.0603 H   0  0  0  0  0  0  0  0  0  0  0  0
   -0.7155    1.3191   -2.3556 C   0  0  0  0  0  0  0  0  0  0  0  0
    0.2819    0.7941   -3.1653 N   0  0  0  0  0  0  0  0  0  0  0  0
   -0.3000    0.4268   -4.2812 C   0  0  0  0  0  0  0  0  0  0  0  0
    0.2100   -0.0263   -5.1265 H   0  0  0  0  0  0  0  0  0  0  0  0
   -1.6527    0.7075   -4.2236 N   0  0  0  0  0  0  0  0  0  0  0  0
   -2.3199    0.5345   -4.9734 H   0  0  0  0  0  0  0  0  0  0  0  0
   -1.9204    1.2886   -3.0017 C   0  0  0  0  0  0  0  0  0  0  0  0
   -2.8688    1.6605   -2.6264 H   0  0  0  0  0  0  0  0  0  0  0  0
    0.2414    1.3917    1.3963 C   0  0  0  0  0  0  0  0  0  0  0  0
   -0.1857    2.4751    1.7812 O   0  0  0  0  0  0  0  0  0  0  0  0
    1.1252    0.6813    2.1846 N   0  0  0  0  0  0  0  0  0  0  0  0
    1.2396   -0.3010    1.9282 H   0  0  0  0  0  0  0  0  0  0  0  0
    1.5010    1.0962    3.5292 C   0  0  0  0  0  0  0  0  0  0  0  0
    0.6271    1.0963    4.1885 H   0  0  0  0  0  0  0  0  0  0  0  0
    2.2474    0.4095    3.9396 H   0  0  0  0  0  0  0  0  0  0  0  0
    1.9319    2.1028    3.5135 H   0  0  0  0  0  0  0  0  0  0  0  0
  1  2  1  0  0  0  0
  2  3  1  0  0  0  0
  2  4  1  0  0  0  0
  2  5  1  0  0  0  0
  5  6  2  0  0  0  0
  5  7  1  0  0  0  0
  7  8  1  0  0  0  0
  7  9  1  0  0  0  0
  9 10  1  0  0  0  0
  9 11  1  0  0  0  0
  9 22  1  0  0  0  0
 11 12  1  0  0  0  0
 11 13  1  0  0  0  0
 11 14  1  0  0  0  0
 14 15  1  0  0  0  0
 14 20  2  0  0  0  0
 15 16  2  0  0  0  0
 16 17  1  0  0  0  0
 16 18  1  0  0  0  0
 18 19  1  0  0  0  0
 18 20  1  0  0  0  0
 20 21  1  0  0  0  0
 22 23  2  0  0  0  0
 22 24  1  0  0  0  0
 24 25  1  0  0  0  0
 24 26  1  0  0  0  0
 26 27  1  0  0  0  0
 26 28  1  0  0  0  0
 26 29  1  0  0  0  0
M  END
$$$$

  -OEChem-01062216083D

 29 29  0     1  0  0  0  0  0999 V2000
   -2.4189   -3.0249    1.4647 H   0  0  0  0  0  0  0  0  0  0  0  0
   -2.6413   -2.0511    1.0193 C   0  0  0  0  0  0  0  0  0  0  0  0
   -3.2519   -1.4752    1.7190 H   0  0  0  0  0  0  0  0  0  0  0  0
   -3.2038   -2.2065    0.0955 H   0  0  0  0  0  0  0  0  0  0  0  0
   -1.3531   -1.3072    0.7224 C   0  0  0  0  0  0  0  0  0  0  0  0
   -0.2764   -1.8060    1.0145 O   0  0  0  0  0  0  0  0  0  0  0  0
   -1.4006   -0.0475    0.1617 N   0  0  0  0  0  0  0  0  0  0  0  0
   -2.3087    0.4036    0.1209 H   0  0  0  0  0  0  0  0  0  0  0  0
   -0.2012    0.7896    0.0163 C   0  0  1  0  0  0  0  0  0  0  0  0
    0.6290    0.1812   -0.3612 H   0  0  0  0  0  0  0  0  0  0  0  0
   -0.4645    1.9019   -1.0118 C   0  0  0  0  0  0  0  0  0  0  0  0
   -1.3246    2.5010   -0.6980 H   0  0  0  0  0  0  0  0  0  0  0  0
    0.4018    2.5680   -1.0646 H   0  0  0  0  0  0  0  0  0  0  0  0
   -0.7128    1.3303   -2.3753 C   0  0  0  0  0  0  0  0  0  0  0  0
    0.2915    0.8149   -3.1829 N   0  0  0  0  0  0  0  0  0  0  0  0
   -0.2840    0.4474   -4.3021 C   0  0  0  0  0  0  0  0  0  0  0  0
    0.2322   -0.0012   -5.1461 H   0  0  0  0  0  0  0  0  0  0  0  0
   -1.6384    0.7212   -4.2497 N   0  0  0  0  0  0  0  0  0  0  0  0
   -2.3021    0.5442   -5.0015 H   0  0  0  0  0  0  0  0  0  0  0  0
   -1.9146    1.2955   -3.0266 C   0  0  0  0  0  0  0  0  0  0  0  0
   -2.8674    1.6561   -2.6521 H   0  0  0  0  0  0  0  0  0  0  0  0
    0.2196    1.3839    1.3761 C   0  0  0  0  0  0  0  0  0  0  0  0
   -0.4105    2.3141    1.8685 O   0  0  0  0  0  0  0  0  0  0  0  0
    1.3143    0.8643    2.0396 N   0  0  0  0  0  0  0  0  0  0  0  0
    1.6414   -0.0410    1.7046 H   0  0  0  0  0  0  0  0  0  0  0  0
    1.7033    1.2894    3.3777 C   0  0  0  0  0  0  0  0  0  0  0  0
    0.9124    1.0570    4.0983 H   0  0  0  0  0  0  0  0  0  0  0  0
    2.6178    0.7737    3.6859 H   0  0  0  0  0  0  0  0  0  0  0  0
    1.8937    2.3676    3.3973 H   0  0  0  0  0  0  0  0  0  0  0  0
  1  2  1  0  0  0  0
  2  3  1  0  0  0  0
  2  4  1  0  0  0  0
  2  5  1  0  0  0  0
  5  6  2  0  0  0  0
  5  7  1  0  0  0  0
  7  8  1  0  0  0  0
  7  9  1  0  0  0  0
  9 10  1  0  0  0  0
  9 11  1  0  0  0  0
  9 22  1  0  0  0  0
 11 12  1  0  0  0  0
 11 13  1  0  0  0  0
 11 14  1  0  0  0  0
 14 15  1  0  0  0  0
 14 20  2  0  0  0  0
 15 16  2  0  0  0  0
 16 17  1  0  0  0  0
 16 18  1  0  0  0  0
 18 19  1  0  0  0  0
 18 20  1  0  0  0  0
 20 21  1  0  0  0  0
 22 23  2  0  0  0  0
 22 24  1  0  0  0  0
 24 25  1  0  0  0  0
 24 26  1  0  0  0  0
 26 27  1  0  0  0  0
 26 28  1  0  0  0  0
 26 29  1  0  0  0  0
M  END
$$$$

  -OEChem-01062216083D

 29 29  0     1  0  0  0  0  0999 V2000
   -2.4104   -3.0182    1.5129 H   0  0  0  0  0  0  0  0  0  0  0  0
   -2.6379   -2.0423    1.0748 C   0  0  0  0  0  0  0  0  0  0  0  0
   -3.1970   -1.4512    1.8042 H   0  0  0  0  0  0  0  0  0  0  0  0
   -3.2537   -2.1913    0.1846 H   0  0  0  0  0  0  0  0  0  0  0  0
   -1.3538   -1.3249    0.7033 C   0  0  0  0  0  0  0  0  0  0  0  0
   -0.2740   -1.8441    0.9414 O   0  0  0  0  0  0  0  0  0  0  0  0
   -1.4094   -0.0676    0.1375 N   0  0  0  0  0  0  0  0  0  0  0  0
   -2.3094    0.3997    0.1757 H   0  0  0  0  0  0  0  0  0  0  0  0
   -0.2116    0.7741    0.0017 C   0  0  1  0  0  0  0  0  0  0  0  0
    0.6220    0.1681   -0.3710 H   0  0  0  0  0  0  0  0  0  0  0  0
   -0.4679    1.8941   -1.0186 C   0  0  0  0  0  0  0  0  0  0  0  0
   -1.3294    2.4911   -0.7044 H   0  0  0  0  0  0  0  0  0  0  0  0
    0.3996    2.5597   -1.0619 H   0  0  0  0  0  0  0  0  0  0  0  0
   -0.7079    1.3344   -2.3884 C   0  0  0  0  0  0  0  0  0  0  0  0
    0.3016    0.8256   -3.1939 N   0  0  0  0  0  0  0  0  0  0  0  0
   -0.2679    0.4665   -4.3191 C   0  0  0  0  0  0  0  0  0  0  0  0
    0.2522    0.0229   -5.1634 H   0  0  0  0  0  0  0  0  0  0  0  0
   -1.6222    0.7420   -4.2734 N   0  0  0  0  0  0  0  0  0  0  0  0
   -2.2818    0.5703   -5.0300 H   0  0  0  0  0  0  0  0  0  0  0  0
   -1.9057    1.3059   -3.0471 C   0  0  0  0  0  0  0  0  0  0  0  0
   -2.8610    1.6620   -2.6738 H   0  0  0  0  0  0  0  0  0  0  0  0
    0.1968    1.3758    1.3612 C   0  0  0  0  0  0  0  0  0  0  0  0
   -0.5787    2.1150    1.9592 O   0  0  0  0  0  0  0  0  0  0  0  0
    1.4398    1.1014    1.8986 N   0  0  0  0  0  0  0  0  0  0  0  0
    1.9636    0.3479    1.4588 H   0  0  0  0  0  0  0  0  0  0  0  0
    1.8478    1.5526    3.2225 C   0  0  0  0  0  0  0  0  0  0  0  0
    1.2102    1.1056    3.9924 H   0  0  0  0  0  0  0  0  0  0  0  0
    2.8847    1.2625    3.4170 H   0  0  0  0  0  0  0  0  0  0  0  0
    1.7776    2.6430    3.2947 H   0  0  0  0  0  0  0  0  0  0  0  0
  1  2  1  0  0  0  0
  2  3  1  0  0  0  0
  2  4  1  0  0  0  0
  2  5  1  0  0  0  0
  5  6  2  0  0  0  0
  5  7  1  0  0  0  0
  7  8  1  0  0  0  0
  7  9  1  0  0  0  0
  9 10  1  0  0  0  0
  9 11  1  0  0  0  0
  9 22  1  0  0  0  0
 11 12  1  0  0  0  0
 11 13  1  0  0  0  0
 11 14  1  0  0  0  0
 14 15  1  0  0  0  0
 14 20  2  0  0  0  0
 15 16  2  0  0  0  0
 16 17  1  0  0  0  0
 16 18  1  0  0  0  0
 18 19  1  0  0  0  0
 18 20  1  0  0  0  0
 20 21  1  0  0  0  0
 22 23  2  0  0  0  0
 22 24  1  0  0  0  0
 24 25  1  0  0  0  0
 24 26  1  0  0  0  0
 26 27  1  0  0  0  0
 26 28  1  0  0  0  0
 26 29  1  0  0  0  0
M  END
$$$$

  -OEChem-01062216083D

 29 29  0     1  0  0  0  0  0999 V2000
   -2.4149   -3.0225    1.5196 H   0  0  0  0  0  0  0  0  0  0  0  0
   -2.6425   -2.0428    1.0898 C   0  0  0  0  0  0  0  0  0  0  0  0
   -3.1766   -1.4474    1.8343 H   0  0  0  0  0  0  0  0  0  0  0  0
   -3.2817   -2.1818    0.2148 H   0  0  0  0  0  0  0  0  0  0  0  0
   -1.3605   -1.3381    0.6887 C   0  0  0  0  0  0  0  0  0  0  0  0
   -0.2816   -1.8725    0.8939 O   0  0  0  0  0  0  0  0  0  0  0  0
   -1.4201   -0.0807    0.1235 N   0  0  0  0  0  0  0  0  0  0  0  0
   -2.3133    0.3937    0.2096 H   0  0  0  0  0  0  0  0  0  0  0  0
   -0.2229    0.7651    0.0011 C   0  0  1  0  0  0  0  0  0  0  0  0
    0.6145    0.1615   -0.3674 H   0  0  0  0  0  0  0  0  0  0  0  0
   -0.4785    1.8897   -1.0129 C   0  0  0  0  0  0  0  0  0  0  0  0
   -1.3449    2.4793   -0.6987 H   0  0  0  0  0  0  0  0  0  0  0  0
    0.3853    2.5605   -1.0486 H   0  0  0  0  0  0  0  0  0  0  0  0
   -0.7091    1.3374   -2.3870 C   0  0  0  0  0  0  0  0  0  0  0  0
    0.3087    0.8383   -3.1883 N   0  0  0  0  0  0  0  0  0  0  0  0
   -0.2523    0.4790   -4.3178 C   0  0  0  0  0  0  0  0  0  0  0  0
    0.2752    0.0403   -5.1601 H   0  0  0  0  0  0  0  0  0  0  0  0
   -1.6083    0.7473   -4.2795 N   0  0  0  0  0  0  0  0  0  0  0  0
   -2.2629    0.5717   -5.0395 H   0  0  0  0  0  0  0  0  0  0  0  0
   -1.9028    1.3046   -3.0527 C   0  0  0  0  0  0  0  0  0  0  0  0
   -2.8628    1.6514   -2.6832 H   0  0  0  0  0  0  0  0  0  0  0  0
    0.1778    1.3711    1.3609 C   0  0  0  0  0  0  0  0  0  0  0  0
   -0.6736    1.9131    2.0589 O   0  0  0  0  0  0  0  0  0  0  0  0
    1.4989    1.3675    1.7666 N   0  0  0  0  0  0  0  0  0  0  0  0
    2.1441    0.8035    1.2192 H   0  0  0  0  0  0  0  0  0  0  0  0
    1.9330    1.8653    3.0654 C   0  0  0  0  0  0  0  0  0  0  0  0
    1.4602    1.2942    3.8712 H   0  0  0  0  0  0  0  0  0  0  0  0
    3.0186    1.7696    3.1627 H   0  0  0  0  0  0  0  0  0  0  0  0
    1.6691    2.9219    3.1791 H   0  0  0  0  0  0  0  0  0  0  0  0
  1  2  1  0  0  0  0
  2  3  1  0  0  0  0
  2  4  1  0  0  0  0
  2  5  1  0  0  0  0
  5  6  2  0  0  0  0
  5  7  1  0  0  0  0
  7  8  1  0  0  0  0
  7  9  1  0  0  0  0
  9 10  1  0  0  0  0
  9 11  1  0  0  0  0
  9 22  1  0  0  0  0
 11 12  1  0  0  0  0
 11 13  1  0  0  0  0
 11 14  1  0  0  0  0
 14 15  1  0  0  0  0
 14 20  2  0  0  0  0
 15 16  2  0  0  0  0
 16 17  1  0  0  0  0
 16 18  1  0  0  0  0
 18 19  1  0  0  0  0
 18 20  1  0  0  0  0
 20 21  1  0  0  0  0
 22 23  2  0  0  0  0
 22 24  1  0  0  0  0
 24 25  1  0  0  0  0
 24 26  1  0  0  0  0
 26 27  1  0  0  0  0
 26 28  1  0  0  0  0
 26 29  1  0  0  0  0
M  END
$$$$

  -OEChem-01062216083D

 29 29  0     1  0  0  0  0  0999 V2000
   -2.4209   -3.0291    1.5046 H   0  0  0  0  0  0  0  0  0  0  0  0
   -2.6494   -2.0419    1.0933 C   0  0  0  0  0  0  0  0  0  0  0  0
   -3.1610   -1.4521    1.8579 H   0  0  0  0  0  0  0  0  0  0  0  0
   -3.3095   -2.1642    0.2313 H   0  0  0  0  0  0  0  0  0  0  0  0
   -1.3705   -1.3434    0.6723 C   0  0  0  0  0  0  0  0  0  0  0  0
   -0.2937   -1.8928    0.8442 O   0  0  0  0  0  0  0  0  0  0  0  0
   -1.4321   -0.0837    0.1118 N   0  0  0  0  0  0  0  0  0  0  0  0
   -2.3185    0.3947    0.2361 H   0  0  0  0  0  0  0  0  0  0  0  0
   -0.2335    0.7638    0.0050 C   0  0  1  0  0  0  0  0  0  0  0  0
    0.6077    0.1626   -0.3591 H   0  0  0  0  0  0  0  0  0  0  0  0
   -0.4886    1.8914   -1.0058 C   0  0  0  0  0  0  0  0  0  0  0  0
   -1.3601    2.4747   -0.6938 H   0  0  0  0  0  0  0  0  0  0  0  0
    0.3714    2.5672   -1.0355 H   0  0  0  0  0  0  0  0  0  0  0  0
   -0.7087    1.3430   -2.3834 C   0  0  0  0  0  0  0  0  0  0  0  0
    0.3173    0.8525   -3.1795 N   0  0  0  0  0  0  0  0  0  0  0  0
   -0.2359    0.4867   -4.3108 C   0  0  0  0  0  0  0  0  0  0  0  0
    0.2988    0.0522   -5.1506 H   0  0  0  0  0  0  0  0  0  0  0  0
   -1.5947    0.7414   -4.2780 N   0  0  0  0  0  0  0  0  0  0  0  0
   -2.2458    0.5498   -5.0371 H   0  0  0  0  0  0  0  0  0  0  0  0
   -1.8996    1.2968   -3.0530 C   0  0  0  0  0  0  0  0  0  0  0  0
   -2.8651    1.6300   -2.6857 H   0  0  0  0  0  0  0  0  0  0  0  0
    0.1633    1.3695    1.3670 C   0  0  0  0  0  0  0  0  0  0  0  0
   -0.7080    1.7056    2.1634 O   0  0  0  0  0  0  0  0  0  0  0  0
    1.4884    1.6470    1.6476 N   0  0  0  0  0  0  0  0  0  0  0  0
    2.1830    1.2830    1.0005 H   0  0  0  0  0  0  0  0  0  0  0  0
    1.9343    2.1926    2.9231 C   0  0  0  0  0  0  0  0  0  0  0  0
    1.6688    1.5162    3.7422 H   0  0  0  0  0  0  0  0  0  0  0  0
    3.0206    2.3227    2.9191 H   0  0  0  0  0  0  0  0  0  0  0  0
    1.4710    3.1677    3.1060 H   0  0  0  0  0  0  0  0  0  0  0  0
  1  2  1  0  0  0  0
  2  3  1  0  0  0  0
  2  4  1  0  0  0  0
  2  5  1  0  0  0  0
  5  6  2  0  0  0  0
  5  7  1  0  0  0  0
  7  8  1  0  0  0  0
  7  9  1  0  0  0  0
  9 10  1  0  0  0  0
  9 11  1  0  0  0  0
  9 22  1  0  0  0  0
 11 12  1  0  0  0  0
 11 13  1  0  0  0  0
 11 14  1  0  0  0  0
 14 15  1  0  0  0  0
 14 20  2  0  0  0  0
 15 16  2  0  0  0  0
 16 17  1  0  0  0  0
 16 18  1  0  0  0  0
 18 19  1  0  0  0  0
 18 20  1  0  0  0  0
 20 21  1  0  0  0  0
 22 23  2  0  0  0  0
 22 24  1  0  0  0  0
 24 25  1  0  0  0  0
 24 26  1  0  0  0  0
 26 27  1  0  0  0  0
 26 28  1  0  0  0  0
 26 29  1  0  0  0  0
M  END
$$$$

  -OEChem-01062216083D

 29 29  0     1  0  0  0  0  0999 V2000
   -2.4263   -3.0298    1.5033 H   0  0  0  0  0  0  0  0  0  0  0  0
   -2.6536   -2.0364    1.1066 C   0  0  0  0  0  0  0  0  0  0  0  0
   -3.1313   -1.4454    1.8920 H   0  0  0  0  0  0  0  0  0  0  0  0
   -3.3430   -2.1419    0.2657 H   0  0  0  0  0  0  0  0  0  0  0  0
   -1.3786   -1.3532    0.6501 C   0  0  0  0  0  0  0  0  0  0  0  0
   -0.3051   -1.9198    0.7833 O   0  0  0  0  0  0  0  0  0  0  0  0
   -1.4421   -0.0893    0.0984 N   0  0  0  0  0  0  0  0  0  0  0  0
   -2.3241    0.3895    0.2487 H   0  0  0  0  0  0  0  0  0  0  0  0
   -0.2420    0.7596    0.0095 C   0  0  1  0  0  0  0  0  0  0  0  0
    0.6032    0.1628   -0.3527 H   0  0  0  0  0  0  0  0  0  0  0  0
   -0.5010    1.8901   -0.9990 C   0  0  0  0  0  0  0  0  0  0  0  0
   -1.3781    2.4653   -0.6885 H   0  0  0  0  0  0  0  0  0  0  0  0
    0.3528    2.5736   -1.0246 H   0  0  0  0  0  0  0  0  0  0  0  0
   -0.7108    1.3472   -2.3804 C   0  0  0  0  0  0  0  0  0  0  0  0
    0.3249    0.8691   -3.1712 N   0  0  0  0  0  0  0  0  0  0  0  0
   -0.2180    0.4987   -4.3061 C   0  0  0  0  0  0  0  0  0  0  0  0
    0.3264    0.0707   -5.1431 H   0  0  0  0  0  0  0  0  0  0  0  0
   -1.5796    0.7394   -4.2808 N   0  0  0  0  0  0  0  0  0  0  0  0
   -2.2249    0.5406   -5.0431 H   0  0  0  0  0  0  0  0  0  0  0  0
   -1.8975    1.2901   -3.0570 C   0  0  0  0  0  0  0  0  0  0  0  0
   -2.8692    1.6104   -2.6946 H   0  0  0  0  0  0  0  0  0  0  0  0
    0.1525    1.3607    1.3763 C   0  0  0  0  0  0  0  0  0  0  0  0
   -0.6878    1.4863    2.2621 O   0  0  0  0  0  0  0  0  0  0  0  0
    1.4063    1.9178    1.5522 N   0  0  0  0  0  0  0  0  0  0  0  0
    2.0929    1.7538    0.8207 H   0  0  0  0  0  0  0  0  0  0  0  0
    1.8454    2.5156    2.8070 C   0  0  0  0  0  0  0  0  0  0  0  0
    1.8171    1.7759    3.6140 H   0  0  0  0  0  0  0  0  0  0  0  0
    2.8711    2.8845    2.7113 H   0  0  0  0  0  0  0  0  0  0  0  0
    1.2000    3.3580    3.0770 H   0  0  0  0  0  0  0  0  0  0  0  0
  1  2  1  0  0  0  0
  2  3  1  0  0  0  0
  2  4  1  0  0  0  0
  2  5  1  0  0  0  0
  5  6  2  0  0  0  0
  5  7  1  0  0  0  0
  7  8  1  0  0  0  0
  7  9  1  0  0  0  0
  9 10  1  0  0  0  0
  9 11  1  0  0  0  0
  9 22  1  0  0  0  0
 11 12  1  0  0  0  0
 11 13  1  0  0  0  0
 11 14  1  0  0  0  0
 14 15  1  0  0  0  0
 14 20  2  0  0  0  0
 15 16  2  0  0  0  0
 16 17  1  0  0  0  0
 16 18  1  0  0  0  0
 18 19  1  0  0  0  0
 18 20  1  0  0  0  0
 20 21  1  0  0  0  0
 22 23  2  0  0  0  0
 22 24  1  0  0  0  0
 24 25  1  0  0  0  0
 24 26  1  0  0  0  0
 26 27  1  0  0  0  0
 26 28  1  0  0  0  0
 26 29  1  0  0  0  0
M  END
$$$$

  -OEChem-01062216083D

 29 29  0     1  0  0  0  0  0999 V2000
   -2.3759   -3.0629    1.4913 H   0  0  0  0  0  0  0  0  0  0  0  0
   -2.6206   -2.0594    1.1319 C   0  0  0  0  0  0  0  0  0  0  0  0
   -3.0322   -1.4803    1.9621 H   0  0  0  0  0  0  0  0  0  0  0  0
   -3.3709   -2.1404    0.3420 H   0  0  0  0  0  0  0  0  0  0  0  0
   -1.3744   -1.3792    0.5980 C   0  0  0  0  0  0  0  0  0  0  0  0
   -0.3086   -1.9756    0.5921 O   0  0  0  0  0  0  0  0  0  0  0  0
   -1.4586   -0.1028    0.0760 N   0  0  0  0  0  0  0  0  0  0  0  0
   -2.3384    0.3627    0.2665 H   0  0  0  0  0  0  0  0  0  0  0  0
   -0.2624    0.7565    0.0120 C   0  0  1  0  0  0  0  0  0  0  0  0
    0.4995    0.2563   -0.5967 H   0  0  0  0  0  0  0  0  0  0  0  0
   -0.6510    2.0770   -0.6773 C   0  0  0  0  0  0  0  0  0  0  0  0
   -1.4645    2.5543   -0.1232 H   0  0  0  0  0  0  0  0  0  0  0  0
    0.1963    2.7681   -0.6826 H   0  0  0  0  0  0  0  0  0  0  0  0
   -1.0655    1.8449   -2.0989 C   0  0  0  0  0  0  0  0  0  0  0  0
   -0.1595    1.5716   -3.1138 N   0  0  0  0  0  0  0  0  0  0  0  0
   -0.8628    1.4518   -4.2141 C   0  0  0  0  0  0  0  0  0  0  0  0
   -0.4482    1.2297   -5.1933 H   0  0  0  0  0  0  0  0  0  0  0  0
   -2.2035    1.6572   -3.9439 N   0  0  0  0  0  0  0  0  0  0  0  0
   -2.9527    1.6219   -4.6328 H   0  0  0  0  0  0  0  0  0  0  0  0
   -2.3368    1.9190   -2.5962 C   0  0  0  0  0  0  0  0  0  0  0  0
   -3.2425    2.1379   -2.0392 H   0  0  0  0  0  0  0  0  0  0  0  0
    0.3715    1.0487    1.3964 C   0  0  0  0  0  0  0  0  0  0  0  0
   -0.2510    0.8189    2.4289 O   0  0  0  0  0  0  0  0  0  0  0  0
    1.5044    1.8399    1.4810 N   0  0  0  0  0  0  0  0  0  0  0  0
    2.0210    1.9986    0.6202 H   0  0  0  0  0  0  0  0  0  0  0  0
    2.1141    2.2301    2.7466 C   0  0  0  0  0  0  0  0  0  0  0  0
    2.3977    1.3439    3.3243 H   0  0  0  0  0  0  0  0  0  0  0  0
    3.0127    2.8276    2.5657 H   0  0  0  0  0  0  0  0  0  0  0  0
    1.4154    2.8292    3.3399 H   0  0  0  0  0  0  0  0  0  0  0  0
  1  2  1  0  0  0  0
  2  3  1  0  0  0  0
  2  4  1  0  0  0  0
  2  5  1  0  0  0  0
  5  6  2  0  0  0  0
  5  7  1  0  0  0  0
  7  8  1  0  0  0  0
  7  9  1  0  0  0  0
  9 10  1  0  0  0  0
  9 11  1  0  0  0  0
  9 22  1  0  0  0  0
 11 12  1  0  0  0  0
 11 13  1  0  0  0  0
 11 14  1  0  0  0  0
 14 15  1  0  0  0  0
 14 20  2  0  0  0  0
 15 16  2  0  0  0  0
 16 17  1  0  0  0  0
 16 18  1  0  0  0  0
 18 19  1  0  0  0  0
 18 20  1  0  0  0  0
 20 21  1  0  0  0  0
 22 23  2  0  0  0  0
 22 24  1  0  0  0  0
 24 25  1  0  0  0  0
 24 26  1  0  0  0  0
 26 27  1  0  0  0  0
 26 28  1  0  0  0  0
 26 29  1  0  0  0  0
M  END
$$$$

  -OEChem-01062216083D

 29 29  0     1  0  0  0  0  0999 V2000
   -2.3626   -3.0439    1.5158 H   0  0  0  0  0  0  0  0  0  0  0  0
   -2.6140   -2.0474    1.1420 C   0  0  0  0  0  0  0  0  0  0  0  0
   -3.0123   -1.4538    1.9683 H   0  0  0  0  0  0  0  0  0  0  0  0
   -3.3759   -2.1428    0.3652 H   0  0  0  0  0  0  0  0  0  0  0  0
   -1.3766   -1.3766    0.5772 C   0  0  0  0  0  0  0  0  0  0  0  0
   -0.3247   -1.9937    0.5127 O   0  0  0  0  0  0  0  0  0  0  0  0
   -1.4604   -0.0927    0.0720 N   0  0  0  0  0  0  0  0  0  0  0  0
   -2.3369    0.3711    0.2804 H   0  0  0  0  0  0  0  0  0  0  0  0
   -0.2631    0.7679    0.0150 C   0  0  1  0  0  0  0  0  0  0  0  0
    0.4991    0.2719   -0.5967 H   0  0  0  0  0  0  0  0  0  0  0  0
   -0.6658    2.0827   -0.6825 C   0  0  0  0  0  0  0  0  0  0  0  0
   -1.4838    2.5552   -0.1310 H   0  0  0  0  0  0  0  0  0  0  0  0
    0.1730    2.7833   -0.6979 H   0  0  0  0  0  0  0  0  0  0  0  0
   -1.0753    1.8417   -2.1045 C   0  0  0  0  0  0  0  0  0  0  0  0
   -0.1645    1.5749   -3.1166 N   0  0  0  0  0  0  0  0  0  0  0  0
   -0.8637    1.4450   -4.2184 C   0  0  0  0  0  0  0  0  0  0  0  0
   -0.4450    1.2212   -5.1955 H   0  0  0  0  0  0  0  0  0  0  0  0
   -2.2064    1.6427   -3.9526 N   0  0  0  0  0  0  0  0  0  0  0  0
   -2.9535    1.6006   -4.6435 H   0  0  0  0  0  0  0  0  0  0  0  0
   -2.3456    1.9063   -2.6059 C   0  0  0  0  0  0  0  0  0  0  0  0
   -3.2551    2.1201   -2.0531 H   0  0  0  0  0  0  0  0  0  0  0  0
    0.3841    1.0503    1.4010 C   0  0  0  0  0  0  0  0  0  0  0  0
   -0.1101    0.6033    2.4311 O   0  0  0  0  0  0  0  0  0  0  0  0
    1.3122    2.0700    1.5383 N   0  0  0  0  0  0  0  0  0  0  0  0
    1.7343    2.4269    0.6858 H   0  0  0  0  0  0  0  0  0  0  0  0
    1.8812    2.4712    2.8199 C   0  0  0  0  0  0  0  0  0  0  0  0
    2.3779    1.6221    3.3014 H   0  0  0  0  0  0  0  0  0  0  0  0
    2.6187    3.2660    2.6734 H   0  0  0  0  0  0  0  0  0  0  0  0
    1.0979    2.8465    3.4867 H   0  0  0  0  0  0  0  0  0  0  0  0
  1  2  1  0  0  0  0
  2  3  1  0  0  0  0
  2  4  1  0  0  0  0
  2  5  1  0  0  0  0
  5  6  2  0  0  0  0
  5  7  1  0  0  0  0
  7  8  1  0  0  0  0
  7  9  1  0  0  0  0
  9 10  1  0  0  0  0
  9 11  1  0  0  0  0
  9 22  1  0  0  0  0
 11 12  1  0  0  0  0
 11 13  1  0  0  0  0
 11 14  1  0  0  0  0
 14 15  1  0  0  0  0
 14 20  2  0  0  0  0
 15 16  2  0  0  0  0
 16 17  1  0  0  0  0
 16 18  1  0  0  0  0
 18 19  1  0  0  0  0
 18 20  1  0  0  0  0
 20 21  1  0  0  0  0
 22 23  2  0  0  0  0
 22 24  1  0  0  0  0
 24 25  1  0  0  0  0
 24 26  1  0  0  0  0
 26 27  1  0  0  0  0
 26 28  1  0  0  0  0
 26 29  1  0  0  0  0
M  END
$$$$

  -OEChem-01062216083D

 29 29  0     1  0  0  0  0  0999 V2000
   -2.3749   -3.0512    1.4542 H   0  0  0  0  0  0  0  0  0  0  0  0
   -2.6130   -2.0292    1.1465 C   0  0  0  0  0  0  0  0  0  0  0  0
   -2.9535   -1.4703    2.0215 H   0  0  0  0  0  0  0  0  0  0  0  0
   -3.4138   -2.0612    0.4042 H   0  0  0  0  0  0  0  0  0  0  0  0
   -1.3830   -1.3643    0.5582 C   0  0  0  0  0  0  0  0  0  0  0  0
   -0.3492   -2.0010    0.4303 O   0  0  0  0  0  0  0  0  0  0  0  0
   -1.4658   -0.0724    0.0734 N   0  0  0  0  0  0  0  0  0  0  0  0
   -2.3414    0.3865    0.2945 H   0  0  0  0  0  0  0  0  0  0  0  0
   -0.2725    0.7958    0.0214 C   0  0  1  0  0  0  0  0  0  0  0  0
    0.4908    0.3038   -0.5926 H   0  0  0  0  0  0  0  0  0  0  0  0
   -0.6869    2.1014   -0.6906 C   0  0  0  0  0  0  0  0  0  0  0  0
   -1.5126    2.5719   -0.1488 H   0  0  0  0  0  0  0  0  0  0  0  0
    0.1453    2.8094   -0.7142 H   0  0  0  0  0  0  0  0  0  0  0  0
   -1.0846    1.8417   -2.1131 C   0  0  0  0  0  0  0  0  0  0  0  0
   -0.1646    1.5768   -3.1170 N   0  0  0  0  0  0  0  0  0  0  0  0
   -0.8559    1.4199   -4.2203 C   0  0  0  0  0  0  0  0  0  0  0  0
   -0.4293    1.1896   -5.1924 H   0  0  0  0  0  0  0  0  0  0  0  0
   -2.2029    1.5995   -3.9638 N   0  0  0  0  0  0  0  0  0  0  0  0
   -2.9453    1.5342   -4.6579 H   0  0  0  0  0  0  0  0  0  0  0  0
   -2.3533    1.8793   -2.6215 C   0  0  0  0  0  0  0  0  0  0  0  0
   -3.2691    2.0832   -2.0758 H   0  0  0  0  0  0  0  0  0  0  0  0
    0.3900    1.0708    1.4061 C   0  0  0  0  0  0  0  0  0  0  0  0
    0.0923    0.4144    2.3975 O   0  0  0  0  0  0  0  0  0  0  0  0
    1.0650    2.2599    1.6370 N   0  0  0  0  0  0  0  0  0  0  0  0
    1.3419    2.7975    0.8212 H   0  0  0  0  0  0  0  0  0  0  0  0
    1.6134    2.6360    2.9357 C   0  0  0  0  0  0  0  0  0  0  0  0
    2.3409    1.8910    3.2750 H   0  0  0  0  0  0  0  0  0  0  0  0
    2.1166    3.6051    2.8664 H   0  0  0  0  0  0  0  0  0  0  0  0
    0.8154    2.7151    3.6816 H   0  0  0  0  0  0  0  0  0  0  0  0
  1  2  1  0  0  0  0
  2  3  1  0  0  0  0
  2  4  1  0  0  0  0
  2  5  1  0  0  0  0
  5  6  2  0  0  0  0
  5  7  1  0  0  0  0
  7  8  1  0  0  0  0
  7  9  1  0  0  0  0
  9 10  1  0  0  0  0
  9 11  1  0  0  0  0
  9 22  1  0  0  0  0
 11 12  1  0  0  0  0
 11 13  1  0  0  0  0
 11 14  1  0  0  0  0
 14 15  1  0  0  0  0
 14 20  2  0  0  0  0
 15 16  2  0  0  0  0
 16 17  1  0  0  0  0
 16 18  1  0  0  0  0
 18 19  1  0  0  0  0
 18 20  1  0  0  0  0
 20 21  1  0  0  0  0
 22 23  2  0  0  0  0
 22 24  1  0  0  0  0
 24 25  1  0  0  0  0
 24 26  1  0  0  0  0
 26 27  1  0  0  0  0
 26 28  1  0  0  0  0
 26 29  1  0  0  0  0
M  END
$$$$

  -OEChem-01062216083D

 29 29  0     1  0  0  0  0  0999 V2000
   -2.3800   -3.0503    1.4481 H   0  0  0  0  0  0  0  0  0  0  0  0
   -2.6093   -2.0169    1.1730 C   0  0  0  0  0  0  0  0  0  0  0  0
   -2.9056   -1.4730    2.0730 H   0  0  0  0  0  0  0  0  0  0  0  0
   -3.4376   -2.0164    0.4609 H   0  0  0  0  0  0  0  0  0  0  0  0
   -1.3897   -1.3611    0.5538 C   0  0  0  0  0  0  0  0  0  0  0  0
   -0.3759   -2.0154    0.3721 O   0  0  0  0  0  0  0  0  0  0  0  0
   -1.4736   -0.0660    0.0776 N   0  0  0  0  0  0  0  0  0  0  0  0
   -2.3522    0.3877    0.2972 H   0  0  0  0  0  0  0  0  0  0  0  0
   -0.2874    0.8127    0.0249 C   0  0  1  0  0  0  0  0  0  0  0  0
    0.4797    0.3212   -0.5854 H   0  0  0  0  0  0  0  0  0  0  0  0
   -0.7022    2.1102   -0.7015 C   0  0  0  0  0  0  0  0  0  0  0  0
   -1.5331    2.5833   -0.1704 H   0  0  0  0  0  0  0  0  0  0  0  0
    0.1315    2.8169   -0.7258 H   0  0  0  0  0  0  0  0  0  0  0  0
   -1.0875    1.8395   -2.1258 C   0  0  0  0  0  0  0  0  0  0  0  0
   -0.1588    1.5720   -3.1206 N   0  0  0  0  0  0  0  0  0  0  0  0
   -0.8398    1.4060   -4.2289 C   0  0  0  0  0  0  0  0  0  0  0  0
   -0.4035    1.1706   -5.1958 H   0  0  0  0  0  0  0  0  0  0  0  0
   -2.1894    1.5835   -3.9848 N   0  0  0  0  0  0  0  0  0  0  0  0
   -2.9260    1.5088   -4.6840 H   0  0  0  0  0  0  0  0  0  0  0  0
   -2.3519    1.8706   -2.6455 C   0  0  0  0  0  0  0  0  0  0  0  0
   -3.2734    2.0750   -2.1099 H   0  0  0  0  0  0  0  0  0  0  0  0
    0.3794    1.0881    1.4088 C   0  0  0  0  0  0  0  0  0  0  0  0
    0.3508    0.2651    2.3144 O   0  0  0  0  0  0  0  0  0  0  0  0
    0.7700    2.3716    1.7616 N   0  0  0  0  0  0  0  0  0  0  0  0
    0.8241    3.0598    1.0176 H   0  0  0  0  0  0  0  0  0  0  0  0
    1.3126    2.7198    3.0706 C   0  0  0  0  0  0  0  0  0  0  0  0
    2.2346    2.1614    3.2641 H   0  0  0  0  0  0  0  0  0  0  0  0
    1.5394    3.7893    3.1123 H   0  0  0  0  0  0  0  0  0  0  0  0
    0.5895    2.4910    3.8605 H   0  0  0  0  0  0  0  0  0  0  0  0
  1  2  1  0  0  0  0
  2  3  1  0  0  0  0
  2  4  1  0  0  0  0
  2  5  1  0  0  0  0
  5  6  2  0  0  0  0
  5  7  1  0  0  0  0
  7  8  1  0  0  0  0
  7  9  1  0  0  0  0
  9 10  1  0  0  0  0
  9 11  1  0  0  0  0
  9 22  1  0  0  0  0
 11 12  1  0  0  0  0
 11 13  1  0  0  0  0
 11 14  1  0  0  0  0
 14 15  1  0  0  0  0
 14 20  2  0  0  0  0
 15 16  2  0  0  0  0
 16 17  1  0  0  0  0
 16 18  1  0  0  0  0
 18 19  1  0  0  0  0
 18 20  1  0  0  0  0
 20 21  1  0  0  0  0
 22 23  2  0  0  0  0
 22 24  1  0  0  0  0
 24 25  1  0  0  0  0
 24 26  1  0  0  0  0
 26 27  1  0  0  0  0
 26 28  1  0  0  0  0
 26 29  1  0  0  0  0
M  END
$$$$

  -OEChem-01062216083D

 29 29  0     1  0  0  0  0  0999 V2000
   -2.3844   -3.0326    1.4958 H   0  0  0  0  0  0  0  0  0  0  0  0
   -2.6240   -2.0170    1.1674 C   0  0  0  0  0  0  0  0  0  0  0  0
   -2.9674   -1.4426    2.0309 H   0  0  0  0  0  0  0  0  0  0  0  0
   -3.4236   -2.0657    0.4247 H   0  0  0  0  0  0  0  0  0  0  0  0
   -1.3940   -1.3623    0.5667 C   0  0  0  0  0  0  0  0  0  0  0  0
   -0.3846   -2.0225    0.3905 O   0  0  0  0  0  0  0  0  0  0  0  0
   -1.4740   -0.0681    0.0880 N   0  0  0  0  0  0  0  0  0  0  0  0
   -2.3626    0.3800    0.2759 H   0  0  0  0  0  0  0  0  0  0  0  0
   -0.2957    0.8204    0.0322 C   0  0  1  0  0  0  0  0  0  0  0  0
    0.4769    0.3302   -0.5724 H   0  0  0  0  0  0  0  0  0  0  0  0
   -0.7074    2.1138   -0.7007 C   0  0  0  0  0  0  0  0  0  0  0  0
   -1.5437    2.5880   -0.1790 H   0  0  0  0  0  0  0  0  0  0  0  0
    0.1297    2.8182   -0.7154 H   0  0  0  0  0  0  0  0  0  0  0  0
   -1.0848    1.8396   -2.1265 C   0  0  0  0  0  0  0  0  0  0  0  0
   -0.1523    1.5706   -3.1169 N   0  0  0  0  0  0  0  0  0  0  0  0
   -0.8280    1.4014   -4.2277 C   0  0  0  0  0  0  0  0  0  0  0  0
   -0.3876    1.1656   -5.1924 H   0  0  0  0  0  0  0  0  0  0  0  0
   -2.1788    1.5761   -3.9895 N   0  0  0  0  0  0  0  0  0  0  0  0
   -2.9123    1.4954   -4.6914 H   0  0  0  0  0  0  0  0  0  0  0  0
   -2.3474    1.8663   -2.6514 C   0  0  0  0  0  0  0  0  0  0  0  0
   -3.2717    2.0692   -2.1201 H   0  0  0  0  0  0  0  0  0  0  0  0
    0.3628    1.1022    1.4163 C   0  0  0  0  0  0  0  0  0  0  0  0
    0.6500    0.2036    2.1938 O   0  0  0  0  0  0  0  0  0  0  0  0
    0.4580    2.3980    1.9027 N   0  0  0  0  0  0  0  0  0  0  0  0
    0.2521    3.1537    1.2577 H   0  0  0  0  0  0  0  0  0  0  0  0
    1.0131    2.7290    3.2107 C   0  0  0  0  0  0  0  0  0  0  0  0
    2.0560    2.4018    3.2780 H   0  0  0  0  0  0  0  0  0  0  0  0
    0.9781    3.8103    3.3738 H   0  0  0  0  0  0  0  0  0  0  0  0
    0.4387    2.2420    4.0058 H   0  0  0  0  0  0  0  0  0  0  0  0
  1  2  1  0  0  0  0
  2  3  1  0  0  0  0
  2  4  1  0  0  0  0
  2  5  1  0  0  0  0
  5  6  2  0  0  0  0
  5  7  1  0  0  0  0
  7  8  1  0  0  0  0
  7  9  1  0  0  0  0
  9 10  1  0  0  0  0
  9 11  1  0  0  0  0
  9 22  1  0  0  0  0
 11 12  1  0  0  0  0
 11 13  1  0  0  0  0
 11 14  1  0  0  0  0
 14 15  1  0  0  0  0
 14 20  2  0  0  0  0
 15 16  2  0  0  0  0
 16 17  1  0  0  0  0
 16 18  1  0  0  0  0
 18 19  1  0  0  0  0
 18 20  1  0  0  0  0
 20 21  1  0  0  0  0
 22 23  2  0  0  0  0
 22 24  1  0  0  0  0
 24 25  1  0  0  0  0
 24 26  1  0  0  0  0
 26 27  1  0  0  0  0
 26 28  1  0  0  0  0
 26 29  1  0  0  0  0
M  END
$$$$

  -OEChem-01062216083D

 29 29  0     1  0  0  0  0  0999 V2000
   -2.4834   -3.0570    1.4344 H   0  0  0  0  0  0  0  0  0  0  0  0
   -2.7042   -2.0601    1.0422 C   0  0  0  0  0  0  0  0  0  0  0  0
   -3.2007   -1.4793    1.8230 H   0  0  0  0  0  0  0  0  0  0  0  0
   -3.3742   -2.1595    0.1850 H   0  0  0  0  0  0  0  0  0  0  0  0
   -1.4193   -1.3723    0.6197 C   0  0  0  0  0  0  0  0  0  0  0  0
   -0.3805   -2.0059    0.6065 O   0  0  0  0  0  0  0  0  0  0  0  0
   -1.4707   -0.0796    0.1344 N   0  0  0  0  0  0  0  0  0  0  0  0
   -2.3843    0.3552    0.1816 H   0  0  0  0  0  0  0  0  0  0  0  0
   -0.3000    0.8178    0.0726 C   0  0  1  0  0  0  0  0  0  0  0  0
    0.4760    0.3260   -0.5266 H   0  0  0  0  0  0  0  0  0  0  0  0
   -0.7102    2.1081   -0.6646 C   0  0  0  0  0  0  0  0  0  0  0  0
   -1.5513    2.5822   -0.1514 H   0  0  0  0  0  0  0  0  0  0  0  0
    0.1269    2.8132   -0.6703 H   0  0  0  0  0  0  0  0  0  0  0  0
   -1.0834    1.8281   -2.0901 C   0  0  0  0  0  0  0  0  0  0  0  0
   -0.1509    1.5553   -3.0789 N   0  0  0  0  0  0  0  0  0  0  0  0
   -0.8245    1.3834   -4.1902 C   0  0  0  0  0  0  0  0  0  0  0  0
   -0.3820    1.1446   -5.1531 H   0  0  0  0  0  0  0  0  0  0  0  0
   -2.1756    1.5598   -3.9539 N   0  0  0  0  0  0  0  0  0  0  0  0
   -2.9076    1.4847   -4.6581 H   0  0  0  0  0  0  0  0  0  0  0  0
   -2.3455    1.8543   -2.6169 C   0  0  0  0  0  0  0  0  0  0  0  0
   -3.2704    2.0636   -2.0889 H   0  0  0  0  0  0  0  0  0  0  0  0
    0.3521    1.1169    1.4519 C   0  0  0  0  0  0  0  0  0  0  0  0
    1.0237    0.2876    2.0456 O   0  0  0  0  0  0  0  0  0  0  0  0
    0.1649    2.3453    2.0688 N   0  0  0  0  0  0  0  0  0  0  0  0
   -0.3301    3.0598    1.5462 H   0  0  0  0  0  0  0  0  0  0  0  0
    0.7885    2.7109    3.3358 C   0  0  0  0  0  0  0  0  0  0  0  0
    1.8785    2.7320    3.2328 H   0  0  0  0  0  0  0  0  0  0  0  0
    0.4499    3.7021    3.6516 H   0  0  0  0  0  0  0  0  0  0  0  0
    0.5224    1.9918    4.1178 H   0  0  0  0  0  0  0  0  0  0  0  0
  1  2  1  0  0  0  0
  2  3  1  0  0  0  0
  2  4  1  0  0  0  0
  2  5  1  0  0  0  0
  5  6  2  0  0  0  0
  5  7  1  0  0  0  0
  7  8  1  0  0  0  0
  7  9  1  0  0  0  0
  9 10  1  0  0  0  0
  9 11  1  0  0  0  0
  9 22  1  0  0  0  0
 11 12  1  0  0  0  0
 11 13  1  0  0  0  0
 11 14  1  0  0  0  0
 14 15  1  0  0  0  0
 14 20  2  0  0  0  0
 15 16  2  0  0  0  0
 16 17  1  0  0  0  0
 16 18  1  0  0  0  0
 18 19  1  0  0  0  0
 18 20  1  0  0  0  0
 20 21  1  0  0  0  0
 22 23  2  0  0  0  0
 22 24  1  0  0  0  0
 24 25  1  0  0  0  0
 24 26  1  0  0  0  0
 26 27  1  0  0  0  0
 26 28  1  0  0  0  0
 26 29  1  0  0  0  0
M  END
$$$$

  -OEChem-01062216083D

 29 29  0     1  0  0  0  0  0999 V2000
   -2.6270   -3.1570    1.0987 H   0  0  0  0  0  0  0  0  0  0  0  0
   -2.7864   -2.1613    0.6748 C   0  0  0  0  0  0  0  0  0  0  0  0
   -3.6101   -1.6804    1.2074 H   0  0  0  0  0  0  0  0  0  0  0  0
   -3.0524   -2.2683   -0.3795 H   0  0  0  0  0  0  0  0  0  0  0  0
   -1.5249   -1.3288    0.8107 C   0  0  0  0  0  0  0  0  0  0  0  0
   -0.5569   -1.8047    1.3703 O   0  0  0  0  0  0  0  0  0  0  0  0
   -1.5006   -0.0553    0.2765 N   0  0  0  0  0  0  0  0  0  0  0  0
   -2.2958    0.1847   -0.3047 H   0  0  0  0  0  0  0  0  0  0  0  0
   -0.3017    0.7992    0.1697 C   0  0  1  0  0  0  0  0  0  0  0  0
    0.4473    0.2631   -0.4256 H   0  0  0  0  0  0  0  0  0  0  0  0
   -0.6819    2.0844   -0.5894 C   0  0  0  0  0  0  0  0  0  0  0  0
   -1.4952    2.6003   -0.0719 H   0  0  0  0  0  0  0  0  0  0  0  0
    0.1791    2.7596   -0.6229 H   0  0  0  0  0  0  0  0  0  0  0  0
   -1.0946    1.7811   -1.9992 C   0  0  0  0  0  0  0  0  0  0  0  0
   -0.2035    1.4487   -3.0071 N   0  0  0  0  0  0  0  0  0  0  0  0
   -0.9114    1.2959   -4.0997 C   0  0  0  0  0  0  0  0  0  0  0  0
   -0.5042    1.0307   -5.0716 H   0  0  0  0  0  0  0  0  0  0  0  0
   -2.2474    1.5296   -3.8297 N   0  0  0  0  0  0  0  0  0  0  0  0
   -2.9972    1.4988   -4.5188 H   0  0  0  0  0  0  0  0  0  0  0  0
   -2.3683    1.8518   -2.4936 C   0  0  0  0  0  0  0  0  0  0  0  0
   -3.2673    2.1230   -1.9486 H   0  0  0  0  0  0  0  0  0  0  0  0
    0.3798    1.1373    1.5226 C   0  0  0  0  0  0  0  0  0  0  0  0
    1.4158    0.5787    1.8549 O   0  0  0  0  0  0  0  0  0  0  0  0
    0.0009    2.2618    2.2405 N   0  0  0  0  0  0  0  0  0  0  0  0
   -0.8507    2.7323    1.9557 H   0  0  0  0  0  0  0  0  0  0  0  0
    0.6778    2.7033    3.4545 C   0  0  0  0  0  0  0  0  0  0  0  0
    1.7103    2.9928    3.2329 H   0  0  0  0  0  0  0  0  0  0  0  0
    0.1610    3.5668    3.8838 H   0  0  0  0  0  0  0  0  0  0  0  0
    0.6888    1.9011    4.2000 H   0  0  0  0  0  0  0  0  0  0  0  0
  1  2  1  0  0  0  0
  2  3  1  0  0  0  0
  2  4  1  0  0  0  0
  2  5  1  0  0  0  0
  5  6  2  0  0  0  0
  5  7  1  0  0  0  0
  7  8  1  0  0  0  0
  7  9  1  0  0  0  0
  9 10  1  0  0  0  0
  9 11  1  0  0  0  0
  9 22  1  0  0  0  0
 11 12  1  0  0  0  0
 11 13  1  0  0  0  0
 11 14  1  0  0  0  0
 14 15  1  0  0  0  0
 14 20  2  0  0  0  0
 15 16  2  0  0  0  0
 16 17  1  0  0  0  0
 16 18  1  0  0  0  0
 18 19  1  0  0  0  0
 18 20  1  0  0  0  0
 20 21  1  0  0  0  0
 22 23  2  0  0  0  0
 22 24  1  0  0  0  0
 24 25  1  0  0  0  0
 24 26  1  0  0  0  0
 26 27  1  0  0  0  0
 26 28  1  0  0  0  0
 26 29  1  0  0  0  0
M  END
$$$$

  -OEChem-01062216083D

 29 29  0     1  0  0  0  0  0999 V2000
   -2.6050   -3.1739    1.0907 H   0  0  0  0  0  0  0  0  0  0  0  0
   -2.7698   -2.1861    0.6507 C   0  0  0  0  0  0  0  0  0  0  0  0
   -3.6299   -1.7224    1.1393 H   0  0  0  0  0  0  0  0  0  0  0  0
   -2.9833   -2.3079   -0.4140 H   0  0  0  0  0  0  0  0  0  0  0  0
   -1.5379   -1.3204    0.8377 C   0  0  0  0  0  0  0  0  0  0  0  0
   -0.5967   -1.7497    1.4767 O   0  0  0  0  0  0  0  0  0  0  0  0
   -1.5114   -0.0569    0.2809 N   0  0  0  0  0  0  0  0  0  0  0  0
   -2.2662    0.1403   -0.3674 H   0  0  0  0  0  0  0  0  0  0  0  0
   -0.2979    0.7743    0.1640 C   0  0  1  0  0  0  0  0  0  0  0  0
    0.4411    0.2230   -0.4298 H   0  0  0  0  0  0  0  0  0  0  0  0
   -0.6532    2.0694   -0.5875 C   0  0  0  0  0  0  0  0  0  0  0  0
   -1.4497    2.6022   -0.0609 H   0  0  0  0  0  0  0  0  0  0  0  0
    0.2225    2.7256   -0.6219 H   0  0  0  0  0  0  0  0  0  0  0  0
   -1.0840    1.7803   -1.9948 C   0  0  0  0  0  0  0  0  0  0  0  0
   -0.2130    1.4297   -3.0142 N   0  0  0  0  0  0  0  0  0  0  0  0
   -0.9362    1.3012   -4.0998 C   0  0  0  0  0  0  0  0  0  0  0  0
   -0.5467    1.0315   -5.0774 H   0  0  0  0  0  0  0  0  0  0  0  0
   -2.2633    1.5648   -3.8133 N   0  0  0  0  0  0  0  0  0  0  0  0
   -3.0210    1.5582   -4.4943 H   0  0  0  0  0  0  0  0  0  0  0  0
   -2.3613    1.8829   -2.4743 C   0  0  0  0  0  0  0  0  0  0  0  0
   -3.2467    2.1745   -1.9173 H   0  0  0  0  0  0  0  0  0  0  0  0
    0.3820    1.1155    1.5135 C   0  0  0  0  0  0  0  0  0  0  0  0
    1.5367    0.7708    1.7266 O   0  0  0  0  0  0  0  0  0  0  0  0
   -0.1827    2.0608    2.3547 N   0  0  0  0  0  0  0  0  0  0  0  0
   -1.1565    2.2927    2.1934 H   0  0  0  0  0  0  0  0  0  0  0  0
    0.4464    2.4955    3.5958 C   0  0  0  0  0  0  0  0  0  0  0  0
    1.4199    2.9540    3.3921 H   0  0  0  0  0  0  0  0  0  0  0  0
   -0.1829    3.2345    4.1004 H   0  0  0  0  0  0  0  0  0  0  0  0
    0.5917    1.6441    4.2692 H   0  0  0  0  0  0  0  0  0  0  0  0
  1  2  1  0  0  0  0
  2  3  1  0  0  0  0
  2  4  1  0  0  0  0
  2  5  1  0  0  0  0
  5  6  2  0  0  0  0
  5  7  1  0  0  0  0
  7  8  1  0  0  0  0
  7  9  1  0  0  0  0
  9 10  1  0  0  0  0
  9 11  1  0  0  0  0
  9 22  1  0  0  0  0
 11 12  1  0  0  0  0
 11 13  1  0  0  0  0
 11 14  1  0  0  0  0
 14 15  1  0  0  0  0
 14 20  2  0  0  0  0
 15 16  2  0  0  0  0
 16 17  1  0  0  0  0
 16 18  1  0  0  0  0
 18 19  1  0  0  0  0
 18 20  1  0  0  0  0
 20 21  1  0  0  0  0
 22 23  2  0  0  0  0
 22 24  1  0  0  0  0
 24 25  1  0  0  0  0
 24 26  1  0  0  0  0
 26 27  1  0  0  0  0
 26 28  1  0  0  0  0
 26 29  1  0  0  0  0
M  END
$$$$

  -OEChem-01062216083D

 29 29  0     1  0  0  0  0  0999 V2000
   -2.6028   -3.1731    1.1250 H   0  0  0  0  0  0  0  0  0  0  0  0
   -2.7615   -2.1998    0.6517 C   0  0  0  0  0  0  0  0  0  0  0  0
   -3.6381   -1.7286    1.1025 H   0  0  0  0  0  0  0  0  0  0  0  0
   -2.9445   -2.3546   -0.4142 H   0  0  0  0  0  0  0  0  0  0  0  0
   -1.5407   -1.3201    0.8468 C   0  0  0  0  0  0  0  0  0  0  0  0
   -0.6081   -1.7272    1.5137 O   0  0  0  0  0  0  0  0  0  0  0  0
   -1.5133   -0.0628    0.2760 N   0  0  0  0  0  0  0  0  0  0  0  0
   -2.2526    0.1176   -0.3953 H   0  0  0  0  0  0  0  0  0  0  0  0
   -0.2913    0.7555    0.1520 C   0  0  1  0  0  0  0  0  0  0  0  0
    0.4424    0.1971   -0.4417 H   0  0  0  0  0  0  0  0  0  0  0  0
   -0.6324    2.0581   -0.5906 C   0  0  0  0  0  0  0  0  0  0  0  0
   -1.4148    2.6012   -0.0533 H   0  0  0  0  0  0  0  0  0  0  0  0
    0.2533    2.7008   -0.6291 H   0  0  0  0  0  0  0  0  0  0  0  0
   -1.0767    1.7816   -1.9960 C   0  0  0  0  0  0  0  0  0  0  0  0
   -0.2191    1.4226   -3.0239 N   0  0  0  0  0  0  0  0  0  0  0  0
   -0.9516    1.3127   -4.1052 C   0  0  0  0  0  0  0  0  0  0  0  0
   -0.5728    1.0445   -5.0874 H   0  0  0  0  0  0  0  0  0  0  0  0
   -2.2725    1.5935   -3.8071 N   0  0  0  0  0  0  0  0  0  0  0  0
   -3.0349    1.6055   -4.4829 H   0  0  0  0  0  0  0  0  0  0  0  0
   -2.3556    1.9050   -2.4656 C   0  0  0  0  0  0  0  0  0  0  0  0
   -3.2322    2.2070   -1.9002 H   0  0  0  0  0  0  0  0  0  0  0  0
    0.3876    1.1000    1.4984 C   0  0  0  0  0  0  0  0  0  0  0  0
    1.6011    0.9927    1.6181 O   0  0  0  0  0  0  0  0  0  0  0  0
   -0.3134    1.8101    2.4589 N   0  0  0  0  0  0  0  0  0  0  0  0
   -1.3240    1.8019    2.3736 H   0  0  0  0  0  0  0  0  0  0  0  0
    0.2782    2.2146    3.7282 C   0  0  0  0  0  0  0  0  0  0  0  0
    1.1403    2.8681    3.5584 H   0  0  0  0  0  0  0  0  0  0  0  0
   -0.4540    2.7612    4.3298 H   0  0  0  0  0  0  0  0  0  0  0  0
    0.6075    1.3363    4.2935 H   0  0  0  0  0  0  0  0  0  0  0  0
  1  2  1  0  0  0  0
  2  3  1  0  0  0  0
  2  4  1  0  0  0  0
  2  5  1  0  0  0  0
  5  6  2  0  0  0  0
  5  7  1  0  0  0  0
  7  8  1  0  0  0  0
  7  9  1  0  0  0  0
  9 10  1  0  0  0  0
  9 11  1  0  0  0  0
  9 22  1  0  0  0  0
 11 12  1  0  0  0  0
 11 13  1  0  0  0  0
 11 14  1  0  0  0  0
 14 15  1  0  0  0  0
 14 20  2  0  0  0  0
 15 16  2  0  0  0  0
 16 17  1  0  0  0  0
 16 18  1  0  0  0  0
 18 19  1  0  0  0  0
 18 20  1  0  0  0  0
 20 21  1  0  0  0  0
 22 23  2  0  0  0  0
 22 24  1  0  0  0  0
 24 25  1  0  0  0  0
 24 26  1  0  0  0  0
 26 27  1  0  0  0  0
 26 28  1  0  0  0  0
 26 29  1  0  0  0  0
M  END
$$$$

  -OEChem-01062216083D

 29 29  0     1  0  0  0  0  0999 V2000
   -2.6198   -3.1645    1.1563 H   0  0  0  0  0  0  0  0  0  0  0  0
   -2.7621   -2.2095    0.6422 C   0  0  0  0  0  0  0  0  0  0  0  0
   -3.6554   -1.7247    1.0427 H   0  0  0  0  0  0  0  0  0  0  0  0
   -2.9056   -2.4035   -0.4235 H   0  0  0  0  0  0  0  0  0  0  0  0
   -1.5497   -1.3208    0.8494 C   0  0  0  0  0  0  0  0  0  0  0  0
   -0.6273   -1.7126    1.5399 O   0  0  0  0  0  0  0  0  0  0  0  0
   -1.5163   -0.0680    0.2692 N   0  0  0  0  0  0  0  0  0  0  0  0
   -2.2475    0.1074   -0.4126 H   0  0  0  0  0  0  0  0  0  0  0  0
   -0.2873    0.7417    0.1443 C   0  0  1  0  0  0  0  0  0  0  0  0
    0.4441    0.1786   -0.4474 H   0  0  0  0  0  0  0  0  0  0  0  0
   -0.6216    2.0482   -0.5929 C   0  0  0  0  0  0  0  0  0  0  0  0
   -1.3963    2.5954   -0.0481 H   0  0  0  0  0  0  0  0  0  0  0  0
    0.2688    2.6842   -0.6339 H   0  0  0  0  0  0  0  0  0  0  0  0
   -1.0728    1.7794   -1.9973 C   0  0  0  0  0  0  0  0  0  0  0  0
   -0.2230    1.4173   -3.0309 N   0  0  0  0  0  0  0  0  0  0  0  0
   -0.9615    1.3207   -4.1093 C   0  0  0  0  0  0  0  0  0  0  0  0
   -0.5896    1.0546   -5.0948 H   0  0  0  0  0  0  0  0  0  0  0  0
   -2.2785    1.6119   -3.8037 N   0  0  0  0  0  0  0  0  0  0  0  0
   -3.0433    1.6370   -4.4762 H   0  0  0  0  0  0  0  0  0  0  0  0
   -2.3525    1.9173   -2.4603 C   0  0  0  0  0  0  0  0  0  0  0  0
   -3.2226    2.2266   -1.8890 H   0  0  0  0  0  0  0  0  0  0  0  0
    0.3935    1.0944    1.4872 C   0  0  0  0  0  0  0  0  0  0  0  0
    1.6092    1.2312    1.5379 O   0  0  0  0  0  0  0  0  0  0  0  0
   -0.3746    1.5345    2.5515 N   0  0  0  0  0  0  0  0  0  0  0  0
   -1.3581    1.2878    2.5146 H   0  0  0  0  0  0  0  0  0  0  0  0
    0.2043    1.8933    3.8399 C   0  0  0  0  0  0  0  0  0  0  0  0
    0.9038    2.7285    3.7278 H   0  0  0  0  0  0  0  0  0  0  0  0
   -0.5825    2.1956    4.5372 H   0  0  0  0  0  0  0  0  0  0  0  0
    0.7398    1.0394    4.2683 H   0  0  0  0  0  0  0  0  0  0  0  0
  1  2  1  0  0  0  0
  2  3  1  0  0  0  0
  2  4  1  0  0  0  0
  2  5  1  0  0  0  0
  5  6  2  0  0  0  0
  5  7  1  0  0  0  0
  7  8  1  0  0  0  0
  7  9  1  0  0  0  0
  9 10  1  0  0  0  0
  9 11  1  0  0  0  0
  9 22  1  0  0  0  0
 11 12  1  0  0  0  0
 11 13  1  0  0  0  0
 11 14  1  0  0  0  0
 14 15  1  0  0  0  0
 14 20  2  0  0  0  0
 15 16  2  0  0  0  0
 16 17  1  0  0  0  0
 16 18  1  0  0  0  0
 18 19  1  0  0  0  0
 18 20  1  0  0  0  0
 20 21  1  0  0  0  0
 22 23  2  0  0  0  0
 22 24  1  0  0  0  0
 24 25  1  0  0  0  0
 24 26  1  0  0  0  0
 26 27  1  0  0  0  0
 26 28  1  0  0  0  0
 26 29  1  0  0  0  0
M  END
$$$$

  -OEChem-01062216083D

 29 29  0     1  0  0  0  0  0999 V2000
   -2.6444   -3.1632    1.1222 H   0  0  0  0  0  0  0  0  0  0  0  0
   -2.7790   -2.2027    0.6163 C   0  0  0  0  0  0  0  0  0  0  0  0
   -3.6700   -1.7150    1.0186 H   0  0  0  0  0  0  0  0  0  0  0  0
   -2.9208   -2.3862   -0.4516 H   0  0  0  0  0  0  0  0  0  0  0  0
   -1.5622   -1.3234    0.8343 C   0  0  0  0  0  0  0  0  0  0  0  0
   -0.6511   -1.7174    1.5388 O   0  0  0  0  0  0  0  0  0  0  0  0
   -1.5162   -0.0695    0.2583 N   0  0  0  0  0  0  0  0  0  0  0  0
   -2.2465    0.1183   -0.4213 H   0  0  0  0  0  0  0  0  0  0  0  0
   -0.2846    0.7393    0.1435 C   0  0  1  0  0  0  0  0  0  0  0  0
    0.4495    0.1798   -0.4478 H   0  0  0  0  0  0  0  0  0  0  0  0
   -0.6260    2.0455   -0.5921 C   0  0  0  0  0  0  0  0  0  0  0  0
   -1.4040    2.5861   -0.0454 H   0  0  0  0  0  0  0  0  0  0  0  0
    0.2591    2.6889   -0.6329 H   0  0  0  0  0  0  0  0  0  0  0  0
   -1.0734    1.7753   -1.9974 C   0  0  0  0  0  0  0  0  0  0  0  0
   -0.2220    1.4192   -3.0320 N   0  0  0  0  0  0  0  0  0  0  0  0
   -0.9606    1.3201   -4.1102 C   0  0  0  0  0  0  0  0  0  0  0  0
   -0.5874    1.0554   -5.0954 H   0  0  0  0  0  0  0  0  0  0  0  0
   -2.2787    1.6051   -3.8043 N   0  0  0  0  0  0  0  0  0  0  0  0
   -3.0437    1.6277   -4.4765 H   0  0  0  0  0  0  0  0  0  0  0  0
   -2.3536    1.9089   -2.4607 C   0  0  0  0  0  0  0  0  0  0  0  0
   -3.2247    2.2154   -1.8894 H   0  0  0  0  0  0  0  0  0  0  0  0
    0.3976    1.0963    1.4864 C   0  0  0  0  0  0  0  0  0  0  0  0
    1.5635    1.4709    1.4940 O   0  0  0  0  0  0  0  0  0  0  0  0
   -0.3602    1.2405    2.6354 N   0  0  0  0  0  0  0  0  0  0  0  0
   -1.2474    0.7473    2.6249 H   0  0  0  0  0  0  0  0  0  0  0  0
    0.2341    1.5566    3.9278 C   0  0  0  0  0  0  0  0  0  0  0  0
    0.7600    2.5161    3.8844 H   0  0  0  0  0  0  0  0  0  0  0  0
   -0.5435    1.6259    4.6944 H   0  0  0  0  0  0  0  0  0  0  0  0
    0.9447    0.7771    4.2217 H   0  0  0  0  0  0  0  0  0  0  0  0
  1  2  1  0  0  0  0
  2  3  1  0  0  0  0
  2  4  1  0  0  0  0
  2  5  1  0  0  0  0
  5  6  2  0  0  0  0
  5  7  1  0  0  0  0
  7  8  1  0  0  0  0
  7  9  1  0  0  0  0
  9 10  1  0  0  0  0
  9 11  1  0  0  0  0
  9 22  1  0  0  0  0
 11 12  1  0  0  0  0
 11 13  1  0  0  0  0
 11 14  1  0  0  0  0
 14 15  1  0  0  0  0
 14 20  2  0  0  0  0
 15 16  2  0  0  0  0
 16 17  1  0  0  0  0
 16 18  1  0  0  0  0
 18 19  1  0  0  0  0
 18 20  1  0  0  0  0
 20 21  1  0  0  0  0
 22 23  2  0  0  0  0
 22 24  1  0  0  0  0
 24 25  1  0  0  0  0
 24 26  1  0  0  0  0
 26 27  1  0  0  0  0
 26 28  1  0  0  0  0
 26 29  1  0  0  0  0
M  END
$$$$

  -OEChem-01062216083D

 29 29  0     1  0  0  0  0  0999 V2000
   -2.7010   -3.1647    1.0551 H   0  0  0  0  0  0  0  0  0  0  0  0
   -2.8190   -2.1937    0.5657 C   0  0  0  0  0  0  0  0  0  0  0  0
   -3.7078   -1.7020    0.9684 H   0  0  0  0  0  0  0  0  0  0  0  0
   -2.9535   -2.3562   -0.5065 H   0  0  0  0  0  0  0  0  0  0  0  0
   -1.5937   -1.3334    0.8105 C   0  0  0  0  0  0  0  0  0  0  0  0
   -0.6992   -1.7436    1.5275 O   0  0  0  0  0  0  0  0  0  0  0  0
   -1.5247   -0.0726    0.2540 N   0  0  0  0  0  0  0  0  0  0  0  0
   -2.2575    0.1409   -0.4150 H   0  0  0  0  0  0  0  0  0  0  0  0
   -0.2912    0.7379    0.1562 C   0  0  1  0  0  0  0  0  0  0  0  0
    0.4443    0.1827   -0.4372 H   0  0  0  0  0  0  0  0  0  0  0  0
   -0.6446    2.0409   -0.5834 C   0  0  0  0  0  0  0  0  0  0  0  0
   -1.4320    2.5720   -0.0408 H   0  0  0  0  0  0  0  0  0  0  0  0
    0.2309    2.6970   -0.6226 H   0  0  0  0  0  0  0  0  0  0  0  0
   -1.0803    1.7657   -1.9922 C   0  0  0  0  0  0  0  0  0  0  0  0
   -0.2188    1.4202   -3.0223 N   0  0  0  0  0  0  0  0  0  0  0  0
   -0.9489    1.3199   -4.1063 C   0  0  0  0  0  0  0  0  0  0  0  0
   -0.5673    1.0638   -5.0909 H   0  0  0  0  0  0  0  0  0  0  0  0
   -2.2715    1.5922   -3.8083 N   0  0  0  0  0  0  0  0  0  0  0  0
   -3.0314    1.6132   -4.4863 H   0  0  0  0  0  0  0  0  0  0  0  0
   -2.3582    1.8908   -2.4642 C   0  0  0  0  0  0  0  0  0  0  0  0
   -3.2351    2.1909   -1.8981 H   0  0  0  0  0  0  0  0  0  0  0  0
    0.4031    1.0927    1.4981 C   0  0  0  0  0  0  0  0  0  0  0  0
    1.4698    1.6955    1.4851 O   0  0  0  0  0  0  0  0  0  0  0  0
   -0.2573    0.9393    2.7042 N   0  0  0  0  0  0  0  0  0  0  0  0
   -0.9656    0.2092    2.6915 H   0  0  0  0  0  0  0  0  0  0  0  0
    0.3746    1.2428    3.9819 C   0  0  0  0  0  0  0  0  0  0  0  0
    0.6763    2.2948    4.0214 H   0  0  0  0  0  0  0  0  0  0  0  0
   -0.3253    1.0553    4.8017 H   0  0  0  0  0  0  0  0  0  0  0  0
    1.2601    0.6154    4.1288 H   0  0  0  0  0  0  0  0  0  0  0  0
  1  2  1  0  0  0  0
  2  3  1  0  0  0  0
  2  4  1  0  0  0  0
  2  5  1  0  0  0  0
  5  6  2  0  0  0  0
  5  7  1  0  0  0  0
  7  8  1  0  0  0  0
  7  9  1  0  0  0  0
  9 10  1  0  0  0  0
  9 11  1  0  0  0  0
  9 22  1  0  0  0  0
 11 12  1  0  0  0  0
 11 13  1  0  0  0  0
 11 14  1  0  0  0  0
 14 15  1  0  0  0  0
 14 20  2  0  0  0  0
 15 16  2  0  0  0  0
 16 17  1  0  0  0  0
 16 18  1  0  0  0  0
 18 19  1  0  0  0  0
 18 20  1  0  0  0  0
 20 21  1  0  0  0  0
 22 23  2  0  0  0  0
 22 24  1  0  0  0  0
 24 25  1  0  0  0  0
 24 26  1  0  0  0  0
 26 27  1  0  0  0  0
 26 28  1  0  0  0  0
 26 29  1  0  0  0  0
M  END
$$$$

  -OEChem-01062216083D

 29 29  0     1  0  0  0  0  0999 V2000
   -2.7402   -3.1670    0.9721 H   0  0  0  0  0  0  0  0  0  0  0  0
   -2.8626   -2.1637    0.5539 C   0  0  0  0  0  0  0  0  0  0  0  0
   -3.7080   -1.6773    1.0464 H   0  0  0  0  0  0  0  0  0  0  0  0
   -3.0727   -2.2531   -0.5147 H   0  0  0  0  0  0  0  0  0  0  0  0
   -1.6002   -1.3506    0.7688 C   0  0  0  0  0  0  0  0  0  0  0  0
   -0.6875   -1.8151    1.4288 O   0  0  0  0  0  0  0  0  0  0  0  0
   -1.5137   -0.0792    0.2398 N   0  0  0  0  0  0  0  0  0  0  0  0
   -2.2752    0.1838   -0.3772 H   0  0  0  0  0  0  0  0  0  0  0  0
   -0.2860    0.7437    0.1602 C   0  0  1  0  0  0  0  0  0  0  0  0
    0.4552    0.2010   -0.4373 H   0  0  0  0  0  0  0  0  0  0  0  0
   -0.6603    2.0436   -0.5787 C   0  0  0  0  0  0  0  0  0  0  0  0
   -1.4589    2.5598   -0.0381 H   0  0  0  0  0  0  0  0  0  0  0  0
    0.2015    2.7173   -0.6172 H   0  0  0  0  0  0  0  0  0  0  0  0
   -1.0822    1.7632   -1.9908 C   0  0  0  0  0  0  0  0  0  0  0  0
   -0.2089    1.4365   -3.0175 N   0  0  0  0  0  0  0  0  0  0  0  0
   -0.9323    1.3223   -4.1045 C   0  0  0  0  0  0  0  0  0  0  0  0
   -0.5411    1.0744   -5.0872 H   0  0  0  0  0  0  0  0  0  0  0  0
   -2.2614    1.5687   -3.8126 N   0  0  0  0  0  0  0  0  0  0  0  0
   -3.0186    1.5753   -4.4939 H   0  0  0  0  0  0  0  0  0  0  0  0
   -2.3601    1.8640   -2.4687 C   0  0  0  0  0  0  0  0  0  0  0  0
   -3.2456    2.1454   -1.9067 H   0  0  0  0  0  0  0  0  0  0  0  0
    0.4119    1.0906    1.5070 C   0  0  0  0  0  0  0  0  0  0  0  0
    1.3387    1.8924    1.5221 O   0  0  0  0  0  0  0  0  0  0  0  0
   -0.0880    0.6509    2.7195 N   0  0  0  0  0  0  0  0  0  0  0  0
   -0.6202   -0.2165    2.6486 H   0  0  0  0  0  0  0  0  0  0  0  0
    0.5713    0.9326    3.9885 C   0  0  0  0  0  0  0  0  0  0  0  0
    0.6406    2.0127    4.1540 H   0  0  0  0  0  0  0  0  0  0  0  0
    0.0012    0.4949    4.8134 H   0  0  0  0  0  0  0  0  0  0  0  0
    1.5808    0.5085    3.9982 H   0  0  0  0  0  0  0  0  0  0  0  0
  1  2  1  0  0  0  0
  2  3  1  0  0  0  0
  2  4  1  0  0  0  0
  2  5  1  0  0  0  0
  5  6  2  0  0  0  0
  5  7  1  0  0  0  0
  7  8  1  0  0  0  0
  7  9  1  0  0  0  0
  9 10  1  0  0  0  0
  9 11  1  0  0  0  0
  9 22  1  0  0  0  0
 11 12  1  0  0  0  0
 11 13  1  0  0  0  0
 11 14  1  0  0  0  0
 14 15  1  0  0  0  0
 14 20  2  0  0  0  0
 15 16  2  0  0  0  0
 16 17  1  0  0  0  0
 16 18  1  0  0  0  0
 18 19  1  0  0  0  0
 18 20  1  0  0  0  0
 20 21  1  0  0  0  0
 22 23  2  0  0  0  0
 22 24  1  0  0  0  0
 24 25  1  0  0  0  0
 24 26  1  0  0  0  0
 26 27  1  0  0  0  0
 26 28  1  0  0  0  0
 26 29  1  0  0  0  0
M  END
$$$$

  -OEChem-01062216083D

 29 29  0     1  0  0  0  0  0999 V2000
   -2.7716   -3.1515    1.0025 H   0  0  0  0  0  0  0  0  0  0  0  0
   -2.8911   -2.1369    0.6117 C   0  0  0  0  0  0  0  0  0  0  0  0
   -3.6693   -1.6284    1.1859 H   0  0  0  0  0  0  0  0  0  0  0  0
   -3.1995   -2.1987   -0.4346 H   0  0  0  0  0  0  0  0  0  0  0  0
   -1.5832   -1.3764    0.7232 C   0  0  0  0  0  0  0  0  0  0  0  0
   -0.6212   -1.9065    1.2517 O   0  0  0  0  0  0  0  0  0  0  0  0
   -1.5012   -0.0916    0.2256 N   0  0  0  0  0  0  0  0  0  0  0  0
   -2.3223    0.2408   -0.2690 H   0  0  0  0  0  0  0  0  0  0  0  0
   -0.2894    0.7561    0.1579 C   0  0  1  0  0  0  0  0  0  0  0  0
    0.4599    0.2290   -0.4434 H   0  0  0  0  0  0  0  0  0  0  0  0
   -0.6825    2.0504   -0.5846 C   0  0  0  0  0  0  0  0  0  0  0  0
   -1.4946    2.5515   -0.0504 H   0  0  0  0  0  0  0  0  0  0  0  0
    0.1663    2.7408   -0.6181 H   0  0  0  0  0  0  0  0  0  0  0  0
   -1.0852    1.7657   -2.0014 C   0  0  0  0  0  0  0  0  0  0  0  0
   -0.1923    1.4590   -3.0175 N   0  0  0  0  0  0  0  0  0  0  0  0
   -0.8990    1.3384   -4.1147 C   0  0  0  0  0  0  0  0  0  0  0  0
   -0.4901    1.1024   -5.0933 H   0  0  0  0  0  0  0  0  0  0  0  0
   -2.2357    1.5622   -3.8401 N   0  0  0  0  0  0  0  0  0  0  0  0
   -2.9836    1.5593   -4.5314 H   0  0  0  0  0  0  0  0  0  0  0  0
   -2.3579    1.8492   -2.4964 C   0  0  0  0  0  0  0  0  0  0  0  0
   -3.2553    2.1143   -1.9458 H   0  0  0  0  0  0  0  0  0  0  0  0
    0.4093    1.0900    1.5112 C   0  0  0  0  0  0  0  0  0  0  0  0
    1.1499    2.0632    1.5962 O   0  0  0  0  0  0  0  0  0  0  0  0
    0.1310    0.3957    2.6744 N   0  0  0  0  0  0  0  0  0  0  0  0
   -0.2611   -0.5353    2.5223 H   0  0  0  0  0  0  0  0  0  0  0  0
    0.8207    0.6452    3.9340 C   0  0  0  0  0  0  0  0  0  0  0  0
    0.6781    1.6837    4.2508 H   0  0  0  0  0  0  0  0  0  0  0  0
    0.4244   -0.0097    4.7158 H   0  0  0  0  0  0  0  0  0  0  0  0
    1.8934    0.4522    3.8283 H   0  0  0  0  0  0  0  0  0  0  0  0
  1  2  1  0  0  0  0
  2  3  1  0  0  0  0
  2  4  1  0  0  0  0
  2  5  1  0  0  0  0
  5  6  2  0  0  0  0
  5  7  1  0  0  0  0
  7  8  1  0  0  0  0
  7  9  1  0  0  0  0
  9 10  1  0  0  0  0
  9 11  1  0  0  0  0
  9 22  1  0  0  0  0
 11 12  1  0  0  0  0
 11 13  1  0  0  0  0
 11 14  1  0  0  0  0
 14 15  1  0  0  0  0
 14 20  2  0  0  0  0
 15 16  2  0  0  0  0
 16 17  1  0  0  0  0
 16 18  1  0  0  0  0
 18 19  1  0  0  0  0
 18 20  1  0  0  0  0
 20 21  1  0  0  0  0
 22 23  2  0  0  0  0
 22 24  1  0  0  0  0
 24 25  1  0  0  0  0
 24 26  1  0  0  0  0
 26 27  1  0  0  0  0
 26 28  1  0  0  0  0
 26 29  1  0  0  0  0
M  END
$$$$

  -OEChem-01062216083D

 29 29  0     1  0  0  0  0  0999 V2000
   -2.7666   -3.1309    1.0767 H   0  0  0  0  0  0  0  0  0  0  0  0
   -2.8915   -2.1129    0.6964 C   0  0  0  0  0  0  0  0  0  0  0  0
   -3.5983   -1.5820    1.3389 H   0  0  0  0  0  0  0  0  0  0  0  0
   -3.2961   -2.1642   -0.3174 H   0  0  0  0  0  0  0  0  0  0  0  0
   -1.5571   -1.3913    0.6852 C   0  0  0  0  0  0  0  0  0  0  0  0
   -0.5562   -1.9695    1.0744 O   0  0  0  0  0  0  0  0  0  0  0  0
   -1.4903   -0.0968    0.2107 N   0  0  0  0  0  0  0  0  0  0  0  0
   -2.3607    0.2941   -0.1331 H   0  0  0  0  0  0  0  0  0  0  0  0
   -0.2907    0.7677    0.1472 C   0  0  1  0  0  0  0  0  0  0  0  0
    0.4628    0.2522   -0.4591 H   0  0  0  0  0  0  0  0  0  0  0  0
   -0.6914    2.0606   -0.5949 C   0  0  0  0  0  0  0  0  0  0  0  0
   -1.5103    2.5543   -0.0640 H   0  0  0  0  0  0  0  0  0  0  0  0
    0.1521    2.7575   -0.6232 H   0  0  0  0  0  0  0  0  0  0  0  0
   -1.0834    1.7756   -2.0148 C   0  0  0  0  0  0  0  0  0  0  0  0
   -0.1770    1.4801   -3.0227 N   0  0  0  0  0  0  0  0  0  0  0  0
   -0.8723    1.3513   -4.1262 C   0  0  0  0  0  0  0  0  0  0  0  0
   -0.4519    1.1190   -5.1006 H   0  0  0  0  0  0  0  0  0  0  0  0
   -2.2139    1.5609   -3.8648 N   0  0  0  0  0  0  0  0  0  0  0  0
   -2.9555    1.5445   -4.5627 H   0  0  0  0  0  0  0  0  0  0  0  0
   -2.3521    1.8464   -2.5221 C   0  0  0  0  0  0  0  0  0  0  0  0
   -3.2579    2.0997   -1.9798 H   0  0  0  0  0  0  0  0  0  0  0  0
    0.4078    1.0821    1.5061 C   0  0  0  0  0  0  0  0  0  0  0  0
    0.9278    2.1756    1.6986 O   0  0  0  0  0  0  0  0  0  0  0  0
    0.3846    0.1969    2.5677 N   0  0  0  0  0  0  0  0  0  0  0  0
    0.1131   -0.7597    2.3292 H   0  0  0  0  0  0  0  0  0  0  0  0
    1.0913    0.4226    3.8221 C   0  0  0  0  0  0  0  0  0  0  0  0
    0.7454    1.3464    4.2976 H   0  0  0  0  0  0  0  0  0  0  0  0
    0.9087   -0.4077    4.5109 H   0  0  0  0  0  0  0  0  0  0  0  0
    2.1694    0.4981    3.6460 H   0  0  0  0  0  0  0  0  0  0  0  0
  1  2  1  0  0  0  0
  2  3  1  0  0  0  0
  2  4  1  0  0  0  0
  2  5  1  0  0  0  0
  5  6  2  0  0  0  0
  5  7  1  0  0  0  0
  7  8  1  0  0  0  0
  7  9  1  0  0  0  0
  9 10  1  0  0  0  0
  9 11  1  0  0  0  0
  9 22  1  0  0  0  0
 11 12  1  0  0  0  0
 11 13  1  0  0  0  0
 11 14  1  0  0  0  0
 14 15  1  0  0  0  0
 14 20  2  0  0  0  0
 15 16  2  0  0  0  0
 16 17  1  0  0  0  0
 16 18  1  0  0  0  0
 18 19  1  0  0  0  0
 18 20  1  0  0  0  0
 20 21  1  0  0  0  0
 22 23  2  0  0  0  0
 22 24  1  0  0  0  0
 24 25  1  0  0  0  0
 24 26  1  0  0  0  0
 26 27  1  0  0  0  0
 26 28  1  0  0  0  0
 26 29  1  0  0  0  0
M  END
$$$$

  -OEChem-01062216083D

 29 29  0     1  0  0  0  0  0999 V2000
   -2.7175   -3.1142    1.1627 H   0  0  0  0  0  0  0  0  0  0  0  0
   -2.8584   -2.0974    0.7851 C   0  0  0  0  0  0  0  0  0  0  0  0
   -3.5076   -1.5534    1.4754 H   0  0  0  0  0  0  0  0  0  0  0  0
   -3.3399   -2.1501   -0.1945 H   0  0  0  0  0  0  0  0  0  0  0  0
   -1.5196   -1.3936    0.6670 C   0  0  0  0  0  0  0  0  0  0  0  0
   -0.4957   -1.9939    0.9507 O   0  0  0  0  0  0  0  0  0  0  0  0
   -1.4744   -0.0957    0.1985 N   0  0  0  0  0  0  0  0  0  0  0  0
   -2.3697    0.3275   -0.0203 H   0  0  0  0  0  0  0  0  0  0  0  0
   -0.2800    0.7737    0.1246 C   0  0  1  0  0  0  0  0  0  0  0  0
    0.4699    0.2614   -0.4886 H   0  0  0  0  0  0  0  0  0  0  0  0
   -0.6776    2.0691   -0.6129 C   0  0  0  0  0  0  0  0  0  0  0  0
   -1.4926    2.5660   -0.0791 H   0  0  0  0  0  0  0  0  0  0  0  0
    0.1710    2.7603   -0.6393 H   0  0  0  0  0  0  0  0  0  0  0  0
   -1.0757    1.7870   -2.0314 C   0  0  0  0  0  0  0  0  0  0  0  0
   -0.1721    1.4890   -3.0413 N   0  0  0  0  0  0  0  0  0  0  0  0
   -0.8711    1.3583   -4.1423 C   0  0  0  0  0  0  0  0  0  0  0  0
   -0.4546    1.1222   -5.1174 H   0  0  0  0  0  0  0  0  0  0  0  0
   -2.2114    1.5720   -3.8776 N   0  0  0  0  0  0  0  0  0  0  0  0
   -2.9559    1.5522   -4.5724 H   0  0  0  0  0  0  0  0  0  0  0  0
   -2.3454    1.8598   -2.5352 C   0  0  0  0  0  0  0  0  0  0  0  0
   -3.2494    2.1123   -1.9899 H   0  0  0  0  0  0  0  0  0  0  0  0
    0.4225    1.0717    1.4835 C   0  0  0  0  0  0  0  0  0  0  0  0
    0.7103    2.2208    1.8006 O   0  0  0  0  0  0  0  0  0  0  0  0
    0.6689    0.0760    2.4091 N   0  0  0  0  0  0  0  0  0  0  0  0
    0.4737   -0.8807    2.1023 H   0  0  0  0  0  0  0  0  0  0  0  0
    1.3531    0.2860    3.6781 C   0  0  0  0  0  0  0  0  0  0  0  0
    0.8119    1.0149    4.2902 H   0  0  0  0  0  0  0  0  0  0  0  0
    1.4120   -0.6545    4.2338 H   0  0  0  0  0  0  0  0  0  0  0  0
    2.3706    0.6527    3.5076 H   0  0  0  0  0  0  0  0  0  0  0  0
  1  2  1  0  0  0  0
  2  3  1  0  0  0  0
  2  4  1  0  0  0  0
  2  5  1  0  0  0  0
  5  6  2  0  0  0  0
  5  7  1  0  0  0  0
  7  8  1  0  0  0  0
  7  9  1  0  0  0  0
  9 10  1  0  0  0  0
  9 11  1  0  0  0  0
  9 22  1  0  0  0  0
 11 12  1  0  0  0  0
 11 13  1  0  0  0  0
 11 14  1  0  0  0  0
 14 15  1  0  0  0  0
 14 20  2  0  0  0  0
 15 16  2  0  0  0  0
 16 17  1  0  0  0  0
 16 18  1  0  0  0  0
 18 19  1  0  0  0  0
 18 20  1  0  0  0  0
 20 21  1  0  0  0  0
 22 23  2  0  0  0  0
 22 24  1  0  0  0  0
 24 25  1  0  0  0  0
 24 26  1  0  0  0  0
 26 27  1  0  0  0  0
 26 28  1  0  0  0  0
 26 29  1  0  0  0  0
M  END
$$$$

  -OEChem-01062216083D

 29 29  0     1  0  0  0  0  0999 V2000
   -2.6406   -3.0959    1.2459 H   0  0  0  0  0  0  0  0  0  0  0  0
   -2.7999   -2.0831    0.8648 C   0  0  0  0  0  0  0  0  0  0  0  0
   -3.4145   -1.5315    1.5805 H   0  0  0  0  0  0  0  0  0  0  0  0
   -3.3291   -2.1457   -0.0891 H   0  0  0  0  0  0  0  0  0  0  0  0
   -1.4683   -1.3817    0.6730 C   0  0  0  0  0  0  0  0  0  0  0  0
   -0.4308   -1.9806    0.9071 O   0  0  0  0  0  0  0  0  0  0  0  0
   -1.4441   -0.0880    0.1917 N   0  0  0  0  0  0  0  0  0  0  0  0
   -2.3474    0.3472    0.0394 H   0  0  0  0  0  0  0  0  0  0  0  0
   -0.2509    0.7775    0.0924 C   0  0  1  0  0  0  0  0  0  0  0  0
    0.4905    0.2626   -0.5290 H   0  0  0  0  0  0  0  0  0  0  0  0
   -0.6468    2.0746   -0.6395 C   0  0  0  0  0  0  0  0  0  0  0  0
   -1.4525    2.5765   -0.0960 H   0  0  0  0  0  0  0  0  0  0  0  0
    0.2074    2.7585   -0.6711 H   0  0  0  0  0  0  0  0  0  0  0  0
   -1.0683    1.7944   -2.0513 C   0  0  0  0  0  0  0  0  0  0  0  0
   -0.1808    1.4869   -3.0726 N   0  0  0  0  0  0  0  0  0  0  0  0
   -0.8965    1.3617   -4.1637 C   0  0  0  0  0  0  0  0  0  0  0  0
   -0.4956    1.1209   -5.1440 H   0  0  0  0  0  0  0  0  0  0  0  0
   -2.2312    1.5885   -3.8816 N   0  0  0  0  0  0  0  0  0  0  0  0
   -2.9852    1.5762   -4.5662 H   0  0  0  0  0  0  0  0  0  0  0  0
   -2.3441    1.8783   -2.5378 C   0  0  0  0  0  0  0  0  0  0  0  0
   -3.2382    2.1387   -1.9802 H   0  0  0  0  0  0  0  0  0  0  0  0
    0.4579    1.0711    1.4452 C   0  0  0  0  0  0  0  0  0  0  0  0
    0.5262    2.2143    1.8842 O   0  0  0  0  0  0  0  0  0  0  0  0
    0.9723    0.0481    2.2172 N   0  0  0  0  0  0  0  0  0  0  0  0
    0.8044   -0.9021    1.8750 H   0  0  0  0  0  0  0  0  0  0  0  0
    1.5893    0.2341    3.5234 C   0  0  0  0  0  0  0  0  0  0  0  0
    0.8673    0.6515    4.2326 H   0  0  0  0  0  0  0  0  0  0  0  0
    1.9430   -0.7258    3.9114 H   0  0  0  0  0  0  0  0  0  0  0  0
    2.4456    0.9126    3.4499 H   0  0  0  0  0  0  0  0  0  0  0  0
  1  2  1  0  0  0  0
  2  3  1  0  0  0  0
  2  4  1  0  0  0  0
  2  5  1  0  0  0  0
  5  6  2  0  0  0  0
  5  7  1  0  0  0  0
  7  8  1  0  0  0  0
  7  9  1  0  0  0  0
  9 10  1  0  0  0  0
  9 11  1  0  0  0  0
  9 22  1  0  0  0  0
 11 12  1  0  0  0  0
 11 13  1  0  0  0  0
 11 14  1  0  0  0  0
 14 15  1  0  0  0  0
 14 20  2  0  0  0  0
 15 16  2  0  0  0  0
 16 17  1  0  0  0  0
 16 18  1  0  0  0  0
 18 19  1  0  0  0  0
 18 20  1  0  0  0  0
 20 21  1  0  0  0  0
 22 23  2  0  0  0  0
 22 24  1  0  0  0  0
 24 25  1  0  0  0  0
 24 26  1  0  0  0  0
 26 27  1  0  0  0  0
 26 28  1  0  0  0  0
 26 29  1  0  0  0  0
M  END
$$$$

  -OEChem-01062216083D

 29 29  0     1  0  0  0  0  0999 V2000
   -2.5408   -3.0730    1.3406 H   0  0  0  0  0  0  0  0  0  0  0  0
   -2.7247   -2.0737    0.9359 C   0  0  0  0  0  0  0  0  0  0  0  0
   -3.3230   -1.5084    1.6546 H   0  0  0  0  0  0  0  0  0  0  0  0
   -3.2828   -2.1697    0.0015 H   0  0  0  0  0  0  0  0  0  0  0  0
   -1.4090   -1.3624    0.6828 C   0  0  0  0  0  0  0  0  0  0  0  0
   -0.3543   -1.9389    0.8996 O   0  0  0  0  0  0  0  0  0  0  0  0
   -1.4154   -0.0781    0.1771 N   0  0  0  0  0  0  0  0  0  0  0  0
   -2.3245    0.3584    0.0690 H   0  0  0  0  0  0  0  0  0  0  0  0
   -0.2249    0.7845    0.0578 C   0  0  1  0  0  0  0  0  0  0  0  0
    0.5151    0.2705   -0.5660 H   0  0  0  0  0  0  0  0  0  0  0  0
   -0.6209    2.0843   -0.6673 C   0  0  0  0  0  0  0  0  0  0  0  0
   -1.4185    2.5896   -0.1146 H   0  0  0  0  0  0  0  0  0  0  0  0
    0.2372    2.7628   -0.7044 H   0  0  0  0  0  0  0  0  0  0  0  0
   -1.0629    1.8086   -2.0733 C   0  0  0  0  0  0  0  0  0  0  0  0
   -0.1912    1.4960   -3.1067 N   0  0  0  0  0  0  0  0  0  0  0  0
   -0.9234    1.3721   -4.1869 C   0  0  0  0  0  0  0  0  0  0  0  0
   -0.5378    1.1264   -5.1723 H   0  0  0  0  0  0  0  0  0  0  0  0
   -2.2527    1.6060   -3.8859 N   0  0  0  0  0  0  0  0  0  0  0  0
   -3.0170    1.5939   -4.5591 H   0  0  0  0  0  0  0  0  0  0  0  0
   -2.3451    1.8969   -2.5407 C   0  0  0  0  0  0  0  0  0  0  0  0
   -3.2295    2.1596   -1.9687 H   0  0  0  0  0  0  0  0  0  0  0  0
    0.4677    1.0788    1.4148 C   0  0  0  0  0  0  0  0  0  0  0  0
    0.3321    2.1656    1.9671 O   0  0  0  0  0  0  0  0  0  0  0  0
    1.2295    0.1074    2.0341 N   0  0  0  0  0  0  0  0  0  0  0  0
    1.1149   -0.8383    1.6590 H   0  0  0  0  0  0  0  0  0  0  0  0
    1.8090    0.2650    3.3613 C   0  0  0  0  0  0  0  0  0  0  0  0
    1.0218    0.3915    4.1115 H   0  0  0  0  0  0  0  0  0  0  0  0
    2.3991   -0.6190    3.6209 H   0  0  0  0  0  0  0  0  0  0  0  0
    2.4683    1.1388    3.3904 H   0  0  0  0  0  0  0  0  0  0  0  0
  1  2  1  0  0  0  0
  2  3  1  0  0  0  0
  2  4  1  0  0  0  0
  2  5  1  0  0  0  0
  5  6  2  0  0  0  0
  5  7  1  0  0  0  0
  7  8  1  0  0  0  0
  7  9  1  0  0  0  0
  9 10  1  0  0  0  0
  9 11  1  0  0  0  0
  9 22  1  0  0  0  0
 11 12  1  0  0  0  0
 11 13  1  0  0  0  0
 11 14  1  0  0  0  0
 14 15  1  0  0  0  0
 14 20  2  0  0  0  0
 15 16  2  0  0  0  0
 16 17  1  0  0  0  0
 16 18  1  0  0  0  0
 18 19  1  0  0  0  0
 18 20  1  0  0  0  0
 20 21  1  0  0  0  0
 22 23  2  0  0  0  0
 22 24  1  0  0  0  0
 24 25  1  0  0  0  0
 24 26  1  0  0  0  0
 26 27  1  0  0  0  0
 26 28  1  0  0  0  0
 26 29  1  0  0  0  0
M  END
$$$$

  -OEChem-01062216083D

 29 29  0     1  0  0  0  0  0999 V2000
   -2.4429   -3.0624    1.4227 H   0  0  0  0  0  0  0  0  0  0  0  0
   -2.6599   -2.0768    1.0012 C   0  0  0  0  0  0  0  0  0  0  0  0
   -3.2467   -1.5065    1.7253 H   0  0  0  0  0  0  0  0  0  0  0  0
   -3.2445   -2.2063    0.0871 H   0  0  0  0  0  0  0  0  0  0  0  0
   -1.3676   -1.3460    0.6904 C   0  0  0  0  0  0  0  0  0  0  0  0
   -0.2930   -1.8926    0.8902 O   0  0  0  0  0  0  0  0  0  0  0  0
   -1.4104   -0.0719    0.1609 N   0  0  0  0  0  0  0  0  0  0  0  0
   -2.3231    0.3682    0.1114 H   0  0  0  0  0  0  0  0  0  0  0  0
   -0.2228    0.7894    0.0318 C   0  0  1  0  0  0  0  0  0  0  0  0
    0.5204    0.2751   -0.5881 H   0  0  0  0  0  0  0  0  0  0  0  0
   -0.6103    2.0923   -0.6894 C   0  0  0  0  0  0  0  0  0  0  0  0
   -1.4038    2.6024   -0.1352 H   0  0  0  0  0  0  0  0  0  0  0  0
    0.2530    2.7642   -0.7244 H   0  0  0  0  0  0  0  0  0  0  0  0
   -1.0594    1.8225   -2.0939 C   0  0  0  0  0  0  0  0  0  0  0  0
   -0.1939    1.5044   -3.1310 N   0  0  0  0  0  0  0  0  0  0  0  0
   -0.9318    1.3876   -4.2084 C   0  0  0  0  0  0  0  0  0  0  0  0
   -0.5523    1.1413   -5.1962 H   0  0  0  0  0  0  0  0  0  0  0  0
   -2.2581    1.6300   -3.9013 N   0  0  0  0  0  0  0  0  0  0  0  0
   -3.0258    1.6219   -4.5704 H   0  0  0  0  0  0  0  0  0  0  0  0
   -2.3429    1.9193   -2.5555 C   0  0  0  0  0  0  0  0  0  0  0  0
   -3.2234    2.1844   -1.9786 H   0  0  0  0  0  0  0  0  0  0  0  0
    0.4442    1.0858    1.3970 C   0  0  0  0  0  0  0  0  0  0  0  0
    0.1150    2.0678    2.0544 O   0  0  0  0  0  0  0  0  0  0  0  0
    1.4295    0.2445    1.8754 N   0  0  0  0  0  0  0  0  0  0  0  0
    1.4383   -0.6828    1.4461 H   0  0  0  0  0  0  0  0  0  0  0  0
    2.0214    0.3924    3.1981 C   0  0  0  0  0  0  0  0  0  0  0  0
    1.2606    0.2671    3.9754 H   0  0  0  0  0  0  0  0  0  0  0  0
    2.7996   -0.3622    3.3476 H   0  0  0  0  0  0  0  0  0  0  0  0
    2.4773    1.3822    3.3058 H   0  0  0  0  0  0  0  0  0  0  0  0
  1  2  1  0  0  0  0
  2  3  1  0  0  0  0
  2  4  1  0  0  0  0
  2  5  1  0  0  0  0
  5  6  2  0  0  0  0
  5  7  1  0  0  0  0
  7  8  1  0  0  0  0
  7  9  1  0  0  0  0
  9 10  1  0  0  0  0
  9 11  1  0  0  0  0
  9 22  1  0  0  0  0
 11 12  1  0  0  0  0
 11 13  1  0  0  0  0
 11 14  1  0  0  0  0
 14 15  1  0  0  0  0
 14 20  2  0  0  0  0
 15 16  2  0  0  0  0
 16 17  1  0  0  0  0
 16 18  1  0  0  0  0
 18 19  1  0  0  0  0
 18 20  1  0  0  0  0
 20 21  1  0  0  0  0
 22 23  2  0  0  0  0
 22 24  1  0  0  0  0
 24 25  1  0  0  0  0
 24 26  1  0  0  0  0
 26 27  1  0  0  0  0
 26 28  1  0  0  0  0
 26 29  1  0  0  0  0
M  END
$$$$

  -OEChem-01062216083D

 29 29  0     1  0  0  0  0  0999 V2000
   -2.3754   -3.0518    1.4920 H   0  0  0  0  0  0  0  0  0  0  0  0
   -2.6167   -2.0726    1.0687 C   0  0  0  0  0  0  0  0  0  0  0  0
   -3.1674   -1.4937    1.8143 H   0  0  0  0  0  0  0  0  0  0  0  0
   -3.2464   -2.2151    0.1872 H   0  0  0  0  0  0  0  0  0  0  0  0
   -1.3439   -1.3432    0.6834 C   0  0  0  0  0  0  0  0  0  0  0  0
   -0.2577   -1.8781    0.8500 O   0  0  0  0  0  0  0  0  0  0  0  0
   -1.4148   -0.0768    0.1387 N   0  0  0  0  0  0  0  0  0  0  0  0
   -2.3237    0.3728    0.1660 H   0  0  0  0  0  0  0  0  0  0  0  0
   -0.2292    0.7845    0.0077 C   0  0  1  0  0  0  0  0  0  0  0  0
    0.5161    0.2698   -0.6093 H   0  0  0  0  0  0  0  0  0  0  0  0
   -0.6099    2.0913   -0.7080 C   0  0  0  0  0  0  0  0  0  0  0  0
   -1.4023    2.6013   -0.1518 H   0  0  0  0  0  0  0  0  0  0  0  0
    0.2560    2.7595   -0.7392 H   0  0  0  0  0  0  0  0  0  0  0  0
   -1.0610    1.8307   -2.1139 C   0  0  0  0  0  0  0  0  0  0  0  0
   -0.1942    1.5131   -3.1503 N   0  0  0  0  0  0  0  0  0  0  0  0
   -0.9298    1.4067   -4.2305 C   0  0  0  0  0  0  0  0  0  0  0  0
   -0.5492    1.1635   -5.2186 H   0  0  0  0  0  0  0  0  0  0  0  0
   -2.2554    1.6566   -3.9261 N   0  0  0  0  0  0  0  0  0  0  0  0
   -3.0217    1.6550   -4.5968 H   0  0  0  0  0  0  0  0  0  0  0  0
   -2.3421    1.9408   -2.5792 C   0  0  0  0  0  0  0  0  0  0  0  0
   -3.2223    2.2108   -2.0039 H   0  0  0  0  0  0  0  0  0  0  0  0
    0.4202    1.0846    1.3781 C   0  0  0  0  0  0  0  0  0  0  0  0
   -0.0923    1.9012    2.1369 O   0  0  0  0  0  0  0  0  0  0  0  0
    1.5944    0.4528    1.7399 N   0  0  0  0  0  0  0  0  0  0  0  0
    1.8101   -0.3902    1.2093 H   0  0  0  0  0  0  0  0  0  0  0  0
    2.1916    0.6019    3.0606 C   0  0  0  0  0  0  0  0  0  0  0  0
    1.5229    0.2022    3.8300 H   0  0  0  0  0  0  0  0  0  0  0  0
    3.1411    0.0603    3.1078 H   0  0  0  0  0  0  0  0  0  0  0  0
    2.3882    1.6572    3.2771 H   0  0  0  0  0  0  0  0  0  0  0  0
  1  2  1  0  0  0  0
  2  3  1  0  0  0  0
  2  4  1  0  0  0  0
  2  5  1  0  0  0  0
  5  6  2  0  0  0  0
  5  7  1  0  0  0  0
  7  8  1  0  0  0  0
  7  9  1  0  0  0  0
  9 10  1  0  0  0  0
  9 11  1  0  0  0  0
  9 22  1  0  0  0  0
 11 12  1  0  0  0  0
 11 13  1  0  0  0  0
 11 14  1  0  0  0  0
 14 15  1  0  0  0  0
 14 20  2  0  0  0  0
 15 16  2  0  0  0  0
 16 17  1  0  0  0  0
 16 18  1  0  0  0  0
 18 19  1  0  0  0  0
 18 20  1  0  0  0  0
 20 21  1  0  0  0  0
 22 23  2  0  0  0  0
 22 24  1  0  0  0  0
 24 25  1  0  0  0  0
 24 26  1  0  0  0  0
 26 27  1  0  0  0  0
 26 28  1  0  0  0  0
 26 29  1  0  0  0  0
M  END
$$$$

  -OEChem-01062216083D

 29 29  0     1  0  0  0  0  0999 V2000
   -2.3545   -3.0402    1.5174 H   0  0  0  0  0  0  0  0  0  0  0  0
   -2.6011   -2.0601    1.0999 C   0  0  0  0  0  0  0  0  0  0  0  0
   -3.1215   -1.4746    1.8618 H   0  0  0  0  0  0  0  0  0  0  0  0
   -3.2614   -2.1988    0.2408 H   0  0  0  0  0  0  0  0  0  0  0  0
   -1.3357   -1.3426    0.6702 C   0  0  0  0  0  0  0  0  0  0  0  0
   -0.2483   -1.8810    0.8124 O   0  0  0  0  0  0  0  0  0  0  0  0
   -1.4170   -0.0804    0.1179 N   0  0  0  0  0  0  0  0  0  0  0  0
   -2.3204    0.3743    0.1935 H   0  0  0  0  0  0  0  0  0  0  0  0
   -0.2332    0.7841   -0.0067 C   0  0  1  0  0  0  0  0  0  0  0  0
    0.5160    0.2722   -0.6210 H   0  0  0  0  0  0  0  0  0  0  0  0
   -0.6142    2.0945   -0.7129 C   0  0  0  0  0  0  0  0  0  0  0  0
   -1.4087    2.5983   -0.1542 H   0  0  0  0  0  0  0  0  0  0  0  0
    0.2498    2.7654   -0.7392 H   0  0  0  0  0  0  0  0  0  0  0  0
   -1.0628    1.8402   -2.1202 C   0  0  0  0  0  0  0  0  0  0  0  0
   -0.1909    1.5299   -3.1545 N   0  0  0  0  0  0  0  0  0  0  0  0
   -0.9238    1.4166   -4.2357 C   0  0  0  0  0  0  0  0  0  0  0  0
   -0.5391    1.1747   -5.2225 H   0  0  0  0  0  0  0  0  0  0  0  0
   -2.2520    1.6566   -3.9344 N   0  0  0  0  0  0  0  0  0  0  0  0
   -3.0174    1.6434   -4.6061 H   0  0  0  0  0  0  0  0  0  0  0  0
   -2.3442    1.9380   -2.5873 C   0  0  0  0  0  0  0  0  0  0  0  0
   -3.2289    2.1936   -2.0122 H   0  0  0  0  0  0  0  0  0  0  0  0
    0.4018    1.0906    1.3670 C   0  0  0  0  0  0  0  0  0  0  0  0
   -0.2439    1.7012    2.2130 O   0  0  0  0  0  0  0  0  0  0  0  0
    1.7078    0.7228    1.6294 N   0  0  0  0  0  0  0  0  0  0  0  0
    2.1146    0.0484    0.9856 H   0  0  0  0  0  0  0  0  0  0  0  0
    2.3174    0.8746    2.9438 C   0  0  0  0  0  0  0  0  0  0  0  0
    1.7868    0.2652    3.6828 H   0  0  0  0  0  0  0  0  0  0  0  0
    3.3631    0.5541    2.9137 H   0  0  0  0  0  0  0  0  0  0  0  0
    2.2883    1.9218    3.2626 H   0  0  0  0  0  0  0  0  0  0  0  0
  1  2  1  0  0  0  0
  2  3  1  0  0  0  0
  2  4  1  0  0  0  0
  2  5  1  0  0  0  0
  5  6  2  0  0  0  0
  5  7  1  0  0  0  0
  7  8  1  0  0  0  0
  7  9  1  0  0  0  0
  9 10  1  0  0  0  0
  9 11  1  0  0  0  0
  9 22  1  0  0  0  0
 11 12  1  0  0  0  0
 11 13  1  0  0  0  0
 11 14  1  0  0  0  0
 14 15  1  0  0  0  0
 14 20  2  0  0  0  0
 15 16  2  0  0  0  0
 16 17  1  0  0  0  0
 16 18  1  0  0  0  0
 18 19  1  0  0  0  0
 18 20  1  0  0  0  0
 20 21  1  0  0  0  0
 22 23  2  0  0  0  0
 22 24  1  0  0  0  0
 24 25  1  0  0  0  0
 24 26  1  0  0  0  0
 26 27  1  0  0  0  0
 26 28  1  0  0  0  0
 26 29  1  0  0  0  0
M  END
$$$$

  -OEChem-01062216083D

 29 29  0     1  0  0  0  0  0999 V2000
   -2.3528   -3.0515    1.5208 H   0  0  0  0  0  0  0  0  0  0  0  0
   -2.6040   -2.0674    1.1152 C   0  0  0  0  0  0  0  0  0  0  0  0
   -3.1015   -1.4833    1.8932 H   0  0  0  0  0  0  0  0  0  0  0  0
   -3.2859   -2.1977    0.2716 H   0  0  0  0  0  0  0  0  0  0  0  0
   -1.3449   -1.3543    0.6600 C   0  0  0  0  0  0  0  0  0  0  0  0
   -0.2582   -1.9003    0.7747 O   0  0  0  0  0  0  0  0  0  0  0  0
   -1.4320   -0.0930    0.1060 N   0  0  0  0  0  0  0  0  0  0  0  0
   -2.3285    0.3668    0.2219 H   0  0  0  0  0  0  0  0  0  0  0  0
   -0.2467    0.7721   -0.0065 C   0  0  1  0  0  0  0  0  0  0  0  0
    0.5066    0.2591   -0.6151 H   0  0  0  0  0  0  0  0  0  0  0  0
   -0.6214    2.0856   -0.7086 C   0  0  0  0  0  0  0  0  0  0  0  0
   -1.4182    2.5878   -0.1520 H   0  0  0  0  0  0  0  0  0  0  0  0
    0.2434    2.7559   -0.7266 H   0  0  0  0  0  0  0  0  0  0  0  0
   -1.0605    1.8397   -2.1204 C   0  0  0  0  0  0  0  0  0  0  0  0
   -0.1825    1.5341   -3.1512 N   0  0  0  0  0  0  0  0  0  0  0  0
   -0.9100    1.4266   -4.2370 C   0  0  0  0  0  0  0  0  0  0  0  0
   -0.5210    1.1879   -5.2229 H   0  0  0  0  0  0  0  0  0  0  0  0
   -2.2393    1.6685   -3.9422 N   0  0  0  0  0  0  0  0  0  0  0  0
   -3.0012    1.6590   -4.6178 H   0  0  0  0  0  0  0  0  0  0  0  0
   -2.3387    1.9436   -2.5945 C   0  0  0  0  0  0  0  0  0  0  0  0
   -3.2259    2.1977   -2.0227 H   0  0  0  0  0  0  0  0  0  0  0  0
    0.3806    1.0828    1.3701 C   0  0  0  0  0  0  0  0  0  0  0  0
   -0.3322    1.4874    2.2836 O   0  0  0  0  0  0  0  0  0  0  0  0
    1.7492    1.0076    1.5503 N   0  0  0  0  0  0  0  0  0  0  0  0
    2.2776    0.5421    0.8170 H   0  0  0  0  0  0  0  0  0  0  0  0
    2.3883    1.2159    2.8432 C   0  0  0  0  0  0  0  0  0  0  0  0
    2.0324    0.4769    3.5686 H   0  0  0  0  0  0  0  0  0  0  0  0
    3.4737    1.1148    2.7485 H   0  0  0  0  0  0  0  0  0  0  0  0
    2.1681    2.2188    3.2235 H   0  0  0  0  0  0  0  0  0  0  0  0
  1  2  1  0  0  0  0
  2  3  1  0  0  0  0
  2  4  1  0  0  0  0
  2  5  1  0  0  0  0
  5  6  2  0  0  0  0
  5  7  1  0  0  0  0
  7  8  1  0  0  0  0
  7  9  1  0  0  0  0
  9 10  1  0  0  0  0
  9 11  1  0  0  0  0
  9 22  1  0  0  0  0
 11 12  1  0  0  0  0
 11 13  1  0  0  0  0
 11 14  1  0  0  0  0
 14 15  1  0  0  0  0
 14 20  2  0  0  0  0
 15 16  2  0  0  0  0
 16 17  1  0  0  0  0
 16 18  1  0  0  0  0
 18 19  1  0  0  0  0
 18 20  1  0  0  0  0
 20 21  1  0  0  0  0
 22 23  2  0  0  0  0
 22 24  1  0  0  0  0
 24 25  1  0  0  0  0
 24 26  1  0  0  0  0
 26 27  1  0  0  0  0
 26 28  1  0  0  0  0
 26 29  1  0  0  0  0
M  END
$$$$

  -OEChem-01062216083D

 29 29  0     1  0  0  0  0  0999 V2000
   -2.3626   -3.0582    1.5207 H   0  0  0  0  0  0  0  0  0  0  0  0
   -2.6117   -2.0678    1.1297 C   0  0  0  0  0  0  0  0  0  0  0  0
   -3.0761   -1.4823    1.9268 H   0  0  0  0  0  0  0  0  0  0  0  0
   -3.3205   -2.1818    0.3063 H   0  0  0  0  0  0  0  0  0  0  0  0
   -1.3573   -1.3691    0.6413 C   0  0  0  0  0  0  0  0  0  0  0  0
   -0.2752   -1.9299    0.7226 O   0  0  0  0  0  0  0  0  0  0  0  0
   -1.4453   -0.1051    0.0929 N   0  0  0  0  0  0  0  0  0  0  0  0
   -2.3351    0.3585    0.2404 H   0  0  0  0  0  0  0  0  0  0  0  0
   -0.2567    0.7586   -0.0020 C   0  0  1  0  0  0  0  0  0  0  0  0
    0.5008    0.2487   -0.6083 H   0  0  0  0  0  0  0  0  0  0  0  0
   -0.6302    2.0768   -0.6963 C   0  0  0  0  0  0  0  0  0  0  0  0
   -1.4323    2.5708   -0.1399 H   0  0  0  0  0  0  0  0  0  0  0  0
    0.2320    2.7504   -0.7041 H   0  0  0  0  0  0  0  0  0  0  0  0
   -1.0598    1.8424   -2.1131 C   0  0  0  0  0  0  0  0  0  0  0  0
   -0.1704    1.5484   -3.1374 N   0  0  0  0  0  0  0  0  0  0  0  0
   -0.8870    1.4430   -4.2306 C   0  0  0  0  0  0  0  0  0  0  0  0
   -0.4878    1.2124   -5.2142 H   0  0  0  0  0  0  0  0  0  0  0  0
   -2.2203    1.6753   -3.9470 N   0  0  0  0  0  0  0  0  0  0  0  0
   -2.9764    1.6603   -4.6290 H   0  0  0  0  0  0  0  0  0  0  0  0
   -2.3342    1.9409   -2.5984 C   0  0  0  0  0  0  0  0  0  0  0  0
   -3.2293    2.1821   -2.0334 H   0  0  0  0  0  0  0  0  0  0  0  0
    0.3657    1.0664    1.3781 C   0  0  0  0  0  0  0  0  0  0  0  0
   -0.3631    1.2577    2.3472 O   0  0  0  0  0  0  0  0  0  0  0  0
    1.7250    1.2918    1.4938 N   0  0  0  0  0  0  0  0  0  0  0  0
    2.3015    1.0468    0.6934 H   0  0  0  0  0  0  0  0  0  0  0  0
    2.3772    1.5762    2.7654 C   0  0  0  0  0  0  0  0  0  0  0  0
    2.2321    0.7452    3.4638 H   0  0  0  0  0  0  0  0  0  0  0  0
    3.4515    1.7196    2.6151 H   0  0  0  0  0  0  0  0  0  0  0  0
    1.9672    2.4884    3.2114 H   0  0  0  0  0  0  0  0  0  0  0  0
  1  2  1  0  0  0  0
  2  3  1  0  0  0  0
  2  4  1  0  0  0  0
  2  5  1  0  0  0  0
  5  6  2  0  0  0  0
  5  7  1  0  0  0  0
  7  8  1  0  0  0  0
  7  9  1  0  0  0  0
  9 10  1  0  0  0  0
  9 11  1  0  0  0  0
  9 22  1  0  0  0  0
 11 12  1  0  0  0  0
 11 13  1  0  0  0  0
 11 14  1  0  0  0  0
 14 15  1  0  0  0  0
 14 20  2  0  0  0  0
 15 16  2  0  0  0  0
 16 17  1  0  0  0  0
 16 18  1  0  0  0  0
 18 19  1  0  0  0  0
 18 20  1  0  0  0  0
 20 21  1  0  0  0  0
 22 23  2  0  0  0  0
 22 24  1  0  0  0  0
 24 25  1  0  0  0  0
 24 26  1  0  0  0  0
 26 27  1  0  0  0  0
 26 28  1  0  0  0  0
 26 29  1  0  0  0  0
M  END
$$$$

  -OEChem-01062216083D

 29 29  0     1  0  0  0  0  0999 V2000
   -2.3694   -3.0644    1.5040 H   0  0  0  0  0  0  0  0  0  0  0  0
   -2.6175   -2.0668    1.1311 C   0  0  0  0  0  0  0  0  0  0  0  0
   -3.0557   -1.4862    1.9465 H   0  0  0  0  0  0  0  0  0  0  0  0
   -3.3477   -2.1631    0.3243 H   0  0  0  0  0  0  0  0  0  0  0  0
   -1.3673   -1.3757    0.6205 C   0  0  0  0  0  0  0  0  0  0  0  0
   -0.2915   -1.9527    0.6614 O   0  0  0  0  0  0  0  0  0  0  0  0
   -1.4546   -0.1064    0.0832 N   0  0  0  0  0  0  0  0  0  0  0  0
   -2.3389    0.3588    0.2545 H   0  0  0  0  0  0  0  0  0  0  0  0
   -0.2616    0.7546    0.0051 C   0  0  1  0  0  0  0  0  0  0  0  0
    0.4990    0.2481   -0.6003 H   0  0  0  0  0  0  0  0  0  0  0  0
   -0.6380    2.0755   -0.6850 C   0  0  0  0  0  0  0  0  0  0  0  0
   -1.4461    2.5619   -0.1310 H   0  0  0  0  0  0  0  0  0  0  0  0
    0.2185    2.7561   -0.6873 H   0  0  0  0  0  0  0  0  0  0  0  0
   -1.0584    1.8444   -2.1051 C   0  0  0  0  0  0  0  0  0  0  0  0
   -0.1615    1.5593   -3.1251 N   0  0  0  0  0  0  0  0  0  0  0  0
   -0.8724    1.4483   -4.2216 C   0  0  0  0  0  0  0  0  0  0  0  0
   -0.4667    1.2208   -5.2033 H   0  0  0  0  0  0  0  0  0  0  0  0
   -2.2089    1.6701   -3.9442 N   0  0  0  0  0  0  0  0  0  0  0  0
   -2.9622    1.6464   -4.6291 H   0  0  0  0  0  0  0  0  0  0  0  0
   -2.3312    1.9342   -2.5961 C   0  0  0  0  0  0  0  0  0  0  0  0
   -3.2309    2.1666   -2.0348 H   0  0  0  0  0  0  0  0  0  0  0  0
    0.3631    1.0553    1.3877 C   0  0  0  0  0  0  0  0  0  0  0  0
   -0.3342    1.0345    2.3977 O   0  0  0  0  0  0  0  0  0  0  0  0
    1.6426    1.5751    1.4688 N   0  0  0  0  0  0  0  0  0  0  0  0
    2.2097    1.5409    0.6259 H   0  0  0  0  0  0  0  0  0  0  0  0
    2.2822    1.9218    2.7318 C   0  0  0  0  0  0  0  0  0  0  0  0
    2.3479    1.0425    3.3815 H   0  0  0  0  0  0  0  0  0  0  0  0
    3.2943    2.2969    2.5525 H   0  0  0  0  0  0  0  0  0  0  0  0
    1.7123    2.7007    3.2491 H   0  0  0  0  0  0  0  0  0  0  0  0
  1  2  1  0  0  0  0
  2  3  1  0  0  0  0
  2  4  1  0  0  0  0
  2  5  1  0  0  0  0
  5  6  2  0  0  0  0
  5  7  1  0  0  0  0
  7  8  1  0  0  0  0
  7  9  1  0  0  0  0
  9 10  1  0  0  0  0
  9 11  1  0  0  0  0
  9 22  1  0  0  0  0
 11 12  1  0  0  0  0
 11 13  1  0  0  0  0
 11 14  1  0  0  0  0
 14 15  1  0  0  0  0
 14 20  2  0  0  0  0
 15 16  2  0  0  0  0
 16 17  1  0  0  0  0
 16 18  1  0  0  0  0
 18 19  1  0  0  0  0
 18 20  1  0  0  0  0
 20 21  1  0  0  0  0
 22 23  2  0  0  0  0
 22 24  1  0  0  0  0
 24 25  1  0  0  0  0
 24 26  1  0  0  0  0
 26 27  1  0  0  0  0
 26 28  1  0  0  0  0
 26 29  1  0  0  0  0
M  END
$$$$

  -OEChem-01062216083D

 29 29  0     1  0  0  0  0  0999 V2000
   -2.3843   -3.0948    1.4643 H   0  0  0  0  0  0  0  0  0  0  0  0
   -2.6223   -2.0819    1.1274 C   0  0  0  0  0  0  0  0  0  0  0  0
   -2.9793   -1.5034    1.9829 H   0  0  0  0  0  0  0  0  0  0  0  0
   -3.4108   -2.1359    0.3734 H   0  0  0  0  0  0  0  0  0  0  0  0
   -1.3863   -1.4254    0.5429 C   0  0  0  0  0  0  0  0  0  0  0  0
   -0.3529   -2.0652    0.4229 O   0  0  0  0  0  0  0  0  0  0  0  0
   -1.4559   -0.1356    0.0514 N   0  0  0  0  0  0  0  0  0  0  0  0
   -2.3363    0.3274    0.2431 H   0  0  0  0  0  0  0  0  0  0  0  0
   -0.2614    0.7317    0.0143 C   0  0  1  0  0  0  0  0  0  0  0  0
    0.3859    0.3846   -0.7986 H   0  0  0  0  0  0  0  0  0  0  0  0
   -0.7262    2.1670   -0.2979 C   0  0  0  0  0  0  0  0  0  0  0  0
   -1.4436    2.4931    0.4610 H   0  0  0  0  0  0  0  0  0  0  0  0
    0.1210    2.8578   -0.2692 H   0  0  0  0  0  0  0  0  0  0  0  0
   -1.3441    2.2559   -1.6607 C   0  0  0  0  0  0  0  0  0  0  0  0
   -0.5980    2.2357   -2.8304 N   0  0  0  0  0  0  0  0  0  0  0  0
   -1.4523    2.3683   -3.8166 C   0  0  0  0  0  0  0  0  0  0  0  0
   -1.1861    2.3860   -4.8697 H   0  0  0  0  0  0  0  0  0  0  0  0
   -2.7360    2.4903   -3.3169 N   0  0  0  0  0  0  0  0  0  0  0  0
   -3.5749    2.6158   -3.8809 H   0  0  0  0  0  0  0  0  0  0  0  0
   -2.6711    2.4307   -1.9403 C   0  0  0  0  0  0  0  0  0  0  0  0
   -3.4840    2.5122   -1.2254 H   0  0  0  0  0  0  0  0  0  0  0  0
    0.6015    0.7367    1.3068 C   0  0  0  0  0  0  0  0  0  0  0  0
    0.1288    0.3609    2.3753 O   0  0  0  0  0  0  0  0  0  0  0  0
    1.7446    1.5173    1.3587 N   0  0  0  0  0  0  0  0  0  0  0  0
    2.1283    1.8327    0.4722 H   0  0  0  0  0  0  0  0  0  0  0  0
    2.5357    1.7027    2.5695 C   0  0  0  0  0  0  0  0  0  0  0  0
    2.8911    0.7377    2.9464 H   0  0  0  0  0  0  0  0  0  0  0  0
    3.4046    2.3341    2.3606 H   0  0  0  0  0  0  0  0  0  0  0  0
    1.9373    2.1870    3.3483 H   0  0  0  0  0  0  0  0  0  0  0  0
  1  2  1  0  0  0  0
  2  3  1  0  0  0  0
  2  4  1  0  0  0  0
  2  5  1  0  0  0  0
  5  6  2  0  0  0  0
  5  7  1  0  0  0  0
  7  8  1  0  0  0  0
  7  9  1  0  0  0  0
  9 10  1  0  0  0  0
  9 11  1  0  0  0  0
  9 22  1  0  0  0  0
 11 12  1  0  0  0  0
 11 13  1  0  0  0  0
 11 14  1  0  0  0  0
 14 15  1  0  0  0  0
 14 20  2  0  0  0  0
 15 16  2  0  0  0  0
 16 17  1  0  0  0  0
 16 18  1  0  0  0  0
 18 19  1  0  0  0  0
 18 20  1  0  0  0  0
 20 21  1  0  0  0  0
 22 23  2  0  0  0  0
 22 24  1  0  0  0  0
 24 25  1  0  0  0  0
 24 26  1  0  0  0  0
 26 27  1  0  0  0  0
 26 28  1  0  0  0  0
 26 29  1  0  0  0  0
M  END
$$$$

  -OEChem-01062216083D

 29 29  0     1  0  0  0  0  0999 V2000
   -2.4041   -3.0898    1.4189 H   0  0  0  0  0  0  0  0  0  0  0  0
   -2.6294   -2.0635    1.1157 C   0  0  0  0  0  0  0  0  0  0  0  0
   -2.9579   -1.5034    1.9944 H   0  0  0  0  0  0  0  0  0  0  0  0
   -3.4340   -2.0815    0.3771 H   0  0  0  0  0  0  0  0  0  0  0  0
   -1.3932   -1.4141    0.5238 C   0  0  0  0  0  0  0  0  0  0  0  0
   -0.3834   -2.0757    0.3401 O   0  0  0  0  0  0  0  0  0  0  0  0
   -1.4526   -0.1144    0.0576 N   0  0  0  0  0  0  0  0  0  0  0  0
   -2.3303    0.3474    0.2627 H   0  0  0  0  0  0  0  0  0  0  0  0
   -0.2582    0.7558    0.0321 C   0  0  1  0  0  0  0  0  0  0  0  0
    0.3896    0.4162   -0.7841 H   0  0  0  0  0  0  0  0  0  0  0  0
   -0.7475    2.1840   -0.2896 C   0  0  0  0  0  0  0  0  0  0  0  0
   -1.4746    2.5018    0.4636 H   0  0  0  0  0  0  0  0  0  0  0  0
    0.0832    2.8937   -0.2672 H   0  0  0  0  0  0  0  0  0  0  0  0
   -1.3564    2.2555   -1.6579 C   0  0  0  0  0  0  0  0  0  0  0  0
   -0.6014    2.2441   -2.8218 N   0  0  0  0  0  0  0  0  0  0  0  0
   -1.4513    2.3484   -3.8152 C   0  0  0  0  0  0  0  0  0  0  0  0
   -1.1783    2.3622   -4.8666 H   0  0  0  0  0  0  0  0  0  0  0  0
   -2.7409    2.4463   -3.3253 N   0  0  0  0  0  0  0  0  0  0  0  0
   -3.5788    2.5441   -3.8960 H   0  0  0  0  0  0  0  0  0  0  0  0
   -2.6847    2.3990   -1.9481 C   0  0  0  0  0  0  0  0  0  0  0  0
   -3.5046    2.4646   -1.2397 H   0  0  0  0  0  0  0  0  0  0  0  0
    0.6245    0.7555    1.3178 C   0  0  0  0  0  0  0  0  0  0  0  0
    0.2811    0.1511    2.3282 O   0  0  0  0  0  0  0  0  0  0  0  0
    1.5719    1.7517    1.4965 N   0  0  0  0  0  0  0  0  0  0  0  0
    1.8593    2.2656    0.6686 H   0  0  0  0  0  0  0  0  0  0  0  0
    2.3421    1.9227    2.7236 C   0  0  0  0  0  0  0  0  0  0  0  0
    2.8951    1.0073    2.9594 H   0  0  0  0  0  0  0  0  0  0  0  0
    3.0599    2.7404    2.6081 H   0  0  0  0  0  0  0  0  0  0  0  0
    1.6801    2.1613    3.5626 H   0  0  0  0  0  0  0  0  0  0  0  0
  1  2  1  0  0  0  0
  2  3  1  0  0  0  0
  2  4  1  0  0  0  0
  2  5  1  0  0  0  0
  5  6  2  0  0  0  0
  5  7  1  0  0  0  0
  7  8  1  0  0  0  0
  7  9  1  0  0  0  0
  9 10  1  0  0  0  0
  9 11  1  0  0  0  0
  9 22  1  0  0  0  0
 11 12  1  0  0  0  0
 11 13  1  0  0  0  0
 11 14  1  0  0  0  0
 14 15  1  0  0  0  0
 14 20  2  0  0  0  0
 15 16  2  0  0  0  0
 16 17  1  0  0  0  0
 16 18  1  0  0  0  0
 18 19  1  0  0  0  0
 18 20  1  0  0  0  0
 20 21  1  0  0  0  0
 22 23  2  0  0  0  0
 22 24  1  0  0  0  0
 24 25  1  0  0  0  0
 24 26  1  0  0  0  0
 26 27  1  0  0  0  0
 26 28  1  0  0  0  0
 26 29  1  0  0  0  0
M  END
$$$$

  -OEChem-01062216083D

 29 29  0     1  0  0  0  0  0999 V2000
   -2.4058   -3.0841    1.3991 H   0  0  0  0  0  0  0  0  0  0  0  0
   -2.6231   -2.0460    1.1323 C   0  0  0  0  0  0  0  0  0  0  0  0
   -2.9056   -1.5041    2.0380 H   0  0  0  0  0  0  0  0  0  0  0  0
   -3.4559   -2.0292    0.4258 H   0  0  0  0  0  0  0  0  0  0  0  0
   -1.3986   -1.4043    0.5086 C   0  0  0  0  0  0  0  0  0  0  0  0
   -0.4209   -2.0860    0.2460 O   0  0  0  0  0  0  0  0  0  0  0  0
   -1.4554   -0.0971    0.0643 N   0  0  0  0  0  0  0  0  0  0  0  0
   -2.3314    0.3600    0.2857 H   0  0  0  0  0  0  0  0  0  0  0  0
   -0.2665    0.7830    0.0461 C   0  0  1  0  0  0  0  0  0  0  0  0
    0.3823    0.4490   -0.7713 H   0  0  0  0  0  0  0  0  0  0  0  0
   -0.7752    2.2025   -0.2923 C   0  0  0  0  0  0  0  0  0  0  0  0
   -1.5112    2.5187    0.4527 H   0  0  0  0  0  0  0  0  0  0  0  0
    0.0452    2.9239   -0.2779 H   0  0  0  0  0  0  0  0  0  0  0  0
   -1.3726    2.2550   -1.6671 C   0  0  0  0  0  0  0  0  0  0  0  0
   -0.6049    2.2467   -2.8221 N   0  0  0  0  0  0  0  0  0  0  0  0
   -1.4449    2.3298   -3.8257 C   0  0  0  0  0  0  0  0  0  0  0  0
   -1.1600    2.3390   -4.8740 H   0  0  0  0  0  0  0  0  0  0  0  0
   -2.7413    2.4125   -3.3511 N   0  0  0  0  0  0  0  0  0  0  0  0
   -3.5740    2.4915   -3.9324 H   0  0  0  0  0  0  0  0  0  0  0  0
   -2.6999    2.3768   -1.9729 C   0  0  0  0  0  0  0  0  0  0  0  0
   -3.5292    2.4352   -1.2750 H   0  0  0  0  0  0  0  0  0  0  0  0
    0.6339    0.7829    1.3254 C   0  0  0  0  0  0  0  0  0  0  0  0
    0.4922   -0.0393    2.2221 O   0  0  0  0  0  0  0  0  0  0  0  0
    1.3448    1.9226    1.6730 N   0  0  0  0  0  0  0  0  0  0  0  0
    1.4900    2.6129    0.9425 H   0  0  0  0  0  0  0  0  0  0  0  0
    2.1031    2.0573    2.9127 C   0  0  0  0  0  0  0  0  0  0  0  0
    2.8673    1.2759    2.9815 H   0  0  0  0  0  0  0  0  0  0  0  0
    2.6002    3.0314    2.9474 H   0  0  0  0  0  0  0  0  0  0  0  0
    1.4392    1.9792    3.7800 H   0  0  0  0  0  0  0  0  0  0  0  0
  1  2  1  0  0  0  0
  2  3  1  0  0  0  0
  2  4  1  0  0  0  0
  2  5  1  0  0  0  0
  5  6  2  0  0  0  0
  5  7  1  0  0  0  0
  7  8  1  0  0  0  0
  7  9  1  0  0  0  0
  9 10  1  0  0  0  0
  9 11  1  0  0  0  0
  9 22  1  0  0  0  0
 11 12  1  0  0  0  0
 11 13  1  0  0  0  0
 11 14  1  0  0  0  0
 14 15  1  0  0  0  0
 14 20  2  0  0  0  0
 15 16  2  0  0  0  0
 16 17  1  0  0  0  0
 16 18  1  0  0  0  0
 18 19  1  0  0  0  0
 18 20  1  0  0  0  0
 20 21  1  0  0  0  0
 22 23  2  0  0  0  0
 22 24  1  0  0  0  0
 24 25  1  0  0  0  0
 24 26  1  0  0  0  0
 26 27  1  0  0  0  0
 26 28  1  0  0  0  0
 26 29  1  0  0  0  0
M  END
$$$$

  -OEChem-01062216083D

 29 29  0     1  0  0  0  0  0999 V2000
   -2.4002   -3.0697    1.4190 H   0  0  0  0  0  0  0  0  0  0  0  0
   -2.6175   -2.0310    1.1545 C   0  0  0  0  0  0  0  0  0  0  0  0
   -2.8797   -1.4870    2.0649 H   0  0  0  0  0  0  0  0  0  0  0  0
   -3.4643   -2.0116    0.4648 H   0  0  0  0  0  0  0  0  0  0  0  0
   -1.4022   -1.3969    0.5045 C   0  0  0  0  0  0  0  0  0  0  0  0
   -0.4544   -2.0955    0.1882 O   0  0  0  0  0  0  0  0  0  0  0  0
   -1.4588   -0.0856    0.0722 N   0  0  0  0  0  0  0  0  0  0  0  0
   -2.3397    0.3634    0.2902 H   0  0  0  0  0  0  0  0  0  0  0  0
   -0.2816    0.8113    0.0568 C   0  0  1  0  0  0  0  0  0  0  0  0
    0.3738    0.4796   -0.7570 H   0  0  0  0  0  0  0  0  0  0  0  0
   -0.7959    2.2244   -0.2988 C   0  0  0  0  0  0  0  0  0  0  0  0
   -1.5402    2.5461    0.4354 H   0  0  0  0  0  0  0  0  0  0  0  0
    0.0253    2.9456   -0.2864 H   0  0  0  0  0  0  0  0  0  0  0  0
   -1.3791    2.2608   -1.6805 C   0  0  0  0  0  0  0  0  0  0  0  0
   -0.6020    2.2478   -2.8289 N   0  0  0  0  0  0  0  0  0  0  0  0
   -1.4339    2.3084   -3.8409 C   0  0  0  0  0  0  0  0  0  0  0  0
   -1.1400    2.3061   -4.8870 H   0  0  0  0  0  0  0  0  0  0  0  0
   -2.7349    2.3845   -3.3781 N   0  0  0  0  0  0  0  0  0  0  0  0
   -3.5636    2.4437   -3.9673 H   0  0  0  0  0  0  0  0  0  0  0  0
   -2.7047    2.3670   -1.9992 C   0  0  0  0  0  0  0  0  0  0  0  0
   -3.5409    2.4241   -1.3095 H   0  0  0  0  0  0  0  0  0  0  0  0
    0.6211    0.8144    1.3352 C   0  0  0  0  0  0  0  0  0  0  0  0
    0.7821   -0.1743    2.0361 O   0  0  0  0  0  0  0  0  0  0  0  0
    1.0677    2.0116    1.8773 N   0  0  0  0  0  0  0  0  0  0  0  0
    0.9713    2.8448    1.3063 H   0  0  0  0  0  0  0  0  0  0  0  0
    1.8387    2.1021    3.1131 C   0  0  0  0  0  0  0  0  0  0  0  0
    2.7708    1.5340    3.0254 H   0  0  0  0  0  0  0  0  0  0  0  0
    2.0878    3.1455    3.3277 H   0  0  0  0  0  0  0  0  0  0  0  0
    1.2620    1.7059    3.9555 H   0  0  0  0  0  0  0  0  0  0  0  0
  1  2  1  0  0  0  0
  2  3  1  0  0  0  0
  2  4  1  0  0  0  0
  2  5  1  0  0  0  0
  5  6  2  0  0  0  0
  5  7  1  0  0  0  0
  7  8  1  0  0  0  0
  7  9  1  0  0  0  0
  9 10  1  0  0  0  0
  9 11  1  0  0  0  0
  9 22  1  0  0  0  0
 11 12  1  0  0  0  0
 11 13  1  0  0  0  0
 11 14  1  0  0  0  0
 14 15  1  0  0  0  0
 14 20  2  0  0  0  0
 15 16  2  0  0  0  0
 16 17  1  0  0  0  0
 16 18  1  0  0  0  0
 18 19  1  0  0  0  0
 18 20  1  0  0  0  0
 20 21  1  0  0  0  0
 22 23  2  0  0  0  0
 22 24  1  0  0  0  0
 24 25  1  0  0  0  0
 24 26  1  0  0  0  0
 26 27  1  0  0  0  0
 26 28  1  0  0  0  0
 26 29  1  0  0  0  0
M  END
$$$$

  -OEChem-01062216083D

 29 29  0     1  0  0  0  0  0999 V2000
   -2.4724   -3.0698    1.3974 H   0  0  0  0  0  0  0  0  0  0  0  0
   -2.6719   -2.0332    1.1114 C   0  0  0  0  0  0  0  0  0  0  0  0
   -2.9961   -1.4826    1.9975 H   0  0  0  0  0  0  0  0  0  0  0  0
   -3.4702   -2.0205    0.3657 H   0  0  0  0  0  0  0  0  0  0  0  0
   -1.4160   -1.4023    0.5396 C   0  0  0  0  0  0  0  0  0  0  0  0
   -0.4495   -2.1044    0.3065 O   0  0  0  0  0  0  0  0  0  0  0  0
   -1.4554   -0.0935    0.0986 N   0  0  0  0  0  0  0  0  0  0  0  0
   -2.3552    0.3497    0.2369 H   0  0  0  0  0  0  0  0  0  0  0  0
   -0.2895    0.8171    0.0828 C   0  0  1  0  0  0  0  0  0  0  0  0
    0.3783    0.4841   -0.7204 H   0  0  0  0  0  0  0  0  0  0  0  0
   -0.8030    2.2252   -0.2877 C   0  0  0  0  0  0  0  0  0  0  0  0
   -1.5571    2.5502    0.4348 H   0  0  0  0  0  0  0  0  0  0  0  0
    0.0224    2.9431   -0.2657 H   0  0  0  0  0  0  0  0  0  0  0  0
   -1.3747    2.2533   -1.6748 C   0  0  0  0  0  0  0  0  0  0  0  0
   -0.5913    2.2349   -2.8185 N   0  0  0  0  0  0  0  0  0  0  0  0
   -1.4162    2.2911   -3.8362 C   0  0  0  0  0  0  0  0  0  0  0  0
   -1.1159    2.2843   -4.8803 H   0  0  0  0  0  0  0  0  0  0  0  0
   -2.7200    2.3678   -3.3818 N   0  0  0  0  0  0  0  0  0  0  0  0
   -3.5448    2.4243   -3.9767 H   0  0  0  0  0  0  0  0  0  0  0  0
   -2.6986    2.3557   -2.0027 C   0  0  0  0  0  0  0  0  0  0  0  0
   -3.5399    2.4157   -1.3197 H   0  0  0  0  0  0  0  0  0  0  0  0
    0.5940    0.8347    1.3699 C   0  0  0  0  0  0  0  0  0  0  0  0
    1.1186   -0.1678    1.8281 O   0  0  0  0  0  0  0  0  0  0  0  0
    0.7659    2.0070    2.0927 N   0  0  0  0  0  0  0  0  0  0  0  0
    0.3951    2.8616    1.6912 H   0  0  0  0  0  0  0  0  0  0  0  0
    1.5966    2.1026    3.2885 C   0  0  0  0  0  0  0  0  0  0  0  0
    2.6429    1.8901    3.0454 H   0  0  0  0  0  0  0  0  0  0  0  0
    1.5362    3.1100    3.7112 H   0  0  0  0  0  0  0  0  0  0  0  0
    1.2597    1.3900    4.0490 H   0  0  0  0  0  0  0  0  0  0  0  0
  1  2  1  0  0  0  0
  2  3  1  0  0  0  0
  2  4  1  0  0  0  0
  2  5  1  0  0  0  0
  5  6  2  0  0  0  0
  5  7  1  0  0  0  0
  7  8  1  0  0  0  0
  7  9  1  0  0  0  0
  9 10  1  0  0  0  0
  9 11  1  0  0  0  0
  9 22  1  0  0  0  0
 11 12  1  0  0  0  0
 11 13  1  0  0  0  0
 11 14  1  0  0  0  0
 14 15  1  0  0  0  0
 14 20  2  0  0  0  0
 15 16  2  0  0  0  0
 16 17  1  0  0  0  0
 16 18  1  0  0  0  0
 18 19  1  0  0  0  0
 18 20  1  0  0  0  0
 20 21  1  0  0  0  0
 22 23  2  0  0  0  0
 22 24  1  0  0  0  0
 24 25  1  0  0  0  0
 24 26  1  0  0  0  0
 26 27  1  0  0  0  0
 26 28  1  0  0  0  0
 26 29  1  0  0  0  0
M  END
$$$$

  -OEChem-01062216083D

 29 29  0     1  0  0  0  0  0999 V2000
   -2.7537   -3.1304    1.0154 H   0  0  0  0  0  0  0  0  0  0  0  0
   -2.8520   -2.1315    0.5807 C   0  0  0  0  0  0  0  0  0  0  0  0
   -3.7186   -1.6382    1.0269 H   0  0  0  0  0  0  0  0  0  0  0  0
   -3.0091   -2.2326   -0.4957 H   0  0  0  0  0  0  0  0  0  0  0  0
   -1.5971   -1.3208    0.8481 C   0  0  0  0  0  0  0  0  0  0  0  0
   -0.7238   -1.8067    1.5375 O   0  0  0  0  0  0  0  0  0  0  0  0
   -1.5103   -0.0448    0.3238 N   0  0  0  0  0  0  0  0  0  0  0  0
   -2.2595    0.1853   -0.3202 H   0  0  0  0  0  0  0  0  0  0  0  0
   -0.2990    0.7986    0.2252 C   0  0  1  0  0  0  0  0  0  0  0  0
    0.3280    0.3910   -0.5765 H   0  0  0  0  0  0  0  0  0  0  0  0
   -0.7583    2.2090   -0.1969 C   0  0  0  0  0  0  0  0  0  0  0  0
   -1.4755    2.6015    0.5298 H   0  0  0  0  0  0  0  0  0  0  0  0
    0.1012    2.8864   -0.2275 H   0  0  0  0  0  0  0  0  0  0  0  0
   -1.3784    2.1916   -1.5623 C   0  0  0  0  0  0  0  0  0  0  0  0
   -0.6523    2.0759   -2.7366 N   0  0  0  0  0  0  0  0  0  0  0  0
   -1.5166    2.1380   -3.7204 C   0  0  0  0  0  0  0  0  0  0  0  0
   -1.2624    2.0768   -4.7748 H   0  0  0  0  0  0  0  0  0  0  0  0
   -2.7937    2.2970   -3.2138 N   0  0  0  0  0  0  0  0  0  0  0  0
   -3.6381    2.3957   -3.7755 H   0  0  0  0  0  0  0  0  0  0  0  0
   -2.7095    2.3442   -1.8376 C   0  0  0  0  0  0  0  0  0  0  0  0
   -3.5123    2.4898   -1.1206 H   0  0  0  0  0  0  0  0  0  0  0  0
    0.6195    0.8656    1.4793 C   0  0  0  0  0  0  0  0  0  0  0  0
    1.5700    0.1018    1.5791 O   0  0  0  0  0  0  0  0  0  0  0  0
    0.6320    1.9857    2.2983 N   0  0  0  0  0  0  0  0  0  0  0  0
   -0.1332    2.6432    2.1994 H   0  0  0  0  0  0  0  0  0  0  0  0
    1.5791    2.1694    3.3923 C   0  0  0  0  0  0  0  0  0  0  0  0
    2.6016    2.2384    3.0060 H   0  0  0  0  0  0  0  0  0  0  0  0
    1.3528    3.0900    3.9387 H   0  0  0  0  0  0  0  0  0  0  0  0
    1.5228    1.3291    4.0926 H   0  0  0  0  0  0  0  0  0  0  0  0
  1  2  1  0  0  0  0
  2  3  1  0  0  0  0
  2  4  1  0  0  0  0
  2  5  1  0  0  0  0
  5  6  2  0  0  0  0
  5  7  1  0  0  0  0
  7  8  1  0  0  0  0
  7  9  1  0  0  0  0
  9 10  1  0  0  0  0
  9 11  1  0  0  0  0
  9 22  1  0  0  0  0
 11 12  1  0  0  0  0
 11 13  1  0  0  0  0
 11 14  1  0  0  0  0
 14 15  1  0  0  0  0
 14 20  2  0  0  0  0
 15 16  2  0  0  0  0
 16 17  1  0  0  0  0
 16 18  1  0  0  0  0
 18 19  1  0  0  0  0
 18 20  1  0  0  0  0
 20 21  1  0  0  0  0
 22 23  2  0  0  0  0
 22 24  1  0  0  0  0
 24 25  1  0  0  0  0
 24 26  1  0  0  0  0
 26 27  1  0  0  0  0
 26 28  1  0  0  0  0
 26 29  1  0  0  0  0
M  END
$$$$

  -OEChem-01062216083D

 29 29  0     1  0  0  0  0  0999 V2000
   -2.7364   -3.1274    1.0784 H   0  0  0  0  0  0  0  0  0  0  0  0
   -2.8332   -2.1500    0.5968 C   0  0  0  0  0  0  0  0  0  0  0  0
   -3.7110   -1.6430    1.0044 H   0  0  0  0  0  0  0  0  0  0  0  0
   -2.9710   -2.3005   -0.4765 H   0  0  0  0  0  0  0  0  0  0  0  0
   -1.5889   -1.3187    0.8491 C   0  0  0  0  0  0  0  0  0  0  0  0
   -0.7052   -1.7764    1.5464 O   0  0  0  0  0  0  0  0  0  0  0  0
   -1.5161   -0.0486    0.3093 N   0  0  0  0  0  0  0  0  0  0  0  0
   -2.2600    0.1671   -0.3463 H   0  0  0  0  0  0  0  0  0  0  0  0
   -0.2996    0.7839    0.1998 C   0  0  1  0  0  0  0  0  0  0  0  0
    0.3204    0.3690   -0.6038 H   0  0  0  0  0  0  0  0  0  0  0  0
   -0.7355    2.2026   -0.2124 C   0  0  0  0  0  0  0  0  0  0  0  0
   -1.4407    2.6053    0.5200 H   0  0  0  0  0  0  0  0  0  0  0  0
    0.1371    2.8635   -0.2402 H   0  0  0  0  0  0  0  0  0  0  0  0
   -1.3669    2.2013   -1.5728 C   0  0  0  0  0  0  0  0  0  0  0  0
   -0.6555    2.0765   -2.7554 N   0  0  0  0  0  0  0  0  0  0  0  0
   -1.5289    2.1559   -3.7299 C   0  0  0  0  0  0  0  0  0  0  0  0
   -1.2873    2.0948   -4.7873 H   0  0  0  0  0  0  0  0  0  0  0  0
   -2.7979    2.3323   -3.2095 N   0  0  0  0  0  0  0  0  0  0  0  0
   -3.6461    2.4471   -3.7622 H   0  0  0  0  0  0  0  0  0  0  0  0
   -2.6985    2.3736   -1.8341 C   0  0  0  0  0  0  0  0  0  0  0  0
   -3.4915    2.5277   -1.1081 H   0  0  0  0  0  0  0  0  0  0  0  0
    0.6126    0.8456    1.4549 C   0  0  0  0  0  0  0  0  0  0  0  0
    1.6825    0.2507    1.4558 O   0  0  0  0  0  0  0  0  0  0  0  0
    0.4151    1.8143    2.4271 N   0  0  0  0  0  0  0  0  0  0  0  0
   -0.4893    2.2724    2.4412 H   0  0  0  0  0  0  0  0  0  0  0  0
    1.3047    1.9862    3.5693 C   0  0  0  0  0  0  0  0  0  0  0  0
    2.3111    2.2566    3.2331 H   0  0  0  0  0  0  0  0  0  0  0  0
    0.9335    2.7824    4.2213 H   0  0  0  0  0  0  0  0  0  0  0  0
    1.3640    1.0601    4.1509 H   0  0  0  0  0  0  0  0  0  0  0  0
  1  2  1  0  0  0  0
  2  3  1  0  0  0  0
  2  4  1  0  0  0  0
  2  5  1  0  0  0  0
  5  6  2  0  0  0  0
  5  7  1  0  0  0  0
  7  8  1  0  0  0  0
  7  9  1  0  0  0  0
  9 10  1  0  0  0  0
  9 11  1  0  0  0  0
  9 22  1  0  0  0  0
 11 12  1  0  0  0  0
 11 13  1  0  0  0  0
 11 14  1  0  0  0  0
 14 15  1  0  0  0  0
 14 20  2  0  0  0  0
 15 16  2  0  0  0  0
 16 17  1  0  0  0  0
 16 18  1  0  0  0  0
 18 19  1  0  0  0  0
 18 20  1  0  0  0  0
 20 21  1  0  0  0  0
 22 23  2  0  0  0  0
 22 24  1  0  0  0  0
 24 25  1  0  0  0  0
 24 26  1  0  0  0  0
 26 27  1  0  0  0  0
 26 28  1  0  0  0  0
 26 29  1  0  0  0  0
M  END
$$$$

  -OEChem-01062216083D

 29 29  0     1  0  0  0  0  0999 V2000
   -2.6988   -3.1480    1.0881 H   0  0  0  0  0  0  0  0  0  0  0  0
   -2.8199   -2.1654    0.6231 C   0  0  0  0  0  0  0  0  0  0  0  0
   -3.6917   -1.6739    1.0611 H   0  0  0  0  0  0  0  0  0  0  0  0
   -2.9847   -2.3033   -0.4482 H   0  0  0  0  0  0  0  0  0  0  0  0
   -1.5789   -1.3233    0.8536 C   0  0  0  0  0  0  0  0  0  0  0  0
   -0.6815   -1.7665    1.5442 O   0  0  0  0  0  0  0  0  0  0  0  0
   -1.5152   -0.0593    0.2983 N   0  0  0  0  0  0  0  0  0  0  0  0
   -2.2598    0.1474   -0.3598 H   0  0  0  0  0  0  0  0  0  0  0  0
   -0.2964    0.7675    0.1767 C   0  0  1  0  0  0  0  0  0  0  0  0
    0.3192    0.3459   -0.6266 H   0  0  0  0  0  0  0  0  0  0  0  0
   -0.7155    2.1919   -0.2290 C   0  0  0  0  0  0  0  0  0  0  0  0
   -1.4074    2.6043    0.5107 H   0  0  0  0  0  0  0  0  0  0  0  0
    0.1662    2.8398   -0.2611 H   0  0  0  0  0  0  0  0  0  0  0  0
   -1.3582    2.2029   -1.5840 C   0  0  0  0  0  0  0  0  0  0  0  0
   -0.6591    2.0710   -2.7731 N   0  0  0  0  0  0  0  0  0  0  0  0
   -1.5382    2.1733   -3.7401 C   0  0  0  0  0  0  0  0  0  0  0  0
   -1.3050    2.1148   -4.7996 H   0  0  0  0  0  0  0  0  0  0  0  0
   -2.7996    2.3700   -3.2085 N   0  0  0  0  0  0  0  0  0  0  0  0
   -3.6496    2.5071   -3.7532 H   0  0  0  0  0  0  0  0  0  0  0  0
   -2.6883    2.4020   -1.8339 C   0  0  0  0  0  0  0  0  0  0  0  0
   -3.4720    2.5702   -1.1009 H   0  0  0  0  0  0  0  0  0  0  0  0
    0.6118    0.8332    1.4309 C   0  0  0  0  0  0  0  0  0  0  0  0
    1.7728    0.4510    1.3593 O   0  0  0  0  0  0  0  0  0  0  0  0
    0.2350    1.5937    2.5261 N   0  0  0  0  0  0  0  0  0  0  0  0
   -0.7522    1.8129    2.6022 H   0  0  0  0  0  0  0  0  0  0  0  0
    1.0718    1.7336    3.7115 C   0  0  0  0  0  0  0  0  0  0  0  0
    2.0307    2.1946    3.4522 H   0  0  0  0  0  0  0  0  0  0  0  0
    0.5749    2.3671    4.4523 H   0  0  0  0  0  0  0  0  0  0  0  0
    1.2621    0.7538    4.1623 H   0  0  0  0  0  0  0  0  0  0  0  0
  1  2  1  0  0  0  0
  2  3  1  0  0  0  0
  2  4  1  0  0  0  0
  2  5  1  0  0  0  0
  5  6  2  0  0  0  0
  5  7  1  0  0  0  0
  7  8  1  0  0  0  0
  7  9  1  0  0  0  0
  9 10  1  0  0  0  0
  9 11  1  0  0  0  0
  9 22  1  0  0  0  0
 11 12  1  0  0  0  0
 11 13  1  0  0  0  0
 11 14  1  0  0  0  0
 14 15  1  0  0  0  0
 14 20  2  0  0  0  0
 15 16  2  0  0  0  0
 16 17  1  0  0  0  0
 16 18  1  0  0  0  0
 18 19  1  0  0  0  0
 18 20  1  0  0  0  0
 20 21  1  0  0  0  0
 22 23  2  0  0  0  0
 22 24  1  0  0  0  0
 24 25  1  0  0  0  0
 24 26  1  0  0  0  0
 26 27  1  0  0  0  0
 26 28  1  0  0  0  0
 26 29  1  0  0  0  0
M  END
$$$$

  -OEChem-01062216083D

 29 29  0     1  0  0  0  0  0999 V2000
   -2.7105   -3.1436    1.1271 H   0  0  0  0  0  0  0  0  0  0  0  0
   -2.8216   -2.1742    0.6326 C   0  0  0  0  0  0  0  0  0  0  0  0
   -3.6939   -1.6651    1.0493 H   0  0  0  0  0  0  0  0  0  0  0  0
   -2.9798   -2.3422   -0.4354 H   0  0  0  0  0  0  0  0  0  0  0  0
   -1.5767   -1.3333    0.8477 C   0  0  0  0  0  0  0  0  0  0  0  0
   -0.6727   -1.7731    1.5326 O   0  0  0  0  0  0  0  0  0  0  0  0
   -1.5106   -0.0740    0.2823 N   0  0  0  0  0  0  0  0  0  0  0  0
   -2.2566    0.1337   -0.3744 H   0  0  0  0  0  0  0  0  0  0  0  0
   -0.2890    0.7490    0.1582 C   0  0  1  0  0  0  0  0  0  0  0  0
    0.3265    0.3259   -0.6443 H   0  0  0  0  0  0  0  0  0  0  0  0
   -0.6991    2.1777   -0.2361 C   0  0  0  0  0  0  0  0  0  0  0  0
   -1.3811    2.5906    0.5126 H   0  0  0  0  0  0  0  0  0  0  0  0
    0.1876    2.8189   -0.2694 H   0  0  0  0  0  0  0  0  0  0  0  0
   -1.3489    2.2018   -1.5873 C   0  0  0  0  0  0  0  0  0  0  0  0
   -0.6604    2.0719   -2.7834 N   0  0  0  0  0  0  0  0  0  0  0  0
   -1.5458    2.1921   -3.7425 C   0  0  0  0  0  0  0  0  0  0  0  0
   -1.3221    2.1397   -4.8043 H   0  0  0  0  0  0  0  0  0  0  0  0
   -2.8008    2.3979   -3.1993 N   0  0  0  0  0  0  0  0  0  0  0  0
   -3.6528    2.5520   -3.7362 H   0  0  0  0  0  0  0  0  0  0  0  0
   -2.6786    2.4164   -1.8252 C   0  0  0  0  0  0  0  0  0  0  0  0
   -3.4538    2.5878   -1.0841 H   0  0  0  0  0  0  0  0  0  0  0  0
    0.6139    0.8224    1.4135 C   0  0  0  0  0  0  0  0  0  0  0  0
    1.8260    0.6934    1.2972 O   0  0  0  0  0  0  0  0  0  0  0  0
    0.1066    1.3253    2.5997 N   0  0  0  0  0  0  0  0  0  0  0  0
   -0.9023    1.2859    2.6974 H   0  0  0  0  0  0  0  0  0  0  0  0
    0.9137    1.4364    3.8082 C   0  0  0  0  0  0  0  0  0  0  0  0
    1.7663    2.1029    3.6406 H   0  0  0  0  0  0  0  0  0  0  0  0
    0.3143    1.8448    4.6272 H   0  0  0  0  0  0  0  0  0  0  0  0
    1.2890    0.4524    4.1084 H   0  0  0  0  0  0  0  0  0  0  0  0
  1  2  1  0  0  0  0
  2  3  1  0  0  0  0
  2  4  1  0  0  0  0
  2  5  1  0  0  0  0
  5  6  2  0  0  0  0
  5  7  1  0  0  0  0
  7  8  1  0  0  0  0
  7  9  1  0  0  0  0
  9 10  1  0  0  0  0
  9 11  1  0  0  0  0
  9 22  1  0  0  0  0
 11 12  1  0  0  0  0
 11 13  1  0  0  0  0
 11 14  1  0  0  0  0
 14 15  1  0  0  0  0
 14 20  2  0  0  0  0
 15 16  2  0  0  0  0
 16 17  1  0  0  0  0
 16 18  1  0  0  0  0
 18 19  1  0  0  0  0
 18 20  1  0  0  0  0
 20 21  1  0  0  0  0
 22 23  2  0  0  0  0
 22 24  1  0  0  0  0
 24 25  1  0  0  0  0
 24 26  1  0  0  0  0
 26 27  1  0  0  0  0
 26 28  1  0  0  0  0
 26 29  1  0  0  0  0
M  END
$$$$

  -OEChem-01062216083D

 29 29  0     1  0  0  0  0  0999 V2000
   -2.7357   -3.1466    1.1160 H   0  0  0  0  0  0  0  0  0  0  0  0
   -2.8400   -2.1764    0.6214 C   0  0  0  0  0  0  0  0  0  0  0  0
   -3.7102   -1.6622    1.0361 H   0  0  0  0  0  0  0  0  0  0  0  0
   -2.9970   -2.3436   -0.4470 H   0  0  0  0  0  0  0  0  0  0  0  0
   -1.5911   -1.3425    0.8384 C   0  0  0  0  0  0  0  0  0  0  0  0
   -0.6921   -1.7830    1.5299 O   0  0  0  0  0  0  0  0  0  0  0  0
   -1.5129   -0.0860    0.2690 N   0  0  0  0  0  0  0  0  0  0  0  0
   -2.2560    0.1286   -0.3890 H   0  0  0  0  0  0  0  0  0  0  0  0
   -0.2866    0.7330    0.1509 C   0  0  1  0  0  0  0  0  0  0  0  0
    0.3312    0.3107   -0.6499 H   0  0  0  0  0  0  0  0  0  0  0  0
   -0.6970    2.1631   -0.2363 C   0  0  0  0  0  0  0  0  0  0  0  0
   -1.3772    2.5710    0.5172 H   0  0  0  0  0  0  0  0  0  0  0  0
    0.1891    2.8057   -0.2672 H   0  0  0  0  0  0  0  0  0  0  0  0
   -1.3469    2.1959   -1.5872 C   0  0  0  0  0  0  0  0  0  0  0  0
   -0.6592    2.0733   -2.7847 N   0  0  0  0  0  0  0  0  0  0  0  0
   -1.5442    2.2063   -3.7425 C   0  0  0  0  0  0  0  0  0  0  0  0
   -1.3198    2.1651   -4.8047 H   0  0  0  0  0  0  0  0  0  0  0  0
   -2.7988    2.4101   -3.1976 N   0  0  0  0  0  0  0  0  0  0  0  0
   -3.6502    2.5726   -3.7330 H   0  0  0  0  0  0  0  0  0  0  0  0
   -2.6759    2.4169   -1.8235 C   0  0  0  0  0  0  0  0  0  0  0  0
   -3.4497    2.5862   -1.0806 H   0  0  0  0  0  0  0  0  0  0  0  0
    0.6154    0.8176    1.4064 C   0  0  0  0  0  0  0  0  0  0  0  0
    1.8260    0.9450    1.2718 O   0  0  0  0  0  0  0  0  0  0  0  0
    0.0518    1.0319    2.6524 N   0  0  0  0  0  0  0  0  0  0  0  0
   -0.9120    0.7268    2.7421 H   0  0  0  0  0  0  0  0  0  0  0  0
    0.8571    1.1138    3.8641 C   0  0  0  0  0  0  0  0  0  0  0  0
    1.5643    1.9475    3.7993 H   0  0  0  0  0  0  0  0  0  0  0  0
    0.2145    1.2752    4.7348 H   0  0  0  0  0  0  0  0  0  0  0  0
    1.4191    0.1856    4.0129 H   0  0  0  0  0  0  0  0  0  0  0  0
  1  2  1  0  0  0  0
  2  3  1  0  0  0  0
  2  4  1  0  0  0  0
  2  5  1  0  0  0  0
  5  6  2  0  0  0  0
  5  7  1  0  0  0  0
  7  8  1  0  0  0  0
  7  9  1  0  0  0  0
  9 10  1  0  0  0  0
  9 11  1  0  0  0  0
  9 22  1  0  0  0  0
 11 12  1  0  0  0  0
 11 13  1  0  0  0  0
 11 14  1  0  0  0  0
 14 15  1  0  0  0  0
 14 20  2  0  0  0  0
 15 16  2  0  0  0  0
 16 17  1  0  0  0  0
 16 18  1  0  0  0  0
 18 19  1  0  0  0  0
 18 20  1  0  0  0  0
 20 21  1  0  0  0  0
 22 23  2  0  0  0  0
 22 24  1  0  0  0  0
 24 25  1  0  0  0  0
 24 26  1  0  0  0  0
 26 27  1  0  0  0  0
 26 28  1  0  0  0  0
 26 29  1  0  0  0  0
M  END
$$$$

  -OEChem-01062216083D

 29 29  0     1  0  0  0  0  0999 V2000
   -2.8074   -3.1423    1.0525 H   0  0  0  0  0  0  0  0  0  0  0  0
   -2.8941   -2.1602    0.5789 C   0  0  0  0  0  0  0  0  0  0  0  0
   -3.7502   -1.6359    1.0103 H   0  0  0  0  0  0  0  0  0  0  0  0
   -3.0622   -2.3017   -0.4916 H   0  0  0  0  0  0  0  0  0  0  0  0
   -1.6258   -1.3585    0.8040 C   0  0  0  0  0  0  0  0  0  0  0  0
   -0.7375   -1.8261    1.4919 O   0  0  0  0  0  0  0  0  0  0  0  0
   -1.5176   -0.0976    0.2514 N   0  0  0  0  0  0  0  0  0  0  0  0
   -2.2636    0.1497   -0.3918 H   0  0  0  0  0  0  0  0  0  0  0  0
   -0.2857    0.7185    0.1552 C   0  0  1  0  0  0  0  0  0  0  0  0
    0.3372    0.3056   -0.6466 H   0  0  0  0  0  0  0  0  0  0  0  0
   -0.7052    2.1496   -0.2224 C   0  0  0  0  0  0  0  0  0  0  0  0
   -1.3924    2.5455    0.5312 H   0  0  0  0  0  0  0  0  0  0  0  0
    0.1749    2.8009   -0.2439 H   0  0  0  0  0  0  0  0  0  0  0  0
   -1.3449    2.1878   -1.5784 C   0  0  0  0  0  0  0  0  0  0  0  0
   -0.6498    2.0810   -2.7731 N   0  0  0  0  0  0  0  0  0  0  0  0
   -1.5315    2.2105   -3.7345 C   0  0  0  0  0  0  0  0  0  0  0  0
   -1.3020    2.1782   -4.7960 H   0  0  0  0  0  0  0  0  0  0  0  0
   -2.7911    2.3971   -3.1948 N   0  0  0  0  0  0  0  0  0  0  0  0
   -3.6411    2.5560   -3.7334 H   0  0  0  0  0  0  0  0  0  0  0  0
   -2.6753    2.3957   -1.8201 C   0  0  0  0  0  0  0  0  0  0  0  0
   -3.4549    2.5517   -1.0800 H   0  0  0  0  0  0  0  0  0  0  0  0
    0.6208    0.8058    1.4108 C   0  0  0  0  0  0  0  0  0  0  0  0
    1.7760    1.1944    1.2865 O   0  0  0  0  0  0  0  0  0  0  0  0
    0.0832    0.7107    2.6821 N   0  0  0  0  0  0  0  0  0  0  0  0
   -0.7460    0.1240    2.7298 H   0  0  0  0  0  0  0  0  0  0  0  0
    0.9082    0.8033    3.8798 C   0  0  0  0  0  0  0  0  0  0  0  0
    1.4169    1.7721    3.9221 H   0  0  0  0  0  0  0  0  0  0  0  0
    0.2860    0.7030    4.7741 H   0  0  0  0  0  0  0  0  0  0  0  0
    1.6615    0.0085    3.8881 H   0  0  0  0  0  0  0  0  0  0  0  0
  1  2  1  0  0  0  0
  2  3  1  0  0  0  0
  2  4  1  0  0  0  0
  2  5  1  0  0  0  0
  5  6  2  0  0  0  0
  5  7  1  0  0  0  0
  7  8  1  0  0  0  0
  7  9  1  0  0  0  0
  9 10  1  0  0  0  0
  9 11  1  0  0  0  0
  9 22  1  0  0  0  0
 11 12  1  0  0  0  0
 11 13  1  0  0  0  0
 11 14  1  0  0  0  0
 14 15  1  0  0  0  0
 14 20  2  0  0  0  0
 15 16  2  0  0  0  0
 16 17  1  0  0  0  0
 16 18  1  0  0  0  0
 18 19  1  0  0  0  0
 18 20  1  0  0  0  0
 20 21  1  0  0  0  0
 22 23  2  0  0  0  0
 22 24  1  0  0  0  0
 24 25  1  0  0  0  0
 24 26  1  0  0  0  0
 26 27  1  0  0  0  0
 26 28  1  0  0  0  0
 26 29  1  0  0  0  0
M  END
$$$$

  -OEChem-01062216083D

 29 29  0     1  0  0  0  0  0999 V2000
   -2.8704   -3.1464    0.9671 H   0  0  0  0  0  0  0  0  0  0  0  0
   -2.9516   -2.1346    0.5589 C   0  0  0  0  0  0  0  0  0  0  0  0
   -3.7657   -1.6137    1.0685 H   0  0  0  0  0  0  0  0  0  0  0  0
   -3.1826   -2.2048   -0.5068 H   0  0  0  0  0  0  0  0  0  0  0  0
   -1.6487   -1.3836    0.7595 C   0  0  0  0  0  0  0  0  0  0  0  0
   -0.7492   -1.9079    1.3905 O   0  0  0  0  0  0  0  0  0  0  0  0
   -1.5170   -0.1133    0.2344 N   0  0  0  0  0  0  0  0  0  0  0  0
   -2.2833    0.1810   -0.3632 H   0  0  0  0  0  0  0  0  0  0  0  0
   -0.2886    0.7133    0.1657 C   0  0  1  0  0  0  0  0  0  0  0  0
    0.3432    0.3146   -0.6359 H   0  0  0  0  0  0  0  0  0  0  0  0
   -0.7330    2.1399   -0.2101 C   0  0  0  0  0  0  0  0  0  0  0  0
   -1.4381    2.5153    0.5375 H   0  0  0  0  0  0  0  0  0  0  0  0
    0.1303    2.8132   -0.2177 H   0  0  0  0  0  0  0  0  0  0  0  0
   -1.3544    2.1773   -1.5749 C   0  0  0  0  0  0  0  0  0  0  0  0
   -0.6385    2.0943   -2.7594 N   0  0  0  0  0  0  0  0  0  0  0  0
   -1.5059    2.2211   -3.7337 C   0  0  0  0  0  0  0  0  0  0  0  0
   -1.2581    2.2046   -4.7914 H   0  0  0  0  0  0  0  0  0  0  0  0
   -2.7767    2.3827   -3.2127 N   0  0  0  0  0  0  0  0  0  0  0  0
   -3.6197    2.5367   -3.7636 H   0  0  0  0  0  0  0  0  0  0  0  0
   -2.6836    2.3684   -1.8363 C   0  0  0  0  0  0  0  0  0  0  0  0
   -3.4773    2.5072   -1.1081 H   0  0  0  0  0  0  0  0  0  0  0  0
    0.6223    0.8056    1.4227 C   0  0  0  0  0  0  0  0  0  0  0  0
    1.6853    1.4100    1.3421 O   0  0  0  0  0  0  0  0  0  0  0  0
    0.1906    0.4063    2.6747 N   0  0  0  0  0  0  0  0  0  0  0  0
   -0.4912   -0.3514    2.6414 H   0  0  0  0  0  0  0  0  0  0  0  0
    1.0475    0.4790    3.8519 C   0  0  0  0  0  0  0  0  0  0  0  0
    1.3710    1.5100    4.0293 H   0  0  0  0  0  0  0  0  0  0  0  0
    0.5029    0.1335    4.7356 H   0  0  0  0  0  0  0  0  0  0  0  0
    1.9336   -0.1506    3.7194 H   0  0  0  0  0  0  0  0  0  0  0  0
  1  2  1  0  0  0  0
  2  3  1  0  0  0  0
  2  4  1  0  0  0  0
  2  5  1  0  0  0  0
  5  6  2  0  0  0  0
  5  7  1  0  0  0  0
  7  8  1  0  0  0  0
  7  9  1  0  0  0  0
  9 10  1  0  0  0  0
  9 11  1  0  0  0  0
  9 22  1  0  0  0  0
 11 12  1  0  0  0  0
 11 13  1  0  0  0  0
 11 14  1  0  0  0  0
 14 15  1  0  0  0  0
 14 20  2  0  0  0  0
 15 16  2  0  0  0  0
 16 17  1  0  0  0  0
 16 18  1  0  0  0  0
 18 19  1  0  0  0  0
 18 20  1  0  0  0  0
 20 21  1  0  0  0  0
 22 23  2  0  0  0  0
 22 24  1  0  0  0  0
 24 25  1  0  0  0  0
 24 26  1  0  0  0  0
 26 27  1  0  0  0  0
 26 28  1  0  0  0  0
 26 29  1  0  0  0  0
M  END
$$$$

  -OEChem-01062216083D

 29 29  0     1  0  0  0  0  0999 V2000
   -2.9299   -3.1257    0.9540 H   0  0  0  0  0  0  0  0  0  0  0  0
   -2.9949   -2.1024    0.5728 C   0  0  0  0  0  0  0  0  0  0  0  0
   -3.7529   -1.5618    1.1449 H   0  0  0  0  0  0  0  0  0  0  0  0
   -3.2955   -2.1386   -0.4772 H   0  0  0  0  0  0  0  0  0  0  0  0
   -1.6518   -1.4092    0.7043 C   0  0  0  0  0  0  0  0  0  0  0  0
   -0.7214   -2.0072    1.2141 O   0  0  0  0  0  0  0  0  0  0  0  0
   -1.5085   -0.1262    0.2144 N   0  0  0  0  0  0  0  0  0  0  0  0
   -2.3121    0.2285   -0.2940 H   0  0  0  0  0  0  0  0  0  0  0  0
   -0.2887    0.7163    0.1721 C   0  0  1  0  0  0  0  0  0  0  0  0
    0.3526    0.3342   -0.6298 H   0  0  0  0  0  0  0  0  0  0  0  0
   -0.7580    2.1382   -0.2032 C   0  0  0  0  0  0  0  0  0  0  0  0
   -1.4789    2.4960    0.5375 H   0  0  0  0  0  0  0  0  0  0  0  0
    0.0891    2.8314   -0.2002 H   0  0  0  0  0  0  0  0  0  0  0  0
   -1.3604    2.1723   -1.5771 C   0  0  0  0  0  0  0  0  0  0  0  0
   -0.6264    2.1119   -2.7520 N   0  0  0  0  0  0  0  0  0  0  0  0
   -1.4824    2.2311   -3.7373 C   0  0  0  0  0  0  0  0  0  0  0  0
   -1.2197    2.2256   -4.7915 H   0  0  0  0  0  0  0  0  0  0  0  0
   -2.7627    2.3694   -3.2331 N   0  0  0  0  0  0  0  0  0  0  0  0
   -3.6002    2.5140   -3.7948 H   0  0  0  0  0  0  0  0  0  0  0  0
   -2.6886    2.3461   -1.8558 C   0  0  0  0  0  0  0  0  0  0  0  0
   -3.4947    2.4697   -1.1386 H   0  0  0  0  0  0  0  0  0  0  0  0
    0.6242    0.8020    1.4344 C   0  0  0  0  0  0  0  0  0  0  0  0
    1.5620    1.5914    1.4398 O   0  0  0  0  0  0  0  0  0  0  0  0
    0.3552    0.1251    2.6100 N   0  0  0  0  0  0  0  0  0  0  0  0
   -0.2128   -0.7140    2.4840 H   0  0  0  0  0  0  0  0  0  0  0  0
    1.2426    0.1669    3.7659 C   0  0  0  0  0  0  0  0  0  0  0  0
    1.3640    1.1959    4.1206 H   0  0  0  0  0  0  0  0  0  0  0  0
    0.8249   -0.4307    4.5818 H   0  0  0  0  0  0  0  0  0  0  0  0
    2.2275   -0.2364    3.5081 H   0  0  0  0  0  0  0  0  0  0  0  0
  1  2  1  0  0  0  0
  2  3  1  0  0  0  0
  2  4  1  0  0  0  0
  2  5  1  0  0  0  0
  5  6  2  0  0  0  0
  5  7  1  0  0  0  0
  7  8  1  0  0  0  0
  7  9  1  0  0  0  0
  9 10  1  0  0  0  0
  9 11  1  0  0  0  0
  9 22  1  0  0  0  0
 11 12  1  0  0  0  0
 11 13  1  0  0  0  0
 11 14  1  0  0  0  0
 14 15  1  0  0  0  0
 14 20  2  0  0  0  0
 15 16  2  0  0  0  0
 16 17  1  0  0  0  0
 16 18  1  0  0  0  0
 18 19  1  0  0  0  0
 18 20  1  0  0  0  0
 20 21  1  0  0  0  0
 22 23  2  0  0  0  0
 22 24  1  0  0  0  0
 24 25  1  0  0  0  0
 24 26  1  0  0  0  0
 26 27  1  0  0  0  0
 26 28  1  0  0  0  0
 26 29  1  0  0  0  0
M  END
$$$$

  -OEChem-01062216083D

 29 29  0     1  0  0  0  0  0999 V2000
   -2.9512   -3.1043    0.9910 H   0  0  0  0  0  0  0  0  0  0  0  0
   -3.0121   -2.0739    0.6289 C   0  0  0  0  0  0  0  0  0  0  0  0
   -3.6986   -1.5165    1.2709 H   0  0  0  0  0  0  0  0  0  0  0  0
   -3.4025   -2.0833   -0.3916 H   0  0  0  0  0  0  0  0  0  0  0  0
   -1.6392   -1.4286    0.6526 C   0  0  0  0  0  0  0  0  0  0  0  0
   -0.6795   -2.0867    1.0133 O   0  0  0  0  0  0  0  0  0  0  0  0
   -1.5005   -0.1323    0.1975 N   0  0  0  0  0  0  0  0  0  0  0  0
   -2.3467    0.2790   -0.1823 H   0  0  0  0  0  0  0  0  0  0  0  0
   -0.2910    0.7263    0.1738 C   0  0  1  0  0  0  0  0  0  0  0  0
    0.3566    0.3592   -0.6298 H   0  0  0  0  0  0  0  0  0  0  0  0
   -0.7778    2.1437   -0.2030 C   0  0  0  0  0  0  0  0  0  0  0  0
   -1.5112    2.4898    0.5308 H   0  0  0  0  0  0  0  0  0  0  0  0
    0.0571    2.8513   -0.1925 H   0  0  0  0  0  0  0  0  0  0  0  0
   -1.3636    2.1735   -1.5845 C   0  0  0  0  0  0  0  0  0  0  0  0
   -0.6122    2.1282   -2.7493 N   0  0  0  0  0  0  0  0  0  0  0  0
   -1.4562    2.2396   -3.7459 C   0  0  0  0  0  0  0  0  0  0  0  0
   -1.1795    2.2419   -4.7965 H   0  0  0  0  0  0  0  0  0  0  0  0
   -2.7450    2.3599   -3.2594 N   0  0  0  0  0  0  0  0  0  0  0  0
   -3.5764    2.4947   -3.8322 H   0  0  0  0  0  0  0  0  0  0  0  0
   -2.6899    2.3332   -1.8811 C   0  0  0  0  0  0  0  0  0  0  0  0
   -3.5072    2.4455   -1.1751 H   0  0  0  0  0  0  0  0  0  0  0  0
    0.6237    0.7927    1.4399 C   0  0  0  0  0  0  0  0  0  0  0  0
    1.3998    1.7319    1.5759 O   0  0  0  0  0  0  0  0  0  0  0  0
    0.5581   -0.1143    2.4813 N   0  0  0  0  0  0  0  0  0  0  0  0
    0.0947   -0.9958    2.2543 H   0  0  0  0  0  0  0  0  0  0  0  0
    1.4724   -0.0995    3.6167 C   0  0  0  0  0  0  0  0  0  0  0  0
    1.4005    0.8510    4.1556 H   0  0  0  0  0  0  0  0  0  0  0  0
    1.2223   -0.9076    4.3105 H   0  0  0  0  0  0  0  0  0  0  0  0
    2.5050   -0.2373    3.2795 H   0  0  0  0  0  0  0  0  0  0  0  0
  1  2  1  0  0  0  0
  2  3  1  0  0  0  0
  2  4  1  0  0  0  0
  2  5  1  0  0  0  0
  5  6  2  0  0  0  0
  5  7  1  0  0  0  0
  7  8  1  0  0  0  0
  7  9  1  0  0  0  0
  9 10  1  0  0  0  0
  9 11  1  0  0  0  0
  9 22  1  0  0  0  0
 11 12  1  0  0  0  0
 11 13  1  0  0  0  0
 11 14  1  0  0  0  0
 14 15  1  0  0  0  0
 14 20  2  0  0  0  0
 15 16  2  0  0  0  0
 16 17  1  0  0  0  0
 16 18  1  0  0  0  0
 18 19  1  0  0  0  0
 18 20  1  0  0  0  0
 20 21  1  0  0  0  0
 22 23  2  0  0  0  0
 22 24  1  0  0  0  0
 24 25  1  0  0  0  0
 24 26  1  0  0  0  0
 26 27  1  0  0  0  0
 26 28  1  0  0  0  0
 26 29  1  0  0  0  0
M  END
$$$$

  -OEChem-01062216083D

 29 29  0     1  0  0  0  0  0999 V2000
   -3.0314   -2.9806    1.2070 H   0  0  0  0  0  0  0  0  0  0  0  0
   -3.0705   -1.9637    0.8056 C   0  0  0  0  0  0  0  0  0  0  0  0
   -3.6606   -1.3420    1.4833 H   0  0  0  0  0  0  0  0  0  0  0  0
   -3.5572   -1.9908   -0.1724 H   0  0  0  0  0  0  0  0  0  0  0  0
   -1.6680   -1.4009    0.6708 C   0  0  0  0  0  0  0  0  0  0  0  0
   -0.7130   -2.1270    0.8864 O   0  0  0  0  0  0  0  0  0  0  0  0
   -1.5051   -0.1110    0.2058 N   0  0  0  0  0  0  0  0  0  0  0  0
   -2.3682    0.3657   -0.0320 H   0  0  0  0  0  0  0  0  0  0  0  0
   -0.2707    0.7086    0.1348 C   0  0  1  0  0  0  0  0  0  0  0  0
    0.3398    0.3090   -0.6824 H   0  0  0  0  0  0  0  0  0  0  0  0
   -0.7167    2.1358   -0.2563 C   0  0  0  0  0  0  0  0  0  0  0  0
   -1.4160    2.5239    0.4896 H   0  0  0  0  0  0  0  0  0  0  0  0
    0.1444    2.8106   -0.2834 H   0  0  0  0  0  0  0  0  0  0  0  0
   -1.3359    2.1607   -1.6229 C   0  0  0  0  0  0  0  0  0  0  0  0
   -0.6167    2.0673   -2.8052 N   0  0  0  0  0  0  0  0  0  0  0  0
   -1.4837    2.1845   -3.7814 C   0  0  0  0  0  0  0  0  0  0  0  0
   -1.2360    2.1542   -4.8388 H   0  0  0  0  0  0  0  0  0  0  0  0
   -2.7544    2.3584   -3.2644 N   0  0  0  0  0  0  0  0  0  0  0  0
   -3.5969    2.5037   -3.8180 H   0  0  0  0  0  0  0  0  0  0  0  0
   -2.6633    2.3588   -1.8881 C   0  0  0  0  0  0  0  0  0  0  0  0
   -3.4575    2.5099   -1.1635 H   0  0  0  0  0  0  0  0  0  0  0  0
    0.6820    0.7405    1.3756 C   0  0  0  0  0  0  0  0  0  0  0  0
    1.3026    1.7630    1.6452 O   0  0  0  0  0  0  0  0  0  0  0  0
    0.8222   -0.3134    2.2582 N   0  0  0  0  0  0  0  0  0  0  0  0
    0.4115   -1.2009    1.9604 H   0  0  0  0  0  0  0  0  0  0  0  0
    1.7396   -0.3175    3.3905 C   0  0  0  0  0  0  0  0  0  0  0  0
    1.5249    0.5201    4.0624 H   0  0  0  0  0  0  0  0  0  0  0  0
    1.6329   -1.2479    3.9561 H   0  0  0  0  0  0  0  0  0  0  0  0
    2.7750   -0.2375    3.0442 H   0  0  0  0  0  0  0  0  0  0  0  0
  1  2  1  0  0  0  0
  2  3  1  0  0  0  0
  2  4  1  0  0  0  0
  2  5  1  0  0  0  0
  5  6  2  0  0  0  0
  5  7  1  0  0  0  0
  7  8  1  0  0  0  0
  7  9  1  0  0  0  0
  9 10  1  0  0  0  0
  9 11  1  0  0  0  0
  9 22  1  0  0  0  0
 11 12  1  0  0  0  0
 11 13  1  0  0  0  0
 11 14  1  0  0  0  0
 14 15  1  0  0  0  0
 14 20  2  0  0  0  0
 15 16  2  0  0  0  0
 16 17  1  0  0  0  0
 16 18  1  0  0  0  0
 18 19  1  0  0  0  0
 18 20  1  0  0  0  0
 20 21  1  0  0  0  0
 22 23  2  0  0  0  0
 22 24  1  0  0  0  0
 24 25  1  0  0  0  0
 24 26  1  0  0  0  0
 26 27  1  0  0  0  0
 26 28  1  0  0  0  0
 26 29  1  0  0  0  0
M  END
$$$$

  -OEChem-01062216083D

 29 29  0     1  0  0  0  0  0999 V2000
   -2.8463   -3.0826    1.1489 H   0  0  0  0  0  0  0  0  0  0  0  0
   -2.9409   -2.0519    0.7950 C   0  0  0  0  0  0  0  0  0  0  0  0
   -3.5074   -1.4788    1.5329 H   0  0  0  0  0  0  0  0  0  0  0  0
   -3.4851   -2.0540   -0.1525 H   0  0  0  0  0  0  0  0  0  0  0  0
   -1.5670   -1.4378    0.6027 C   0  0  0  0  0  0  0  0  0  0  0  0
   -0.5780   -2.1385    0.7339 O   0  0  0  0  0  0  0  0  0  0  0  0
   -1.4706   -0.1287    0.1740 N   0  0  0  0  0  0  0  0  0  0  0  0
   -2.3603    0.3341    0.0228 H   0  0  0  0  0  0  0  0  0  0  0  0
   -0.2723    0.7427    0.1317 C   0  0  1  0  0  0  0  0  0  0  0  0
    0.3603    0.3843   -0.6878 H   0  0  0  0  0  0  0  0  0  0  0  0
   -0.7553    2.1628   -0.2366 C   0  0  0  0  0  0  0  0  0  0  0  0
   -1.4781    2.5137    0.5055 H   0  0  0  0  0  0  0  0  0  0  0  0
    0.0878    2.8611   -0.2340 H   0  0  0  0  0  0  0  0  0  0  0  0
   -1.3558    2.1954   -1.6109 C   0  0  0  0  0  0  0  0  0  0  0  0
   -0.6122    2.1464   -2.7811 N   0  0  0  0  0  0  0  0  0  0  0  0
   -1.4649    2.2536   -3.7709 C   0  0  0  0  0  0  0  0  0  0  0  0
   -1.1970    2.2485   -4.8237 H   0  0  0  0  0  0  0  0  0  0  0  0
   -2.7494    2.3801   -3.2748 N   0  0  0  0  0  0  0  0  0  0  0  0
   -3.5865    2.5043   -3.8417 H   0  0  0  0  0  0  0  0  0  0  0  0
   -2.6836    2.3590   -1.8971 C   0  0  0  0  0  0  0  0  0  0  0  0
   -3.4952    2.4723   -1.1850 H   0  0  0  0  0  0  0  0  0  0  0  0
    0.6636    0.7648    1.3833 C   0  0  0  0  0  0  0  0  0  0  0  0
    1.0318    1.8327    1.8611 O   0  0  0  0  0  0  0  0  0  0  0  0
    1.0638   -0.3799    2.0441 N   0  0  0  0  0  0  0  0  0  0  0  0
    0.7408   -1.2680    1.6520 H   0  0  0  0  0  0  0  0  0  0  0  0
    1.9232   -0.3981    3.2204 C   0  0  0  0  0  0  0  0  0  0  0  0
    1.4688    0.1725    4.0367 H   0  0  0  0  0  0  0  0  0  0  0  0
    2.0730   -1.4273    3.5601 H   0  0  0  0  0  0  0  0  0  0  0  0
    2.9009    0.0357    2.9864 H   0  0  0  0  0  0  0  0  0  0  0  0
  1  2  1  0  0  0  0
  2  3  1  0  0  0  0
  2  4  1  0  0  0  0
  2  5  1  0  0  0  0
  5  6  2  0  0  0  0
  5  7  1  0  0  0  0
  7  8  1  0  0  0  0
  7  9  1  0  0  0  0
  9 10  1  0  0  0  0
  9 11  1  0  0  0  0
  9 22  1  0  0  0  0
 11 12  1  0  0  0  0
 11 13  1  0  0  0  0
 11 14  1  0  0  0  0
 14 15  1  0  0  0  0
 14 20  2  0  0  0  0
 15 16  2  0  0  0  0
 16 17  1  0  0  0  0
 16 18  1  0  0  0  0
 18 19  1  0  0  0  0
 18 20  1  0  0  0  0
 20 21  1  0  0  0  0
 22 23  2  0  0  0  0
 22 24  1  0  0  0  0
 24 25  1  0  0  0  0
 24 26  1  0  0  0  0
 26 27  1  0  0  0  0
 26 28  1  0  0  0  0
 26 29  1  0  0  0  0
M  END
$$$$

  -OEChem-01062216083D

 29 29  0     1  0  0  0  0  0999 V2000
   -2.7533   -3.0757    1.2231 H   0  0  0  0  0  0  0  0  0  0  0  0
   -2.8691   -2.0507    0.8591 C   0  0  0  0  0  0  0  0  0  0  0  0
   -3.4167   -1.4730    1.6077 H   0  0  0  0  0  0  0  0  0  0  0  0
   -3.4437   -2.0705   -0.0701 H   0  0  0  0  0  0  0  0  0  0  0  0
   -1.5088   -1.4251    0.6145 C   0  0  0  0  0  0  0  0  0  0  0  0
   -0.5065   -2.1099    0.7297 O   0  0  0  0  0  0  0  0  0  0  0  0
   -1.4393   -0.1207    0.1672 N   0  0  0  0  0  0  0  0  0  0  0  0
   -2.3357    0.3390    0.0498 H   0  0  0  0  0  0  0  0  0  0  0  0
   -0.2451    0.7514    0.0963 C   0  0  1  0  0  0  0  0  0  0  0  0
    0.3773    0.3911   -0.7301 H   0  0  0  0  0  0  0  0  0  0  0  0
   -0.7244    2.1730   -0.2656 C   0  0  0  0  0  0  0  0  0  0  0  0
   -1.4323    2.5297    0.4885 H   0  0  0  0  0  0  0  0  0  0  0  0
    0.1255    2.8630   -0.2733 H   0  0  0  0  0  0  0  0  0  0  0  0
   -1.3505    2.2077   -1.6278 C   0  0  0  0  0  0  0  0  0  0  0  0
   -0.6270    2.1515   -2.8102 N   0  0  0  0  0  0  0  0  0  0  0  0
   -1.4960    2.2612   -3.7854 C   0  0  0  0  0  0  0  0  0  0  0  0
   -1.2456    2.2536   -4.8425 H   0  0  0  0  0  0  0  0  0  0  0  0
   -2.7716    2.3934   -3.2677 N   0  0  0  0  0  0  0  0  0  0  0  0
   -3.6175    2.5221   -3.8203 H   0  0  0  0  0  0  0  0  0  0  0  0
   -2.6825    2.3737   -1.8913 C   0  0  0  0  0  0  0  0  0  0  0  0
   -3.4811    2.4884   -1.1648 H   0  0  0  0  0  0  0  0  0  0  0  0
    0.6945    0.7713    1.3407 C   0  0  0  0  0  0  0  0  0  0  0  0
    0.8710    1.8101    1.9690 O   0  0  0  0  0  0  0  0  0  0  0  0
    1.3246   -0.3670    1.8038 N   0  0  0  0  0  0  0  0  0  0  0  0
    1.0199   -1.2471    1.3790 H   0  0  0  0  0  0  0  0  0  0  0  0
    2.1261   -0.4180    3.0193 C   0  0  0  0  0  0  0  0  0  0  0  0
    1.5171   -0.1572    3.8911 H   0  0  0  0  0  0  0  0  0  0  0  0
    2.5260   -1.4263    3.1634 H   0  0  0  0  0  0  0  0  0  0  0  0
    2.9671    0.2801    2.9529 H   0  0  0  0  0  0  0  0  0  0  0  0
  1  2  1  0  0  0  0
  2  3  1  0  0  0  0
  2  4  1  0  0  0  0
  2  5  1  0  0  0  0
  5  6  2  0  0  0  0
  5  7  1  0  0  0  0
  7  8  1  0  0  0  0
  7  9  1  0  0  0  0
  9 10  1  0  0  0  0
  9 11  1  0  0  0  0
  9 22  1  0  0  0  0
 11 12  1  0  0  0  0
 11 13  1  0  0  0  0
 11 14  1  0  0  0  0
 14 15  1  0  0  0  0
 14 20  2  0  0  0  0
 15 16  2  0  0  0  0
 16 17  1  0  0  0  0
 16 18  1  0  0  0  0
 18 19  1  0  0  0  0
 18 20  1  0  0  0  0
 20 21  1  0  0  0  0
 22 23  2  0  0  0  0
 22 24  1  0  0  0  0
 24 25  1  0  0  0  0
 24 26  1  0  0  0  0
 26 27  1  0  0  0  0
 26 28  1  0  0  0  0
 26 29  1  0  0  0  0
M  END
$$$$

  -OEChem-01062216083D

 29 29  0     1  0  0  0  0  0999 V2000
   -2.6270   -3.0780    1.3036 H   0  0  0  0  0  0  0  0  0  0  0  0
   -2.7823   -2.0647    0.9223 C   0  0  0  0  0  0  0  0  0  0  0  0
   -3.3327   -1.4893    1.6705 H   0  0  0  0  0  0  0  0  0  0  0  0
   -3.3740   -2.1206    0.0055 H   0  0  0  0  0  0  0  0  0  0  0  0
   -1.4472   -1.4032    0.6375 C   0  0  0  0  0  0  0  0  0  0  0  0
   -0.4190   -2.0503    0.7508 O   0  0  0  0  0  0  0  0  0  0  0  0
   -1.4209   -0.1074    0.1614 N   0  0  0  0  0  0  0  0  0  0  0  0
   -2.3256    0.3423    0.0723 H   0  0  0  0  0  0  0  0  0  0  0  0
   -0.2334    0.7676    0.0683 C   0  0  1  0  0  0  0  0  0  0  0  0
    0.3878    0.4042   -0.7576 H   0  0  0  0  0  0  0  0  0  0  0  0
   -0.7047    2.1902   -0.2928 C   0  0  0  0  0  0  0  0  0  0  0  0
   -1.4043    2.5535    0.4658 H   0  0  0  0  0  0  0  0  0  0  0  0
    0.1520    2.8717   -0.3055 H   0  0  0  0  0  0  0  0  0  0  0  0
   -1.3468    2.2243   -1.6477 C   0  0  0  0  0  0  0  0  0  0  0  0
   -0.6373    2.1571   -2.8382 N   0  0  0  0  0  0  0  0  0  0  0  0
   -1.5170    2.2690   -3.8038 C   0  0  0  0  0  0  0  0  0  0  0  0
   -1.2799    2.2547   -4.8639 H   0  0  0  0  0  0  0  0  0  0  0  0
   -2.7851    2.4147   -3.2721 N   0  0  0  0  0  0  0  0  0  0  0  0
   -3.6361    2.5483   -3.8155 H   0  0  0  0  0  0  0  0  0  0  0  0
   -2.6803    2.4009   -1.8966 C   0  0  0  0  0  0  0  0  0  0  0  0
   -3.4698    2.5256   -1.1617 H   0  0  0  0  0  0  0  0  0  0  0  0
    0.6895    0.7885    1.3204 C   0  0  0  0  0  0  0  0  0  0  0  0
    0.6852    1.7511    2.0812 O   0  0  0  0  0  0  0  0  0  0  0  0
    1.5325   -0.2692    1.6007 N   0  0  0  0  0  0  0  0  0  0  0  0
    1.2863   -1.1420    1.1265 H   0  0  0  0  0  0  0  0  0  0  0  0
    2.3216   -0.3561    2.8222 C   0  0  0  0  0  0  0  0  0  0  0  0
    1.6671   -0.3947    3.6988 H   0  0  0  0  0  0  0  0  0  0  0  0
    2.9374   -1.2603    2.8075 H   0  0  0  0  0  0  0  0  0  0  0  0
    2.9849    0.5103    2.9140 H   0  0  0  0  0  0  0  0  0  0  0  0
  1  2  1  0  0  0  0
  2  3  1  0  0  0  0
  2  4  1  0  0  0  0
  2  5  1  0  0  0  0
  5  6  2  0  0  0  0
  5  7  1  0  0  0  0
  7  8  1  0  0  0  0
  7  9  1  0  0  0  0
  9 10  1  0  0  0  0
  9 11  1  0  0  0  0
  9 22  1  0  0  0  0
 11 12  1  0  0  0  0
 11 13  1  0  0  0  0
 11 14  1  0  0  0  0
 14 15  1  0  0  0  0
 14 20  2  0  0  0  0
 15 16  2  0  0  0  0
 16 17  1  0  0  0  0
 16 18  1  0  0  0  0
 18 19  1  0  0  0  0
 18 20  1  0  0  0  0
 20 21  1  0  0  0  0
 22 23  2  0  0  0  0
 22 24  1  0  0  0  0
 24 25  1  0  0  0  0
 24 26  1  0  0  0  0
 26 27  1  0  0  0  0
 26 28  1  0  0  0  0
 26 29  1  0  0  0  0
M  END
$$$$

  -OEChem-01062216083D

 29 29  0     1  0  0  0  0  0999 V2000
   -2.4988   -3.0787    1.3829 H   0  0  0  0  0  0  0  0  0  0  0  0
   -2.6979   -2.0784    0.9880 C   0  0  0  0  0  0  0  0  0  0  0  0
   -3.2348   -1.5026    1.7457 H   0  0  0  0  0  0  0  0  0  0  0  0
   -3.3223   -2.1697    0.0960 H   0  0  0  0  0  0  0  0  0  0  0  0
   -1.3939   -1.3867    0.6387 C   0  0  0  0  0  0  0  0  0  0  0  0
   -0.3401   -1.9966    0.7307 O   0  0  0  0  0  0  0  0  0  0  0  0
   -1.4159   -0.0996    0.1394 N   0  0  0  0  0  0  0  0  0  0  0  0
   -2.3263    0.3464    0.1111 H   0  0  0  0  0  0  0  0  0  0  0  0
   -0.2348    0.7792    0.0404 C   0  0  1  0  0  0  0  0  0  0  0  0
    0.3932    0.4173   -0.7810 H   0  0  0  0  0  0  0  0  0  0  0  0
   -0.6988    2.2038   -0.3148 C   0  0  0  0  0  0  0  0  0  0  0  0
   -1.3967    2.5676    0.4452 H   0  0  0  0  0  0  0  0  0  0  0  0
    0.1617    2.8803   -0.3239 H   0  0  0  0  0  0  0  0  0  0  0  0
   -1.3454    2.2431   -1.6672 C   0  0  0  0  0  0  0  0  0  0  0  0
   -0.6405    2.1740   -2.8606 N   0  0  0  0  0  0  0  0  0  0  0  0
   -1.5242    2.2891   -3.8224 C   0  0  0  0  0  0  0  0  0  0  0  0
   -1.2919    2.2723   -4.8835 H   0  0  0  0  0  0  0  0  0  0  0  0
   -2.7893    2.4413   -3.2854 N   0  0  0  0  0  0  0  0  0  0  0  0
   -3.6423    2.5776   -3.8249 H   0  0  0  0  0  0  0  0  0  0  0  0
   -2.6789    2.4261   -1.9106 C   0  0  0  0  0  0  0  0  0  0  0  0
   -3.4645    2.5524   -1.1719 H   0  0  0  0  0  0  0  0  0  0  0  0
    0.6575    0.7954    1.3100 C   0  0  0  0  0  0  0  0  0  0  0  0
    0.4720    1.6320    2.1882 O   0  0  0  0  0  0  0  0  0  0  0  0
    1.6968   -0.1055    1.4434 N   0  0  0  0  0  0  0  0  0  0  0  0
    1.5872   -0.9505    0.8805 H   0  0  0  0  0  0  0  0  0  0  0  0
    2.4969   -0.2036    2.6572 C   0  0  0  0  0  0  0  0  0  0  0  0
    1.8718   -0.5029    3.5047 H   0  0  0  0  0  0  0  0  0  0  0  0
    3.2874   -0.9486    2.5268 H   0  0  0  0  0  0  0  0  0  0  0  0
    2.9665    0.7586    2.8865 H   0  0  0  0  0  0  0  0  0  0  0  0
  1  2  1  0  0  0  0
  2  3  1  0  0  0  0
  2  4  1  0  0  0  0
  2  5  1  0  0  0  0
  5  6  2  0  0  0  0
  5  7  1  0  0  0  0
  7  8  1  0  0  0  0
  7  9  1  0  0  0  0
  9 10  1  0  0  0  0
  9 11  1  0  0  0  0
  9 22  1  0  0  0  0
 11 12  1  0  0  0  0
 11 13  1  0  0  0  0
 11 14  1  0  0  0  0
 14 15  1  0  0  0  0
 14 20  2  0  0  0  0
 15 16  2  0  0  0  0
 16 17  1  0  0  0  0
 16 18  1  0  0  0  0
 18 19  1  0  0  0  0
 18 20  1  0  0  0  0
 20 21  1  0  0  0  0
 22 23  2  0  0  0  0
 22 24  1  0  0  0  0
 24 25  1  0  0  0  0
 24 26  1  0  0  0  0
 26 27  1  0  0  0  0
 26 28  1  0  0  0  0
 26 29  1  0  0  0  0
M  END
$$$$

  -OEChem-01062216083D

 29 29  0     1  0  0  0  0  0999 V2000
   -2.4149   -3.0749    1.4385 H   0  0  0  0  0  0  0  0  0  0  0  0
   -2.6412   -2.0817    1.0405 C   0  0  0  0  0  0  0  0  0  0  0  0
   -3.1589   -1.5048    1.8106 H   0  0  0  0  0  0  0  0  0  0  0  0
   -3.2957   -2.1907    0.1725 H   0  0  0  0  0  0  0  0  0  0  0  0
   -1.3599   -1.3765    0.6387 C   0  0  0  0  0  0  0  0  0  0  0  0
   -0.2915   -1.9632    0.7153 O   0  0  0  0  0  0  0  0  0  0  0  0
   -1.4152   -0.0980    0.1201 N   0  0  0  0  0  0  0  0  0  0  0  0
   -2.3258    0.3471    0.1447 H   0  0  0  0  0  0  0  0  0  0  0  0
   -0.2387    0.7838    0.0167 C   0  0  1  0  0  0  0  0  0  0  0  0
    0.3922    0.4220   -0.8024 H   0  0  0  0  0  0  0  0  0  0  0  0
   -0.6979    2.2104   -0.3322 C   0  0  0  0  0  0  0  0  0  0  0  0
   -1.3940    2.5731    0.4300 H   0  0  0  0  0  0  0  0  0  0  0  0
    0.1645    2.8842   -0.3402 H   0  0  0  0  0  0  0  0  0  0  0  0
   -1.3490    2.2565   -1.6819 C   0  0  0  0  0  0  0  0  0  0  0  0
   -0.6449    2.1882   -2.8758 N   0  0  0  0  0  0  0  0  0  0  0  0
   -1.5293    2.3080   -3.8363 C   0  0  0  0  0  0  0  0  0  0  0  0
   -1.2982    2.2927   -4.8976 H   0  0  0  0  0  0  0  0  0  0  0  0
   -2.7936    2.4617   -3.2979 N   0  0  0  0  0  0  0  0  0  0  0  0
   -3.6477    2.5948   -3.8366 H   0  0  0  0  0  0  0  0  0  0  0  0
   -2.6823    2.4419   -1.9232 C   0  0  0  0  0  0  0  0  0  0  0  0
   -3.4671    2.5646   -1.1832 H   0  0  0  0  0  0  0  0  0  0  0  0
    0.6335    0.8035    1.2970 C   0  0  0  0  0  0  0  0  0  0  0  0
    0.2782    1.4608    2.2705 O   0  0  0  0  0  0  0  0  0  0  0  0
    1.8414    0.1322    1.3279 N   0  0  0  0  0  0  0  0  0  0  0  0
    1.9376   -0.6024    0.6295 H   0  0  0  0  0  0  0  0  0  0  0  0
    2.6414    0.0214    2.5406 C   0  0  0  0  0  0  0  0  0  0  0  0
    2.0904   -0.5246    3.3134 H   0  0  0  0  0  0  0  0  0  0  0  0
    3.5711   -0.5157    2.3304 H   0  0  0  0  0  0  0  0  0  0  0  0
    2.8979    1.0144    2.9245 H   0  0  0  0  0  0  0  0  0  0  0  0
  1  2  1  0  0  0  0
  2  3  1  0  0  0  0
  2  4  1  0  0  0  0
  2  5  1  0  0  0  0
  5  6  2  0  0  0  0
  5  7  1  0  0  0  0
  7  8  1  0  0  0  0
  7  9  1  0  0  0  0
  9 10  1  0  0  0  0
  9 11  1  0  0  0  0
  9 22  1  0  0  0  0
 11 12  1  0  0  0  0
 11 13  1  0  0  0  0
 11 14  1  0  0  0  0
 14 15  1  0  0  0  0
 14 20  2  0  0  0  0
 15 16  2  0  0  0  0
 16 17  1  0  0  0  0
 16 18  1  0  0  0  0
 18 19  1  0  0  0  0
 18 20  1  0  0  0  0
 20 21  1  0  0  0  0
 22 23  2  0  0  0  0
 22 24  1  0  0  0  0
 24 25  1  0  0  0  0
 24 26  1  0  0  0  0
 26 27  1  0  0  0  0
 26 28  1  0  0  0  0
 26 29  1  0  0  0  0
M  END
$$$$

  -OEChem-01062216083D

 29 29  0     1  0  0  0  0  0999 V2000
   -2.3798   -3.0757    1.4717 H   0  0  0  0  0  0  0  0  0  0  0  0
   -2.6202   -2.0857    1.0738 C   0  0  0  0  0  0  0  0  0  0  0  0
   -3.1159   -1.5047    1.8555 H   0  0  0  0  0  0  0  0  0  0  0  0
   -3.2997   -2.2024    0.2261 H   0  0  0  0  0  0  0  0  0  0  0  0
   -1.3525   -1.3811    0.6297 C   0  0  0  0  0  0  0  0  0  0  0  0
   -0.2802   -1.9627    0.6869 O   0  0  0  0  0  0  0  0  0  0  0  0
   -1.4237   -0.1073    0.1008 N   0  0  0  0  0  0  0  0  0  0  0  0
   -2.3306    0.3406    0.1700 H   0  0  0  0  0  0  0  0  0  0  0  0
   -0.2481    0.7762    0.0031 C   0  0  1  0  0  0  0  0  0  0  0  0
    0.3874    0.4135   -0.8120 H   0  0  0  0  0  0  0  0  0  0  0  0
   -0.6998    2.2054   -0.3375 C   0  0  0  0  0  0  0  0  0  0  0  0
   -1.3954    2.5653    0.4266 H   0  0  0  0  0  0  0  0  0  0  0  0
    0.1652    2.8757   -0.3393 H   0  0  0  0  0  0  0  0  0  0  0  0
   -1.3479    2.2631   -1.6877 C   0  0  0  0  0  0  0  0  0  0  0  0
   -0.6403    2.1995   -2.8799 N   0  0  0  0  0  0  0  0  0  0  0  0
   -1.5226    2.3241   -3.8419 C   0  0  0  0  0  0  0  0  0  0  0  0
   -1.2896    2.3138   -4.9029 H   0  0  0  0  0  0  0  0  0  0  0  0
   -2.7882    2.4765   -3.3060 N   0  0  0  0  0  0  0  0  0  0  0  0
   -3.6414    2.6087   -3.8463 H   0  0  0  0  0  0  0  0  0  0  0  0
   -2.6802    2.4511   -1.9313 C   0  0  0  0  0  0  0  0  0  0  0  0
   -3.4672    2.5684   -1.1927 H   0  0  0  0  0  0  0  0  0  0  0  0
    0.6093    0.8015    1.2910 C   0  0  0  0  0  0  0  0  0  0  0  0
    0.1308    1.2500    2.3284 O   0  0  0  0  0  0  0  0  0  0  0  0
    1.9347    0.4097    1.2597 N   0  0  0  0  0  0  0  0  0  0  0  0
    2.2163   -0.1341    0.4481 H   0  0  0  0  0  0  0  0  0  0  0  0
    2.7544    0.3252    2.4612 C   0  0  0  0  0  0  0  0  0  0  0  0
    2.3356   -0.4077    3.1587 H   0  0  0  0  0  0  0  0  0  0  0  0
    3.7721    0.0182    2.2025 H   0  0  0  0  0  0  0  0  0  0  0  0
    2.8059    1.2985    2.9602 H   0  0  0  0  0  0  0  0  0  0  0  0
  1  2  1  0  0  0  0
  2  3  1  0  0  0  0
  2  4  1  0  0  0  0
  2  5  1  0  0  0  0
  5  6  2  0  0  0  0
  5  7  1  0  0  0  0
  7  8  1  0  0  0  0
  7  9  1  0  0  0  0
  9 10  1  0  0  0  0
  9 11  1  0  0  0  0
  9 22  1  0  0  0  0
 11 12  1  0  0  0  0
 11 13  1  0  0  0  0
 11 14  1  0  0  0  0
 14 15  1  0  0  0  0
 14 20  2  0  0  0  0
 15 16  2  0  0  0  0
 16 17  1  0  0  0  0
 16 18  1  0  0  0  0
 18 19  1  0  0  0  0
 18 20  1  0  0  0  0
 20 21  1  0  0  0  0
 22 23  2  0  0  0  0
 22 24  1  0  0  0  0
 24 25  1  0  0  0  0
 24 26  1  0  0  0  0
 26 27  1  0  0  0  0
 26 28  1  0  0  0  0
 26 29  1  0  0  0  0
M  END
$$$$

  -OEChem-01062216083D

 29 29  0     1  0  0  0  0  0999 V2000
   -2.3724   -3.0820    1.4807 H   0  0  0  0  0  0  0  0  0  0  0  0
   -2.6162   -2.0881    1.0951 C   0  0  0  0  0  0  0  0  0  0  0  0
   -3.0811   -1.5061    1.8946 H   0  0  0  0  0  0  0  0  0  0  0  0
   -3.3229   -2.1935    0.2687 H   0  0  0  0  0  0  0  0  0  0  0  0
   -1.3567   -1.3924    0.6156 C   0  0  0  0  0  0  0  0  0  0  0  0
   -0.2861   -1.9793    0.6472 O   0  0  0  0  0  0  0  0  0  0  0  0
   -1.4346   -0.1197    0.0852 N   0  0  0  0  0  0  0  0  0  0  0  0
   -2.3374    0.3305    0.1841 H   0  0  0  0  0  0  0  0  0  0  0  0
   -0.2575    0.7633    0.0009 C   0  0  1  0  0  0  0  0  0  0  0  0
    0.3836    0.4016   -0.8104 H   0  0  0  0  0  0  0  0  0  0  0  0
   -0.7076    2.1942   -0.3313 C   0  0  0  0  0  0  0  0  0  0  0  0
   -1.4083    2.5461    0.4319 H   0  0  0  0  0  0  0  0  0  0  0  0
    0.1562    2.8659   -0.3230 H   0  0  0  0  0  0  0  0  0  0  0  0
   -1.3479    2.2613   -1.6845 C   0  0  0  0  0  0  0  0  0  0  0  0
   -0.6296    2.2062   -2.8706 N   0  0  0  0  0  0  0  0  0  0  0  0
   -1.5038    2.3372   -3.8392 C   0  0  0  0  0  0  0  0  0  0  0  0
   -1.2612    2.3328   -4.8981 H   0  0  0  0  0  0  0  0  0  0  0  0
   -2.7738    2.4874   -3.3133 N   0  0  0  0  0  0  0  0  0  0  0  0
   -3.6223    2.6227   -3.8601 H   0  0  0  0  0  0  0  0  0  0  0  0
   -2.6781    2.4513   -1.9378 C   0  0  0  0  0  0  0  0  0  0  0  0
   -3.4717    2.5624   -1.2052 H   0  0  0  0  0  0  0  0  0  0  0  0
    0.5910    0.7917    1.2939 C   0  0  0  0  0  0  0  0  0  0  0  0
    0.0479    1.0298    2.3686 O   0  0  0  0  0  0  0  0  0  0  0  0
    1.9695    0.7048    1.2293 N   0  0  0  0  0  0  0  0  0  0  0  0
    2.3626    0.3837    0.3489 H   0  0  0  0  0  0  0  0  0  0  0  0
    2.8124    0.6764    2.4175 C   0  0  0  0  0  0  0  0  0  0  0  0
    2.5655   -0.1901    3.0401 H   0  0  0  0  0  0  0  0  0  0  0  0
    3.8664    0.6101    2.1316 H   0  0  0  0  0  0  0  0  0  0  0  0
    2.6732    1.5875    3.0088 H   0  0  0  0  0  0  0  0  0  0  0  0
  1  2  1  0  0  0  0
  2  3  1  0  0  0  0
  2  4  1  0  0  0  0
  2  5  1  0  0  0  0
  5  6  2  0  0  0  0
  5  7  1  0  0  0  0
  7  8  1  0  0  0  0
  7  9  1  0  0  0  0
  9 10  1  0  0  0  0
  9 11  1  0  0  0  0
  9 22  1  0  0  0  0
 11 12  1  0  0  0  0
 11 13  1  0  0  0  0
 11 14  1  0  0  0  0
 14 15  1  0  0  0  0
 14 20  2  0  0  0  0
 15 16  2  0  0  0  0
 16 17  1  0  0  0  0
 16 18  1  0  0  0  0
 18 19  1  0  0  0  0
 18 20  1  0  0  0  0
 20 21  1  0  0  0  0
 22 23  2  0  0  0  0
 22 24  1  0  0  0  0
 24 25  1  0  0  0  0
 24 26  1  0  0  0  0
 26 27  1  0  0  0  0
 26 28  1  0  0  0  0
 26 29  1  0  0  0  0
M  END
$$$$

  -OEChem-01062216083D

 29 29  0     1  0  0  0  0  0999 V2000
   -2.3818   -3.0919    1.4711 H   0  0  0  0  0  0  0  0  0  0  0  0
   -2.6223   -2.0902    1.1041 C   0  0  0  0  0  0  0  0  0  0  0  0
   -3.0530   -1.5105    1.9241 H   0  0  0  0  0  0  0  0  0  0  0  0
   -3.3559   -2.1760    0.2991 H   0  0  0  0  0  0  0  0  0  0  0  0
   -1.3678   -1.4069    0.5943 C   0  0  0  0  0  0  0  0  0  0  0  0
   -0.3047   -2.0081    0.5868 O   0  0  0  0  0  0  0  0  0  0  0  0
   -1.4449   -0.1305    0.0715 N   0  0  0  0  0  0  0  0  0  0  0  0
   -2.3412    0.3240    0.2019 H   0  0  0  0  0  0  0  0  0  0  0  0
   -0.2635    0.7491    0.0044 C   0  0  1  0  0  0  0  0  0  0  0  0
    0.3826    0.3908   -0.8046 H   0  0  0  0  0  0  0  0  0  0  0  0
   -0.7114    2.1828   -0.3182 C   0  0  0  0  0  0  0  0  0  0  0  0
   -1.4171    2.5280    0.4435 H   0  0  0  0  0  0  0  0  0  0  0  0
    0.1511    2.8558   -0.2995 H   0  0  0  0  0  0  0  0  0  0  0  0
   -1.3420    2.2604   -1.6753 C   0  0  0  0  0  0  0  0  0  0  0  0
   -0.6143    2.2152   -2.8561 N   0  0  0  0  0  0  0  0  0  0  0  0
   -1.4821    2.3474   -3.8304 C   0  0  0  0  0  0  0  0  0  0  0  0
   -1.2319    2.3494   -4.8875 H   0  0  0  0  0  0  0  0  0  0  0  0
   -2.7565    2.4903   -3.3130 N   0  0  0  0  0  0  0  0  0  0  0  0
   -3.6020    2.6223   -3.8655 H   0  0  0  0  0  0  0  0  0  0  0  0
   -2.6708    2.4476   -1.9371 C   0  0  0  0  0  0  0  0  0  0  0  0
   -3.4705    2.5502   -1.2099 H   0  0  0  0  0  0  0  0  0  0  0  0
    0.5813    0.7728    1.3006 C   0  0  0  0  0  0  0  0  0  0  0  0
    0.0208    0.8050    2.3923 O   0  0  0  0  0  0  0  0  0  0  0  0
    1.9450    0.9954    1.2356 N   0  0  0  0  0  0  0  0  0  0  0  0
    2.3827    0.9024    0.3231 H   0  0  0  0  0  0  0  0  0  0  0  0
    2.7961    1.0481    2.4173 C   0  0  0  0  0  0  0  0  0  0  0  0
    2.7401    0.1045    2.9702 H   0  0  0  0  0  0  0  0  0  0  0  0
    3.8369    1.2184    2.1257 H   0  0  0  0  0  0  0  0  0  0  0  0
    2.4855    1.8641    3.0782 H   0  0  0  0  0  0  0  0  0  0  0  0
  1  2  1  0  0  0  0
  2  3  1  0  0  0  0
  2  4  1  0  0  0  0
  2  5  1  0  0  0  0
  5  6  2  0  0  0  0
  5  7  1  0  0  0  0
  7  8  1  0  0  0  0
  7  9  1  0  0  0  0
  9 10  1  0  0  0  0
  9 11  1  0  0  0  0
  9 22  1  0  0  0  0
 11 12  1  0  0  0  0
 11 13  1  0  0  0  0
 11 14  1  0  0  0  0
 14 15  1  0  0  0  0
 14 20  2  0  0  0  0
 15 16  2  0  0  0  0
 16 17  1  0  0  0  0
 16 18  1  0  0  0  0
 18 19  1  0  0  0  0
 18 20  1  0  0  0  0
 20 21  1  0  0  0  0
 22 23  2  0  0  0  0
 22 24  1  0  0  0  0
 24 25  1  0  0  0  0
 24 26  1  0  0  0  0
 26 27  1  0  0  0  0
 26 28  1  0  0  0  0
 26 29  1  0  0  0  0
M  END
$$$$

  -OEChem-01062216083D

 29 29  0     1  0  0  0  0  0999 V2000
   -2.3861   -3.1014    1.4580 H   0  0  0  0  0  0  0  0  0  0  0  0
   -2.6238   -2.0899    1.1167 C   0  0  0  0  0  0  0  0  0  0  0  0
   -3.0134   -1.5176    1.9620 H   0  0  0  0  0  0  0  0  0  0  0  0
   -3.3883   -2.1498    0.3386 H   0  0  0  0  0  0  0  0  0  0  0  0
   -1.3778   -1.4181    0.5716 C   0  0  0  0  0  0  0  0  0  0  0  0
   -0.3259   -2.0363    0.5144 O   0  0  0  0  0  0  0  0  0  0  0  0
   -1.4527   -0.1368    0.0598 N   0  0  0  0  0  0  0  0  0  0  0  0
   -2.3413    0.3226    0.2204 H   0  0  0  0  0  0  0  0  0  0  0  0
   -0.2648    0.7367    0.0088 C   0  0  1  0  0  0  0  0  0  0  0  0
    0.3845    0.3821   -0.7993 H   0  0  0  0  0  0  0  0  0  0  0  0
   -0.7165    2.1721   -0.3076 C   0  0  0  0  0  0  0  0  0  0  0  0
   -1.4277    2.5085    0.4525 H   0  0  0  0  0  0  0  0  0  0  0  0
    0.1410    2.8510   -0.2818 H   0  0  0  0  0  0  0  0  0  0  0  0
   -1.3391    2.2584   -1.6679 C   0  0  0  0  0  0  0  0  0  0  0  0
   -0.6023    2.2247   -2.8431 N   0  0  0  0  0  0  0  0  0  0  0  0
   -1.4633    2.3594   -3.8232 C   0  0  0  0  0  0  0  0  0  0  0  0
   -1.2051    2.3679   -4.8783 H   0  0  0  0  0  0  0  0  0  0  0  0
   -2.7420    2.4950   -3.3144 N   0  0  0  0  0  0  0  0  0  0  0  0
   -3.5843    2.6251   -3.8721 H   0  0  0  0  0  0  0  0  0  0  0  0
   -2.6667    2.4428   -1.9382 C   0  0  0  0  0  0  0  0  0  0  0  0
   -3.4728    2.5357   -1.2169 H   0  0  0  0  0  0  0  0  0  0  0  0
    0.5832    0.7536    1.3060 C   0  0  0  0  0  0  0  0  0  0  0  0
    0.0460    0.5831    2.3967 O   0  0  0  0  0  0  0  0  0  0  0  0
    1.8663    1.2714    1.2781 N   0  0  0  0  0  0  0  0  0  0  0  0
    2.2959    1.3896    0.3648 H   0  0  0  0  0  0  0  0  0  0  0  0
    2.6998    1.3990    2.4673 C   0  0  0  0  0  0  0  0  0  0  0  0
    2.8489    0.4204    2.9361 H   0  0  0  0  0  0  0  0  0  0  0  0
    3.6787    1.8088    2.2010 H   0  0  0  0  0  0  0  0  0  0  0  0
    2.2312    2.0713    3.1935 H   0  0  0  0  0  0  0  0  0  0  0  0
  1  2  1  0  0  0  0
  2  3  1  0  0  0  0
  2  4  1  0  0  0  0
  2  5  1  0  0  0  0
  5  6  2  0  0  0  0
  5  7  1  0  0  0  0
  7  8  1  0  0  0  0
  7  9  1  0  0  0  0
  9 10  1  0  0  0  0
  9 11  1  0  0  0  0
  9 22  1  0  0  0  0
 11 12  1  0  0  0  0
 11 13  1  0  0  0  0
 11 14  1  0  0  0  0
 14 15  1  0  0  0  0
 14 20  2  0  0  0  0
 15 16  2  0  0  0  0
 16 17  1  0  0  0  0
 16 18  1  0  0  0  0
 18 19  1  0  0  0  0
 18 20  1  0  0  0  0
 20 21  1  0  0  0  0
 22 23  2  0  0  0  0
 22 24  1  0  0  0  0
 24 25  1  0  0  0  0
 24 26  1  0  0  0  0
 26 27  1  0  0  0  0
 26 28  1  0  0  0  0
 26 29  1  0  0  0  0
M  END
$$$$

  -OEChem-01062216083D

 29 29  0     1  0  0  0  0  0999 V2000
   -2.4914   -3.0948    1.3919 H   0  0  0  0  0  0  0  0  0  0  0  0
   -2.6853   -2.0651    1.0785 C   0  0  0  0  0  0  0  0  0  0  0  0
   -3.0032   -1.4886    1.9503 H   0  0  0  0  0  0  0  0  0  0  0  0
   -3.4849   -2.0661    0.3344 H   0  0  0  0  0  0  0  0  0  0  0  0
   -1.4268   -1.4572    0.4893 C   0  0  0  0  0  0  0  0  0  0  0  0
   -0.4550   -2.1628    0.2702 O   0  0  0  0  0  0  0  0  0  0  0  0
   -1.4407   -0.1545    0.0287 N   0  0  0  0  0  0  0  0  0  0  0  0
   -2.3193    0.3230    0.1894 H   0  0  0  0  0  0  0  0  0  0  0  0
   -0.2394    0.7085    0.0186 C   0  0  1  0  0  0  0  0  0  0  0  0
    0.2697    0.5583   -0.9395 H   0  0  0  0  0  0  0  0  0  0  0  0
   -0.7264    2.1689    0.1063 C   0  0  0  0  0  0  0  0  0  0  0  0
   -1.3225    2.3015    1.0142 H   0  0  0  0  0  0  0  0  0  0  0  0
    0.1229    2.8548    0.1672 H   0  0  0  0  0  0  0  0  0  0  0  0
   -1.5308    2.5495   -1.0998 C   0  0  0  0  0  0  0  0  0  0  0  0
   -0.9619    2.8076   -2.3384 N   0  0  0  0  0  0  0  0  0  0  0  0
   -1.9476    3.1430   -3.1359 C   0  0  0  0  0  0  0  0  0  0  0  0
   -1.8358    3.4022   -4.1850 H   0  0  0  0  0  0  0  0  0  0  0  0
   -3.1440    3.1239   -2.4423 N   0  0  0  0  0  0  0  0  0  0  0  0
   -4.0533    3.3605   -2.8357 H   0  0  0  0  0  0  0  0  0  0  0  0
   -2.8819    2.7573   -1.1386 C   0  0  0  0  0  0  0  0  0  0  0  0
   -3.5818    2.6641   -0.3137 H   0  0  0  0  0  0  0  0  0  0  0  0
    0.8278    0.4668    1.1255 C   0  0  0  0  0  0  0  0  0  0  0  0
    0.5219   -0.0646    2.1882 O   0  0  0  0  0  0  0  0  0  0  0  0
    1.9686    1.2536    1.1388 N   0  0  0  0  0  0  0  0  0  0  0  0
    2.2054    1.7372    0.2772 H   0  0  0  0  0  0  0  0  0  0  0  0
    2.9401    1.2471    2.2267 C   0  0  0  0  0  0  0  0  0  0  0  0
    3.3187    0.2336    2.3963 H   0  0  0  0  0  0  0  0  0  0  0  0
    3.7866    1.8956    1.9813 H   0  0  0  0  0  0  0  0  0  0  0  0
    2.4824    1.6122    3.1521 H   0  0  0  0  0  0  0  0  0  0  0  0
  1  2  1  0  0  0  0
  2  3  1  0  0  0  0
  2  4  1  0  0  0  0
  2  5  1  0  0  0  0
  5  6  2  0  0  0  0
  5  7  1  0  0  0  0
  7  8  1  0  0  0  0
  7  9  1  0  0  0  0
  9 10  1  0  0  0  0
  9 11  1  0  0  0  0
  9 22  1  0  0  0  0
 11 12  1  0  0  0  0
 11 13  1  0  0  0  0
 11 14  1  0  0  0  0
 14 15  1  0  0  0  0
 14 20  2  0  0  0  0
 15 16  2  0  0  0  0
 16 17  1  0  0  0  0
 16 18  1  0  0  0  0
 18 19  1  0  0  0  0
 18 20  1  0  0  0  0
 20 21  1  0  0  0  0
 22 23  2  0  0  0  0
 22 24  1  0  0  0  0
 24 25  1  0  0  0  0
 24 26  1  0  0  0  0
 26 27  1  0  0  0  0
 26 28  1  0  0  0  0
 26 29  1  0  0  0  0
M  END
$$$$

  -OEChem-01062216083D

 29 29  0     1  0  0  0  0  0999 V2000
   -2.4937   -3.0876    1.3613 H   0  0  0  0  0  0  0  0  0  0  0  0
   -2.6728   -2.0403    1.1019 C   0  0  0  0  0  0  0  0  0  0  0  0
   -2.9168   -1.4912    2.0145 H   0  0  0  0  0  0  0  0  0  0  0  0
   -3.5168   -1.9861    0.4105 H   0  0  0  0  0  0  0  0  0  0  0  0
   -1.4331   -1.4471    0.4599 C   0  0  0  0  0  0  0  0  0  0  0  0
   -0.5040   -2.1739    0.1470 O   0  0  0  0  0  0  0  0  0  0  0  0
   -1.4384   -0.1342    0.0296 N   0  0  0  0  0  0  0  0  0  0  0  0
   -2.3105    0.3431    0.2216 H   0  0  0  0  0  0  0  0  0  0  0  0
   -0.2362    0.7307    0.0344 C   0  0  1  0  0  0  0  0  0  0  0  0
    0.2711    0.5922   -0.9265 H   0  0  0  0  0  0  0  0  0  0  0  0
   -0.7532    2.1851    0.1181 C   0  0  0  0  0  0  0  0  0  0  0  0
   -1.3617    2.3064    1.0194 H   0  0  0  0  0  0  0  0  0  0  0  0
    0.0760    2.8939    0.1829 H   0  0  0  0  0  0  0  0  0  0  0  0
   -1.5492    2.5509   -1.0985 C   0  0  0  0  0  0  0  0  0  0  0  0
   -0.9639    2.8200   -2.3267 N   0  0  0  0  0  0  0  0  0  0  0  0
   -1.9422    3.1314   -3.1427 C   0  0  0  0  0  0  0  0  0  0  0  0
   -1.8172    3.3911   -4.1902 H   0  0  0  0  0  0  0  0  0  0  0  0
   -3.1501    3.0874   -2.4701 N   0  0  0  0  0  0  0  0  0  0  0  0
   -4.0577    3.3003   -2.8810 H   0  0  0  0  0  0  0  0  0  0  0  0
   -2.9035    2.7297   -1.1607 C   0  0  0  0  0  0  0  0  0  0  0  0
   -3.6163    2.6211   -0.3488 H   0  0  0  0  0  0  0  0  0  0  0  0
    0.8531    0.4866    1.1279 C   0  0  0  0  0  0  0  0  0  0  0  0
    0.6664   -0.2798    2.0658 O   0  0  0  0  0  0  0  0  0  0  0  0
    1.8215    1.4559    1.3444 N   0  0  0  0  0  0  0  0  0  0  0  0
    1.9790    2.1224    0.5939 H   0  0  0  0  0  0  0  0  0  0  0  0
    2.7698    1.4213    2.4529 C   0  0  0  0  0  0  0  0  0  0  0  0
    3.3500    0.4926    2.4321 H   0  0  0  0  0  0  0  0  0  0  0  0
    3.4634    2.2646    2.3823 H   0  0  0  0  0  0  0  0  0  0  0  0
    2.2434    1.4873    3.4110 H   0  0  0  0  0  0  0  0  0  0  0  0
  1  2  1  0  0  0  0
  2  3  1  0  0  0  0
  2  4  1  0  0  0  0
  2  5  1  0  0  0  0
  5  6  2  0  0  0  0
  5  7  1  0  0  0  0
  7  8  1  0  0  0  0
  7  9  1  0  0  0  0
  9 10  1  0  0  0  0
  9 11  1  0  0  0  0
  9 22  1  0  0  0  0
 11 12  1  0  0  0  0
 11 13  1  0  0  0  0
 11 14  1  0  0  0  0
 14 15  1  0  0  0  0
 14 20  2  0  0  0  0
 15 16  2  0  0  0  0
 16 17  1  0  0  0  0
 16 18  1  0  0  0  0
 18 19  1  0  0  0  0
 18 20  1  0  0  0  0
 20 21  1  0  0  0  0
 22 23  2  0  0  0  0
 22 24  1  0  0  0  0
 24 25  1  0  0  0  0
 24 26  1  0  0  0  0
 26 27  1  0  0  0  0
 26 28  1  0  0  0  0
 26 29  1  0  0  0  0
M  END
$$$$

  -OEChem-01062216083D

 29 29  0     1  0  0  0  0  0999 V2000
   -2.4822   -3.0631    1.3785 H   0  0  0  0  0  0  0  0  0  0  0  0
   -2.6564   -2.0135    1.1255 C   0  0  0  0  0  0  0  0  0  0  0  0
   -2.8606   -1.4618    2.0462 H   0  0  0  0  0  0  0  0  0  0  0  0
   -3.5233   -1.9478    0.4642 H   0  0  0  0  0  0  0  0  0  0  0  0
   -1.4328   -1.4369    0.4390 C   0  0  0  0  0  0  0  0  0  0  0  0
   -0.5569   -2.1844    0.0378 O   0  0  0  0  0  0  0  0  0  0  0  0
   -1.4315   -0.1165    0.0341 N   0  0  0  0  0  0  0  0  0  0  0  0
   -2.3037    0.3535    0.2425 H   0  0  0  0  0  0  0  0  0  0  0  0
   -0.2392    0.7636    0.0567 C   0  0  1  0  0  0  0  0  0  0  0  0
    0.2764    0.6357   -0.9013 H   0  0  0  0  0  0  0  0  0  0  0  0
   -0.7899    2.2081    0.1243 C   0  0  0  0  0  0  0  0  0  0  0  0
   -1.4136    2.3233    1.0158 H   0  0  0  0  0  0  0  0  0  0  0  0
    0.0217    2.9362    0.1903 H   0  0  0  0  0  0  0  0  0  0  0  0
   -1.5724    2.5536   -1.1078 C   0  0  0  0  0  0  0  0  0  0  0  0
   -0.9722    2.8317   -2.3264 N   0  0  0  0  0  0  0  0  0  0  0  0
   -1.9425    3.1173   -3.1611 C   0  0  0  0  0  0  0  0  0  0  0  0
   -1.8055    3.3748   -4.2077 H   0  0  0  0  0  0  0  0  0  0  0  0
   -3.1604    3.0501   -2.5093 N   0  0  0  0  0  0  0  0  0  0  0  0
   -4.0649    3.2385   -2.9383 H   0  0  0  0  0  0  0  0  0  0  0  0
   -2.9291    2.7024   -1.1946 C   0  0  0  0  0  0  0  0  0  0  0  0
   -3.6548    2.5794   -0.3964 H   0  0  0  0  0  0  0  0  0  0  0  0
    0.8610    0.5275    1.1477 C   0  0  0  0  0  0  0  0  0  0  0  0
    0.8901   -0.4657    1.8608 O   0  0  0  0  0  0  0  0  0  0  0  0
    1.6170    1.5969    1.6078 N   0  0  0  0  0  0  0  0  0  0  0  0
    1.6341    2.4291    1.0264 H   0  0  0  0  0  0  0  0  0  0  0  0
    2.5739    1.5023    2.7059 C   0  0  0  0  0  0  0  0  0  0  0  0
    3.3420    0.7546    2.4816 H   0  0  0  0  0  0  0  0  0  0  0  0
    3.0652    2.4673    2.8620 H   0  0  0  0  0  0  0  0  0  0  0  0
    2.0670    1.2202    3.6345 H   0  0  0  0  0  0  0  0  0  0  0  0
  1  2  1  0  0  0  0
  2  3  1  0  0  0  0
  2  4  1  0  0  0  0
  2  5  1  0  0  0  0
  5  6  2  0  0  0  0
  5  7  1  0  0  0  0
  7  8  1  0  0  0  0
  7  9  1  0  0  0  0
  9 10  1  0  0  0  0
  9 11  1  0  0  0  0
  9 22  1  0  0  0  0
 11 12  1  0  0  0  0
 11 13  1  0  0  0  0
 11 14  1  0  0  0  0
 14 15  1  0  0  0  0
 14 20  2  0  0  0  0
 15 16  2  0  0  0  0
 16 17  1  0  0  0  0
 16 18  1  0  0  0  0
 18 19  1  0  0  0  0
 18 20  1  0  0  0  0
 20 21  1  0  0  0  0
 22 23  2  0  0  0  0
 22 24  1  0  0  0  0
 24 25  1  0  0  0  0
 24 26  1  0  0  0  0
 26 27  1  0  0  0  0
 26 28  1  0  0  0  0
 26 29  1  0  0  0  0
M  END
$$$$

  -OEChem-01062216083D

 29 29  0     1  0  0  0  0  0999 V2000
   -2.6302   -3.1233    1.0435 H   0  0  0  0  0  0  0  0  0  0  0  0
   -2.6698   -2.1953    0.4661 C   0  0  0  0  0  0  0  0  0  0  0  0
   -3.6950   -1.8181    0.4726 H   0  0  0  0  0  0  0  0  0  0  0  0
   -2.3715   -2.4114   -0.5626 H   0  0  0  0  0  0  0  0  0  0  0  0
   -1.7333   -1.1670    1.0721 C   0  0  0  0  0  0  0  0  0  0  0  0
   -1.3119   -1.3464    2.1998 O   0  0  0  0  0  0  0  0  0  0  0  0
   -1.6124    0.0707    0.4708 N   0  0  0  0  0  0  0  0  0  0  0  0
   -2.2233    0.1525   -0.3359 H   0  0  0  0  0  0  0  0  0  0  0  0
   -0.3454    0.8190    0.2990 C   0  0  1  0  0  0  0  0  0  0  0  0
    0.0996    0.5210   -0.6568 H   0  0  0  0  0  0  0  0  0  0  0  0
   -0.7545    2.3040    0.2025 C   0  0  0  0  0  0  0  0  0  0  0  0
   -1.3011    2.5962    1.1045 H   0  0  0  0  0  0  0  0  0  0  0  0
    0.1293    2.9422    0.1160 H   0  0  0  0  0  0  0  0  0  0  0  0
   -1.5936    2.5529   -1.0155 C   0  0  0  0  0  0  0  0  0  0  0  0
   -1.0843    2.6056   -2.3041 N   0  0  0  0  0  0  0  0  0  0  0  0
   -2.0941    2.8856   -3.0933 C   0  0  0  0  0  0  0  0  0  0  0  0
   -2.0268    3.0005   -4.1715 H   0  0  0  0  0  0  0  0  0  0  0  0
   -3.2523    3.0138   -2.3486 N   0  0  0  0  0  0  0  0  0  0  0  0
   -4.1686    3.2523   -2.7248 H   0  0  0  0  0  0  0  0  0  0  0  0
   -2.9357    2.8119   -1.0214 C   0  0  0  0  0  0  0  0  0  0  0  0
   -3.5918    2.8593   -0.1566 H   0  0  0  0  0  0  0  0  0  0  0  0
    0.7819    0.6091    1.3541 C   0  0  0  0  0  0  0  0  0  0  0  0
    1.3385   -0.4804    1.4067 O   0  0  0  0  0  0  0  0  0  0  0  0
    1.4841    1.6762    1.8959 N   0  0  0  0  0  0  0  0  0  0  0  0
    1.0680    2.5972    1.8123 H   0  0  0  0  0  0  0  0  0  0  0  0
    2.6669    1.5168    2.7344 C   0  0  0  0  0  0  0  0  0  0  0  0
    3.4759    1.0418    2.1697 H   0  0  0  0  0  0  0  0  0  0  0  0
    3.0171    2.4924    3.0843 H   0  0  0  0  0  0  0  0  0  0  0  0
    2.4354    0.8978    3.6076 H   0  0  0  0  0  0  0  0  0  0  0  0
  1  2  1  0  0  0  0
  2  3  1  0  0  0  0
  2  4  1  0  0  0  0
  2  5  1  0  0  0  0
  5  6  2  0  0  0  0
  5  7  1  0  0  0  0
  7  8  1  0  0  0  0
  7  9  1  0  0  0  0
  9 10  1  0  0  0  0
  9 11  1  0  0  0  0
  9 22  1  0  0  0  0
 11 12  1  0  0  0  0
 11 13  1  0  0  0  0
 11 14  1  0  0  0  0
 14 15  1  0  0  0  0
 14 20  2  0  0  0  0
 15 16  2  0  0  0  0
 16 17  1  0  0  0  0
 16 18  1  0  0  0  0
 18 19  1  0  0  0  0
 18 20  1  0  0  0  0
 20 21  1  0  0  0  0
 22 23  2  0  0  0  0
 22 24  1  0  0  0  0
 24 25  1  0  0  0  0
 24 26  1  0  0  0  0
 26 27  1  0  0  0  0
 26 28  1  0  0  0  0
 26 29  1  0  0  0  0
M  END
$$$$

  -OEChem-01062216083D

 29 29  0     1  0  0  0  0  0999 V2000
   -2.7582   -3.1094    1.0231 H   0  0  0  0  0  0  0  0  0  0  0  0
   -2.8037   -2.1494    0.5009 C   0  0  0  0  0  0  0  0  0  0  0  0
   -3.7773   -1.6912    0.6895 H   0  0  0  0  0  0  0  0  0  0  0  0
   -2.6925   -2.3298   -0.5709 H   0  0  0  0  0  0  0  0  0  0  0  0
   -1.6953   -1.2362    0.9911 C   0  0  0  0  0  0  0  0  0  0  0  0
   -1.0629   -1.5600    1.9779 O   0  0  0  0  0  0  0  0  0  0  0  0
   -1.5681    0.0176    0.4227 N   0  0  0  0  0  0  0  0  0  0  0  0
   -2.2313    0.1683   -0.3311 H   0  0  0  0  0  0  0  0  0  0  0  0
   -0.3187    0.7998    0.2774 C   0  0  1  0  0  0  0  0  0  0  0  0
    0.1403    0.5268   -0.6796 H   0  0  0  0  0  0  0  0  0  0  0  0
   -0.7496    2.2790    0.2007 C   0  0  0  0  0  0  0  0  0  0  0  0
   -1.3131    2.5485    1.0990 H   0  0  0  0  0  0  0  0  0  0  0  0
    0.1301    2.9271    0.1410 H   0  0  0  0  0  0  0  0  0  0  0  0
   -1.5785    2.5350   -1.0228 C   0  0  0  0  0  0  0  0  0  0  0  0
   -1.0561    2.6172   -2.3043 N   0  0  0  0  0  0  0  0  0  0  0  0
   -2.0610    2.8904   -3.1016 C   0  0  0  0  0  0  0  0  0  0  0  0
   -1.9822    3.0232   -4.1770 H   0  0  0  0  0  0  0  0  0  0  0  0
   -3.2299    2.9855   -2.3689 N   0  0  0  0  0  0  0  0  0  0  0  0
   -4.1459    3.2119   -2.7533 H   0  0  0  0  0  0  0  0  0  0  0  0
   -2.9253    2.7695   -1.0410 C   0  0  0  0  0  0  0  0  0  0  0  0
   -3.5928    2.7928   -0.1841 H   0  0  0  0  0  0  0  0  0  0  0  0
    0.8033    0.5960    1.3375 C   0  0  0  0  0  0  0  0  0  0  0  0
    1.5386   -0.3776    1.2302 O   0  0  0  0  0  0  0  0  0  0  0  0
    1.2628    1.6394    2.1282 N   0  0  0  0  0  0  0  0  0  0  0  0
    0.6700    2.4585    2.2055 H   0  0  0  0  0  0  0  0  0  0  0  0
    2.4198    1.5273    3.0089 C   0  0  0  0  0  0  0  0  0  0  0  0
    3.3250    1.3220    2.4280 H   0  0  0  0  0  0  0  0  0  0  0  0
    2.5684    2.4608    3.5597 H   0  0  0  0  0  0  0  0  0  0  0  0
    2.2735    0.7176    3.7318 H   0  0  0  0  0  0  0  0  0  0  0  0
  1  2  1  0  0  0  0
  2  3  1  0  0  0  0
  2  4  1  0  0  0  0
  2  5  1  0  0  0  0
  5  6  2  0  0  0  0
  5  7  1  0  0  0  0
  7  8  1  0  0  0  0
  7  9  1  0  0  0  0
  9 10  1  0  0  0  0
  9 11  1  0  0  0  0
  9 22  1  0  0  0  0
 11 12  1  0  0  0  0
 11 13  1  0  0  0  0
 11 14  1  0  0  0  0
 14 15  1  0  0  0  0
 14 20  2  0  0  0  0
 15 16  2  0  0  0  0
 16 17  1  0  0  0  0
 16 18  1  0  0  0  0
 18 19  1  0  0  0  0
 18 20  1  0  0  0  0
 20 21  1  0  0  0  0
 22 23  2  0  0  0  0
 22 24  1  0  0  0  0
 24 25  1  0  0  0  0
 24 26  1  0  0  0  0
 26 27  1  0  0  0  0
 26 28  1  0  0  0  0
 26 29  1  0  0  0  0
M  END
$$$$

  -OEChem-01062216083D

 29 29  0     1  0  0  0  0  0999 V2000
   -2.7937   -3.1003    1.0712 H   0  0  0  0  0  0  0  0  0  0  0  0
   -2.8405   -2.1398    0.5502 C   0  0  0  0  0  0  0  0  0  0  0  0
   -3.7749   -1.6402    0.8162 H   0  0  0  0  0  0  0  0  0  0  0  0
   -2.8252   -2.3251   -0.5266 H   0  0  0  0  0  0  0  0  0  0  0  0
   -1.6574   -1.2746    0.9435 C   0  0  0  0  0  0  0  0  0  0  0  0
   -0.9108   -1.6653    1.8201 O   0  0  0  0  0  0  0  0  0  0  0  0
   -1.5434   -0.0155    0.3836 N   0  0  0  0  0  0  0  0  0  0  0  0
   -2.2444    0.1681   -0.3278 H   0  0  0  0  0  0  0  0  0  0  0  0
   -0.3062    0.7853    0.2435 C   0  0  1  0  0  0  0  0  0  0  0  0
    0.1550    0.5220   -0.7153 H   0  0  0  0  0  0  0  0  0  0  0  0
   -0.7401    2.2629    0.1788 C   0  0  0  0  0  0  0  0  0  0  0  0
   -1.3078    2.5236    1.0767 H   0  0  0  0  0  0  0  0  0  0  0  0
    0.1417    2.9100    0.1336 H   0  0  0  0  0  0  0  0  0  0  0  0
   -1.5701    2.5307   -1.0416 C   0  0  0  0  0  0  0  0  0  0  0  0
   -1.0502    2.6266   -2.3230 N   0  0  0  0  0  0  0  0  0  0  0  0
   -2.0555    2.9106   -3.1156 C   0  0  0  0  0  0  0  0  0  0  0  0
   -1.9782    3.0551   -4.1897 H   0  0  0  0  0  0  0  0  0  0  0  0
   -3.2228    3.0002   -2.3796 N   0  0  0  0  0  0  0  0  0  0  0  0
   -4.1382    3.2360   -2.7595 H   0  0  0  0  0  0  0  0  0  0  0  0
   -2.9165    2.7689   -1.0546 C   0  0  0  0  0  0  0  0  0  0  0  0
   -3.5825    2.7873   -0.1965 H   0  0  0  0  0  0  0  0  0  0  0  0
    0.8125    0.5882    1.3053 C   0  0  0  0  0  0  0  0  0  0  0  0
    1.6901   -0.2382    1.0885 O   0  0  0  0  0  0  0  0  0  0  0  0
    1.0455    1.5246    2.3017 N   0  0  0  0  0  0  0  0  0  0  0  0
    0.2992    2.1824    2.4977 H   0  0  0  0  0  0  0  0  0  0  0  0
    2.1445    1.4120    3.2532 C   0  0  0  0  0  0  0  0  0  0  0  0
    3.1071    1.4519    2.7329 H   0  0  0  0  0  0  0  0  0  0  0  0
    2.1080    2.2347    3.9734 H   0  0  0  0  0  0  0  0  0  0  0  0
    2.0792    0.4667    3.8023 H   0  0  0  0  0  0  0  0  0  0  0  0
  1  2  1  0  0  0  0
  2  3  1  0  0  0  0
  2  4  1  0  0  0  0
  2  5  1  0  0  0  0
  5  6  2  0  0  0  0
  5  7  1  0  0  0  0
  7  8  1  0  0  0  0
  7  9  1  0  0  0  0
  9 10  1  0  0  0  0
  9 11  1  0  0  0  0
  9 22  1  0  0  0  0
 11 12  1  0  0  0  0
 11 13  1  0  0  0  0
 11 14  1  0  0  0  0
 14 15  1  0  0  0  0
 14 20  2  0  0  0  0
 15 16  2  0  0  0  0
 16 17  1  0  0  0  0
 16 18  1  0  0  0  0
 18 19  1  0  0  0  0
 18 20  1  0  0  0  0
 20 21  1  0  0  0  0
 22 23  2  0  0  0  0
 22 24  1  0  0  0  0
 24 25  1  0  0  0  0
 24 26  1  0  0  0  0
 26 27  1  0  0  0  0
 26 28  1  0  0  0  0
 26 29  1  0  0  0  0
M  END
$$$$

  -OEChem-01062216083D

 29 29  0     1  0  0  0  0  0999 V2000
   -2.7659   -3.1240    1.0687 H   0  0  0  0  0  0  0  0  0  0  0  0
   -2.8511   -2.1423    0.5935 C   0  0  0  0  0  0  0  0  0  0  0  0
   -3.7514   -1.6479    0.9657 H   0  0  0  0  0  0  0  0  0  0  0  0
   -2.9379   -2.2834   -0.4866 H   0  0  0  0  0  0  0  0  0  0  0  0
   -1.6283   -1.3013    0.9102 C   0  0  0  0  0  0  0  0  0  0  0  0
   -0.8144   -1.7257    1.7080 O   0  0  0  0  0  0  0  0  0  0  0  0
   -1.5272   -0.0403    0.3514 N   0  0  0  0  0  0  0  0  0  0  0  0
   -2.2543    0.1635   -0.3275 H   0  0  0  0  0  0  0  0  0  0  0  0
   -0.2988    0.7732    0.2127 C   0  0  1  0  0  0  0  0  0  0  0  0
    0.1642    0.5156   -0.7470 H   0  0  0  0  0  0  0  0  0  0  0  0
   -0.7276    2.2517    0.1587 C   0  0  0  0  0  0  0  0  0  0  0  0
   -1.2931    2.5097    1.0586 H   0  0  0  0  0  0  0  0  0  0  0  0
    0.1583    2.8939    0.1213 H   0  0  0  0  0  0  0  0  0  0  0  0
   -1.5601    2.5302   -1.0576 C   0  0  0  0  0  0  0  0  0  0  0  0
   -1.0457    2.6330   -2.3406 N   0  0  0  0  0  0  0  0  0  0  0  0
   -2.0519    2.9323   -3.1263 C   0  0  0  0  0  0  0  0  0  0  0  0
   -1.9781    3.0860   -4.1993 H   0  0  0  0  0  0  0  0  0  0  0  0
   -3.2151    3.0258   -2.3846 N   0  0  0  0  0  0  0  0  0  0  0  0
   -4.1292    3.2773   -2.7580 H   0  0  0  0  0  0  0  0  0  0  0  0
   -2.9045    2.7807   -1.0630 C   0  0  0  0  0  0  0  0  0  0  0  0
   -3.5660    2.8010   -0.2017 H   0  0  0  0  0  0  0  0  0  0  0  0
    0.8144    0.5824    1.2780 C   0  0  0  0  0  0  0  0  0  0  0  0
    1.8192   -0.0520    0.9810 O   0  0  0  0  0  0  0  0  0  0  0  0
    0.8365    1.3432    2.4363 N   0  0  0  0  0  0  0  0  0  0  0  0
   -0.0401    1.7744    2.7080 H   0  0  0  0  0  0  0  0  0  0  0  0
    1.8838    1.2100    3.4414 C   0  0  0  0  0  0  0  0  0  0  0  0
    2.8594    1.4647    3.0143 H   0  0  0  0  0  0  0  0  0  0  0  0
    1.6893    1.8832    4.2815 H   0  0  0  0  0  0  0  0  0  0  0  0
    1.9216    0.1830    3.8200 H   0  0  0  0  0  0  0  0  0  0  0  0
  1  2  1  0  0  0  0
  2  3  1  0  0  0  0
  2  4  1  0  0  0  0
  2  5  1  0  0  0  0
  5  6  2  0  0  0  0
  5  7  1  0  0  0  0
  7  8  1  0  0  0  0
  7  9  1  0  0  0  0
  9 10  1  0  0  0  0
  9 11  1  0  0  0  0
  9 22  1  0  0  0  0
 11 12  1  0  0  0  0
 11 13  1  0  0  0  0
 11 14  1  0  0  0  0
 14 15  1  0  0  0  0
 14 20  2  0  0  0  0
 15 16  2  0  0  0  0
 16 17  1  0  0  0  0
 16 18  1  0  0  0  0
 18 19  1  0  0  0  0
 18 20  1  0  0  0  0
 20 21  1  0  0  0  0
 22 23  2  0  0  0  0
 22 24  1  0  0  0  0
 24 25  1  0  0  0  0
 24 26  1  0  0  0  0
 26 27  1  0  0  0  0
 26 28  1  0  0  0  0
 26 29  1  0  0  0  0
M  END
$$$$

  -OEChem-01062216083D

 29 29  0     1  0  0  0  0  0999 V2000
   -2.7784   -3.1238    1.0947 H   0  0  0  0  0  0  0  0  0  0  0  0
   -2.8631   -2.1439    0.6158 C   0  0  0  0  0  0  0  0  0  0  0  0
   -3.7408   -1.6314    1.0163 H   0  0  0  0  0  0  0  0  0  0  0  0
   -2.9916   -2.2901   -0.4594 H   0  0  0  0  0  0  0  0  0  0  0  0
   -1.6150   -1.3229    0.8821 C   0  0  0  0  0  0  0  0  0  0  0  0
   -0.7655   -1.7681    1.6304 O   0  0  0  0  0  0  0  0  0  0  0  0
   -1.5150   -0.0635    0.3199 N   0  0  0  0  0  0  0  0  0  0  0  0
   -2.2576    0.1565   -0.3373 H   0  0  0  0  0  0  0  0  0  0  0  0
   -0.2899    0.7552    0.1848 C   0  0  1  0  0  0  0  0  0  0  0  0
    0.1767    0.5020   -0.7743 H   0  0  0  0  0  0  0  0  0  0  0  0
   -0.7124    2.2344    0.1466 C   0  0  0  0  0  0  0  0  0  0  0  0
   -1.2713    2.4867    1.0520 H   0  0  0  0  0  0  0  0  0  0  0  0
    0.1775    2.8713    0.1129 H   0  0  0  0  0  0  0  0  0  0  0  0
   -1.5480    2.5298   -1.0629 C   0  0  0  0  0  0  0  0  0  0  0  0
   -1.0409    2.6444   -2.3481 N   0  0  0  0  0  0  0  0  0  0  0  0
   -2.0502    2.9581   -3.1240 C   0  0  0  0  0  0  0  0  0  0  0  0
   -1.9816    3.1246   -4.1953 H   0  0  0  0  0  0  0  0  0  0  0  0
   -3.2087    3.0474   -2.3742 N   0  0  0  0  0  0  0  0  0  0  0  0
   -4.1239    3.3070   -2.7391 H   0  0  0  0  0  0  0  0  0  0  0  0
   -2.8915    2.7855   -1.0574 C   0  0  0  0  0  0  0  0  0  0  0  0
   -3.5476    2.7990   -0.1921 H   0  0  0  0  0  0  0  0  0  0  0  0
    0.8143    0.5718    1.2576 C   0  0  0  0  0  0  0  0  0  0  0  0
    1.9223    0.1764    0.9167 O   0  0  0  0  0  0  0  0  0  0  0  0
    0.6557    1.1018    2.5276 N   0  0  0  0  0  0  0  0  0  0  0  0
   -0.3022    1.2691    2.8166 H   0  0  0  0  0  0  0  0  0  0  0  0
    1.6701    0.9560    3.5637 C   0  0  0  0  0  0  0  0  0  0  0  0
    2.6087    1.4257    3.2509 H   0  0  0  0  0  0  0  0  0  0  0  0
    1.3371    1.4365    4.4883 H   0  0  0  0  0  0  0  0  0  0  0  0
    1.8567   -0.1035    3.7691 H   0  0  0  0  0  0  0  0  0  0  0  0
  1  2  1  0  0  0  0
  2  3  1  0  0  0  0
  2  4  1  0  0  0  0
  2  5  1  0  0  0  0
  5  6  2  0  0  0  0
  5  7  1  0  0  0  0
  7  8  1  0  0  0  0
  7  9  1  0  0  0  0
  9 10  1  0  0  0  0
  9 11  1  0  0  0  0
  9 22  1  0  0  0  0
 11 12  1  0  0  0  0
 11 13  1  0  0  0  0
 11 14  1  0  0  0  0
 14 15  1  0  0  0  0
 14 20  2  0  0  0  0
 15 16  2  0  0  0  0
 16 17  1  0  0  0  0
 16 18  1  0  0  0  0
 18 19  1  0  0  0  0
 18 20  1  0  0  0  0
 20 21  1  0  0  0  0
 22 23  2  0  0  0  0
 22 24  1  0  0  0  0
 24 25  1  0  0  0  0
 24 26  1  0  0  0  0
 26 27  1  0  0  0  0
 26 28  1  0  0  0  0
 26 29  1  0  0  0  0
M  END
$$$$

  -OEChem-01062216083D

 29 29  0     1  0  0  0  0  0999 V2000
   -2.8044   -3.1236    1.0953 H   0  0  0  0  0  0  0  0  0  0  0  0
   -2.8866   -2.1410    0.6215 C   0  0  0  0  0  0  0  0  0  0  0  0
   -3.7454   -1.6163    1.0466 H   0  0  0  0  0  0  0  0  0  0  0  0
   -3.0465   -2.2822   -0.4502 H   0  0  0  0  0  0  0  0  0  0  0  0
   -1.6193   -1.3400    0.8570 C   0  0  0  0  0  0  0  0  0  0  0  0
   -0.7512   -1.8054    1.5711 O   0  0  0  0  0  0  0  0  0  0  0  0
   -1.5113   -0.0806    0.2965 N   0  0  0  0  0  0  0  0  0  0  0  0
   -2.2640    0.1590   -0.3421 H   0  0  0  0  0  0  0  0  0  0  0  0
   -0.2864    0.7413    0.1703 C   0  0  1  0  0  0  0  0  0  0  0  0
    0.1849    0.4935   -0.7878 H   0  0  0  0  0  0  0  0  0  0  0  0
   -0.7074    2.2205    0.1447 C   0  0  0  0  0  0  0  0  0  0  0  0
   -1.2643    2.4650    1.0539 H   0  0  0  0  0  0  0  0  0  0  0  0
    0.1830    2.8574    0.1175 H   0  0  0  0  0  0  0  0  0  0  0  0
   -1.5417    2.5262   -1.0638 C   0  0  0  0  0  0  0  0  0  0  0  0
   -1.0349    2.6513   -2.3482 N   0  0  0  0  0  0  0  0  0  0  0  0
   -2.0436    2.9727   -3.1216 C   0  0  0  0  0  0  0  0  0  0  0  0
   -1.9750    3.1478   -4.1915 H   0  0  0  0  0  0  0  0  0  0  0  0
   -3.2017    3.0576   -2.3710 N   0  0  0  0  0  0  0  0  0  0  0  0
   -4.1163    3.3219   -2.7337 H   0  0  0  0  0  0  0  0  0  0  0  0
   -2.8845    2.7853   -1.0563 C   0  0  0  0  0  0  0  0  0  0  0  0
   -3.5399    2.7950   -0.1904 H   0  0  0  0  0  0  0  0  0  0  0  0
    0.8141    0.5681    1.2470 C   0  0  0  0  0  0  0  0  0  0  0  0
    1.9817    0.4450    0.8979 O   0  0  0  0  0  0  0  0  0  0  0  0
    0.5323    0.8201    2.5790 N   0  0  0  0  0  0  0  0  0  0  0  0
   -0.4418    0.6971    2.8367 H   0  0  0  0  0  0  0  0  0  0  0  0
    1.5351    0.6575    3.6238 C   0  0  0  0  0  0  0  0  0  0  0  0
    2.3918    1.3143    3.4408 H   0  0  0  0  0  0  0  0  0  0  0  0
    1.1094    0.9131    4.5985 H   0  0  0  0  0  0  0  0  0  0  0  0
    1.8860   -0.3794    3.6574 H   0  0  0  0  0  0  0  0  0  0  0  0
  1  2  1  0  0  0  0
  2  3  1  0  0  0  0
  2  4  1  0  0  0  0
  2  5  1  0  0  0  0
  5  6  2  0  0  0  0
  5  7  1  0  0  0  0
  7  8  1  0  0  0  0
  7  9  1  0  0  0  0
  9 10  1  0  0  0  0
  9 11  1  0  0  0  0
  9 22  1  0  0  0  0
 11 12  1  0  0  0  0
 11 13  1  0  0  0  0
 11 14  1  0  0  0  0
 14 15  1  0  0  0  0
 14 20  2  0  0  0  0
 15 16  2  0  0  0  0
 16 17  1  0  0  0  0
 16 18  1  0  0  0  0
 18 19  1  0  0  0  0
 18 20  1  0  0  0  0
 20 21  1  0  0  0  0
 22 23  2  0  0  0  0
 22 24  1  0  0  0  0
 24 25  1  0  0  0  0
 24 26  1  0  0  0  0
 26 27  1  0  0  0  0
 26 28  1  0  0  0  0
 26 29  1  0  0  0  0
M  END
$$$$

  -OEChem-01062216083D

 29 29  0     1  0  0  0  0  0999 V2000
   -2.8895   -3.1185    1.0567 H   0  0  0  0  0  0  0  0  0  0  0  0
   -2.9483   -2.1293    0.5934 C   0  0  0  0  0  0  0  0  0  0  0  0
   -3.7883   -1.5851    1.0313 H   0  0  0  0  0  0  0  0  0  0  0  0
   -3.1218   -2.2553   -0.4782 H   0  0  0  0  0  0  0  0  0  0  0  0
   -1.6572   -1.3661    0.8244 C   0  0  0  0  0  0  0  0  0  0  0  0
   -0.7916   -1.8649    1.5188 O   0  0  0  0  0  0  0  0  0  0  0  0
   -1.5184   -0.1062    0.2735 N   0  0  0  0  0  0  0  0  0  0  0  0
   -2.2751    0.1656   -0.3474 H   0  0  0  0  0  0  0  0  0  0  0  0
   -0.2869    0.7111    0.1664 C   0  0  1  0  0  0  0  0  0  0  0  0
    0.1907    0.4704   -0.7903 H   0  0  0  0  0  0  0  0  0  0  0  0
   -0.7093    2.1899    0.1547 C   0  0  0  0  0  0  0  0  0  0  0  0
   -1.2698    2.4220    1.0649 H   0  0  0  0  0  0  0  0  0  0  0  0
    0.1800    2.8288    0.1401 H   0  0  0  0  0  0  0  0  0  0  0  0
   -1.5349    2.5105   -1.0559 C   0  0  0  0  0  0  0  0  0  0  0  0
   -1.0220    2.6525   -2.3363 N   0  0  0  0  0  0  0  0  0  0  0  0
   -2.0265    2.9866   -3.1097 C   0  0  0  0  0  0  0  0  0  0  0  0
   -1.9523    3.1777   -4.1767 H   0  0  0  0  0  0  0  0  0  0  0  0
   -3.1885    3.0619   -2.3639 N   0  0  0  0  0  0  0  0  0  0  0  0
   -4.1003    3.3356   -2.7267 H   0  0  0  0  0  0  0  0  0  0  0  0
   -2.8776    2.7712   -1.0517 C   0  0  0  0  0  0  0  0  0  0  0  0
   -3.5365    2.7719   -0.1883 H   0  0  0  0  0  0  0  0  0  0  0  0
    0.8145    0.5496    1.2455 C   0  0  0  0  0  0  0  0  0  0  0  0
    1.9851    0.7214    0.9278 O   0  0  0  0  0  0  0  0  0  0  0  0
    0.4856    0.5004    2.5890 N   0  0  0  0  0  0  0  0  0  0  0  0
   -0.4178    0.0696    2.7694 H   0  0  0  0  0  0  0  0  0  0  0  0
    1.5021    0.3743    3.6257 C   0  0  0  0  0  0  0  0  0  0  0  0
    2.1934    1.2228    3.5919 H   0  0  0  0  0  0  0  0  0  0  0  0
    1.0322    0.3539    4.6135 H   0  0  0  0  0  0  0  0  0  0  0  0
    2.0722   -0.5510    3.4918 H   0  0  0  0  0  0  0  0  0  0  0  0
  1  2  1  0  0  0  0
  2  3  1  0  0  0  0
  2  4  1  0  0  0  0
  2  5  1  0  0  0  0
  5  6  2  0  0  0  0
  5  7  1  0  0  0  0
  7  8  1  0  0  0  0
  7  9  1  0  0  0  0
  9 10  1  0  0  0  0
  9 11  1  0  0  0  0
  9 22  1  0  0  0  0
 11 12  1  0  0  0  0
 11 13  1  0  0  0  0
 11 14  1  0  0  0  0
 14 15  1  0  0  0  0
 14 20  2  0  0  0  0
 15 16  2  0  0  0  0
 16 17  1  0  0  0  0
 16 18  1  0  0  0  0
 18 19  1  0  0  0  0
 18 20  1  0  0  0  0
 20 21  1  0  0  0  0
 22 23  2  0  0  0  0
 22 24  1  0  0  0  0
 24 25  1  0  0  0  0
 24 26  1  0  0  0  0
 26 27  1  0  0  0  0
 26 28  1  0  0  0  0
 26 29  1  0  0  0  0
M  END
$$$$

  -OEChem-01062216083D

 29 29  0     1  0  0  0  0  0999 V2000
   -2.9898   -3.0975    0.9965 H   0  0  0  0  0  0  0  0  0  0  0  0
   -3.0239   -2.0904    0.5706 C   0  0  0  0  0  0  0  0  0  0  0  0
   -3.8188   -1.5268    1.0647 H   0  0  0  0  0  0  0  0  0  0  0  0
   -3.2499   -2.1690   -0.4956 H   0  0  0  0  0  0  0  0  0  0  0  0
   -1.6910   -1.3928    0.7691 C   0  0  0  0  0  0  0  0  0  0  0  0
   -0.8164   -1.9592    1.3973 O   0  0  0  0  0  0  0  0  0  0  0  0
   -1.5180   -0.1263    0.2449 N   0  0  0  0  0  0  0  0  0  0  0  0
   -2.2890    0.1963   -0.3324 H   0  0  0  0  0  0  0  0  0  0  0  0
   -0.2844    0.6945    0.1699 C   0  0  1  0  0  0  0  0  0  0  0  0
    0.2041    0.4717   -0.7853 H   0  0  0  0  0  0  0  0  0  0  0  0
   -0.7289    2.1686    0.1732 C   0  0  0  0  0  0  0  0  0  0  0  0
   -1.3061    2.3780    1.0787 H   0  0  0  0  0  0  0  0  0  0  0  0
    0.1483    2.8242    0.1805 H   0  0  0  0  0  0  0  0  0  0  0  0
   -1.5393    2.4961   -1.0458 C   0  0  0  0  0  0  0  0  0  0  0  0
   -1.0059    2.6648   -2.3143 N   0  0  0  0  0  0  0  0  0  0  0  0
   -2.0014    2.9943   -3.1007 C   0  0  0  0  0  0  0  0  0  0  0  0
   -1.9106    3.2015   -4.1633 H   0  0  0  0  0  0  0  0  0  0  0  0
   -3.1776    3.0408   -2.3749 N   0  0  0  0  0  0  0  0  0  0  0  0
   -4.0867    3.3057   -2.7503 H   0  0  0  0  0  0  0  0  0  0  0  0
   -2.8858    2.7368   -1.0612 C   0  0  0  0  0  0  0  0  0  0  0  0
   -3.5596    2.7165   -0.2096 H   0  0  0  0  0  0  0  0  0  0  0  0
    0.8205    0.5454    1.2518 C   0  0  0  0  0  0  0  0  0  0  0  0
    1.9451    0.9627    1.0021 O   0  0  0  0  0  0  0  0  0  0  0  0
    0.5260    0.1844    2.5541 N   0  0  0  0  0  0  0  0  0  0  0  0
   -0.2696   -0.4498    2.6217 H   0  0  0  0  0  0  0  0  0  0  0  0
    1.5579    0.0610    3.5761 C   0  0  0  0  0  0  0  0  0  0  0  0
    2.0808    1.0135    3.7118 H   0  0  0  0  0  0  0  0  0  0  0  0
    1.1078   -0.2224    4.5321 H   0  0  0  0  0  0  0  0  0  0  0  0
    2.2870   -0.7057    3.2936 H   0  0  0  0  0  0  0  0  0  0  0  0
  1  2  1  0  0  0  0
  2  3  1  0  0  0  0
  2  4  1  0  0  0  0
  2  5  1  0  0  0  0
  5  6  2  0  0  0  0
  5  7  1  0  0  0  0
  7  8  1  0  0  0  0
  7  9  1  0  0  0  0
  9 10  1  0  0  0  0
  9 11  1  0  0  0  0
  9 22  1  0  0  0  0
 11 12  1  0  0  0  0
 11 13  1  0  0  0  0
 11 14  1  0  0  0  0
 14 15  1  0  0  0  0
 14 20  2  0  0  0  0
 15 16  2  0  0  0  0
 16 17  1  0  0  0  0
 16 18  1  0  0  0  0
 18 19  1  0  0  0  0
 18 20  1  0  0  0  0
 20 21  1  0  0  0  0
 22 23  2  0  0  0  0
 22 24  1  0  0  0  0
 24 25  1  0  0  0  0
 24 26  1  0  0  0  0
 26 27  1  0  0  0  0
 26 28  1  0  0  0  0
 26 29  1  0  0  0  0
M  END
$$$$

  -OEChem-01062216083D

 29 29  0     1  0  0  0  0  0999 V2000
   -3.0732   -3.0780    0.9355 H   0  0  0  0  0  0  0  0  0  0  0  0
   -3.0869   -2.0497    0.5622 C   0  0  0  0  0  0  0  0  0  0  0  0
   -3.8244   -1.4789    1.1316 H   0  0  0  0  0  0  0  0  0  0  0  0
   -3.3787   -2.0639   -0.4908 H   0  0  0  0  0  0  0  0  0  0  0  0
   -1.7147   -1.4195    0.7119 C   0  0  0  0  0  0  0  0  0  0  0  0
   -0.8252   -2.0659    1.2331 O   0  0  0  0  0  0  0  0  0  0  0  0
   -1.5143   -0.1443    0.2194 N   0  0  0  0  0  0  0  0  0  0  0  0
   -2.3064    0.2337   -0.2915 H   0  0  0  0  0  0  0  0  0  0  0  0
   -0.2831    0.6848    0.1793 C   0  0  1  0  0  0  0  0  0  0  0  0
    0.2198    0.4783   -0.7721 H   0  0  0  0  0  0  0  0  0  0  0  0
   -0.7566    2.1524    0.1876 C   0  0  0  0  0  0  0  0  0  0  0  0
   -1.3537    2.3419    1.0842 H   0  0  0  0  0  0  0  0  0  0  0  0
    0.1051    2.8272    0.2169 H   0  0  0  0  0  0  0  0  0  0  0  0
   -1.5478    2.4815   -1.0441 C   0  0  0  0  0  0  0  0  0  0  0  0
   -0.9942    2.6763   -2.3002 N   0  0  0  0  0  0  0  0  0  0  0  0
   -1.9798    3.0043   -3.0998 C   0  0  0  0  0  0  0  0  0  0  0  0
   -1.8731    3.2298   -4.1572 H   0  0  0  0  0  0  0  0  0  0  0  0
   -3.1692    3.0244   -2.3950 N   0  0  0  0  0  0  0  0  0  0  0  0
   -4.0749    3.2839   -2.7825 H   0  0  0  0  0  0  0  0  0  0  0  0
   -2.8969    2.7050   -1.0808 C   0  0  0  0  0  0  0  0  0  0  0  0
   -3.5859    2.6663   -0.2421 H   0  0  0  0  0  0  0  0  0  0  0  0
    0.8225    0.5445    1.2682 C   0  0  0  0  0  0  0  0  0  0  0  0
    1.8739    1.1549    1.1130 O   0  0  0  0  0  0  0  0  0  0  0  0
    0.6279   -0.1030    2.4743 N   0  0  0  0  0  0  0  0  0  0  0  0
   -0.0868   -0.8313    2.4398 H   0  0  0  0  0  0  0  0  0  0  0  0
    1.6877   -0.2553    3.4636 C   0  0  0  0  0  0  0  0  0  0  0  0
    2.0678    0.7236    3.7744 H   0  0  0  0  0  0  0  0  0  0  0  0
    1.3036   -0.7709    4.3488 H   0  0  0  0  0  0  0  0  0  0  0  0
    2.5154   -0.8412    3.0505 H   0  0  0  0  0  0  0  0  0  0  0  0
  1  2  1  0  0  0  0
  2  3  1  0  0  0  0
  2  4  1  0  0  0  0
  2  5  1  0  0  0  0
  5  6  2  0  0  0  0
  5  7  1  0  0  0  0
  7  8  1  0  0  0  0
  7  9  1  0  0  0  0
  9 10  1  0  0  0  0
  9 11  1  0  0  0  0
  9 22  1  0  0  0  0
 11 12  1  0  0  0  0
 11 13  1  0  0  0  0
 11 14  1  0  0  0  0
 14 15  1  0  0  0  0
 14 20  2  0  0  0  0
 15 16  2  0  0  0  0
 16 17  1  0  0  0  0
 16 18  1  0  0  0  0
 18 19  1  0  0  0  0
 18 20  1  0  0  0  0
 20 21  1  0  0  0  0
 22 23  2  0  0  0  0
 22 24  1  0  0  0  0
 24 25  1  0  0  0  0
 24 26  1  0  0  0  0
 26 27  1  0  0  0  0
 26 28  1  0  0  0  0
 26 29  1  0  0  0  0
M  END
$$$$

  -OEChem-01062216083D

 29 29  0     1  0  0  0  0  0999 V2000
   -3.1401   -3.0328    0.9575 H   0  0  0  0  0  0  0  0  0  0  0  0
   -3.1290   -2.0037    0.5867 C   0  0  0  0  0  0  0  0  0  0  0  0
   -3.7993   -1.4011    1.2044 H   0  0  0  0  0  0  0  0  0  0  0  0
   -3.4905   -1.9991   -0.4445 H   0  0  0  0  0  0  0  0  0  0  0  0
   -1.7212   -1.4403    0.6468 C   0  0  0  0  0  0  0  0  0  0  0  0
   -0.8173   -2.1590    1.0313 O   0  0  0  0  0  0  0  0  0  0  0  0
   -1.5056   -0.1535    0.1930 N   0  0  0  0  0  0  0  0  0  0  0  0
   -2.3233    0.2785   -0.2257 H   0  0  0  0  0  0  0  0  0  0  0  0
   -0.2785    0.6844    0.1839 C   0  0  1  0  0  0  0  0  0  0  0  0
    0.2354    0.4978   -0.7655 H   0  0  0  0  0  0  0  0  0  0  0  0
   -0.7803    2.1455    0.1999 C   0  0  0  0  0  0  0  0  0  0  0  0
   -1.3953    2.3150    1.0885 H   0  0  0  0  0  0  0  0  0  0  0  0
    0.0640    2.8405    0.2473 H   0  0  0  0  0  0  0  0  0  0  0  0
   -1.5558    2.4728   -1.0425 C   0  0  0  0  0  0  0  0  0  0  0  0
   -0.9825    2.6910   -2.2859 N   0  0  0  0  0  0  0  0  0  0  0  0
   -1.9589    3.0097   -3.1001 C   0  0  0  0  0  0  0  0  0  0  0  0
   -1.8365    3.2462   -4.1533 H   0  0  0  0  0  0  0  0  0  0  0  0
   -3.1610    3.0039   -2.4168 N   0  0  0  0  0  0  0  0  0  0  0  0
   -4.0633    3.2540   -2.8182 H   0  0  0  0  0  0  0  0  0  0  0  0
   -2.9075    2.6755   -1.1012 C   0  0  0  0  0  0  0  0  0  0  0  0
   -3.6112    2.6185   -0.2759 H   0  0  0  0  0  0  0  0  0  0  0  0
    0.8278    0.5338    1.2768 C   0  0  0  0  0  0  0  0  0  0  0  0
    1.7795    1.3064    1.2574 O   0  0  0  0  0  0  0  0  0  0  0  0
    0.7747   -0.3639    2.3265 N   0  0  0  0  0  0  0  0  0  0  0  0
    0.1350   -1.1475    2.1881 H   0  0  0  0  0  0  0  0  0  0  0  0
    1.8587   -0.5382    3.2853 C   0  0  0  0  0  0  0  0  0  0  0  0
    2.0742    0.4049    3.7984 H   0  0  0  0  0  0  0  0  0  0  0  0
    1.5787   -1.2820    4.0373 H   0  0  0  0  0  0  0  0  0  0  0  0
    2.7666   -0.8809    2.7782 H   0  0  0  0  0  0  0  0  0  0  0  0
  1  2  1  0  0  0  0
  2  3  1  0  0  0  0
  2  4  1  0  0  0  0
  2  5  1  0  0  0  0
  5  6  2  0  0  0  0
  5  7  1  0  0  0  0
  7  8  1  0  0  0  0
  7  9  1  0  0  0  0
  9 10  1  0  0  0  0
  9 11  1  0  0  0  0
  9 22  1  0  0  0  0
 11 12  1  0  0  0  0
 11 13  1  0  0  0  0
 11 14  1  0  0  0  0
 14 15  1  0  0  0  0
 14 20  2  0  0  0  0
 15 16  2  0  0  0  0
 16 17  1  0  0  0  0
 16 18  1  0  0  0  0
 18 19  1  0  0  0  0
 18 20  1  0  0  0  0
 20 21  1  0  0  0  0
 22 23  2  0  0  0  0
 22 24  1  0  0  0  0
 24 25  1  0  0  0  0
 24 26  1  0  0  0  0
 26 27  1  0  0  0  0
 26 28  1  0  0  0  0
 26 29  1  0  0  0  0
M  END
$$$$

  -OEChem-01062216083D

 29 29  0     1  0  0  0  0  0999 V2000
   -2.7808   -3.0316    1.3540 H   0  0  0  0  0  0  0  0  0  0  0  0
   -2.8890   -2.0084    0.9829 C   0  0  0  0  0  0  0  0  0  0  0  0
   -3.4361   -1.4231    1.7257 H   0  0  0  0  0  0  0  0  0  0  0  0
   -3.4590   -2.0303    0.0510 H   0  0  0  0  0  0  0  0  0  0  0  0
   -1.5227   -1.3942    0.7408 C   0  0  0  0  0  0  0  0  0  0  0  0
   -0.5455   -2.1166    0.7471 O   0  0  0  0  0  0  0  0  0  0  0  0
   -1.4468   -0.0935    0.2894 N   0  0  0  0  0  0  0  0  0  0  0  0
   -2.3569    0.3247    0.1348 H   0  0  0  0  0  0  0  0  0  0  0  0
   -0.3422    0.8874    0.4254 C   0  0  1  0  0  0  0  0  0  0  0  0
    0.3206    0.7306   -0.4324 H   0  0  0  0  0  0  0  0  0  0  0  0
   -0.9952    2.2821    0.2719 C   0  0  0  0  0  0  0  0  0  0  0  0
   -1.7597    2.4201    1.0415 H   0  0  0  0  0  0  0  0  0  0  0  0
   -0.2493    3.0720    0.4023 H   0  0  0  0  0  0  0  0  0  0  0  0
   -1.5838    2.4672   -1.0963 C   0  0  0  0  0  0  0  0  0  0  0  0
   -0.8298    2.7000   -2.2372 N   0  0  0  0  0  0  0  0  0  0  0  0
   -1.6804    2.8637   -3.2210 C   0  0  0  0  0  0  0  0  0  0  0  0
   -1.4052    3.0635   -4.2528 H   0  0  0  0  0  0  0  0  0  0  0  0
   -2.9749    2.7515   -2.7481 N   0  0  0  0  0  0  0  0  0  0  0  0
   -3.8158    2.8624   -3.3122 H   0  0  0  0  0  0  0  0  0  0  0  0
   -2.9192    2.5135   -1.3905 C   0  0  0  0  0  0  0  0  0  0  0  0
   -3.7454    2.4084   -0.6941 H   0  0  0  0  0  0  0  0  0  0  0  0
    0.6195    0.8539    1.6654 C   0  0  0  0  0  0  0  0  0  0  0  0
    1.0067    1.9005    2.1662 O   0  0  0  0  0  0  0  0  0  0  0  0
    0.7906   -0.1564    2.5802 N   0  0  0  0  0  0  0  0  0  0  0  0
    0.9859    0.2571    3.4877 H   0  0  0  0  0  0  0  0  0  0  0  0
    1.7377   -1.2129    2.2402 C   0  0  0  0  0  0  0  0  0  0  0  0
    2.7184   -0.9898    2.6721 H   0  0  0  0  0  0  0  0  0  0  0  0
    1.3915   -2.1720    2.6378 H   0  0  0  0  0  0  0  0  0  0  0  0
    1.8602   -1.3114    1.1560 H   0  0  0  0  0  0  0  0  0  0  0  0
  1  2  1  0  0  0  0
  2  3  1  0  0  0  0
  2  4  1  0  0  0  0
  2  5  1  0  0  0  0
  5  6  2  0  0  0  0
  5  7  1  0  0  0  0
  7  8  1  0  0  0  0
  7  9  1  0  0  0  0
  9 10  1  0  0  0  0
  9 11  1  0  0  0  0
  9 22  1  0  0  0  0
 11 12  1  0  0  0  0
 11 13  1  0  0  0  0
 11 14  1  0  0  0  0
 14 15  1  0  0  0  0
 14 20  2  0  0  0  0
 15 16  2  0  0  0  0
 16 17  1  0  0  0  0
 16 18  1  0  0  0  0
 18 19  1  0  0  0  0
 18 20  1  0  0  0  0
 20 21  1  0  0  0  0
 22 23  2  0  0  0  0
 22 24  1  0  0  0  0
 24 25  1  0  0  0  0
 24 26  1  0  0  0  0
 26 27  1  0  0  0  0
 26 28  1  0  0  0  0
 26 29  1  0  0  0  0
M  END
$$$$

  -OEChem-01062216083D

 29 29  0     1  0  0  0  0  0999 V2000
   -2.5238   -3.0666    1.3957 H   0  0  0  0  0  0  0  0  0  0  0  0
   -2.6456   -2.0362    1.0491 C   0  0  0  0  0  0  0  0  0  0  0  0
   -3.0563   -1.4381    1.8660 H   0  0  0  0  0  0  0  0  0  0  0  0
   -3.3458   -2.0278    0.2101 H   0  0  0  0  0  0  0  0  0  0  0  0
   -1.3067   -1.4710    0.6127 C   0  0  0  0  0  0  0  0  0  0  0  0
   -0.3533   -2.2200    0.5254 O   0  0  0  0  0  0  0  0  0  0  0  0
   -1.2508   -0.1714    0.1537 N   0  0  0  0  0  0  0  0  0  0  0  0
   -2.1554    0.2816    0.0845 H   0  0  0  0  0  0  0  0  0  0  0  0
   -0.0814    0.7212   -0.0368 C   0  0  1  0  0  0  0  0  0  0  0  0
    0.2790    0.5489   -1.0569 H   0  0  0  0  0  0  0  0  0  0  0  0
   -0.6533    2.1565    0.0459 C   0  0  0  0  0  0  0  0  0  0  0  0
   -1.1397    2.3054    1.0140 H   0  0  0  0  0  0  0  0  0  0  0  0
    0.1477    2.8974   -0.0359 H   0  0  0  0  0  0  0  0  0  0  0  0
   -1.6166    2.4311   -1.0722 C   0  0  0  0  0  0  0  0  0  0  0  0
   -1.2366    2.6657   -2.3848 N   0  0  0  0  0  0  0  0  0  0  0  0
   -2.3347    2.9144   -3.0555 C   0  0  0  0  0  0  0  0  0  0  0  0
   -2.3757    3.1394   -4.1176 H   0  0  0  0  0  0  0  0  0  0  0  0
   -3.4264    2.8526   -2.2090 N   0  0  0  0  0  0  0  0  0  0  0  0
   -4.3904    3.0337   -2.4838 H   0  0  0  0  0  0  0  0  0  0  0  0
   -2.9725    2.5589   -0.9397 C   0  0  0  0  0  0  0  0  0  0  0  0
   -3.5506    2.4718   -0.0247 H   0  0  0  0  0  0  0  0  0  0  0  0
    1.2099    0.6351    0.8495 C   0  0  0  0  0  0  0  0  0  0  0  0
    2.0420    1.5278    0.7742 O   0  0  0  0  0  0  0  0  0  0  0  0
    1.7701   -0.4461    1.4860 N   0  0  0  0  0  0  0  0  0  0  0  0
    2.7748   -0.3119    1.5591 H   0  0  0  0  0  0  0  0  0  0  0  0
    1.1617   -0.9579    2.7076 C   0  0  0  0  0  0  0  0  0  0  0  0
    1.7239   -0.6074    3.5784 H   0  0  0  0  0  0  0  0  0  0  0  0
    0.1268   -0.6194    2.8156 H   0  0  0  0  0  0  0  0  0  0  0  0
    1.1735   -2.0524    2.7046 H   0  0  0  0  0  0  0  0  0  0  0  0
  1  2  1  0  0  0  0
  2  3  1  0  0  0  0
  2  4  1  0  0  0  0
  2  5  1  0  0  0  0
  5  6  2  0  0  0  0
  5  7  1  0  0  0  0
  7  8  1  0  0  0  0
  7  9  1  0  0  0  0
  9 10  1  0  0  0  0
  9 11  1  0  0  0  0
  9 22  1  0  0  0  0
 11 12  1  0  0  0  0
 11 13  1  0  0  0  0
 11 14  1  0  0  0  0
 14 15  1  0  0  0  0
 14 20  2  0  0  0  0
 15 16  2  0  0  0  0
 16 17  1  0  0  0  0
 16 18  1  0  0  0  0
 18 19  1  0  0  0  0
 18 20  1  0  0  0  0
 20 21  1  0  0  0  0
 22 23  2  0  0  0  0
 22 24  1  0  0  0  0
 24 25  1  0  0  0  0
 24 26  1  0  0  0  0
 26 27  1  0  0  0  0
 26 28  1  0  0  0  0
 26 29  1  0  0  0  0
M  END
$$$$

  -OEChem-01062216083D

 29 29  0     1  0  0  0  0  0999 V2000
   -3.0522   -3.0003    1.1001 H   0  0  0  0  0  0  0  0  0  0  0  0
   -3.0648   -1.9622    0.7561 C   0  0  0  0  0  0  0  0  0  0  0  0
   -3.6021   -1.3570    1.4903 H   0  0  0  0  0  0  0  0  0  0  0  0
   -3.5898   -1.9157   -0.2012 H   0  0  0  0  0  0  0  0  0  0  0  0
   -1.6469   -1.4461    0.5958 C   0  0  0  0  0  0  0  0  0  0  0  0
   -0.7224   -2.2272    0.7244 O   0  0  0  0  0  0  0  0  0  0  0  0
   -1.4639   -0.1402    0.1837 N   0  0  0  0  0  0  0  0  0  0  0  0
   -2.3297    0.3491   -0.0177 H   0  0  0  0  0  0  0  0  0  0  0  0
   -0.2442    0.7066    0.1369 C   0  0  1  0  0  0  0  0  0  0  0  0
    0.2290    0.5277   -0.8345 H   0  0  0  0  0  0  0  0  0  0  0  0
   -0.7414    2.1711    0.1572 C   0  0  0  0  0  0  0  0  0  0  0  0
   -1.3272    2.3522    1.0631 H   0  0  0  0  0  0  0  0  0  0  0  0
    0.1074    2.8622    0.1695 H   0  0  0  0  0  0  0  0  0  0  0  0
   -1.5482    2.4913   -1.0665 C   0  0  0  0  0  0  0  0  0  0  0  0
   -1.0017    2.6981   -2.3245 N   0  0  0  0  0  0  0  0  0  0  0  0
   -1.9970    3.0085   -3.1191 C   0  0  0  0  0  0  0  0  0  0  0  0
   -1.8990    3.2344   -4.1772 H   0  0  0  0  0  0  0  0  0  0  0  0
   -3.1835    3.0102   -2.4087 N   0  0  0  0  0  0  0  0  0  0  0  0
   -4.0957    3.2499   -2.7936 H   0  0  0  0  0  0  0  0  0  0  0  0
   -2.9006    2.6951   -1.0958 C   0  0  0  0  0  0  0  0  0  0  0  0
   -3.5856    2.6453   -0.2547 H   0  0  0  0  0  0  0  0  0  0  0  0
    0.9091    0.4920    1.1741 C   0  0  0  0  0  0  0  0  0  0  0  0
    1.4119    1.4553    1.7434 O   0  0  0  0  0  0  0  0  0  0  0  0
    1.4034   -0.7492    1.5229 N   0  0  0  0  0  0  0  0  0  0  0  0
    0.8975   -1.5564    1.1511 H   0  0  0  0  0  0  0  0  0  0  0  0
    2.4219   -0.9733    2.5409 C   0  0  0  0  0  0  0  0  0  0  0  0
    2.0767   -0.6122    3.5151 H   0  0  0  0  0  0  0  0  0  0  0  0
    2.6401   -2.0421    2.6246 H   0  0  0  0  0  0  0  0  0  0  0  0
    3.3480   -0.4519    2.2777 H   0  0  0  0  0  0  0  0  0  0  0  0
  1  2  1  0  0  0  0
  2  3  1  0  0  0  0
  2  4  1  0  0  0  0
  2  5  1  0  0  0  0
  5  6  2  0  0  0  0
  5  7  1  0  0  0  0
  7  8  1  0  0  0  0
  7  9  1  0  0  0  0
  9 10  1  0  0  0  0
  9 11  1  0  0  0  0
  9 22  1  0  0  0  0
 11 12  1  0  0  0  0
 11 13  1  0  0  0  0
 11 14  1  0  0  0  0
 14 15  1  0  0  0  0
 14 20  2  0  0  0  0
 15 16  2  0  0  0  0
 16 17  1  0  0  0  0
 16 18  1  0  0  0  0
 18 19  1  0  0  0  0
 18 20  1  0  0  0  0
 20 21  1  0  0  0  0
 22 23  2  0  0  0  0
 22 24  1  0  0  0  0
 24 25  1  0  0  0  0
 24 26  1  0  0  0  0
 26 27  1  0  0  0  0
 26 28  1  0  0  0  0
 26 29  1  0  0  0  0
M  END
$$$$

  -OEChem-01062216083D

 29 29  0     1  0  0  0  0  0999 V2000
   -2.9202   -3.0245    1.1816 H   0  0  0  0  0  0  0  0  0  0  0  0
   -2.9744   -1.9960    0.8130 C   0  0  0  0  0  0  0  0  0  0  0  0
   -3.5200   -1.3916    1.5416 H   0  0  0  0  0  0  0  0  0  0  0  0
   -3.5164   -1.9908   -0.1358 H   0  0  0  0  0  0  0  0  0  0  0  0
   -1.5778   -1.4363    0.6159 C   0  0  0  0  0  0  0  0  0  0  0  0
   -0.6225   -2.1810    0.7412 O   0  0  0  0  0  0  0  0  0  0  0  0
   -1.4405   -0.1327    0.1795 N   0  0  0  0  0  0  0  0  0  0  0  0
   -2.3198    0.3418    0.0026 H   0  0  0  0  0  0  0  0  0  0  0  0
   -0.2317    0.7244    0.1086 C   0  0  1  0  0  0  0  0  0  0  0  0
    0.2359    0.5420   -0.8649 H   0  0  0  0  0  0  0  0  0  0  0  0
   -0.7211    2.1890    0.1278 C   0  0  0  0  0  0  0  0  0  0  0  0
   -1.2947    2.3763    1.0404 H   0  0  0  0  0  0  0  0  0  0  0  0
    0.1353    2.8710    0.1293 H   0  0  0  0  0  0  0  0  0  0  0  0
   -1.5454    2.5072   -1.0841 C   0  0  0  0  0  0  0  0  0  0  0  0
   -1.0157    2.7046   -2.3508 N   0  0  0  0  0  0  0  0  0  0  0  0
   -2.0204    3.0216   -3.1313 C   0  0  0  0  0  0  0  0  0  0  0  0
   -1.9371    3.2425   -4.1918 H   0  0  0  0  0  0  0  0  0  0  0  0
   -3.1958    3.0378   -2.4031 N   0  0  0  0  0  0  0  0  0  0  0  0
   -4.1112    3.2863   -2.7747 H   0  0  0  0  0  0  0  0  0  0  0  0
   -2.8961    2.7242   -1.0936 C   0  0  0  0  0  0  0  0  0  0  0  0
   -3.5691    2.6850   -0.2421 H   0  0  0  0  0  0  0  0  0  0  0  0
    0.9150    0.5095    1.1478 C   0  0  0  0  0  0  0  0  0  0  0  0
    1.2581    1.4231    1.8917 O   0  0  0  0  0  0  0  0  0  0  0  0
    1.5902   -0.6896    1.2656 N   0  0  0  0  0  0  0  0  0  0  0  0
    1.1137   -1.4920    0.8463 H   0  0  0  0  0  0  0  0  0  0  0  0
    2.5890   -0.9514    2.2939 C   0  0  0  0  0  0  0  0  0  0  0  0
    2.1462   -0.8589    3.2907 H   0  0  0  0  0  0  0  0  0  0  0  0
    2.9860   -1.9648    2.1818 H   0  0  0  0  0  0  0  0  0  0  0  0
    3.4211   -0.2449    2.2092 H   0  0  0  0  0  0  0  0  0  0  0  0
  1  2  1  0  0  0  0
  2  3  1  0  0  0  0
  2  4  1  0  0  0  0
  2  5  1  0  0  0  0
  5  6  2  0  0  0  0
  5  7  1  0  0  0  0
  7  8  1  0  0  0  0
  7  9  1  0  0  0  0
  9 10  1  0  0  0  0
  9 11  1  0  0  0  0
  9 22  1  0  0  0  0
 11 12  1  0  0  0  0
 11 13  1  0  0  0  0
 11 14  1  0  0  0  0
 14 15  1  0  0  0  0
 14 20  2  0  0  0  0
 15 16  2  0  0  0  0
 16 17  1  0  0  0  0
 16 18  1  0  0  0  0
 18 19  1  0  0  0  0
 18 20  1  0  0  0  0
 20 21  1  0  0  0  0
 22 23  2  0  0  0  0
 22 24  1  0  0  0  0
 24 25  1  0  0  0  0
 24 26  1  0  0  0  0
 26 27  1  0  0  0  0
 26 28  1  0  0  0  0
 26 29  1  0  0  0  0
M  END
$$$$

  -OEChem-01062216083D

 29 29  0     1  0  0  0  0  0999 V2000
   -2.7675   -3.0467    1.2627 H   0  0  0  0  0  0  0  0  0  0  0  0
   -2.8734   -2.0281    0.8786 C   0  0  0  0  0  0  0  0  0  0  0  0
   -3.4154   -1.4306    1.6157 H   0  0  0  0  0  0  0  0  0  0  0  0
   -3.4481   -2.0602   -0.0502 H   0  0  0  0  0  0  0  0  0  0  0  0
   -1.5065   -1.4215    0.6225 C   0  0  0  0  0  0  0  0  0  0  0  0
   -0.5150   -2.1227    0.7253 O   0  0  0  0  0  0  0  0  0  0  0  0
   -1.4251   -0.1224    0.1605 N   0  0  0  0  0  0  0  0  0  0  0  0
   -2.3181    0.3383    0.0213 H   0  0  0  0  0  0  0  0  0  0  0  0
   -0.2281    0.7453    0.0814 C   0  0  1  0  0  0  0  0  0  0  0  0
    0.2482    0.5648   -0.8884 H   0  0  0  0  0  0  0  0  0  0  0  0
   -0.7116    2.2099    0.1039 C   0  0  0  0  0  0  0  0  0  0  0  0
   -1.2827    2.3976    1.0180 H   0  0  0  0  0  0  0  0  0  0  0  0
    0.1497    2.8858    0.1078 H   0  0  0  0  0  0  0  0  0  0  0  0
   -1.5426    2.5304   -1.1021 C   0  0  0  0  0  0  0  0  0  0  0  0
   -1.0202    2.7257   -2.3721 N   0  0  0  0  0  0  0  0  0  0  0  0
   -2.0294    3.0437   -3.1463 C   0  0  0  0  0  0  0  0  0  0  0  0
   -1.9527    3.2632   -4.2075 H   0  0  0  0  0  0  0  0  0  0  0  0
   -3.2000    3.0634   -2.4105 N   0  0  0  0  0  0  0  0  0  0  0  0
   -4.1173    3.3129   -2.7763 H   0  0  0  0  0  0  0  0  0  0  0  0
   -2.8927    2.7499   -1.1029 C   0  0  0  0  0  0  0  0  0  0  0  0
   -3.5597    2.7110   -0.2469 H   0  0  0  0  0  0  0  0  0  0  0  0
    0.8905    0.5238    1.1430 C   0  0  0  0  0  0  0  0  0  0  0  0
    1.0713    1.3434    2.0386 O   0  0  0  0  0  0  0  0  0  0  0  0
    1.7423   -0.5616    1.0641 N   0  0  0  0  0  0  0  0  0  0  0  0
    1.3454   -1.3583    0.5612 H   0  0  0  0  0  0  0  0  0  0  0  0
    2.7477   -0.8461    2.0802 C   0  0  0  0  0  0  0  0  0  0  0  0
    2.2720   -1.0338    3.0484 H   0  0  0  0  0  0  0  0  0  0  0  0
    3.3262   -1.7310    1.7985 H   0  0  0  0  0  0  0  0  0  0  0  0
    3.4386   -0.0029    2.1836 H   0  0  0  0  0  0  0  0  0  0  0  0
  1  2  1  0  0  0  0
  2  3  1  0  0  0  0
  2  4  1  0  0  0  0
  2  5  1  0  0  0  0
  5  6  2  0  0  0  0
  5  7  1  0  0  0  0
  7  8  1  0  0  0  0
  7  9  1  0  0  0  0
  9 10  1  0  0  0  0
  9 11  1  0  0  0  0
  9 22  1  0  0  0  0
 11 12  1  0  0  0  0
 11 13  1  0  0  0  0
 11 14  1  0  0  0  0
 14 15  1  0  0  0  0
 14 20  2  0  0  0  0
 15 16  2  0  0  0  0
 16 17  1  0  0  0  0
 16 18  1  0  0  0  0
 18 19  1  0  0  0  0
 18 20  1  0  0  0  0
 20 21  1  0  0  0  0
 22 23  2  0  0  0  0
 22 24  1  0  0  0  0
 24 25  1  0  0  0  0
 24 26  1  0  0  0  0
 26 27  1  0  0  0  0
 26 28  1  0  0  0  0
 26 29  1  0  0  0  0
M  END
$$$$

  -OEChem-01062216083D

 29 29  0     1  0  0  0  0  0999 V2000
   -2.6140   -3.0664    1.3282 H   0  0  0  0  0  0  0  0  0  0  0  0
   -2.7711   -2.0534    0.9468 C   0  0  0  0  0  0  0  0  0  0  0  0
   -3.2923   -1.4692    1.7090 H   0  0  0  0  0  0  0  0  0  0  0  0
   -3.3913   -2.1072    0.0488 H   0  0  0  0  0  0  0  0  0  0  0  0
   -1.4388   -1.4064    0.6192 C   0  0  0  0  0  0  0  0  0  0  0  0
   -0.4173   -2.0698    0.6828 O   0  0  0  0  0  0  0  0  0  0  0  0
   -1.4153   -0.1123    0.1367 N   0  0  0  0  0  0  0  0  0  0  0  0
   -2.3202    0.3407    0.0666 H   0  0  0  0  0  0  0  0  0  0  0  0
   -0.2305    0.7675    0.0543 C   0  0  1  0  0  0  0  0  0  0  0  0
    0.2538    0.5908   -0.9121 H   0  0  0  0  0  0  0  0  0  0  0  0
   -0.7092    2.2316    0.0825 C   0  0  0  0  0  0  0  0  0  0  0  0
   -1.2806    2.4167    0.9972 H   0  0  0  0  0  0  0  0  0  0  0  0
    0.1550    2.9036    0.0911 H   0  0  0  0  0  0  0  0  0  0  0  0
   -1.5447    2.5547   -1.1197 C   0  0  0  0  0  0  0  0  0  0  0  0
   -1.0250    2.7499   -2.3913 N   0  0  0  0  0  0  0  0  0  0  0  0
   -2.0365    3.0659   -3.1635 C   0  0  0  0  0  0  0  0  0  0  0  0
   -1.9626    3.2834   -4.2254 H   0  0  0  0  0  0  0  0  0  0  0  0
   -3.2053    3.0863   -2.4247 N   0  0  0  0  0  0  0  0  0  0  0  0
   -4.1240    3.3331   -2.7888 H   0  0  0  0  0  0  0  0  0  0  0  0
   -2.8947    2.7744   -1.1174 C   0  0  0  0  0  0  0  0  0  0  0  0
   -3.5598    2.7349   -0.2599 H   0  0  0  0  0  0  0  0  0  0  0  0
    0.8610    0.5397    1.1363 C   0  0  0  0  0  0  0  0  0  0  0  0
    0.8619    1.2059    2.1670 O   0  0  0  0  0  0  0  0  0  0  0  0
    1.8895   -0.3560    0.9107 N   0  0  0  0  0  0  0  0  0  0  0  0
    1.6553   -1.0908    0.2443 H   0  0  0  0  0  0  0  0  0  0  0  0
    2.8796   -0.6744    1.9314 C   0  0  0  0  0  0  0  0  0  0  0  0
    2.3983   -1.1379    2.7990 H   0  0  0  0  0  0  0  0  0  0  0  0
    3.6213   -1.3716    1.5304 H   0  0  0  0  0  0  0  0  0  0  0  0
    3.4016    0.2311    2.2581 H   0  0  0  0  0  0  0  0  0  0  0  0
  1  2  1  0  0  0  0
  2  3  1  0  0  0  0
  2  4  1  0  0  0  0
  2  5  1  0  0  0  0
  5  6  2  0  0  0  0
  5  7  1  0  0  0  0
  7  8  1  0  0  0  0
  7  9  1  0  0  0  0
  9 10  1  0  0  0  0
  9 11  1  0  0  0  0
  9 22  1  0  0  0  0
 11 12  1  0  0  0  0
 11 13  1  0  0  0  0
 11 14  1  0  0  0  0
 14 15  1  0  0  0  0
 14 20  2  0  0  0  0
 15 16  2  0  0  0  0
 16 17  1  0  0  0  0
 16 18  1  0  0  0  0
 18 19  1  0  0  0  0
 18 20  1  0  0  0  0
 20 21  1  0  0  0  0
 22 23  2  0  0  0  0
 22 24  1  0  0  0  0
 24 25  1  0  0  0  0
 24 26  1  0  0  0  0
 26 27  1  0  0  0  0
 26 28  1  0  0  0  0
 26 29  1  0  0  0  0
M  END
$$$$

  -OEChem-01062216083D

 29 29  0     1  0  0  0  0  0999 V2000
   -2.5279   -3.0716    1.3838 H   0  0  0  0  0  0  0  0  0  0  0  0
   -2.7152   -2.0673    0.9935 C   0  0  0  0  0  0  0  0  0  0  0  0
   -3.2204   -1.4805    1.7644 H   0  0  0  0  0  0  0  0  0  0  0  0
   -3.3634   -2.1450    0.1174 H   0  0  0  0  0  0  0  0  0  0  0  0
   -1.4053   -1.4036    0.6129 C   0  0  0  0  0  0  0  0  0  0  0  0
   -0.3691   -2.0467    0.6545 O   0  0  0  0  0  0  0  0  0  0  0  0
   -1.4156   -0.1155    0.1134 N   0  0  0  0  0  0  0  0  0  0  0  0
   -2.3245    0.3336    0.0909 H   0  0  0  0  0  0  0  0  0  0  0  0
   -0.2373    0.7707    0.0316 C   0  0  1  0  0  0  0  0  0  0  0  0
    0.2521    0.5947   -0.9322 H   0  0  0  0  0  0  0  0  0  0  0  0
   -0.7097    2.2350    0.0673 C   0  0  0  0  0  0  0  0  0  0  0  0
   -1.2796    2.4180    0.9835 H   0  0  0  0  0  0  0  0  0  0  0  0
    0.1572    2.9029    0.0788 H   0  0  0  0  0  0  0  0  0  0  0  0
   -1.5468    2.5660   -1.1311 C   0  0  0  0  0  0  0  0  0  0  0  0
   -1.0277    2.7641   -2.4025 N   0  0  0  0  0  0  0  0  0  0  0  0
   -2.0396    3.0868   -3.1715 C   0  0  0  0  0  0  0  0  0  0  0  0
   -1.9662    3.3091   -4.2325 H   0  0  0  0  0  0  0  0  0  0  0  0
   -3.2073    3.1077   -2.4310 N   0  0  0  0  0  0  0  0  0  0  0  0
   -4.1265    3.3552   -2.7934 H   0  0  0  0  0  0  0  0  0  0  0  0
   -2.8959    2.7900   -1.1254 C   0  0  0  0  0  0  0  0  0  0  0  0
   -3.5595    2.7477   -0.2669 H   0  0  0  0  0  0  0  0  0  0  0  0
    0.8353    0.5460    1.1291 C   0  0  0  0  0  0  0  0  0  0  0  0
    0.6729    1.0181    2.2503 O   0  0  0  0  0  0  0  0  0  0  0  0
    2.0207   -0.0982    0.8260 N   0  0  0  0  0  0  0  0  0  0  0  0
    1.9921   -0.6809   -0.0068 H   0  0  0  0  0  0  0  0  0  0  0  0
    3.0123   -0.4203    1.8440 C   0  0  0  0  0  0  0  0  0  0  0  0
    2.5918   -1.1134    2.5802 H   0  0  0  0  0  0  0  0  0  0  0  0
    3.8867   -0.8894    1.3832 H   0  0  0  0  0  0  0  0  0  0  0  0
    3.3422    0.4870    2.3612 H   0  0  0  0  0  0  0  0  0  0  0  0
  1  2  1  0  0  0  0
  2  3  1  0  0  0  0
  2  4  1  0  0  0  0
  2  5  1  0  0  0  0
  5  6  2  0  0  0  0
  5  7  1  0  0  0  0
  7  8  1  0  0  0  0
  7  9  1  0  0  0  0
  9 10  1  0  0  0  0
  9 11  1  0  0  0  0
  9 22  1  0  0  0  0
 11 12  1  0  0  0  0
 11 13  1  0  0  0  0
 11 14  1  0  0  0  0
 14 15  1  0  0  0  0
 14 20  2  0  0  0  0
 15 16  2  0  0  0  0
 16 17  1  0  0  0  0
 16 18  1  0  0  0  0
 18 19  1  0  0  0  0
 18 20  1  0  0  0  0
 20 21  1  0  0  0  0
 22 23  2  0  0  0  0
 22 24  1  0  0  0  0
 24 25  1  0  0  0  0
 24 26  1  0  0  0  0
 26 27  1  0  0  0  0
 26 28  1  0  0  0  0
 26 29  1  0  0  0  0
M  END
$$$$

  -OEChem-01062216083D

 29 29  0     1  0  0  0  0  0999 V2000
   -2.4779   -3.0828    1.4079 H   0  0  0  0  0  0  0  0  0  0  0  0
   -2.6830   -2.0758    1.0336 C   0  0  0  0  0  0  0  0  0  0  0  0
   -3.1505   -1.4940    1.8317 H   0  0  0  0  0  0  0  0  0  0  0  0
   -3.3720   -2.1474    0.1888 H   0  0  0  0  0  0  0  0  0  0  0  0
   -1.3918   -1.4103    0.5965 C   0  0  0  0  0  0  0  0  0  0  0  0
   -0.3526   -2.0504    0.5958 O   0  0  0  0  0  0  0  0  0  0  0  0
   -1.4238   -0.1248    0.0905 N   0  0  0  0  0  0  0  0  0  0  0  0
   -2.3314    0.3258    0.1210 H   0  0  0  0  0  0  0  0  0  0  0  0
   -0.2482    0.7655    0.0188 C   0  0  1  0  0  0  0  0  0  0  0  0
    0.2482    0.5904   -0.9416 H   0  0  0  0  0  0  0  0  0  0  0  0
   -0.7150    2.2301    0.0622 C   0  0  0  0  0  0  0  0  0  0  0  0
   -1.2871    2.4089    0.9779 H   0  0  0  0  0  0  0  0  0  0  0  0
    0.1541    2.8950    0.0804 H   0  0  0  0  0  0  0  0  0  0  0  0
   -1.5463    2.5704   -1.1370 C   0  0  0  0  0  0  0  0  0  0  0  0
   -1.0195    2.7736   -2.4044 N   0  0  0  0  0  0  0  0  0  0  0  0
   -2.0271    3.1015   -3.1771 C   0  0  0  0  0  0  0  0  0  0  0  0
   -1.9484    3.3267   -4.2371 H   0  0  0  0  0  0  0  0  0  0  0  0
   -3.1984    3.1238   -2.4422 N   0  0  0  0  0  0  0  0  0  0  0  0
   -4.1155    3.3731   -2.8086 H   0  0  0  0  0  0  0  0  0  0  0  0
   -2.8945    2.7987   -1.1367 C   0  0  0  0  0  0  0  0  0  0  0  0
   -3.5631    2.7527   -0.2821 H   0  0  0  0  0  0  0  0  0  0  0  0
    0.8098    0.5430    1.1285 C   0  0  0  0  0  0  0  0  0  0  0  0
    0.5274    0.8012    2.2948 O   0  0  0  0  0  0  0  0  0  0  0  0
    2.1064    0.1905    0.8012 N   0  0  0  0  0  0  0  0  0  0  0  0
    2.2450   -0.1749   -0.1368 H   0  0  0  0  0  0  0  0  0  0  0  0
    3.1142   -0.1066    1.8108 C   0  0  0  0  0  0  0  0  0  0  0  0
    2.8236   -0.9882    2.3915 H   0  0  0  0  0  0  0  0  0  0  0  0
    4.0784   -0.3055    1.3339 H   0  0  0  0  0  0  0  0  0  0  0  0
    3.2371    0.7409    2.4932 H   0  0  0  0  0  0  0  0  0  0  0  0
  1  2  1  0  0  0  0
  2  3  1  0  0  0  0
  2  4  1  0  0  0  0
  2  5  1  0  0  0  0
  5  6  2  0  0  0  0
  5  7  1  0  0  0  0
  7  8  1  0  0  0  0
  7  9  1  0  0  0  0
  9 10  1  0  0  0  0
  9 11  1  0  0  0  0
  9 22  1  0  0  0  0
 11 12  1  0  0  0  0
 11 13  1  0  0  0  0
 11 14  1  0  0  0  0
 14 15  1  0  0  0  0
 14 20  2  0  0  0  0
 15 16  2  0  0  0  0
 16 17  1  0  0  0  0
 16 18  1  0  0  0  0
 18 19  1  0  0  0  0
 18 20  1  0  0  0  0
 20 21  1  0  0  0  0
 22 23  2  0  0  0  0
 22 24  1  0  0  0  0
 24 25  1  0  0  0  0
 24 26  1  0  0  0  0
 26 27  1  0  0  0  0
 26 28  1  0  0  0  0
 26 29  1  0  0  0  0
M  END
$$$$

  -OEChem-01062216083D

 29 29  0     1  0  0  0  0  0999 V2000
   -2.4768   -3.0898    1.4084 H   0  0  0  0  0  0  0  0  0  0  0  0
   -2.6823   -2.0795    1.0438 C   0  0  0  0  0  0  0  0  0  0  0  0
   -3.1225   -1.4968    1.8566 H   0  0  0  0  0  0  0  0  0  0  0  0
   -3.3941   -2.1405    0.2173 H   0  0  0  0  0  0  0  0  0  0  0  0
   -1.3972   -1.4237    0.5750 C   0  0  0  0  0  0  0  0  0  0  0  0
   -0.3639   -2.0727    0.5398 O   0  0  0  0  0  0  0  0  0  0  0  0
   -1.4315   -0.1375    0.0708 N   0  0  0  0  0  0  0  0  0  0  0  0
   -2.3345    0.3185    0.1329 H   0  0  0  0  0  0  0  0  0  0  0  0
   -0.2524    0.7494    0.0149 C   0  0  1  0  0  0  0  0  0  0  0  0
    0.2506    0.5781   -0.9427 H   0  0  0  0  0  0  0  0  0  0  0  0
   -0.7176    2.2133    0.0715 C   0  0  0  0  0  0  0  0  0  0  0  0
   -1.2943    2.3813    0.9863 H   0  0  0  0  0  0  0  0  0  0  0  0
    0.1513    2.8779    0.1017 H   0  0  0  0  0  0  0  0  0  0  0  0
   -1.5418    2.5670   -1.1291 C   0  0  0  0  0  0  0  0  0  0  0  0
   -1.0045    2.7825   -2.3901 N   0  0  0  0  0  0  0  0  0  0  0  0
   -2.0066    3.1140   -3.1686 C   0  0  0  0  0  0  0  0  0  0  0  0
   -1.9198    3.3480   -4.2259 H   0  0  0  0  0  0  0  0  0  0  0  0
   -3.1839    3.1276   -2.4431 N   0  0  0  0  0  0  0  0  0  0  0  0
   -4.0989    3.3761   -2.8154 H   0  0  0  0  0  0  0  0  0  0  0  0
   -2.8905    2.7921   -1.1378 C   0  0  0  0  0  0  0  0  0  0  0  0
   -3.5666    2.7353   -0.2898 H   0  0  0  0  0  0  0  0  0  0  0  0
    0.7964    0.5258    1.1323 C   0  0  0  0  0  0  0  0  0  0  0  0
    0.4494    0.5866    2.3083 O   0  0  0  0  0  0  0  0  0  0  0  0
    2.1442    0.4799    0.8249 N   0  0  0  0  0  0  0  0  0  0  0  0
    2.3834    0.3386   -0.1522 H   0  0  0  0  0  0  0  0  0  0  0  0
    3.1744    0.2602    1.8317 C   0  0  0  0  0  0  0  0  0  0  0  0
    3.0239   -0.7044    2.3279 H   0  0  0  0  0  0  0  0  0  0  0  0
    4.1640    0.2604    1.3652 H   0  0  0  0  0  0  0  0  0  0  0  0
    3.1490    1.0532    2.5865 H   0  0  0  0  0  0  0  0  0  0  0  0
  1  2  1  0  0  0  0
  2  3  1  0  0  0  0
  2  4  1  0  0  0  0
  2  5  1  0  0  0  0
  5  6  2  0  0  0  0
  5  7  1  0  0  0  0
  7  8  1  0  0  0  0
  7  9  1  0  0  0  0
  9 10  1  0  0  0  0
  9 11  1  0  0  0  0
  9 22  1  0  0  0  0
 11 12  1  0  0  0  0
 11 13  1  0  0  0  0
 11 14  1  0  0  0  0
 14 15  1  0  0  0  0
 14 20  2  0  0  0  0
 15 16  2  0  0  0  0
 16 17  1  0  0  0  0
 16 18  1  0  0  0  0
 18 19  1  0  0  0  0
 18 20  1  0  0  0  0
 20 21  1  0  0  0  0
 22 23  2  0  0  0  0
 22 24  1  0  0  0  0
 24 25  1  0  0  0  0
 24 26  1  0  0  0  0
 26 27  1  0  0  0  0
 26 28  1  0  0  0  0
 26 29  1  0  0  0  0
M  END
$$$$

  -OEChem-01062216083D

 29 29  0     1  0  0  0  0  0999 V2000
   -2.4742   -3.1037    1.4036 H   0  0  0  0  0  0  0  0  0  0  0  0
   -2.6817   -2.0860    1.0613 C   0  0  0  0  0  0  0  0  0  0  0  0
   -3.0757   -1.5079    1.9006 H   0  0  0  0  0  0  0  0  0  0  0  0
   -3.4310   -2.1267    0.2675 H   0  0  0  0  0  0  0  0  0  0  0  0
   -1.4093   -1.4427    0.5440 C   0  0  0  0  0  0  0  0  0  0  0  0
   -0.3888   -2.1064    0.4504 O   0  0  0  0  0  0  0  0  0  0  0  0
   -1.4440   -0.1519    0.0513 N   0  0  0  0  0  0  0  0  0  0  0  0
   -2.3393    0.3113    0.1555 H   0  0  0  0  0  0  0  0  0  0  0  0
   -0.2582    0.7280    0.0136 C   0  0  1  0  0  0  0  0  0  0  0  0
    0.2495    0.5622   -0.9423 H   0  0  0  0  0  0  0  0  0  0  0  0
   -0.7183    2.1931    0.0841 C   0  0  0  0  0  0  0  0  0  0  0  0
   -1.3011    2.3520    0.9965 H   0  0  0  0  0  0  0  0  0  0  0  0
    0.1515    2.8560    0.1276 H   0  0  0  0  0  0  0  0  0  0  0  0
   -1.5322    2.5623   -1.1185 C   0  0  0  0  0  0  0  0  0  0  0  0
   -0.9813    2.7888   -2.3716 N   0  0  0  0  0  0  0  0  0  0  0  0
   -1.9750    3.1280   -3.1574 C   0  0  0  0  0  0  0  0  0  0  0  0
   -1.8774    3.3698   -4.2120 H   0  0  0  0  0  0  0  0  0  0  0  0
   -3.1595    3.1384   -2.4437 N   0  0  0  0  0  0  0  0  0  0  0  0
   -4.0707    3.3888   -2.8239 H   0  0  0  0  0  0  0  0  0  0  0  0
   -2.8802    2.7907   -1.1385 C   0  0  0  0  0  0  0  0  0  0  0  0
   -3.5654    2.7259   -0.2987 H   0  0  0  0  0  0  0  0  0  0  0  0
    0.7889    0.4959    1.1316 C   0  0  0  0  0  0  0  0  0  0  0  0
    0.4177    0.3640    2.2943 O   0  0  0  0  0  0  0  0  0  0  0  0
    2.1255    0.7555    0.8859 N   0  0  0  0  0  0  0  0  0  0  0  0
    2.4079    0.8364   -0.0866 H   0  0  0  0  0  0  0  0  0  0  0  0
    3.1582    0.6363    1.9071 C   0  0  0  0  0  0  0  0  0  0  0  0
    3.1885   -0.3846    2.3019 H   0  0  0  0  0  0  0  0  0  0  0  0
    4.1384    0.8737    1.4828 H   0  0  0  0  0  0  0  0  0  0  0  0
    2.9630    1.3284    2.7329 H   0  0  0  0  0  0  0  0  0  0  0  0
  1  2  1  0  0  0  0
  2  3  1  0  0  0  0
  2  4  1  0  0  0  0
  2  5  1  0  0  0  0
  5  6  2  0  0  0  0
  5  7  1  0  0  0  0
  7  8  1  0  0  0  0
  7  9  1  0  0  0  0
  9 10  1  0  0  0  0
  9 11  1  0  0  0  0
  9 22  1  0  0  0  0
 11 12  1  0  0  0  0
 11 13  1  0  0  0  0
 11 14  1  0  0  0  0
 14 15  1  0  0  0  0
 14 20  2  0  0  0  0
 15 16  2  0  0  0  0
 16 17  1  0  0  0  0
 16 18  1  0  0  0  0
 18 19  1  0  0  0  0
 18 20  1  0  0  0  0
 20 21  1  0  0  0  0
 22 23  2  0  0  0  0
 22 24  1  0  0  0  0
 24 25  1  0  0  0  0
 24 26  1  0  0  0  0
 26 27  1  0  0  0  0
 26 28  1  0  0  0  0
 26 29  1  0  0  0  0
M  END
$$$$

  -OEChem-01062216083D

 29 29  0     1  0  0  0  0  0999 V2000
   -2.4850   -3.1082    1.3995 H   0  0  0  0  0  0  0  0  0  0  0  0
   -2.6859   -2.0845    1.0710 C   0  0  0  0  0  0  0  0  0  0  0  0
   -3.0417   -1.5062    1.9270 H   0  0  0  0  0  0  0  0  0  0  0  0
   -3.4615   -2.1058    0.3019 H   0  0  0  0  0  0  0  0  0  0  0  0
   -1.4199   -1.4591    0.5168 C   0  0  0  0  0  0  0  0  0  0  0  0
   -0.4186   -2.1420    0.3691 O   0  0  0  0  0  0  0  0  0  0  0  0
   -1.4458   -0.1640    0.0348 N   0  0  0  0  0  0  0  0  0  0  0  0
   -2.3326    0.3074    0.1674 H   0  0  0  0  0  0  0  0  0  0  0  0
   -0.2511    0.7055    0.0114 C   0  0  1  0  0  0  0  0  0  0  0  0
    0.2581    0.5455   -0.9449 H   0  0  0  0  0  0  0  0  0  0  0  0
   -0.7167    2.1699    0.0940 C   0  0  0  0  0  0  0  0  0  0  0  0
   -1.3050    2.3157    1.0051 H   0  0  0  0  0  0  0  0  0  0  0  0
    0.1476    2.8384    0.1494 H   0  0  0  0  0  0  0  0  0  0  0  0
   -1.5254    2.5542   -1.1075 C   0  0  0  0  0  0  0  0  0  0  0  0
   -0.9653    2.7978   -2.3532 N   0  0  0  0  0  0  0  0  0  0  0  0
   -1.9537    3.1453   -3.1422 C   0  0  0  0  0  0  0  0  0  0  0  0
   -1.8485    3.4008   -4.1929 H   0  0  0  0  0  0  0  0  0  0  0  0
   -3.1435    3.1448   -2.4374 N   0  0  0  0  0  0  0  0  0  0  0  0
   -4.0527    3.3956   -2.8223 H   0  0  0  0  0  0  0  0  0  0  0  0
   -2.8737    2.7806   -1.1346 C   0  0  0  0  0  0  0  0  0  0  0  0
   -3.5661    2.7025   -0.3018 H   0  0  0  0  0  0  0  0  0  0  0  0
    0.8009    0.4692    1.1271 C   0  0  0  0  0  0  0  0  0  0  0  0
    0.4403    0.1505    2.2564 O   0  0  0  0  0  0  0  0  0  0  0  0
    2.0667    1.0122    0.9859 N   0  0  0  0  0  0  0  0  0  0  0  0
    2.3455    1.2981    0.0515 H   0  0  0  0  0  0  0  0  0  0  0  0
    3.0728    0.9839    2.0406 C   0  0  0  0  0  0  0  0  0  0  0  0
    3.2810   -0.0479    2.3428 H   0  0  0  0  0  0  0  0  0  0  0  0
    4.0042    1.4359    1.6863 H   0  0  0  0  0  0  0  0  0  0  0  0
    2.7278    1.5451    2.9152 H   0  0  0  0  0  0  0  0  0  0  0  0
  1  2  1  0  0  0  0
  2  3  1  0  0  0  0
  2  4  1  0  0  0  0
  2  5  1  0  0  0  0
  5  6  2  0  0  0  0
  5  7  1  0  0  0  0
  7  8  1  0  0  0  0
  7  9  1  0  0  0  0
  9 10  1  0  0  0  0
  9 11  1  0  0  0  0
  9 22  1  0  0  0  0
 11 12  1  0  0  0  0
 11 13  1  0  0  0  0
 11 14  1  0  0  0  0
 14 15  1  0  0  0  0
 14 20  2  0  0  0  0
 15 16  2  0  0  0  0
 16 17  1  0  0  0  0
 16 18  1  0  0  0  0
 18 19  1  0  0  0  0
 18 20  1  0  0  0  0
 20 21  1  0  0  0  0
 22 23  2  0  0  0  0
 22 24  1  0  0  0  0
 24 25  1  0  0  0  0
 24 26  1  0  0  0  0
 26 27  1  0  0  0  0
 26 28  1  0  0  0  0
 26 29  1  0  0  0  0
M  END
$$$$

  -OEChem-01062216083D

 29 29  0     1  0  0  0  0  0999 V2000
   -2.6109   -3.0504    1.3696 H   0  0  0  0  0  0  0  0  0  0  0  0
   -2.7514   -2.0053    1.0795 C   0  0  0  0  0  0  0  0  0  0  0  0
   -2.9847   -1.4231    1.9740 H   0  0  0  0  0  0  0  0  0  0  0  0
   -3.5868   -1.9417    0.3784 H   0  0  0  0  0  0  0  0  0  0  0  0
   -1.4865   -1.4730    0.4332 C   0  0  0  0  0  0  0  0  0  0  0  0
   -0.6092   -2.2502    0.0952 O   0  0  0  0  0  0  0  0  0  0  0  0
   -1.4368   -0.1627   -0.0021 N   0  0  0  0  0  0  0  0  0  0  0  0
   -2.3022    0.3414    0.1494 H   0  0  0  0  0  0  0  0  0  0  0  0
   -0.2194    0.6814    0.0033 C   0  0  1  0  0  0  0  0  0  0  0  0
    0.1329    0.7521   -1.0311 H   0  0  0  0  0  0  0  0  0  0  0  0
   -0.6582    2.0810    0.4837 C   0  0  0  0  0  0  0  0  0  0  0  0
   -1.1168    2.0001    1.4741 H   0  0  0  0  0  0  0  0  0  0  0  0
    0.2034    2.7479    0.5754 H   0  0  0  0  0  0  0  0  0  0  0  0
   -1.6169    2.7113   -0.4797 C   0  0  0  0  0  0  0  0  0  0  0  0
   -1.2249    3.2452   -1.6979 N   0  0  0  0  0  0  0  0  0  0  0  0
   -2.3068    3.7397   -2.2504 C   0  0  0  0  0  0  0  0  0  0  0  0
   -2.3396    4.2294   -3.2196 H   0  0  0  0  0  0  0  0  0  0  0  0
   -3.3927    3.5507   -1.4148 N   0  0  0  0  0  0  0  0  0  0  0  0
   -4.3426    3.8637   -1.6088 H   0  0  0  0  0  0  0  0  0  0  0  0
   -2.9549    2.9062   -0.2765 C   0  0  0  0  0  0  0  0  0  0  0  0
   -3.5308    2.6267    0.6008 H   0  0  0  0  0  0  0  0  0  0  0  0
    1.0134    0.2374    0.8459 C   0  0  0  0  0  0  0  0  0  0  0  0
    0.8792   -0.4620    1.8438 O   0  0  0  0  0  0  0  0  0  0  0  0
    2.1458    1.0376    0.8292 N   0  0  0  0  0  0  0  0  0  0  0  0
    2.2427    1.6844    0.0516 H   0  0  0  0  0  0  0  0  0  0  0  0
    3.2697    0.8708    1.7442 C   0  0  0  0  0  0  0  0  0  0  0  0
    3.6656   -0.1485    1.6826 H   0  0  0  0  0  0  0  0  0  0  0  0
    4.0720    1.5693    1.4886 H   0  0  0  0  0  0  0  0  0  0  0  0
    2.9567    1.0662    2.7753 H   0  0  0  0  0  0  0  0  0  0  0  0
  1  2  1  0  0  0  0
  2  3  1  0  0  0  0
  2  4  1  0  0  0  0
  2  5  1  0  0  0  0
  5  6  2  0  0  0  0
  5  7  1  0  0  0  0
  7  8  1  0  0  0  0
  7  9  1  0  0  0  0
  9 10  1  0  0  0  0
  9 11  1  0  0  0  0
  9 22  1  0  0  0  0
 11 12  1  0  0  0  0
 11 13  1  0  0  0  0
 11 14  1  0  0  0  0
 14 15  1  0  0  0  0
 14 20  2  0  0  0  0
 15 16  2  0  0  0  0
 16 17  1  0  0  0  0
 16 18  1  0  0  0  0
 18 19  1  0  0  0  0
 18 20  1  0  0  0  0
 20 21  1  0  0  0  0
 22 23  2  0  0  0  0
 22 24  1  0  0  0  0
 24 25  1  0  0  0  0
 24 26  1  0  0  0  0
 26 27  1  0  0  0  0
 26 28  1  0  0  0  0
 26 29  1  0  0  0  0
M  END
$$$$

  -OEChem-01062216083D

 29 29  0     1  0  0  0  0  0999 V2000
   -2.6116   -3.0278    1.3537 H   0  0  0  0  0  0  0  0  0  0  0  0
   -2.7317   -1.9704    1.1008 C   0  0  0  0  0  0  0  0  0  0  0  0
   -2.8995   -1.4079    2.0221 H   0  0  0  0  0  0  0  0  0  0  0  0
   -3.5992   -1.8591    0.4462 H   0  0  0  0  0  0  0  0  0  0  0  0
   -1.4846   -1.4600    0.4044 C   0  0  0  0  0  0  0  0  0  0  0  0
   -0.6719   -2.2578   -0.0309 O   0  0  0  0  0  0  0  0  0  0  0  0
   -1.4197   -0.1414   -0.0011 N   0  0  0  0  0  0  0  0  0  0  0  0
   -2.2808    0.3620    0.1738 H   0  0  0  0  0  0  0  0  0  0  0  0
   -0.2046    0.7084    0.0252 C   0  0  1  0  0  0  0  0  0  0  0  0
    0.1519    0.7935   -1.0066 H   0  0  0  0  0  0  0  0  0  0  0  0
   -0.6898    2.0978    0.5024 C   0  0  0  0  0  0  0  0  0  0  0  0
   -1.1653    2.0014    1.4833 H   0  0  0  0  0  0  0  0  0  0  0  0
    0.1453    2.7941    0.6100 H   0  0  0  0  0  0  0  0  0  0  0  0
   -1.6430    2.7102   -0.4796 C   0  0  0  0  0  0  0  0  0  0  0  0
   -1.2358    3.2595   -1.6856 N   0  0  0  0  0  0  0  0  0  0  0  0
   -2.3164    3.7278   -2.2631 C   0  0  0  0  0  0  0  0  0  0  0  0
   -2.3390    4.2200   -3.2315 H   0  0  0  0  0  0  0  0  0  0  0  0
   -3.4163    3.5087   -1.4540 N   0  0  0  0  0  0  0  0  0  0  0  0
   -4.3698    3.7933   -1.6726 H   0  0  0  0  0  0  0  0  0  0  0  0
   -2.9900    2.8716   -0.3073 C   0  0  0  0  0  0  0  0  0  0  0  0
   -3.5808    2.5741    0.5539 H   0  0  0  0  0  0  0  0  0  0  0  0
    1.0457    0.2748    0.8600 C   0  0  0  0  0  0  0  0  0  0  0  0
    1.0203   -0.6672    1.6406 O   0  0  0  0  0  0  0  0  0  0  0  0
    2.0387    1.2095    1.1171 N   0  0  0  0  0  0  0  0  0  0  0  0
    2.0721    2.0224    0.5088 H   0  0  0  0  0  0  0  0  0  0  0  0
    3.1510    0.9831    2.0346 C   0  0  0  0  0  0  0  0  0  0  0  0
    3.7119    0.0886    1.7436 H   0  0  0  0  0  0  0  0  0  0  0  0
    3.8327    1.8387    2.0201 H   0  0  0  0  0  0  0  0  0  0  0  0
    2.7840    0.8521    3.0580 H   0  0  0  0  0  0  0  0  0  0  0  0
  1  2  1  0  0  0  0
  2  3  1  0  0  0  0
  2  4  1  0  0  0  0
  2  5  1  0  0  0  0
  5  6  2  0  0  0  0
  5  7  1  0  0  0  0
  7  8  1  0  0  0  0
  7  9  1  0  0  0  0
  9 10  1  0  0  0  0
  9 11  1  0  0  0  0
  9 22  1  0  0  0  0
 11 12  1  0  0  0  0
 11 13  1  0  0  0  0
 11 14  1  0  0  0  0
 14 15  1  0  0  0  0
 14 20  2  0  0  0  0
 15 16  2  0  0  0  0
 16 17  1  0  0  0  0
 16 18  1  0  0  0  0
 18 19  1  0  0  0  0
 18 20  1  0  0  0  0
 20 21  1  0  0  0  0
 22 23  2  0  0  0  0
 22 24  1  0  0  0  0
 24 25  1  0  0  0  0
 24 26  1  0  0  0  0
 26 27  1  0  0  0  0
 26 28  1  0  0  0  0
 26 29  1  0  0  0  0
M  END
$$$$

  -OEChem-01062216083D

 29 29  0     1  0  0  0  0  0999 V2000
   -2.5581   -3.1369    1.1364 H   0  0  0  0  0  0  0  0  0  0  0  0
   -2.6210   -2.2211    0.5414 C   0  0  0  0  0  0  0  0  0  0  0  0
   -3.6561   -1.8719    0.5362 H   0  0  0  0  0  0  0  0  0  0  0  0
   -2.3124   -2.4483   -0.4816 H   0  0  0  0  0  0  0  0  0  0  0  0
   -1.7141   -1.1575    1.1310 C   0  0  0  0  0  0  0  0  0  0  0  0
   -1.3244   -1.2746    2.2802 O   0  0  0  0  0  0  0  0  0  0  0  0
   -1.6048    0.0696    0.5073 N   0  0  0  0  0  0  0  0  0  0  0  0
   -2.2263    0.1383   -0.2923 H   0  0  0  0  0  0  0  0  0  0  0  0
   -0.3348    0.8057    0.3015 C   0  0  1  0  0  0  0  0  0  0  0  0
   -0.0501    0.7114   -0.7518 H   0  0  0  0  0  0  0  0  0  0  0  0
   -0.6776    2.2830    0.5867 C   0  0  0  0  0  0  0  0  0  0  0  0
   -1.0723    2.3783    1.6032 H   0  0  0  0  0  0  0  0  0  0  0  0
    0.2102    2.9148    0.5068 H   0  0  0  0  0  0  0  0  0  0  0  0
   -1.6725    2.8021   -0.4076 C   0  0  0  0  0  0  0  0  0  0  0  0
   -1.3510    3.1217   -1.7187 N   0  0  0  0  0  0  0  0  0  0  0  0
   -2.4511    3.5775   -2.2694 C   0  0  0  0  0  0  0  0  0  0  0  0
   -2.5354    3.9181   -3.2976 H   0  0  0  0  0  0  0  0  0  0  0  0
   -3.4826    3.5607   -1.3486 N   0  0  0  0  0  0  0  0  0  0  0  0
   -4.4333    3.8812   -1.5253 H   0  0  0  0  0  0  0  0  0  0  0  0
   -2.9876    3.0753   -0.1565 C   0  0  0  0  0  0  0  0  0  0  0  0
   -3.5082    2.9402    0.7877 H   0  0  0  0  0  0  0  0  0  0  0  0
    0.9238    0.3556    1.1042 C   0  0  0  0  0  0  0  0  0  0  0  0
    1.2750   -0.8171    1.0485 O   0  0  0  0  0  0  0  0  0  0  0  0
    1.9090    1.2620    1.4680 N   0  0  0  0  0  0  0  0  0  0  0  0
    1.6757    2.2482    1.4265 H   0  0  0  0  0  0  0  0  0  0  0  0
    3.2045    0.8726    2.0135 C   0  0  0  0  0  0  0  0  0  0  0  0
    3.7800    0.3104    1.2707 H   0  0  0  0  0  0  0  0  0  0  0  0
    3.7781    1.7606    2.2956 H   0  0  0  0  0  0  0  0  0  0  0  0
    3.0729    0.2491    2.9043 H   0  0  0  0  0  0  0  0  0  0  0  0
  1  2  1  0  0  0  0
  2  3  1  0  0  0  0
  2  4  1  0  0  0  0
  2  5  1  0  0  0  0
  5  6  2  0  0  0  0
  5  7  1  0  0  0  0
  7  8  1  0  0  0  0
  7  9  1  0  0  0  0
  9 10  1  0  0  0  0
  9 11  1  0  0  0  0
  9 22  1  0  0  0  0
 11 12  1  0  0  0  0
 11 13  1  0  0  0  0
 11 14  1  0  0  0  0
 14 15  1  0  0  0  0
 14 20  2  0  0  0  0
 15 16  2  0  0  0  0
 16 17  1  0  0  0  0
 16 18  1  0  0  0  0
 18 19  1  0  0  0  0
 18 20  1  0  0  0  0
 20 21  1  0  0  0  0
 22 23  2  0  0  0  0
 22 24  1  0  0  0  0
 24 25  1  0  0  0  0
 24 26  1  0  0  0  0
 26 27  1  0  0  0  0
 26 28  1  0  0  0  0
 26 29  1  0  0  0  0
M  END
$$$$

  -OEChem-01062216083D

 29 29  0     1  0  0  0  0  0999 V2000
   -2.6106   -3.1203    1.1527 H   0  0  0  0  0  0  0  0  0  0  0  0
   -2.6731   -2.1982    0.5680 C   0  0  0  0  0  0  0  0  0  0  0  0
   -3.6913   -1.8072    0.6310 H   0  0  0  0  0  0  0  0  0  0  0  0
   -2.4395   -2.4297   -0.4740 H   0  0  0  0  0  0  0  0  0  0  0  0
   -1.6886   -1.1757    1.1032 C   0  0  0  0  0  0  0  0  0  0  0  0
   -1.1833   -1.3501    2.1985 O   0  0  0  0  0  0  0  0  0  0  0  0
   -1.5914    0.0575    0.4882 N   0  0  0  0  0  0  0  0  0  0  0  0
   -2.2400    0.1477   -0.2875 H   0  0  0  0  0  0  0  0  0  0  0  0
   -0.3314    0.8072    0.2773 C   0  0  1  0  0  0  0  0  0  0  0  0
   -0.0496    0.7119   -0.7769 H   0  0  0  0  0  0  0  0  0  0  0  0
   -0.6716    2.2851    0.5569 C   0  0  0  0  0  0  0  0  0  0  0  0
   -1.0610    2.3875    1.5747 H   0  0  0  0  0  0  0  0  0  0  0  0
    0.2212    2.9102    0.4677 H   0  0  0  0  0  0  0  0  0  0  0  0
   -1.6715    2.7997   -0.4355 C   0  0  0  0  0  0  0  0  0  0  0  0
   -1.3611    3.1138   -1.7506 N   0  0  0  0  0  0  0  0  0  0  0  0
   -2.4651    3.5674   -2.2953 C   0  0  0  0  0  0  0  0  0  0  0  0
   -2.5568    3.9046   -3.3240 H   0  0  0  0  0  0  0  0  0  0  0  0
   -3.4897    3.5533   -1.3666 N   0  0  0  0  0  0  0  0  0  0  0  0
   -4.4417    3.8732   -1.5376 H   0  0  0  0  0  0  0  0  0  0  0  0
   -2.9851    3.0735   -0.1761 C   0  0  0  0  0  0  0  0  0  0  0  0
   -3.4988    2.9431    0.7725 H   0  0  0  0  0  0  0  0  0  0  0  0
    0.9250    0.3490    1.0753 C   0  0  0  0  0  0  0  0  0  0  0  0
    1.3869   -0.7618    0.8401 O   0  0  0  0  0  0  0  0  0  0  0  0
    1.7607    1.2498    1.7186 N   0  0  0  0  0  0  0  0  0  0  0  0
    1.3920    2.1776    1.8975 H   0  0  0  0  0  0  0  0  0  0  0  0
    3.0163    0.8631    2.3519 C   0  0  0  0  0  0  0  0  0  0  0  0
    3.7174    0.4731    1.6066 H   0  0  0  0  0  0  0  0  0  0  0  0
    3.4764    1.7281    2.8389 H   0  0  0  0  0  0  0  0  0  0  0  0
    2.8414    0.0913    3.1091 H   0  0  0  0  0  0  0  0  0  0  0  0
  1  2  1  0  0  0  0
  2  3  1  0  0  0  0
  2  4  1  0  0  0  0
  2  5  1  0  0  0  0
  5  6  2  0  0  0  0
  5  7  1  0  0  0  0
  7  8  1  0  0  0  0
  7  9  1  0  0  0  0
  9 10  1  0  0  0  0
  9 11  1  0  0  0  0
  9 22  1  0  0  0  0
 11 12  1  0  0  0  0
 11 13  1  0  0  0  0
 11 14  1  0  0  0  0
 14 15  1  0  0  0  0
 14 20  2  0  0  0  0
 15 16  2  0  0  0  0
 16 17  1  0  0  0  0
 16 18  1  0  0  0  0
 18 19  1  0  0  0  0
 18 20  1  0  0  0  0
 20 21  1  0  0  0  0
 22 23  2  0  0  0  0
 22 24  1  0  0  0  0
 24 25  1  0  0  0  0
 24 26  1  0  0  0  0
 26 27  1  0  0  0  0
 26 28  1  0  0  0  0
 26 29  1  0  0  0  0
M  END
$$$$

  -OEChem-01062216083D

 29 29  0     1  0  0  0  0  0999 V2000
   -2.6479   -3.1265    1.1284 H   0  0  0  0  0  0  0  0  0  0  0  0
   -2.7373   -2.1792    0.5891 C   0  0  0  0  0  0  0  0  0  0  0  0
   -3.7289   -1.7593    0.7734 H   0  0  0  0  0  0  0  0  0  0  0  0
   -2.6217   -2.3742   -0.4799 H   0  0  0  0  0  0  0  0  0  0  0  0
   -1.6669   -1.2118    1.0585 C   0  0  0  0  0  0  0  0  0  0  0  0
   -1.0504   -1.4599    2.0796 O   0  0  0  0  0  0  0  0  0  0  0  0
   -1.5723    0.0302    0.4591 N   0  0  0  0  0  0  0  0  0  0  0  0
   -2.2498    0.1552   -0.2868 H   0  0  0  0  0  0  0  0  0  0  0  0
   -0.3225    0.7986    0.2574 C   0  0  1  0  0  0  0  0  0  0  0  0
   -0.0396    0.7128   -0.7978 H   0  0  0  0  0  0  0  0  0  0  0  0
   -0.6686    2.2729    0.5437 C   0  0  0  0  0  0  0  0  0  0  0  0
   -1.0637    2.3696    1.5596 H   0  0  0  0  0  0  0  0  0  0  0  0
    0.2275    2.8956    0.4641 H   0  0  0  0  0  0  0  0  0  0  0  0
   -1.6684    2.7904   -0.4471 C   0  0  0  0  0  0  0  0  0  0  0  0
   -1.3555    3.1129   -1.7592 N   0  0  0  0  0  0  0  0  0  0  0  0
   -2.4583    3.5672   -2.3051 C   0  0  0  0  0  0  0  0  0  0  0  0
   -2.5474    3.9097   -3.3324 H   0  0  0  0  0  0  0  0  0  0  0  0
   -3.4854    3.5458   -1.3795 N   0  0  0  0  0  0  0  0  0  0  0  0
   -4.4370    3.8661   -1.5517 H   0  0  0  0  0  0  0  0  0  0  0  0
   -2.9837    3.0597   -0.1901 C   0  0  0  0  0  0  0  0  0  0  0  0
   -3.5007    2.9241    0.7559 H   0  0  0  0  0  0  0  0  0  0  0  0
    0.9363    0.3479    1.0517 C   0  0  0  0  0  0  0  0  0  0  0  0
    1.5291   -0.6558    0.6729 O   0  0  0  0  0  0  0  0  0  0  0  0
    1.5863    1.1825    1.9481 N   0  0  0  0  0  0  0  0  0  0  0  0
    1.0652    1.9826    2.2903 H   0  0  0  0  0  0  0  0  0  0  0  0
    2.8079    0.7978    2.6447 C   0  0  0  0  0  0  0  0  0  0  0  0
    3.6157    0.6127    1.9287 H   0  0  0  0  0  0  0  0  0  0  0  0
    3.1243    1.5967    3.3220 H   0  0  0  0  0  0  0  0  0  0  0  0
    2.6424   -0.1111    3.2329 H   0  0  0  0  0  0  0  0  0  0  0  0
  1  2  1  0  0  0  0
  2  3  1  0  0  0  0
  2  4  1  0  0  0  0
  2  5  1  0  0  0  0
  5  6  2  0  0  0  0
  5  7  1  0  0  0  0
  7  8  1  0  0  0  0
  7  9  1  0  0  0  0
  9 10  1  0  0  0  0
  9 11  1  0  0  0  0
  9 22  1  0  0  0  0
 11 12  1  0  0  0  0
 11 13  1  0  0  0  0
 11 14  1  0  0  0  0
 14 15  1  0  0  0  0
 14 20  2  0  0  0  0
 15 16  2  0  0  0  0
 16 17  1  0  0  0  0
 16 18  1  0  0  0  0
 18 19  1  0  0  0  0
 18 20  1  0  0  0  0
 20 21  1  0  0  0  0
 22 23  2  0  0  0  0
 22 24  1  0  0  0  0
 24 25  1  0  0  0  0
 24 26  1  0  0  0  0
 26 27  1  0  0  0  0
 26 28  1  0  0  0  0
 26 29  1  0  0  0  0
M  END
$$$$

  -OEChem-01062216083D

 29 29  0     1  0  0  0  0  0999 V2000
   -2.7175   -3.1070    1.1605 H   0  0  0  0  0  0  0  0  0  0  0  0
   -2.7830   -2.1640    0.6101 C   0  0  0  0  0  0  0  0  0  0  0  0
   -3.7413   -1.6901    0.8352 H   0  0  0  0  0  0  0  0  0  0  0  0
   -2.7305   -2.3797   -0.4599 H   0  0  0  0  0  0  0  0  0  0  0  0
   -1.6419   -1.2471    1.0101 C   0  0  0  0  0  0  0  0  0  0  0  0
   -0.9332   -1.5619    1.9492 O   0  0  0  0  0  0  0  0  0  0  0  0
   -1.5484    0.0012    0.4222 N   0  0  0  0  0  0  0  0  0  0  0  0
   -2.2535    0.1584   -0.2916 H   0  0  0  0  0  0  0  0  0  0  0  0
   -0.3094    0.7893    0.2316 C   0  0  1  0  0  0  0  0  0  0  0  0
   -0.0239    0.7140   -0.8236 H   0  0  0  0  0  0  0  0  0  0  0  0
   -0.6642    2.2584    0.5288 C   0  0  0  0  0  0  0  0  0  0  0  0
   -1.0647    2.3455    1.5431 H   0  0  0  0  0  0  0  0  0  0  0  0
    0.2331    2.8818    0.4620 H   0  0  0  0  0  0  0  0  0  0  0  0
   -1.6652    2.7810   -0.4583 C   0  0  0  0  0  0  0  0  0  0  0  0
   -1.3551    3.1181   -1.7675 N   0  0  0  0  0  0  0  0  0  0  0  0
   -2.4586    3.5780   -2.3069 C   0  0  0  0  0  0  0  0  0  0  0  0
   -2.5489    3.9325   -3.3299 H   0  0  0  0  0  0  0  0  0  0  0  0
   -3.4843    3.5454   -1.3800 N   0  0  0  0  0  0  0  0  0  0  0  0
   -4.4354    3.8707   -1.5462 H   0  0  0  0  0  0  0  0  0  0  0  0
   -2.9802    3.0468   -0.1967 C   0  0  0  0  0  0  0  0  0  0  0  0
   -3.4950    2.9042    0.7490 H   0  0  0  0  0  0  0  0  0  0  0  0
    0.9527    0.3551    1.0267 C   0  0  0  0  0  0  0  0  0  0  0  0
    1.6850   -0.4962    0.5361 O   0  0  0  0  0  0  0  0  0  0  0  0
    1.4046    1.0563    2.1336 N   0  0  0  0  0  0  0  0  0  0  0  0
    0.7325    1.6683    2.5836 H   0  0  0  0  0  0  0  0  0  0  0  0
    2.5813    0.6476    2.8904 C   0  0  0  0  0  0  0  0  0  0  0  0
    3.4724    0.6664    2.2541 H   0  0  0  0  0  0  0  0  0  0  0  0
    2.7453    1.3271    3.7320 H   0  0  0  0  0  0  0  0  0  0  0  0
    2.4490   -0.3665    3.2824 H   0  0  0  0  0  0  0  0  0  0  0  0
  1  2  1  0  0  0  0
  2  3  1  0  0  0  0
  2  4  1  0  0  0  0
  2  5  1  0  0  0  0
  5  6  2  0  0  0  0
  5  7  1  0  0  0  0
  7  8  1  0  0  0  0
  7  9  1  0  0  0  0
  9 10  1  0  0  0  0
  9 11  1  0  0  0  0
  9 22  1  0  0  0  0
 11 12  1  0  0  0  0
 11 13  1  0  0  0  0
 11 14  1  0  0  0  0
 14 15  1  0  0  0  0
 14 20  2  0  0  0  0
 15 16  2  0  0  0  0
 16 17  1  0  0  0  0
 16 18  1  0  0  0  0
 18 19  1  0  0  0  0
 18 20  1  0  0  0  0
 20 21  1  0  0  0  0
 22 23  2  0  0  0  0
 22 24  1  0  0  0  0
 24 25  1  0  0  0  0
 24 26  1  0  0  0  0
 26 27  1  0  0  0  0
 26 28  1  0  0  0  0
 26 29  1  0  0  0  0
M  END
$$$$

  -OEChem-01062216083D

 29 29  0     1  0  0  0  0  0999 V2000
   -2.7441   -3.1193    1.1316 H   0  0  0  0  0  0  0  0  0  0  0  0
   -2.8276   -2.1526    0.6266 C   0  0  0  0  0  0  0  0  0  0  0  0
   -3.7522   -1.6665    0.9465 H   0  0  0  0  0  0  0  0  0  0  0  0
   -2.8663   -2.3245   -0.4518 H   0  0  0  0  0  0  0  0  0  0  0  0
   -1.6348   -1.2797    0.9701 C   0  0  0  0  0  0  0  0  0  0  0  0
   -0.8640   -1.6499    1.8367 O   0  0  0  0  0  0  0  0  0  0  0  0
   -1.5343   -0.0284    0.3893 N   0  0  0  0  0  0  0  0  0  0  0  0
   -2.2607    0.1601   -0.2951 H   0  0  0  0  0  0  0  0  0  0  0  0
   -0.3016    0.7725    0.2122 C   0  0  1  0  0  0  0  0  0  0  0  0
   -0.0108    0.7053   -0.8424 H   0  0  0  0  0  0  0  0  0  0  0  0
   -0.6572    2.2385    0.5194 C   0  0  0  0  0  0  0  0  0  0  0  0
   -1.0605    2.3187    1.5328 H   0  0  0  0  0  0  0  0  0  0  0  0
    0.2430    2.8591    0.4637 H   0  0  0  0  0  0  0  0  0  0  0  0
   -1.6551    2.7704   -0.4658 C   0  0  0  0  0  0  0  0  0  0  0  0
   -1.3444    3.1193   -1.7715 N   0  0  0  0  0  0  0  0  0  0  0  0
   -2.4462    3.5881   -2.3063 C   0  0  0  0  0  0  0  0  0  0  0  0
   -2.5354    3.9529   -3.3256 H   0  0  0  0  0  0  0  0  0  0  0  0
   -3.4721    3.5502   -1.3798 N   0  0  0  0  0  0  0  0  0  0  0  0
   -4.4212    3.8835   -1.5417 H   0  0  0  0  0  0  0  0  0  0  0  0
   -2.9694    3.0389   -0.2016 C   0  0  0  0  0  0  0  0  0  0  0  0
   -3.4842    2.8923    0.7435 H   0  0  0  0  0  0  0  0  0  0  0  0
    0.9587    0.3536    1.0152 C   0  0  0  0  0  0  0  0  0  0  0  0
    1.8317   -0.2914    0.4471 O   0  0  0  0  0  0  0  0  0  0  0  0
    1.2145    0.8608    2.2789 N   0  0  0  0  0  0  0  0  0  0  0  0
    0.4091    1.2248    2.7770 H   0  0  0  0  0  0  0  0  0  0  0  0
    2.3713    0.4449    3.0619 C   0  0  0  0  0  0  0  0  0  0  0  0
    3.2996    0.6972    2.5388 H   0  0  0  0  0  0  0  0  0  0  0  0
    2.3738    0.9524    4.0312 H   0  0  0  0  0  0  0  0  0  0  0  0
    2.3464   -0.6364    3.2347 H   0  0  0  0  0  0  0  0  0  0  0  0
  1  2  1  0  0  0  0
  2  3  1  0  0  0  0
  2  4  1  0  0  0  0
  2  5  1  0  0  0  0
  5  6  2  0  0  0  0
  5  7  1  0  0  0  0
  7  8  1  0  0  0  0
  7  9  1  0  0  0  0
  9 10  1  0  0  0  0
  9 11  1  0  0  0  0
  9 22  1  0  0  0  0
 11 12  1  0  0  0  0
 11 13  1  0  0  0  0
 11 14  1  0  0  0  0
 14 15  1  0  0  0  0
 14 20  2  0  0  0  0
 15 16  2  0  0  0  0
 16 17  1  0  0  0  0
 16 18  1  0  0  0  0
 18 19  1  0  0  0  0
 18 20  1  0  0  0  0
 20 21  1  0  0  0  0
 22 23  2  0  0  0  0
 22 24  1  0  0  0  0
 24 25  1  0  0  0  0
 24 26  1  0  0  0  0
 26 27  1  0  0  0  0
 26 28  1  0  0  0  0
 26 29  1  0  0  0  0
M  END
$$$$

  -OEChem-01062216083D

 29 29  0     1  0  0  0  0  0999 V2000
   -2.7818   -3.1320    1.0849 H   0  0  0  0  0  0  0  0  0  0  0  0
   -2.8779   -2.1377    0.6389 C   0  0  0  0  0  0  0  0  0  0  0  0
   -3.7582   -1.6462    1.0597 H   0  0  0  0  0  0  0  0  0  0  0  0
   -3.0104   -2.2504   -0.4399 H   0  0  0  0  0  0  0  0  0  0  0  0
   -1.6363   -1.3143    0.9266 C   0  0  0  0  0  0  0  0  0  0  0  0
   -0.8235   -1.7367    1.7281 O   0  0  0  0  0  0  0  0  0  0  0  0
   -1.5201   -0.0617    0.3517 N   0  0  0  0  0  0  0  0  0  0  0  0
   -2.2671    0.1632   -0.2990 H   0  0  0  0  0  0  0  0  0  0  0  0
   -0.2915    0.7495    0.1915 C   0  0  1  0  0  0  0  0  0  0  0  0
    0.0073    0.6907   -0.8615 H   0  0  0  0  0  0  0  0  0  0  0  0
   -0.6506    2.2106    0.5128 C   0  0  0  0  0  0  0  0  0  0  0  0
   -1.0561    2.2800    1.5261 H   0  0  0  0  0  0  0  0  0  0  0  0
    0.2503    2.8314    0.4688 H   0  0  0  0  0  0  0  0  0  0  0  0
   -1.6447    2.7549   -0.4697 C   0  0  0  0  0  0  0  0  0  0  0  0
   -1.3317    3.1210   -1.7702 N   0  0  0  0  0  0  0  0  0  0  0  0
   -2.4309    3.6019   -2.2995 C   0  0  0  0  0  0  0  0  0  0  0  0
   -2.5170    3.9829   -3.3133 H   0  0  0  0  0  0  0  0  0  0  0  0
   -3.4584    3.5536   -1.3754 N   0  0  0  0  0  0  0  0  0  0  0  0
   -4.4051    3.8955   -1.5327 H   0  0  0  0  0  0  0  0  0  0  0  0
   -2.9585    3.0252   -0.2033 C   0  0  0  0  0  0  0  0  0  0  0  0
   -3.4741    2.8716    0.7402 H   0  0  0  0  0  0  0  0  0  0  0  0
    0.9656    0.3493    1.0069 C   0  0  0  0  0  0  0  0  0  0  0  0
    1.9667   -0.0287    0.4106 O   0  0  0  0  0  0  0  0  0  0  0  0
    1.0452    0.6121    2.3645 N   0  0  0  0  0  0  0  0  0  0  0  0
    0.1485    0.6796    2.8356 H   0  0  0  0  0  0  0  0  0  0  0  0
    2.1937    0.2015    3.1619 C   0  0  0  0  0  0  0  0  0  0  0  0
    3.1106    0.6658    2.7842 H   0  0  0  0  0  0  0  0  0  0  0  0
    2.0583    0.5069    4.2037 H   0  0  0  0  0  0  0  0  0  0  0  0
    2.3101   -0.8870    3.1301 H   0  0  0  0  0  0  0  0  0  0  0  0
  1  2  1  0  0  0  0
  2  3  1  0  0  0  0
  2  4  1  0  0  0  0
  2  5  1  0  0  0  0
  5  6  2  0  0  0  0
  5  7  1  0  0  0  0
  7  8  1  0  0  0  0
  7  9  1  0  0  0  0
  9 10  1  0  0  0  0
  9 11  1  0  0  0  0
  9 22  1  0  0  0  0
 11 12  1  0  0  0  0
 11 13  1  0  0  0  0
 11 14  1  0  0  0  0
 14 15  1  0  0  0  0
 14 20  2  0  0  0  0
 15 16  2  0  0  0  0
 16 17  1  0  0  0  0
 16 18  1  0  0  0  0
 18 19  1  0  0  0  0
 18 20  1  0  0  0  0
 20 21  1  0  0  0  0
 22 23  2  0  0  0  0
 22 24  1  0  0  0  0
 24 25  1  0  0  0  0
 24 26  1  0  0  0  0
 26 27  1  0  0  0  0
 26 28  1  0  0  0  0
 26 29  1  0  0  0  0
M  END
$$$$

  -OEChem-01062216083D

 29 29  0     1  0  0  0  0  0999 V2000
   -2.8979   -3.1106    1.0698 H   0  0  0  0  0  0  0  0  0  0  0  0
   -2.9584   -2.1144    0.6225 C   0  0  0  0  0  0  0  0  0  0  0  0
   -3.8084   -1.5836    1.0579 H   0  0  0  0  0  0  0  0  0  0  0  0
   -3.1158   -2.2239   -0.4533 H   0  0  0  0  0  0  0  0  0  0  0  0
   -1.6770   -1.3454    0.8845 C   0  0  0  0  0  0  0  0  0  0  0  0
   -0.8511   -1.8203    1.6415 O   0  0  0  0  0  0  0  0  0  0  0  0
   -1.5272   -0.0910    0.3231 N   0  0  0  0  0  0  0  0  0  0  0  0
   -2.2839    0.1762   -0.3002 H   0  0  0  0  0  0  0  0  0  0  0  0
   -0.2924    0.7173    0.1852 C   0  0  1  0  0  0  0  0  0  0  0  0
    0.0141    0.6686   -0.8661 H   0  0  0  0  0  0  0  0  0  0  0  0
   -0.6501    2.1742    0.5247 C   0  0  0  0  0  0  0  0  0  0  0  0
   -1.0601    2.2294    1.5373 H   0  0  0  0  0  0  0  0  0  0  0  0
    0.2525    2.7934    0.4962 H   0  0  0  0  0  0  0  0  0  0  0  0
   -1.6338    2.7347   -0.4588 C   0  0  0  0  0  0  0  0  0  0  0  0
   -1.3087    3.1184   -1.7512 N   0  0  0  0  0  0  0  0  0  0  0  0
   -2.4018    3.6082   -2.2843 C   0  0  0  0  0  0  0  0  0  0  0  0
   -2.4777    4.0024   -3.2938 H   0  0  0  0  0  0  0  0  0  0  0  0
   -3.4376    3.5490   -1.3700 N   0  0  0  0  0  0  0  0  0  0  0  0
   -4.3811    3.8981   -1.5302 H   0  0  0  0  0  0  0  0  0  0  0  0
   -2.9498    3.0026   -0.2011 C   0  0  0  0  0  0  0  0  0  0  0  0
   -3.4745    2.8364    0.7352 H   0  0  0  0  0  0  0  0  0  0  0  0
    0.9657    0.3311    1.0058 C   0  0  0  0  0  0  0  0  0  0  0  0
    2.0481    0.2670    0.4357 O   0  0  0  0  0  0  0  0  0  0  0  0
    0.9297    0.3066    2.3892 N   0  0  0  0  0  0  0  0  0  0  0  0
    0.0222    0.0387    2.7632 H   0  0  0  0  0  0  0  0  0  0  0  0
    2.1008   -0.0468    3.1807 C   0  0  0  0  0  0  0  0  0  0  0  0
    2.9231    0.6487    2.9824 H   0  0  0  0  0  0  0  0  0  0  0  0
    1.8619   -0.0010    4.2473 H   0  0  0  0  0  0  0  0  0  0  0  0
    2.4318   -1.0626    2.9405 H   0  0  0  0  0  0  0  0  0  0  0  0
  1  2  1  0  0  0  0
  2  3  1  0  0  0  0
  2  4  1  0  0  0  0
  2  5  1  0  0  0  0
  5  6  2  0  0  0  0
  5  7  1  0  0  0  0
  7  8  1  0  0  0  0
  7  9  1  0  0  0  0
  9 10  1  0  0  0  0
  9 11  1  0  0  0  0
  9 22  1  0  0  0  0
 11 12  1  0  0  0  0
 11 13  1  0  0  0  0
 11 14  1  0  0  0  0
 14 15  1  0  0  0  0
 14 20  2  0  0  0  0
 15 16  2  0  0  0  0
 16 17  1  0  0  0  0
 16 18  1  0  0  0  0
 18 19  1  0  0  0  0
 18 20  1  0  0  0  0
 20 21  1  0  0  0  0
 22 23  2  0  0  0  0
 22 24  1  0  0  0  0
 24 25  1  0  0  0  0
 24 26  1  0  0  0  0
 26 27  1  0  0  0  0
 26 28  1  0  0  0  0
 26 29  1  0  0  0  0
M  END
$$$$

  -OEChem-01062216083D

 29 29  0     1  0  0  0  0  0999 V2000
   -3.0447   -3.0714    1.0426 H   0  0  0  0  0  0  0  0  0  0  0  0
   -3.0575   -2.0698    0.6029 C   0  0  0  0  0  0  0  0  0  0  0  0
   -3.8580   -1.4912    1.0700 H   0  0  0  0  0  0  0  0  0  0  0  0
   -3.2578   -2.1605   -0.4674 H   0  0  0  0  0  0  0  0  0  0  0  0
   -1.7221   -1.3838    0.8242 C   0  0  0  0  0  0  0  0  0  0  0  0
   -0.8811   -1.9445    1.5011 O   0  0  0  0  0  0  0  0  0  0  0  0
   -1.5270   -0.1258    0.2855 N   0  0  0  0  0  0  0  0  0  0  0  0
   -2.2998    0.2031   -0.2864 H   0  0  0  0  0  0  0  0  0  0  0  0
   -0.2872    0.6833    0.1803 C   0  0  1  0  0  0  0  0  0  0  0  0
    0.0324    0.6498   -0.8675 H   0  0  0  0  0  0  0  0  0  0  0  0
   -0.6610    2.1321    0.5375 C   0  0  0  0  0  0  0  0  0  0  0  0
   -1.0860    2.1661    1.5450 H   0  0  0  0  0  0  0  0  0  0  0  0
    0.2369    2.7591    0.5341 H   0  0  0  0  0  0  0  0  0  0  0  0
   -1.6310    2.7064   -0.4520 C   0  0  0  0  0  0  0  0  0  0  0  0
   -1.2903    3.1171   -1.7320 N   0  0  0  0  0  0  0  0  0  0  0  0
   -2.3774    3.6159   -2.2691 C   0  0  0  0  0  0  0  0  0  0  0  0
   -2.4409    4.0314   -3.2711 H   0  0  0  0  0  0  0  0  0  0  0  0
   -3.4250    3.5353   -1.3702 N   0  0  0  0  0  0  0  0  0  0  0  0
   -4.3670    3.8864   -1.5357 H   0  0  0  0  0  0  0  0  0  0  0  0
   -2.9508    2.9667   -0.2062 C   0  0  0  0  0  0  0  0  0  0  0  0
   -3.4864    2.7837    0.7207 H   0  0  0  0  0  0  0  0  0  0  0  0
    0.9755    0.3211    1.0086 C   0  0  0  0  0  0  0  0  0  0  0  0
    2.0772    0.5464    0.5224 O   0  0  0  0  0  0  0  0  0  0  0  0
    0.8978   -0.0066    2.3501 N   0  0  0  0  0  0  0  0  0  0  0  0
    0.0391   -0.5032    2.5888 H   0  0  0  0  0  0  0  0  0  0  0  0
    2.0826   -0.3229    3.1379 C   0  0  0  0  0  0  0  0  0  0  0  0
    2.7711    0.5285    3.1560 H   0  0  0  0  0  0  0  0  0  0  0  0
    1.7974   -0.5559    4.1681 H   0  0  0  0  0  0  0  0  0  0  0  0
    2.6030   -1.1891    2.7160 H   0  0  0  0  0  0  0  0  0  0  0  0
  1  2  1  0  0  0  0
  2  3  1  0  0  0  0
  2  4  1  0  0  0  0
  2  5  1  0  0  0  0
  5  6  2  0  0  0  0
  5  7  1  0  0  0  0
  7  8  1  0  0  0  0
  7  9  1  0  0  0  0
  9 10  1  0  0  0  0
  9 11  1  0  0  0  0
  9 22  1  0  0  0  0
 11 12  1  0  0  0  0
 11 13  1  0  0  0  0
 11 14  1  0  0  0  0
 14 15  1  0  0  0  0
 14 20  2  0  0  0  0
 15 16  2  0  0  0  0
 16 17  1  0  0  0  0
 16 18  1  0  0  0  0
 18 19  1  0  0  0  0
 18 20  1  0  0  0  0
 20 21  1  0  0  0  0
 22 23  2  0  0  0  0
 22 24  1  0  0  0  0
 24 25  1  0  0  0  0
 24 26  1  0  0  0  0
 26 27  1  0  0  0  0
 26 28  1  0  0  0  0
 26 29  1  0  0  0  0
M  END
$$$$

  -OEChem-01062216083D

 29 29  0     1  0  0  0  0  0999 V2000
   -3.1725   -3.0189    0.9738 H   0  0  0  0  0  0  0  0  0  0  0  0
   -3.1492   -1.9950    0.5892 C   0  0  0  0  0  0  0  0  0  0  0  0
   -3.8795   -1.3964    1.1391 H   0  0  0  0  0  0  0  0  0  0  0  0
   -3.4232   -2.0129   -0.4687 H   0  0  0  0  0  0  0  0  0  0  0  0
   -1.7616   -1.4040    0.7572 C   0  0  0  0  0  0  0  0  0  0  0  0
   -0.9137   -2.0626    1.3285 O   0  0  0  0  0  0  0  0  0  0  0  0
   -1.5210   -0.1402    0.2519 N   0  0  0  0  0  0  0  0  0  0  0  0
   -2.3062    0.2519   -0.2602 H   0  0  0  0  0  0  0  0  0  0  0  0
   -0.2771    0.6693    0.1865 C   0  0  1  0  0  0  0  0  0  0  0  0
    0.0596    0.6559   -0.8563 H   0  0  0  0  0  0  0  0  0  0  0  0
   -0.6824    2.1067    0.5624 C   0  0  0  0  0  0  0  0  0  0  0  0
   -1.1310    2.1150    1.5604 H   0  0  0  0  0  0  0  0  0  0  0  0
    0.2026    2.7506    0.5921 H   0  0  0  0  0  0  0  0  0  0  0  0
   -1.6367    2.6838   -0.4409 C   0  0  0  0  0  0  0  0  0  0  0  0
   -1.2730    3.1238   -1.7044 N   0  0  0  0  0  0  0  0  0  0  0  0
   -2.3568    3.6075   -2.2610 C   0  0  0  0  0  0  0  0  0  0  0  0
   -2.4038    4.0381   -3.2573 H   0  0  0  0  0  0  0  0  0  0  0  0
   -3.4248    3.4892   -1.3907 N   0  0  0  0  0  0  0  0  0  0  0  0
   -4.3701    3.8209   -1.5754 H   0  0  0  0  0  0  0  0  0  0  0  0
   -2.9677    2.9122   -0.2241 C   0  0  0  0  0  0  0  0  0  0  0  0
   -3.5227    2.7027    0.6856 H   0  0  0  0  0  0  0  0  0  0  0  0
    0.9884    0.3244    1.0232 C   0  0  0  0  0  0  0  0  0  0  0  0
    2.0658    0.7722    0.6490 O   0  0  0  0  0  0  0  0  0  0  0  0
    0.9386   -0.2974    2.2567 N   0  0  0  0  0  0  0  0  0  0  0  0
    0.1267   -0.9049    2.3776 H   0  0  0  0  0  0  0  0  0  0  0  0
    2.1377   -0.6319    3.0146 C   0  0  0  0  0  0  0  0  0  0  0  0
    2.7290    0.2672    3.2168 H   0  0  0  0  0  0  0  0  0  0  0  0
    1.8629   -1.0842    3.9722 H   0  0  0  0  0  0  0  0  0  0  0  0
    2.7558   -1.3436    2.4575 H   0  0  0  0  0  0  0  0  0  0  0  0
  1  2  1  0  0  0  0
  2  3  1  0  0  0  0
  2  4  1  0  0  0  0
  2  5  1  0  0  0  0
  5  6  2  0  0  0  0
  5  7  1  0  0  0  0
  7  8  1  0  0  0  0
  7  9  1  0  0  0  0
  9 10  1  0  0  0  0
  9 11  1  0  0  0  0
  9 22  1  0  0  0  0
 11 12  1  0  0  0  0
 11 13  1  0  0  0  0
 11 14  1  0  0  0  0
 14 15  1  0  0  0  0
 14 20  2  0  0  0  0
 15 16  2  0  0  0  0
 16 17  1  0  0  0  0
 16 18  1  0  0  0  0
 18 19  1  0  0  0  0
 18 20  1  0  0  0  0
 20 21  1  0  0  0  0
 22 23  2  0  0  0  0
 22 24  1  0  0  0  0
 24 25  1  0  0  0  0
 24 26  1  0  0  0  0
 26 27  1  0  0  0  0
 26 28  1  0  0  0  0
 26 29  1  0  0  0  0
M  END
$$$$

  -OEChem-01062216083D

 29 29  0     1  0  0  0  0  0999 V2000
   -3.2855   -2.9630    0.9699 H   0  0  0  0  0  0  0  0  0  0  0  0
   -3.2224   -1.9387    0.5913 C   0  0  0  0  0  0  0  0  0  0  0  0
   -3.8952   -1.3068    1.1759 H   0  0  0  0  0  0  0  0  0  0  0  0
   -3.5412   -1.9317   -0.4539 H   0  0  0  0  0  0  0  0  0  0  0  0
   -1.7989   -1.4249    0.7035 C   0  0  0  0  0  0  0  0  0  0  0  0
   -0.9534   -2.1619    1.1730 O   0  0  0  0  0  0  0  0  0  0  0  0
   -1.5231   -0.1571    0.2271 N   0  0  0  0  0  0  0  0  0  0  0  0
   -2.3172    0.2846   -0.2274 H   0  0  0  0  0  0  0  0  0  0  0  0
   -0.2742    0.6496    0.1896 C   0  0  1  0  0  0  0  0  0  0  0  0
    0.0723    0.6503   -0.8500 H   0  0  0  0  0  0  0  0  0  0  0  0
   -0.7026    2.0807    0.5756 C   0  0  0  0  0  0  0  0  0  0  0  0
   -1.1686    2.0714    1.5654 H   0  0  0  0  0  0  0  0  0  0  0  0
    0.1717    2.7375    0.6293 H   0  0  0  0  0  0  0  0  0  0  0  0
   -1.6443    2.6636   -0.4370 C   0  0  0  0  0  0  0  0  0  0  0  0
   -1.2625    3.1248   -1.6875 N   0  0  0  0  0  0  0  0  0  0  0  0
   -2.3396    3.6102   -2.2555 C   0  0  0  0  0  0  0  0  0  0  0  0
   -2.3728    4.0552   -3.2460 H   0  0  0  0  0  0  0  0  0  0  0  0
   -3.4213    3.4727   -1.4049 N   0  0  0  0  0  0  0  0  0  0  0  0
   -4.3653    3.8024   -1.5999 H   0  0  0  0  0  0  0  0  0  0  0  0
   -2.9800    2.8818   -0.2391 C   0  0  0  0  0  0  0  0  0  0  0  0
   -3.5487    2.6593    0.6590 H   0  0  0  0  0  0  0  0  0  0  0  0
    0.9961    0.3110    1.0293 C   0  0  0  0  0  0  0  0  0  0  0  0
    2.0259    0.9285    0.7838 O   0  0  0  0  0  0  0  0  0  0  0  0
    1.0262   -0.5628    2.0990 N   0  0  0  0  0  0  0  0  0  0  0  0
    0.2537   -1.2297    2.1310 H   0  0  0  0  0  0  0  0  0  0  0  0
    2.2474   -0.9076    2.8163 C   0  0  0  0  0  0  0  0  0  0  0  0
    2.7105   -0.0105    3.2402 H   0  0  0  0  0  0  0  0  0  0  0  0
    2.0197   -1.5962    3.6354 H   0  0  0  0  0  0  0  0  0  0  0  0
    2.9633   -1.3915    2.1437 H   0  0  0  0  0  0  0  0  0  0  0  0
  1  2  1  0  0  0  0
  2  3  1  0  0  0  0
  2  4  1  0  0  0  0
  2  5  1  0  0  0  0
  5  6  2  0  0  0  0
  5  7  1  0  0  0  0
  7  8  1  0  0  0  0
  7  9  1  0  0  0  0
  9 10  1  0  0  0  0
  9 11  1  0  0  0  0
  9 22  1  0  0  0  0
 11 12  1  0  0  0  0
 11 13  1  0  0  0  0
 11 14  1  0  0  0  0
 14 15  1  0  0  0  0
 14 20  2  0  0  0  0
 15 16  2  0  0  0  0
 16 17  1  0  0  0  0
 16 18  1  0  0  0  0
 18 19  1  0  0  0  0
 18 20  1  0  0  0  0
 20 21  1  0  0  0  0
 22 23  2  0  0  0  0
 22 24  1  0  0  0  0
 24 25  1  0  0  0  0
 24 26  1  0  0  0  0
 26 27  1  0  0  0  0
 26 28  1  0  0  0  0
 26 29  1  0  0  0  0
M  END
$$$$

  -OEChem-01062216083D

 29 29  0     1  0  0  0  0  0999 V2000
   -2.9663   -3.0348    1.0530 H   0  0  0  0  0  0  0  0  0  0  0  0
   -2.9695   -1.9860    0.7422 C   0  0  0  0  0  0  0  0  0  0  0  0
   -3.6495   -1.4300    1.3920 H   0  0  0  0  0  0  0  0  0  0  0  0
   -3.3286   -1.9276   -0.2882 H   0  0  0  0  0  0  0  0  0  0  0  0
   -1.5701   -1.4058    0.8399 C   0  0  0  0  0  0  0  0  0  0  0  0
   -0.6782   -2.1327    1.2210 O   0  0  0  0  0  0  0  0  0  0  0  0
   -1.3727   -0.1215    0.3710 N   0  0  0  0  0  0  0  0  0  0  0  0
   -2.2040    0.2693   -0.0604 H   0  0  0  0  0  0  0  0  0  0  0  0
   -0.2420    0.8386    0.4735 C   0  0  1  0  0  0  0  0  0  0  0  0
    0.2485    0.8425   -0.5056 H   0  0  0  0  0  0  0  0  0  0  0  0
   -0.9286    2.2107    0.6838 C   0  0  0  0  0  0  0  0  0  0  0  0
   -1.5442    2.1795    1.5874 H   0  0  0  0  0  0  0  0  0  0  0  0
   -0.1868    3.0032    0.8199 H   0  0  0  0  0  0  0  0  0  0  0  0
   -1.7586    2.5984   -0.5052 C   0  0  0  0  0  0  0  0  0  0  0  0
   -1.2364    3.0528   -1.7068 N   0  0  0  0  0  0  0  0  0  0  0  0
   -2.2582    3.3470   -2.4734 C   0  0  0  0  0  0  0  0  0  0  0  0
   -2.1837    3.7357   -3.4852 H   0  0  0  0  0  0  0  0  0  0  0  0
   -3.4391    3.0932   -1.8003 N   0  0  0  0  0  0  0  0  0  0  0  0
   -4.3721    3.2717   -2.1680 H   0  0  0  0  0  0  0  0  0  0  0  0
   -3.1259    2.6291   -0.5396 C   0  0  0  0  0  0  0  0  0  0  0  0
   -3.8037    2.3708    0.2689 H   0  0  0  0  0  0  0  0  0  0  0  0
    0.9487    0.6987    1.4854 C   0  0  0  0  0  0  0  0  0  0  0  0
    1.6501    1.6698    1.7333 O   0  0  0  0  0  0  0  0  0  0  0  0
    1.1768   -0.2774    2.4226 N   0  0  0  0  0  0  0  0  0  0  0  0
    1.5579    0.1579    3.2574 H   0  0  0  0  0  0  0  0  0  0  0  0
    1.9914   -1.4093    1.9931 C   0  0  0  0  0  0  0  0  0  0  0  0
    3.0520   -1.1921    2.1538 H   0  0  0  0  0  0  0  0  0  0  0  0
    1.7255   -2.3019    2.5678 H   0  0  0  0  0  0  0  0  0  0  0  0
    1.8453   -1.6282    0.9297 H   0  0  0  0  0  0  0  0  0  0  0  0
  1  2  1  0  0  0  0
  2  3  1  0  0  0  0
  2  4  1  0  0  0  0
  2  5  1  0  0  0  0
  5  6  2  0  0  0  0
  5  7  1  0  0  0  0
  7  8  1  0  0  0  0
  7  9  1  0  0  0  0
  9 10  1  0  0  0  0
  9 11  1  0  0  0  0
  9 22  1  0  0  0  0
 11 12  1  0  0  0  0
 11 13  1  0  0  0  0
 11 14  1  0  0  0  0
 14 15  1  0  0  0  0
 14 20  2  0  0  0  0
 15 16  2  0  0  0  0
 16 17  1  0  0  0  0
 16 18  1  0  0  0  0
 18 19  1  0  0  0  0
 18 20  1  0  0  0  0
 20 21  1  0  0  0  0
 22 23  2  0  0  0  0
 22 24  1  0  0  0  0
 24 25  1  0  0  0  0
 24 26  1  0  0  0  0
 26 27  1  0  0  0  0
 26 28  1  0  0  0  0
 26 29  1  0  0  0  0
M  END
$$$$

  -OEChem-01062216083D

 29 29  0     1  0  0  0  0  0999 V2000
   -2.7727   -3.0223    1.3526 H   0  0  0  0  0  0  0  0  0  0  0  0
   -2.8198   -1.9935    0.9835 C   0  0  0  0  0  0  0  0  0  0  0  0
   -3.2304   -1.3572    1.7709 H   0  0  0  0  0  0  0  0  0  0  0  0
   -3.4817   -1.9622    0.1147 H   0  0  0  0  0  0  0  0  0  0  0  0
   -1.4340   -1.5123    0.5952 C   0  0  0  0  0  0  0  0  0  0  0  0
   -0.5297   -2.3217    0.5620 O   0  0  0  0  0  0  0  0  0  0  0  0
   -1.3010   -0.2229    0.1207 N   0  0  0  0  0  0  0  0  0  0  0  0
   -2.1891    0.2538    0.0020 H   0  0  0  0  0  0  0  0  0  0  0  0
   -0.1116    0.6403   -0.0981 C   0  0  1  0  0  0  0  0  0  0  0  0
    0.0512    0.6704   -1.1811 H   0  0  0  0  0  0  0  0  0  0  0  0
   -0.5530    2.0419    0.3809 C   0  0  0  0  0  0  0  0  0  0  0  0
   -0.8554    1.9951    1.4309 H   0  0  0  0  0  0  0  0  0  0  0  0
    0.2780    2.7510    0.3099 H   0  0  0  0  0  0  0  0  0  0  0  0
   -1.6714    2.5852   -0.4597 C   0  0  0  0  0  0  0  0  0  0  0  0
   -1.5122    3.0841   -1.7429 N   0  0  0  0  0  0  0  0  0  0  0  0
   -2.6893    3.5117   -2.1296 C   0  0  0  0  0  0  0  0  0  0  0  0
   -2.8996    3.9637   -3.0948 H   0  0  0  0  0  0  0  0  0  0  0  0
   -3.6173    3.3046   -1.1253 N   0  0  0  0  0  0  0  0  0  0  0  0
   -4.5971    3.5809   -1.1678 H   0  0  0  0  0  0  0  0  0  0  0  0
   -2.9701    2.7262   -0.0532 C   0  0  0  0  0  0  0  0  0  0  0  0
   -3.3821    2.4618    0.9162 H   0  0  0  0  0  0  0  0  0  0  0  0
    1.3129    0.3743    0.4953 C   0  0  0  0  0  0  0  0  0  0  0  0
    2.2189    1.1332    0.1825 O   0  0  0  0  0  0  0  0  0  0  0  0
    1.8406   -0.7565    1.0679 N   0  0  0  0  0  0  0  0  0  0  0  0
    2.8499   -0.7638    0.9504 H   0  0  0  0  0  0  0  0  0  0  0  0
    1.3961   -1.1508    2.3989 C   0  0  0  0  0  0  0  0  0  0  0  0
    2.0855   -0.7609    3.1541 H   0  0  0  0  0  0  0  0  0  0  0  0
    0.3961   -0.7647    2.6195 H   0  0  0  0  0  0  0  0  0  0  0  0
    1.3718   -2.2422    2.4785 H   0  0  0  0  0  0  0  0  0  0  0  0
  1  2  1  0  0  0  0
  2  3  1  0  0  0  0
  2  4  1  0  0  0  0
  2  5  1  0  0  0  0
  5  6  2  0  0  0  0
  5  7  1  0  0  0  0
  7  8  1  0  0  0  0
  7  9  1  0  0  0  0
  9 10  1  0  0  0  0
  9 11  1  0  0  0  0
  9 22  1  0  0  0  0
 11 12  1  0  0  0  0
 11 13  1  0  0  0  0
 11 14  1  0  0  0  0
 14 15  1  0  0  0  0
 14 20  2  0  0  0  0
 15 16  2  0  0  0  0
 16 17  1  0  0  0  0
 16 18  1  0  0  0  0
 18 19  1  0  0  0  0
 18 20  1  0  0  0  0
 20 21  1  0  0  0  0
 22 23  2  0  0  0  0
 22 24  1  0  0  0  0
 24 25  1  0  0  0  0
 24 26  1  0  0  0  0
 26 27  1  0  0  0  0
 26 28  1  0  0  0  0
 26 29  1  0  0  0  0
M  END
$$$$

  -OEChem-01062216083D

 29 29  0     1  0  0  0  0  0999 V2000
   -3.2672   -2.9539    0.9039 H   0  0  0  0  0  0  0  0  0  0  0  0
   -3.1836   -1.9357    0.5130 C   0  0  0  0  0  0  0  0  0  0  0  0
   -3.8377   -1.2828    1.0960 H   0  0  0  0  0  0  0  0  0  0  0  0
   -3.5105   -1.9327   -0.5298 H   0  0  0  0  0  0  0  0  0  0  0  0
   -1.7479   -1.4522    0.6080 C   0  0  0  0  0  0  0  0  0  0  0  0
   -0.9019   -2.2387    0.9850 O   0  0  0  0  0  0  0  0  0  0  0  0
   -1.4778   -0.1545    0.2142 N   0  0  0  0  0  0  0  0  0  0  0  0
   -2.2945    0.3194   -0.1603 H   0  0  0  0  0  0  0  0  0  0  0  0
   -0.2417    0.6756    0.1873 C   0  0  1  0  0  0  0  0  0  0  0  0
    0.0816    0.7191   -0.8581 H   0  0  0  0  0  0  0  0  0  0  0  0
   -0.7217    2.0874    0.6053 C   0  0  0  0  0  0  0  0  0  0  0  0
   -1.1815    2.0426    1.5969 H   0  0  0  0  0  0  0  0  0  0  0  0
    0.1182    2.7862    0.6633 H   0  0  0  0  0  0  0  0  0  0  0  0
   -1.6835    2.6542   -0.3976 C   0  0  0  0  0  0  0  0  0  0  0  0
   -1.3164    3.1522   -1.6385 N   0  0  0  0  0  0  0  0  0  0  0  0
   -2.4100    3.6091   -2.1987 C   0  0  0  0  0  0  0  0  0  0  0  0
   -2.4577    4.0721   -3.1802 H   0  0  0  0  0  0  0  0  0  0  0  0
   -3.4873    3.4156   -1.3533 N   0  0  0  0  0  0  0  0  0  0  0  0
   -4.4417    3.7175   -1.5427 H   0  0  0  0  0  0  0  0  0  0  0  0
   -3.0265    2.8192   -0.1979 C   0  0  0  0  0  0  0  0  0  0  0  0
   -3.5875    2.5604    0.6954 H   0  0  0  0  0  0  0  0  0  0  0  0
    1.0677    0.2984    0.9632 C   0  0  0  0  0  0  0  0  0  0  0  0
    1.8341    1.1858    1.3224 O   0  0  0  0  0  0  0  0  0  0  0  0
    1.4745   -0.9914    1.2410 N   0  0  0  0  0  0  0  0  0  0  0  0
    0.7932   -1.7293    1.0556 H   0  0  0  0  0  0  0  0  0  0  0  0
    2.6750   -1.3318    1.9946 C   0  0  0  0  0  0  0  0  0  0  0  0
    2.6281   -0.9082    3.0031 H   0  0  0  0  0  0  0  0  0  0  0  0
    2.7689   -2.4186    2.0791 H   0  0  0  0  0  0  0  0  0  0  0  0
    3.5671   -0.9470    1.4896 H   0  0  0  0  0  0  0  0  0  0  0  0
  1  2  1  0  0  0  0
  2  3  1  0  0  0  0
  2  4  1  0  0  0  0
  2  5  1  0  0  0  0
  5  6  2  0  0  0  0
  5  7  1  0  0  0  0
  7  8  1  0  0  0  0
  7  9  1  0  0  0  0
  9 10  1  0  0  0  0
  9 11  1  0  0  0  0
  9 22  1  0  0  0  0
 11 12  1  0  0  0  0
 11 13  1  0  0  0  0
 11 14  1  0  0  0  0
 14 15  1  0  0  0  0
 14 20  2  0  0  0  0
 15 16  2  0  0  0  0
 16 17  1  0  0  0  0
 16 18  1  0  0  0  0
 18 19  1  0  0  0  0
 18 20  1  0  0  0  0
 20 21  1  0  0  0  0
 22 23  2  0  0  0  0
 22 24  1  0  0  0  0
 24 25  1  0  0  0  0
 24 26  1  0  0  0  0
 26 27  1  0  0  0  0
 26 28  1  0  0  0  0
 26 29  1  0  0  0  0
M  END
$$$$

  -OEChem-01062216083D

 29 29  0     1  0  0  0  0  0999 V2000
   -3.2077   -2.9242    1.0976 H   0  0  0  0  0  0  0  0  0  0  0  0
   -3.1595   -1.8982    0.7208 C   0  0  0  0  0  0  0  0  0  0  0  0
   -3.7607   -1.2583    1.3710 H   0  0  0  0  0  0  0  0  0  0  0  0
   -3.5762   -1.8758   -0.2891 H   0  0  0  0  0  0  0  0  0  0  0  0
   -1.7214   -1.4131    0.7002 C   0  0  0  0  0  0  0  0  0  0  0  0
   -0.8462   -2.1899    1.0287 O   0  0  0  0  0  0  0  0  0  0  0  0
   -1.4751   -0.1282    0.2531 N   0  0  0  0  0  0  0  0  0  0  0  0
   -2.3107    0.3499   -0.0709 H   0  0  0  0  0  0  0  0  0  0  0  0
   -0.2307    0.6797    0.1446 C   0  0  1  0  0  0  0  0  0  0  0  0
    0.0515    0.6796   -0.9134 H   0  0  0  0  0  0  0  0  0  0  0  0
   -0.6487    2.1199    0.5254 C   0  0  0  0  0  0  0  0  0  0  0  0
   -1.0630    2.1301    1.5379 H   0  0  0  0  0  0  0  0  0  0  0  0
    0.2175    2.7888    0.5158 H   0  0  0  0  0  0  0  0  0  0  0  0
   -1.6373    2.6769   -0.4561 C   0  0  0  0  0  0  0  0  0  0  0  0
   -1.3086    3.1133   -1.7308 N   0  0  0  0  0  0  0  0  0  0  0  0
   -2.4099    3.5873   -2.2610 C   0  0  0  0  0  0  0  0  0  0  0  0
   -2.4855    4.0150   -3.2568 H   0  0  0  0  0  0  0  0  0  0  0  0
   -3.4546    3.4647   -1.3633 N   0  0  0  0  0  0  0  0  0  0  0  0
   -4.4058    3.7922   -1.5238 H   0  0  0  0  0  0  0  0  0  0  0  0
   -2.9638    2.8973   -0.2057 C   0  0  0  0  0  0  0  0  0  0  0  0
   -3.4928    2.6937    0.7210 H   0  0  0  0  0  0  0  0  0  0  0  0
    1.0897    0.2720    0.8816 C   0  0  0  0  0  0  0  0  0  0  0  0
    1.7775    1.1243    1.4347 O   0  0  0  0  0  0  0  0  0  0  0  0
    1.5800   -1.0194    0.8940 N   0  0  0  0  0  0  0  0  0  0  0  0
    0.8913   -1.7419    0.6739 H   0  0  0  0  0  0  0  0  0  0  0  0
    2.7677   -1.4220    1.6372 C   0  0  0  0  0  0  0  0  0  0  0  0
    2.6345   -1.2290    2.7067 H   0  0  0  0  0  0  0  0  0  0  0  0
    2.9534   -2.4912    1.4971 H   0  0  0  0  0  0  0  0  0  0  0  0
    3.6460   -0.8711    1.2850 H   0  0  0  0  0  0  0  0  0  0  0  0
  1  2  1  0  0  0  0
  2  3  1  0  0  0  0
  2  4  1  0  0  0  0
  2  5  1  0  0  0  0
  5  6  2  0  0  0  0
  5  7  1  0  0  0  0
  7  8  1  0  0  0  0
  7  9  1  0  0  0  0
  9 10  1  0  0  0  0
  9 11  1  0  0  0  0
  9 22  1  0  0  0  0
 11 12  1  0  0  0  0
 11 13  1  0  0  0  0
 11 14  1  0  0  0  0
 14 15  1  0  0  0  0
 14 20  2  0  0  0  0
 15 16  2  0  0  0  0
 16 17  1  0  0  0  0
 16 18  1  0  0  0  0
 18 19  1  0  0  0  0
 18 20  1  0  0  0  0
 20 21  1  0  0  0  0
 22 23  2  0  0  0  0
 22 24  1  0  0  0  0
 24 25  1  0  0  0  0
 24 26  1  0  0  0  0
 26 27  1  0  0  0  0
 26 28  1  0  0  0  0
 26 29  1  0  0  0  0
M  END
$$$$

  -OEChem-01062216083D

 29 29  0     1  0  0  0  0  0999 V2000
   -3.0330   -2.9636    1.1913 H   0  0  0  0  0  0  0  0  0  0  0  0
   -3.0447   -1.9414    0.8019 C   0  0  0  0  0  0  0  0  0  0  0  0
   -3.6214   -1.3138    1.4855 H   0  0  0  0  0  0  0  0  0  0  0  0
   -3.5282   -1.9441   -0.1780 H   0  0  0  0  0  0  0  0  0  0  0  0
   -1.6282   -1.4109    0.6798 C   0  0  0  0  0  0  0  0  0  0  0  0
   -0.7018   -2.1639    0.9136 O   0  0  0  0  0  0  0  0  0  0  0  0
   -1.4465   -0.1191    0.2227 N   0  0  0  0  0  0  0  0  0  0  0  0
   -2.3080    0.3536   -0.0327 H   0  0  0  0  0  0  0  0  0  0  0  0
   -0.2213    0.7127    0.1163 C   0  0  1  0  0  0  0  0  0  0  0  0
    0.0707    0.7194   -0.9392 H   0  0  0  0  0  0  0  0  0  0  0  0
   -0.6410    2.1490    0.5004 C   0  0  0  0  0  0  0  0  0  0  0  0
   -1.0521    2.1560    1.5144 H   0  0  0  0  0  0  0  0  0  0  0  0
    0.2292    2.8131    0.4917 H   0  0  0  0  0  0  0  0  0  0  0  0
   -1.6356    2.7048   -0.4749 C   0  0  0  0  0  0  0  0  0  0  0  0
   -1.3138    3.1441   -1.7507 N   0  0  0  0  0  0  0  0  0  0  0  0
   -2.4199    3.6132   -2.2758 C   0  0  0  0  0  0  0  0  0  0  0  0
   -2.5022    4.0400   -3.2716 H   0  0  0  0  0  0  0  0  0  0  0  0
   -3.4599    3.4864   -1.3732 N   0  0  0  0  0  0  0  0  0  0  0  0
   -4.4133    3.8103   -1.5288 H   0  0  0  0  0  0  0  0  0  0  0  0
   -2.9616    2.9199   -0.2184 C   0  0  0  0  0  0  0  0  0  0  0  0
   -3.4858    2.7132    0.7102 H   0  0  0  0  0  0  0  0  0  0  0  0
    1.0779    0.2944    0.8763 C   0  0  0  0  0  0  0  0  0  0  0  0
    1.6251    1.0697    1.6545 O   0  0  0  0  0  0  0  0  0  0  0  0
    1.7014   -0.9147    0.6321 N   0  0  0  0  0  0  0  0  0  0  0  0
    1.0670   -1.6388    0.2892 H   0  0  0  0  0  0  0  0  0  0  0  0
    2.8717   -1.3596    1.3787 C   0  0  0  0  0  0  0  0  0  0  0  0
    2.6345   -1.4518    2.4436 H   0  0  0  0  0  0  0  0  0  0  0  0
    3.2031   -2.3351    1.0107 H   0  0  0  0  0  0  0  0  0  0  0  0
    3.6967   -0.6494    1.2599 H   0  0  0  0  0  0  0  0  0  0  0  0
  1  2  1  0  0  0  0
  2  3  1  0  0  0  0
  2  4  1  0  0  0  0
  2  5  1  0  0  0  0
  5  6  2  0  0  0  0
  5  7  1  0  0  0  0
  7  8  1  0  0  0  0
  7  9  1  0  0  0  0
  9 10  1  0  0  0  0
  9 11  1  0  0  0  0
  9 22  1  0  0  0  0
 11 12  1  0  0  0  0
 11 13  1  0  0  0  0
 11 14  1  0  0  0  0
 14 15  1  0  0  0  0
 14 20  2  0  0  0  0
 15 16  2  0  0  0  0
 16 17  1  0  0  0  0
 16 18  1  0  0  0  0
 18 19  1  0  0  0  0
 18 20  1  0  0  0  0
 20 21  1  0  0  0  0
 22 23  2  0  0  0  0
 22 24  1  0  0  0  0
 24 25  1  0  0  0  0
 24 26  1  0  0  0  0
 26 27  1  0  0  0  0
 26 28  1  0  0  0  0
 26 29  1  0  0  0  0
M  END
$$$$

  -OEChem-01062216083D

 29 29  0     1  0  0  0  0  0999 V2000
   -2.8637   -2.9995    1.2672 H   0  0  0  0  0  0  0  0  0  0  0  0
   -2.9340   -1.9821    0.8717 C   0  0  0  0  0  0  0  0  0  0  0  0
   -3.4819   -1.3656    1.5882 H   0  0  0  0  0  0  0  0  0  0  0  0
   -3.4828   -2.0087   -0.0728 H   0  0  0  0  0  0  0  0  0  0  0  0
   -1.5463   -1.4103    0.6489 C   0  0  0  0  0  0  0  0  0  0  0  0
   -0.5792   -2.1366    0.7897 O   0  0  0  0  0  0  0  0  0  0  0  0
   -1.4278   -0.1157    0.1803 N   0  0  0  0  0  0  0  0  0  0  0  0
   -2.3106    0.3536    0.0047 H   0  0  0  0  0  0  0  0  0  0  0  0
   -0.2199    0.7375    0.0874 C   0  0  1  0  0  0  0  0  0  0  0  0
    0.0912    0.7553   -0.9625 H   0  0  0  0  0  0  0  0  0  0  0  0
   -0.6435    2.1679    0.4802 C   0  0  0  0  0  0  0  0  0  0  0  0
   -1.0601    2.1648    1.4919 H   0  0  0  0  0  0  0  0  0  0  0  0
    0.2298    2.8282    0.4838 H   0  0  0  0  0  0  0  0  0  0  0  0
   -1.6381    2.7287   -0.4911 C   0  0  0  0  0  0  0  0  0  0  0  0
   -1.3154    3.1784   -1.7631 N   0  0  0  0  0  0  0  0  0  0  0  0
   -2.4223    3.6487   -2.2855 C   0  0  0  0  0  0  0  0  0  0  0  0
   -2.5048    4.0825   -3.2781 H   0  0  0  0  0  0  0  0  0  0  0  0
   -3.4627    3.5140   -1.3846 N   0  0  0  0  0  0  0  0  0  0  0  0
   -4.4166    3.8365   -1.5391 H   0  0  0  0  0  0  0  0  0  0  0  0
   -2.9643    2.9407   -0.2333 C   0  0  0  0  0  0  0  0  0  0  0  0
   -3.4886    2.7272    0.6937 H   0  0  0  0  0  0  0  0  0  0  0  0
    1.0489    0.3085    0.8832 C   0  0  0  0  0  0  0  0  0  0  0  0
    1.4350    0.9608    1.8488 O   0  0  0  0  0  0  0  0  0  0  0  0
    1.8302   -0.7430    0.4403 N   0  0  0  0  0  0  0  0  0  0  0  0
    1.3042   -1.4438   -0.0813 H   0  0  0  0  0  0  0  0  0  0  0  0
    2.9933   -1.2104    1.1840 C   0  0  0  0  0  0  0  0  0  0  0  0
    2.6949   -1.5679    2.1750 H   0  0  0  0  0  0  0  0  0  0  0  0
    3.4767   -2.0326    0.6479 H   0  0  0  0  0  0  0  0  0  0  0  0
    3.7236   -0.4033    1.3045 H   0  0  0  0  0  0  0  0  0  0  0  0
  1  2  1  0  0  0  0
  2  3  1  0  0  0  0
  2  4  1  0  0  0  0
  2  5  1  0  0  0  0
  5  6  2  0  0  0  0
  5  7  1  0  0  0  0
  7  8  1  0  0  0  0
  7  9  1  0  0  0  0
  9 10  1  0  0  0  0
  9 11  1  0  0  0  0
  9 22  1  0  0  0  0
 11 12  1  0  0  0  0
 11 13  1  0  0  0  0
 11 14  1  0  0  0  0
 14 15  1  0  0  0  0
 14 20  2  0  0  0  0
 15 16  2  0  0  0  0
 16 17  1  0  0  0  0
 16 18  1  0  0  0  0
 18 19  1  0  0  0  0
 18 20  1  0  0  0  0
 20 21  1  0  0  0  0
 22 23  2  0  0  0  0
 22 24  1  0  0  0  0
 24 25  1  0  0  0  0
 24 26  1  0  0  0  0
 26 27  1  0  0  0  0
 26 28  1  0  0  0  0
 26 29  1  0  0  0  0
M  END
$$$$

  -OEChem-01062216083D

 29 29  0     1  0  0  0  0  0999 V2000
   -2.7333   -3.0273    1.3207 H   0  0  0  0  0  0  0  0  0  0  0  0
   -2.8481   -2.0146    0.9235 C   0  0  0  0  0  0  0  0  0  0  0  0
   -3.3798   -1.4083    1.6607 H   0  0  0  0  0  0  0  0  0  0  0  0
   -3.4370   -2.0616    0.0044 H   0  0  0  0  0  0  0  0  0  0  0  0
   -1.4867   -1.4079    0.6381 C   0  0  0  0  0  0  0  0  0  0  0  0
   -0.4933   -2.1062    0.7370 O   0  0  0  0  0  0  0  0  0  0  0  0
   -1.4179   -0.1137    0.1572 N   0  0  0  0  0  0  0  0  0  0  0  0
   -2.3140    0.3454    0.0295 H   0  0  0  0  0  0  0  0  0  0  0  0
   -0.2240    0.7563    0.0694 C   0  0  1  0  0  0  0  0  0  0  0  0
    0.0948    0.7794   -0.9781 H   0  0  0  0  0  0  0  0  0  0  0  0
   -0.6476    2.1836    0.4669 C   0  0  0  0  0  0  0  0  0  0  0  0
   -1.0672    2.1768    1.4776 H   0  0  0  0  0  0  0  0  0  0  0  0
    0.2276    2.8412    0.4770 H   0  0  0  0  0  0  0  0  0  0  0  0
   -1.6446    2.7456   -0.5012 C   0  0  0  0  0  0  0  0  0  0  0  0
   -1.3190    3.1976   -1.7717 N   0  0  0  0  0  0  0  0  0  0  0  0
   -2.4247    3.6706   -2.2944 C   0  0  0  0  0  0  0  0  0  0  0  0
   -2.5054    4.1056   -3.2866 H   0  0  0  0  0  0  0  0  0  0  0  0
   -3.4663    3.5370   -1.3945 N   0  0  0  0  0  0  0  0  0  0  0  0
   -4.4194    3.8614   -1.5496 H   0  0  0  0  0  0  0  0  0  0  0  0
   -2.9707    2.9591   -0.2443 C   0  0  0  0  0  0  0  0  0  0  0  0
   -3.4969    2.7433    0.6811 H   0  0  0  0  0  0  0  0  0  0  0  0
    1.0272    0.3273    0.8858 C   0  0  0  0  0  0  0  0  0  0  0  0
    1.2411    0.8027    1.9971 O   0  0  0  0  0  0  0  0  0  0  0  0
    1.9763   -0.4988    0.3113 N   0  0  0  0  0  0  0  0  0  0  0  0
    1.6289   -1.0718   -0.4534 H   0  0  0  0  0  0  0  0  0  0  0  0
    3.1202   -1.0028    1.0604 C   0  0  0  0  0  0  0  0  0  0  0  0
    2.7839   -1.6164    1.9027 H   0  0  0  0  0  0  0  0  0  0  0  0
    3.7532   -1.6168    0.4129 H   0  0  0  0  0  0  0  0  0  0  0  0
    3.7243   -0.1746    1.4453 H   0  0  0  0  0  0  0  0  0  0  0  0
  1  2  1  0  0  0  0
  2  3  1  0  0  0  0
  2  4  1  0  0  0  0
  2  5  1  0  0  0  0
  5  6  2  0  0  0  0
  5  7  1  0  0  0  0
  7  8  1  0  0  0  0
  7  9  1  0  0  0  0
  9 10  1  0  0  0  0
  9 11  1  0  0  0  0
  9 22  1  0  0  0  0
 11 12  1  0  0  0  0
 11 13  1  0  0  0  0
 11 14  1  0  0  0  0
 14 15  1  0  0  0  0
 14 20  2  0  0  0  0
 15 16  2  0  0  0  0
 16 17  1  0  0  0  0
 16 18  1  0  0  0  0
 18 19  1  0  0  0  0
 18 20  1  0  0  0  0
 20 21  1  0  0  0  0
 22 23  2  0  0  0  0
 22 24  1  0  0  0  0
 24 25  1  0  0  0  0
 24 26  1  0  0  0  0
 26 27  1  0  0  0  0
 26 28  1  0  0  0  0
 26 29  1  0  0  0  0
M  END
$$$$

  -OEChem-01062216083D

 29 29  0     1  0  0  0  0  0999 V2000
   -2.6580   -3.0401    1.3444 H   0  0  0  0  0  0  0  0  0  0  0  0
   -2.7986   -2.0247    0.9634 C   0  0  0  0  0  0  0  0  0  0  0  0
   -3.2919   -1.4270    1.7335 H   0  0  0  0  0  0  0  0  0  0  0  0
   -3.4356   -2.0661    0.0767 H   0  0  0  0  0  0  0  0  0  0  0  0
   -1.4571   -1.4099    0.6117 C   0  0  0  0  0  0  0  0  0  0  0  0
   -0.4558   -2.1040    0.6512 O   0  0  0  0  0  0  0  0  0  0  0  0
   -1.4170   -0.1171    0.1236 N   0  0  0  0  0  0  0  0  0  0  0  0
   -2.3180    0.3441    0.0565 H   0  0  0  0  0  0  0  0  0  0  0  0
   -0.2293    0.7609    0.0488 C   0  0  1  0  0  0  0  0  0  0  0  0
    0.0994    0.7901   -0.9952 H   0  0  0  0  0  0  0  0  0  0  0  0
   -0.6507    2.1840    0.4575 C   0  0  0  0  0  0  0  0  0  0  0  0
   -1.0748    2.1685    1.4664 H   0  0  0  0  0  0  0  0  0  0  0  0
    0.2259    2.8393    0.4778 H   0  0  0  0  0  0  0  0  0  0  0  0
   -1.6447    2.7532   -0.5086 C   0  0  0  0  0  0  0  0  0  0  0  0
   -1.3164    3.2143   -1.7752 N   0  0  0  0  0  0  0  0  0  0  0  0
   -2.4228    3.6862   -2.2979 C   0  0  0  0  0  0  0  0  0  0  0  0
   -2.5031    4.1256   -3.2883 H   0  0  0  0  0  0  0  0  0  0  0  0
   -3.4661    3.5453   -1.4012 N   0  0  0  0  0  0  0  0  0  0  0  0
   -4.4208    3.8645   -1.5577 H   0  0  0  0  0  0  0  0  0  0  0  0
   -2.9716    2.9623   -0.2532 C   0  0  0  0  0  0  0  0  0  0  0  0
   -3.4999    2.7387    0.6691 H   0  0  0  0  0  0  0  0  0  0  0  0
    1.0047    0.3315    0.8863 C   0  0  0  0  0  0  0  0  0  0  0  0
    1.0624    0.6040    2.0818 O   0  0  0  0  0  0  0  0  0  0  0  0
    2.1072   -0.2253    0.2633 N   0  0  0  0  0  0  0  0  0  0  0  0
    1.9406   -0.6089   -0.6623 H   0  0  0  0  0  0  0  0  0  0  0  0
    3.2533   -0.7253    1.0116 C   0  0  0  0  0  0  0  0  0  0  0  0
    2.9505   -1.5484    1.6676 H   0  0  0  0  0  0  0  0  0  0  0  0
    4.0213   -1.0921    0.3242 H   0  0  0  0  0  0  0  0  0  0  0  0
    3.6915    0.0709    1.6227 H   0  0  0  0  0  0  0  0  0  0  0  0
  1  2  1  0  0  0  0
  2  3  1  0  0  0  0
  2  4  1  0  0  0  0
  2  5  1  0  0  0  0
  5  6  2  0  0  0  0
  5  7  1  0  0  0  0
  7  8  1  0  0  0  0
  7  9  1  0  0  0  0
  9 10  1  0  0  0  0
  9 11  1  0  0  0  0
  9 22  1  0  0  0  0
 11 12  1  0  0  0  0
 11 13  1  0  0  0  0
 11 14  1  0  0  0  0
 14 15  1  0  0  0  0
 14 20  2  0  0  0  0
 15 16  2  0  0  0  0
 16 17  1  0  0  0  0
 16 18  1  0  0  0  0
 18 19  1  0  0  0  0
 18 20  1  0  0  0  0
 20 21  1  0  0  0  0
 22 23  2  0  0  0  0
 22 24  1  0  0  0  0
 24 25  1  0  0  0  0
 24 26  1  0  0  0  0
 26 27  1  0  0  0  0
 26 28  1  0  0  0  0
 26 29  1  0  0  0  0
M  END
$$$$

  -OEChem-01062216083D

 29 29  0     1  0  0  0  0  0999 V2000
   -2.6334   -3.0476    1.3649 H   0  0  0  0  0  0  0  0  0  0  0  0
   -2.7837   -2.0314    0.9896 C   0  0  0  0  0  0  0  0  0  0  0  0
   -3.2405   -1.4306    1.7798 H   0  0  0  0  0  0  0  0  0  0  0  0
   -3.4576   -2.0687    0.1304 H   0  0  0  0  0  0  0  0  0  0  0  0
   -1.4543   -1.4250    0.5811 C   0  0  0  0  0  0  0  0  0  0  0  0
   -0.4578   -2.1275    0.5614 O   0  0  0  0  0  0  0  0  0  0  0  0
   -1.4255   -0.1318    0.0933 N   0  0  0  0  0  0  0  0  0  0  0  0
   -2.3251    0.3362    0.0764 H   0  0  0  0  0  0  0  0  0  0  0  0
   -0.2374    0.7462    0.0358 C   0  0  1  0  0  0  0  0  0  0  0  0
    0.0994    0.7814   -1.0054 H   0  0  0  0  0  0  0  0  0  0  0  0
   -0.6550    2.1652    0.4583 C   0  0  0  0  0  0  0  0  0  0  0  0
   -1.0834    2.1394    1.4651 H   0  0  0  0  0  0  0  0  0  0  0  0
    0.2239    2.8167    0.4899 H   0  0  0  0  0  0  0  0  0  0  0  0
   -1.6418    2.7493   -0.5060 C   0  0  0  0  0  0  0  0  0  0  0  0
   -1.3006    3.2224   -1.7646 N   0  0  0  0  0  0  0  0  0  0  0  0
   -2.4013    3.7022   -2.2921 C   0  0  0  0  0  0  0  0  0  0  0  0
   -2.4714    4.1528   -3.2781 H   0  0  0  0  0  0  0  0  0  0  0  0
   -3.4531    3.5543   -1.4064 N   0  0  0  0  0  0  0  0  0  0  0  0
   -4.4065    3.8739   -1.5702 H   0  0  0  0  0  0  0  0  0  0  0  0
   -2.9703    2.9593   -0.2594 C   0  0  0  0  0  0  0  0  0  0  0  0
   -3.5078    2.7268    0.6554 H   0  0  0  0  0  0  0  0  0  0  0  0
    0.9849    0.3157    0.8871 C   0  0  0  0  0  0  0  0  0  0  0  0
    0.9302    0.3886    2.1113 O   0  0  0  0  0  0  0  0  0  0  0  0
    2.2000    0.0543    0.2798 N   0  0  0  0  0  0  0  0  0  0  0  0
    2.1782   -0.1108   -0.7220 H   0  0  0  0  0  0  0  0  0  0  0  0
    3.3725   -0.3811    1.0278 C   0  0  0  0  0  0  0  0  0  0  0  0
    3.1684   -1.3272    1.5402 H   0  0  0  0  0  0  0  0  0  0  0  0
    4.2191   -0.5277    0.3507 H   0  0  0  0  0  0  0  0  0  0  0  0
    3.6541    0.3706    1.7725 H   0  0  0  0  0  0  0  0  0  0  0  0
  1  2  1  0  0  0  0
  2  3  1  0  0  0  0
  2  4  1  0  0  0  0
  2  5  1  0  0  0  0
  5  6  2  0  0  0  0
  5  7  1  0  0  0  0
  7  8  1  0  0  0  0
  7  9  1  0  0  0  0
  9 10  1  0  0  0  0
  9 11  1  0  0  0  0
  9 22  1  0  0  0  0
 11 12  1  0  0  0  0
 11 13  1  0  0  0  0
 11 14  1  0  0  0  0
 14 15  1  0  0  0  0
 14 20  2  0  0  0  0
 15 16  2  0  0  0  0
 16 17  1  0  0  0  0
 16 18  1  0  0  0  0
 18 19  1  0  0  0  0
 18 20  1  0  0  0  0
 20 21  1  0  0  0  0
 22 23  2  0  0  0  0
 22 24  1  0  0  0  0
 24 25  1  0  0  0  0
 24 26  1  0  0  0  0
 26 27  1  0  0  0  0
 26 28  1  0  0  0  0
 26 29  1  0  0  0  0
M  END
$$$$

  -OEChem-01062216083D

 29 29  0     1  0  0  0  0  0999 V2000
   -2.6179   -3.0650    1.3688 H   0  0  0  0  0  0  0  0  0  0  0  0
   -2.7758   -2.0420    1.0156 C   0  0  0  0  0  0  0  0  0  0  0  0
   -3.1801   -1.4472    1.8380 H   0  0  0  0  0  0  0  0  0  0  0  0
   -3.4966   -2.0593    0.1948 H   0  0  0  0  0  0  0  0  0  0  0  0
   -1.4629   -1.4465    0.5427 C   0  0  0  0  0  0  0  0  0  0  0  0
   -0.4799   -2.1624    0.4488 O   0  0  0  0  0  0  0  0  0  0  0  0
   -1.4393   -0.1501    0.0628 N   0  0  0  0  0  0  0  0  0  0  0  0
   -2.3336    0.3264    0.0959 H   0  0  0  0  0  0  0  0  0  0  0  0
   -0.2463    0.7231    0.0256 C   0  0  1  0  0  0  0  0  0  0  0  0
    0.0987    0.7633   -1.0127 H   0  0  0  0  0  0  0  0  0  0  0  0
   -0.6557    2.1396    0.4616 C   0  0  0  0  0  0  0  0  0  0  0  0
   -1.0922    2.1045    1.4647 H   0  0  0  0  0  0  0  0  0  0  0  0
    0.2274    2.7846    0.5081 H   0  0  0  0  0  0  0  0  0  0  0  0
   -1.6303    2.7417   -0.5035 C   0  0  0  0  0  0  0  0  0  0  0  0
   -1.2746    3.2260   -1.7538 N   0  0  0  0  0  0  0  0  0  0  0  0
   -2.3683    3.7168   -2.2859 C   0  0  0  0  0  0  0  0  0  0  0  0
   -2.4287    4.1748   -3.2691 H   0  0  0  0  0  0  0  0  0  0  0  0
   -3.4277    3.5692   -1.4093 N   0  0  0  0  0  0  0  0  0  0  0  0
   -4.3780    3.8949   -1.5781 H   0  0  0  0  0  0  0  0  0  0  0  0
   -2.9590    2.9585   -0.2652 C   0  0  0  0  0  0  0  0  0  0  0  0
   -3.5059    2.7188    0.6419 H   0  0  0  0  0  0  0  0  0  0  0  0
    0.9685    0.2879    0.8840 C   0  0  0  0  0  0  0  0  0  0  0  0
    0.8403    0.1690    2.0989 O   0  0  0  0  0  0  0  0  0  0  0  0
    2.2442    0.3299    0.3495 N   0  0  0  0  0  0  0  0  0  0  0  0
    2.3172    0.3909   -0.6615 H   0  0  0  0  0  0  0  0  0  0  0  0
    3.4356   -0.0105    1.1169 C   0  0  0  0  0  0  0  0  0  0  0  0
    3.3756   -1.0432    1.4760 H   0  0  0  0  0  0  0  0  0  0  0  0
    4.3286    0.0890    0.4926 H   0  0  0  0  0  0  0  0  0  0  0  0
    3.5418    0.6571    1.9784 H   0  0  0  0  0  0  0  0  0  0  0  0
  1  2  1  0  0  0  0
  2  3  1  0  0  0  0
  2  4  1  0  0  0  0
  2  5  1  0  0  0  0
  5  6  2  0  0  0  0
  5  7  1  0  0  0  0
  7  8  1  0  0  0  0
  7  9  1  0  0  0  0
  9 10  1  0  0  0  0
  9 11  1  0  0  0  0
  9 22  1  0  0  0  0
 11 12  1  0  0  0  0
 11 13  1  0  0  0  0
 11 14  1  0  0  0  0
 14 15  1  0  0  0  0
 14 20  2  0  0  0  0
 15 16  2  0  0  0  0
 16 17  1  0  0  0  0
 16 18  1  0  0  0  0
 18 19  1  0  0  0  0
 18 20  1  0  0  0  0
 20 21  1  0  0  0  0
 22 23  2  0  0  0  0
 22 24  1  0  0  0  0
 24 25  1  0  0  0  0
 24 26  1  0  0  0  0
 26 27  1  0  0  0  0
 26 28  1  0  0  0  0
 26 29  1  0  0  0  0
M  END
$$$$

  -OEChem-01062216083D

 29 29  0     1  0  0  0  0  0999 V2000
   -2.6162   -3.0767    1.3619 H   0  0  0  0  0  0  0  0  0  0  0  0
   -2.7711   -2.0446    1.0348 C   0  0  0  0  0  0  0  0  0  0  0  0
   -3.1218   -1.4570    1.8865 H   0  0  0  0  0  0  0  0  0  0  0  0
   -3.5315   -2.0329    0.2506 H   0  0  0  0  0  0  0  0  0  0  0  0
   -1.4716   -1.4657    0.5078 C   0  0  0  0  0  0  0  0  0  0  0  0
   -0.5109   -2.1988    0.3413 O   0  0  0  0  0  0  0  0  0  0  0  0
   -1.4458   -0.1660    0.0379 N   0  0  0  0  0  0  0  0  0  0  0  0
   -2.3321    0.3198    0.1135 H   0  0  0  0  0  0  0  0  0  0  0  0
   -0.2456    0.6981    0.0171 C   0  0  1  0  0  0  0  0  0  0  0  0
    0.1044    0.7449   -1.0194 H   0  0  0  0  0  0  0  0  0  0  0  0
   -0.6546    2.1107    0.4680 C   0  0  0  0  0  0  0  0  0  0  0  0
   -1.0977    2.0627    1.4676 H   0  0  0  0  0  0  0  0  0  0  0  0
    0.2282    2.7546    0.5287 H   0  0  0  0  0  0  0  0  0  0  0  0
   -1.6212    2.7291   -0.4955 C   0  0  0  0  0  0  0  0  0  0  0  0
   -1.2498    3.2276   -1.7357 N   0  0  0  0  0  0  0  0  0  0  0  0
   -2.3351    3.7307   -2.2734 C   0  0  0  0  0  0  0  0  0  0  0  0
   -2.3818    4.2016   -3.2512 H   0  0  0  0  0  0  0  0  0  0  0  0
   -3.4045    3.5780   -1.4097 N   0  0  0  0  0  0  0  0  0  0  0  0
   -4.3519    3.9083   -1.5862 H   0  0  0  0  0  0  0  0  0  0  0  0
   -2.9512    2.9508   -0.2679 C   0  0  0  0  0  0  0  0  0  0  0  0
   -3.5096    2.7027    0.6300 H   0  0  0  0  0  0  0  0  0  0  0  0
    0.9686    0.2591    0.8761 C   0  0  0  0  0  0  0  0  0  0  0  0
    0.8037   -0.0439    2.0540 O   0  0  0  0  0  0  0  0  0  0  0  0
    2.2474    0.5928    0.4640 N   0  0  0  0  0  0  0  0  0  0  0  0
    2.3635    0.8733   -0.5054 H   0  0  0  0  0  0  0  0  0  0  0  0
    3.4361    0.3450    1.2706 C   0  0  0  0  0  0  0  0  0  0  0  0
    3.5224   -0.7209    1.5064 H   0  0  0  0  0  0  0  0  0  0  0  0
    4.3334    0.6531    0.7258 H   0  0  0  0  0  0  0  0  0  0  0  0
    3.3896    0.9111    2.2067 H   0  0  0  0  0  0  0  0  0  0  0  0
  1  2  1  0  0  0  0
  2  3  1  0  0  0  0
  2  4  1  0  0  0  0
  2  5  1  0  0  0  0
  5  6  2  0  0  0  0
  5  7  1  0  0  0  0
  7  8  1  0  0  0  0
  7  9  1  0  0  0  0
  9 10  1  0  0  0  0
  9 11  1  0  0  0  0
  9 22  1  0  0  0  0
 11 12  1  0  0  0  0
 11 13  1  0  0  0  0
 11 14  1  0  0  0  0
 14 15  1  0  0  0  0
 14 20  2  0  0  0  0
 15 16  2  0  0  0  0
 16 17  1  0  0  0  0
 16 18  1  0  0  0  0
 18 19  1  0  0  0  0
 18 20  1  0  0  0  0
 20 21  1  0  0  0  0
 22 23  2  0  0  0  0
 22 24  1  0  0  0  0
 24 25  1  0  0  0  0
 24 26  1  0  0  0  0
 26 27  1  0  0  0  0
 26 28  1  0  0  0  0
 26 29  1  0  0  0  0
M  END
$$$$

  -OEChem-01062216083D

 29 29  0     1  0  0  0  0  0999 V2000
   -2.6245   -3.0738    1.3466 H   0  0  0  0  0  0  0  0  0  0  0  0
   -2.7664   -2.0285    1.0579 C   0  0  0  0  0  0  0  0  0  0  0  0
   -3.0465   -1.4559    1.9452 H   0  0  0  0  0  0  0  0  0  0  0  0
   -3.5716   -1.9719    0.3219 H   0  0  0  0  0  0  0  0  0  0  0  0
   -1.4827   -1.4739    0.4701 C   0  0  0  0  0  0  0  0  0  0  0  0
   -0.5567   -2.2292    0.2240 O   0  0  0  0  0  0  0  0  0  0  0  0
   -1.4461   -0.1703    0.0128 N   0  0  0  0  0  0  0  0  0  0  0  0
   -2.3216    0.3268    0.1284 H   0  0  0  0  0  0  0  0  0  0  0  0
   -0.2352    0.6806    0.0044 C   0  0  1  0  0  0  0  0  0  0  0  0
    0.1170    0.7374   -1.0308 H   0  0  0  0  0  0  0  0  0  0  0  0
   -0.6480    2.0883    0.4730 C   0  0  0  0  0  0  0  0  0  0  0  0
   -1.0964    2.0253    1.4691 H   0  0  0  0  0  0  0  0  0  0  0  0
    0.2306    2.7362    0.5482 H   0  0  0  0  0  0  0  0  0  0  0  0
   -1.6093    2.7195   -0.4871 C   0  0  0  0  0  0  0  0  0  0  0  0
   -1.2293    3.2349   -1.7176 N   0  0  0  0  0  0  0  0  0  0  0  0
   -2.3130    3.7375   -2.2592 C   0  0  0  0  0  0  0  0  0  0  0  0
   -2.3548    4.2185   -3.2322 H   0  0  0  0  0  0  0  0  0  0  0  0
   -3.3887    3.5691   -1.4064 N   0  0  0  0  0  0  0  0  0  0  0  0
   -4.3375    3.8922   -1.5892 H   0  0  0  0  0  0  0  0  0  0  0  0
   -2.9421    2.9314   -0.2679 C   0  0  0  0  0  0  0  0  0  0  0  0
   -3.5080    2.6674    0.6207 H   0  0  0  0  0  0  0  0  0  0  0  0
    0.9833    0.2356    0.8583 C   0  0  0  0  0  0  0  0  0  0  0  0
    0.8119   -0.2507    1.9718 O   0  0  0  0  0  0  0  0  0  0  0  0
    2.2131    0.8266    0.6182 N   0  0  0  0  0  0  0  0  0  0  0  0
    2.3372    1.2932   -0.2757 H   0  0  0  0  0  0  0  0  0  0  0  0
    3.3722    0.6530    1.4857 C   0  0  0  0  0  0  0  0  0  0  0  0
    3.6170   -0.4095    1.5883 H   0  0  0  0  0  0  0  0  0  0  0  0
    4.2403    1.1690    1.0646 H   0  0  0  0  0  0  0  0  0  0  0  0
    3.1732    1.0670    2.4798 H   0  0  0  0  0  0  0  0  0  0  0  0
  1  2  1  0  0  0  0
  2  3  1  0  0  0  0
  2  4  1  0  0  0  0
  2  5  1  0  0  0  0
  5  6  2  0  0  0  0
  5  7  1  0  0  0  0
  7  8  1  0  0  0  0
  7  9  1  0  0  0  0
  9 10  1  0  0  0  0
  9 11  1  0  0  0  0
  9 22  1  0  0  0  0
 11 12  1  0  0  0  0
 11 13  1  0  0  0  0
 11 14  1  0  0  0  0
 14 15  1  0  0  0  0
 14 20  2  0  0  0  0
 15 16  2  0  0  0  0
 16 17  1  0  0  0  0
 16 18  1  0  0  0  0
 18 19  1  0  0  0  0
 18 20  1  0  0  0  0
 20 21  1  0  0  0  0
 22 23  2  0  0  0  0
 22 24  1  0  0  0  0
 24 25  1  0  0  0  0
 24 26  1  0  0  0  0
 26 27  1  0  0  0  0
 26 28  1  0  0  0  0
 26 29  1  0  0  0  0
M  END
$$$$

  -OEChem-01062216083D

 29 29  0     1  0  0  0  0  0999 V2000
   -2.7265   -2.9586    1.4161 H   0  0  0  0  0  0  0  0  0  0  0  0
   -2.8096   -1.9056    1.1320 C   0  0  0  0  0  0  0  0  0  0  0  0
   -2.9469   -1.3098    2.0374 H   0  0  0  0  0  0  0  0  0  0  0  0
   -3.6793   -1.7819    0.4823 H   0  0  0  0  0  0  0  0  0  0  0  0
   -1.5514   -1.4646    0.4078 C   0  0  0  0  0  0  0  0  0  0  0  0
   -0.7953   -2.3106   -0.0366 O   0  0  0  0  0  0  0  0  0  0  0  0
   -1.4377   -0.1566   -0.0207 N   0  0  0  0  0  0  0  0  0  0  0  0
   -2.2834    0.3792    0.1368 H   0  0  0  0  0  0  0  0  0  0  0  0
   -0.2013    0.6625   -0.0184 C   0  0  1  0  0  0  0  0  0  0  0  0
   -0.0076    0.9538   -1.0558 H   0  0  0  0  0  0  0  0  0  0  0  0
   -0.5348    1.9238    0.8082 C   0  0  0  0  0  0  0  0  0  0  0  0
   -0.8512    1.6277    1.8132 H   0  0  0  0  0  0  0  0  0  0  0  0
    0.3448    2.5640    0.9184 H   0  0  0  0  0  0  0  0  0  0  0  0
   -1.6042    2.7386    0.1467 C   0  0  0  0  0  0  0  0  0  0  0  0
   -1.3794    3.5251   -0.9728 N   0  0  0  0  0  0  0  0  0  0  0  0
   -2.5199    4.1118   -1.2484 C   0  0  0  0  0  0  0  0  0  0  0  0
   -2.6814    4.7981   -2.0752 H   0  0  0  0  0  0  0  0  0  0  0  0
   -3.4806    3.7311   -0.3292 N   0  0  0  0  0  0  0  0  0  0  0  0
   -4.4438    4.0634   -0.3169 H   0  0  0  0  0  0  0  0  0  0  0  0
   -2.8973    2.8651    0.5720 C   0  0  0  0  0  0  0  0  0  0  0  0
   -3.3485    2.3949    1.4410 H   0  0  0  0  0  0  0  0  0  0  0  0
    1.1446    0.0792    0.5089 C   0  0  0  0  0  0  0  0  0  0  0  0
    1.1756   -0.8021    1.3579 O   0  0  0  0  0  0  0  0  0  0  0  0
    2.2665    0.8945    0.4743 N   0  0  0  0  0  0  0  0  0  0  0  0
    2.2370    1.6956   -0.1499 H   0  0  0  0  0  0  0  0  0  0  0  0
    3.5190    0.5859    1.1566 C   0  0  0  0  0  0  0  0  0  0  0  0
    3.8917   -0.3967    0.8488 H   0  0  0  0  0  0  0  0  0  0  0  0
    4.2776    1.3351    0.9111 H   0  0  0  0  0  0  0  0  0  0  0  0
    3.3736    0.5836    2.2418 H   0  0  0  0  0  0  0  0  0  0  0  0
  1  2  1  0  0  0  0
  2  3  1  0  0  0  0
  2  4  1  0  0  0  0
  2  5  1  0  0  0  0
  5  6  2  0  0  0  0
  5  7  1  0  0  0  0
  7  8  1  0  0  0  0
  7  9  1  0  0  0  0
  9 10  1  0  0  0  0
  9 11  1  0  0  0  0
  9 22  1  0  0  0  0
 11 12  1  0  0  0  0
 11 13  1  0  0  0  0
 11 14  1  0  0  0  0
 14 15  1  0  0  0  0
 14 20  2  0  0  0  0
 15 16  2  0  0  0  0
 16 17  1  0  0  0  0
 16 18  1  0  0  0  0
 18 19  1  0  0  0  0
 18 20  1  0  0  0  0
 20 21  1  0  0  0  0
 22 23  2  0  0  0  0
 22 24  1  0  0  0  0
 24 25  1  0  0  0  0
 24 26  1  0  0  0  0
 26 27  1  0  0  0  0
 26 28  1  0  0  0  0
 26 29  1  0  0  0  0
M  END
$$$$

  -OEChem-01062216083D

 29 29  0     1  0  0  0  0  0999 V2000
   -2.5554   -3.1445    1.2451 H   0  0  0  0  0  0  0  0  0  0  0  0
   -2.6151   -2.2476    0.6220 C   0  0  0  0  0  0  0  0  0  0  0  0
   -3.6424   -1.8765    0.6322 H   0  0  0  0  0  0  0  0  0  0  0  0
   -2.3379   -2.5138   -0.4008 H   0  0  0  0  0  0  0  0  0  0  0  0
   -1.6718   -1.1846    1.1520 C   0  0  0  0  0  0  0  0  0  0  0  0
   -1.2149   -1.2896    2.2783 O   0  0  0  0  0  0  0  0  0  0  0  0
   -1.5772    0.0337    0.5099 N   0  0  0  0  0  0  0  0  0  0  0  0
   -2.2183    0.1011   -0.2738 H   0  0  0  0  0  0  0  0  0  0  0  0
   -0.3119    0.7736    0.2888 C   0  0  1  0  0  0  0  0  0  0  0  0
   -0.1788    0.9075   -0.7897 H   0  0  0  0  0  0  0  0  0  0  0  0
   -0.5410    2.1553    0.9357 C   0  0  0  0  0  0  0  0  0  0  0  0
   -0.7945    2.0237    1.9927 H   0  0  0  0  0  0  0  0  0  0  0  0
    0.3581    2.7731    0.8825 H   0  0  0  0  0  0  0  0  0  0  0  0
   -1.6347    2.9005    0.2317 C   0  0  0  0  0  0  0  0  0  0  0  0
   -1.4769    3.4995   -1.0106 N   0  0  0  0  0  0  0  0  0  0  0  0
   -2.6189    4.0848   -1.2849 C   0  0  0  0  0  0  0  0  0  0  0  0
   -2.8255    4.6476   -2.1908 H   0  0  0  0  0  0  0  0  0  0  0  0
   -3.5163    3.8805   -0.2527 N   0  0  0  0  0  0  0  0  0  0  0  0
   -4.4671    4.2443   -0.2192 H   0  0  0  0  0  0  0  0  0  0  0  0
   -2.8890    3.1323    0.7209 C   0  0  0  0  0  0  0  0  0  0  0  0
   -3.2826    2.7949    1.6760 H   0  0  0  0  0  0  0  0  0  0  0  0
    1.0275    0.1565    0.7945 C   0  0  0  0  0  0  0  0  0  0  0  0
    1.2267   -1.0484    0.6937 O   0  0  0  0  0  0  0  0  0  0  0  0
    2.1641    0.9457    0.8889 N   0  0  0  0  0  0  0  0  0  0  0  0
    2.0447    1.9505    0.8087 H   0  0  0  0  0  0  0  0  0  0  0  0
    3.5072    0.4141    1.0933 C   0  0  0  0  0  0  0  0  0  0  0  0
    3.8237   -0.1729    0.2248 H   0  0  0  0  0  0  0  0  0  0  0  0
    4.2193    1.2320    1.2373 H   0  0  0  0  0  0  0  0  0  0  0  0
    3.5348   -0.2269    1.9810 H   0  0  0  0  0  0  0  0  0  0  0  0
  1  2  1  0  0  0  0
  2  3  1  0  0  0  0
  2  4  1  0  0  0  0
  2  5  1  0  0  0  0
  5  6  2  0  0  0  0
  5  7  1  0  0  0  0
  7  8  1  0  0  0  0
  7  9  1  0  0  0  0
  9 10  1  0  0  0  0
  9 11  1  0  0  0  0
  9 22  1  0  0  0  0
 11 12  1  0  0  0  0
 11 13  1  0  0  0  0
 11 14  1  0  0  0  0
 14 15  1  0  0  0  0
 14 20  2  0  0  0  0
 15 16  2  0  0  0  0
 16 17  1  0  0  0  0
 16 18  1  0  0  0  0
 18 19  1  0  0  0  0
 18 20  1  0  0  0  0
 20 21  1  0  0  0  0
 22 23  2  0  0  0  0
 22 24  1  0  0  0  0
 24 25  1  0  0  0  0
 24 26  1  0  0  0  0
 26 27  1  0  0  0  0
 26 28  1  0  0  0  0
 26 29  1  0  0  0  0
M  END
$$$$

  -OEChem-01062216083D

 29 29  0     1  0  0  0  0  0999 V2000
   -2.5460   -3.1431    1.2454 H   0  0  0  0  0  0  0  0  0  0  0  0
   -2.6268   -2.2367    0.6385 C   0  0  0  0  0  0  0  0  0  0  0  0
   -3.6459   -1.8506    0.7132 H   0  0  0  0  0  0  0  0  0  0  0  0
   -2.4133   -2.4930   -0.4020 H   0  0  0  0  0  0  0  0  0  0  0  0
   -1.6376   -1.1951    1.1260 C   0  0  0  0  0  0  0  0  0  0  0  0
   -1.0888   -1.3430    2.2057 O   0  0  0  0  0  0  0  0  0  0  0  0
   -1.5691    0.0332    0.4973 N   0  0  0  0  0  0  0  0  0  0  0  0
   -2.2339    0.1143   -0.2653 H   0  0  0  0  0  0  0  0  0  0  0  0
   -0.3170    0.7918    0.2676 C   0  0  1  0  0  0  0  0  0  0  0  0
   -0.1890    0.9255   -0.8117 H   0  0  0  0  0  0  0  0  0  0  0  0
   -0.5490    2.1761    0.9065 C   0  0  0  0  0  0  0  0  0  0  0  0
   -0.7873    2.0545    1.9679 H   0  0  0  0  0  0  0  0  0  0  0  0
    0.3461    2.7976    0.8293 H   0  0  0  0  0  0  0  0  0  0  0  0
   -1.6543    2.9097    0.2072 C   0  0  0  0  0  0  0  0  0  0  0  0
   -1.5138    3.5012   -1.0404 N   0  0  0  0  0  0  0  0  0  0  0  0
   -2.6599    4.0824   -1.3053 C   0  0  0  0  0  0  0  0  0  0  0  0
   -2.8780    4.6389   -2.2124 H   0  0  0  0  0  0  0  0  0  0  0  0
   -3.5441    3.8835   -0.2610 N   0  0  0  0  0  0  0  0  0  0  0  0
   -4.4933    4.2501   -0.2165 H   0  0  0  0  0  0  0  0  0  0  0  0
   -2.9032    3.1433    0.7100 C   0  0  0  0  0  0  0  0  0  0  0  0
   -3.2846    2.8149    1.6730 H   0  0  0  0  0  0  0  0  0  0  0  0
    1.0167    0.1544    0.7612 C   0  0  0  0  0  0  0  0  0  0  0  0
    1.2748   -0.9989    0.4340 O   0  0  0  0  0  0  0  0  0  0  0  0
    2.0887    0.9338    1.1694 N   0  0  0  0  0  0  0  0  0  0  0  0
    1.9045    1.9093    1.3781 H   0  0  0  0  0  0  0  0  0  0  0  0
    3.4092    0.3921    1.4696 C   0  0  0  0  0  0  0  0  0  0  0  0
    3.8634   -0.0324    0.5682 H   0  0  0  0  0  0  0  0  0  0  0  0
    4.0650    1.1819    1.8480 H   0  0  0  0  0  0  0  0  0  0  0  0
    3.3374   -0.3916    2.2313 H   0  0  0  0  0  0  0  0  0  0  0  0
  1  2  1  0  0  0  0
  2  3  1  0  0  0  0
  2  4  1  0  0  0  0
  2  5  1  0  0  0  0
  5  6  2  0  0  0  0
  5  7  1  0  0  0  0
  7  8  1  0  0  0  0
  7  9  1  0  0  0  0
  9 10  1  0  0  0  0
  9 11  1  0  0  0  0
  9 22  1  0  0  0  0
 11 12  1  0  0  0  0
 11 13  1  0  0  0  0
 11 14  1  0  0  0  0
 14 15  1  0  0  0  0
 14 20  2  0  0  0  0
 15 16  2  0  0  0  0
 16 17  1  0  0  0  0
 16 18  1  0  0  0  0
 18 19  1  0  0  0  0
 18 20  1  0  0  0  0
 20 21  1  0  0  0  0
 22 23  2  0  0  0  0
 22 24  1  0  0  0  0
 24 25  1  0  0  0  0
 24 26  1  0  0  0  0
 26 27  1  0  0  0  0
 26 28  1  0  0  0  0
 26 29  1  0  0  0  0
M  END
$$$$

  -OEChem-01062216083D

 29 29  0     1  0  0  0  0  0999 V2000
   -2.5446   -3.1423    1.2374 H   0  0  0  0  0  0  0  0  0  0  0  0
   -2.6449   -2.2241    0.6518 C   0  0  0  0  0  0  0  0  0  0  0  0
   -3.6513   -1.8231    0.7923 H   0  0  0  0  0  0  0  0  0  0  0  0
   -2.4970   -2.4648   -0.4037 H   0  0  0  0  0  0  0  0  0  0  0  0
   -1.6114   -1.2075    1.0986 C   0  0  0  0  0  0  0  0  0  0  0  0
   -0.9877   -1.3980    2.1298 O   0  0  0  0  0  0  0  0  0  0  0  0
   -1.5593    0.0285    0.4824 N   0  0  0  0  0  0  0  0  0  0  0  0
   -2.2471    0.1274   -0.2574 H   0  0  0  0  0  0  0  0  0  0  0  0
   -0.3187    0.8027    0.2485 C   0  0  1  0  0  0  0  0  0  0  0  0
   -0.1977    0.9383   -0.8318 H   0  0  0  0  0  0  0  0  0  0  0  0
   -0.5478    2.1873    0.8856 C   0  0  0  0  0  0  0  0  0  0  0  0
   -0.7784    2.0691    1.9491 H   0  0  0  0  0  0  0  0  0  0  0  0
    0.3497    2.8057    0.7966 H   0  0  0  0  0  0  0  0  0  0  0  0
   -1.6610    2.9157    0.1931 C   0  0  0  0  0  0  0  0  0  0  0  0
   -1.5332    3.5039   -1.0574 N   0  0  0  0  0  0  0  0  0  0  0  0
   -2.6838    4.0785   -1.3165 C   0  0  0  0  0  0  0  0  0  0  0  0
   -2.9115    4.6301   -2.2244 H   0  0  0  0  0  0  0  0  0  0  0  0
   -3.5590    3.8790   -0.2647 N   0  0  0  0  0  0  0  0  0  0  0  0
   -4.5101    4.2402   -0.2151 H   0  0  0  0  0  0  0  0  0  0  0  0
   -2.9073    3.1456    0.7044 C   0  0  0  0  0  0  0  0  0  0  0  0
   -3.2806    2.8184    1.6707 H   0  0  0  0  0  0  0  0  0  0  0  0
    1.0148    0.1604    0.7293 C   0  0  0  0  0  0  0  0  0  0  0  0
    1.3508   -0.9117    0.2377 O   0  0  0  0  0  0  0  0  0  0  0  0
    1.9776    0.8776    1.4222 N   0  0  0  0  0  0  0  0  0  0  0  0
    1.6853    1.7523    1.8447 H   0  0  0  0  0  0  0  0  0  0  0  0
    3.2630    0.3108    1.8113 C   0  0  0  0  0  0  0  0  0  0  0  0
    3.8414    0.0279    0.9255 H   0  0  0  0  0  0  0  0  0  0  0  0
    3.8420    1.0431    2.3817 H   0  0  0  0  0  0  0  0  0  0  0  0
    3.1154   -0.5771    2.4354 H   0  0  0  0  0  0  0  0  0  0  0  0
  1  2  1  0  0  0  0
  2  3  1  0  0  0  0
  2  4  1  0  0  0  0
  2  5  1  0  0  0  0
  5  6  2  0  0  0  0
  5  7  1  0  0  0  0
  7  8  1  0  0  0  0
  7  9  1  0  0  0  0
  9 10  1  0  0  0  0
  9 11  1  0  0  0  0
  9 22  1  0  0  0  0
 11 12  1  0  0  0  0
 11 13  1  0  0  0  0
 11 14  1  0  0  0  0
 14 15  1  0  0  0  0
 14 20  2  0  0  0  0
 15 16  2  0  0  0  0
 16 17  1  0  0  0  0
 16 18  1  0  0  0  0
 18 19  1  0  0  0  0
 18 20  1  0  0  0  0
 20 21  1  0  0  0  0
 22 23  2  0  0  0  0
 22 24  1  0  0  0  0
 24 25  1  0  0  0  0
 24 26  1  0  0  0  0
 26 27  1  0  0  0  0
 26 28  1  0  0  0  0
 26 29  1  0  0  0  0
M  END
$$$$

  -OEChem-01062216083D

 29 29  0     1  0  0  0  0  0999 V2000
   -2.5576   -3.1418    1.2323 H   0  0  0  0  0  0  0  0  0  0  0  0
   -2.6690   -2.2137    0.6643 C   0  0  0  0  0  0  0  0  0  0  0  0
   -3.6592   -1.7957    0.8602 H   0  0  0  0  0  0  0  0  0  0  0  0
   -2.5790   -2.4432   -0.4002 H   0  0  0  0  0  0  0  0  0  0  0  0
   -1.5952   -1.2225    1.0717 C   0  0  0  0  0  0  0  0  0  0  0  0
   -0.9115   -1.4518    2.0554 O   0  0  0  0  0  0  0  0  0  0  0  0
   -1.5489    0.0178    0.4630 N   0  0  0  0  0  0  0  0  0  0  0  0
   -2.2562    0.1350   -0.2559 H   0  0  0  0  0  0  0  0  0  0  0  0
   -0.3165    0.8040    0.2295 C   0  0  1  0  0  0  0  0  0  0  0  0
   -0.1999    0.9420   -0.8510 H   0  0  0  0  0  0  0  0  0  0  0  0
   -0.5450    2.1872    0.8673 C   0  0  0  0  0  0  0  0  0  0  0  0
   -0.7741    2.0693    1.9307 H   0  0  0  0  0  0  0  0  0  0  0  0
    0.3562    2.8010    0.7774 H   0  0  0  0  0  0  0  0  0  0  0  0
   -1.6620    2.9152    0.1812 C   0  0  0  0  0  0  0  0  0  0  0  0
   -1.5431    3.5053   -1.0690 N   0  0  0  0  0  0  0  0  0  0  0  0
   -2.6951    4.0805   -1.3196 C   0  0  0  0  0  0  0  0  0  0  0  0
   -2.9276    4.6354   -2.2242 H   0  0  0  0  0  0  0  0  0  0  0  0
   -3.5642    3.8769   -0.2635 N   0  0  0  0  0  0  0  0  0  0  0  0
   -4.5153    4.2374   -0.2077 H   0  0  0  0  0  0  0  0  0  0  0  0
   -2.9059    3.1417    0.7000 C   0  0  0  0  0  0  0  0  0  0  0  0
   -3.2730    2.8131    1.6682 H   0  0  0  0  0  0  0  0  0  0  0  0
    1.0199    0.1684    0.7045 C   0  0  0  0  0  0  0  0  0  0  0  0
    1.4533   -0.7951    0.0825 O   0  0  0  0  0  0  0  0  0  0  0  0
    1.8401    0.7717    1.6445 N   0  0  0  0  0  0  0  0  0  0  0  0
    1.4184    1.4976    2.2141 H   0  0  0  0  0  0  0  0  0  0  0  0
    3.0860    0.1692    2.1012 C   0  0  0  0  0  0  0  0  0  0  0  0
    3.7831    0.0493    1.2654 H   0  0  0  0  0  0  0  0  0  0  0  0
    3.5585    0.8053    2.8554 H   0  0  0  0  0  0  0  0  0  0  0  0
    2.8946   -0.8135    2.5450 H   0  0  0  0  0  0  0  0  0  0  0  0
  1  2  1  0  0  0  0
  2  3  1  0  0  0  0
  2  4  1  0  0  0  0
  2  5  1  0  0  0  0
  5  6  2  0  0  0  0
  5  7  1  0  0  0  0
  7  8  1  0  0  0  0
  7  9  1  0  0  0  0
  9 10  1  0  0  0  0
  9 11  1  0  0  0  0
  9 22  1  0  0  0  0
 11 12  1  0  0  0  0
 11 13  1  0  0  0  0
 11 14  1  0  0  0  0
 14 15  1  0  0  0  0
 14 20  2  0  0  0  0
 15 16  2  0  0  0  0
 16 17  1  0  0  0  0
 16 18  1  0  0  0  0
 18 19  1  0  0  0  0
 18 20  1  0  0  0  0
 20 21  1  0  0  0  0
 22 23  2  0  0  0  0
 22 24  1  0  0  0  0
 24 25  1  0  0  0  0
 24 26  1  0  0  0  0
 26 27  1  0  0  0  0
 26 28  1  0  0  0  0
 26 29  1  0  0  0  0
M  END
$$$$

  -OEChem-01062216083D

 29 29  0     1  0  0  0  0  0999 V2000
   -2.5983   -3.1402    1.2198 H   0  0  0  0  0  0  0  0  0  0  0  0
   -2.7095   -2.1999    0.6724 C   0  0  0  0  0  0  0  0  0  0  0  0
   -3.6746   -1.7553    0.9265 H   0  0  0  0  0  0  0  0  0  0  0  0
   -2.6831   -2.4147   -0.3987 H   0  0  0  0  0  0  0  0  0  0  0  0
   -1.5860   -1.2478    1.0373 C   0  0  0  0  0  0  0  0  0  0  0  0
   -0.8486   -1.5243    1.9682 O   0  0  0  0  0  0  0  0  0  0  0  0
   -1.5346   -0.0032    0.4376 N   0  0  0  0  0  0  0  0  0  0  0  0
   -2.2592    0.1386   -0.2598 H   0  0  0  0  0  0  0  0  0  0  0  0
   -0.3097    0.7971    0.2150 C   0  0  1  0  0  0  0  0  0  0  0  0
   -0.1932    0.9410   -0.8650 H   0  0  0  0  0  0  0  0  0  0  0  0
   -0.5432    2.1763    0.8575 C   0  0  0  0  0  0  0  0  0  0  0  0
   -0.7764    2.0547    1.9195 H   0  0  0  0  0  0  0  0  0  0  0  0
    0.3614    2.7871    0.7756 H   0  0  0  0  0  0  0  0  0  0  0  0
   -1.6613    2.9050    0.1734 C   0  0  0  0  0  0  0  0  0  0  0  0
   -1.5434    3.5013   -1.0737 N   0  0  0  0  0  0  0  0  0  0  0  0
   -2.6941    4.0803   -1.3205 C   0  0  0  0  0  0  0  0  0  0  0  0
   -2.9269    4.6394   -2.2224 H   0  0  0  0  0  0  0  0  0  0  0  0
   -3.5618    3.8745   -0.2637 N   0  0  0  0  0  0  0  0  0  0  0  0
   -4.5098    4.2422   -0.2020 H   0  0  0  0  0  0  0  0  0  0  0  0
   -2.9038    3.1327    0.6951 C   0  0  0  0  0  0  0  0  0  0  0  0
   -3.2698    2.8035    1.6634 H   0  0  0  0  0  0  0  0  0  0  0  0
    1.0335    0.1805    0.6914 C   0  0  0  0  0  0  0  0  0  0  0  0
    1.5937   -0.6261   -0.0419 O   0  0  0  0  0  0  0  0  0  0  0  0
    1.6863    0.6176    1.8327 N   0  0  0  0  0  0  0  0  0  0  0  0
    1.1206    1.1409    2.4929 H   0  0  0  0  0  0  0  0  0  0  0  0
    2.8993   -0.0220    2.3264 C   0  0  0  0  0  0  0  0  0  0  0  0
    3.6988    0.0411    1.5806 H   0  0  0  0  0  0  0  0  0  0  0  0
    3.2426    0.4725    3.2397 H   0  0  0  0  0  0  0  0  0  0  0  0
    2.7091   -1.0768    2.5516 H   0  0  0  0  0  0  0  0  0  0  0  0
  1  2  1  0  0  0  0
  2  3  1  0  0  0  0
  2  4  1  0  0  0  0
  2  5  1  0  0  0  0
  5  6  2  0  0  0  0
  5  7  1  0  0  0  0
  7  8  1  0  0  0  0
  7  9  1  0  0  0  0
  9 10  1  0  0  0  0
  9 11  1  0  0  0  0
  9 22  1  0  0  0  0
 11 12  1  0  0  0  0
 11 13  1  0  0  0  0
 11 14  1  0  0  0  0
 14 15  1  0  0  0  0
 14 20  2  0  0  0  0
 15 16  2  0  0  0  0
 16 17  1  0  0  0  0
 16 18  1  0  0  0  0
 18 19  1  0  0  0  0
 18 20  1  0  0  0  0
 20 21  1  0  0  0  0
 22 23  2  0  0  0  0
 22 24  1  0  0  0  0
 24 25  1  0  0  0  0
 24 26  1  0  0  0  0
 26 27  1  0  0  0  0
 26 28  1  0  0  0  0
 26 29  1  0  0  0  0
M  END
$$$$

  -OEChem-01062216083D

 29 29  0     1  0  0  0  0  0999 V2000
   -2.6867   -3.1234    1.2187 H   0  0  0  0  0  0  0  0  0  0  0  0
   -2.7756   -2.1777    0.6763 C   0  0  0  0  0  0  0  0  0  0  0  0
   -3.7108   -1.6918    0.9644 H   0  0  0  0  0  0  0  0  0  0  0  0
   -2.7964   -2.3904   -0.3953 H   0  0  0  0  0  0  0  0  0  0  0  0
   -1.5994   -1.2764    1.0019 C   0  0  0  0  0  0  0  0  0  0  0  0
   -0.8211   -1.6084    1.8789 O   0  0  0  0  0  0  0  0  0  0  0  0
   -1.5257   -0.0289    0.4107 N   0  0  0  0  0  0  0  0  0  0  0  0
   -2.2690    0.1517   -0.2578 H   0  0  0  0  0  0  0  0  0  0  0  0
   -0.3023    0.7786    0.2048 C   0  0  1  0  0  0  0  0  0  0  0  0
   -0.1813    0.9294   -0.8738 H   0  0  0  0  0  0  0  0  0  0  0  0
   -0.5380    2.1528    0.8560 C   0  0  0  0  0  0  0  0  0  0  0  0
   -0.7758    2.0257    1.9161 H   0  0  0  0  0  0  0  0  0  0  0  0
    0.3702    2.7599    0.7837 H   0  0  0  0  0  0  0  0  0  0  0  0
   -1.6516    2.8886    0.1721 C   0  0  0  0  0  0  0  0  0  0  0  0
   -1.5291    3.4950   -1.0696 N   0  0  0  0  0  0  0  0  0  0  0  0
   -2.6778    4.0778   -1.3158 C   0  0  0  0  0  0  0  0  0  0  0  0
   -2.9058    4.6449   -2.2140 H   0  0  0  0  0  0  0  0  0  0  0  0
   -3.5497    3.8642   -0.2639 N   0  0  0  0  0  0  0  0  0  0  0  0
   -4.4970    4.2337   -0.2026 H   0  0  0  0  0  0  0  0  0  0  0  0
   -2.8957    3.1147    0.6917 C   0  0  0  0  0  0  0  0  0  0  0  0
   -3.2651    2.7808    1.6570 H   0  0  0  0  0  0  0  0  0  0  0  0
    1.0450    0.1806    0.6901 C   0  0  0  0  0  0  0  0  0  0  0  0
    1.7552   -0.4027   -0.1202 O   0  0  0  0  0  0  0  0  0  0  0  0
    1.5198    0.4028    1.9722 N   0  0  0  0  0  0  0  0  0  0  0  0
    0.8079    0.6480    2.6535 H   0  0  0  0  0  0  0  0  0  0  0  0
    2.7324   -0.2359    2.4675 C   0  0  0  0  0  0  0  0  0  0  0  0
    3.5938    0.0414    1.8508 H   0  0  0  0  0  0  0  0  0  0  0  0
    2.9310    0.0798    3.4959 H   0  0  0  0  0  0  0  0  0  0  0  0
    2.6229   -1.3255    2.4524 H   0  0  0  0  0  0  0  0  0  0  0  0
  1  2  1  0  0  0  0
  2  3  1  0  0  0  0
  2  4  1  0  0  0  0
  2  5  1  0  0  0  0
  5  6  2  0  0  0  0
  5  7  1  0  0  0  0
  7  8  1  0  0  0  0
  7  9  1  0  0  0  0
  9 10  1  0  0  0  0
  9 11  1  0  0  0  0
  9 22  1  0  0  0  0
 11 12  1  0  0  0  0
 11 13  1  0  0  0  0
 11 14  1  0  0  0  0
 14 15  1  0  0  0  0
 14 20  2  0  0  0  0
 15 16  2  0  0  0  0
 16 17  1  0  0  0  0
 16 18  1  0  0  0  0
 18 19  1  0  0  0  0
 18 20  1  0  0  0  0
 20 21  1  0  0  0  0
 22 23  2  0  0  0  0
 22 24  1  0  0  0  0
 24 25  1  0  0  0  0
 24 26  1  0  0  0  0
 26 27  1  0  0  0  0
 26 28  1  0  0  0  0
 26 29  1  0  0  0  0
M  END
$$$$

  -OEChem-01062216083D

 29 29  0     1  0  0  0  0  0999 V2000
   -2.7763   -3.1372    1.1088 H   0  0  0  0  0  0  0  0  0  0  0  0
   -2.8829   -2.1394    0.6736 C   0  0  0  0  0  0  0  0  0  0  0  0
   -3.7649   -1.6588    1.1036 H   0  0  0  0  0  0  0  0  0  0  0  0
   -3.0203   -2.2424   -0.4054 H   0  0  0  0  0  0  0  0  0  0  0  0
   -1.6466   -1.3091    0.9632 C   0  0  0  0  0  0  0  0  0  0  0  0
   -0.8480   -1.7065    1.7924 O   0  0  0  0  0  0  0  0  0  0  0  0
   -1.5283   -0.0604    0.3833 N   0  0  0  0  0  0  0  0  0  0  0  0
   -2.2841    0.1716   -0.2549 H   0  0  0  0  0  0  0  0  0  0  0  0
   -0.2977    0.7440    0.2032 C   0  0  1  0  0  0  0  0  0  0  0  0
   -0.1667    0.9038   -0.8732 H   0  0  0  0  0  0  0  0  0  0  0  0
   -0.5368    2.1108    0.8667 C   0  0  0  0  0  0  0  0  0  0  0  0
   -0.7872    1.9724    1.9226 H   0  0  0  0  0  0  0  0  0  0  0  0
    0.3749    2.7146    0.8143 H   0  0  0  0  0  0  0  0  0  0  0  0
   -1.6382    2.8583    0.1755 C   0  0  0  0  0  0  0  0  0  0  0  0
   -1.4967    3.4781   -1.0573 N   0  0  0  0  0  0  0  0  0  0  0  0
   -2.6393    4.0682   -1.3132 C   0  0  0  0  0  0  0  0  0  0  0  0
   -2.8518    4.6473   -2.2076 H   0  0  0  0  0  0  0  0  0  0  0  0
   -3.5270    3.8447   -0.2768 N   0  0  0  0  0  0  0  0  0  0  0  0
   -4.4734    4.2179   -0.2243 H   0  0  0  0  0  0  0  0  0  0  0  0
   -2.8889    3.0829    0.6799 C   0  0  0  0  0  0  0  0  0  0  0  0
   -3.2719    2.7417    1.6373 H   0  0  0  0  0  0  0  0  0  0  0  0
    1.0537    0.1670    0.7018 C   0  0  0  0  0  0  0  0  0  0  0  0
    1.9136   -0.1177   -0.1230 O   0  0  0  0  0  0  0  0  0  0  0  0
    1.3698    0.1302    2.0491 N   0  0  0  0  0  0  0  0  0  0  0  0
    0.5566    0.0404    2.6541 H   0  0  0  0  0  0  0  0  0  0  0  0
    2.6176   -0.4502    2.5289 C   0  0  0  0  0  0  0  0  0  0  0  0
    3.4776    0.0630    2.0860 H   0  0  0  0  0  0  0  0  0  0  0  0
    2.6835   -0.3537    3.6167 H   0  0  0  0  0  0  0  0  0  0  0  0
    2.6686   -1.5128    2.2691 H   0  0  0  0  0  0  0  0  0  0  0  0
  1  2  1  0  0  0  0
  2  3  1  0  0  0  0
  2  4  1  0  0  0  0
  2  5  1  0  0  0  0
  5  6  2  0  0  0  0
  5  7  1  0  0  0  0
  7  8  1  0  0  0  0
  7  9  1  0  0  0  0
  9 10  1  0  0  0  0
  9 11  1  0  0  0  0
  9 22  1  0  0  0  0
 11 12  1  0  0  0  0
 11 13  1  0  0  0  0
 11 14  1  0  0  0  0
 14 15  1  0  0  0  0
 14 20  2  0  0  0  0
 15 16  2  0  0  0  0
 16 17  1  0  0  0  0
 16 18  1  0  0  0  0
 18 19  1  0  0  0  0
 18 20  1  0  0  0  0
 20 21  1  0  0  0  0
 22 23  2  0  0  0  0
 22 24  1  0  0  0  0
 24 25  1  0  0  0  0
 24 26  1  0  0  0  0
 26 27  1  0  0  0  0
 26 28  1  0  0  0  0
 26 29  1  0  0  0  0
M  END
$$$$

  -OEChem-01062216083D

 29 29  0     1  0  0  0  0  0999 V2000
   -2.9628   -3.0943    1.0840 H   0  0  0  0  0  0  0  0  0  0  0  0
   -3.0095   -2.0886    0.6563 C   0  0  0  0  0  0  0  0  0  0  0  0
   -3.8436   -1.5499    1.1122 H   0  0  0  0  0  0  0  0  0  0  0  0
   -3.1835   -2.1751   -0.4191 H   0  0  0  0  0  0  0  0  0  0  0  0
   -1.7104   -1.3485    0.9153 C   0  0  0  0  0  0  0  0  0  0  0  0
   -0.9045   -1.8301    1.6897 O   0  0  0  0  0  0  0  0  0  0  0  0
   -1.5328   -0.1012    0.3475 N   0  0  0  0  0  0  0  0  0  0  0  0
   -2.3013    0.1924   -0.2490 H   0  0  0  0  0  0  0  0  0  0  0  0
   -0.2927    0.6971    0.1913 C   0  0  1  0  0  0  0  0  0  0  0  0
   -0.1521    0.8669   -0.8823 H   0  0  0  0  0  0  0  0  0  0  0  0
   -0.5367    2.0545    0.8709 C   0  0  0  0  0  0  0  0  0  0  0  0
   -0.7955    1.9006    1.9226 H   0  0  0  0  0  0  0  0  0  0  0  0
    0.3768    2.6572    0.8367 H   0  0  0  0  0  0  0  0  0  0  0  0
   -1.6268    2.8180    0.1792 C   0  0  0  0  0  0  0  0  0  0  0  0
   -1.4733    3.4585   -1.0416 N   0  0  0  0  0  0  0  0  0  0  0  0
   -2.6100    4.0612   -1.2944 C   0  0  0  0  0  0  0  0  0  0  0  0
   -2.8122    4.6579   -2.1796 H   0  0  0  0  0  0  0  0  0  0  0  0
   -3.5064    3.8248   -0.2683 N   0  0  0  0  0  0  0  0  0  0  0  0
   -4.4492    4.2066   -0.2132 H   0  0  0  0  0  0  0  0  0  0  0  0
   -2.8796    3.0421    0.6788 C   0  0  0  0  0  0  0  0  0  0  0  0
   -3.2708    2.6896    1.6288 H   0  0  0  0  0  0  0  0  0  0  0  0
    1.0675    0.1497    0.7020 C   0  0  0  0  0  0  0  0  0  0  0  0
    2.0288    0.1686   -0.0570 O   0  0  0  0  0  0  0  0  0  0  0  0
    1.2744   -0.1639    2.0332 N   0  0  0  0  0  0  0  0  0  0  0  0
    0.4324   -0.5088    2.4958 H   0  0  0  0  0  0  0  0  0  0  0  0
    2.5496   -0.6779    2.5164 C   0  0  0  0  0  0  0  0  0  0  0  0
    3.3533    0.0385    2.3168 H   0  0  0  0  0  0  0  0  0  0  0  0
    2.5014   -0.8476    3.5962 H   0  0  0  0  0  0  0  0  0  0  0  0
    2.7914   -1.6260    2.0248 H   0  0  0  0  0  0  0  0  0  0  0  0
  1  2  1  0  0  0  0
  2  3  1  0  0  0  0
  2  4  1  0  0  0  0
  2  5  1  0  0  0  0
  5  6  2  0  0  0  0
  5  7  1  0  0  0  0
  7  8  1  0  0  0  0
  7  9  1  0  0  0  0
  9 10  1  0  0  0  0
  9 11  1  0  0  0  0
  9 22  1  0  0  0  0
 11 12  1  0  0  0  0
 11 13  1  0  0  0  0
 11 14  1  0  0  0  0
 14 15  1  0  0  0  0
 14 20  2  0  0  0  0
 15 16  2  0  0  0  0
 16 17  1  0  0  0  0
 16 18  1  0  0  0  0
 18 19  1  0  0  0  0
 18 20  1  0  0  0  0
 20 21  1  0  0  0  0
 22 23  2  0  0  0  0
 22 24  1  0  0  0  0
 24 25  1  0  0  0  0
 24 26  1  0  0  0  0
 26 27  1  0  0  0  0
 26 28  1  0  0  0  0
 26 29  1  0  0  0  0
M  END
$$$$

  -OEChem-01062216083D

 29 29  0     1  0  0  0  0  0999 V2000
   -3.1585   -3.0180    1.0712 H   0  0  0  0  0  0  0  0  0  0  0  0
   -3.1353   -2.0115    0.6432 C   0  0  0  0  0  0  0  0  0  0  0  0
   -3.9063   -1.4062    1.1262 H   0  0  0  0  0  0  0  0  0  0  0  0
   -3.3518   -2.0813   -0.4256 H   0  0  0  0  0  0  0  0  0  0  0  0
   -1.7708   -1.3822    0.8564 C   0  0  0  0  0  0  0  0  0  0  0  0
   -0.9565   -1.9757    1.5374 O   0  0  0  0  0  0  0  0  0  0  0  0
   -1.5336   -0.1322    0.3163 N   0  0  0  0  0  0  0  0  0  0  0  0
   -2.3156    0.2336   -0.2197 H   0  0  0  0  0  0  0  0  0  0  0  0
   -0.2853    0.6636    0.1936 C   0  0  1  0  0  0  0  0  0  0  0  0
   -0.1326    0.8465   -0.8762 H   0  0  0  0  0  0  0  0  0  0  0  0
   -0.5502    2.0096    0.8892 C   0  0  0  0  0  0  0  0  0  0  0  0
   -0.8279    1.8379    1.9334 H   0  0  0  0  0  0  0  0  0  0  0  0
    0.3600    2.6185    0.8826 H   0  0  0  0  0  0  0  0  0  0  0  0
   -1.6279    2.7806    0.1862 C   0  0  0  0  0  0  0  0  0  0  0  0
   -1.4542    3.4425   -1.0200 N   0  0  0  0  0  0  0  0  0  0  0  0
   -2.5877    4.0459   -1.2843 C   0  0  0  0  0  0  0  0  0  0  0  0
   -2.7755    4.6571   -2.1625 H   0  0  0  0  0  0  0  0  0  0  0  0
   -3.5025    3.7894   -0.2796 N   0  0  0  0  0  0  0  0  0  0  0  0
   -4.4463    4.1703   -0.2346 H   0  0  0  0  0  0  0  0  0  0  0  0
   -2.8909    2.9924    0.6657 C   0  0  0  0  0  0  0  0  0  0  0  0
   -3.2980    2.6245    1.6030 H   0  0  0  0  0  0  0  0  0  0  0  0
    1.0871    0.1483    0.7117 C   0  0  0  0  0  0  0  0  0  0  0  0
    2.0892    0.4301    0.0660 O   0  0  0  0  0  0  0  0  0  0  0  0
    1.2539   -0.4514    1.9458 N   0  0  0  0  0  0  0  0  0  0  0  0
    0.4178   -0.9290    2.2884 H   0  0  0  0  0  0  0  0  0  0  0  0
    2.5437   -0.9476    2.4086 C   0  0  0  0  0  0  0  0  0  0  0  0
    3.2775   -0.1358    2.4457 H   0  0  0  0  0  0  0  0  0  0  0  0
    2.4456   -1.3675    3.4142 H   0  0  0  0  0  0  0  0  0  0  0  0
    2.9153   -1.7298    1.7387 H   0  0  0  0  0  0  0  0  0  0  0  0
  1  2  1  0  0  0  0
  2  3  1  0  0  0  0
  2  4  1  0  0  0  0
  2  5  1  0  0  0  0
  5  6  2  0  0  0  0
  5  7  1  0  0  0  0
  7  8  1  0  0  0  0
  7  9  1  0  0  0  0
  9 10  1  0  0  0  0
  9 11  1  0  0  0  0
  9 22  1  0  0  0  0
 11 12  1  0  0  0  0
 11 13  1  0  0  0  0
 11 14  1  0  0  0  0
 14 15  1  0  0  0  0
 14 20  2  0  0  0  0
 15 16  2  0  0  0  0
 16 17  1  0  0  0  0
 16 18  1  0  0  0  0
 18 19  1  0  0  0  0
 18 20  1  0  0  0  0
 20 21  1  0  0  0  0
 22 23  2  0  0  0  0
 22 24  1  0  0  0  0
 24 25  1  0  0  0  0
 24 26  1  0  0  0  0
 26 27  1  0  0  0  0
 26 28  1  0  0  0  0
 26 29  1  0  0  0  0
M  END
$$$$

  -OEChem-01062216083D

 29 29  0     1  0  0  0  0  0999 V2000
   -3.3167   -2.9418    1.0483 H   0  0  0  0  0  0  0  0  0  0  0  0
   -3.2430   -1.9278    0.6448 C   0  0  0  0  0  0  0  0  0  0  0  0
   -3.9495   -1.2861    1.1768 H   0  0  0  0  0  0  0  0  0  0  0  0
   -3.5094   -1.9534   -0.4147 H   0  0  0  0  0  0  0  0  0  0  0  0
   -1.8311   -1.3969    0.8131 C   0  0  0  0  0  0  0  0  0  0  0  0
   -1.0279   -2.0771    1.4210 O   0  0  0  0  0  0  0  0  0  0  0  0
   -1.5403   -0.1495    0.2930 N   0  0  0  0  0  0  0  0  0  0  0  0
   -2.3242    0.2705   -0.1992 H   0  0  0  0  0  0  0  0  0  0  0  0
   -0.2801    0.6336    0.1913 C   0  0  1  0  0  0  0  0  0  0  0  0
   -0.1189    0.8285   -0.8752 H   0  0  0  0  0  0  0  0  0  0  0  0
   -0.5613    1.9704    0.9022 C   0  0  0  0  0  0  0  0  0  0  0  0
   -0.8554    1.7816    1.9390 H   0  0  0  0  0  0  0  0  0  0  0  0
    0.3456    2.5842    0.9215 H   0  0  0  0  0  0  0  0  0  0  0  0
   -1.6290    2.7502    0.1926 C   0  0  0  0  0  0  0  0  0  0  0  0
   -1.4386    3.4314   -1.0003 N   0  0  0  0  0  0  0  0  0  0  0  0
   -2.5706    4.0328   -1.2755 C   0  0  0  0  0  0  0  0  0  0  0  0
   -2.7465    4.6571   -2.1470 H   0  0  0  0  0  0  0  0  0  0  0  0
   -3.5017    3.7542   -0.2920 N   0  0  0  0  0  0  0  0  0  0  0  0
   -4.4480    4.1300   -0.2576 H   0  0  0  0  0  0  0  0  0  0  0  0
   -2.9023    2.9461    0.6517 C   0  0  0  0  0  0  0  0  0  0  0  0
   -3.3247    2.5605    1.5750 H   0  0  0  0  0  0  0  0  0  0  0  0
    1.1007    0.1348    0.7119 C   0  0  0  0  0  0  0  0  0  0  0  0
    2.1062    0.6109    0.1985 O   0  0  0  0  0  0  0  0  0  0  0  0
    1.2783   -0.7173    1.7842 N   0  0  0  0  0  0  0  0  0  0  0  0
    0.4542   -1.2618    2.0461 H   0  0  0  0  0  0  0  0  0  0  0  0
    2.5827   -1.2092    2.2090 C   0  0  0  0  0  0  0  0  0  0  0  0
    3.2421   -0.3750    2.4704 H   0  0  0  0  0  0  0  0  0  0  0  0
    2.4732   -1.8494    3.0893 H   0  0  0  0  0  0  0  0  0  0  0  0
    3.0502   -1.7934    1.4097 H   0  0  0  0  0  0  0  0  0  0  0  0
  1  2  1  0  0  0  0
  2  3  1  0  0  0  0
  2  4  1  0  0  0  0
  2  5  1  0  0  0  0
  5  6  2  0  0  0  0
  5  7  1  0  0  0  0
  7  8  1  0  0  0  0
  7  9  1  0  0  0  0
  9 10  1  0  0  0  0
  9 11  1  0  0  0  0
  9 22  1  0  0  0  0
 11 12  1  0  0  0  0
 11 13  1  0  0  0  0
 11 14  1  0  0  0  0
 14 15  1  0  0  0  0
 14 20  2  0  0  0  0
 15 16  2  0  0  0  0
 16 17  1  0  0  0  0
 16 18  1  0  0  0  0
 18 19  1  0  0  0  0
 18 20  1  0  0  0  0
 20 21  1  0  0  0  0
 22 23  2  0  0  0  0
 22 24  1  0  0  0  0
 24 25  1  0  0  0  0
 24 26  1  0  0  0  0
 26 27  1  0  0  0  0
 26 28  1  0  0  0  0
 26 29  1  0  0  0  0
M  END
$$$$

  -OEChem-01062216083D

 29 29  0     1  0  0  0  0  0999 V2000
   -2.7023   -3.1367    1.0669 H   0  0  0  0  0  0  0  0  0  0  0  0
   -2.6870   -2.1746    0.5468 C   0  0  0  0  0  0  0  0  0  0  0  0
   -3.6483   -1.6778    0.6978 H   0  0  0  0  0  0  0  0  0  0  0  0
   -2.5409   -2.3567   -0.5205 H   0  0  0  0  0  0  0  0  0  0  0  0
   -1.5645   -1.3062    1.0843 C   0  0  0  0  0  0  0  0  0  0  0  0
   -1.0063   -1.6533    2.1045 O   0  0  0  0  0  0  0  0  0  0  0  0
   -1.3662   -0.0682    0.5082 N   0  0  0  0  0  0  0  0  0  0  0  0
   -2.0456    0.1287   -0.2208 H   0  0  0  0  0  0  0  0  0  0  0  0
   -0.1850    0.8328    0.4550 C   0  0  1  0  0  0  0  0  0  0  0  0
    0.0430    0.9783   -0.6064 H   0  0  0  0  0  0  0  0  0  0  0  0
   -0.7049    2.1676    1.0321 C   0  0  0  0  0  0  0  0  0  0  0  0
   -1.0837    2.0037    2.0455 H   0  0  0  0  0  0  0  0  0  0  0  0
    0.1011    2.9048    1.0975 H   0  0  0  0  0  0  0  0  0  0  0  0
   -1.7785    2.7544    0.1620 C   0  0  0  0  0  0  0  0  0  0  0  0
   -1.5471    3.3776   -1.0565 N   0  0  0  0  0  0  0  0  0  0  0  0
   -2.7084    3.8151   -1.4801 C   0  0  0  0  0  0  0  0  0  0  0  0
   -2.8665    4.3573   -2.4081 H   0  0  0  0  0  0  0  0  0  0  0  0
   -3.6966    3.4848   -0.5712 N   0  0  0  0  0  0  0  0  0  0  0  0
   -4.6788    3.7416   -0.6529 H   0  0  0  0  0  0  0  0  0  0  0  0
   -3.1061    2.8188    0.4823 C   0  0  0  0  0  0  0  0  0  0  0  0
   -3.5702    2.4419    1.3892 H   0  0  0  0  0  0  0  0  0  0  0  0
    1.2157    0.5421    1.0928 C   0  0  0  0  0  0  0  0  0  0  0  0
    2.0964    1.3821    0.9759 O   0  0  0  0  0  0  0  0  0  0  0  0
    1.5896   -0.3960    2.0225 N   0  0  0  0  0  0  0  0  0  0  0  0
    2.3594   -0.0294    2.5749 H   0  0  0  0  0  0  0  0  0  0  0  0
    1.8303   -1.7571    1.5580 C   0  0  0  0  0  0  0  0  0  0  0  0
    2.8815   -1.8778    1.2782 H   0  0  0  0  0  0  0  0  0  0  0  0
    1.5960   -2.4714    2.3537 H   0  0  0  0  0  0  0  0  0  0  0  0
    1.2158   -1.9988    0.6849 H   0  0  0  0  0  0  0  0  0  0  0  0
  1  2  1  0  0  0  0
  2  3  1  0  0  0  0
  2  4  1  0  0  0  0
  2  5  1  0  0  0  0
  5  6  2  0  0  0  0
  5  7  1  0  0  0  0
  7  8  1  0  0  0  0
  7  9  1  0  0  0  0
  9 10  1  0  0  0  0
  9 11  1  0  0  0  0
  9 22  1  0  0  0  0
 11 12  1  0  0  0  0
 11 13  1  0  0  0  0
 11 14  1  0  0  0  0
 14 15  1  0  0  0  0
 14 20  2  0  0  0  0
 15 16  2  0  0  0  0
 16 17  1  0  0  0  0
 16 18  1  0  0  0  0
 18 19  1  0  0  0  0
 18 20  1  0  0  0  0
 20 21  1  0  0  0  0
 22 23  2  0  0  0  0
 22 24  1  0  0  0  0
 24 25  1  0  0  0  0
 24 26  1  0  0  0  0
 26 27  1  0  0  0  0
 26 28  1  0  0  0  0
 26 29  1  0  0  0  0
M  END
$$$$

  -OEChem-01062216083D

 29 29  0     1  0  0  0  0  0999 V2000
   -2.8468   -3.1474    0.6864 H   0  0  0  0  0  0  0  0  0  0  0  0
   -2.8643   -2.0778    0.4580 C   0  0  0  0  0  0  0  0  0  0  0  0
   -3.3878   -1.5559    1.2625 H   0  0  0  0  0  0  0  0  0  0  0  0
   -3.4063   -1.9294   -0.4791 H   0  0  0  0  0  0  0  0  0  0  0  0
   -1.4486   -1.5456    0.3287 C   0  0  0  0  0  0  0  0  0  0  0  0
   -0.5337   -2.3358    0.4217 O   0  0  0  0  0  0  0  0  0  0  0  0
   -1.2916   -0.2128    0.0002 N   0  0  0  0  0  0  0  0  0  0  0  0
   -2.1755    0.2513   -0.1860 H   0  0  0  0  0  0  0  0  0  0  0  0
   -0.1201    0.7019   -0.0481 C   0  0  1  0  0  0  0  0  0  0  0  0
   -0.0635    1.0642   -1.0808 H   0  0  0  0  0  0  0  0  0  0  0  0
   -0.5020    1.8787    0.8741 C   0  0  0  0  0  0  0  0  0  0  0  0
   -0.7098    1.5054    1.8812 H   0  0  0  0  0  0  0  0  0  0  0  0
    0.3293    2.5874    0.9496 H   0  0  0  0  0  0  0  0  0  0  0  0
   -1.6884    2.6303    0.3442 C   0  0  0  0  0  0  0  0  0  0  0  0
   -1.6456    3.5012   -0.7335 N   0  0  0  0  0  0  0  0  0  0  0  0
   -2.8505    4.0010   -0.8632 C   0  0  0  0  0  0  0  0  0  0  0  0
   -3.1455    4.7234   -1.6192 H   0  0  0  0  0  0  0  0  0  0  0  0
   -3.6838    3.4733    0.1059 N   0  0  0  0  0  0  0  0  0  0  0  0
   -4.6620    3.7258    0.2375 H   0  0  0  0  0  0  0  0  0  0  0  0
   -2.9443    2.6085    0.8859 C   0  0  0  0  0  0  0  0  0  0  0  0
   -3.2666    2.0460    1.7573 H   0  0  0  0  0  0  0  0  0  0  0  0
    1.3584    0.3331    0.3019 C   0  0  0  0  0  0  0  0  0  0  0  0
    2.2379    1.0904   -0.0815 O   0  0  0  0  0  0  0  0  0  0  0  0
    1.9084   -0.8521    0.7217 N   0  0  0  0  0  0  0  0  0  0  0  0
    2.8962   -0.8809    0.4859 H   0  0  0  0  0  0  0  0  0  0  0  0
    1.6016   -1.3303    2.0644 C   0  0  0  0  0  0  0  0  0  0  0  0
    2.3400   -0.9494    2.7768 H   0  0  0  0  0  0  0  0  0  0  0  0
    0.6106   -0.9998    2.3913 H   0  0  0  0  0  0  0  0  0  0  0  0
    1.6249   -2.4245    2.0870 H   0  0  0  0  0  0  0  0  0  0  0  0
  1  2  1  0  0  0  0
  2  3  1  0  0  0  0
  2  4  1  0  0  0  0
  2  5  1  0  0  0  0
  5  6  2  0  0  0  0
  5  7  1  0  0  0  0
  7  8  1  0  0  0  0
  7  9  1  0  0  0  0
  9 10  1  0  0  0  0
  9 11  1  0  0  0  0
  9 22  1  0  0  0  0
 11 12  1  0  0  0  0
 11 13  1  0  0  0  0
 11 14  1  0  0  0  0
 14 15  1  0  0  0  0
 14 20  2  0  0  0  0
 15 16  2  0  0  0  0
 16 17  1  0  0  0  0
 16 18  1  0  0  0  0
 18 19  1  0  0  0  0
 18 20  1  0  0  0  0
 20 21  1  0  0  0  0
 22 23  2  0  0  0  0
 22 24  1  0  0  0  0
 24 25  1  0  0  0  0
 24 26  1  0  0  0  0
 26 27  1  0  0  0  0
 26 28  1  0  0  0  0
 26 29  1  0  0  0  0
M  END
$$$$

  -OEChem-01062216083D

 29 29  0     1  0  0  0  0  0999 V2000
   -3.3340   -2.9232    1.0609 H   0  0  0  0  0  0  0  0  0  0  0  0
   -3.2422   -1.9277    0.6166 C   0  0  0  0  0  0  0  0  0  0  0  0
   -3.9681   -1.2634    1.0914 H   0  0  0  0  0  0  0  0  0  0  0  0
   -3.4660   -1.9992   -0.4506 H   0  0  0  0  0  0  0  0  0  0  0  0
   -1.8370   -1.3906    0.8171 C   0  0  0  0  0  0  0  0  0  0  0  0
   -1.0516   -2.0590    1.4600 O   0  0  0  0  0  0  0  0  0  0  0  0
   -1.5455   -0.1358    0.3165 N   0  0  0  0  0  0  0  0  0  0  0  0
   -2.3381    0.2903   -0.1562 H   0  0  0  0  0  0  0  0  0  0  0  0
   -0.2802    0.6319    0.1524 C   0  0  1  0  0  0  0  0  0  0  0  0
   -0.1770    0.8374   -0.9183 H   0  0  0  0  0  0  0  0  0  0  0  0
   -0.5491    1.9667    0.8849 C   0  0  0  0  0  0  0  0  0  0  0  0
   -0.8001    1.7677    1.9310 H   0  0  0  0  0  0  0  0  0  0  0  0
    0.3398    2.6050    0.8757 H   0  0  0  0  0  0  0  0  0  0  0  0
   -1.6516    2.7366    0.2181 C   0  0  0  0  0  0  0  0  0  0  0  0
   -1.5153    3.4253   -0.9784 N   0  0  0  0  0  0  0  0  0  0  0  0
   -2.6628    4.0182   -1.2033 C   0  0  0  0  0  0  0  0  0  0  0  0
   -2.8792    4.6456   -2.0633 H   0  0  0  0  0  0  0  0  0  0  0  0
   -3.5508    3.7265   -0.1844 N   0  0  0  0  0  0  0  0  0  0  0  0
   -4.4976    4.0943   -0.1085 H   0  0  0  0  0  0  0  0  0  0  0  0
   -2.9062    2.9200    0.7302 C   0  0  0  0  0  0  0  0  0  0  0  0
   -3.2850    2.5288    1.6702 H   0  0  0  0  0  0  0  0  0  0  0  0
    1.1340    0.1008    0.5621 C   0  0  0  0  0  0  0  0  0  0  0  0
    2.0797    0.8809    0.5435 O   0  0  0  0  0  0  0  0  0  0  0  0
    1.4407   -1.2160    0.8437 N   0  0  0  0  0  0  0  0  0  0  0  0
    0.6450   -1.8324    1.0135 H   0  0  0  0  0  0  0  0  0  0  0  0
    2.7628   -1.6745    1.2518 C   0  0  0  0  0  0  0  0  0  0  0  0
    3.0769   -1.1700    2.1714 H   0  0  0  0  0  0  0  0  0  0  0  0
    2.7453   -2.7528    1.4362 H   0  0  0  0  0  0  0  0  0  0  0  0
    3.4985   -1.4714    0.4668 H   0  0  0  0  0  0  0  0  0  0  0  0
  1  2  1  0  0  0  0
  2  3  1  0  0  0  0
  2  4  1  0  0  0  0
  2  5  1  0  0  0  0
  5  6  2  0  0  0  0
  5  7  1  0  0  0  0
  7  8  1  0  0  0  0
  7  9  1  0  0  0  0
  9 10  1  0  0  0  0
  9 11  1  0  0  0  0
  9 22  1  0  0  0  0
 11 12  1  0  0  0  0
 11 13  1  0  0  0  0
 11 14  1  0  0  0  0
 14 15  1  0  0  0  0
 14 20  2  0  0  0  0
 15 16  2  0  0  0  0
 16 17  1  0  0  0  0
 16 18  1  0  0  0  0
 18 19  1  0  0  0  0
 18 20  1  0  0  0  0
 20 21  1  0  0  0  0
 22 23  2  0  0  0  0
 22 24  1  0  0  0  0
 24 25  1  0  0  0  0
 24 26  1  0  0  0  0
 26 27  1  0  0  0  0
 26 28  1  0  0  0  0
 26 29  1  0  0  0  0
M  END
$$$$

  -OEChem-01062216083D

 29 29  0     1  0  0  0  0  0999 V2000
   -3.2829   -2.8974    1.1467 H   0  0  0  0  0  0  0  0  0  0  0  0
   -3.2142   -1.8905    0.7245 C   0  0  0  0  0  0  0  0  0  0  0  0
   -3.8879   -1.2316    1.2777 H   0  0  0  0  0  0  0  0  0  0  0  0
   -3.5280   -1.9278   -0.3217 H   0  0  0  0  0  0  0  0  0  0  0  0
   -1.7896   -1.3765    0.8220 C   0  0  0  0  0  0  0  0  0  0  0  0
   -0.9593   -2.0760    1.3683 O   0  0  0  0  0  0  0  0  0  0  0  0
   -1.5163   -0.1186    0.3184 N   0  0  0  0  0  0  0  0  0  0  0  0
   -2.3294    0.3293   -0.0955 H   0  0  0  0  0  0  0  0  0  0  0  0
   -0.2543    0.6501    0.1412 C   0  0  1  0  0  0  0  0  0  0  0  0
   -0.1532    0.8425   -0.9322 H   0  0  0  0  0  0  0  0  0  0  0  0
   -0.5176    1.9986    0.8517 C   0  0  0  0  0  0  0  0  0  0  0  0
   -0.7624    1.8196    1.9028 H   0  0  0  0  0  0  0  0  0  0  0  0
    0.3710    2.6363    0.8240 H   0  0  0  0  0  0  0  0  0  0  0  0
   -1.6209    2.7583    0.1751 C   0  0  0  0  0  0  0  0  0  0  0  0
   -1.4861    3.4248   -1.0342 N   0  0  0  0  0  0  0  0  0  0  0  0
   -2.6323    4.0179   -1.2658 C   0  0  0  0  0  0  0  0  0  0  0  0
   -2.8497    4.6303   -2.1364 H   0  0  0  0  0  0  0  0  0  0  0  0
   -3.5178    3.7482   -0.2386 N   0  0  0  0  0  0  0  0  0  0  0  0
   -4.4621    4.1231   -0.1651 H   0  0  0  0  0  0  0  0  0  0  0  0
   -2.8729    2.9561    0.6883 C   0  0  0  0  0  0  0  0  0  0  0  0
   -3.2497    2.5854    1.6373 H   0  0  0  0  0  0  0  0  0  0  0  0
    1.1501    0.0884    0.5453 C   0  0  0  0  0  0  0  0  0  0  0  0
    2.0680    0.8660    0.7827 O   0  0  0  0  0  0  0  0  0  0  0  0
    1.4729   -1.2552    0.5234 N   0  0  0  0  0  0  0  0  0  0  0  0
    0.6730   -1.8871    0.5843 H   0  0  0  0  0  0  0  0  0  0  0  0
    2.7716   -1.7736    0.9356 C   0  0  0  0  0  0  0  0  0  0  0  0
    2.9682   -1.5247    1.9836 H   0  0  0  0  0  0  0  0  0  0  0  0
    2.7928   -2.8620    0.8268 H   0  0  0  0  0  0  0  0  0  0  0  0
    3.5688   -1.3509    0.3155 H   0  0  0  0  0  0  0  0  0  0  0  0
  1  2  1  0  0  0  0
  2  3  1  0  0  0  0
  2  4  1  0  0  0  0
  2  5  1  0  0  0  0
  5  6  2  0  0  0  0
  5  7  1  0  0  0  0
  7  8  1  0  0  0  0
  7  9  1  0  0  0  0
  9 10  1  0  0  0  0
  9 11  1  0  0  0  0
  9 22  1  0  0  0  0
 11 12  1  0  0  0  0
 11 13  1  0  0  0  0
 11 14  1  0  0  0  0
 14 15  1  0  0  0  0
 14 20  2  0  0  0  0
 15 16  2  0  0  0  0
 16 17  1  0  0  0  0
 16 18  1  0  0  0  0
 18 19  1  0  0  0  0
 18 20  1  0  0  0  0
 20 21  1  0  0  0  0
 22 23  2  0  0  0  0
 22 24  1  0  0  0  0
 24 25  1  0  0  0  0
 24 26  1  0  0  0  0
 26 27  1  0  0  0  0
 26 28  1  0  0  0  0
 26 29  1  0  0  0  0
M  END
$$$$

  -OEChem-01062216083D

 29 29  0     1  0  0  0  0  0999 V2000
   -3.1520   -2.9198    1.2201 H   0  0  0  0  0  0  0  0  0  0  0  0
   -3.1250   -1.9114    0.7967 C   0  0  0  0  0  0  0  0  0  0  0  0
   -3.7597   -1.2603    1.4027 H   0  0  0  0  0  0  0  0  0  0  0  0
   -3.5183   -1.9486   -0.2222 H   0  0  0  0  0  0  0  0  0  0  0  0
   -1.7016   -1.3847    0.7850 C   0  0  0  0  0  0  0  0  0  0  0  0
   -0.8130   -2.1043    1.1978 O   0  0  0  0  0  0  0  0  0  0  0  0
   -1.4787   -0.1126    0.2921 N   0  0  0  0  0  0  0  0  0  0  0  0
   -2.3202    0.3484   -0.0425 H   0  0  0  0  0  0  0  0  0  0  0  0
   -0.2351    0.6852    0.1277 C   0  0  1  0  0  0  0  0  0  0  0  0
   -0.1261    0.8853   -0.9434 H   0  0  0  0  0  0  0  0  0  0  0  0
   -0.5138    2.0284    0.8398 C   0  0  0  0  0  0  0  0  0  0  0  0
   -0.7559    1.8457    1.8909 H   0  0  0  0  0  0  0  0  0  0  0  0
    0.3703    2.6728    0.8108 H   0  0  0  0  0  0  0  0  0  0  0  0
   -1.6244    2.7773    0.1645 C   0  0  0  0  0  0  0  0  0  0  0  0
   -1.4934    3.4472   -1.0433 N   0  0  0  0  0  0  0  0  0  0  0  0
   -2.6448    4.0293   -1.2763 C   0  0  0  0  0  0  0  0  0  0  0  0
   -2.8663    4.6416   -2.1460 H   0  0  0  0  0  0  0  0  0  0  0  0
   -3.5297    3.7486   -0.2515 N   0  0  0  0  0  0  0  0  0  0  0  0
   -4.4777    4.1145   -0.1795 H   0  0  0  0  0  0  0  0  0  0  0  0
   -2.8793    2.9613    0.6757 C   0  0  0  0  0  0  0  0  0  0  0  0
   -3.2545    2.5860    1.6236 H   0  0  0  0  0  0  0  0  0  0  0  0
    1.1588    0.1127    0.5443 C   0  0  0  0  0  0  0  0  0  0  0  0
    2.0038    0.8407    1.0550 O   0  0  0  0  0  0  0  0  0  0  0  0
    1.5475   -1.1732    0.2171 N   0  0  0  0  0  0  0  0  0  0  0  0
    0.7664   -1.8253    0.1326 H   0  0  0  0  0  0  0  0  0  0  0  0
    2.8325   -1.7316    0.6201 C   0  0  0  0  0  0  0  0  0  0  0  0
    2.9198   -1.7441    1.7115 H   0  0  0  0  0  0  0  0  0  0  0  0
    2.9283   -2.7572    0.2515 H   0  0  0  0  0  0  0  0  0  0  0  0
    3.6555   -1.1396    0.2064 H   0  0  0  0  0  0  0  0  0  0  0  0
  1  2  1  0  0  0  0
  2  3  1  0  0  0  0
  2  4  1  0  0  0  0
  2  5  1  0  0  0  0
  5  6  2  0  0  0  0
  5  7  1  0  0  0  0
  7  8  1  0  0  0  0
  7  9  1  0  0  0  0
  9 10  1  0  0  0  0
  9 11  1  0  0  0  0
  9 22  1  0  0  0  0
 11 12  1  0  0  0  0
 11 13  1  0  0  0  0
 11 14  1  0  0  0  0
 14 15  1  0  0  0  0
 14 20  2  0  0  0  0
 15 16  2  0  0  0  0
 16 17  1  0  0  0  0
 16 18  1  0  0  0  0
 18 19  1  0  0  0  0
 18 20  1  0  0  0  0
 20 21  1  0  0  0  0
 22 23  2  0  0  0  0
 22 24  1  0  0  0  0
 24 25  1  0  0  0  0
 24 26  1  0  0  0  0
 26 27  1  0  0  0  0
 26 28  1  0  0  0  0
 26 29  1  0  0  0  0
M  END
$$$$

  -OEChem-01062216083D

 29 29  0     1  0  0  0  0  0999 V2000
   -2.9999   -2.9504    1.2821 H   0  0  0  0  0  0  0  0  0  0  0  0
   -3.0239   -1.9420    0.8588 C   0  0  0  0  0  0  0  0  0  0  0  0
   -3.6189   -1.3014    1.5142 H   0  0  0  0  0  0  0  0  0  0  0  0
   -3.4963   -1.9854   -0.1256 H   0  0  0  0  0  0  0  0  0  0  0  0
   -1.6146   -1.3929    0.7353 C   0  0  0  0  0  0  0  0  0  0  0  0
   -0.6785   -2.1168    1.0159 O   0  0  0  0  0  0  0  0  0  0  0  0
   -1.4477   -0.1084    0.2524 N   0  0  0  0  0  0  0  0  0  0  0  0
   -2.3139    0.3607    0.0041 H   0  0  0  0  0  0  0  0  0  0  0  0
   -0.2232    0.7184    0.1124 C   0  0  1  0  0  0  0  0  0  0  0  0
   -0.0972    0.9320   -0.9543 H   0  0  0  0  0  0  0  0  0  0  0  0
   -0.5171    2.0523    0.8317 C   0  0  0  0  0  0  0  0  0  0  0  0
   -0.7644    1.8595    1.8799 H   0  0  0  0  0  0  0  0  0  0  0  0
    0.3670    2.6975    0.8126 H   0  0  0  0  0  0  0  0  0  0  0  0
   -1.6304    2.7966    0.1565 C   0  0  0  0  0  0  0  0  0  0  0  0
   -1.4957    3.4756   -1.0459 N   0  0  0  0  0  0  0  0  0  0  0  0
   -2.6503    4.0500   -1.2829 C   0  0  0  0  0  0  0  0  0  0  0  0
   -2.8708    4.6656   -2.1505 H   0  0  0  0  0  0  0  0  0  0  0  0
   -3.5398    3.7572   -0.2654 N   0  0  0  0  0  0  0  0  0  0  0  0
   -4.4909    4.1159   -0.1977 H   0  0  0  0  0  0  0  0  0  0  0  0
   -2.8897    2.9687    0.6612 C   0  0  0  0  0  0  0  0  0  0  0  0
   -3.2689    2.5860    1.6045 H   0  0  0  0  0  0  0  0  0  0  0  0
    1.1546    0.1358    0.5547 C   0  0  0  0  0  0  0  0  0  0  0  0
    1.8844    0.7526    1.3248 O   0  0  0  0  0  0  0  0  0  0  0  0
    1.6518   -1.0112   -0.0374 N   0  0  0  0  0  0  0  0  0  0  0  0
    0.9218   -1.6515   -0.3466 H   0  0  0  0  0  0  0  0  0  0  0  0
    2.9175   -1.6074    0.3719 C   0  0  0  0  0  0  0  0  0  0  0  0
    2.8802   -1.8965    1.4274 H   0  0  0  0  0  0  0  0  0  0  0  0
    3.1237   -2.4997   -0.2265 H   0  0  0  0  0  0  0  0  0  0  0  0
    3.7406   -0.8997    0.2284 H   0  0  0  0  0  0  0  0  0  0  0  0
  1  2  1  0  0  0  0
  2  3  1  0  0  0  0
  2  4  1  0  0  0  0
  2  5  1  0  0  0  0
  5  6  2  0  0  0  0
  5  7  1  0  0  0  0
  7  8  1  0  0  0  0
  7  9  1  0  0  0  0
  9 10  1  0  0  0  0
  9 11  1  0  0  0  0
  9 22  1  0  0  0  0
 11 12  1  0  0  0  0
 11 13  1  0  0  0  0
 11 14  1  0  0  0  0
 14 15  1  0  0  0  0
 14 20  2  0  0  0  0
 15 16  2  0  0  0  0
 16 17  1  0  0  0  0
 16 18  1  0  0  0  0
 18 19  1  0  0  0  0
 18 20  1  0  0  0  0
 20 21  1  0  0  0  0
 22 23  2  0  0  0  0
 22 24  1  0  0  0  0
 24 25  1  0  0  0  0
 24 26  1  0  0  0  0
 26 27  1  0  0  0  0
 26 28  1  0  0  0  0
 26 29  1  0  0  0  0
M  END
$$$$

  -OEChem-01062216083D

 29 29  0     1  0  0  0  0  0999 V2000
   -2.8726   -2.9769    1.3203 H   0  0  0  0  0  0  0  0  0  0  0  0
   -2.9371   -1.9696    0.8987 C   0  0  0  0  0  0  0  0  0  0  0  0
   -3.5105   -1.3400    1.5833 H   0  0  0  0  0  0  0  0  0  0  0  0
   -3.4572   -2.0222   -0.0607 H   0  0  0  0  0  0  0  0  0  0  0  0
   -1.5467   -1.3938    0.7040 C   0  0  0  0  0  0  0  0  0  0  0  0
   -0.5820   -2.1045    0.9161 O   0  0  0  0  0  0  0  0  0  0  0  0
   -1.4268   -0.1057    0.2157 N   0  0  0  0  0  0  0  0  0  0  0  0
   -2.3087    0.3587    0.0209 H   0  0  0  0  0  0  0  0  0  0  0  0
   -0.2179    0.7423    0.0912 C   0  0  1  0  0  0  0  0  0  0  0  0
   -0.0796    0.9646   -0.9721 H   0  0  0  0  0  0  0  0  0  0  0  0
   -0.5199    2.0686    0.8174 C   0  0  0  0  0  0  0  0  0  0  0  0
   -0.7699    1.8678    1.8639 H   0  0  0  0  0  0  0  0  0  0  0  0
    0.3655    2.7122    0.8055 H   0  0  0  0  0  0  0  0  0  0  0  0
   -1.6365    2.8119    0.1478 C   0  0  0  0  0  0  0  0  0  0  0  0
   -1.5045    3.5000   -1.0496 N   0  0  0  0  0  0  0  0  0  0  0  0
   -2.6615    4.0718   -1.2818 C   0  0  0  0  0  0  0  0  0  0  0  0
   -2.8844    4.6935   -2.1444 H   0  0  0  0  0  0  0  0  0  0  0  0
   -3.5495    3.7675   -0.2664 N   0  0  0  0  0  0  0  0  0  0  0  0
   -4.5023    4.1209   -0.1957 H   0  0  0  0  0  0  0  0  0  0  0  0
   -2.8962    2.9748    0.6541 C   0  0  0  0  0  0  0  0  0  0  0  0
   -3.2730    2.5838    1.5950 H   0  0  0  0  0  0  0  0  0  0  0  0
    1.1449    0.1572    0.5625 C   0  0  0  0  0  0  0  0  0  0  0  0
    1.7300    0.6178    1.5382 O   0  0  0  0  0  0  0  0  0  0  0  0
    1.7887   -0.7889   -0.2155 N   0  0  0  0  0  0  0  0  0  0  0  0
    1.1717   -1.3278   -0.8173 H   0  0  0  0  0  0  0  0  0  0  0  0
    3.0309   -1.4229    0.2084 C   0  0  0  0  0  0  0  0  0  0  0  0
    2.8828   -1.9619    1.1501 H   0  0  0  0  0  0  0  0  0  0  0  0
    3.3686   -2.1351   -0.5503 H   0  0  0  0  0  0  0  0  0  0  0  0
    3.8166   -0.6734    0.3500 H   0  0  0  0  0  0  0  0  0  0  0  0
  1  2  1  0  0  0  0
  2  3  1  0  0  0  0
  2  4  1  0  0  0  0
  2  5  1  0  0  0  0
  5  6  2  0  0  0  0
  5  7  1  0  0  0  0
  7  8  1  0  0  0  0
  7  9  1  0  0  0  0
  9 10  1  0  0  0  0
  9 11  1  0  0  0  0
  9 22  1  0  0  0  0
 11 12  1  0  0  0  0
 11 13  1  0  0  0  0
 11 14  1  0  0  0  0
 14 15  1  0  0  0  0
 14 20  2  0  0  0  0
 15 16  2  0  0  0  0
 16 17  1  0  0  0  0
 16 18  1  0  0  0  0
 18 19  1  0  0  0  0
 18 20  1  0  0  0  0
 20 21  1  0  0  0  0
 22 23  2  0  0  0  0
 22 24  1  0  0  0  0
 24 25  1  0  0  0  0
 24 26  1  0  0  0  0
 26 27  1  0  0  0  0
 26 28  1  0  0  0  0
 26 29  1  0  0  0  0
M  END
$$$$

  -OEChem-01062216083D

 29 29  0     1  0  0  0  0  0999 V2000
   -2.7993   -2.9934    1.3437 H   0  0  0  0  0  0  0  0  0  0  0  0
   -2.8904   -1.9831    0.9344 C   0  0  0  0  0  0  0  0  0  0  0  0
   -3.4286   -1.3619    1.6542 H   0  0  0  0  0  0  0  0  0  0  0  0
   -3.4599   -2.0305    0.0030 H   0  0  0  0  0  0  0  0  0  0  0  0
   -1.5141   -1.3999    0.6729 C   0  0  0  0  0  0  0  0  0  0  0  0
   -0.5372   -2.1117    0.8178 O   0  0  0  0  0  0  0  0  0  0  0  0
   -1.4215   -0.1094    0.1836 N   0  0  0  0  0  0  0  0  0  0  0  0
   -2.3116    0.3574    0.0398 H   0  0  0  0  0  0  0  0  0  0  0  0
   -0.2202    0.7500    0.0781 C   0  0  1  0  0  0  0  0  0  0  0  0
   -0.0707    0.9826   -0.9815 H   0  0  0  0  0  0  0  0  0  0  0  0
   -0.5259    2.0688    0.8131 C   0  0  0  0  0  0  0  0  0  0  0  0
   -0.7849    1.8586    1.8554 H   0  0  0  0  0  0  0  0  0  0  0  0
    0.3621    2.7088    0.8155 H   0  0  0  0  0  0  0  0  0  0  0  0
   -1.6398    2.8154    0.1441 C   0  0  0  0  0  0  0  0  0  0  0  0
   -1.4999    3.5119   -1.0475 N   0  0  0  0  0  0  0  0  0  0  0  0
   -2.6561    4.0837   -1.2833 C   0  0  0  0  0  0  0  0  0  0  0  0
   -2.8742    4.7107   -2.1433 H   0  0  0  0  0  0  0  0  0  0  0  0
   -3.5505    3.7726   -0.2755 N   0  0  0  0  0  0  0  0  0  0  0  0
   -4.5040    4.1250   -0.2088 H   0  0  0  0  0  0  0  0  0  0  0  0
   -2.9028    2.9736    0.6435 C   0  0  0  0  0  0  0  0  0  0  0  0
   -3.2857    2.5749    1.5786 H   0  0  0  0  0  0  0  0  0  0  0  0
    1.1318    0.1654    0.5729 C   0  0  0  0  0  0  0  0  0  0  0  0
    1.5655    0.4391    1.6881 O   0  0  0  0  0  0  0  0  0  0  0  0
    1.9401   -0.5285   -0.3102 N   0  0  0  0  0  0  0  0  0  0  0  0
    1.4728   -0.8966   -1.1330 H   0  0  0  0  0  0  0  0  0  0  0  0
    3.1816   -1.1659    0.1098 C   0  0  0  0  0  0  0  0  0  0  0  0
    2.9814   -1.9217    0.8767 H   0  0  0  0  0  0  0  0  0  0  0  0
    3.6625   -1.6542   -0.7431 H   0  0  0  0  0  0  0  0  0  0  0  0
    3.8758   -0.4238    0.5176 H   0  0  0  0  0  0  0  0  0  0  0  0
  1  2  1  0  0  0  0
  2  3  1  0  0  0  0
  2  4  1  0  0  0  0
  2  5  1  0  0  0  0
  5  6  2  0  0  0  0
  5  7  1  0  0  0  0
  7  8  1  0  0  0  0
  7  9  1  0  0  0  0
  9 10  1  0  0  0  0
  9 11  1  0  0  0  0
  9 22  1  0  0  0  0
 11 12  1  0  0  0  0
 11 13  1  0  0  0  0
 11 14  1  0  0  0  0
 14 15  1  0  0  0  0
 14 20  2  0  0  0  0
 15 16  2  0  0  0  0
 16 17  1  0  0  0  0
 16 18  1  0  0  0  0
 18 19  1  0  0  0  0
 18 20  1  0  0  0  0
 20 21  1  0  0  0  0
 22 23  2  0  0  0  0
 22 24  1  0  0  0  0
 24 25  1  0  0  0  0
 24 26  1  0  0  0  0
 26 27  1  0  0  0  0
 26 28  1  0  0  0  0
 26 29  1  0  0  0  0
M  END
$$$$

  -OEChem-01062216083D

 29 29  0     1  0  0  0  0  0999 V2000
   -2.7736   -3.0025    1.3584 H   0  0  0  0  0  0  0  0  0  0  0  0
   -2.8763   -1.9879    0.9629 C   0  0  0  0  0  0  0  0  0  0  0  0
   -3.3734   -1.3689    1.7134 H   0  0  0  0  0  0  0  0  0  0  0  0
   -3.4910   -2.0226    0.0603 H   0  0  0  0  0  0  0  0  0  0  0  0
   -1.5096   -1.4137    0.6385 C   0  0  0  0  0  0  0  0  0  0  0  0
   -0.5359   -2.1424    0.7006 O   0  0  0  0  0  0  0  0  0  0  0  0
   -1.4279   -0.1216    0.1517 N   0  0  0  0  0  0  0  0  0  0  0  0
   -2.3192    0.3560    0.0643 H   0  0  0  0  0  0  0  0  0  0  0  0
   -0.2273    0.7398    0.0659 C   0  0  1  0  0  0  0  0  0  0  0  0
   -0.0684    0.9794   -0.9905 H   0  0  0  0  0  0  0  0  0  0  0  0
   -0.5297    2.0532    0.8103 C   0  0  0  0  0  0  0  0  0  0  0  0
   -0.7970    1.8361    1.8491 H   0  0  0  0  0  0  0  0  0  0  0  0
    0.3628    2.6867    0.8247 H   0  0  0  0  0  0  0  0  0  0  0  0
   -1.6358    2.8108    0.1410 C   0  0  0  0  0  0  0  0  0  0  0  0
   -1.4862    3.5165   -1.0441 N   0  0  0  0  0  0  0  0  0  0  0  0
   -2.6401    4.0926   -1.2825 C   0  0  0  0  0  0  0  0  0  0  0  0
   -2.8523    4.7261   -2.1392 H   0  0  0  0  0  0  0  0  0  0  0  0
   -3.5410    3.7766   -0.2820 N   0  0  0  0  0  0  0  0  0  0  0  0
   -4.4945    4.1298   -0.2187 H   0  0  0  0  0  0  0  0  0  0  0  0
   -2.9010    2.9688    0.6344 C   0  0  0  0  0  0  0  0  0  0  0  0
   -3.2906    2.5634    1.5638 H   0  0  0  0  0  0  0  0  0  0  0  0
    1.1158    0.1544    0.5794 C   0  0  0  0  0  0  0  0  0  0  0  0
    1.4151    0.2383    1.7668 O   0  0  0  0  0  0  0  0  0  0  0  0
    2.0774   -0.2585   -0.3261 N   0  0  0  0  0  0  0  0  0  0  0  0
    1.7541   -0.4398   -1.2713 H   0  0  0  0  0  0  0  0  0  0  0  0
    3.3451   -0.8435    0.0930 C   0  0  0  0  0  0  0  0  0  0  0  0
    3.1711   -1.7579    0.6701 H   0  0  0  0  0  0  0  0  0  0  0  0
    3.9527   -1.0942   -0.7815 H   0  0  0  0  0  0  0  0  0  0  0  0
    3.9086   -0.1371    0.7116 H   0  0  0  0  0  0  0  0  0  0  0  0
  1  2  1  0  0  0  0
  2  3  1  0  0  0  0
  2  4  1  0  0  0  0
  2  5  1  0  0  0  0
  5  6  2  0  0  0  0
  5  7  1  0  0  0  0
  7  8  1  0  0  0  0
  7  9  1  0  0  0  0
  9 10  1  0  0  0  0
  9 11  1  0  0  0  0
  9 22  1  0  0  0  0
 11 12  1  0  0  0  0
 11 13  1  0  0  0  0
 11 14  1  0  0  0  0
 14 15  1  0  0  0  0
 14 20  2  0  0  0  0
 15 16  2  0  0  0  0
 16 17  1  0  0  0  0
 16 18  1  0  0  0  0
 18 19  1  0  0  0  0
 18 20  1  0  0  0  0
 20 21  1  0  0  0  0
 22 23  2  0  0  0  0
 22 24  1  0  0  0  0
 24 25  1  0  0  0  0
 24 26  1  0  0  0  0
 26 27  1  0  0  0  0
 26 28  1  0  0  0  0
 26 29  1  0  0  0  0
M  END
$$$$

  -OEChem-01062216083D

 29 29  0     1  0  0  0  0  0999 V2000
   -2.7594   -3.0175    1.3636 H   0  0  0  0  0  0  0  0  0  0  0  0
   -2.8683   -1.9932    0.9958 C   0  0  0  0  0  0  0  0  0  0  0  0
   -3.3024   -1.3809    1.7898 H   0  0  0  0  0  0  0  0  0  0  0  0
   -3.5414   -1.9977    0.1352 H   0  0  0  0  0  0  0  0  0  0  0  0
   -1.5151   -1.4371    0.5936 C   0  0  0  0  0  0  0  0  0  0  0  0
   -0.5549   -2.1860    0.5637 O   0  0  0  0  0  0  0  0  0  0  0  0
   -1.4397   -0.1417    0.1149 N   0  0  0  0  0  0  0  0  0  0  0  0
   -2.3281    0.3477    0.0853 H   0  0  0  0  0  0  0  0  0  0  0  0
   -0.2364    0.7177    0.0527 C   0  0  1  0  0  0  0  0  0  0  0  0
   -0.0677    0.9649   -1.0003 H   0  0  0  0  0  0  0  0  0  0  0  0
   -0.5354    2.0236    0.8092 C   0  0  0  0  0  0  0  0  0  0  0  0
   -0.8138    1.7950    1.8428 H   0  0  0  0  0  0  0  0  0  0  0  0
    0.3616    2.6502    0.8394 H   0  0  0  0  0  0  0  0  0  0  0  0
   -1.6304    2.7969    0.1401 C   0  0  0  0  0  0  0  0  0  0  0  0
   -1.4613    3.5138   -1.0355 N   0  0  0  0  0  0  0  0  0  0  0  0
   -2.6071    4.1030   -1.2806 C   0  0  0  0  0  0  0  0  0  0  0  0
   -2.8041    4.7466   -2.1335 H   0  0  0  0  0  0  0  0  0  0  0  0
   -3.5211    3.7864   -0.2922 N   0  0  0  0  0  0  0  0  0  0  0  0
   -4.4727    4.1460   -0.2367 H   0  0  0  0  0  0  0  0  0  0  0  0
   -2.8984    2.9636    0.6233 C   0  0  0  0  0  0  0  0  0  0  0  0
   -3.3019    2.5540    1.5451 H   0  0  0  0  0  0  0  0  0  0  0  0
    1.1003    0.1325    0.5792 C   0  0  0  0  0  0  0  0  0  0  0  0
    1.2878    0.0249    1.7875 O   0  0  0  0  0  0  0  0  0  0  0  0
    2.1842    0.0174   -0.2736 N   0  0  0  0  0  0  0  0  0  0  0  0
    1.9879    0.0537   -1.2690 H   0  0  0  0  0  0  0  0  0  0  0  0
    3.4795   -0.4885    0.1624 C   0  0  0  0  0  0  0  0  0  0  0  0
    3.3814   -1.5111    0.5418 H   0  0  0  0  0  0  0  0  0  0  0  0
    4.1840   -0.4943   -0.6748 H   0  0  0  0  0  0  0  0  0  0  0  0
    3.8916    0.1443    0.9554 H   0  0  0  0  0  0  0  0  0  0  0  0
  1  2  1  0  0  0  0
  2  3  1  0  0  0  0
  2  4  1  0  0  0  0
  2  5  1  0  0  0  0
  5  6  2  0  0  0  0
  5  7  1  0  0  0  0
  7  8  1  0  0  0  0
  7  9  1  0  0  0  0
  9 10  1  0  0  0  0
  9 11  1  0  0  0  0
  9 22  1  0  0  0  0
 11 12  1  0  0  0  0
 11 13  1  0  0  0  0
 11 14  1  0  0  0  0
 14 15  1  0  0  0  0
 14 20  2  0  0  0  0
 15 16  2  0  0  0  0
 16 17  1  0  0  0  0
 16 18  1  0  0  0  0
 18 19  1  0  0  0  0
 18 20  1  0  0  0  0
 20 21  1  0  0  0  0
 22 23  2  0  0  0  0
 22 24  1  0  0  0  0
 24 25  1  0  0  0  0
 24 26  1  0  0  0  0
 26 27  1  0  0  0  0
 26 28  1  0  0  0  0
 26 29  1  0  0  0  0
M  END
$$$$

  -OEChem-01062216083D

 29 29  0     1  0  0  0  0  0999 V2000
   -2.7521   -3.0269    1.3542 H   0  0  0  0  0  0  0  0  0  0  0  0
   -2.8592   -1.9869    1.0322 C   0  0  0  0  0  0  0  0  0  0  0  0
   -3.2063   -1.3923    1.8804 H   0  0  0  0  0  0  0  0  0  0  0  0
   -3.6010   -1.9404    0.2316 H   0  0  0  0  0  0  0  0  0  0  0  0
   -1.5263   -1.4555    0.5387 C   0  0  0  0  0  0  0  0  0  0  0  0
   -0.5948   -2.2290    0.4020 O   0  0  0  0  0  0  0  0  0  0  0  0
   -1.4510   -0.1568    0.0695 N   0  0  0  0  0  0  0  0  0  0  0  0
   -2.3312    0.3462    0.1004 H   0  0  0  0  0  0  0  0  0  0  0  0
   -0.2404    0.6940    0.0293 C   0  0  1  0  0  0  0  0  0  0  0  0
   -0.0619    0.9503   -1.0198 H   0  0  0  0  0  0  0  0  0  0  0  0
   -0.5341    1.9905    0.8043 C   0  0  0  0  0  0  0  0  0  0  0  0
   -0.8212    1.7476    1.8322 H   0  0  0  0  0  0  0  0  0  0  0  0
    0.3671    2.6097    0.8508 H   0  0  0  0  0  0  0  0  0  0  0  0
   -1.6179    2.7838    0.1402 C   0  0  0  0  0  0  0  0  0  0  0  0
   -1.4321    3.5175   -1.0225 N   0  0  0  0  0  0  0  0  0  0  0  0
   -2.5731    4.1145   -1.2716 C   0  0  0  0  0  0  0  0  0  0  0  0
   -2.7584    4.7705   -2.1174 H   0  0  0  0  0  0  0  0  0  0  0  0
   -3.4989    3.7879   -0.2976 N   0  0  0  0  0  0  0  0  0  0  0  0
   -4.4508    4.1478   -0.2495 H   0  0  0  0  0  0  0  0  0  0  0  0
   -2.8902    2.9490    0.6124 C   0  0  0  0  0  0  0  0  0  0  0  0
   -3.3068    2.5260    1.5220 H   0  0  0  0  0  0  0  0  0  0  0  0
    1.0901    0.1039    0.5651 C   0  0  0  0  0  0  0  0  0  0  0  0
    1.1906   -0.1897    1.7525 O   0  0  0  0  0  0  0  0  0  0  0  0
    2.2545    0.2758   -0.1638 N   0  0  0  0  0  0  0  0  0  0  0  0
    2.1552    0.5306   -1.1417 H   0  0  0  0  0  0  0  0  0  0  0  0
    3.5644   -0.1400    0.3221 C   0  0  0  0  0  0  0  0  0  0  0  0
    3.5704   -1.2153    0.5296 H   0  0  0  0  0  0  0  0  0  0  0  0
    4.3311    0.0731   -0.4287 H   0  0  0  0  0  0  0  0  0  0  0  0
    3.8225    0.3980    1.2403 H   0  0  0  0  0  0  0  0  0  0  0  0
  1  2  1  0  0  0  0
  2  3  1  0  0  0  0
  2  4  1  0  0  0  0
  2  5  1  0  0  0  0
  5  6  2  0  0  0  0
  5  7  1  0  0  0  0
  7  8  1  0  0  0  0
  7  9  1  0  0  0  0
  9 10  1  0  0  0  0
  9 11  1  0  0  0  0
  9 22  1  0  0  0  0
 11 12  1  0  0  0  0
 11 13  1  0  0  0  0
 11 14  1  0  0  0  0
 14 15  1  0  0  0  0
 14 20  2  0  0  0  0
 15 16  2  0  0  0  0
 16 17  1  0  0  0  0
 16 18  1  0  0  0  0
 18 19  1  0  0  0  0
 18 20  1  0  0  0  0
 20 21  1  0  0  0  0
 22 23  2  0  0  0  0
 22 24  1  0  0  0  0
 24 25  1  0  0  0  0
 24 26  1  0  0  0  0
 26 27  1  0  0  0  0
 26 28  1  0  0  0  0
 26 29  1  0  0  0  0
M  END
$$$$

  -OEChem-01062216083D

 29 29  0     1  0  0  0  0  0999 V2000
   -2.7433   -3.0150    1.3843 H   0  0  0  0  0  0  0  0  0  0  0  0
   -2.8506   -1.9747    1.0638 C   0  0  0  0  0  0  0  0  0  0  0  0
   -3.1328   -1.3703    1.9289 H   0  0  0  0  0  0  0  0  0  0  0  0
   -3.6396   -1.9168    0.3104 H   0  0  0  0  0  0  0  0  0  0  0  0
   -1.5408   -1.4713    0.4867 C   0  0  0  0  0  0  0  0  0  0  0  0
   -0.6520   -2.2694    0.2451 O   0  0  0  0  0  0  0  0  0  0  0  0
   -1.4592   -0.1700    0.0274 N   0  0  0  0  0  0  0  0  0  0  0  0
   -2.3278    0.3467    0.1116 H   0  0  0  0  0  0  0  0  0  0  0  0
   -0.2384    0.6672    0.0031 C   0  0  1  0  0  0  0  0  0  0  0  0
   -0.0531    0.9338   -1.0425 H   0  0  0  0  0  0  0  0  0  0  0  0
   -0.5274    1.9526    0.7983 C   0  0  0  0  0  0  0  0  0  0  0  0
   -0.8205    1.6936    1.8205 H   0  0  0  0  0  0  0  0  0  0  0  0
    0.3763    2.5668    0.8610 H   0  0  0  0  0  0  0  0  0  0  0  0
   -1.6018    2.7649    0.1427 C   0  0  0  0  0  0  0  0  0  0  0  0
   -1.4007    3.5160   -1.0060 N   0  0  0  0  0  0  0  0  0  0  0  0
   -2.5362    4.1235   -1.2557 C   0  0  0  0  0  0  0  0  0  0  0  0
   -2.7108    4.7934   -2.0931 H   0  0  0  0  0  0  0  0  0  0  0  0
   -3.4721    3.7880   -0.2944 N   0  0  0  0  0  0  0  0  0  0  0  0
   -4.4232    4.1504   -0.2512 H   0  0  0  0  0  0  0  0  0  0  0  0
   -2.8766    2.9310    0.6075 C   0  0  0  0  0  0  0  0  0  0  0  0
   -3.3047    2.4960    1.5062 H   0  0  0  0  0  0  0  0  0  0  0  0
    1.0898    0.0718    0.5401 C   0  0  0  0  0  0  0  0  0  0  0  0
    1.1347   -0.4020    1.6710 O   0  0  0  0  0  0  0  0  0  0  0  0
    2.2847    0.5064   -0.0090 N   0  0  0  0  0  0  0  0  0  0  0  0
    2.2413    0.9685   -0.9123 H   0  0  0  0  0  0  0  0  0  0  0  0
    3.5909    0.1841    0.5528 C   0  0  0  0  0  0  0  0  0  0  0  0
    3.7181   -0.9011    0.6278 H   0  0  0  0  0  0  0  0  0  0  0  0
    4.3853    0.5823   -0.0856 H   0  0  0  0  0  0  0  0  0  0  0  0
    3.6972    0.6221    1.5508 H   0  0  0  0  0  0  0  0  0  0  0  0
  1  2  1  0  0  0  0
  2  3  1  0  0  0  0
  2  4  1  0  0  0  0
  2  5  1  0  0  0  0
  5  6  2  0  0  0  0
  5  7  1  0  0  0  0
  7  8  1  0  0  0  0
  7  9  1  0  0  0  0
  9 10  1  0  0  0  0
  9 11  1  0  0  0  0
  9 22  1  0  0  0  0
 11 12  1  0  0  0  0
 11 13  1  0  0  0  0
 11 14  1  0  0  0  0
 14 15  1  0  0  0  0
 14 20  2  0  0  0  0
 15 16  2  0  0  0  0
 16 17  1  0  0  0  0
 16 18  1  0  0  0  0
 18 19  1  0  0  0  0
 18 20  1  0  0  0  0
 20 21  1  0  0  0  0
 22 23  2  0  0  0  0
 22 24  1  0  0  0  0
 24 25  1  0  0  0  0
 24 26  1  0  0  0  0
 26 27  1  0  0  0  0
 26 28  1  0  0  0  0
 26 29  1  0  0  0  0
M  END
$$$$

  -OEChem-01062216083D

 29 29  0     1  0  0  0  0  0999 V2000
   -2.7299   -2.9893    1.4150 H   0  0  0  0  0  0  0  0  0  0  0  0
   -2.8367   -1.9502    1.0907 C   0  0  0  0  0  0  0  0  0  0  0  0
   -3.0639   -1.3333    1.9631 H   0  0  0  0  0  0  0  0  0  0  0  0
   -3.6618   -1.8856    0.3776 H   0  0  0  0  0  0  0  0  0  0  0  0
   -1.5499   -1.4752    0.4424 C   0  0  0  0  0  0  0  0  0  0  0  0
   -0.7173   -2.2971    0.1010 O   0  0  0  0  0  0  0  0  0  0  0  0
   -1.4550   -0.1705   -0.0027 N   0  0  0  0  0  0  0  0  0  0  0  0
   -2.3111    0.3576    0.1240 H   0  0  0  0  0  0  0  0  0  0  0  0
   -0.2247    0.6548   -0.0147 C   0  0  1  0  0  0  0  0  0  0  0  0
   -0.0358    0.9339   -1.0563 H   0  0  0  0  0  0  0  0  0  0  0  0
   -0.5231    1.9277    0.8003 C   0  0  0  0  0  0  0  0  0  0  0  0
   -0.8243    1.6497    1.8151 H   0  0  0  0  0  0  0  0  0  0  0  0
    0.3748    2.5472    0.8828 H   0  0  0  0  0  0  0  0  0  0  0  0
   -1.5932    2.7484    0.1484 C   0  0  0  0  0  0  0  0  0  0  0  0
   -1.3802    3.5173   -0.9860 N   0  0  0  0  0  0  0  0  0  0  0  0
   -2.5154    4.1224   -1.2421 C   0  0  0  0  0  0  0  0  0  0  0  0
   -2.6819    4.8032   -2.0722 H   0  0  0  0  0  0  0  0  0  0  0  0
   -3.4621    3.7691   -0.2975 N   0  0  0  0  0  0  0  0  0  0  0  0
   -4.4167    4.1238   -0.2636 H   0  0  0  0  0  0  0  0  0  0  0  0
   -2.8744    2.9023    0.6002 C   0  0  0  0  0  0  0  0  0  0  0  0
   -3.3128    2.4514    1.4860 H   0  0  0  0  0  0  0  0  0  0  0  0
    1.1096    0.0617    0.5161 C   0  0  0  0  0  0  0  0  0  0  0  0
    1.1286   -0.6036    1.5458 O   0  0  0  0  0  0  0  0  0  0  0  0
    2.2876    0.7198    0.1991 N   0  0  0  0  0  0  0  0  0  0  0  0
    2.2627    1.3670   -0.5837 H   0  0  0  0  0  0  0  0  0  0  0  0
    3.5693    0.4362    0.8349 C   0  0  0  0  0  0  0  0  0  0  0  0
    3.8100   -0.6290    0.7525 H   0  0  0  0  0  0  0  0  0  0  0  0
    4.3664    1.0087    0.3513 H   0  0  0  0  0  0  0  0  0  0  0  0
    3.5401    0.7106    1.8945 H   0  0  0  0  0  0  0  0  0  0  0  0
  1  2  1  0  0  0  0
  2  3  1  0  0  0  0
  2  4  1  0  0  0  0
  2  5  1  0  0  0  0
  5  6  2  0  0  0  0
  5  7  1  0  0  0  0
  7  8  1  0  0  0  0
  7  9  1  0  0  0  0
  9 10  1  0  0  0  0
  9 11  1  0  0  0  0
  9 22  1  0  0  0  0
 11 12  1  0  0  0  0
 11 13  1  0  0  0  0
 11 14  1  0  0  0  0
 14 15  1  0  0  0  0
 14 20  2  0  0  0  0
 15 16  2  0  0  0  0
 16 17  1  0  0  0  0
 16 18  1  0  0  0  0
 18 19  1  0  0  0  0
 18 20  1  0  0  0  0
 20 21  1  0  0  0  0
 22 23  2  0  0  0  0
 22 24  1  0  0  0  0
 24 25  1  0  0  0  0
 24 26  1  0  0  0  0
 26 27  1  0  0  0  0
 26 28  1  0  0  0  0
 26 29  1  0  0  0  0
M  END
$$$$

  -OEChem-01062216083D

 29 29  0     1  0  0  0  0  0999 V2000
   -2.5135   -3.1812    1.2966 H   0  0  0  0  0  0  0  0  0  0  0  0
   -2.5928   -2.2945    0.6614 C   0  0  0  0  0  0  0  0  0  0  0  0
   -3.6147   -1.9120    0.7123 H   0  0  0  0  0  0  0  0  0  0  0  0
   -2.3655   -2.5813   -0.3681 H   0  0  0  0  0  0  0  0  0  0  0  0
   -1.6148   -1.2333    1.1286 C   0  0  0  0  0  0  0  0  0  0  0  0
   -1.0635   -1.3490    2.2115 O   0  0  0  0  0  0  0  0  0  0  0  0
   -1.5550   -0.0153    0.4807 N   0  0  0  0  0  0  0  0  0  0  0  0
   -2.2150    0.0481   -0.2871 H   0  0  0  0  0  0  0  0  0  0  0  0
   -0.3029    0.7443    0.2548 C   0  0  1  0  0  0  0  0  0  0  0  0
   -0.3143    1.1121   -0.7764 H   0  0  0  0  0  0  0  0  0  0  0  0
   -0.3646    1.9513    1.2112 C   0  0  0  0  0  0  0  0  0  0  0  0
   -0.4769    1.5925    2.2397 H   0  0  0  0  0  0  0  0  0  0  0  0
    0.5553    2.5389    1.1643 H   0  0  0  0  0  0  0  0  0  0  0  0
   -1.5037    2.8585    0.8581 C   0  0  0  0  0  0  0  0  0  0  0  0
   -1.4868    3.7152   -0.2349 N   0  0  0  0  0  0  0  0  0  0  0  0
   -2.6188    4.3781   -0.1981 C   0  0  0  0  0  0  0  0  0  0  0  0
   -2.9180    5.1340   -0.9187 H   0  0  0  0  0  0  0  0  0  0  0  0
   -3.3708    3.9753    0.8903 N   0  0  0  0  0  0  0  0  0  0  0  0
   -4.2819    4.3508    1.1480 H   0  0  0  0  0  0  0  0  0  0  0  0
   -2.6583    3.0113    1.5716 C   0  0  0  0  0  0  0  0  0  0  0  0
   -2.9299    2.4807    2.4803 H   0  0  0  0  0  0  0  0  0  0  0  0
    1.0697    0.0277    0.4260 C   0  0  0  0  0  0  0  0  0  0  0  0
    1.1768   -1.1880    0.3170 O   0  0  0  0  0  0  0  0  0  0  0  0
    2.2301    0.7566    0.2148 N   0  0  0  0  0  0  0  0  0  0  0  0
    2.1394    1.7648    0.1318 H   0  0  0  0  0  0  0  0  0  0  0  0
    3.5545    0.1587    0.0837 C   0  0  0  0  0  0  0  0  0  0  0  0
    3.6157   -0.4395   -0.8314 H   0  0  0  0  0  0  0  0  0  0  0  0
    4.3191    0.9402    0.0396 H   0  0  0  0  0  0  0  0  0  0  0  0
    3.7715   -0.4861    0.9420 H   0  0  0  0  0  0  0  0  0  0  0  0
  1  2  1  0  0  0  0
  2  3  1  0  0  0  0
  2  4  1  0  0  0  0
  2  5  1  0  0  0  0
  5  6  2  0  0  0  0
  5  7  1  0  0  0  0
  7  8  1  0  0  0  0
  7  9  1  0  0  0  0
  9 10  1  0  0  0  0
  9 11  1  0  0  0  0
  9 22  1  0  0  0  0
 11 12  1  0  0  0  0
 11 13  1  0  0  0  0
 11 14  1  0  0  0  0
 14 15  1  0  0  0  0
 14 20  2  0  0  0  0
 15 16  2  0  0  0  0
 16 17  1  0  0  0  0
 16 18  1  0  0  0  0
 18 19  1  0  0  0  0
 18 20  1  0  0  0  0
 20 21  1  0  0  0  0
 22 23  2  0  0  0  0
 22 24  1  0  0  0  0
 24 25  1  0  0  0  0
 24 26  1  0  0  0  0
 26 27  1  0  0  0  0
 26 28  1  0  0  0  0
 26 29  1  0  0  0  0
M  END
$$$$

  -OEChem-01062216083D

 29 29  0     1  0  0  0  0  0999 V2000
   -2.5054   -3.1589    1.3110 H   0  0  0  0  0  0  0  0  0  0  0  0
   -2.5936   -2.2723    0.6771 C   0  0  0  0  0  0  0  0  0  0  0  0
   -3.6074   -1.8750    0.7625 H   0  0  0  0  0  0  0  0  0  0  0  0
   -2.4064   -2.5635   -0.3592 H   0  0  0  0  0  0  0  0  0  0  0  0
   -1.5856   -1.2241    1.1075 C   0  0  0  0  0  0  0  0  0  0  0  0
   -0.9650   -1.3678    2.1491 O   0  0  0  0  0  0  0  0  0  0  0  0
   -1.5467    0.0004    0.4692 N   0  0  0  0  0  0  0  0  0  0  0  0
   -2.2210    0.0718   -0.2856 H   0  0  0  0  0  0  0  0  0  0  0  0
   -0.3028    0.7718    0.2415 C   0  0  1  0  0  0  0  0  0  0  0  0
   -0.3112    1.1439   -0.7881 H   0  0  0  0  0  0  0  0  0  0  0  0
   -0.3773    1.9760    1.2019 C   0  0  0  0  0  0  0  0  0  0  0  0
   -0.4811    1.6144    2.2302 H   0  0  0  0  0  0  0  0  0  0  0  0
    0.5320    2.5789    1.1494 H   0  0  0  0  0  0  0  0  0  0  0  0
   -1.5274    2.8716    0.8531 C   0  0  0  0  0  0  0  0  0  0  0  0
   -1.5242    3.7327   -0.2363 N   0  0  0  0  0  0  0  0  0  0  0  0
   -2.6654    4.3794   -0.1971 C   0  0  0  0  0  0  0  0  0  0  0  0
   -2.9753    5.1339   -0.9146 H   0  0  0  0  0  0  0  0  0  0  0  0
   -3.4113    3.9604    0.8893 N   0  0  0  0  0  0  0  0  0  0  0  0
   -4.3292    4.3192    1.1468 H   0  0  0  0  0  0  0  0  0  0  0  0
   -2.6850    3.0037    1.5663 C   0  0  0  0  0  0  0  0  0  0  0  0
   -2.9503    2.4642    2.4713 H   0  0  0  0  0  0  0  0  0  0  0  0
    1.0552    0.0260    0.4080 C   0  0  0  0  0  0  0  0  0  0  0  0
    1.1579   -1.1430    0.0511 O   0  0  0  0  0  0  0  0  0  0  0  0
    2.2382    0.7400    0.5205 N   0  0  0  0  0  0  0  0  0  0  0  0
    2.1682    1.7383    0.6897 H   0  0  0  0  0  0  0  0  0  0  0  0
    3.5617    0.1317    0.4480 C   0  0  0  0  0  0  0  0  0  0  0  0
    3.7413   -0.2762   -0.5522 H   0  0  0  0  0  0  0  0  0  0  0  0
    4.3326    0.8781    0.6617 H   0  0  0  0  0  0  0  0  0  0  0  0
    3.6524   -0.6771    1.1808 H   0  0  0  0  0  0  0  0  0  0  0  0
  1  2  1  0  0  0  0
  2  3  1  0  0  0  0
  2  4  1  0  0  0  0
  2  5  1  0  0  0  0
  5  6  2  0  0  0  0
  5  7  1  0  0  0  0
  7  8  1  0  0  0  0
  7  9  1  0  0  0  0
  9 10  1  0  0  0  0
  9 11  1  0  0  0  0
  9 22  1  0  0  0  0
 11 12  1  0  0  0  0
 11 13  1  0  0  0  0
 11 14  1  0  0  0  0
 14 15  1  0  0  0  0
 14 20  2  0  0  0  0
 15 16  2  0  0  0  0
 16 17  1  0  0  0  0
 16 18  1  0  0  0  0
 18 19  1  0  0  0  0
 18 20  1  0  0  0  0
 20 21  1  0  0  0  0
 22 23  2  0  0  0  0
 22 24  1  0  0  0  0
 24 25  1  0  0  0  0
 24 26  1  0  0  0  0
 26 27  1  0  0  0  0
 26 28  1  0  0  0  0
 26 29  1  0  0  0  0
M  END
$$$$

  -OEChem-01062216083D

 29 29  0     1  0  0  0  0  0999 V2000
   -2.4651   -3.1623    1.2900 H   0  0  0  0  0  0  0  0  0  0  0  0
   -2.5847   -2.2601    0.6836 C   0  0  0  0  0  0  0  0  0  0  0  0
   -3.5926   -1.8654    0.8304 H   0  0  0  0  0  0  0  0  0  0  0  0
   -2.4514   -2.5254   -0.3680 H   0  0  0  0  0  0  0  0  0  0  0  0
   -1.5543   -1.2229    1.0873 C   0  0  0  0  0  0  0  0  0  0  0  0
   -0.8736   -1.3981    2.0858 O   0  0  0  0  0  0  0  0  0  0  0  0
   -1.5390    0.0104    0.4644 N   0  0  0  0  0  0  0  0  0  0  0  0
   -2.2345    0.0934   -0.2699 H   0  0  0  0  0  0  0  0  0  0  0  0
   -0.3087    0.7995    0.2277 C   0  0  1  0  0  0  0  0  0  0  0  0
   -0.3271    1.1715   -0.8020 H   0  0  0  0  0  0  0  0  0  0  0  0
   -0.3814    2.0068    1.1833 C   0  0  0  0  0  0  0  0  0  0  0  0
   -0.4659    1.6526    2.2158 H   0  0  0  0  0  0  0  0  0  0  0  0
    0.5205    2.6191    1.1072 H   0  0  0  0  0  0  0  0  0  0  0  0
   -1.5447    2.8882    0.8417 C   0  0  0  0  0  0  0  0  0  0  0  0
   -1.5662    3.7434   -0.2519 N   0  0  0  0  0  0  0  0  0  0  0  0
   -2.7151    4.3751   -0.2033 C   0  0  0  0  0  0  0  0  0  0  0  0
   -3.0436    5.1209   -0.9215 H   0  0  0  0  0  0  0  0  0  0  0  0
   -3.4417    3.9541    0.8954 N   0  0  0  0  0  0  0  0  0  0  0  0
   -4.3594    4.3050    1.1637 H   0  0  0  0  0  0  0  0  0  0  0  0
   -2.6946    3.0110    1.5691 C   0  0  0  0  0  0  0  0  0  0  0  0
   -2.9424    2.4741    2.4806 H   0  0  0  0  0  0  0  0  0  0  0  0
    1.0422    0.0385    0.3730 C   0  0  0  0  0  0  0  0  0  0  0  0
    1.1680   -1.0508   -0.1772 O   0  0  0  0  0  0  0  0  0  0  0  0
    2.2012    0.6769    0.7858 N   0  0  0  0  0  0  0  0  0  0  0  0
    2.1018    1.5899    1.2171 H   0  0  0  0  0  0  0  0  0  0  0  0
    3.5061    0.0273    0.8136 C   0  0  0  0  0  0  0  0  0  0  0  0
    3.8155   -0.2538   -0.1985 H   0  0  0  0  0  0  0  0  0  0  0  0
    4.2575    0.7055    1.2285 H   0  0  0  0  0  0  0  0  0  0  0  0
    3.4717   -0.8737    1.4353 H   0  0  0  0  0  0  0  0  0  0  0  0
  1  2  1  0  0  0  0
  2  3  1  0  0  0  0
  2  4  1  0  0  0  0
  2  5  1  0  0  0  0
  5  6  2  0  0  0  0
  5  7  1  0  0  0  0
  7  8  1  0  0  0  0
  7  9  1  0  0  0  0
  9 10  1  0  0  0  0
  9 11  1  0  0  0  0
  9 22  1  0  0  0  0
 11 12  1  0  0  0  0
 11 13  1  0  0  0  0
 11 14  1  0  0  0  0
 14 15  1  0  0  0  0
 14 20  2  0  0  0  0
 15 16  2  0  0  0  0
 16 17  1  0  0  0  0
 16 18  1  0  0  0  0
 18 19  1  0  0  0  0
 18 20  1  0  0  0  0
 20 21  1  0  0  0  0
 22 23  2  0  0  0  0
 22 24  1  0  0  0  0
 24 25  1  0  0  0  0
 24 26  1  0  0  0  0
 26 27  1  0  0  0  0
 26 28  1  0  0  0  0
 26 29  1  0  0  0  0
M  END
$$$$

  -OEChem-01062216083D

 29 29  0     1  0  0  0  0  0999 V2000
   -2.4336   -3.1736    1.2716 H   0  0  0  0  0  0  0  0  0  0  0  0
   -2.5805   -2.2579    0.6917 C   0  0  0  0  0  0  0  0  0  0  0  0
   -3.5789   -1.8647    0.8973 H   0  0  0  0  0  0  0  0  0  0  0  0
   -2.5014   -2.5006   -0.3708 H   0  0  0  0  0  0  0  0  0  0  0  0
   -1.5282   -1.2310    1.0651 C   0  0  0  0  0  0  0  0  0  0  0  0
   -0.7988   -1.4319    2.0234 O   0  0  0  0  0  0  0  0  0  0  0  0
   -1.5309    0.0083    0.4530 N   0  0  0  0  0  0  0  0  0  0  0  0
   -2.2446    0.1016   -0.2627 H   0  0  0  0  0  0  0  0  0  0  0  0
   -0.3131    0.8139    0.2119 C   0  0  1  0  0  0  0  0  0  0  0  0
   -0.3414    1.1863   -0.8177 H   0  0  0  0  0  0  0  0  0  0  0  0
   -0.3840    2.0237    1.1631 C   0  0  0  0  0  0  0  0  0  0  0  0
   -0.4576    1.6728    2.1973 H   0  0  0  0  0  0  0  0  0  0  0  0
    0.5167    2.6368    1.0730 H   0  0  0  0  0  0  0  0  0  0  0  0
   -1.5564    2.8973    0.8305 C   0  0  0  0  0  0  0  0  0  0  0  0
   -1.5935    3.7482   -0.2658 N   0  0  0  0  0  0  0  0  0  0  0  0
   -2.7433    4.3771   -0.2069 C   0  0  0  0  0  0  0  0  0  0  0  0
   -3.0826    5.1182   -0.9250 H   0  0  0  0  0  0  0  0  0  0  0  0
   -3.4554    3.9596    0.9024 N   0  0  0  0  0  0  0  0  0  0  0  0
   -4.3703    4.3107    1.1800 H   0  0  0  0  0  0  0  0  0  0  0  0
   -2.6978    3.0215    1.5716 C   0  0  0  0  0  0  0  0  0  0  0  0
   -2.9331    2.4910    2.4899 H   0  0  0  0  0  0  0  0  0  0  0  0
    1.0379    0.0538    0.3430 C   0  0  0  0  0  0  0  0  0  0  0  0
    1.2168   -0.9370   -0.3577 O   0  0  0  0  0  0  0  0  0  0  0  0
    2.1243    0.5751    1.0271 N   0  0  0  0  0  0  0  0  0  0  0  0
    1.9427    1.3558    1.6492 H   0  0  0  0  0  0  0  0  0  0  0  0
    3.3954   -0.1281    1.1468 C   0  0  0  0  0  0  0  0  0  0  0  0
    3.8443   -0.2793    0.1595 H   0  0  0  0  0  0  0  0  0  0  0  0
    4.0927    0.4530    1.7575 H   0  0  0  0  0  0  0  0  0  0  0  0
    3.2488   -1.1042    1.6215 H   0  0  0  0  0  0  0  0  0  0  0  0
  1  2  1  0  0  0  0
  2  3  1  0  0  0  0
  2  4  1  0  0  0  0
  2  5  1  0  0  0  0
  5  6  2  0  0  0  0
  5  7  1  0  0  0  0
  7  8  1  0  0  0  0
  7  9  1  0  0  0  0
  9 10  1  0  0  0  0
  9 11  1  0  0  0  0
  9 22  1  0  0  0  0
 11 12  1  0  0  0  0
 11 13  1  0  0  0  0
 11 14  1  0  0  0  0
 14 15  1  0  0  0  0
 14 20  2  0  0  0  0
 15 16  2  0  0  0  0
 16 17  1  0  0  0  0
 16 18  1  0  0  0  0
 18 19  1  0  0  0  0
 18 20  1  0  0  0  0
 20 21  1  0  0  0  0
 22 23  2  0  0  0  0
 22 24  1  0  0  0  0
 24 25  1  0  0  0  0
 24 26  1  0  0  0  0
 26 27  1  0  0  0  0
 26 28  1  0  0  0  0
 26 29  1  0  0  0  0
M  END
$$$$

  -OEChem-01062216083D

 29 29  0     1  0  0  0  0  0999 V2000
   -2.4462   -3.1661    1.2684 H   0  0  0  0  0  0  0  0  0  0  0  0
   -2.5952   -2.2448    0.6984 C   0  0  0  0  0  0  0  0  0  0  0  0
   -3.5778   -1.8340    0.9417 H   0  0  0  0  0  0  0  0  0  0  0  0
   -2.5584   -2.4829   -0.3674 H   0  0  0  0  0  0  0  0  0  0  0  0
   -1.5112   -1.2403    1.0399 C   0  0  0  0  0  0  0  0  0  0  0  0
   -0.7443   -1.4701    1.9615 O   0  0  0  0  0  0  0  0  0  0  0  0
   -1.5175    0.0036    0.4374 N   0  0  0  0  0  0  0  0  0  0  0  0
   -2.2453    0.1128   -0.2620 H   0  0  0  0  0  0  0  0  0  0  0  0
   -0.3082    0.8219    0.2012 C   0  0  1  0  0  0  0  0  0  0  0  0
   -0.3401    1.1961   -0.8276 H   0  0  0  0  0  0  0  0  0  0  0  0
   -0.3829    2.0308    1.1519 C   0  0  0  0  0  0  0  0  0  0  0  0
   -0.4548    1.6815    2.1866 H   0  0  0  0  0  0  0  0  0  0  0  0
    0.5197    2.6421    1.0592 H   0  0  0  0  0  0  0  0  0  0  0  0
   -1.5599    2.8993    0.8222 C   0  0  0  0  0  0  0  0  0  0  0  0
   -1.6061    3.7510   -0.2730 N   0  0  0  0  0  0  0  0  0  0  0  0
   -2.7580    4.3753   -0.2087 C   0  0  0  0  0  0  0  0  0  0  0  0
   -3.1021    5.1172   -0.9239 H   0  0  0  0  0  0  0  0  0  0  0  0
   -3.4643    3.9519    0.9020 N   0  0  0  0  0  0  0  0  0  0  0  0
   -4.3793    4.2989    1.1843 H   0  0  0  0  0  0  0  0  0  0  0  0
   -2.6996    3.0169    1.5672 C   0  0  0  0  0  0  0  0  0  0  0  0
   -2.9290    2.4849    2.4861 H   0  0  0  0  0  0  0  0  0  0  0  0
    1.0464    0.0711    0.3282 C   0  0  0  0  0  0  0  0  0  0  0  0
    1.3071   -0.7925   -0.5023 O   0  0  0  0  0  0  0  0  0  0  0  0
    2.0199    0.4301    1.2464 N   0  0  0  0  0  0  0  0  0  0  0  0
    1.7183    1.0303    2.0071 H   0  0  0  0  0  0  0  0  0  0  0  0
    3.2510   -0.3313    1.4175 C   0  0  0  0  0  0  0  0  0  0  0  0
    3.8241   -0.3506    0.4846 H   0  0  0  0  0  0  0  0  0  0  0  0
    3.8728    0.1249    2.1934 H   0  0  0  0  0  0  0  0  0  0  0  0
    3.0241   -1.3610    1.7135 H   0  0  0  0  0  0  0  0  0  0  0  0
  1  2  1  0  0  0  0
  2  3  1  0  0  0  0
  2  4  1  0  0  0  0
  2  5  1  0  0  0  0
  5  6  2  0  0  0  0
  5  7  1  0  0  0  0
  7  8  1  0  0  0  0
  7  9  1  0  0  0  0
  9 10  1  0  0  0  0
  9 11  1  0  0  0  0
  9 22  1  0  0  0  0
 11 12  1  0  0  0  0
 11 13  1  0  0  0  0
 11 14  1  0  0  0  0
 14 15  1  0  0  0  0
 14 20  2  0  0  0  0
 15 16  2  0  0  0  0
 16 17  1  0  0  0  0
 16 18  1  0  0  0  0
 18 19  1  0  0  0  0
 18 20  1  0  0  0  0
 20 21  1  0  0  0  0
 22 23  2  0  0  0  0
 22 24  1  0  0  0  0
 24 25  1  0  0  0  0
 24 26  1  0  0  0  0
 26 27  1  0  0  0  0
 26 28  1  0  0  0  0
 26 29  1  0  0  0  0
M  END
$$$$

  -OEChem-01062216083D

 29 29  0     1  0  0  0  0  0999 V2000
   -2.4941   -3.1560    1.2655 H   0  0  0  0  0  0  0  0  0  0  0  0
   -2.6345   -2.2278    0.7046 C   0  0  0  0  0  0  0  0  0  0  0  0
   -3.5990   -1.7927    0.9769 H   0  0  0  0  0  0  0  0  0  0  0  0
   -2.6339   -2.4607   -0.3631 H   0  0  0  0  0  0  0  0  0  0  0  0
   -1.5165   -1.2531    1.0217 C   0  0  0  0  0  0  0  0  0  0  0  0
   -0.7252   -1.5133    1.9137 O   0  0  0  0  0  0  0  0  0  0  0  0
   -1.5095   -0.0081    0.4221 N   0  0  0  0  0  0  0  0  0  0  0  0
   -2.2512    0.1248   -0.2587 H   0  0  0  0  0  0  0  0  0  0  0  0
   -0.3019    0.8144    0.1937 C   0  0  1  0  0  0  0  0  0  0  0  0
   -0.3332    1.1903   -0.8350 H   0  0  0  0  0  0  0  0  0  0  0  0
   -0.3779    2.0212    1.1458 C   0  0  0  0  0  0  0  0  0  0  0  0
   -0.4559    1.6718    2.1797 H   0  0  0  0  0  0  0  0  0  0  0  0
    0.5298    2.6261    1.0581 H   0  0  0  0  0  0  0  0  0  0  0  0
   -1.5535    2.8919    0.8170 C   0  0  0  0  0  0  0  0  0  0  0  0
   -1.6005    3.7472   -0.2752 N   0  0  0  0  0  0  0  0  0  0  0  0
   -2.7529    4.3704   -0.2093 C   0  0  0  0  0  0  0  0  0  0  0  0
   -3.0978    5.1146   -0.9216 H   0  0  0  0  0  0  0  0  0  0  0  0
   -3.4598    3.9413    0.8990 N   0  0  0  0  0  0  0  0  0  0  0  0
   -4.3756    4.2863    1.1814 H   0  0  0  0  0  0  0  0  0  0  0  0
   -2.6943    3.0045    1.5610 C   0  0  0  0  0  0  0  0  0  0  0  0
   -2.9239    2.4685    2.4774 H   0  0  0  0  0  0  0  0  0  0  0  0
    1.0581    0.0772    0.3260 C   0  0  0  0  0  0  0  0  0  0  0  0
    1.4344   -0.6178   -0.6108 O   0  0  0  0  0  0  0  0  0  0  0  0
    1.8860    0.2383    1.4247 N   0  0  0  0  0  0  0  0  0  0  0  0
    1.4385    0.6161    2.2539 H   0  0  0  0  0  0  0  0  0  0  0  0
    3.0949   -0.5545    1.6082 C   0  0  0  0  0  0  0  0  0  0  0  0
    3.7825   -0.4086    0.7686 H   0  0  0  0  0  0  0  0  0  0  0  0
    3.6064   -0.2536    2.5271 H   0  0  0  0  0  0  0  0  0  0  0  0
    2.8458   -1.6184    1.6798 H   0  0  0  0  0  0  0  0  0  0  0  0
  1  2  1  0  0  0  0
  2  3  1  0  0  0  0
  2  4  1  0  0  0  0
  2  5  1  0  0  0  0
  5  6  2  0  0  0  0
  5  7  1  0  0  0  0
  7  8  1  0  0  0  0
  7  9  1  0  0  0  0
  9 10  1  0  0  0  0
  9 11  1  0  0  0  0
  9 22  1  0  0  0  0
 11 12  1  0  0  0  0
 11 13  1  0  0  0  0
 11 14  1  0  0  0  0
 14 15  1  0  0  0  0
 14 20  2  0  0  0  0
 15 16  2  0  0  0  0
 16 17  1  0  0  0  0
 16 18  1  0  0  0  0
 18 19  1  0  0  0  0
 18 20  1  0  0  0  0
 20 21  1  0  0  0  0
 22 23  2  0  0  0  0
 22 24  1  0  0  0  0
 24 25  1  0  0  0  0
 24 26  1  0  0  0  0
 26 27  1  0  0  0  0
 26 28  1  0  0  0  0
 26 29  1  0  0  0  0
M  END
$$$$

  -OEChem-01062216083D

 29 29  0     1  0  0  0  0  0999 V2000
   -2.5900   -3.1486    1.2681 H   0  0  0  0  0  0  0  0  0  0  0  0
   -2.7066   -2.2165    0.7076 C   0  0  0  0  0  0  0  0  0  0  0  0
   -3.6538   -1.7511    0.9901 H   0  0  0  0  0  0  0  0  0  0  0  0
   -2.7251   -2.4504   -0.3597 H   0  0  0  0  0  0  0  0  0  0  0  0
   -1.5546   -1.2773    1.0109 C   0  0  0  0  0  0  0  0  0  0  0  0
   -0.7551   -1.5700    1.8845 O   0  0  0  0  0  0  0  0  0  0  0  0
   -1.5173   -0.0328    0.4123 N   0  0  0  0  0  0  0  0  0  0  0  0
   -2.2688    0.1308   -0.2512 H   0  0  0  0  0  0  0  0  0  0  0  0
   -0.3047    0.7863    0.1948 C   0  0  1  0  0  0  0  0  0  0  0  0
   -0.3335    1.1642   -0.8334 H   0  0  0  0  0  0  0  0  0  0  0  0
   -0.3759    1.9923    1.1472 C   0  0  0  0  0  0  0  0  0  0  0  0
   -0.4597    1.6437    2.1807 H   0  0  0  0  0  0  0  0  0  0  0  0
    0.5387    2.5879    1.0649 H   0  0  0  0  0  0  0  0  0  0  0  0
   -1.5436    2.8720    0.8146 C   0  0  0  0  0  0  0  0  0  0  0  0
   -1.5795    3.7283   -0.2770 N   0  0  0  0  0  0  0  0  0  0  0  0
   -2.7244    4.3644   -0.2133 C   0  0  0  0  0  0  0  0  0  0  0  0
   -3.0577    5.1135   -0.9260 H   0  0  0  0  0  0  0  0  0  0  0  0
   -3.4385    3.9423    0.8930 N   0  0  0  0  0  0  0  0  0  0  0  0
   -4.3495    4.2997    1.1755 H   0  0  0  0  0  0  0  0  0  0  0  0
   -2.6846    2.9971    1.5565 C   0  0  0  0  0  0  0  0  0  0  0  0
   -2.9214    2.4659    2.4738 H   0  0  0  0  0  0  0  0  0  0  0  0
    1.0628    0.0670    0.3375 C   0  0  0  0  0  0  0  0  0  0  0  0
    1.5931   -0.3864   -0.6696 O   0  0  0  0  0  0  0  0  0  0  0  0
    1.7307   -0.0044    1.5481 N   0  0  0  0  0  0  0  0  0  0  0  0
    1.1245    0.0754    2.3609 H   0  0  0  0  0  0  0  0  0  0  0  0
    2.9599   -0.7707    1.7060 C   0  0  0  0  0  0  0  0  0  0  0  0
    3.7344   -0.3996    1.0268 H   0  0  0  0  0  0  0  0  0  0  0  0
    3.3310   -0.6808    2.7313 H   0  0  0  0  0  0  0  0  0  0  0  0
    2.7798   -1.8292    1.4919 H   0  0  0  0  0  0  0  0  0  0  0  0
  1  2  1  0  0  0  0
  2  3  1  0  0  0  0
  2  4  1  0  0  0  0
  2  5  1  0  0  0  0
  5  6  2  0  0  0  0
  5  7  1  0  0  0  0
  7  8  1  0  0  0  0
  7  9  1  0  0  0  0
  9 10  1  0  0  0  0
  9 11  1  0  0  0  0
  9 22  1  0  0  0  0
 11 12  1  0  0  0  0
 11 13  1  0  0  0  0
 11 14  1  0  0  0  0
 14 15  1  0  0  0  0
 14 20  2  0  0  0  0
 15 16  2  0  0  0  0
 16 17  1  0  0  0  0
 16 18  1  0  0  0  0
 18 19  1  0  0  0  0
 18 20  1  0  0  0  0
 20 21  1  0  0  0  0
 22 23  2  0  0  0  0
 22 24  1  0  0  0  0
 24 25  1  0  0  0  0
 24 26  1  0  0  0  0
 26 27  1  0  0  0  0
 26 28  1  0  0  0  0
 26 29  1  0  0  0  0
M  END
$$$$

  -OEChem-01062216083D

 29 29  0     1  0  0  0  0  0999 V2000
   -2.7505   -3.1257    1.2438 H   0  0  0  0  0  0  0  0  0  0  0  0
   -2.8308   -2.1772    0.7050 C   0  0  0  0  0  0  0  0  0  0  0  0
   -3.7418   -1.6658    1.0248 H   0  0  0  0  0  0  0  0  0  0  0  0
   -2.8945   -2.3882   -0.3654 H   0  0  0  0  0  0  0  0  0  0  0  0
   -1.6205   -1.3083    0.9914 C   0  0  0  0  0  0  0  0  0  0  0  0
   -0.8241   -1.6568    1.8461 O   0  0  0  0  0  0  0  0  0  0  0  0
   -1.5262   -0.0667    0.3941 N   0  0  0  0  0  0  0  0  0  0  0  0
   -2.2870    0.1438   -0.2455 H   0  0  0  0  0  0  0  0  0  0  0  0
   -0.3033    0.7427    0.1893 C   0  0  1  0  0  0  0  0  0  0  0  0
   -0.3271    1.1238   -0.8380 H   0  0  0  0  0  0  0  0  0  0  0  0
   -0.3729    1.9437    1.1472 C   0  0  0  0  0  0  0  0  0  0  0  0
   -0.4637    1.5904    2.1786 H   0  0  0  0  0  0  0  0  0  0  0  0
    0.5472    2.5321    1.0742 H   0  0  0  0  0  0  0  0  0  0  0  0
   -1.5307    2.8355    0.8110 C   0  0  0  0  0  0  0  0  0  0  0  0
   -1.5550    3.6995   -0.2747 N   0  0  0  0  0  0  0  0  0  0  0  0
   -2.6937    4.3468   -0.2105 C   0  0  0  0  0  0  0  0  0  0  0  0
   -3.0178    5.1038   -0.9191 H   0  0  0  0  0  0  0  0  0  0  0  0
   -3.4153    3.9248    0.8909 N   0  0  0  0  0  0  0  0  0  0  0  0
   -4.3208    4.2935    1.1763 H   0  0  0  0  0  0  0  0  0  0  0  0
   -2.6726    2.9682    1.5505 C   0  0  0  0  0  0  0  0  0  0  0  0
   -2.9155    2.4367    2.4661 H   0  0  0  0  0  0  0  0  0  0  0  0
    1.0767    0.0486    0.3458 C   0  0  0  0  0  0  0  0  0  0  0  0
    1.7631   -0.1245   -0.6540 O   0  0  0  0  0  0  0  0  0  0  0  0
    1.5978   -0.2768    1.5855 N   0  0  0  0  0  0  0  0  0  0  0  0
    0.8790   -0.4671    2.2848 H   0  0  0  0  0  0  0  0  0  0  0  0
    2.8646   -0.9823    1.7304 C   0  0  0  0  0  0  0  0  0  0  0  0
    3.6795   -0.4062    1.2797 H   0  0  0  0  0  0  0  0  0  0  0  0
    3.0938   -1.1299    2.7899 H   0  0  0  0  0  0  0  0  0  0  0  0
    2.8144   -1.9625    1.2448 H   0  0  0  0  0  0  0  0  0  0  0  0
  1  2  1  0  0  0  0
  2  3  1  0  0  0  0
  2  4  1  0  0  0  0
  2  5  1  0  0  0  0
  5  6  2  0  0  0  0
  5  7  1  0  0  0  0
  7  8  1  0  0  0  0
  7  9  1  0  0  0  0
  9 10  1  0  0  0  0
  9 11  1  0  0  0  0
  9 22  1  0  0  0  0
 11 12  1  0  0  0  0
 11 13  1  0  0  0  0
 11 14  1  0  0  0  0
 14 15  1  0  0  0  0
 14 20  2  0  0  0  0
 15 16  2  0  0  0  0
 16 17  1  0  0  0  0
 16 18  1  0  0  0  0
 18 19  1  0  0  0  0
 18 20  1  0  0  0  0
 20 21  1  0  0  0  0
 22 23  2  0  0  0  0
 22 24  1  0  0  0  0
 24 25  1  0  0  0  0
 24 26  1  0  0  0  0
 26 27  1  0  0  0  0
 26 28  1  0  0  0  0
 26 29  1  0  0  0  0
M  END
$$$$

  -OEChem-01062216083D

 29 29  0     1  0  0  0  0  0999 V2000
   -2.9435   -3.0854    1.1849 H   0  0  0  0  0  0  0  0  0  0  0  0
   -2.9833   -2.1047    0.7022 C   0  0  0  0  0  0  0  0  0  0  0  0
   -3.8359   -1.5497    1.1010 H   0  0  0  0  0  0  0  0  0  0  0  0
   -3.1212   -2.2499   -0.3721 H   0  0  0  0  0  0  0  0  0  0  0  0
   -1.6985   -1.3405    0.9621 C   0  0  0  0  0  0  0  0  0  0  0  0
   -0.9049   -1.7793    1.7749 O   0  0  0  0  0  0  0  0  0  0  0  0
   -1.5316   -0.1027    0.3727 N   0  0  0  0  0  0  0  0  0  0  0  0
   -2.3068    0.1754   -0.2224 H   0  0  0  0  0  0  0  0  0  0  0  0
   -0.2963    0.6957    0.1832 C   0  0  1  0  0  0  0  0  0  0  0  0
   -0.3157    1.0827   -0.8421 H   0  0  0  0  0  0  0  0  0  0  0  0
   -0.3736    1.8874    1.1511 C   0  0  0  0  0  0  0  0  0  0  0  0
   -0.4748    1.5240    2.1783 H   0  0  0  0  0  0  0  0  0  0  0  0
    0.5490    2.4740    1.0939 H   0  0  0  0  0  0  0  0  0  0  0  0
   -1.5230    2.7882    0.8087 C   0  0  0  0  0  0  0  0  0  0  0  0
   -1.5326    3.6641   -0.2677 N   0  0  0  0  0  0  0  0  0  0  0  0
   -2.6681    4.3174   -0.2076 C   0  0  0  0  0  0  0  0  0  0  0  0
   -2.9804    5.0850   -0.9102 H   0  0  0  0  0  0  0  0  0  0  0  0
   -3.4035    3.8863    0.8811 N   0  0  0  0  0  0  0  0  0  0  0  0
   -4.3089    4.2585    1.1626 H   0  0  0  0  0  0  0  0  0  0  0  0
   -2.6722    2.9186    1.5375 C   0  0  0  0  0  0  0  0  0  0  0  0
   -2.9264    2.3795    2.4455 H   0  0  0  0  0  0  0  0  0  0  0  0
    1.1017    0.0383    0.3505 C   0  0  0  0  0  0  0  0  0  0  0  0
    1.9035    0.1358   -0.5703 O   0  0  0  0  0  0  0  0  0  0  0  0
    1.5200   -0.5477    1.5306 N   0  0  0  0  0  0  0  0  0  0  0  0
    0.7543   -0.8833    2.1195 H   0  0  0  0  0  0  0  0  0  0  0  0
    2.8110   -1.2103    1.6644 C   0  0  0  0  0  0  0  0  0  0  0  0
    3.6261   -0.5086    1.4585 H   0  0  0  0  0  0  0  0  0  0  0  0
    2.9338   -1.5911    2.6829 H   0  0  0  0  0  0  0  0  0  0  0  0
    2.8843   -2.0514    0.9673 H   0  0  0  0  0  0  0  0  0  0  0  0
  1  2  1  0  0  0  0
  2  3  1  0  0  0  0
  2  4  1  0  0  0  0
  2  5  1  0  0  0  0
  5  6  2  0  0  0  0
  5  7  1  0  0  0  0
  7  8  1  0  0  0  0
  7  9  1  0  0  0  0
  9 10  1  0  0  0  0
  9 11  1  0  0  0  0
  9 22  1  0  0  0  0
 11 12  1  0  0  0  0
 11 13  1  0  0  0  0
 11 14  1  0  0  0  0
 14 15  1  0  0  0  0
 14 20  2  0  0  0  0
 15 16  2  0  0  0  0
 16 17  1  0  0  0  0
 16 18  1  0  0  0  0
 18 19  1  0  0  0  0
 18 20  1  0  0  0  0
 20 21  1  0  0  0  0
 22 23  2  0  0  0  0
 22 24  1  0  0  0  0
 24 25  1  0  0  0  0
 24 26  1  0  0  0  0
 26 27  1  0  0  0  0
 26 28  1  0  0  0  0
 26 29  1  0  0  0  0
M  END
$$$$

  -OEChem-01062216083D

 29 29  0     1  0  0  0  0  0999 V2000
   -3.1217   -3.0396    1.1485 H   0  0  0  0  0  0  0  0  0  0  0  0
   -3.1174   -2.0407    0.7029 C   0  0  0  0  0  0  0  0  0  0  0  0
   -3.9141   -1.4481    1.1590 H   0  0  0  0  0  0  0  0  0  0  0  0
   -3.3095   -2.1358   -0.3686 H   0  0  0  0  0  0  0  0  0  0  0  0
   -1.7761   -1.3699    0.9340 C   0  0  0  0  0  0  0  0  0  0  0  0
   -0.9915   -1.8871    1.7070 O   0  0  0  0  0  0  0  0  0  0  0  0
   -1.5499   -0.1356    0.3558 N   0  0  0  0  0  0  0  0  0  0  0  0
   -2.3304    0.1973   -0.2034 H   0  0  0  0  0  0  0  0  0  0  0  0
   -0.3013    0.6495    0.1794 C   0  0  1  0  0  0  0  0  0  0  0  0
   -0.3174    1.0408   -0.8443 H   0  0  0  0  0  0  0  0  0  0  0  0
   -0.3843    1.8346    1.1557 C   0  0  0  0  0  0  0  0  0  0  0  0
   -0.4995    1.4617    2.1781 H   0  0  0  0  0  0  0  0  0  0  0  0
    0.5418    2.4174    1.1151 H   0  0  0  0  0  0  0  0  0  0  0  0
   -1.5227    2.7479    0.8086 C   0  0  0  0  0  0  0  0  0  0  0  0
   -1.5114    3.6332   -0.2595 N   0  0  0  0  0  0  0  0  0  0  0  0
   -2.6387    4.3004   -0.2054 C   0  0  0  0  0  0  0  0  0  0  0  0
   -2.9331    5.0785   -0.9041 H   0  0  0  0  0  0  0  0  0  0  0  0
   -3.3910    3.8676    0.8710 N   0  0  0  0  0  0  0  0  0  0  0  0
   -4.2942    4.2492    1.1467 H   0  0  0  0  0  0  0  0  0  0  0  0
   -2.6778    2.8859    1.5271 C   0  0  0  0  0  0  0  0  0  0  0  0
   -2.9463    2.3451    2.4299 H   0  0  0  0  0  0  0  0  0  0  0  0
    1.1125    0.0224    0.3491 C   0  0  0  0  0  0  0  0  0  0  0  0
    1.9830    0.3540   -0.4463 O   0  0  0  0  0  0  0  0  0  0  0  0
    1.4756   -0.8123    1.3880 N   0  0  0  0  0  0  0  0  0  0  0  0
    0.6983   -1.2323    1.9029 H   0  0  0  0  0  0  0  0  0  0  0  0
    2.7889   -1.4338    1.4981 C   0  0  0  0  0  0  0  0  0  0  0  0
    3.5734   -0.6706    1.5330 H   0  0  0  0  0  0  0  0  0  0  0  0
    2.8473   -2.0286    2.4146 H   0  0  0  0  0  0  0  0  0  0  0  0
    2.9739   -2.0921    0.6432 H   0  0  0  0  0  0  0  0  0  0  0  0
  1  2  1  0  0  0  0
  2  3  1  0  0  0  0
  2  4  1  0  0  0  0
  2  5  1  0  0  0  0
  5  6  2  0  0  0  0
  5  7  1  0  0  0  0
  7  8  1  0  0  0  0
  7  9  1  0  0  0  0
  9 10  1  0  0  0  0
  9 11  1  0  0  0  0
  9 22  1  0  0  0  0
 11 12  1  0  0  0  0
 11 13  1  0  0  0  0
 11 14  1  0  0  0  0
 14 15  1  0  0  0  0
 14 20  2  0  0  0  0
 15 16  2  0  0  0  0
 16 17  1  0  0  0  0
 16 18  1  0  0  0  0
 18 19  1  0  0  0  0
 18 20  1  0  0  0  0
 20 21  1  0  0  0  0
 22 23  2  0  0  0  0
 22 24  1  0  0  0  0
 24 25  1  0  0  0  0
 24 26  1  0  0  0  0
 26 27  1  0  0  0  0
 26 28  1  0  0  0  0
 26 29  1  0  0  0  0
M  END
$$$$

  -OEChem-01062216083D

 29 29  0     1  0  0  0  0  0999 V2000
   -3.1452   -3.0026    1.4488 H   0  0  0  0  0  0  0  0  0  0  0  0
   -3.1127   -2.0815    0.8596 C   0  0  0  0  0  0  0  0  0  0  0  0
   -3.9221   -1.4255    1.1889 H   0  0  0  0  0  0  0  0  0  0  0  0
   -3.2621   -2.3345   -0.1929 H   0  0  0  0  0  0  0  0  0  0  0  0
   -1.7749   -1.3886    1.0410 C   0  0  0  0  0  0  0  0  0  0  0  0
   -0.9748   -1.8636    1.8247 O   0  0  0  0  0  0  0  0  0  0  0  0
   -1.5723   -0.1788    0.4056 N   0  0  0  0  0  0  0  0  0  0  0  0
   -2.3765    0.1259   -0.1358 H   0  0  0  0  0  0  0  0  0  0  0  0
   -0.3417    0.6126    0.1423 C   0  0  1  0  0  0  0  0  0  0  0  0
   -0.4099    0.9632   -0.8938 H   0  0  0  0  0  0  0  0  0  0  0  0
   -0.4121    1.8313    1.0787 C   0  0  0  0  0  0  0  0  0  0  0  0
   -0.4790    1.4934    2.1173 H   0  0  0  0  0  0  0  0  0  0  0  0
    0.4983    2.4321    0.9825 H   0  0  0  0  0  0  0  0  0  0  0  0
   -1.5814    2.7097    0.7437 C   0  0  0  0  0  0  0  0  0  0  0  0
   -1.6327    3.5572   -0.3539 N   0  0  0  0  0  0  0  0  0  0  0  0
   -2.7709    4.2032   -0.2750 C   0  0  0  0  0  0  0  0  0  0  0  0
   -3.1100    4.9513   -0.9859 H   0  0  0  0  0  0  0  0  0  0  0  0
   -3.4696    3.7924    0.8452 N   0  0  0  0  0  0  0  0  0  0  0  0
   -4.3679    4.1661    1.1464 H   0  0  0  0  0  0  0  0  0  0  0  0
   -2.7094    2.8487    1.5037 C   0  0  0  0  0  0  0  0  0  0  0  0
   -2.9288    2.3339    2.4346 H   0  0  0  0  0  0  0  0  0  0  0  0
    1.0985    0.0321    0.2690 C   0  0  0  0  0  0  0  0  0  0  0  0
    1.9698    0.5292   -0.4340 O   0  0  0  0  0  0  0  0  0  0  0  0
    1.4870   -0.9715    1.1333 N   0  0  0  0  0  0  0  0  0  0  0  0
    0.7448   -1.4235    1.6711 H   0  0  0  0  0  0  0  0  0  0  0  0
    2.8398   -1.5066    1.2149 C   0  0  0  0  0  0  0  0  0  0  0  0
    3.5480   -0.7180    1.4894 H   0  0  0  0  0  0  0  0  0  0  0  0
    2.8872   -2.2930    1.9743 H   0  0  0  0  0  0  0  0  0  0  0  0
    3.1413   -1.9346    0.2534 H   0  0  0  0  0  0  0  0  0  0  0  0
  1  2  1  0  0  0  0
  2  3  1  0  0  0  0
  2  4  1  0  0  0  0
  2  5  1  0  0  0  0
  5  6  2  0  0  0  0
  5  7  1  0  0  0  0
  7  8  1  0  0  0  0
  7  9  1  0  0  0  0
  9 10  1  0  0  0  0
  9 11  1  0  0  0  0
  9 22  1  0  0  0  0
 11 12  1  0  0  0  0
 11 13  1  0  0  0  0
 11 14  1  0  0  0  0
 14 15  1  0  0  0  0
 14 20  2  0  0  0  0
 15 16  2  0  0  0  0
 16 17  1  0  0  0  0
 16 18  1  0  0  0  0
 18 19  1  0  0  0  0
 18 20  1  0  0  0  0
 20 21  1  0  0  0  0
 22 23  2  0  0  0  0
 22 24  1  0  0  0  0
 24 25  1  0  0  0  0
 24 26  1  0  0  0  0
 26 27  1  0  0  0  0
 26 28  1  0  0  0  0
 26 29  1  0  0  0  0
M  END
$$$$

  -OEChem-01062216083D

 29 29  0     1  0  0  0  0  0999 V2000
   -2.4596   -3.1590    1.4888 H   0  0  0  0  0  0  0  0  0  0  0  0
   -2.5313   -2.2602    0.8696 C   0  0  0  0  0  0  0  0  0  0  0  0
   -3.4919   -1.7764    1.0620 H   0  0  0  0  0  0  0  0  0  0  0  0
   -2.4821   -2.5546   -0.1815 H   0  0  0  0  0  0  0  0  0  0  0  0
   -1.3956   -1.3081    1.1957 C   0  0  0  0  0  0  0  0  0  0  0  0
   -0.6843   -1.5447    2.1531 O   0  0  0  0  0  0  0  0  0  0  0  0
   -1.3375   -0.0926    0.5479 N   0  0  0  0  0  0  0  0  0  0  0  0
   -2.1190    0.0591   -0.0826 H   0  0  0  0  0  0  0  0  0  0  0  0
   -0.1805    0.8007    0.2879 C   0  0  1  0  0  0  0  0  0  0  0  0
   -0.2689    1.1328   -0.7518 H   0  0  0  0  0  0  0  0  0  0  0  0
   -0.4104    2.0172    1.2094 C   0  0  0  0  0  0  0  0  0  0  0  0
   -0.4716    1.6810    2.2491 H   0  0  0  0  0  0  0  0  0  0  0  0
    0.4247    2.7207    1.1393 H   0  0  0  0  0  0  0  0  0  0  0  0
   -1.6579    2.7592    0.8273 C   0  0  0  0  0  0  0  0  0  0  0  0
   -1.7703    3.5855   -0.2831 N   0  0  0  0  0  0  0  0  0  0  0  0
   -2.9747    4.1026   -0.2430 C   0  0  0  0  0  0  0  0  0  0  0  0
   -3.3742    4.8007   -0.9732 H   0  0  0  0  0  0  0  0  0  0  0  0
   -3.6561    3.6292    0.8629 N   0  0  0  0  0  0  0  0  0  0  0  0
   -4.5984    3.9038    1.1348 H   0  0  0  0  0  0  0  0  0  0  0  0
   -2.8159    2.7815    1.5538 C   0  0  0  0  0  0  0  0  0  0  0  0
   -3.0023    2.2530    2.4846 H   0  0  0  0  0  0  0  0  0  0  0  0
    1.3185    0.3655    0.4163 C   0  0  0  0  0  0  0  0  0  0  0  0
    2.1879    1.1871    0.1648 O   0  0  0  0  0  0  0  0  0  0  0  0
    1.8804   -0.7367    1.0157 N   0  0  0  0  0  0  0  0  0  0  0  0
    2.8482   -0.5409    1.2560 H   0  0  0  0  0  0  0  0  0  0  0  0
    1.6686   -2.0637    0.4505 C   0  0  0  0  0  0  0  0  0  0  0  0
    2.5605   -2.3810   -0.0986 H   0  0  0  0  0  0  0  0  0  0  0  0
    1.4770   -2.7881    1.2485 H   0  0  0  0  0  0  0  0  0  0  0  0
    0.8234   -2.0759   -0.2442 H   0  0  0  0  0  0  0  0  0  0  0  0
  1  2  1  0  0  0  0
  2  3  1  0  0  0  0
  2  4  1  0  0  0  0
  2  5  1  0  0  0  0
  5  6  2  0  0  0  0
  5  7  1  0  0  0  0
  7  8  1  0  0  0  0
  7  9  1  0  0  0  0
  9 10  1  0  0  0  0
  9 11  1  0  0  0  0
  9 22  1  0  0  0  0
 11 12  1  0  0  0  0
 11 13  1  0  0  0  0
 11 14  1  0  0  0  0
 14 15  1  0  0  0  0
 14 20  2  0  0  0  0
 15 16  2  0  0  0  0
 16 17  1  0  0  0  0
 16 18  1  0  0  0  0
 18 19  1  0  0  0  0
 18 20  1  0  0  0  0
 20 21  1  0  0  0  0
 22 23  2  0  0  0  0
 22 24  1  0  0  0  0
 24 25  1  0  0  0  0
 24 26  1  0  0  0  0
 26 27  1  0  0  0  0
 26 28  1  0  0  0  0
 26 29  1  0  0  0  0
M  END
$$$$

  -OEChem-01062216083D

 29 29  0     1  0  0  0  0  0999 V2000
   -2.7043   -3.2234    1.3117 H   0  0  0  0  0  0  0  0  0  0  0  0
   -2.8654   -2.2610    0.8179 C   0  0  0  0  0  0  0  0  0  0  0  0
   -3.7361   -1.7753    1.2651 H   0  0  0  0  0  0  0  0  0  0  0  0
   -3.0596   -2.4410   -0.2421 H   0  0  0  0  0  0  0  0  0  0  0  0
   -1.6406   -1.3805    0.9790 C   0  0  0  0  0  0  0  0  0  0  0  0
   -0.8168   -1.6672    1.8260 O   0  0  0  0  0  0  0  0  0  0  0  0
   -1.6210   -0.1436    0.3716 N   0  0  0  0  0  0  0  0  0  0  0  0
   -2.4894    0.0633   -0.1124 H   0  0  0  0  0  0  0  0  0  0  0  0
   -0.4634    0.6153   -0.1620 C   0  0  1  0  0  0  0  0  0  0  0  0
   -0.7721    1.0246   -1.1302 H   0  0  0  0  0  0  0  0  0  0  0  0
   -0.2419    1.7830    0.8150 C   0  0  0  0  0  0  0  0  0  0  0  0
   -0.0666    1.3897    1.8212 H   0  0  0  0  0  0  0  0  0  0  0  0
    0.6422    2.3588    0.5232 H   0  0  0  0  0  0  0  0  0  0  0  0
   -1.4182    2.7144    0.8232 C   0  0  0  0  0  0  0  0  0  0  0  0
   -1.7048    3.6210   -0.1887 N   0  0  0  0  0  0  0  0  0  0  0  0
   -2.7635    4.2902    0.2001 C   0  0  0  0  0  0  0  0  0  0  0  0
   -3.2401    5.0823   -0.3703 H   0  0  0  0  0  0  0  0  0  0  0  0
   -3.1790    3.8399    1.4396 N   0  0  0  0  0  0  0  0  0  0  0  0
   -3.9646    4.2147    1.9684 H   0  0  0  0  0  0  0  0  0  0  0  0
   -2.3179    2.8417    1.8444 C   0  0  0  0  0  0  0  0  0  0  0  0
   -2.3236    2.2765    2.7721 H   0  0  0  0  0  0  0  0  0  0  0  0
    0.9313   -0.0298   -0.4304 C   0  0  0  0  0  0  0  0  0  0  0  0
    1.6689    0.5265   -1.2299 O   0  0  0  0  0  0  0  0  0  0  0  0
    1.3249   -1.3320   -0.2360 N   0  0  0  0  0  0  0  0  0  0  0  0
    1.9102   -1.6107   -1.0189 H   0  0  0  0  0  0  0  0  0  0  0  0
    1.9570   -1.6461    1.0409 C   0  0  0  0  0  0  0  0  0  0  0  0
    1.6548   -0.9429    1.8247 H   0  0  0  0  0  0  0  0  0  0  0  0
    1.6820   -2.6567    1.3586 H   0  0  0  0  0  0  0  0  0  0  0  0
    3.0458   -1.5951    0.9425 H   0  0  0  0  0  0  0  0  0  0  0  0
  1  2  1  0  0  0  0
  2  3  1  0  0  0  0
  2  4  1  0  0  0  0
  2  5  1  0  0  0  0
  5  6  2  0  0  0  0
  5  7  1  0  0  0  0
  7  8  1  0  0  0  0
  7  9  1  0  0  0  0
  9 10  1  0  0  0  0
  9 11  1  0  0  0  0
  9 22  1  0  0  0  0
 11 12  1  0  0  0  0
 11 13  1  0  0  0  0
 11 14  1  0  0  0  0
 14 15  1  0  0  0  0
 14 20  2  0  0  0  0
 15 16  2  0  0  0  0
 16 17  1  0  0  0  0
 16 18  1  0  0  0  0
 18 19  1  0  0  0  0
 18 20  1  0  0  0  0
 20 21  1  0  0  0  0
 22 23  2  0  0  0  0
 22 24  1  0  0  0  0
 24 25  1  0  0  0  0
 24 26  1  0  0  0  0
 26 27  1  0  0  0  0
 26 28  1  0  0  0  0
 26 29  1  0  0  0  0
M  END
$$$$

  -OEChem-01062216083D

 29 29  0     1  0  0  0  0  0999 V2000
   -3.2063   -2.9493    1.2406 H   0  0  0  0  0  0  0  0  0  0  0  0
   -3.1805   -1.9552    0.7849 C   0  0  0  0  0  0  0  0  0  0  0  0
   -3.8972   -1.3131    1.3025 H   0  0  0  0  0  0  0  0  0  0  0  0
   -3.4717   -2.0439   -0.2645 H   0  0  0  0  0  0  0  0  0  0  0  0
   -1.7861   -1.3662    0.8897 C   0  0  0  0  0  0  0  0  0  0  0  0
   -0.9428   -1.9690    1.5267 O   0  0  0  0  0  0  0  0  0  0  0  0
   -1.5519   -0.1235    0.3340 N   0  0  0  0  0  0  0  0  0  0  0  0
   -2.3717    0.2857   -0.1057 H   0  0  0  0  0  0  0  0  0  0  0  0
   -0.2963    0.6409    0.1097 C   0  0  1  0  0  0  0  0  0  0  0  0
   -0.3464    1.0427   -0.9080 H   0  0  0  0  0  0  0  0  0  0  0  0
   -0.3611    1.8196    1.1048 C   0  0  0  0  0  0  0  0  0  0  0  0
   -0.4483    1.4346    2.1252 H   0  0  0  0  0  0  0  0  0  0  0  0
    0.5528    2.4194    1.0557 H   0  0  0  0  0  0  0  0  0  0  0  0
   -1.5114    2.7309    0.7902 C   0  0  0  0  0  0  0  0  0  0  0  0
   -1.5325    3.6280   -0.2686 N   0  0  0  0  0  0  0  0  0  0  0  0
   -2.6599    4.2909   -0.1762 C   0  0  0  0  0  0  0  0  0  0  0  0
   -2.9754    5.0770   -0.8565 H   0  0  0  0  0  0  0  0  0  0  0  0
   -3.3819    3.8424    0.9144 N   0  0  0  0  0  0  0  0  0  0  0  0
   -4.2751    4.2225    1.2230 H   0  0  0  0  0  0  0  0  0  0  0  0
   -2.6479    2.8566    1.5401 C   0  0  0  0  0  0  0  0  0  0  0  0
   -2.8885    2.3077    2.4460 H   0  0  0  0  0  0  0  0  0  0  0  0
    1.1178   -0.0205    0.1846 C   0  0  0  0  0  0  0  0  0  0  0  0
    2.1085    0.6988    0.1195 O   0  0  0  0  0  0  0  0  0  0  0  0
    1.3382   -1.3851    0.1639 N   0  0  0  0  0  0  0  0  0  0  0  0
    0.5465   -1.9493    0.4755 H   0  0  0  0  0  0  0  0  0  0  0  0
    2.6657   -1.9819    0.2510 C   0  0  0  0  0  0  0  0  0  0  0  0
    3.1537   -1.6976    1.1890 H   0  0  0  0  0  0  0  0  0  0  0  0
    2.5895   -3.0731    0.2155 H   0  0  0  0  0  0  0  0  0  0  0  0
    3.2903   -1.6534   -0.5862 H   0  0  0  0  0  0  0  0  0  0  0  0
  1  2  1  0  0  0  0
  2  3  1  0  0  0  0
  2  4  1  0  0  0  0
  2  5  1  0  0  0  0
  5  6  2  0  0  0  0
  5  7  1  0  0  0  0
  7  8  1  0  0  0  0
  7  9  1  0  0  0  0
  9 10  1  0  0  0  0
  9 11  1  0  0  0  0
  9 22  1  0  0  0  0
 11 12  1  0  0  0  0
 11 13  1  0  0  0  0
 11 14  1  0  0  0  0
 14 15  1  0  0  0  0
 14 20  2  0  0  0  0
 15 16  2  0  0  0  0
 16 17  1  0  0  0  0
 16 18  1  0  0  0  0
 18 19  1  0  0  0  0
 18 20  1  0  0  0  0
 20 21  1  0  0  0  0
 22 23  2  0  0  0  0
 22 24  1  0  0  0  0
 24 25  1  0  0  0  0
 24 26  1  0  0  0  0
 26 27  1  0  0  0  0
 26 28  1  0  0  0  0
 26 29  1  0  0  0  0
M  END
$$$$

  -OEChem-01062216083D

 29 29  0     1  0  0  0  0  0999 V2000
   -3.1137   -2.9453    1.2913 H   0  0  0  0  0  0  0  0  0  0  0  0
   -3.1126   -1.9487    0.8402 C   0  0  0  0  0  0  0  0  0  0  0  0
   -3.7867   -1.3050    1.4102 H   0  0  0  0  0  0  0  0  0  0  0  0
   -3.4769   -2.0289   -0.1869 H   0  0  0  0  0  0  0  0  0  0  0  0
   -1.7098   -1.3701    0.8505 C   0  0  0  0  0  0  0  0  0  0  0  0
   -0.8133   -2.0160    1.3591 O   0  0  0  0  0  0  0  0  0  0  0  0
   -1.5095   -0.1120    0.3159 N   0  0  0  0  0  0  0  0  0  0  0  0
   -2.3538    0.3238   -0.0449 H   0  0  0  0  0  0  0  0  0  0  0  0
   -0.2674    0.6762    0.1051 C   0  0  1  0  0  0  0  0  0  0  0  0
   -0.3157    1.0854   -0.9097 H   0  0  0  0  0  0  0  0  0  0  0  0
   -0.3524    1.8495    1.1057 C   0  0  0  0  0  0  0  0  0  0  0  0
   -0.4359    1.4590    2.1243 H   0  0  0  0  0  0  0  0  0  0  0  0
    0.5506    2.4657    1.0608 H   0  0  0  0  0  0  0  0  0  0  0  0
   -1.5154    2.7423    0.7880 C   0  0  0  0  0  0  0  0  0  0  0  0
   -1.5440    3.6412   -0.2689 N   0  0  0  0  0  0  0  0  0  0  0  0
   -2.6838    4.2835   -0.1837 C   0  0  0  0  0  0  0  0  0  0  0  0
   -3.0078    5.0651   -0.8652 H   0  0  0  0  0  0  0  0  0  0  0  0
   -3.4064    3.8191    0.8998 N   0  0  0  0  0  0  0  0  0  0  0  0
   -4.3089    4.1823    1.2016 H   0  0  0  0  0  0  0  0  0  0  0  0
   -2.6595    2.8454    1.5296 C   0  0  0  0  0  0  0  0  0  0  0  0
   -2.8970    2.2908    2.4329 H   0  0  0  0  0  0  0  0  0  0  0  0
    1.1408    0.0036    0.1749 C   0  0  0  0  0  0  0  0  0  0  0  0
    2.1359    0.6918    0.3743 O   0  0  0  0  0  0  0  0  0  0  0  0
    1.3473   -1.3199   -0.1695 N   0  0  0  0  0  0  0  0  0  0  0  0
    0.5362   -1.9157   -0.0016 H   0  0  0  0  0  0  0  0  0  0  0  0
    2.6587   -1.9532   -0.0992 C   0  0  0  0  0  0  0  0  0  0  0  0
    3.0477   -1.9166    0.9236 H   0  0  0  0  0  0  0  0  0  0  0  0
    2.5869   -3.0006   -0.4066 H   0  0  0  0  0  0  0  0  0  0  0  0
    3.3660   -1.4474   -0.7648 H   0  0  0  0  0  0  0  0  0  0  0  0
  1  2  1  0  0  0  0
  2  3  1  0  0  0  0
  2  4  1  0  0  0  0
  2  5  1  0  0  0  0
  5  6  2  0  0  0  0
  5  7  1  0  0  0  0
  7  8  1  0  0  0  0
  7  9  1  0  0  0  0
  9 10  1  0  0  0  0
  9 11  1  0  0  0  0
  9 22  1  0  0  0  0
 11 12  1  0  0  0  0
 11 13  1  0  0  0  0
 11 14  1  0  0  0  0
 14 15  1  0  0  0  0
 14 20  2  0  0  0  0
 15 16  2  0  0  0  0
 16 17  1  0  0  0  0
 16 18  1  0  0  0  0
 18 19  1  0  0  0  0
 18 20  1  0  0  0  0
 20 21  1  0  0  0  0
 22 23  2  0  0  0  0
 22 24  1  0  0  0  0
 24 25  1  0  0  0  0
 24 26  1  0  0  0  0
 26 27  1  0  0  0  0
 26 28  1  0  0  0  0
 26 29  1  0  0  0  0
M  END
$$$$

  -OEChem-01062216083D

 29 29  0     1  0  0  0  0  0999 V2000
   -2.9983   -2.9578    1.3248 H   0  0  0  0  0  0  0  0  0  0  0  0
   -3.0289   -1.9589    0.8796 C   0  0  0  0  0  0  0  0  0  0  0  0
   -3.6643   -1.3195    1.4972 H   0  0  0  0  0  0  0  0  0  0  0  0
   -3.4607   -2.0341   -0.1213 H   0  0  0  0  0  0  0  0  0  0  0  0
   -1.6292   -1.3781    0.7989 C   0  0  0  0  0  0  0  0  0  0  0  0
   -0.6920   -2.0495    1.1856 O   0  0  0  0  0  0  0  0  0  0  0  0
   -1.4687   -0.1063    0.2825 N   0  0  0  0  0  0  0  0  0  0  0  0
   -2.3340    0.3464    0.0007 H   0  0  0  0  0  0  0  0  0  0  0  0
   -0.2424    0.7101    0.0988 C   0  0  1  0  0  0  0  0  0  0  0  0
   -0.2775    1.1270   -0.9132 H   0  0  0  0  0  0  0  0  0  0  0  0
   -0.3525    1.8767    1.1038 C   0  0  0  0  0  0  0  0  0  0  0  0
   -0.4369    1.4808    2.1201 H   0  0  0  0  0  0  0  0  0  0  0  0
    0.5436    2.5039    1.0653 H   0  0  0  0  0  0  0  0  0  0  0  0
   -1.5243    2.7558    0.7820 C   0  0  0  0  0  0  0  0  0  0  0  0
   -1.5576    3.6606   -0.2698 N   0  0  0  0  0  0  0  0  0  0  0  0
   -2.7051    4.2899   -0.1868 C   0  0  0  0  0  0  0  0  0  0  0  0
   -3.0348    5.0721   -0.8649 H   0  0  0  0  0  0  0  0  0  0  0  0
   -3.4279    3.8109    0.8903 N   0  0  0  0  0  0  0  0  0  0  0  0
   -4.3354    4.1631    1.1904 H   0  0  0  0  0  0  0  0  0  0  0  0
   -2.6734    2.8420    1.5183 C   0  0  0  0  0  0  0  0  0  0  0  0
   -2.9087    2.2819    2.4186 H   0  0  0  0  0  0  0  0  0  0  0  0
    1.1578    0.0268    0.1853 C   0  0  0  0  0  0  0  0  0  0  0  0
    2.1175    0.6187    0.6683 O   0  0  0  0  0  0  0  0  0  0  0  0
    1.3966   -1.1753   -0.4569 N   0  0  0  0  0  0  0  0  0  0  0  0
    0.5723   -1.7703   -0.5153 H   0  0  0  0  0  0  0  0  0  0  0  0
    2.6894   -1.8463   -0.3929 C   0  0  0  0  0  0  0  0  0  0  0  0
    2.9469   -2.0831    0.6449 H   0  0  0  0  0  0  0  0  0  0  0  0
    2.6583   -2.7782   -0.9652 H   0  0  0  0  0  0  0  0  0  0  0  0
    3.4741   -1.2099   -0.8153 H   0  0  0  0  0  0  0  0  0  0  0  0
  1  2  1  0  0  0  0
  2  3  1  0  0  0  0
  2  4  1  0  0  0  0
  2  5  1  0  0  0  0
  5  6  2  0  0  0  0
  5  7  1  0  0  0  0
  7  8  1  0  0  0  0
  7  9  1  0  0  0  0
  9 10  1  0  0  0  0
  9 11  1  0  0  0  0
  9 22  1  0  0  0  0
 11 12  1  0  0  0  0
 11 13  1  0  0  0  0
 11 14  1  0  0  0  0
 14 15  1  0  0  0  0
 14 20  2  0  0  0  0
 15 16  2  0  0  0  0
 16 17  1  0  0  0  0
 16 18  1  0  0  0  0
 18 19  1  0  0  0  0
 18 20  1  0  0  0  0
 20 21  1  0  0  0  0
 22 23  2  0  0  0  0
 22 24  1  0  0  0  0
 24 25  1  0  0  0  0
 24 26  1  0  0  0  0
 26 27  1  0  0  0  0
 26 28  1  0  0  0  0
 26 29  1  0  0  0  0
M  END
$$$$

  -OEChem-01062216083D

 29 29  0     1  0  0  0  0  0999 V2000
   -2.8734   -2.9804    1.3426 H   0  0  0  0  0  0  0  0  0  0  0  0
   -2.9388   -1.9795    0.9060 C   0  0  0  0  0  0  0  0  0  0  0  0
   -3.5551   -1.3538    1.5560 H   0  0  0  0  0  0  0  0  0  0  0  0
   -3.4135   -2.0547   -0.0752 H   0  0  0  0  0  0  0  0  0  0  0  0
   -1.5530   -1.3769    0.7676 C   0  0  0  0  0  0  0  0  0  0  0  0
   -0.5884   -2.0428    1.0915 O   0  0  0  0  0  0  0  0  0  0  0  0
   -1.4359   -0.0964    0.2591 N   0  0  0  0  0  0  0  0  0  0  0  0
   -2.3176    0.3546    0.0319 H   0  0  0  0  0  0  0  0  0  0  0  0
   -0.2263    0.7448    0.0930 C   0  0  1  0  0  0  0  0  0  0  0  0
   -0.2552    1.1697   -0.9158 H   0  0  0  0  0  0  0  0  0  0  0  0
   -0.3486    1.9052    1.1012 C   0  0  0  0  0  0  0  0  0  0  0  0
   -0.4313    1.5045    2.1160 H   0  0  0  0  0  0  0  0  0  0  0  0
    0.5454    2.5358    1.0650 H   0  0  0  0  0  0  0  0  0  0  0  0
   -1.5296    2.7716    0.7802 C   0  0  0  0  0  0  0  0  0  0  0  0
   -1.5698    3.6783   -0.2698 N   0  0  0  0  0  0  0  0  0  0  0  0
   -2.7259    4.2921   -0.1895 C   0  0  0  0  0  0  0  0  0  0  0  0
   -3.0634    5.0716   -0.8669 H   0  0  0  0  0  0  0  0  0  0  0  0
   -3.4465    3.8014    0.8837 N   0  0  0  0  0  0  0  0  0  0  0  0
   -4.3596    4.1410    1.1811 H   0  0  0  0  0  0  0  0  0  0  0  0
   -2.6820    2.8411    1.5125 C   0  0  0  0  0  0  0  0  0  0  0  0
   -2.9134    2.2755    2.4105 H   0  0  0  0  0  0  0  0  0  0  0  0
    1.1666    0.0564    0.1933 C   0  0  0  0  0  0  0  0  0  0  0  0
    2.0439    0.4887    0.9343 O   0  0  0  0  0  0  0  0  0  0  0  0
    1.4904   -0.9562   -0.6930 N   0  0  0  0  0  0  0  0  0  0  0  0
    0.6917   -1.4436   -1.0877 H   0  0  0  0  0  0  0  0  0  0  0  0
    2.7496   -1.6858   -0.6111 C   0  0  0  0  0  0  0  0  0  0  0  0
    2.8322   -2.1978    0.3534 H   0  0  0  0  0  0  0  0  0  0  0  0
    2.8044   -2.4333   -1.4081 H   0  0  0  0  0  0  0  0  0  0  0  0
    3.5982   -1.0027   -0.7221 H   0  0  0  0  0  0  0  0  0  0  0  0
  1  2  1  0  0  0  0
  2  3  1  0  0  0  0
  2  4  1  0  0  0  0
  2  5  1  0  0  0  0
  5  6  2  0  0  0  0
  5  7  1  0  0  0  0
  7  8  1  0  0  0  0
  7  9  1  0  0  0  0
  9 10  1  0  0  0  0
  9 11  1  0  0  0  0
  9 22  1  0  0  0  0
 11 12  1  0  0  0  0
 11 13  1  0  0  0  0
 11 14  1  0  0  0  0
 14 15  1  0  0  0  0
 14 20  2  0  0  0  0
 15 16  2  0  0  0  0
 16 17  1  0  0  0  0
 16 18  1  0  0  0  0
 18 19  1  0  0  0  0
 18 20  1  0  0  0  0
 20 21  1  0  0  0  0
 22 23  2  0  0  0  0
 22 24  1  0  0  0  0
 24 25  1  0  0  0  0
 24 26  1  0  0  0  0
 26 27  1  0  0  0  0
 26 28  1  0  0  0  0
 26 29  1  0  0  0  0
M  END
$$$$

  -OEChem-01062216083D

 29 29  0     1  0  0  0  0  0999 V2000
   -2.8251   -2.9867    1.3613 H   0  0  0  0  0  0  0  0  0  0  0  0
   -2.9049   -1.9850    0.9288 C   0  0  0  0  0  0  0  0  0  0  0  0
   -3.4977   -1.3601    1.6009 H   0  0  0  0  0  0  0  0  0  0  0  0
   -3.4138   -2.0580   -0.0353 H   0  0  0  0  0  0  0  0  0  0  0  0
   -1.5239   -1.3836    0.7429 C   0  0  0  0  0  0  0  0  0  0  0  0
   -0.5486   -2.0599    1.0092 O   0  0  0  0  0  0  0  0  0  0  0  0
   -1.4245   -0.1008    0.2355 N   0  0  0  0  0  0  0  0  0  0  0  0
   -2.3128    0.3558    0.0505 H   0  0  0  0  0  0  0  0  0  0  0  0
   -0.2217    0.7513    0.0884 C   0  0  1  0  0  0  0  0  0  0  0  0
   -0.2396    1.1824   -0.9178 H   0  0  0  0  0  0  0  0  0  0  0  0
   -0.3526    1.9061    1.1002 C   0  0  0  0  0  0  0  0  0  0  0  0
   -0.4414    1.5006    2.1128 H   0  0  0  0  0  0  0  0  0  0  0  0
    0.5438    2.5338    1.0715 H   0  0  0  0  0  0  0  0  0  0  0  0
   -1.5335    2.7712    0.7778 C   0  0  0  0  0  0  0  0  0  0  0  0
   -1.5693    3.6825   -0.2682 N   0  0  0  0  0  0  0  0  0  0  0  0
   -2.7272    4.2936   -0.1913 C   0  0  0  0  0  0  0  0  0  0  0  0
   -3.0629    5.0742   -0.8683 H   0  0  0  0  0  0  0  0  0  0  0  0
   -3.4521    3.7985    0.8771 N   0  0  0  0  0  0  0  0  0  0  0  0
   -4.3667    4.1364    1.1721 H   0  0  0  0  0  0  0  0  0  0  0  0
   -2.6892    2.8365    1.5054 C   0  0  0  0  0  0  0  0  0  0  0  0
   -2.9237    2.2673    2.4005 H   0  0  0  0  0  0  0  0  0  0  0  0
    1.1668    0.0627    0.2123 C   0  0  0  0  0  0  0  0  0  0  0  0
    1.9340    0.3276    1.1328 O   0  0  0  0  0  0  0  0  0  0  0  0
    1.6282   -0.7143   -0.8360 N   0  0  0  0  0  0  0  0  0  0  0  0
    0.9180   -1.0508   -1.4782 H   0  0  0  0  0  0  0  0  0  0  0  0
    2.8910   -1.4390   -0.7716 C   0  0  0  0  0  0  0  0  0  0  0  0
    2.8746   -2.1609    0.0517 H   0  0  0  0  0  0  0  0  0  0  0  0
    3.0634   -1.9804   -1.7064 H   0  0  0  0  0  0  0  0  0  0  0  0
    3.7244   -0.7457   -0.6171 H   0  0  0  0  0  0  0  0  0  0  0  0
  1  2  1  0  0  0  0
  2  3  1  0  0  0  0
  2  4  1  0  0  0  0
  2  5  1  0  0  0  0
  5  6  2  0  0  0  0
  5  7  1  0  0  0  0
  7  8  1  0  0  0  0
  7  9  1  0  0  0  0
  9 10  1  0  0  0  0
  9 11  1  0  0  0  0
  9 22  1  0  0  0  0
 11 12  1  0  0  0  0
 11 13  1  0  0  0  0
 11 14  1  0  0  0  0
 14 15  1  0  0  0  0
 14 20  2  0  0  0  0
 15 16  2  0  0  0  0
 16 17  1  0  0  0  0
 16 18  1  0  0  0  0
 18 19  1  0  0  0  0
 18 20  1  0  0  0  0
 20 21  1  0  0  0  0
 22 23  2  0  0  0  0
 22 24  1  0  0  0  0
 24 25  1  0  0  0  0
 24 26  1  0  0  0  0
 26 27  1  0  0  0  0
 26 28  1  0  0  0  0
 26 29  1  0  0  0  0
M  END
$$$$

  -OEChem-01062216083D

 29 29  0     1  0  0  0  0  0999 V2000
   -2.8245   -2.9865    1.3826 H   0  0  0  0  0  0  0  0  0  0  0  0
   -2.9081   -1.9820    0.9575 C   0  0  0  0  0  0  0  0  0  0  0  0
   -3.4644   -1.3522    1.6557 H   0  0  0  0  0  0  0  0  0  0  0  0
   -3.4560   -2.0437    0.0142 H   0  0  0  0  0  0  0  0  0  0  0  0
   -1.5275   -1.3989    0.7187 C   0  0  0  0  0  0  0  0  0  0  0  0
   -0.5536   -2.0988    0.9210 O   0  0  0  0  0  0  0  0  0  0  0  0
   -1.4296   -0.1137    0.2166 N   0  0  0  0  0  0  0  0  0  0  0  0
   -2.3182    0.3561    0.0720 H   0  0  0  0  0  0  0  0  0  0  0  0
   -0.2250    0.7377    0.0883 C   0  0  1  0  0  0  0  0  0  0  0  0
   -0.2349    1.1761   -0.9148 H   0  0  0  0  0  0  0  0  0  0  0  0
   -0.3565    1.8872    1.1050 C   0  0  0  0  0  0  0  0  0  0  0  0
   -0.4583    1.4766    2.1146 H   0  0  0  0  0  0  0  0  0  0  0  0
    0.5462    2.5063    1.0885 H   0  0  0  0  0  0  0  0  0  0  0  0
   -1.5304    2.7600    0.7784 C   0  0  0  0  0  0  0  0  0  0  0  0
   -1.5503    3.6759   -0.2638 N   0  0  0  0  0  0  0  0  0  0  0  0
   -2.7064    4.2915   -0.1973 C   0  0  0  0  0  0  0  0  0  0  0  0
   -3.0312    5.0767   -0.8742 H   0  0  0  0  0  0  0  0  0  0  0  0
   -3.4453    3.7943    0.8604 N   0  0  0  0  0  0  0  0  0  0  0  0
   -4.3629    4.1330    1.1451 H   0  0  0  0  0  0  0  0  0  0  0  0
   -2.6939    2.8263    1.4932 C   0  0  0  0  0  0  0  0  0  0  0  0
   -2.9414    2.2528    2.3822 H   0  0  0  0  0  0  0  0  0  0  0  0
    1.1625    0.0522    0.2267 C   0  0  0  0  0  0  0  0  0  0  0  0
    1.8118    0.1360    1.2648 O   0  0  0  0  0  0  0  0  0  0  0  0
    1.7820   -0.4527   -0.9035 N   0  0  0  0  0  0  0  0  0  0  0  0
    1.1879   -0.6086   -1.7114 H   0  0  0  0  0  0  0  0  0  0  0  0
    3.0752   -1.1232   -0.8559 C   0  0  0  0  0  0  0  0  0  0  0  0
    3.0209   -2.0114   -0.2176 H   0  0  0  0  0  0  0  0  0  0  0  0
    3.3769   -1.4344   -1.8604 H   0  0  0  0  0  0  0  0  0  0  0  0
    3.8425   -0.4497   -0.4599 H   0  0  0  0  0  0  0  0  0  0  0  0
  1  2  1  0  0  0  0
  2  3  1  0  0  0  0
  2  4  1  0  0  0  0
  2  5  1  0  0  0  0
  5  6  2  0  0  0  0
  5  7  1  0  0  0  0
  7  8  1  0  0  0  0
  7  9  1  0  0  0  0
  9 10  1  0  0  0  0
  9 11  1  0  0  0  0
  9 22  1  0  0  0  0
 11 12  1  0  0  0  0
 11 13  1  0  0  0  0
 11 14  1  0  0  0  0
 14 15  1  0  0  0  0
 14 20  2  0  0  0  0
 15 16  2  0  0  0  0
 16 17  1  0  0  0  0
 16 18  1  0  0  0  0
 18 19  1  0  0  0  0
 18 20  1  0  0  0  0
 20 21  1  0  0  0  0
 22 23  2  0  0  0  0
 22 24  1  0  0  0  0
 24 25  1  0  0  0  0
 24 26  1  0  0  0  0
 26 27  1  0  0  0  0
 26 28  1  0  0  0  0
 26 29  1  0  0  0  0
M  END
$$$$

  -OEChem-01062216083D

 29 29  0     1  0  0  0  0  0999 V2000
   -2.8493   -2.9793    1.4000 H   0  0  0  0  0  0  0  0  0  0  0  0
   -2.9279   -1.9713    0.9824 C   0  0  0  0  0  0  0  0  0  0  0  0
   -3.4416   -1.3326    1.7047 H   0  0  0  0  0  0  0  0  0  0  0  0
   -3.5138   -2.0166    0.0613 H   0  0  0  0  0  0  0  0  0  0  0  0
   -1.5453   -1.4178    0.6914 C   0  0  0  0  0  0  0  0  0  0  0  0
   -0.5826   -2.1484    0.8273 O   0  0  0  0  0  0  0  0  0  0  0  0
   -1.4396   -0.1324    0.1914 N   0  0  0  0  0  0  0  0  0  0  0  0
   -2.3246    0.3533    0.0837 H   0  0  0  0  0  0  0  0  0  0  0  0
   -0.2294    0.7129    0.0775 C   0  0  1  0  0  0  0  0  0  0  0  0
   -0.2334    1.1574   -0.9228 H   0  0  0  0  0  0  0  0  0  0  0  0
   -0.3575    1.8561    1.1006 C   0  0  0  0  0  0  0  0  0  0  0  0
   -0.4696    1.4401    2.1065 H   0  0  0  0  0  0  0  0  0  0  0  0
    0.5512    2.4660    1.0946 H   0  0  0  0  0  0  0  0  0  0  0  0
   -1.5223    2.7406    0.7747 C   0  0  0  0  0  0  0  0  0  0  0  0
   -1.5288    3.6638   -0.2612 N   0  0  0  0  0  0  0  0  0  0  0  0
   -2.6808    4.2875   -0.1968 C   0  0  0  0  0  0  0  0  0  0  0  0
   -2.9960    5.0796   -0.8704 H   0  0  0  0  0  0  0  0  0  0  0  0
   -3.4295    3.7887    0.8535 N   0  0  0  0  0  0  0  0  0  0  0  0
   -4.3465    4.1319    1.1351 H   0  0  0  0  0  0  0  0  0  0  0  0
   -2.6894    2.8098    1.4830 C   0  0  0  0  0  0  0  0  0  0  0  0
   -2.9466    2.2308    2.3657 H   0  0  0  0  0  0  0  0  0  0  0  0
    1.1574    0.0304    0.2297 C   0  0  0  0  0  0  0  0  0  0  0  0
    1.6943   -0.0618    1.3292 O   0  0  0  0  0  0  0  0  0  0  0  0
    1.9304   -0.1912   -0.8972 N   0  0  0  0  0  0  0  0  0  0  0  0
    1.4555   -0.1538   -1.7934 H   0  0  0  0  0  0  0  0  0  0  0  0
    3.2659   -0.7723   -0.8394 C   0  0  0  0  0  0  0  0  0  0  0  0
    3.2309   -1.7664   -0.3811 H   0  0  0  0  0  0  0  0  0  0  0  0
    3.6794   -0.8689   -1.8477 H   0  0  0  0  0  0  0  0  0  0  0  0
    3.9361   -0.1363   -0.2518 H   0  0  0  0  0  0  0  0  0  0  0  0
  1  2  1  0  0  0  0
  2  3  1  0  0  0  0
  2  4  1  0  0  0  0
  2  5  1  0  0  0  0
  5  6  2  0  0  0  0
  5  7  1  0  0  0  0
  7  8  1  0  0  0  0
  7  9  1  0  0  0  0
  9 10  1  0  0  0  0
  9 11  1  0  0  0  0
  9 22  1  0  0  0  0
 11 12  1  0  0  0  0
 11 13  1  0  0  0  0
 11 14  1  0  0  0  0
 14 15  1  0  0  0  0
 14 20  2  0  0  0  0
 15 16  2  0  0  0  0
 16 17  1  0  0  0  0
 16 18  1  0  0  0  0
 18 19  1  0  0  0  0
 18 20  1  0  0  0  0
 20 21  1  0  0  0  0
 22 23  2  0  0  0  0
 22 24  1  0  0  0  0
 24 25  1  0  0  0  0
 24 26  1  0  0  0  0
 26 27  1  0  0  0  0
 26 28  1  0  0  0  0
 26 29  1  0  0  0  0
M  END
$$$$

  -OEChem-01062216083D

 29 29  0     1  0  0  0  0  0999 V2000
   -2.8777   -2.9647    1.4285 H   0  0  0  0  0  0  0  0  0  0  0  0
   -2.9498   -1.9550    1.0139 C   0  0  0  0  0  0  0  0  0  0  0  0
   -3.4051   -1.3015    1.7616 H   0  0  0  0  0  0  0  0  0  0  0  0
   -3.5854   -1.9837    0.1257 H   0  0  0  0  0  0  0  0  0  0  0  0
   -1.5697   -1.4417    0.6473 C   0  0  0  0  0  0  0  0  0  0  0  0
   -0.6297   -2.2119    0.6880 O   0  0  0  0  0  0  0  0  0  0  0  0
   -1.4526   -0.1556    0.1525 N   0  0  0  0  0  0  0  0  0  0  0  0
   -2.3302    0.3521    0.1018 H   0  0  0  0  0  0  0  0  0  0  0  0
   -0.2344    0.6801    0.0543 C   0  0  1  0  0  0  0  0  0  0  0  0
   -0.2321    1.1300   -0.9437 H   0  0  0  0  0  0  0  0  0  0  0  0
   -0.3564    1.8137    1.0879 C   0  0  0  0  0  0  0  0  0  0  0  0
   -0.4778    1.3872    2.0887 H   0  0  0  0  0  0  0  0  0  0  0  0
    0.5586    2.4143    1.0936 H   0  0  0  0  0  0  0  0  0  0  0  0
   -1.5103    2.7137    0.7668 C   0  0  0  0  0  0  0  0  0  0  0  0
   -1.5015    3.6479   -0.2592 N   0  0  0  0  0  0  0  0  0  0  0  0
   -2.6465    4.2841   -0.1926 C   0  0  0  0  0  0  0  0  0  0  0  0
   -2.9494    5.0878   -0.8579 H   0  0  0  0  0  0  0  0  0  0  0  0
   -3.4054    3.7824    0.8490 N   0  0  0  0  0  0  0  0  0  0  0  0
   -4.3192    4.1336    1.1308 H   0  0  0  0  0  0  0  0  0  0  0  0
   -2.6793    2.7885    1.4713 C   0  0  0  0  0  0  0  0  0  0  0  0
   -2.9467    2.2040    2.3472 H   0  0  0  0  0  0  0  0  0  0  0  0
    1.1528    0.0018    0.2171 C   0  0  0  0  0  0  0  0  0  0  0  0
    1.5851   -0.2661    1.3337 O   0  0  0  0  0  0  0  0  0  0  0  0
    2.0614    0.0639   -0.8260 N   0  0  0  0  0  0  0  0  0  0  0  0
    1.6997    0.3055   -1.7432 H   0  0  0  0  0  0  0  0  0  0  0  0
    3.4349   -0.4123   -0.7161 C   0  0  0  0  0  0  0  0  0  0  0  0
    3.4512   -1.4702   -0.4333 H   0  0  0  0  0  0  0  0  0  0  0  0
    3.9514   -0.3014   -1.6742 H   0  0  0  0  0  0  0  0  0  0  0  0
    3.9805    0.1629    0.0393 H   0  0  0  0  0  0  0  0  0  0  0  0
  1  2  1  0  0  0  0
  2  3  1  0  0  0  0
  2  4  1  0  0  0  0
  2  5  1  0  0  0  0
  5  6  2  0  0  0  0
  5  7  1  0  0  0  0
  7  8  1  0  0  0  0
  7  9  1  0  0  0  0
  9 10  1  0  0  0  0
  9 11  1  0  0  0  0
  9 22  1  0  0  0  0
 11 12  1  0  0  0  0
 11 13  1  0  0  0  0
 11 14  1  0  0  0  0
 14 15  1  0  0  0  0
 14 20  2  0  0  0  0
 15 16  2  0  0  0  0
 16 17  1  0  0  0  0
 16 18  1  0  0  0  0
 18 19  1  0  0  0  0
 18 20  1  0  0  0  0
 20 21  1  0  0  0  0
 22 23  2  0  0  0  0
 22 24  1  0  0  0  0
 24 25  1  0  0  0  0
 24 26  1  0  0  0  0
 26 27  1  0  0  0  0
 26 28  1  0  0  0  0
 26 29  1  0  0  0  0
M  END
$$$$

  -OEChem-01062216083D

 29 29  0     1  0  0  0  0  0999 V2000
   -2.8790   -2.9500    1.4583 H   0  0  0  0  0  0  0  0  0  0  0  0
   -2.9507   -1.9313    1.0665 C   0  0  0  0  0  0  0  0  0  0  0  0
   -3.3093   -1.2750    1.8628 H   0  0  0  0  0  0  0  0  0  0  0  0
   -3.6664   -1.9202    0.2410 H   0  0  0  0  0  0  0  0  0  0  0  0
   -1.5910   -1.4640    0.5817 C   0  0  0  0  0  0  0  0  0  0  0  0
   -0.6939   -2.2790    0.4798 O   0  0  0  0  0  0  0  0  0  0  0  0
   -1.4662   -0.1744    0.0992 N   0  0  0  0  0  0  0  0  0  0  0  0
   -2.3320    0.3546    0.1210 H   0  0  0  0  0  0  0  0  0  0  0  0
   -0.2382    0.6495    0.0221 C   0  0  1  0  0  0  0  0  0  0  0  0
   -0.2270    1.1088   -0.9713 H   0  0  0  0  0  0  0  0  0  0  0  0
   -0.3537    1.7680    1.0723 C   0  0  0  0  0  0  0  0  0  0  0  0
   -0.4858    1.3280    2.0657 H   0  0  0  0  0  0  0  0  0  0  0  0
    0.5674    2.3587    1.0927 H   0  0  0  0  0  0  0  0  0  0  0  0
   -1.4950    2.6856    0.7580 C   0  0  0  0  0  0  0  0  0  0  0  0
   -1.4652    3.6340   -0.2542 N   0  0  0  0  0  0  0  0  0  0  0  0
   -2.6040    4.2817   -0.1897 C   0  0  0  0  0  0  0  0  0  0  0  0
   -2.8915    5.0977   -0.8467 H   0  0  0  0  0  0  0  0  0  0  0  0
   -3.3783    3.7746    0.8379 N   0  0  0  0  0  0  0  0  0  0  0  0
   -4.2923    4.1302    1.1139 H   0  0  0  0  0  0  0  0  0  0  0  0
   -2.6694    2.7640    1.4530 C   0  0  0  0  0  0  0  0  0  0  0  0
   -2.9528    2.1705    2.3176 H   0  0  0  0  0  0  0  0  0  0  0  0
    1.1483   -0.0270    0.1917 C   0  0  0  0  0  0  0  0  0  0  0  0
    1.4844   -0.4818    1.2802 O   0  0  0  0  0  0  0  0  0  0  0  0
    2.1629    0.3053   -0.6909 N   0  0  0  0  0  0  0  0  0  0  0  0
    1.8969    0.7607   -1.5585 H   0  0  0  0  0  0  0  0  0  0  0  0
    3.5551   -0.0827   -0.4979 C   0  0  0  0  0  0  0  0  0  0  0  0
    3.6389   -1.1701   -0.3979 H   0  0  0  0  0  0  0  0  0  0  0  0
    4.1581    0.2333   -1.3544 H   0  0  0  0  0  0  0  0  0  0  0  0
    3.9620    0.3869    0.4037 H   0  0  0  0  0  0  0  0  0  0  0  0
  1  2  1  0  0  0  0
  2  3  1  0  0  0  0
  2  4  1  0  0  0  0
  2  5  1  0  0  0  0
  5  6  2  0  0  0  0
  5  7  1  0  0  0  0
  7  8  1  0  0  0  0
  7  9  1  0  0  0  0
  9 10  1  0  0  0  0
  9 11  1  0  0  0  0
  9 22  1  0  0  0  0
 11 12  1  0  0  0  0
 11 13  1  0  0  0  0
 11 14  1  0  0  0  0
 14 15  1  0  0  0  0
 14 20  2  0  0  0  0
 15 16  2  0  0  0  0
 16 17  1  0  0  0  0
 16 18  1  0  0  0  0
 18 19  1  0  0  0  0
 18 20  1  0  0  0  0
 20 21  1  0  0  0  0
 22 23  2  0  0  0  0
 22 24  1  0  0  0  0
 24 25  1  0  0  0  0
 24 26  1  0  0  0  0
 26 27  1  0  0  0  0
 26 28  1  0  0  0  0
 26 29  1  0  0  0  0
M  END
$$$$

  -OEChem-01062216083D

 29 29  0     1  0  0  0  0  0999 V2000
   -2.8631   -2.9214    1.4894 H   0  0  0  0  0  0  0  0  0  0  0  0
   -2.9307   -1.8940    1.1203 C   0  0  0  0  0  0  0  0  0  0  0  0
   -3.1881   -1.2392    1.9561 H   0  0  0  0  0  0  0  0  0  0  0  0
   -3.7184   -1.8413    0.3650 H   0  0  0  0  0  0  0  0  0  0  0  0
   -1.6040   -1.4700    0.5182 C   0  0  0  0  0  0  0  0  0  0  0  0
   -0.7704   -2.3227    0.2774 O   0  0  0  0  0  0  0  0  0  0  0  0
   -1.4695   -0.1787    0.0447 N   0  0  0  0  0  0  0  0  0  0  0  0
   -2.3205    0.3674    0.1287 H   0  0  0  0  0  0  0  0  0  0  0  0
   -0.2317    0.6330   -0.0154 C   0  0  1  0  0  0  0  0  0  0  0  0
   -0.2114    1.1050   -1.0028 H   0  0  0  0  0  0  0  0  0  0  0  0
   -0.3502    1.7314    1.0563 C   0  0  0  0  0  0  0  0  0  0  0  0
   -0.4929    1.2708    2.0390 H   0  0  0  0  0  0  0  0  0  0  0  0
    0.5725    2.3187    1.0988 H   0  0  0  0  0  0  0  0  0  0  0  0
   -1.4840    2.6609    0.7504 C   0  0  0  0  0  0  0  0  0  0  0  0
   -1.4379    3.6278   -0.2430 N   0  0  0  0  0  0  0  0  0  0  0  0
   -2.5777    4.2746   -0.1842 C   0  0  0  0  0  0  0  0  0  0  0  0
   -2.8562    5.1014   -0.8317 H   0  0  0  0  0  0  0  0  0  0  0  0
   -3.3666    3.7503    0.8236 N   0  0  0  0  0  0  0  0  0  0  0  0
   -4.2862    4.0992    1.0897 H   0  0  0  0  0  0  0  0  0  0  0  0
   -2.6674    2.7285    1.4311 C   0  0  0  0  0  0  0  0  0  0  0  0
   -2.9653    2.1193    2.2798 H   0  0  0  0  0  0  0  0  0  0  0  0
    1.1563   -0.0397    0.1605 C   0  0  0  0  0  0  0  0  0  0  0  0
    1.4118   -0.6827    1.1722 O   0  0  0  0  0  0  0  0  0  0  0  0
    2.2406    0.5224   -0.4947 N   0  0  0  0  0  0  0  0  0  0  0  0
    2.0449    1.1681   -1.2537 H   0  0  0  0  0  0  0  0  0  0  0  0
    3.6281    0.1783   -0.2049 C   0  0  0  0  0  0  0  0  0  0  0  0
    3.7778   -0.9043   -0.2770 H   0  0  0  0  0  0  0  0  0  0  0  0
    4.2961    0.6666   -0.9206 H   0  0  0  0  0  0  0  0  0  0  0  0
    3.9015    0.5059    0.8036 H   0  0  0  0  0  0  0  0  0  0  0  0
  1  2  1  0  0  0  0
  2  3  1  0  0  0  0
  2  4  1  0  0  0  0
  2  5  1  0  0  0  0
  5  6  2  0  0  0  0
  5  7  1  0  0  0  0
  7  8  1  0  0  0  0
  7  9  1  0  0  0  0
  9 10  1  0  0  0  0
  9 11  1  0  0  0  0
  9 22  1  0  0  0  0
 11 12  1  0  0  0  0
 11 13  1  0  0  0  0
 11 14  1  0  0  0  0
 14 15  1  0  0  0  0
 14 20  2  0  0  0  0
 15 16  2  0  0  0  0
 16 17  1  0  0  0  0
 16 18  1  0  0  0  0
 18 19  1  0  0  0  0
 18 20  1  0  0  0  0
 20 21  1  0  0  0  0
 22 23  2  0  0  0  0
 22 24  1  0  0  0  0
 24 25  1  0  0  0  0
 24 26  1  0  0  0  0
 26 27  1  0  0  0  0
 26 28  1  0  0  0  0
 26 29  1  0  0  0  0
M  END
$$$$

  -OEChem-01062216083D

 29 29  0     1  0  0  0  0  0999 V2000
   -2.5156   -3.2016    1.2869 H   0  0  0  0  0  0  0  0  0  0  0  0
   -2.5761   -2.3221    0.6398 C   0  0  0  0  0  0  0  0  0  0  0  0
   -3.6060   -1.9580    0.6324 H   0  0  0  0  0  0  0  0  0  0  0  0
   -2.2892   -2.6142   -0.3730 H   0  0  0  0  0  0  0  0  0  0  0  0
   -1.6423   -1.2401    1.1484 C   0  0  0  0  0  0  0  0  0  0  0  0
   -1.1698   -1.3275    2.2697 O   0  0  0  0  0  0  0  0  0  0  0  0
   -1.5699   -0.0255    0.4965 N   0  0  0  0  0  0  0  0  0  0  0  0
   -2.2223    0.0319   -0.2781 H   0  0  0  0  0  0  0  0  0  0  0  0
   -0.3129    0.7240    0.2625 C   0  0  1  0  0  0  0  0  0  0  0  0
   -0.3409    1.0852   -0.7708 H   0  0  0  0  0  0  0  0  0  0  0  0
   -0.3482    1.9370    1.2085 C   0  0  0  0  0  0  0  0  0  0  0  0
   -0.4577    1.5872    2.2405 H   0  0  0  0  0  0  0  0  0  0  0  0
    0.5838    2.5056    1.1488 H   0  0  0  0  0  0  0  0  0  0  0  0
   -1.4770    2.8574    0.8585 C   0  0  0  0  0  0  0  0  0  0  0  0
   -1.4548    3.7045   -0.2422 N   0  0  0  0  0  0  0  0  0  0  0  0
   -2.5763    4.3851   -0.2026 C   0  0  0  0  0  0  0  0  0  0  0  0
   -2.8683    5.1409   -0.9263 H   0  0  0  0  0  0  0  0  0  0  0  0
   -3.3278    4.0006    0.8928 N   0  0  0  0  0  0  0  0  0  0  0  0
   -4.2324    4.3900    1.1523 H   0  0  0  0  0  0  0  0  0  0  0  0
   -2.6255    3.0311    1.5768 C   0  0  0  0  0  0  0  0  0  0  0  0
   -2.8993    2.5096    2.4900 H   0  0  0  0  0  0  0  0  0  0  0  0
    1.0746    0.0351    0.4203 C   0  0  0  0  0  0  0  0  0  0  0  0
    1.2130   -1.1642    0.6184 O   0  0  0  0  0  0  0  0  0  0  0  0
    2.1742    0.6919   -0.1099 N   0  0  0  0  0  0  0  0  0  0  0  0
    2.0463    1.6579   -0.3979 H   0  0  0  0  0  0  0  0  0  0  0  0
    3.4935    0.0860   -0.2535 C   0  0  0  0  0  0  0  0  0  0  0  0
    3.4574   -0.7473   -0.9630 H   0  0  0  0  0  0  0  0  0  0  0  0
    4.2101    0.8251   -0.6239 H   0  0  0  0  0  0  0  0  0  0  0  0
    3.8511   -0.2873    0.7119 H   0  0  0  0  0  0  0  0  0  0  0  0
  1  2  1  0  0  0  0
  2  3  1  0  0  0  0
  2  4  1  0  0  0  0
  2  5  1  0  0  0  0
  5  6  2  0  0  0  0
  5  7  1  0  0  0  0
  7  8  1  0  0  0  0
  7  9  1  0  0  0  0
  9 10  1  0  0  0  0
  9 11  1  0  0  0  0
  9 22  1  0  0  0  0
 11 12  1  0  0  0  0
 11 13  1  0  0  0  0
 11 14  1  0  0  0  0
 14 15  1  0  0  0  0
 14 20  2  0  0  0  0
 15 16  2  0  0  0  0
 16 17  1  0  0  0  0
 16 18  1  0  0  0  0
 18 19  1  0  0  0  0
 18 20  1  0  0  0  0
 20 21  1  0  0  0  0
 22 23  2  0  0  0  0
 22 24  1  0  0  0  0
 24 25  1  0  0  0  0
 24 26  1  0  0  0  0
 26 27  1  0  0  0  0
 26 28  1  0  0  0  0
 26 29  1  0  0  0  0
M  END
$$$$

  -OEChem-01062216083D

 29 29  0     1  0  0  0  0  0999 V2000
   -2.4279   -3.2195    1.2555 H   0  0  0  0  0  0  0  0  0  0  0  0
   -2.5732   -2.3084    0.6683 C   0  0  0  0  0  0  0  0  0  0  0  0
   -3.5788   -1.9240    0.8537 H   0  0  0  0  0  0  0  0  0  0  0  0
   -2.4711   -2.5558   -0.3911 H   0  0  0  0  0  0  0  0  0  0  0  0
   -1.5379   -1.2701    1.0564 C   0  0  0  0  0  0  0  0  0  0  0  0
   -0.8286   -1.4538    2.0335 O   0  0  0  0  0  0  0  0  0  0  0  0
   -1.5312   -0.0364    0.4333 N   0  0  0  0  0  0  0  0  0  0  0  0
   -2.2207    0.0406   -0.3068 H   0  0  0  0  0  0  0  0  0  0  0  0
   -0.3018    0.7599    0.2185 C   0  0  1  0  0  0  0  0  0  0  0  0
   -0.4384    1.3522   -0.6920 H   0  0  0  0  0  0  0  0  0  0  0  0
   -0.1679    1.7263    1.4119 C   0  0  0  0  0  0  0  0  0  0  0  0
   -0.1386    1.1555    2.3454 H   0  0  0  0  0  0  0  0  0  0  0  0
    0.7594    2.3004    1.3472 H   0  0  0  0  0  0  0  0  0  0  0  0
   -1.3067    2.6989    1.4429 C   0  0  0  0  0  0  0  0  0  0  0  0
   -1.4163    3.7758    0.5723 N   0  0  0  0  0  0  0  0  0  0  0  0
   -2.5023    4.4227    0.9248 C   0  0  0  0  0  0  0  0  0  0  0  0
   -2.8733    5.3209    0.4395 H   0  0  0  0  0  0  0  0  0  0  0  0
   -3.1008    3.7959    2.0025 N   0  0  0  0  0  0  0  0  0  0  0  0
   -3.9487    4.1109    2.4707 H   0  0  0  0  0  0  0  0  0  0  0  0
   -2.3360    2.6995    2.3407 C   0  0  0  0  0  0  0  0  0  0  0  0
   -2.4924    1.9824    3.1419 H   0  0  0  0  0  0  0  0  0  0  0  0
    1.0322   -0.0175    0.0235 C   0  0  0  0  0  0  0  0  0  0  0  0
    1.0376   -1.1907   -0.3330 O   0  0  0  0  0  0  0  0  0  0  0  0
    2.2040    0.6950   -0.1761 N   0  0  0  0  0  0  0  0  0  0  0  0
    2.1766    1.6965   -0.0088 H   0  0  0  0  0  0  0  0  0  0  0  0
    3.4628    0.0857   -0.5900 C   0  0  0  0  0  0  0  0  0  0  0  0
    3.3689   -0.3460   -1.5919 H   0  0  0  0  0  0  0  0  0  0  0  0
    4.2574    0.8374   -0.6097 H   0  0  0  0  0  0  0  0  0  0  0  0
    3.7537   -0.7053    0.1092 H   0  0  0  0  0  0  0  0  0  0  0  0
  1  2  1  0  0  0  0
  2  3  1  0  0  0  0
  2  4  1  0  0  0  0
  2  5  1  0  0  0  0
  5  6  2  0  0  0  0
  5  7  1  0  0  0  0
  7  8  1  0  0  0  0
  7  9  1  0  0  0  0
  9 10  1  0  0  0  0
  9 11  1  0  0  0  0
  9 22  1  0  0  0  0
 11 12  1  0  0  0  0
 11 13  1  0  0  0  0
 11 14  1  0  0  0  0
 14 15  1  0  0  0  0
 14 20  2  0  0  0  0
 15 16  2  0  0  0  0
 16 17  1  0  0  0  0
 16 18  1  0  0  0  0
 18 19  1  0  0  0  0
 18 20  1  0  0  0  0
 20 21  1  0  0  0  0
 22 23  2  0  0  0  0
 22 24  1  0  0  0  0
 24 25  1  0  0  0  0
 24 26  1  0  0  0  0
 26 27  1  0  0  0  0
 26 28  1  0  0  0  0
 26 29  1  0  0  0  0
M  END
$$$$

  -OEChem-01062216083D

 29 29  0     1  0  0  0  0  0999 V2000
   -2.4238   -3.1899    1.2897 H   0  0  0  0  0  0  0  0  0  0  0  0
   -2.5586   -2.2904    0.6825 C   0  0  0  0  0  0  0  0  0  0  0  0
   -3.5577   -1.8876    0.8641 H   0  0  0  0  0  0  0  0  0  0  0  0
   -2.4658   -2.5628   -0.3717 H   0  0  0  0  0  0  0  0  0  0  0  0
   -1.5064   -1.2582    1.0409 C   0  0  0  0  0  0  0  0  0  0  0  0
   -0.7473   -1.4619    1.9761 O   0  0  0  0  0  0  0  0  0  0  0  0
   -1.5215   -0.0183    0.4292 N   0  0  0  0  0  0  0  0  0  0  0  0
   -2.2248    0.0643   -0.2975 H   0  0  0  0  0  0  0  0  0  0  0  0
   -0.3024    0.7921    0.2108 C   0  0  1  0  0  0  0  0  0  0  0  0
   -0.4407    1.3873   -0.6977 H   0  0  0  0  0  0  0  0  0  0  0  0
   -0.1771    1.7563    1.4080 C   0  0  0  0  0  0  0  0  0  0  0  0
   -0.1343    1.1839    2.3400 H   0  0  0  0  0  0  0  0  0  0  0  0
    0.7381    2.3485    1.3385 H   0  0  0  0  0  0  0  0  0  0  0  0
   -1.3289    2.7138    1.4452 C   0  0  0  0  0  0  0  0  0  0  0  0
   -1.4573    3.7926    0.5798 N   0  0  0  0  0  0  0  0  0  0  0  0
   -2.5526    4.4207    0.9370 C   0  0  0  0  0  0  0  0  0  0  0  0
   -2.9385    5.3152    0.4563 H   0  0  0  0  0  0  0  0  0  0  0  0
   -3.1390    3.7798    2.0130 N   0  0  0  0  0  0  0  0  0  0  0  0
   -3.9929    4.0773    2.4815 H   0  0  0  0  0  0  0  0  0  0  0  0
   -2.3562    2.6946    2.3451 C   0  0  0  0  0  0  0  0  0  0  0  0
   -2.5003    1.9712    3.1429 H   0  0  0  0  0  0  0  0  0  0  0  0
    1.0170   -0.0063    0.0010 C   0  0  0  0  0  0  0  0  0  0  0  0
    0.9886   -1.0947   -0.5648 O   0  0  0  0  0  0  0  0  0  0  0  0
    2.2482    0.6217    0.0989 N   0  0  0  0  0  0  0  0  0  0  0  0
    2.2658    1.5589    0.4885 H   0  0  0  0  0  0  0  0  0  0  0  0
    3.5111   -0.0200   -0.2465 C   0  0  0  0  0  0  0  0  0  0  0  0
    3.5404   -0.2571   -1.3152 H   0  0  0  0  0  0  0  0  0  0  0  0
    4.3484    0.6457   -0.0161 H   0  0  0  0  0  0  0  0  0  0  0  0
    3.6387   -0.9458    0.3245 H   0  0  0  0  0  0  0  0  0  0  0  0
  1  2  1  0  0  0  0
  2  3  1  0  0  0  0
  2  4  1  0  0  0  0
  2  5  1  0  0  0  0
  5  6  2  0  0  0  0
  5  7  1  0  0  0  0
  7  8  1  0  0  0  0
  7  9  1  0  0  0  0
  9 10  1  0  0  0  0
  9 11  1  0  0  0  0
  9 22  1  0  0  0  0
 11 12  1  0  0  0  0
 11 13  1  0  0  0  0
 11 14  1  0  0  0  0
 14 15  1  0  0  0  0
 14 20  2  0  0  0  0
 15 16  2  0  0  0  0
 16 17  1  0  0  0  0
 16 18  1  0  0  0  0
 18 19  1  0  0  0  0
 18 20  1  0  0  0  0
 20 21  1  0  0  0  0
 22 23  2  0  0  0  0
 22 24  1  0  0  0  0
 24 25  1  0  0  0  0
 24 26  1  0  0  0  0
 26 27  1  0  0  0  0
 26 28  1  0  0  0  0
 26 29  1  0  0  0  0
M  END
$$$$

  -OEChem-01062216083D

 29 29  0     1  0  0  0  0  0999 V2000
   -2.3573   -3.1992    1.2515 H   0  0  0  0  0  0  0  0  0  0  0  0
   -2.5336   -2.2817    0.6830 C   0  0  0  0  0  0  0  0  0  0  0  0
   -3.5248   -1.8958    0.9320 H   0  0  0  0  0  0  0  0  0  0  0  0
   -2.4962   -2.5183   -0.3832 H   0  0  0  0  0  0  0  0  0  0  0  0
   -1.4736   -1.2501    1.0179 C   0  0  0  0  0  0  0  0  0  0  0  0
   -0.6751   -1.4679    1.9164 O   0  0  0  0  0  0  0  0  0  0  0  0
   -1.5120   -0.0044    0.4196 N   0  0  0  0  0  0  0  0  0  0  0  0
   -2.2289    0.0829   -0.2934 H   0  0  0  0  0  0  0  0  0  0  0  0
   -0.3059    0.8233    0.1998 C   0  0  1  0  0  0  0  0  0  0  0  0
   -0.4513    1.4193   -0.7072 H   0  0  0  0  0  0  0  0  0  0  0  0
   -0.1855    1.7884    1.3963 C   0  0  0  0  0  0  0  0  0  0  0  0
   -0.1304    1.2164    2.3278 H   0  0  0  0  0  0  0  0  0  0  0  0
    0.7209    2.3934    1.3167 H   0  0  0  0  0  0  0  0  0  0  0  0
   -1.3497    2.7311    1.4401 C   0  0  0  0  0  0  0  0  0  0  0  0
   -1.4993    3.8085    0.5767 N   0  0  0  0  0  0  0  0  0  0  0  0
   -2.5996    4.4224    0.9426 C   0  0  0  0  0  0  0  0  0  0  0  0
   -3.0016    5.3111    0.4643 H   0  0  0  0  0  0  0  0  0  0  0  0
   -3.1676    3.7752    2.0245 N   0  0  0  0  0  0  0  0  0  0  0  0
   -4.0194    4.0641    2.5022 H   0  0  0  0  0  0  0  0  0  0  0  0
   -2.3680    2.7002    2.3502 C   0  0  0  0  0  0  0  0  0  0  0  0
   -2.4949    1.9773    3.1513 H   0  0  0  0  0  0  0  0  0  0  0  0
    1.0053    0.0168   -0.0257 C   0  0  0  0  0  0  0  0  0  0  0  0
    0.9780   -0.9653   -0.7608 O   0  0  0  0  0  0  0  0  0  0  0  0
    2.2451    0.5082    0.3491 N   0  0  0  0  0  0  0  0  0  0  0  0
    2.2584    1.3147    0.9648 H   0  0  0  0  0  0  0  0  0  0  0  0
    3.4933   -0.2021    0.0988 C   0  0  0  0  0  0  0  0  0  0  0  0
    3.6592   -0.3182   -0.9773 H   0  0  0  0  0  0  0  0  0  0  0  0
    4.3362    0.3540    0.5200 H   0  0  0  0  0  0  0  0  0  0  0  0
    3.4673   -1.1946    0.5611 H   0  0  0  0  0  0  0  0  0  0  0  0
  1  2  1  0  0  0  0
  2  3  1  0  0  0  0
  2  4  1  0  0  0  0
  2  5  1  0  0  0  0
  5  6  2  0  0  0  0
  5  7  1  0  0  0  0
  7  8  1  0  0  0  0
  7  9  1  0  0  0  0
  9 10  1  0  0  0  0
  9 11  1  0  0  0  0
  9 22  1  0  0  0  0
 11 12  1  0  0  0  0
 11 13  1  0  0  0  0
 11 14  1  0  0  0  0
 14 15  1  0  0  0  0
 14 20  2  0  0  0  0
 15 16  2  0  0  0  0
 16 17  1  0  0  0  0
 16 18  1  0  0  0  0
 18 19  1  0  0  0  0
 18 20  1  0  0  0  0
 20 21  1  0  0  0  0
 22 23  2  0  0  0  0
 22 24  1  0  0  0  0
 24 25  1  0  0  0  0
 24 26  1  0  0  0  0
 26 27  1  0  0  0  0
 26 28  1  0  0  0  0
 26 29  1  0  0  0  0
M  END
$$$$

  -OEChem-01062216083D

 29 29  0     1  0  0  0  0  0999 V2000
   -2.3477   -3.1908    1.2563 H   0  0  0  0  0  0  0  0  0  0  0  0
   -2.5234   -2.2756    0.6841 C   0  0  0  0  0  0  0  0  0  0  0  0
   -3.5078   -1.8799    0.9446 H   0  0  0  0  0  0  0  0  0  0  0  0
   -2.5034   -2.5193   -0.3809 H   0  0  0  0  0  0  0  0  0  0  0  0
   -1.4502   -1.2507    0.9979 C   0  0  0  0  0  0  0  0  0  0  0  0
   -0.6202   -1.4848    1.8631 O   0  0  0  0  0  0  0  0  0  0  0  0
   -1.5010   -0.0007    0.4100 N   0  0  0  0  0  0  0  0  0  0  0  0
   -2.2330    0.0976   -0.2862 H   0  0  0  0  0  0  0  0  0  0  0  0
   -0.3060    0.8415    0.1913 C   0  0  1  0  0  0  0  0  0  0  0  0
   -0.4590    1.4378   -0.7143 H   0  0  0  0  0  0  0  0  0  0  0  0
   -0.1855    1.8085    1.3852 C   0  0  0  0  0  0  0  0  0  0  0  0
   -0.1187    1.2394    2.3175 H   0  0  0  0  0  0  0  0  0  0  0  0
    0.7173    2.4184    1.2927 H   0  0  0  0  0  0  0  0  0  0  0  0
   -1.3567    2.7424    1.4365 C   0  0  0  0  0  0  0  0  0  0  0  0
   -1.5220    3.8181    0.5741 N   0  0  0  0  0  0  0  0  0  0  0  0
   -2.6251    4.4225    0.9466 C   0  0  0  0  0  0  0  0  0  0  0  0
   -3.0377    5.3078    0.4710 H   0  0  0  0  0  0  0  0  0  0  0  0
   -3.1811    3.7697    2.0313 N   0  0  0  0  0  0  0  0  0  0  0  0
   -4.0339    4.0499    2.5124 H   0  0  0  0  0  0  0  0  0  0  0  0
   -2.3699    2.7018    2.3523 C   0  0  0  0  0  0  0  0  0  0  0  0
   -2.4872    1.9777    3.1536 H   0  0  0  0  0  0  0  0  0  0  0  0
    1.0035    0.0376   -0.0435 C   0  0  0  0  0  0  0  0  0  0  0  0
    1.0122   -0.8203   -0.9202 O   0  0  0  0  0  0  0  0  0  0  0  0
    2.1980    0.3595    0.5793 N   0  0  0  0  0  0  0  0  0  0  0  0
    2.1420    0.9923    1.3707 H   0  0  0  0  0  0  0  0  0  0  0  0
    3.4163   -0.4198    0.4000 C   0  0  0  0  0  0  0  0  0  0  0  0
    3.7235   -0.4151   -0.6511 H   0  0  0  0  0  0  0  0  0  0  0  0
    4.2280    0.0051    0.9980 H   0  0  0  0  0  0  0  0  0  0  0  0
    3.2570   -1.4560    0.7168 H   0  0  0  0  0  0  0  0  0  0  0  0
  1  2  1  0  0  0  0
  2  3  1  0  0  0  0
  2  4  1  0  0  0  0
  2  5  1  0  0  0  0
  5  6  2  0  0  0  0
  5  7  1  0  0  0  0
  7  8  1  0  0  0  0
  7  9  1  0  0  0  0
  9 10  1  0  0  0  0
  9 11  1  0  0  0  0
  9 22  1  0  0  0  0
 11 12  1  0  0  0  0
 11 13  1  0  0  0  0
 11 14  1  0  0  0  0
 14 15  1  0  0  0  0
 14 20  2  0  0  0  0
 15 16  2  0  0  0  0
 16 17  1  0  0  0  0
 16 18  1  0  0  0  0
 18 19  1  0  0  0  0
 18 20  1  0  0  0  0
 20 21  1  0  0  0  0
 22 23  2  0  0  0  0
 22 24  1  0  0  0  0
 24 25  1  0  0  0  0
 24 26  1  0  0  0  0
 26 27  1  0  0  0  0
 26 28  1  0  0  0  0
 26 29  1  0  0  0  0
M  END
$$$$

  -OEChem-01062216083D

 29 29  0     1  0  0  0  0  0999 V2000
   -2.3161   -3.2185    1.1771 H   0  0  0  0  0  0  0  0  0  0  0  0
   -2.5441   -2.2642    0.6939 C   0  0  0  0  0  0  0  0  0  0  0  0
   -3.5000   -1.8948    1.0728 H   0  0  0  0  0  0  0  0  0  0  0  0
   -2.6238   -2.4288   -0.3835 H   0  0  0  0  0  0  0  0  0  0  0  0
   -1.4462   -1.2585    0.9839 C   0  0  0  0  0  0  0  0  0  0  0  0
   -0.5967   -1.5133    1.8239 O   0  0  0  0  0  0  0  0  0  0  0  0
   -1.4913   -0.0065    0.4005 N   0  0  0  0  0  0  0  0  0  0  0  0
   -2.2346    0.1090   -0.2814 H   0  0  0  0  0  0  0  0  0  0  0  0
   -0.2998    0.8416    0.1892 C   0  0  1  0  0  0  0  0  0  0  0  0
   -0.4524    1.4373   -0.7171 H   0  0  0  0  0  0  0  0  0  0  0  0
   -0.1830    1.8107    1.3803 C   0  0  0  0  0  0  0  0  0  0  0  0
   -0.1198    1.2439    2.3144 H   0  0  0  0  0  0  0  0  0  0  0  0
    0.7236    2.4158    1.2864 H   0  0  0  0  0  0  0  0  0  0  0  0
   -1.3557    2.7430    1.4284 C   0  0  0  0  0  0  0  0  0  0  0  0
   -1.5243    3.8174    0.5653 N   0  0  0  0  0  0  0  0  0  0  0  0
   -2.6293    4.4193    0.9363 C   0  0  0  0  0  0  0  0  0  0  0  0
   -3.0434    5.3038    0.4606 H   0  0  0  0  0  0  0  0  0  0  0  0
   -3.1851    3.7645    2.0201 N   0  0  0  0  0  0  0  0  0  0  0  0
   -4.0390    4.0424    2.5007 H   0  0  0  0  0  0  0  0  0  0  0  0
   -2.3709    2.6990    2.3418 C   0  0  0  0  0  0  0  0  0  0  0  0
   -2.4874    1.9742    3.1424 H   0  0  0  0  0  0  0  0  0  0  0  0
    1.0134    0.0461   -0.0415 C   0  0  0  0  0  0  0  0  0  0  0  0
    1.0959   -0.6595   -1.0408 O   0  0  0  0  0  0  0  0  0  0  0  0
    2.1141    0.1648    0.7908 N   0  0  0  0  0  0  0  0  0  0  0  0
    1.9453    0.5979    1.6933 H   0  0  0  0  0  0  0  0  0  0  0  0
    3.3077   -0.6566    0.6356 C   0  0  0  0  0  0  0  0  0  0  0  0
    3.7490   -0.5085   -0.3556 H   0  0  0  0  0  0  0  0  0  0  0  0
    4.0538   -0.3844    1.3882 H   0  0  0  0  0  0  0  0  0  0  0  0
    3.0605   -1.7165    0.7578 H   0  0  0  0  0  0  0  0  0  0  0  0
  1  2  1  0  0  0  0
  2  3  1  0  0  0  0
  2  4  1  0  0  0  0
  2  5  1  0  0  0  0
  5  6  2  0  0  0  0
  5  7  1  0  0  0  0
  7  8  1  0  0  0  0
  7  9  1  0  0  0  0
  9 10  1  0  0  0  0
  9 11  1  0  0  0  0
  9 22  1  0  0  0  0
 11 12  1  0  0  0  0
 11 13  1  0  0  0  0
 11 14  1  0  0  0  0
 14 15  1  0  0  0  0
 14 20  2  0  0  0  0
 15 16  2  0  0  0  0
 16 17  1  0  0  0  0
 16 18  1  0  0  0  0
 18 19  1  0  0  0  0
 18 20  1  0  0  0  0
 20 21  1  0  0  0  0
 22 23  2  0  0  0  0
 22 24  1  0  0  0  0
 24 25  1  0  0  0  0
 24 26  1  0  0  0  0
 26 27  1  0  0  0  0
 26 28  1  0  0  0  0
 26 29  1  0  0  0  0
M  END
$$$$

  -OEChem-01062216083D

 29 29  0     1  0  0  0  0  0999 V2000
   -2.3906   -3.1835    1.2494 H   0  0  0  0  0  0  0  0  0  0  0  0
   -2.5663   -2.2545    0.7001 C   0  0  0  0  0  0  0  0  0  0  0  0
   -3.5269   -1.8369    1.0106 H   0  0  0  0  0  0  0  0  0  0  0  0
   -2.6015   -2.4808   -0.3683 H   0  0  0  0  0  0  0  0  0  0  0  0
   -1.4525   -1.2641    0.9813 C   0  0  0  0  0  0  0  0  0  0  0  0
   -0.5968   -1.5322    1.8107 O   0  0  0  0  0  0  0  0  0  0  0  0
   -1.4864   -0.0123    0.3978 N   0  0  0  0  0  0  0  0  0  0  0  0
   -2.2385    0.1194   -0.2717 H   0  0  0  0  0  0  0  0  0  0  0  0
   -0.2953    0.8365    0.1897 C   0  0  1  0  0  0  0  0  0  0  0  0
   -0.4485    1.4324   -0.7167 H   0  0  0  0  0  0  0  0  0  0  0  0
   -0.1794    1.8057    1.3802 C   0  0  0  0  0  0  0  0  0  0  0  0
   -0.1219    1.2405    2.3153 H   0  0  0  0  0  0  0  0  0  0  0  0
    0.7319    2.4046    1.2890 H   0  0  0  0  0  0  0  0  0  0  0  0
   -1.3524    2.7384    1.4261 C   0  0  0  0  0  0  0  0  0  0  0  0
   -1.5211    3.8127    0.5626 N   0  0  0  0  0  0  0  0  0  0  0  0
   -2.6258    4.4152    0.9330 C   0  0  0  0  0  0  0  0  0  0  0  0
   -3.0387    5.3001    0.4568 H   0  0  0  0  0  0  0  0  0  0  0  0
   -3.1822    3.7605    2.0166 N   0  0  0  0  0  0  0  0  0  0  0  0
   -4.0348    4.0403    2.4983 H   0  0  0  0  0  0  0  0  0  0  0  0
   -2.3681    2.6953    2.3394 C   0  0  0  0  0  0  0  0  0  0  0  0
   -2.4846    1.9722    3.1414 H   0  0  0  0  0  0  0  0  0  0  0  0
    1.0235    0.0511   -0.0364 C   0  0  0  0  0  0  0  0  0  0  0  0
    1.2113   -0.4641   -1.1323 O   0  0  0  0  0  0  0  0  0  0  0  0
    1.9971   -0.0619    0.9415 N   0  0  0  0  0  0  0  0  0  0  0  0
    1.6775    0.1239    1.8880 H   0  0  0  0  0  0  0  0  0  0  0  0
    3.1659   -0.9170    0.7785 C   0  0  0  0  0  0  0  0  0  0  0  0
    3.7386   -0.6213   -0.1067 H   0  0  0  0  0  0  0  0  0  0  0  0
    3.8186   -0.8344    1.6527 H   0  0  0  0  0  0  0  0  0  0  0  0
    2.8610   -1.9630    0.6687 H   0  0  0  0  0  0  0  0  0  0  0  0
  1  2  1  0  0  0  0
  2  3  1  0  0  0  0
  2  4  1  0  0  0  0
  2  5  1  0  0  0  0
  5  6  2  0  0  0  0
  5  7  1  0  0  0  0
  7  8  1  0  0  0  0
  7  9  1  0  0  0  0
  9 10  1  0  0  0  0
  9 11  1  0  0  0  0
  9 22  1  0  0  0  0
 11 12  1  0  0  0  0
 11 13  1  0  0  0  0
 11 14  1  0  0  0  0
 14 15  1  0  0  0  0
 14 20  2  0  0  0  0
 15 16  2  0  0  0  0
 16 17  1  0  0  0  0
 16 18  1  0  0  0  0
 18 19  1  0  0  0  0
 18 20  1  0  0  0  0
 20 21  1  0  0  0  0
 22 23  2  0  0  0  0
 22 24  1  0  0  0  0
 24 25  1  0  0  0  0
 24 26  1  0  0  0  0
 26 27  1  0  0  0  0
 26 28  1  0  0  0  0
 26 29  1  0  0  0  0
M  END
$$$$

  -OEChem-01062216083D

 29 29  0     1  0  0  0  0  0999 V2000
   -2.4851   -3.1815    1.2431 H   0  0  0  0  0  0  0  0  0  0  0  0
   -2.6496   -2.2367    0.7175 C   0  0  0  0  0  0  0  0  0  0  0  0
   -3.5821   -1.7923    1.0734 H   0  0  0  0  0  0  0  0  0  0  0  0
   -2.7350   -2.4418   -0.3525 H   0  0  0  0  0  0  0  0  0  0  0  0
   -1.4928   -1.2893    0.9730 C   0  0  0  0  0  0  0  0  0  0  0  0
   -0.6378   -1.5855    1.7929 O   0  0  0  0  0  0  0  0  0  0  0  0
   -1.4909   -0.0400    0.3844 N   0  0  0  0  0  0  0  0  0  0  0  0
   -2.2558    0.1244   -0.2634 H   0  0  0  0  0  0  0  0  0  0  0  0
   -0.2941    0.8036    0.1831 C   0  0  1  0  0  0  0  0  0  0  0  0
   -0.4451    1.3996   -0.7239 H   0  0  0  0  0  0  0  0  0  0  0  0
   -0.1776    1.7722    1.3732 C   0  0  0  0  0  0  0  0  0  0  0  0
   -0.1258    1.2082    2.3093 H   0  0  0  0  0  0  0  0  0  0  0  0
    0.7394    2.3631    1.2847 H   0  0  0  0  0  0  0  0  0  0  0  0
   -1.3446    2.7125    1.4160 C   0  0  0  0  0  0  0  0  0  0  0  0
   -1.5034    3.7876    0.5522 N   0  0  0  0  0  0  0  0  0  0  0  0
   -2.6003    4.4029    0.9237 C   0  0  0  0  0  0  0  0  0  0  0  0
   -3.0036    5.2917    0.4470 H   0  0  0  0  0  0  0  0  0  0  0  0
   -3.1617    3.7559    2.0092 N   0  0  0  0  0  0  0  0  0  0  0  0
   -4.0061    4.0497    2.4967 H   0  0  0  0  0  0  0  0  0  0  0  0
   -2.3584    2.6826    2.3322 C   0  0  0  0  0  0  0  0  0  0  0  0
   -2.4787    1.9659    3.1393 H   0  0  0  0  0  0  0  0  0  0  0  0
    1.0380    0.0365   -0.0264 C   0  0  0  0  0  0  0  0  0  0  0  0
    1.3883   -0.2269   -1.1703 O   0  0  0  0  0  0  0  0  0  0  0  0
    1.8559   -0.3183    1.0322 N   0  0  0  0  0  0  0  0  0  0  0  0
    1.3614   -0.4056    1.9189 H   0  0  0  0  0  0  0  0  0  0  0  0
    3.0447   -1.1411    0.8494 C   0  0  0  0  0  0  0  0  0  0  0  0
    3.7422   -0.6610    0.1549 H   0  0  0  0  0  0  0  0  0  0  0  0
    3.5560   -1.2823    1.8064 H   0  0  0  0  0  0  0  0  0  0  0  0
    2.7712   -2.1242    0.4521 H   0  0  0  0  0  0  0  0  0  0  0  0
  1  2  1  0  0  0  0
  2  3  1  0  0  0  0
  2  4  1  0  0  0  0
  2  5  1  0  0  0  0
  5  6  2  0  0  0  0
  5  7  1  0  0  0  0
  7  8  1  0  0  0  0
  7  9  1  0  0  0  0
  9 10  1  0  0  0  0
  9 11  1  0  0  0  0
  9 22  1  0  0  0  0
 11 12  1  0  0  0  0
 11 13  1  0  0  0  0
 11 14  1  0  0  0  0
 14 15  1  0  0  0  0
 14 20  2  0  0  0  0
 15 16  2  0  0  0  0
 16 17  1  0  0  0  0
 16 18  1  0  0  0  0
 18 19  1  0  0  0  0
 18 20  1  0  0  0  0
 20 21  1  0  0  0  0
 22 23  2  0  0  0  0
 22 24  1  0  0  0  0
 24 25  1  0  0  0  0
 24 26  1  0  0  0  0
 26 27  1  0  0  0  0
 26 28  1  0  0  0  0
 26 29  1  0  0  0  0
M  END
$$$$

  -OEChem-01062216083D

 29 29  0     1  0  0  0  0  0999 V2000
   -2.6425   -3.1557    1.2508 H   0  0  0  0  0  0  0  0  0  0  0  0
   -2.7643   -2.2029    0.7276 C   0  0  0  0  0  0  0  0  0  0  0  0
   -3.6711   -1.7139    1.0919 H   0  0  0  0  0  0  0  0  0  0  0  0
   -2.8689   -2.4016   -0.3418 H   0  0  0  0  0  0  0  0  0  0  0  0
   -1.5602   -1.3137    0.9740 C   0  0  0  0  0  0  0  0  0  0  0  0
   -0.7209   -1.6530    1.7923 O   0  0  0  0  0  0  0  0  0  0  0  0
   -1.5031   -0.0692    0.3783 N   0  0  0  0  0  0  0  0  0  0  0  0
   -2.2801    0.1371   -0.2427 H   0  0  0  0  0  0  0  0  0  0  0  0
   -0.2959    0.7620    0.1753 C   0  0  1  0  0  0  0  0  0  0  0  0
   -0.4479    1.3582   -0.7314 H   0  0  0  0  0  0  0  0  0  0  0  0
   -0.1745    1.7279    1.3660 C   0  0  0  0  0  0  0  0  0  0  0  0
   -0.1266    1.1617    2.3010 H   0  0  0  0  0  0  0  0  0  0  0  0
    0.7479    2.3108    1.2800 H   0  0  0  0  0  0  0  0  0  0  0  0
   -1.3329    2.6791    1.4084 C   0  0  0  0  0  0  0  0  0  0  0  0
   -1.4820    3.7575    0.5472 N   0  0  0  0  0  0  0  0  0  0  0  0
   -2.5723    4.3832    0.9207 C   0  0  0  0  0  0  0  0  0  0  0  0
   -2.9671    5.2773    0.4466 H   0  0  0  0  0  0  0  0  0  0  0  0
   -3.1402    3.7387    2.0043 N   0  0  0  0  0  0  0  0  0  0  0  0
   -3.9813    4.0405    2.4931 H   0  0  0  0  0  0  0  0  0  0  0  0
   -2.3474    2.6567    2.3243 C   0  0  0  0  0  0  0  0  0  0  0  0
   -2.4746    1.9396    3.1301 H   0  0  0  0  0  0  0  0  0  0  0  0
    1.0526    0.0199   -0.0220 C   0  0  0  0  0  0  0  0  0  0  0  0
    1.5566    0.0062   -1.1382 O   0  0  0  0  0  0  0  0  0  0  0  0
    1.7264   -0.5801    1.0260 N   0  0  0  0  0  0  0  0  0  0  0  0
    1.1205   -0.8386    1.8076 H   0  0  0  0  0  0  0  0  0  0  0  0
    2.9387   -1.3639    0.8287 C   0  0  0  0  0  0  0  0  0  0  0  0
    3.7201   -0.7529    0.3650 H   0  0  0  0  0  0  0  0  0  0  0  0
    3.3127   -1.7271    1.7906 H   0  0  0  0  0  0  0  0  0  0  0  0
    2.7360   -2.2263    0.1853 H   0  0  0  0  0  0  0  0  0  0  0  0
  1  2  1  0  0  0  0
  2  3  1  0  0  0  0
  2  4  1  0  0  0  0
  2  5  1  0  0  0  0
  5  6  2  0  0  0  0
  5  7  1  0  0  0  0
  7  8  1  0  0  0  0
  7  9  1  0  0  0  0
  9 10  1  0  0  0  0
  9 11  1  0  0  0  0
  9 22  1  0  0  0  0
 11 12  1  0  0  0  0
 11 13  1  0  0  0  0
 11 14  1  0  0  0  0
 14 15  1  0  0  0  0
 14 20  2  0  0  0  0
 15 16  2  0  0  0  0
 16 17  1  0  0  0  0
 16 18  1  0  0  0  0
 18 19  1  0  0  0  0
 18 20  1  0  0  0  0
 20 21  1  0  0  0  0
 22 23  2  0  0  0  0
 22 24  1  0  0  0  0
 24 25  1  0  0  0  0
 24 26  1  0  0  0  0
 26 27  1  0  0  0  0
 26 28  1  0  0  0  0
 26 29  1  0  0  0  0
M  END
$$$$

  -OEChem-01062216083D

 29 29  0     1  0  0  0  0  0999 V2000
   -2.8066   -3.1243    1.2408 H   0  0  0  0  0  0  0  0  0  0  0  0
   -2.8899   -2.1579    0.7354 C   0  0  0  0  0  0  0  0  0  0  0  0
   -3.7654   -1.6312    1.1230 H   0  0  0  0  0  0  0  0  0  0  0  0
   -3.0219   -2.3333   -0.3351 H   0  0  0  0  0  0  0  0  0  0  0  0
   -1.6397   -1.3326    0.9754 C   0  0  0  0  0  0  0  0  0  0  0  0
   -0.8237   -1.7129    1.7976 O   0  0  0  0  0  0  0  0  0  0  0  0
   -1.5236   -0.0977    0.3686 N   0  0  0  0  0  0  0  0  0  0  0  0
   -2.3067    0.1455   -0.2312 H   0  0  0  0  0  0  0  0  0  0  0  0
   -0.3042    0.7179    0.1583 C   0  0  1  0  0  0  0  0  0  0  0  0
   -0.4568    1.3130   -0.7492 H   0  0  0  0  0  0  0  0  0  0  0  0
   -0.1758    1.6800    1.3507 C   0  0  0  0  0  0  0  0  0  0  0  0
   -0.1302    1.1103    2.2840 H   0  0  0  0  0  0  0  0  0  0  0  0
    0.7509    2.2563    1.2654 H   0  0  0  0  0  0  0  0  0  0  0  0
   -1.3243    2.6429    1.3963 C   0  0  0  0  0  0  0  0  0  0  0  0
   -1.4669    3.7268    0.5409 N   0  0  0  0  0  0  0  0  0  0  0  0
   -2.5495    4.3613    0.9219 C   0  0  0  0  0  0  0  0  0  0  0  0
   -2.9365    5.2631    0.4557 H   0  0  0  0  0  0  0  0  0  0  0  0
   -3.1202    3.7158    2.0033 N   0  0  0  0  0  0  0  0  0  0  0  0
   -3.9550    4.0242    2.4982 H   0  0  0  0  0  0  0  0  0  0  0  0
   -2.3356    2.6256    2.3156 C   0  0  0  0  0  0  0  0  0  0  0  0
   -2.4646    1.9069    3.1196 H   0  0  0  0  0  0  0  0  0  0  0  0
    1.0613    0.0009   -0.0269 C   0  0  0  0  0  0  0  0  0  0  0  0
    1.6920    0.2076   -1.0560 O   0  0  0  0  0  0  0  0  0  0  0  0
    1.6168   -0.8300    0.9273 N   0  0  0  0  0  0  0  0  0  0  0  0
    0.9647   -1.1637    1.6415 H   0  0  0  0  0  0  0  0  0  0  0  0
    2.8499   -1.5770    0.7182 C   0  0  0  0  0  0  0  0  0  0  0  0
    3.6807   -0.8952    0.5092 H   0  0  0  0  0  0  0  0  0  0  0  0
    3.0959   -2.1538    1.6148 H   0  0  0  0  0  0  0  0  0  0  0  0
    2.7408   -2.2697   -0.1226 H   0  0  0  0  0  0  0  0  0  0  0  0
  1  2  1  0  0  0  0
  2  3  1  0  0  0  0
  2  4  1  0  0  0  0
  2  5  1  0  0  0  0
  5  6  2  0  0  0  0
  5  7  1  0  0  0  0
  7  8  1  0  0  0  0
  7  9  1  0  0  0  0
  9 10  1  0  0  0  0
  9 11  1  0  0  0  0
  9 22  1  0  0  0  0
 11 12  1  0  0  0  0
 11 13  1  0  0  0  0
 11 14  1  0  0  0  0
 14 15  1  0  0  0  0
 14 20  2  0  0  0  0
 15 16  2  0  0  0  0
 16 17  1  0  0  0  0
 16 18  1  0  0  0  0
 18 19  1  0  0  0  0
 18 20  1  0  0  0  0
 20 21  1  0  0  0  0
 22 23  2  0  0  0  0
 22 24  1  0  0  0  0
 24 25  1  0  0  0  0
 24 26  1  0  0  0  0
 26 27  1  0  0  0  0
 26 28  1  0  0  0  0
 26 29  1  0  0  0  0
M  END
$$$$

  -OEChem-01062216083D

 29 29  0     1  0  0  0  0  0999 V2000
   -2.9517   -3.0904    1.2483 H   0  0  0  0  0  0  0  0  0  0  0  0
   -3.0040   -2.1166    0.7531 C   0  0  0  0  0  0  0  0  0  0  0  0
   -3.8486   -1.5572    1.1627 H   0  0  0  0  0  0  0  0  0  0  0  0
   -3.1646   -2.2767   -0.3159 H   0  0  0  0  0  0  0  0  0  0  0  0
   -1.7160   -1.3467    0.9760 C   0  0  0  0  0  0  0  0  0  0  0  0
   -0.9118   -1.7617    1.7922 O   0  0  0  0  0  0  0  0  0  0  0  0
   -1.5570   -0.1196    0.3634 N   0  0  0  0  0  0  0  0  0  0  0  0
   -2.3471    0.1574   -0.2120 H   0  0  0  0  0  0  0  0  0  0  0  0
   -0.3246    0.6757    0.1388 C   0  0  1  0  0  0  0  0  0  0  0  0
   -0.4815    1.2712   -0.7680 H   0  0  0  0  0  0  0  0  0  0  0  0
   -0.1775    1.6353    1.3309 C   0  0  0  0  0  0  0  0  0  0  0  0
   -0.1317    1.0630    2.2625 H   0  0  0  0  0  0  0  0  0  0  0  0
    0.7555    2.2006    1.2408 H   0  0  0  0  0  0  0  0  0  0  0  0
   -1.3127    2.6140    1.3840 C   0  0  0  0  0  0  0  0  0  0  0  0
   -1.4487    3.7016    0.5321 N   0  0  0  0  0  0  0  0  0  0  0  0
   -2.5199    4.3491    0.9235 C   0  0  0  0  0  0  0  0  0  0  0  0
   -2.8998    5.2560    0.4615 H   0  0  0  0  0  0  0  0  0  0  0  0
   -3.0896    3.7087    2.0087 N   0  0  0  0  0  0  0  0  0  0  0  0
   -3.9157    4.0275    2.5119 H   0  0  0  0  0  0  0  0  0  0  0  0
   -2.3166    2.6077    2.3116 C   0  0  0  0  0  0  0  0  0  0  0  0
   -2.4469    1.8894    3.1159 H   0  0  0  0  0  0  0  0  0  0  0  0
    1.0474   -0.0309   -0.0539 C   0  0  0  0  0  0  0  0  0  0  0  0
    1.7809    0.3720   -0.9477 O   0  0  0  0  0  0  0  0  0  0  0  0
    1.5038   -1.0730    0.7290 N   0  0  0  0  0  0  0  0  0  0  0  0
    0.8397   -1.4555    1.4063 H   0  0  0  0  0  0  0  0  0  0  0  0
    2.7712   -1.7598    0.5199 C   0  0  0  0  0  0  0  0  0  0  0  0
    3.6042   -1.0510    0.5726 H   0  0  0  0  0  0  0  0  0  0  0  0
    2.9176   -2.5217    1.2915 H   0  0  0  0  0  0  0  0  0  0  0  0
    2.7843   -2.2494   -0.4592 H   0  0  0  0  0  0  0  0  0  0  0  0
  1  2  1  0  0  0  0
  2  3  1  0  0  0  0
  2  4  1  0  0  0  0
  2  5  1  0  0  0  0
  5  6  2  0  0  0  0
  5  7  1  0  0  0  0
  7  8  1  0  0  0  0
  7  9  1  0  0  0  0
  9 10  1  0  0  0  0
  9 11  1  0  0  0  0
  9 22  1  0  0  0  0
 11 12  1  0  0  0  0
 11 13  1  0  0  0  0
 11 14  1  0  0  0  0
 14 15  1  0  0  0  0
 14 20  2  0  0  0  0
 15 16  2  0  0  0  0
 16 17  1  0  0  0  0
 16 18  1  0  0  0  0
 18 19  1  0  0  0  0
 18 20  1  0  0  0  0
 20 21  1  0  0  0  0
 22 23  2  0  0  0  0
 22 24  1  0  0  0  0
 24 25  1  0  0  0  0
 24 26  1  0  0  0  0
 26 27  1  0  0  0  0
 26 28  1  0  0  0  0
 26 29  1  0  0  0  0
M  END
$$$$

  -OEChem-01062216083D

 29 29  0     1  0  0  0  0  0999 V2000
   -2.3411   -3.2283    1.3341 H   0  0  0  0  0  0  0  0  0  0  0  0
   -2.4645   -2.3066    0.7582 C   0  0  0  0  0  0  0  0  0  0  0  0
   -3.4235   -1.8535    1.0209 H   0  0  0  0  0  0  0  0  0  0  0  0
   -2.4645   -2.5556   -0.3057 H   0  0  0  0  0  0  0  0  0  0  0  0
   -1.3342   -1.3431    1.0664 C   0  0  0  0  0  0  0  0  0  0  0  0
   -0.5744   -1.5925    1.9837 O   0  0  0  0  0  0  0  0  0  0  0  0
   -1.3102   -0.1128    0.4454 N   0  0  0  0  0  0  0  0  0  0  0  0
   -2.0944    0.0465   -0.1796 H   0  0  0  0  0  0  0  0  0  0  0  0
   -0.1638    0.8053    0.2422 C   0  0  1  0  0  0  0  0  0  0  0  0
   -0.3694    1.3717   -0.6725 H   0  0  0  0  0  0  0  0  0  0  0  0
   -0.1893    1.7828    1.4329 C   0  0  0  0  0  0  0  0  0  0  0  0
   -0.1191    1.2212    2.3698 H   0  0  0  0  0  0  0  0  0  0  0  0
    0.6693    2.4602    1.3887 H   0  0  0  0  0  0  0  0  0  0  0  0
   -1.4345    2.6194    1.4224 C   0  0  0  0  0  0  0  0  0  0  0  0
   -1.6611    3.6803    0.5549 N   0  0  0  0  0  0  0  0  0  0  0  0
   -2.8157    4.1996    0.8967 C   0  0  0  0  0  0  0  0  0  0  0  0
   -3.2782    5.0551    0.4127 H   0  0  0  0  0  0  0  0  0  0  0  0
   -3.3530    3.5003    1.9617 N   0  0  0  0  0  0  0  0  0  0  0  0
   -4.2295    3.7235    2.4297 H   0  0  0  0  0  0  0  0  0  0  0  0
   -2.4700    2.4990    2.3063 C   0  0  0  0  0  0  0  0  0  0  0  0
   -2.5468    1.7736    3.1112 H   0  0  0  0  0  0  0  0  0  0  0  0
    1.3083    0.3067    0.0728 C   0  0  0  0  0  0  0  0  0  0  0  0
    2.1424    1.1105   -0.3159 O   0  0  0  0  0  0  0  0  0  0  0  0
    1.9308   -0.8110    0.5781 N   0  0  0  0  0  0  0  0  0  0  0  0
    2.9281   -0.6345    0.6640 H   0  0  0  0  0  0  0  0  0  0  0  0
    1.6145   -2.1304    0.0459 C   0  0  0  0  0  0  0  0  0  0  0  0
    2.4474   -2.4928   -0.5645 H   0  0  0  0  0  0  0  0  0  0  0  0
    1.4508   -2.8399    0.8631 H   0  0  0  0  0  0  0  0  0  0  0  0
    0.7210   -2.1075   -0.5854 H   0  0  0  0  0  0  0  0  0  0  0  0
  1  2  1  0  0  0  0
  2  3  1  0  0  0  0
  2  4  1  0  0  0  0
  2  5  1  0  0  0  0
  5  6  2  0  0  0  0
  5  7  1  0  0  0  0
  7  8  1  0  0  0  0
  7  9  1  0  0  0  0
  9 10  1  0  0  0  0
  9 11  1  0  0  0  0
  9 22  1  0  0  0  0
 11 12  1  0  0  0  0
 11 13  1  0  0  0  0
 11 14  1  0  0  0  0
 14 15  1  0  0  0  0
 14 20  2  0  0  0  0
 15 16  2  0  0  0  0
 16 17  1  0  0  0  0
 16 18  1  0  0  0  0
 18 19  1  0  0  0  0
 18 20  1  0  0  0  0
 20 21  1  0  0  0  0
 22 23  2  0  0  0  0
 22 24  1  0  0  0  0
 24 25  1  0  0  0  0
 24 26  1  0  0  0  0
 26 27  1  0  0  0  0
 26 28  1  0  0  0  0
 26 29  1  0  0  0  0
M  END
$$$$

  -OEChem-01062216083D

 29 29  0     1  0  0  0  0  0999 V2000
   -2.6454   -3.2599    1.1643 H   0  0  0  0  0  0  0  0  0  0  0  0
   -2.7916   -2.3232    0.6187 C   0  0  0  0  0  0  0  0  0  0  0  0
   -3.7197   -1.8580    0.9592 H   0  0  0  0  0  0  0  0  0  0  0  0
   -2.8727   -2.5485   -0.4474 H   0  0  0  0  0  0  0  0  0  0  0  0
   -1.6215   -1.3886    0.8624 C   0  0  0  0  0  0  0  0  0  0  0  0
   -0.8055   -1.6691    1.7207 O   0  0  0  0  0  0  0  0  0  0  0  0
   -1.6371   -0.1277    0.3065 N   0  0  0  0  0  0  0  0  0  0  0  0
   -2.4850    0.0564   -0.2207 H   0  0  0  0  0  0  0  0  0  0  0  0
   -0.4819    0.6914   -0.1316 C   0  0  1  0  0  0  0  0  0  0  0  0
   -0.8357    1.3379   -0.9424 H   0  0  0  0  0  0  0  0  0  0  0  0
   -0.0898    1.5824    1.0591 C   0  0  0  0  0  0  0  0  0  0  0  0
    0.1482    0.9583    1.9257 H   0  0  0  0  0  0  0  0  0  0  0  0
    0.8030    2.1655    0.8117 H   0  0  0  0  0  0  0  0  0  0  0  0
   -1.1896    2.5412    1.4071 C   0  0  0  0  0  0  0  0  0  0  0  0
   -1.5005    3.6753    0.6680 N   0  0  0  0  0  0  0  0  0  0  0  0
   -2.4705    4.2815    1.3096 C   0  0  0  0  0  0  0  0  0  0  0  0
   -2.9394    5.2084    0.9917 H   0  0  0  0  0  0  0  0  0  0  0  0
   -2.8042    3.5694    2.4468 N   0  0  0  0  0  0  0  0  0  0  0  0
   -3.5147    3.8412    3.1236 H   0  0  0  0  0  0  0  0  0  0  0  0
   -1.9835    2.4635    2.5168 C   0  0  0  0  0  0  0  0  0  0  0  0
   -1.9489    1.6911    3.2800 H   0  0  0  0  0  0  0  0  0  0  0  0
    0.8264    0.0317   -0.6645 C   0  0  0  0  0  0  0  0  0  0  0  0
    1.3959    0.5819   -1.5941 O   0  0  0  0  0  0  0  0  0  0  0  0
    1.2394   -1.2758   -0.5578 N   0  0  0  0  0  0  0  0  0  0  0  0
    1.7819   -1.5165   -1.3832 H   0  0  0  0  0  0  0  0  0  0  0  0
    1.8849   -1.6992    0.6797 C   0  0  0  0  0  0  0  0  0  0  0  0
    2.9697   -1.7362    0.5403 H   0  0  0  0  0  0  0  0  0  0  0  0
    1.6753   -1.0079    1.5030 H   0  0  0  0  0  0  0  0  0  0  0  0
    1.5373   -2.6970    0.9652 H   0  0  0  0  0  0  0  0  0  0  0  0
  1  2  1  0  0  0  0
  2  3  1  0  0  0  0
  2  4  1  0  0  0  0
  2  5  1  0  0  0  0
  5  6  2  0  0  0  0
  5  7  1  0  0  0  0
  7  8  1  0  0  0  0
  7  9  1  0  0  0  0
  9 10  1  0  0  0  0
  9 11  1  0  0  0  0
  9 22  1  0  0  0  0
 11 12  1  0  0  0  0
 11 13  1  0  0  0  0
 11 14  1  0  0  0  0
 14 15  1  0  0  0  0
 14 20  2  0  0  0  0
 15 16  2  0  0  0  0
 16 17  1  0  0  0  0
 16 18  1  0  0  0  0
 18 19  1  0  0  0  0
 18 20  1  0  0  0  0
 20 21  1  0  0  0  0
 22 23  2  0  0  0  0
 22 24  1  0  0  0  0
 24 25  1  0  0  0  0
 24 26  1  0  0  0  0
 26 27  1  0  0  0  0
 26 28  1  0  0  0  0
 26 29  1  0  0  0  0
M  END
$$$$

  -OEChem-01062216083D

 29 29  0     1  0  0  0  0  0999 V2000
   -3.0753   -2.9982    1.3366 H   0  0  0  0  0  0  0  0  0  0  0  0
   -3.1072   -2.0190    0.8501 C   0  0  0  0  0  0  0  0  0  0  0  0
   -3.8449   -1.3959    1.3617 H   0  0  0  0  0  0  0  0  0  0  0  0
   -3.4123   -2.1547   -0.1905 H   0  0  0  0  0  0  0  0  0  0  0  0
   -1.7420   -1.3601    0.9092 C   0  0  0  0  0  0  0  0  0  0  0  0
   -0.8528   -1.8952    1.5466 O   0  0  0  0  0  0  0  0  0  0  0  0
   -1.5706   -0.1233    0.3199 N   0  0  0  0  0  0  0  0  0  0  0  0
   -2.4084    0.2515   -0.1162 H   0  0  0  0  0  0  0  0  0  0  0  0
   -0.3334    0.6602    0.0717 C   0  0  1  0  0  0  0  0  0  0  0  0
   -0.5065    1.2677   -0.8232 H   0  0  0  0  0  0  0  0  0  0  0  0
   -0.1730    1.6003    1.2818 C   0  0  0  0  0  0  0  0  0  0  0  0
   -0.1171    1.0098    2.2014 H   0  0  0  0  0  0  0  0  0  0  0  0
    0.7564    2.1727    1.1988 H   0  0  0  0  0  0  0  0  0  0  0  0
   -1.3076    2.5790    1.3611 C   0  0  0  0  0  0  0  0  0  0  0  0
   -1.4516    3.6811    0.5293 N   0  0  0  0  0  0  0  0  0  0  0  0
   -2.5142    4.3268    0.9453 C   0  0  0  0  0  0  0  0  0  0  0  0
   -2.8946    5.2439    0.5046 H   0  0  0  0  0  0  0  0  0  0  0  0
   -3.0738    3.6689    2.0250 N   0  0  0  0  0  0  0  0  0  0  0  0
   -3.8886    3.9858    2.5476 H   0  0  0  0  0  0  0  0  0  0  0  0
   -2.3006    2.5608    2.3007 C   0  0  0  0  0  0  0  0  0  0  0  0
   -2.4217    1.8333    3.0981 H   0  0  0  0  0  0  0  0  0  0  0  0
    1.0332   -0.0455   -0.1831 C   0  0  0  0  0  0  0  0  0  0  0  0
    1.9927    0.6480   -0.4994 O   0  0  0  0  0  0  0  0  0  0  0  0
    1.2094   -1.4165   -0.1996 N   0  0  0  0  0  0  0  0  0  0  0  0
    0.4964   -1.9434    0.3065 H   0  0  0  0  0  0  0  0  0  0  0  0
    2.5068   -2.0512   -0.3957 C   0  0  0  0  0  0  0  0  0  0  0  0
    3.2015   -1.7576    0.3979 H   0  0  0  0  0  0  0  0  0  0  0  0
    2.3983   -3.1397   -0.3776 H   0  0  0  0  0  0  0  0  0  0  0  0
    2.9328   -1.7645   -1.3627 H   0  0  0  0  0  0  0  0  0  0  0  0
  1  2  1  0  0  0  0
  2  3  1  0  0  0  0
  2  4  1  0  0  0  0
  2  5  1  0  0  0  0
  5  6  2  0  0  0  0
  5  7  1  0  0  0  0
  7  8  1  0  0  0  0
  7  9  1  0  0  0  0
  9 10  1  0  0  0  0
  9 11  1  0  0  0  0
  9 22  1  0  0  0  0
 11 12  1  0  0  0  0
 11 13  1  0  0  0  0
 11 14  1  0  0  0  0
 14 15  1  0  0  0  0
 14 20  2  0  0  0  0
 15 16  2  0  0  0  0
 16 17  1  0  0  0  0
 16 18  1  0  0  0  0
 18 19  1  0  0  0  0
 18 20  1  0  0  0  0
 20 21  1  0  0  0  0
 22 23  2  0  0  0  0
 22 24  1  0  0  0  0
 24 25  1  0  0  0  0
 24 26  1  0  0  0  0
 26 27  1  0  0  0  0
 26 28  1  0  0  0  0
 26 29  1  0  0  0  0
M  END
$$$$

  -OEChem-01062216083D

 29 29  0     1  0  0  0  0  0999 V2000
   -3.0258   -2.9836    1.3593 H   0  0  0  0  0  0  0  0  0  0  0  0
   -3.0692   -1.9972    0.8886 C   0  0  0  0  0  0  0  0  0  0  0  0
   -3.7573   -1.3671    1.4575 H   0  0  0  0  0  0  0  0  0  0  0  0
   -3.4472   -2.1113   -0.1305 H   0  0  0  0  0  0  0  0  0  0  0  0
   -1.6893   -1.3674    0.8629 C   0  0  0  0  0  0  0  0  0  0  0  0
   -0.7581   -1.9571    1.3798 O   0  0  0  0  0  0  0  0  0  0  0  0
   -1.5354   -0.1170    0.2978 N   0  0  0  0  0  0  0  0  0  0  0  0
   -2.3939    0.2987   -0.0526 H   0  0  0  0  0  0  0  0  0  0  0  0
   -0.3054    0.6832    0.0705 C   0  0  1  0  0  0  0  0  0  0  0  0
   -0.4736    1.2965   -0.8212 H   0  0  0  0  0  0  0  0  0  0  0  0
   -0.1711    1.6176    1.2900 C   0  0  0  0  0  0  0  0  0  0  0  0
   -0.1171    1.0219    2.2062 H   0  0  0  0  0  0  0  0  0  0  0  0
    0.7494    2.2059    1.2240 H   0  0  0  0  0  0  0  0  0  0  0  0
   -1.3190    2.5810    1.3609 C   0  0  0  0  0  0  0  0  0  0  0  0
   -1.4660    3.6862    0.5339 N   0  0  0  0  0  0  0  0  0  0  0  0
   -2.5397    4.3184    0.9419 C   0  0  0  0  0  0  0  0  0  0  0  0
   -2.9248    5.2342    0.5024 H   0  0  0  0  0  0  0  0  0  0  0  0
   -3.1040    3.6485    2.0116 N   0  0  0  0  0  0  0  0  0  0  0  0
   -3.9263    3.9553    2.5285 H   0  0  0  0  0  0  0  0  0  0  0  0
   -2.3219    2.5471    2.2896 C   0  0  0  0  0  0  0  0  0  0  0  0
   -2.4423    1.8156    3.0834 H   0  0  0  0  0  0  0  0  0  0  0  0
    1.0593   -0.0257   -0.1888 C   0  0  0  0  0  0  0  0  0  0  0  0
    2.0763    0.6535   -0.2708 O   0  0  0  0  0  0  0  0  0  0  0  0
    1.1599   -1.3651   -0.5187 N   0  0  0  0  0  0  0  0  0  0  0  0
    0.4049   -1.9384   -0.1415 H   0  0  0  0  0  0  0  0  0  0  0  0
    2.4398   -2.0218   -0.7553 C   0  0  0  0  0  0  0  0  0  0  0  0
    3.0754   -1.9548    0.1338 H   0  0  0  0  0  0  0  0  0  0  0  0
    2.2825   -3.0785   -0.9912 H   0  0  0  0  0  0  0  0  0  0  0  0
    2.9610   -1.5556   -1.5980 H   0  0  0  0  0  0  0  0  0  0  0  0
  1  2  1  0  0  0  0
  2  3  1  0  0  0  0
  2  4  1  0  0  0  0
  2  5  1  0  0  0  0
  5  6  2  0  0  0  0
  5  7  1  0  0  0  0
  7  8  1  0  0  0  0
  7  9  1  0  0  0  0
  9 10  1  0  0  0  0
  9 11  1  0  0  0  0
  9 22  1  0  0  0  0
 11 12  1  0  0  0  0
 11 13  1  0  0  0  0
 11 14  1  0  0  0  0
 14 15  1  0  0  0  0
 14 20  2  0  0  0  0
 15 16  2  0  0  0  0
 16 17  1  0  0  0  0
 16 18  1  0  0  0  0
 18 19  1  0  0  0  0
 18 20  1  0  0  0  0
 20 21  1  0  0  0  0
 22 23  2  0  0  0  0
 22 24  1  0  0  0  0
 24 25  1  0  0  0  0
 24 26  1  0  0  0  0
 26 27  1  0  0  0  0
 26 28  1  0  0  0  0
 26 29  1  0  0  0  0
M  END
$$$$

  -OEChem-01062216083D

 29 29  0     1  0  0  0  0  0999 V2000
   -2.9350   -2.9804    1.3811 H   0  0  0  0  0  0  0  0  0  0  0  0
   -3.0003   -1.9911    0.9187 C   0  0  0  0  0  0  0  0  0  0  0  0
   -3.6478   -1.3596    1.5320 H   0  0  0  0  0  0  0  0  0  0  0  0
   -3.4408   -2.0969   -0.0758 H   0  0  0  0  0  0  0  0  0  0  0  0
   -1.6195   -1.3710    0.8118 C   0  0  0  0  0  0  0  0  0  0  0  0
   -0.6558   -1.9950    1.2146 O   0  0  0  0  0  0  0  0  0  0  0  0
   -1.4932   -0.1057    0.2729 N   0  0  0  0  0  0  0  0  0  0  0  0
   -2.3684    0.3366    0.0059 H   0  0  0  0  0  0  0  0  0  0  0  0
   -0.2733    0.7152    0.0730 C   0  0  1  0  0  0  0  0  0  0  0  0
   -0.4341    1.3356   -0.8147 H   0  0  0  0  0  0  0  0  0  0  0  0
   -0.1658    1.6422    1.3016 C   0  0  0  0  0  0  0  0  0  0  0  0
   -0.1132    1.0404    2.2137 H   0  0  0  0  0  0  0  0  0  0  0  0
    0.7455    2.2456    1.2510 H   0  0  0  0  0  0  0  0  0  0  0  0
   -1.3290    2.5880    1.3630 C   0  0  0  0  0  0  0  0  0  0  0  0
   -1.4804    3.6956    0.5401 N   0  0  0  0  0  0  0  0  0  0  0  0
   -2.5677    4.3113    0.9372 C   0  0  0  0  0  0  0  0  0  0  0  0
   -2.9601    5.2235    0.4967 H   0  0  0  0  0  0  0  0  0  0  0  0
   -3.1358    3.6290    1.9972 N   0  0  0  0  0  0  0  0  0  0  0  0
   -3.9665    3.9243    2.5073 H   0  0  0  0  0  0  0  0  0  0  0  0
   -2.3420    2.5369    2.2800 C   0  0  0  0  0  0  0  0  0  0  0  0
   -2.4610    1.8020    3.0709 H   0  0  0  0  0  0  0  0  0  0  0  0
    1.0856   -0.0031   -0.1870 C   0  0  0  0  0  0  0  0  0  0  0  0
    2.1424    0.5920   -0.0067 O   0  0  0  0  0  0  0  0  0  0  0  0
    1.1372   -1.2300   -0.8248 N   0  0  0  0  0  0  0  0  0  0  0  0
    0.3183   -1.8096   -0.6521 H   0  0  0  0  0  0  0  0  0  0  0  0
    2.3953   -1.9209   -1.0806 C   0  0  0  0  0  0  0  0  0  0  0  0
    2.9165   -2.1274   -0.1400 H   0  0  0  0  0  0  0  0  0  0  0  0
    2.2060   -2.8705   -1.5897 H   0  0  0  0  0  0  0  0  0  0  0  0
    3.0454   -1.3129   -1.7184 H   0  0  0  0  0  0  0  0  0  0  0  0
  1  2  1  0  0  0  0
  2  3  1  0  0  0  0
  2  4  1  0  0  0  0
  2  5  1  0  0  0  0
  5  6  2  0  0  0  0
  5  7  1  0  0  0  0
  7  8  1  0  0  0  0
  7  9  1  0  0  0  0
  9 10  1  0  0  0  0
  9 11  1  0  0  0  0
  9 22  1  0  0  0  0
 11 12  1  0  0  0  0
 11 13  1  0  0  0  0
 11 14  1  0  0  0  0
 14 15  1  0  0  0  0
 14 20  2  0  0  0  0
 15 16  2  0  0  0  0
 16 17  1  0  0  0  0
 16 18  1  0  0  0  0
 18 19  1  0  0  0  0
 18 20  1  0  0  0  0
 20 21  1  0  0  0  0
 22 23  2  0  0  0  0
 22 24  1  0  0  0  0
 24 25  1  0  0  0  0
 24 26  1  0  0  0  0
 26 27  1  0  0  0  0
 26 28  1  0  0  0  0
 26 29  1  0  0  0  0
M  END
$$$$

  -OEChem-01062216083D

 29 29  0     1  0  0  0  0  0999 V2000
   -2.8003   -3.0118    1.3590 H   0  0  0  0  0  0  0  0  0  0  0  0
   -2.8999   -2.0184    0.9121 C   0  0  0  0  0  0  0  0  0  0  0  0
   -3.5482   -1.4110    1.5481 H   0  0  0  0  0  0  0  0  0  0  0  0
   -3.3596   -2.1215   -0.0738 H   0  0  0  0  0  0  0  0  0  0  0  0
   -1.5371   -1.3635    0.7843 C   0  0  0  0  0  0  0  0  0  0  0  0
   -0.5508   -1.9686    1.1591 O   0  0  0  0  0  0  0  0  0  0  0  0
   -1.4540   -0.0890    0.2566 N   0  0  0  0  0  0  0  0  0  0  0  0
   -2.3434    0.3461    0.0286 H   0  0  0  0  0  0  0  0  0  0  0  0
   -0.2509    0.7569    0.0723 C   0  0  1  0  0  0  0  0  0  0  0  0
   -0.4103    1.3799   -0.8137 H   0  0  0  0  0  0  0  0  0  0  0  0
   -0.1578    1.6825    1.3021 C   0  0  0  0  0  0  0  0  0  0  0  0
   -0.0951    1.0794    2.2129 H   0  0  0  0  0  0  0  0  0  0  0  0
    0.7451    2.2985    1.2491 H   0  0  0  0  0  0  0  0  0  0  0  0
   -1.3347    2.6099    1.3650 C   0  0  0  0  0  0  0  0  0  0  0  0
   -1.5035    3.7170    0.5446 N   0  0  0  0  0  0  0  0  0  0  0  0
   -2.6008    4.3139    0.9437 C   0  0  0  0  0  0  0  0  0  0  0  0
   -3.0074    5.2213    0.5061 H   0  0  0  0  0  0  0  0  0  0  0  0
   -3.1588    3.6188    2.0009 N   0  0  0  0  0  0  0  0  0  0  0  0
   -3.9947    3.8984    2.5114 H   0  0  0  0  0  0  0  0  0  0  0  0
   -2.3474    2.5392    2.2808 C   0  0  0  0  0  0  0  0  0  0  0  0
   -2.4539    1.7998    3.0693 H   0  0  0  0  0  0  0  0  0  0  0  0
    1.0999    0.0271   -0.1851 C   0  0  0  0  0  0  0  0  0  0  0  0
    2.1555    0.4613    0.2633 O   0  0  0  0  0  0  0  0  0  0  0  0
    1.1531   -1.0206   -1.0883 N   0  0  0  0  0  0  0  0  0  0  0  0
    0.2677   -1.4915   -1.2447 H   0  0  0  0  0  0  0  0  0  0  0  0
    2.3741   -1.7791   -1.3299 C   0  0  0  0  0  0  0  0  0  0  0  0
    2.7216   -2.2483   -0.4035 H   0  0  0  0  0  0  0  0  0  0  0  0
    2.1907   -2.5639   -2.0697 H   0  0  0  0  0  0  0  0  0  0  0  0
    3.1640   -1.1239   -1.7121 H   0  0  0  0  0  0  0  0  0  0  0  0
  1  2  1  0  0  0  0
  2  3  1  0  0  0  0
  2  4  1  0  0  0  0
  2  5  1  0  0  0  0
  5  6  2  0  0  0  0
  5  7  1  0  0  0  0
  7  8  1  0  0  0  0
  7  9  1  0  0  0  0
  9 10  1  0  0  0  0
  9 11  1  0  0  0  0
  9 22  1  0  0  0  0
 11 12  1  0  0  0  0
 11 13  1  0  0  0  0
 11 14  1  0  0  0  0
 14 15  1  0  0  0  0
 14 20  2  0  0  0  0
 15 16  2  0  0  0  0
 16 17  1  0  0  0  0
 16 18  1  0  0  0  0
 18 19  1  0  0  0  0
 18 20  1  0  0  0  0
 20 21  1  0  0  0  0
 22 23  2  0  0  0  0
 22 24  1  0  0  0  0
 24 25  1  0  0  0  0
 24 26  1  0  0  0  0
 26 27  1  0  0  0  0
 26 28  1  0  0  0  0
 26 29  1  0  0  0  0
M  END
$$$$

  -OEChem-01062216083D

 29 29  0     1  0  0  0  0  0999 V2000
   -2.7428   -3.0224    1.3599 H   0  0  0  0  0  0  0  0  0  0  0  0
   -2.8543   -2.0281    0.9176 C   0  0  0  0  0  0  0  0  0  0  0  0
   -3.4961   -1.4260    1.5652 H   0  0  0  0  0  0  0  0  0  0  0  0
   -3.3279   -2.1306   -0.0617 H   0  0  0  0  0  0  0  0  0  0  0  0
   -1.4967   -1.3662    0.7715 C   0  0  0  0  0  0  0  0  0  0  0  0
   -0.5025   -1.9722    1.1229 O   0  0  0  0  0  0  0  0  0  0  0  0
   -1.4308   -0.0878    0.2495 N   0  0  0  0  0  0  0  0  0  0  0  0
   -2.3266    0.3468    0.0471 H   0  0  0  0  0  0  0  0  0  0  0  0
   -0.2356    0.7702    0.0834 C   0  0  1  0  0  0  0  0  0  0  0  0
   -0.3876    1.3957   -0.8024 H   0  0  0  0  0  0  0  0  0  0  0  0
   -0.1554    1.6949    1.3134 C   0  0  0  0  0  0  0  0  0  0  0  0
   -0.0958    1.0923    2.2250 H   0  0  0  0  0  0  0  0  0  0  0  0
    0.7468    2.3124    1.2646 H   0  0  0  0  0  0  0  0  0  0  0  0
   -1.3386    2.6136    1.3676 C   0  0  0  0  0  0  0  0  0  0  0  0
   -1.5068    3.7187    0.5442 N   0  0  0  0  0  0  0  0  0  0  0  0
   -2.6110    4.3092    0.9338 C   0  0  0  0  0  0  0  0  0  0  0  0
   -3.0197    5.2134    0.4914 H   0  0  0  0  0  0  0  0  0  0  0  0
   -3.1733    3.6125    1.9875 N   0  0  0  0  0  0  0  0  0  0  0  0
   -4.0145    3.8885    2.4912 H   0  0  0  0  0  0  0  0  0  0  0  0
   -2.3579    2.5380    2.2754 C   0  0  0  0  0  0  0  0  0  0  0  0
   -2.4661    1.7995    3.0646 H   0  0  0  0  0  0  0  0  0  0  0  0
    1.1127    0.0355   -0.1598 C   0  0  0  0  0  0  0  0  0  0  0  0
    2.1173    0.2906    0.4960 O   0  0  0  0  0  0  0  0  0  0  0  0
    1.2376   -0.7817   -1.2699 N   0  0  0  0  0  0  0  0  0  0  0  0
    0.3676   -1.0886   -1.6918 H   0  0  0  0  0  0  0  0  0  0  0  0
    2.4459   -1.5481   -1.5470 C   0  0  0  0  0  0  0  0  0  0  0  0
    2.6472   -2.2512   -0.7317 H   0  0  0  0  0  0  0  0  0  0  0  0
    2.3287   -2.1153   -2.4751 H   0  0  0  0  0  0  0  0  0  0  0  0
    3.3071   -0.8808   -1.6582 H   0  0  0  0  0  0  0  0  0  0  0  0
  1  2  1  0  0  0  0
  2  3  1  0  0  0  0
  2  4  1  0  0  0  0
  2  5  1  0  0  0  0
  5  6  2  0  0  0  0
  5  7  1  0  0  0  0
  7  8  1  0  0  0  0
  7  9  1  0  0  0  0
  9 10  1  0  0  0  0
  9 11  1  0  0  0  0
  9 22  1  0  0  0  0
 11 12  1  0  0  0  0
 11 13  1  0  0  0  0
 11 14  1  0  0  0  0
 14 15  1  0  0  0  0
 14 20  2  0  0  0  0
 15 16  2  0  0  0  0
 16 17  1  0  0  0  0
 16 18  1  0  0  0  0
 18 19  1  0  0  0  0
 18 20  1  0  0  0  0
 20 21  1  0  0  0  0
 22 23  2  0  0  0  0
 22 24  1  0  0  0  0
 24 25  1  0  0  0  0
 24 26  1  0  0  0  0
 26 27  1  0  0  0  0
 26 28  1  0  0  0  0
 26 29  1  0  0  0  0
M  END
$$$$

  -OEChem-01062216083D

 29 29  0     1  0  0  0  0  0999 V2000
   -2.7522   -3.0214    1.3732 H   0  0  0  0  0  0  0  0  0  0  0  0
   -2.8588   -2.0273    0.9291 C   0  0  0  0  0  0  0  0  0  0  0  0
   -3.4903   -1.4181    1.5801 H   0  0  0  0  0  0  0  0  0  0  0  0
   -3.3407   -2.1285   -0.0463 H   0  0  0  0  0  0  0  0  0  0  0  0
   -1.4972   -1.3768    0.7704 C   0  0  0  0  0  0  0  0  0  0  0  0
   -0.5055   -1.9942    1.1078 O   0  0  0  0  0  0  0  0  0  0  0  0
   -1.4283   -0.0992    0.2467 N   0  0  0  0  0  0  0  0  0  0  0  0
   -2.3238    0.3403    0.0553 H   0  0  0  0  0  0  0  0  0  0  0  0
   -0.2327    0.7583    0.0895 C   0  0  1  0  0  0  0  0  0  0  0  0
   -0.3788    1.3857   -0.7955 H   0  0  0  0  0  0  0  0  0  0  0  0
   -0.1556    1.6836    1.3186 C   0  0  0  0  0  0  0  0  0  0  0  0
   -0.1034    1.0810    2.2309 H   0  0  0  0  0  0  0  0  0  0  0  0
    0.7510    2.2951    1.2726 H   0  0  0  0  0  0  0  0  0  0  0  0
   -1.3367    2.6050    1.3674 C   0  0  0  0  0  0  0  0  0  0  0  0
   -1.4968    3.7094    0.5416 N   0  0  0  0  0  0  0  0  0  0  0  0
   -2.6012    4.3037    0.9248 C   0  0  0  0  0  0  0  0  0  0  0  0
   -3.0046    5.2089    0.4797 H   0  0  0  0  0  0  0  0  0  0  0  0
   -3.1715    3.6096    1.9760 N   0  0  0  0  0  0  0  0  0  0  0  0
   -4.0146    3.8884    2.4750 H   0  0  0  0  0  0  0  0  0  0  0  0
   -2.3611    2.5330    2.2696 C   0  0  0  0  0  0  0  0  0  0  0  0
   -2.4761    1.7952    3.0586 H   0  0  0  0  0  0  0  0  0  0  0  0
    1.1169    0.0232   -0.1400 C   0  0  0  0  0  0  0  0  0  0  0  0
    2.0442    0.1054    0.6591 O   0  0  0  0  0  0  0  0  0  0  0  0
    1.3656   -0.5347   -1.3820 N   0  0  0  0  0  0  0  0  0  0  0  0
    0.5617   -0.6711   -1.9857 H   0  0  0  0  0  0  0  0  0  0  0  0
    2.6004   -1.2422   -1.6955 C   0  0  0  0  0  0  0  0  0  0  0  0
    2.7304   -2.0983   -1.0250 H   0  0  0  0  0  0  0  0  0  0  0  0
    2.5754   -1.6081   -2.7261 H   0  0  0  0  0  0  0  0  0  0  0  0
    3.4622   -0.5753   -1.5876 H   0  0  0  0  0  0  0  0  0  0  0  0
  1  2  1  0  0  0  0
  2  3  1  0  0  0  0
  2  4  1  0  0  0  0
  2  5  1  0  0  0  0
  5  6  2  0  0  0  0
  5  7  1  0  0  0  0
  7  8  1  0  0  0  0
  7  9  1  0  0  0  0
  9 10  1  0  0  0  0
  9 11  1  0  0  0  0
  9 22  1  0  0  0  0
 11 12  1  0  0  0  0
 11 13  1  0  0  0  0
 11 14  1  0  0  0  0
 14 15  1  0  0  0  0
 14 20  2  0  0  0  0
 15 16  2  0  0  0  0
 16 17  1  0  0  0  0
 16 18  1  0  0  0  0
 18 19  1  0  0  0  0
 18 20  1  0  0  0  0
 20 21  1  0  0  0  0
 22 23  2  0  0  0  0
 22 24  1  0  0  0  0
 24 25  1  0  0  0  0
 24 26  1  0  0  0  0
 26 27  1  0  0  0  0
 26 28  1  0  0  0  0
 26 29  1  0  0  0  0
M  END
$$$$

  -OEChem-01062216083D

 29 29  0     1  0  0  0  0  0999 V2000
   -2.7904   -3.0173    1.3947 H   0  0  0  0  0  0  0  0  0  0  0  0
   -2.8878   -2.0248    0.9452 C   0  0  0  0  0  0  0  0  0  0  0  0
   -3.5053   -1.4035    1.5978 H   0  0  0  0  0  0  0  0  0  0  0  0
   -3.3793   -2.1256   -0.0254 H   0  0  0  0  0  0  0  0  0  0  0  0
   -1.5187   -1.3935    0.7718 C   0  0  0  0  0  0  0  0  0  0  0  0
   -0.5343   -2.0290    1.0946 O   0  0  0  0  0  0  0  0  0  0  0  0
   -1.4376   -0.1178    0.2448 N   0  0  0  0  0  0  0  0  0  0  0  0
   -2.3301    0.3301    0.0600 H   0  0  0  0  0  0  0  0  0  0  0  0
   -0.2364    0.7325    0.0894 C   0  0  1  0  0  0  0  0  0  0  0  0
   -0.3823    1.3614   -0.7948 H   0  0  0  0  0  0  0  0  0  0  0  0
   -0.1542    1.6590    1.3166 C   0  0  0  0  0  0  0  0  0  0  0  0
   -0.1100    1.0571    2.2299 H   0  0  0  0  0  0  0  0  0  0  0  0
    0.7593    2.2601    1.2720 H   0  0  0  0  0  0  0  0  0  0  0  0
   -1.3281    2.5894    1.3637 C   0  0  0  0  0  0  0  0  0  0  0  0
   -1.4779    3.6938    0.5357 N   0  0  0  0  0  0  0  0  0  0  0  0
   -2.5792    4.2965    0.9155 C   0  0  0  0  0  0  0  0  0  0  0  0
   -2.9749    5.2041    0.4684 H   0  0  0  0  0  0  0  0  0  0  0  0
   -3.1572    3.6074    1.9658 N   0  0  0  0  0  0  0  0  0  0  0  0
   -4.0001    3.8922    2.4619 H   0  0  0  0  0  0  0  0  0  0  0  0
   -2.3557    2.5249    2.2626 C   0  0  0  0  0  0  0  0  0  0  0  0
   -2.4788    1.7875    3.0508 H   0  0  0  0  0  0  0  0  0  0  0  0
    1.1177    0.0028   -0.1328 C   0  0  0  0  0  0  0  0  0  0  0  0
    1.9543   -0.0900    0.7596 O   0  0  0  0  0  0  0  0  0  0  0  0
    1.5158   -0.2791   -1.4286 N   0  0  0  0  0  0  0  0  0  0  0  0
    0.8067   -0.2209   -2.1520 H   0  0  0  0  0  0  0  0  0  0  0  0
    2.7962   -0.8973   -1.7498 C   0  0  0  0  0  0  0  0  0  0  0  0
    2.8925   -1.8629   -1.2423 H   0  0  0  0  0  0  0  0  0  0  0  0
    2.8762   -1.0629   -2.8283 H   0  0  0  0  0  0  0  0  0  0  0  0
    3.6225   -0.2504   -1.4370 H   0  0  0  0  0  0  0  0  0  0  0  0
  1  2  1  0  0  0  0
  2  3  1  0  0  0  0
  2  4  1  0  0  0  0
  2  5  1  0  0  0  0
  5  6  2  0  0  0  0
  5  7  1  0  0  0  0
  7  8  1  0  0  0  0
  7  9  1  0  0  0  0
  9 10  1  0  0  0  0
  9 11  1  0  0  0  0
  9 22  1  0  0  0  0
 11 12  1  0  0  0  0
 11 13  1  0  0  0  0
 11 14  1  0  0  0  0
 14 15  1  0  0  0  0
 14 20  2  0  0  0  0
 15 16  2  0  0  0  0
 16 17  1  0  0  0  0
 16 18  1  0  0  0  0
 18 19  1  0  0  0  0
 18 20  1  0  0  0  0
 20 21  1  0  0  0  0
 22 23  2  0  0  0  0
 22 24  1  0  0  0  0
 24 25  1  0  0  0  0
 24 26  1  0  0  0  0
 26 27  1  0  0  0  0
 26 28  1  0  0  0  0
 26 29  1  0  0  0  0
M  END
$$$$

  -OEChem-01062216083D

 29 29  0     1  0  0  0  0  0999 V2000
   -2.8527   -3.0071    1.4185 H   0  0  0  0  0  0  0  0  0  0  0  0
   -2.9316   -2.0161    0.9620 C   0  0  0  0  0  0  0  0  0  0  0  0
   -3.5329   -1.3772    1.6130 H   0  0  0  0  0  0  0  0  0  0  0  0
   -3.4302   -2.1139   -0.0052 H   0  0  0  0  0  0  0  0  0  0  0  0
   -1.5505   -1.4150    0.7755 C   0  0  0  0  0  0  0  0  0  0  0  0
   -0.5790   -2.0750    1.0851 O   0  0  0  0  0  0  0  0  0  0  0  0
   -1.4501   -0.1440    0.2407 N   0  0  0  0  0  0  0  0  0  0  0  0
   -2.3378    0.3138    0.0585 H   0  0  0  0  0  0  0  0  0  0  0  0
   -0.2428    0.6965    0.0790 C   0  0  1  0  0  0  0  0  0  0  0  0
   -0.3931    1.3239   -0.8053 H   0  0  0  0  0  0  0  0  0  0  0  0
   -0.1483    1.6252    1.3026 C   0  0  0  0  0  0  0  0  0  0  0  0
   -0.1073    1.0252    2.2174 H   0  0  0  0  0  0  0  0  0  0  0  0
    0.7713    2.2166    1.2534 H   0  0  0  0  0  0  0  0  0  0  0  0
   -1.3139    2.5657    1.3525 C   0  0  0  0  0  0  0  0  0  0  0  0
   -1.4568    3.6691    0.5220 N   0  0  0  0  0  0  0  0  0  0  0  0
   -2.5505    4.2832    0.9057 C   0  0  0  0  0  0  0  0  0  0  0  0
   -2.9401    5.1933    0.4582 H   0  0  0  0  0  0  0  0  0  0  0  0
   -3.1299    3.6027    1.9608 N   0  0  0  0  0  0  0  0  0  0  0  0
   -3.9682    3.8965    2.4595 H   0  0  0  0  0  0  0  0  0  0  0  0
   -2.3377    2.5133    2.2566 C   0  0  0  0  0  0  0  0  0  0  0  0
   -2.4641    1.7793    3.0475 H   0  0  0  0  0  0  0  0  0  0  0  0
    1.1170   -0.0244   -0.1382 C   0  0  0  0  0  0  0  0  0  0  0  0
    1.8613   -0.2867    0.8003 O   0  0  0  0  0  0  0  0  0  0  0  0
    1.6682   -0.0328   -1.4089 N   0  0  0  0  0  0  0  0  0  0  0  0
    1.0626    0.2225   -2.1821 H   0  0  0  0  0  0  0  0  0  0  0  0
    3.0056   -0.5361   -1.6990 C   0  0  0  0  0  0  0  0  0  0  0  0
    3.1010   -1.5780   -1.3752 H   0  0  0  0  0  0  0  0  0  0  0  0
    3.2032   -0.4881   -2.7741 H   0  0  0  0  0  0  0  0  0  0  0  0
    3.7611    0.0646   -1.1817 H   0  0  0  0  0  0  0  0  0  0  0  0
  1  2  1  0  0  0  0
  2  3  1  0  0  0  0
  2  4  1  0  0  0  0
  2  5  1  0  0  0  0
  5  6  2  0  0  0  0
  5  7  1  0  0  0  0
  7  8  1  0  0  0  0
  7  9  1  0  0  0  0
  9 10  1  0  0  0  0
  9 11  1  0  0  0  0
  9 22  1  0  0  0  0
 11 12  1  0  0  0  0
 11 13  1  0  0  0  0
 11 14  1  0  0  0  0
 14 15  1  0  0  0  0
 14 20  2  0  0  0  0
 15 16  2  0  0  0  0
 16 17  1  0  0  0  0
 16 18  1  0  0  0  0
 18 19  1  0  0  0  0
 18 20  1  0  0  0  0
 20 21  1  0  0  0  0
 22 23  2  0  0  0  0
 22 24  1  0  0  0  0
 24 25  1  0  0  0  0
 24 26  1  0  0  0  0
 26 27  1  0  0  0  0
 26 28  1  0  0  0  0
 26 29  1  0  0  0  0
M  END
$$$$

  -OEChem-01062216083D

 29 29  0     1  0  0  0  0  0999 V2000
   -2.9195   -3.0105    1.4256 H   0  0  0  0  0  0  0  0  0  0  0  0
   -2.9776   -2.0239    0.9568 C   0  0  0  0  0  0  0  0  0  0  0  0
   -3.5871   -1.3720    1.5866 H   0  0  0  0  0  0  0  0  0  0  0  0
   -3.4540   -2.1278   -0.0209 H   0  0  0  0  0  0  0  0  0  0  0  0
   -1.5863   -1.4392    0.7962 C   0  0  0  0  0  0  0  0  0  0  0  0
   -0.6332   -2.1099    1.1348 O   0  0  0  0  0  0  0  0  0  0  0  0
   -1.4635   -0.1755    0.2484 N   0  0  0  0  0  0  0  0  0  0  0  0
   -2.3458    0.2828    0.0431 H   0  0  0  0  0  0  0  0  0  0  0  0
   -0.2504    0.6546    0.0693 C   0  0  1  0  0  0  0  0  0  0  0  0
   -0.4133    1.2745   -0.8180 H   0  0  0  0  0  0  0  0  0  0  0  0
   -0.1335    1.5913    1.2838 C   0  0  0  0  0  0  0  0  0  0  0  0
   -0.0878    0.9968    2.2019 H   0  0  0  0  0  0  0  0  0  0  0  0
    0.7917    2.1725    1.2204 H   0  0  0  0  0  0  0  0  0  0  0  0
   -1.2888    2.5435    1.3405 C   0  0  0  0  0  0  0  0  0  0  0  0
   -1.4283    3.6416    0.5022 N   0  0  0  0  0  0  0  0  0  0  0  0
   -2.5110    4.2709    0.8928 C   0  0  0  0  0  0  0  0  0  0  0  0
   -2.8963    5.1813    0.4422 H   0  0  0  0  0  0  0  0  0  0  0  0
   -3.0856    3.6059    1.9604 N   0  0  0  0  0  0  0  0  0  0  0  0
   -3.9159    3.9119    2.4649 H   0  0  0  0  0  0  0  0  0  0  0  0
   -2.3020    2.5104    2.2569 C   0  0  0  0  0  0  0  0  0  0  0  0
   -2.4272    1.7842    3.0553 H   0  0  0  0  0  0  0  0  0  0  0  0
    1.1176   -0.0502   -0.1496 C   0  0  0  0  0  0  0  0  0  0  0  0
    1.7767   -0.4831    0.7883 O   0  0  0  0  0  0  0  0  0  0  0  0
    1.8050    0.2034   -1.3257 N   0  0  0  0  0  0  0  0  0  0  0  0
    1.2997    0.6665   -2.0742 H   0  0  0  0  0  0  0  0  0  0  0  0
    3.1913   -0.1896   -1.5505 C   0  0  0  0  0  0  0  0  0  0  0  0
    3.3091   -1.2701   -1.4164 H   0  0  0  0  0  0  0  0  0  0  0  0
    3.4971    0.0677   -2.5690 H   0  0  0  0  0  0  0  0  0  0  0  0
    3.8543    0.3272   -0.8487 H   0  0  0  0  0  0  0  0  0  0  0  0
  1  2  1  0  0  0  0
  2  3  1  0  0  0  0
  2  4  1  0  0  0  0
  2  5  1  0  0  0  0
  5  6  2  0  0  0  0
  5  7  1  0  0  0  0
  7  8  1  0  0  0  0
  7  9  1  0  0  0  0
  9 10  1  0  0  0  0
  9 11  1  0  0  0  0
  9 22  1  0  0  0  0
 11 12  1  0  0  0  0
 11 13  1  0  0  0  0
 11 14  1  0  0  0  0
 14 15  1  0  0  0  0
 14 20  2  0  0  0  0
 15 16  2  0  0  0  0
 16 17  1  0  0  0  0
 16 18  1  0  0  0  0
 18 19  1  0  0  0  0
 18 20  1  0  0  0  0
 20 21  1  0  0  0  0
 22 23  2  0  0  0  0
 22 24  1  0  0  0  0
 24 25  1  0  0  0  0
 24 26  1  0  0  0  0
 26 27  1  0  0  0  0
 26 28  1  0  0  0  0
 26 29  1  0  0  0  0
M  END
$$$$

  -OEChem-01062216083D

 29 29  0     1  0  0  0  0  0999 V2000
   -2.4973   -3.2232    1.2405 H   0  0  0  0  0  0  0  0  0  0  0  0
   -2.5700   -2.3375    0.6031 C   0  0  0  0  0  0  0  0  0  0  0  0
   -3.5902   -1.9502    0.6520 H   0  0  0  0  0  0  0  0  0  0  0  0
   -2.3432   -2.6275   -0.4254 H   0  0  0  0  0  0  0  0  0  0  0  0
   -1.5867   -1.2803    1.0690 C   0  0  0  0  0  0  0  0  0  0  0  0
   -1.0171   -1.4233    2.1365 O   0  0  0  0  0  0  0  0  0  0  0  0
   -1.5580   -0.0531    0.4360 N   0  0  0  0  0  0  0  0  0  0  0  0
   -2.2618    0.0246   -0.2902 H   0  0  0  0  0  0  0  0  0  0  0  0
   -0.3351    0.7411    0.1755 C   0  0  1  0  0  0  0  0  0  0  0  0
   -0.5229    1.3293   -0.7283 H   0  0  0  0  0  0  0  0  0  0  0  0
   -0.1365    1.7148    1.3465 C   0  0  0  0  0  0  0  0  0  0  0  0
   -0.0677    1.1526    2.2835 H   0  0  0  0  0  0  0  0  0  0  0  0
    0.7980    2.2707    1.2246 H   0  0  0  0  0  0  0  0  0  0  0  0
   -1.2646    2.6968    1.4183 C   0  0  0  0  0  0  0  0  0  0  0  0
   -1.4117    3.7667    0.5433 N   0  0  0  0  0  0  0  0  0  0  0  0
   -2.4730    4.4242    0.9483 C   0  0  0  0  0  0  0  0  0  0  0  0
   -2.8617    5.3223    0.4769 H   0  0  0  0  0  0  0  0  0  0  0  0
   -3.0211    3.8092    2.0590 N   0  0  0  0  0  0  0  0  0  0  0  0
   -3.8403    4.1343    2.5691 H   0  0  0  0  0  0  0  0  0  0  0  0
   -2.2472    2.7107    2.3664 C   0  0  0  0  0  0  0  0  0  0  0  0
   -2.3641    2.0005    3.1809 H   0  0  0  0  0  0  0  0  0  0  0  0
    1.0155    0.0061   -0.0553 C   0  0  0  0  0  0  0  0  0  0  0  0
    1.3837   -0.9779    0.5673 O   0  0  0  0  0  0  0  0  0  0  0  0
    1.8154    0.4331   -1.1022 N   0  0  0  0  0  0  0  0  0  0  0  0
    1.5331    1.2763   -1.5933 H   0  0  0  0  0  0  0  0  0  0  0  0
    3.0934   -0.1819   -1.4428 C   0  0  0  0  0  0  0  0  0  0  0  0
    2.9482   -1.2257   -1.7401 H   0  0  0  0  0  0  0  0  0  0  0  0
    3.5602    0.3527   -2.2755 H   0  0  0  0  0  0  0  0  0  0  0  0
    3.7752   -0.1505   -0.5863 H   0  0  0  0  0  0  0  0  0  0  0  0
  1  2  1  0  0  0  0
  2  3  1  0  0  0  0
  2  4  1  0  0  0  0
  2  5  1  0  0  0  0
  5  6  2  0  0  0  0
  5  7  1  0  0  0  0
  7  8  1  0  0  0  0
  7  9  1  0  0  0  0
  9 10  1  0  0  0  0
  9 11  1  0  0  0  0
  9 22  1  0  0  0  0
 11 12  1  0  0  0  0
 11 13  1  0  0  0  0
 11 14  1  0  0  0  0
 14 15  1  0  0  0  0
 14 20  2  0  0  0  0
 15 16  2  0  0  0  0
 16 17  1  0  0  0  0
 16 18  1  0  0  0  0
 18 19  1  0  0  0  0
 18 20  1  0  0  0  0
 20 21  1  0  0  0  0
 22 23  2  0  0  0  0
 22 24  1  0  0  0  0
 24 25  1  0  0  0  0
 24 26  1  0  0  0  0
 26 27  1  0  0  0  0
 26 28  1  0  0  0  0
 26 29  1  0  0  0  0
M  END
$$$$

  -OEChem-01062216083D

 29 29  0     1  0  0  0  0  0999 V2000
   -2.4484   -3.2443    1.2471 H   0  0  0  0  0  0  0  0  0  0  0  0
   -2.5560   -2.3475    0.6304 C   0  0  0  0  0  0  0  0  0  0  0  0
   -3.5806   -1.9788    0.7176 H   0  0  0  0  0  0  0  0  0  0  0  0
   -2.3556   -2.6135   -0.4102 H   0  0  0  0  0  0  0  0  0  0  0  0
   -1.5768   -1.2828    1.0878 C   0  0  0  0  0  0  0  0  0  0  0  0
   -0.9922   -1.4169    2.1502 O   0  0  0  0  0  0  0  0  0  0  0  0
   -1.5505   -0.0553    0.4548 N   0  0  0  0  0  0  0  0  0  0  0  0
   -2.2337    0.0108   -0.2920 H   0  0  0  0  0  0  0  0  0  0  0  0
   -0.3187    0.7323    0.2164 C   0  0  1  0  0  0  0  0  0  0  0  0
   -0.4879    1.3161   -0.6940 H   0  0  0  0  0  0  0  0  0  0  0  0
   -0.1430    1.7112    1.3882 C   0  0  0  0  0  0  0  0  0  0  0  0
   -0.0994    1.1532    2.3290 H   0  0  0  0  0  0  0  0  0  0  0  0
    0.7952    2.2645    1.2882 H   0  0  0  0  0  0  0  0  0  0  0  0
   -1.2687    2.6975    1.4294 C   0  0  0  0  0  0  0  0  0  0  0  0
   -1.3866    3.7622    0.5443 N   0  0  0  0  0  0  0  0  0  0  0  0
   -2.4586    4.4241    0.9122 C   0  0  0  0  0  0  0  0  0  0  0  0
   -2.8320    5.3193    0.4231 H   0  0  0  0  0  0  0  0  0  0  0  0
   -3.0406    3.8178    2.0103 N   0  0  0  0  0  0  0  0  0  0  0  0
   -3.8760    4.1463    2.4914 H   0  0  0  0  0  0  0  0  0  0  0  0
   -2.2791    2.7193    2.3476 C   0  0  0  0  0  0  0  0  0  0  0  0
   -2.4247    2.0123    3.1603 H   0  0  0  0  0  0  0  0  0  0  0  0
    1.0378    0.0007    0.0043 C   0  0  0  0  0  0  0  0  0  0  0  0
    1.2193   -1.1859    0.2376 O   0  0  0  0  0  0  0  0  0  0  0  0
    1.9780    0.6256   -0.7990 N   0  0  0  0  0  0  0  0  0  0  0  0
    1.8108    1.5977   -1.0434 H   0  0  0  0  0  0  0  0  0  0  0  0
    3.2258    0.0008   -1.2236 C   0  0  0  0  0  0  0  0  0  0  0  0
    3.0224   -0.8782   -1.8441 H   0  0  0  0  0  0  0  0  0  0  0  0
    3.8211    0.7071   -1.8101 H   0  0  0  0  0  0  0  0  0  0  0  0
    3.8147   -0.3091   -0.3539 H   0  0  0  0  0  0  0  0  0  0  0  0
  1  2  1  0  0  0  0
  2  3  1  0  0  0  0
  2  4  1  0  0  0  0
  2  5  1  0  0  0  0
  5  6  2  0  0  0  0
  5  7  1  0  0  0  0
  7  8  1  0  0  0  0
  7  9  1  0  0  0  0
  9 10  1  0  0  0  0
  9 11  1  0  0  0  0
  9 22  1  0  0  0  0
 11 12  1  0  0  0  0
 11 13  1  0  0  0  0
 11 14  1  0  0  0  0
 14 15  1  0  0  0  0
 14 20  2  0  0  0  0
 15 16  2  0  0  0  0
 16 17  1  0  0  0  0
 16 18  1  0  0  0  0
 18 19  1  0  0  0  0
 18 20  1  0  0  0  0
 20 21  1  0  0  0  0
 22 23  2  0  0  0  0
 22 24  1  0  0  0  0
 24 25  1  0  0  0  0
 24 26  1  0  0  0  0
 26 27  1  0  0  0  0
 26 28  1  0  0  0  0
 26 29  1  0  0  0  0
M  END
$$$$

  -OEChem-01062216083D

 29 29  0     1  0  0  0  0  0999 V2000
   -2.4700   -3.2225    1.2713 H   0  0  0  0  0  0  0  0  0  0  0  0
   -2.5803   -2.3252    0.6558 C   0  0  0  0  0  0  0  0  0  0  0  0
   -3.5921   -1.9326    0.7802 H   0  0  0  0  0  0  0  0  0  0  0  0
   -2.4253   -2.5981   -0.3908 H   0  0  0  0  0  0  0  0  0  0  0  0
   -1.5607   -1.2821    1.0726 C   0  0  0  0  0  0  0  0  0  0  0  0
   -0.9080   -1.4454    2.0913 O   0  0  0  0  0  0  0  0  0  0  0  0
   -1.5381   -0.0505    0.4461 N   0  0  0  0  0  0  0  0  0  0  0  0
   -2.2234    0.0262   -0.2979 H   0  0  0  0  0  0  0  0  0  0  0  0
   -0.3036    0.7377    0.2258 C   0  0  1  0  0  0  0  0  0  0  0  0
   -0.4522    1.3263   -0.6853 H   0  0  0  0  0  0  0  0  0  0  0  0
   -0.1507    1.7092    1.4098 C   0  0  0  0  0  0  0  0  0  0  0  0
   -0.1215    1.1445    2.3470 H   0  0  0  0  0  0  0  0  0  0  0  0
    0.7850    2.2693    1.3326 H   0  0  0  0  0  0  0  0  0  0  0  0
   -1.2804    2.6917    1.4396 C   0  0  0  0  0  0  0  0  0  0  0  0
   -1.3856    3.7625    0.5604 N   0  0  0  0  0  0  0  0  0  0  0  0
   -2.4677    4.4173    0.9112 C   0  0  0  0  0  0  0  0  0  0  0  0
   -2.8357    5.3136    0.4200 H   0  0  0  0  0  0  0  0  0  0  0  0
   -3.0672    3.8016    1.9947 N   0  0  0  0  0  0  0  0  0  0  0  0
   -3.9135    4.1232    2.4612 H   0  0  0  0  0  0  0  0  0  0  0  0
   -2.3074    2.7042    2.3397 C   0  0  0  0  0  0  0  0  0  0  0  0
   -2.4655    1.9923    3.1455 H   0  0  0  0  0  0  0  0  0  0  0  0
    1.0444   -0.0131    0.0262 C   0  0  0  0  0  0  0  0  0  0  0  0
    1.1136   -1.2316   -0.0765 O   0  0  0  0  0  0  0  0  0  0  0  0
    2.1136    0.7073   -0.4822 N   0  0  0  0  0  0  0  0  0  0  0  0
    2.0230    1.7189   -0.5100 H   0  0  0  0  0  0  0  0  0  0  0  0
    3.3630    0.1017   -0.9294 C   0  0  0  0  0  0  0  0  0  0  0  0
    3.1876   -0.5424   -1.7973 H   0  0  0  0  0  0  0  0  0  0  0  0
    4.0784    0.8791   -1.2141 H   0  0  0  0  0  0  0  0  0  0  0  0
    3.8070   -0.4986   -0.1282 H   0  0  0  0  0  0  0  0  0  0  0  0
  1  2  1  0  0  0  0
  2  3  1  0  0  0  0
  2  4  1  0  0  0  0
  2  5  1  0  0  0  0
  5  6  2  0  0  0  0
  5  7  1  0  0  0  0
  7  8  1  0  0  0  0
  7  9  1  0  0  0  0
  9 10  1  0  0  0  0
  9 11  1  0  0  0  0
  9 22  1  0  0  0  0
 11 12  1  0  0  0  0
 11 13  1  0  0  0  0
 11 14  1  0  0  0  0
 14 15  1  0  0  0  0
 14 20  2  0  0  0  0
 15 16  2  0  0  0  0
 16 17  1  0  0  0  0
 16 18  1  0  0  0  0
 18 19  1  0  0  0  0
 18 20  1  0  0  0  0
 20 21  1  0  0  0  0
 22 23  2  0  0  0  0
 22 24  1  0  0  0  0
 24 25  1  0  0  0  0
 24 26  1  0  0  0  0
 26 27  1  0  0  0  0
 26 28  1  0  0  0  0
 26 29  1  0  0  0  0
M  END
$$$$

  -OEChem-01062216083D

 29 29  0     1  0  0  0  0  0999 V2000
   -2.4179   -3.2452    1.1783 H   0  0  0  0  0  0  0  0  0  0  0  0
   -2.5783   -2.3095    0.6354 C   0  0  0  0  0  0  0  0  0  0  0  0
   -3.5512   -1.8998    0.9163 H   0  0  0  0  0  0  0  0  0  0  0  0
   -2.5725   -2.5218   -0.4365 H   0  0  0  0  0  0  0  0  0  0  0  0
   -1.4795   -1.3183    0.9690 C   0  0  0  0  0  0  0  0  0  0  0  0
   -0.6468   -1.6028    1.8159 O   0  0  0  0  0  0  0  0  0  0  0  0
   -1.5027   -0.0579    0.3988 N   0  0  0  0  0  0  0  0  0  0  0  0
   -2.2248    0.0586   -0.3043 H   0  0  0  0  0  0  0  0  0  0  0  0
   -0.2955    0.7773    0.2154 C   0  0  1  0  0  0  0  0  0  0  0  0
   -0.5393    1.5582   -0.5120 H   0  0  0  0  0  0  0  0  0  0  0  0
    0.0608    1.4717    1.5460 C   0  0  0  0  0  0  0  0  0  0  0  0
    0.2246    0.7285    2.3311 H   0  0  0  0  0  0  0  0  0  0  0  0
    0.9841    2.0472    1.4450 H   0  0  0  0  0  0  0  0  0  0  0  0
   -1.0247    2.4184    1.9553 C   0  0  0  0  0  0  0  0  0  0  0  0
   -1.2329    3.6535    1.3544 N   0  0  0  0  0  0  0  0  0  0  0  0
   -2.2297    4.2109    2.0011 C   0  0  0  0  0  0  0  0  0  0  0  0
   -2.6426    5.1903    1.7769 H   0  0  0  0  0  0  0  0  0  0  0  0
   -2.6729    3.3727    3.0077 N   0  0  0  0  0  0  0  0  0  0  0  0
   -3.4283    3.5809    3.6581 H   0  0  0  0  0  0  0  0  0  0  0  0
   -1.9003    2.2310    2.9865 C   0  0  0  0  0  0  0  0  0  0  0  0
   -1.9519    1.3617    3.6365 H   0  0  0  0  0  0  0  0  0  0  0  0
    0.9405    0.0335   -0.3616 C   0  0  0  0  0  0  0  0  0  0  0  0
    0.8202   -1.0519   -0.9202 O   0  0  0  0  0  0  0  0  0  0  0  0
    2.1220    0.7267   -0.5681 N   0  0  0  0  0  0  0  0  0  0  0  0
    2.1890    1.6639   -0.1820 H   0  0  0  0  0  0  0  0  0  0  0  0
    3.2775    0.1649   -1.2577 C   0  0  0  0  0  0  0  0  0  0  0  0
    3.0294   -0.0593   -2.3003 H   0  0  0  0  0  0  0  0  0  0  0  0
    4.1081    0.8770   -1.2446 H   0  0  0  0  0  0  0  0  0  0  0  0
    3.6058   -0.7572   -0.7665 H   0  0  0  0  0  0  0  0  0  0  0  0
  1  2  1  0  0  0  0
  2  3  1  0  0  0  0
  2  4  1  0  0  0  0
  2  5  1  0  0  0  0
  5  6  2  0  0  0  0
  5  7  1  0  0  0  0
  7  8  1  0  0  0  0
  7  9  1  0  0  0  0
  9 10  1  0  0  0  0
  9 11  1  0  0  0  0
  9 22  1  0  0  0  0
 11 12  1  0  0  0  0
 11 13  1  0  0  0  0
 11 14  1  0  0  0  0
 14 15  1  0  0  0  0
 14 20  2  0  0  0  0
 15 16  2  0  0  0  0
 16 17  1  0  0  0  0
 16 18  1  0  0  0  0
 18 19  1  0  0  0  0
 18 20  1  0  0  0  0
 20 21  1  0  0  0  0
 22 23  2  0  0  0  0
 22 24  1  0  0  0  0
 24 25  1  0  0  0  0
 24 26  1  0  0  0  0
 26 27  1  0  0  0  0
 26 28  1  0  0  0  0
 26 29  1  0  0  0  0
M  END
$$$$

  -OEChem-01062216083D

 29 29  0     1  0  0  0  0  0999 V2000
   -2.3921   -3.2277    1.1822 H   0  0  0  0  0  0  0  0  0  0  0  0
   -2.5600   -2.2916    0.6423 C   0  0  0  0  0  0  0  0  0  0  0  0
   -3.5264   -1.8792    0.9416 H   0  0  0  0  0  0  0  0  0  0  0  0
   -2.5758   -2.5038   -0.4296 H   0  0  0  0  0  0  0  0  0  0  0  0
   -1.4521   -1.3032    0.9539 C   0  0  0  0  0  0  0  0  0  0  0  0
   -0.5848   -1.6020    1.7605 O   0  0  0  0  0  0  0  0  0  0  0  0
   -1.4912   -0.0383    0.3956 N   0  0  0  0  0  0  0  0  0  0  0  0
   -2.2222    0.0834   -0.2975 H   0  0  0  0  0  0  0  0  0  0  0  0
   -0.2924    0.8087    0.2158 C   0  0  1  0  0  0  0  0  0  0  0  0
   -0.5362    1.5930   -0.5083 H   0  0  0  0  0  0  0  0  0  0  0  0
    0.0534    1.4977    1.5527 C   0  0  0  0  0  0  0  0  0  0  0  0
    0.2242    0.7510    2.3330 H   0  0  0  0  0  0  0  0  0  0  0  0
    0.9669    2.0890    1.4570 H   0  0  0  0  0  0  0  0  0  0  0  0
   -1.0434    2.4298    1.9653 C   0  0  0  0  0  0  0  0  0  0  0  0
   -1.2644    3.6670    1.3734 N   0  0  0  0  0  0  0  0  0  0  0  0
   -2.2717    4.2065    2.0186 C   0  0  0  0  0  0  0  0  0  0  0  0
   -2.6962    5.1822    1.7993 H   0  0  0  0  0  0  0  0  0  0  0  0
   -2.7093    3.3544    3.0161 N   0  0  0  0  0  0  0  0  0  0  0  0
   -3.4728    3.5467    3.6621 H   0  0  0  0  0  0  0  0  0  0  0  0
   -1.9224    2.2225    2.9897 C   0  0  0  0  0  0  0  0  0  0  0  0
   -1.9681    1.3466    3.6309 H   0  0  0  0  0  0  0  0  0  0  0  0
    0.9306    0.0522   -0.3731 C   0  0  0  0  0  0  0  0  0  0  0  0
    0.7562   -0.9133   -1.1101 O   0  0  0  0  0  0  0  0  0  0  0  0
    2.2021    0.5991   -0.3174 N   0  0  0  0  0  0  0  0  0  0  0  0
    2.3312    1.4259    0.2575 H   0  0  0  0  0  0  0  0  0  0  0  0
    3.3673   -0.0075   -0.9496 C   0  0  0  0  0  0  0  0  0  0  0  0
    3.2339   -0.0526   -2.0355 H   0  0  0  0  0  0  0  0  0  0  0  0
    4.2632    0.5828   -0.7354 H   0  0  0  0  0  0  0  0  0  0  0  0
    3.5232   -1.0230   -0.5705 H   0  0  0  0  0  0  0  0  0  0  0  0
  1  2  1  0  0  0  0
  2  3  1  0  0  0  0
  2  4  1  0  0  0  0
  2  5  1  0  0  0  0
  5  6  2  0  0  0  0
  5  7  1  0  0  0  0
  7  8  1  0  0  0  0
  7  9  1  0  0  0  0
  9 10  1  0  0  0  0
  9 11  1  0  0  0  0
  9 22  1  0  0  0  0
 11 12  1  0  0  0  0
 11 13  1  0  0  0  0
 11 14  1  0  0  0  0
 14 15  1  0  0  0  0
 14 20  2  0  0  0  0
 15 16  2  0  0  0  0
 16 17  1  0  0  0  0
 16 18  1  0  0  0  0
 18 19  1  0  0  0  0
 18 20  1  0  0  0  0
 20 21  1  0  0  0  0
 22 23  2  0  0  0  0
 22 24  1  0  0  0  0
 24 25  1  0  0  0  0
 24 26  1  0  0  0  0
 26 27  1  0  0  0  0
 26 28  1  0  0  0  0
 26 29  1  0  0  0  0
M  END
$$$$

  -OEChem-01062216083D

 29 29  0     1  0  0  0  0  0999 V2000
   -2.3226   -3.2388    1.1266 H   0  0  0  0  0  0  0  0  0  0  0  0
   -2.5356   -2.2813    0.6427 C   0  0  0  0  0  0  0  0  0  0  0  0
   -3.4851   -1.8962    1.0217 H   0  0  0  0  0  0  0  0  0  0  0  0
   -2.6176   -2.4443   -0.4349 H   0  0  0  0  0  0  0  0  0  0  0  0
   -1.4218   -1.2925    0.9304 C   0  0  0  0  0  0  0  0  0  0  0  0
   -0.5230   -1.6002    1.6982 O   0  0  0  0  0  0  0  0  0  0  0  0
   -1.4789   -0.0233    0.3848 N   0  0  0  0  0  0  0  0  0  0  0  0
   -2.2244    0.1079   -0.2913 H   0  0  0  0  0  0  0  0  0  0  0  0
   -0.2917    0.8391    0.2101 C   0  0  1  0  0  0  0  0  0  0  0  0
   -0.5404    1.6237   -0.5118 H   0  0  0  0  0  0  0  0  0  0  0  0
    0.0466    1.5281    1.5490 C   0  0  0  0  0  0  0  0  0  0  0  0
    0.2273    0.7807    2.3267 H   0  0  0  0  0  0  0  0  0  0  0  0
    0.9513    2.1330    1.4501 H   0  0  0  0  0  0  0  0  0  0  0  0
   -1.0618    2.4455    1.9656 C   0  0  0  0  0  0  0  0  0  0  0  0
   -1.3013    3.6818    1.3797 N   0  0  0  0  0  0  0  0  0  0  0  0
   -2.3142    4.2050    2.0293 C   0  0  0  0  0  0  0  0  0  0  0  0
   -2.7537    5.1750    1.8148 H   0  0  0  0  0  0  0  0  0  0  0  0
   -2.7367    3.3439    3.0254 N   0  0  0  0  0  0  0  0  0  0  0  0
   -3.4984    3.5255    3.6766 H   0  0  0  0  0  0  0  0  0  0  0  0
   -1.9343    2.2232    2.9928 C   0  0  0  0  0  0  0  0  0  0  0  0
   -1.9657    1.3458    3.6330 H   0  0  0  0  0  0  0  0  0  0  0  0
    0.9242    0.0800   -0.3897 C   0  0  0  0  0  0  0  0  0  0  0  0
    0.7349   -0.7469   -1.2763 O   0  0  0  0  0  0  0  0  0  0  0  0
    2.2295    0.4370   -0.0946 N   0  0  0  0  0  0  0  0  0  0  0  0
    2.3692    1.0878    0.6715 H   0  0  0  0  0  0  0  0  0  0  0  0
    3.3897   -0.2510   -0.6472 C   0  0  0  0  0  0  0  0  0  0  0  0
    3.3933   -0.1802   -1.7399 H   0  0  0  0  0  0  0  0  0  0  0  0
    4.3119    0.2010   -0.2698 H   0  0  0  0  0  0  0  0  0  0  0  0
    3.3789   -1.3082   -0.3615 H   0  0  0  0  0  0  0  0  0  0  0  0
  1  2  1  0  0  0  0
  2  3  1  0  0  0  0
  2  4  1  0  0  0  0
  2  5  1  0  0  0  0
  5  6  2  0  0  0  0
  5  7  1  0  0  0  0
  7  8  1  0  0  0  0
  7  9  1  0  0  0  0
  9 10  1  0  0  0  0
  9 11  1  0  0  0  0
  9 22  1  0  0  0  0
 11 12  1  0  0  0  0
 11 13  1  0  0  0  0
 11 14  1  0  0  0  0
 14 15  1  0  0  0  0
 14 20  2  0  0  0  0
 15 16  2  0  0  0  0
 16 17  1  0  0  0  0
 16 18  1  0  0  0  0
 18 19  1  0  0  0  0
 18 20  1  0  0  0  0
 20 21  1  0  0  0  0
 22 23  2  0  0  0  0
 22 24  1  0  0  0  0
 24 25  1  0  0  0  0
 24 26  1  0  0  0  0
 26 27  1  0  0  0  0
 26 28  1  0  0  0  0
 26 29  1  0  0  0  0
M  END
$$$$

  -OEChem-01062216083D

 29 29  0     1  0  0  0  0  0999 V2000
   -2.3062   -3.2312    1.1264 H   0  0  0  0  0  0  0  0  0  0  0  0
   -2.5239   -2.2723    0.6479 C   0  0  0  0  0  0  0  0  0  0  0  0
   -3.4638   -1.8834    1.0464 H   0  0  0  0  0  0  0  0  0  0  0  0
   -2.6289   -2.4337   -0.4277 H   0  0  0  0  0  0  0  0  0  0  0  0
   -1.4003   -1.2890    0.9143 C   0  0  0  0  0  0  0  0  0  0  0  0
   -0.4805   -1.6062    1.6531 O   0  0  0  0  0  0  0  0  0  0  0  0
   -1.4656   -0.0169    0.3777 N   0  0  0  0  0  0  0  0  0  0  0  0
   -2.2226    0.1255   -0.2836 H   0  0  0  0  0  0  0  0  0  0  0  0
   -0.2862    0.8556    0.2097 C   0  0  1  0  0  0  0  0  0  0  0  0
   -0.5386    1.6413   -0.5104 H   0  0  0  0  0  0  0  0  0  0  0  0
    0.0459    1.5442    1.5491 C   0  0  0  0  0  0  0  0  0  0  0  0
    0.2305    0.7971    2.3262 H   0  0  0  0  0  0  0  0  0  0  0  0
    0.9475    2.1544    1.4476 H   0  0  0  0  0  0  0  0  0  0  0  0
   -1.0705    2.4518    1.9659 C   0  0  0  0  0  0  0  0  0  0  0  0
   -1.3189    3.6869    1.3814 N   0  0  0  0  0  0  0  0  0  0  0  0
   -2.3359    4.2028    2.0299 C   0  0  0  0  0  0  0  0  0  0  0  0
   -2.7805    5.1707    1.8159 H   0  0  0  0  0  0  0  0  0  0  0  0
   -2.7534    3.3369    3.0241 N   0  0  0  0  0  0  0  0  0  0  0  0
   -3.5176    3.5122    3.6739 H   0  0  0  0  0  0  0  0  0  0  0  0
   -1.9424    2.2222    2.9920 C   0  0  0  0  0  0  0  0  0  0  0  0
   -1.9682    1.3447    3.6321 H   0  0  0  0  0  0  0  0  0  0  0  0
    0.9286    0.1012   -0.3937 C   0  0  0  0  0  0  0  0  0  0  0  0
    0.7618   -0.5663   -1.4092 O   0  0  0  0  0  0  0  0  0  0  0  0
    2.2110    0.2370    0.1112 N   0  0  0  0  0  0  0  0  0  0  0  0
    2.2968    0.6860    1.0176 H   0  0  0  0  0  0  0  0  0  0  0  0
    3.3468   -0.5217   -0.3972 C   0  0  0  0  0  0  0  0  0  0  0  0
    3.5012   -0.3160   -1.4616 H   0  0  0  0  0  0  0  0  0  0  0  0
    4.2574   -0.2441    0.1420 H   0  0  0  0  0  0  0  0  0  0  0  0
    3.1782   -1.5957   -0.2658 H   0  0  0  0  0  0  0  0  0  0  0  0
  1  2  1  0  0  0  0
  2  3  1  0  0  0  0
  2  4  1  0  0  0  0
  2  5  1  0  0  0  0
  5  6  2  0  0  0  0
  5  7  1  0  0  0  0
  7  8  1  0  0  0  0
  7  9  1  0  0  0  0
  9 10  1  0  0  0  0
  9 11  1  0  0  0  0
  9 22  1  0  0  0  0
 11 12  1  0  0  0  0
 11 13  1  0  0  0  0
 11 14  1  0  0  0  0
 14 15  1  0  0  0  0
 14 20  2  0  0  0  0
 15 16  2  0  0  0  0
 16 17  1  0  0  0  0
 16 18  1  0  0  0  0
 18 19  1  0  0  0  0
 18 20  1  0  0  0  0
 20 21  1  0  0  0  0
 22 23  2  0  0  0  0
 22 24  1  0  0  0  0
 24 25  1  0  0  0  0
 24 26  1  0  0  0  0
 26 27  1  0  0  0  0
 26 28  1  0  0  0  0
 26 29  1  0  0  0  0
M  END
$$$$

  -OEChem-01062216083D

 29 29  0     1  0  0  0  0  0999 V2000
   -2.2886   -3.2411    1.1036 H   0  0  0  0  0  0  0  0  0  0  0  0
   -2.5213   -2.2723    0.6525 C   0  0  0  0  0  0  0  0  0  0  0  0
   -3.4489   -1.8932    1.0876 H   0  0  0  0  0  0  0  0  0  0  0  0
   -2.6595   -2.4110   -0.4226 H   0  0  0  0  0  0  0  0  0  0  0  0
   -1.3908   -1.2934    0.9065 C   0  0  0  0  0  0  0  0  0  0  0  0
   -0.4614   -1.6152    1.6313 O   0  0  0  0  0  0  0  0  0  0  0  0
   -1.4562   -0.0212    0.3711 N   0  0  0  0  0  0  0  0  0  0  0  0
   -2.2203    0.1302   -0.2802 H   0  0  0  0  0  0  0  0  0  0  0  0
   -0.2815    0.8573    0.2104 C   0  0  1  0  0  0  0  0  0  0  0  0
   -0.5350    1.6407   -0.5120 H   0  0  0  0  0  0  0  0  0  0  0  0
    0.0444    1.5518    1.5475 C   0  0  0  0  0  0  0  0  0  0  0  0
    0.2263    0.8080    2.3284 H   0  0  0  0  0  0  0  0  0  0  0  0
    0.9483    2.1588    1.4427 H   0  0  0  0  0  0  0  0  0  0  0  0
   -1.0746    2.4579    1.9619 C   0  0  0  0  0  0  0  0  0  0  0  0
   -1.3265    3.6908    1.3750 N   0  0  0  0  0  0  0  0  0  0  0  0
   -2.3429    4.2072    2.0240 C   0  0  0  0  0  0  0  0  0  0  0  0
   -2.7895    5.1736    1.8084 H   0  0  0  0  0  0  0  0  0  0  0  0
   -2.7576    3.3432    3.0209 N   0  0  0  0  0  0  0  0  0  0  0  0
   -3.5198    3.5201    3.6728 H   0  0  0  0  0  0  0  0  0  0  0  0
   -1.9452    2.2294    2.9898 C   0  0  0  0  0  0  0  0  0  0  0  0
   -1.9686    1.3540    3.6328 H   0  0  0  0  0  0  0  0  0  0  0  0
    0.9385    0.1085   -0.3861 C   0  0  0  0  0  0  0  0  0  0  0  0
    0.8358   -0.3735   -1.5087 O   0  0  0  0  0  0  0  0  0  0  0  0
    2.1442    0.0002    0.2862 N   0  0  0  0  0  0  0  0  0  0  0  0
    2.1192    0.2177    1.2779 H   0  0  0  0  0  0  0  0  0  0  0  0
    3.2505   -0.8075   -0.2111 C   0  0  0  0  0  0  0  0  0  0  0  0
    3.5669   -0.4573   -1.1992 H   0  0  0  0  0  0  0  0  0  0  0  0
    4.1051   -0.7363    0.4685 H   0  0  0  0  0  0  0  0  0  0  0  0
    2.9529   -1.8587   -0.2874 H   0  0  0  0  0  0  0  0  0  0  0  0
  1  2  1  0  0  0  0
  2  3  1  0  0  0  0
  2  4  1  0  0  0  0
  2  5  1  0  0  0  0
  5  6  2  0  0  0  0
  5  7  1  0  0  0  0
  7  8  1  0  0  0  0
  7  9  1  0  0  0  0
  9 10  1  0  0  0  0
  9 11  1  0  0  0  0
  9 22  1  0  0  0  0
 11 12  1  0  0  0  0
 11 13  1  0  0  0  0
 11 14  1  0  0  0  0
 14 15  1  0  0  0  0
 14 20  2  0  0  0  0
 15 16  2  0  0  0  0
 16 17  1  0  0  0  0
 16 18  1  0  0  0  0
 18 19  1  0  0  0  0
 18 20  1  0  0  0  0
 20 21  1  0  0  0  0
 22 23  2  0  0  0  0
 22 24  1  0  0  0  0
 24 25  1  0  0  0  0
 24 26  1  0  0  0  0
 26 27  1  0  0  0  0
 26 28  1  0  0  0  0
 26 29  1  0  0  0  0
M  END
$$$$

  -OEChem-01062216083D

 29 29  0     1  0  0  0  0  0999 V2000
   -2.3394   -3.2292    1.1239 H   0  0  0  0  0  0  0  0  0  0  0  0
   -2.5614   -2.2551    0.6793 C   0  0  0  0  0  0  0  0  0  0  0  0
   -3.4668   -1.8539    1.1407 H   0  0  0  0  0  0  0  0  0  0  0  0
   -2.7337   -2.3901   -0.3913 H   0  0  0  0  0  0  0  0  0  0  0  0
   -1.4011   -1.3037    0.9009 C   0  0  0  0  0  0  0  0  0  0  0  0
   -0.4636   -1.6442    1.6067 O   0  0  0  0  0  0  0  0  0  0  0  0
   -1.4482   -0.0325    0.3618 N   0  0  0  0  0  0  0  0  0  0  0  0
   -2.2293    0.1465   -0.2621 H   0  0  0  0  0  0  0  0  0  0  0  0
   -0.2715    0.8441    0.2057 C   0  0  1  0  0  0  0  0  0  0  0  0
   -0.5218    1.6272   -0.5186 H   0  0  0  0  0  0  0  0  0  0  0  0
    0.0500    1.5379    1.5435 C   0  0  0  0  0  0  0  0  0  0  0  0
    0.2240    0.7947    2.3267 H   0  0  0  0  0  0  0  0  0  0  0  0
    0.9590    2.1385    1.4420 H   0  0  0  0  0  0  0  0  0  0  0  0
   -1.0696    2.4457    1.9523 C   0  0  0  0  0  0  0  0  0  0  0  0
   -1.3184    3.6788    1.3646 N   0  0  0  0  0  0  0  0  0  0  0  0
   -2.3354    4.1974    2.0104 C   0  0  0  0  0  0  0  0  0  0  0  0
   -2.7782    5.1654    1.7938 H   0  0  0  0  0  0  0  0  0  0  0  0
   -2.7552    3.3339    3.0056 N   0  0  0  0  0  0  0  0  0  0  0  0
   -3.5166    3.5139    3.6574 H   0  0  0  0  0  0  0  0  0  0  0  0
   -1.9444    2.2188    2.9772 C   0  0  0  0  0  0  0  0  0  0  0  0
   -1.9706    1.3446    3.6215 H   0  0  0  0  0  0  0  0  0  0  0  0
    0.9574    0.1032   -0.3785 C   0  0  0  0  0  0  0  0  0  0  0  0
    0.9708   -0.1576   -1.5758 O   0  0  0  0  0  0  0  0  0  0  0  0
    2.0374   -0.2584    0.4076 N   0  0  0  0  0  0  0  0  0  0  0  0
    1.8448   -0.2941    1.4057 H   0  0  0  0  0  0  0  0  0  0  0  0
    3.1328   -1.0741   -0.0998 C   0  0  0  0  0  0  0  0  0  0  0  0
    3.6098   -0.5875   -0.9571 H   0  0  0  0  0  0  0  0  0  0  0  0
    3.8883   -1.2153    0.6788 H   0  0  0  0  0  0  0  0  0  0  0  0
    2.7648   -2.0572   -0.4115 H   0  0  0  0  0  0  0  0  0  0  0  0
  1  2  1  0  0  0  0
  2  3  1  0  0  0  0
  2  4  1  0  0  0  0
  2  5  1  0  0  0  0
  5  6  2  0  0  0  0
  5  7  1  0  0  0  0
  7  8  1  0  0  0  0
  7  9  1  0  0  0  0
  9 10  1  0  0  0  0
  9 11  1  0  0  0  0
  9 22  1  0  0  0  0
 11 12  1  0  0  0  0
 11 13  1  0  0  0  0
 11 14  1  0  0  0  0
 14 15  1  0  0  0  0
 14 20  2  0  0  0  0
 15 16  2  0  0  0  0
 16 17  1  0  0  0  0
 16 18  1  0  0  0  0
 18 19  1  0  0  0  0
 18 20  1  0  0  0  0
 20 21  1  0  0  0  0
 22 23  2  0  0  0  0
 22 24  1  0  0  0  0
 24 25  1  0  0  0  0
 24 26  1  0  0  0  0
 26 27  1  0  0  0  0
 26 28  1  0  0  0  0
 26 29  1  0  0  0  0
M  END
$$$$

  -OEChem-01062216083D

 29 29  0     1  0  0  0  0  0999 V2000
   -2.4302   -3.2194    1.1524 H   0  0  0  0  0  0  0  0  0  0  0  0
   -2.6286   -2.2421    0.7032 C   0  0  0  0  0  0  0  0  0  0  0  0
   -3.5172   -1.8122    1.1716 H   0  0  0  0  0  0  0  0  0  0  0  0
   -2.8165   -2.3792   -0.3645 H   0  0  0  0  0  0  0  0  0  0  0  0
   -1.4395   -1.3223    0.9054 C   0  0  0  0  0  0  0  0  0  0  0  0
   -0.5081   -1.6824    1.6095 O   0  0  0  0  0  0  0  0  0  0  0  0
   -1.4567   -0.0549    0.3561 N   0  0  0  0  0  0  0  0  0  0  0  0
   -2.2514    0.1514   -0.2420 H   0  0  0  0  0  0  0  0  0  0  0  0
   -0.2740    0.8145    0.1971 C   0  0  1  0  0  0  0  0  0  0  0  0
   -0.5244    1.5968   -0.5282 H   0  0  0  0  0  0  0  0  0  0  0  0
    0.0533    1.5097    1.5317 C   0  0  0  0  0  0  0  0  0  0  0  0
    0.2240    0.7675    2.3165 H   0  0  0  0  0  0  0  0  0  0  0  0
    0.9681    2.1010    1.4268 H   0  0  0  0  0  0  0  0  0  0  0  0
   -1.0592    2.4263    1.9404 C   0  0  0  0  0  0  0  0  0  0  0  0
   -1.3009    3.6595    1.3504 N   0  0  0  0  0  0  0  0  0  0  0  0
   -2.3112    4.1881    1.9983 C   0  0  0  0  0  0  0  0  0  0  0  0
   -2.7471    5.1591    1.7808 H   0  0  0  0  0  0  0  0  0  0  0  0
   -2.7343    3.3306    2.9972 N   0  0  0  0  0  0  0  0  0  0  0  0
   -3.4919    3.5183    3.6511 H   0  0  0  0  0  0  0  0  0  0  0  0
   -1.9317    2.2095    2.9695 C   0  0  0  0  0  0  0  0  0  0  0  0
   -1.9607    1.3389    3.6184 H   0  0  0  0  0  0  0  0  0  0  0  0
    0.9676    0.0842   -0.3723 C   0  0  0  0  0  0  0  0  0  0  0  0
    1.1390    0.0662   -1.5849 O   0  0  0  0  0  0  0  0  0  0  0  0
    1.8926   -0.5277    0.4544 N   0  0  0  0  0  0  0  0  0  0  0  0
    1.5224   -0.7814    1.3707 H   0  0  0  0  0  0  0  0  0  0  0  0
    3.0025   -1.3160   -0.0653 C   0  0  0  0  0  0  0  0  0  0  0  0
    3.6338   -0.7055   -0.7195 H   0  0  0  0  0  0  0  0  0  0  0  0
    3.6194   -1.6864    0.7590 H   0  0  0  0  0  0  0  0  0  0  0  0
    2.6296   -2.1739   -0.6343 H   0  0  0  0  0  0  0  0  0  0  0  0
  1  2  1  0  0  0  0
  2  3  1  0  0  0  0
  2  4  1  0  0  0  0
  2  5  1  0  0  0  0
  5  6  2  0  0  0  0
  5  7  1  0  0  0  0
  7  8  1  0  0  0  0
  7  9  1  0  0  0  0
  9 10  1  0  0  0  0
  9 11  1  0  0  0  0
  9 22  1  0  0  0  0
 11 12  1  0  0  0  0
 11 13  1  0  0  0  0
 11 14  1  0  0  0  0
 14 15  1  0  0  0  0
 14 20  2  0  0  0  0
 15 16  2  0  0  0  0
 16 17  1  0  0  0  0
 16 18  1  0  0  0  0
 18 19  1  0  0  0  0
 18 20  1  0  0  0  0
 20 21  1  0  0  0  0
 22 23  2  0  0  0  0
 22 24  1  0  0  0  0
 24 25  1  0  0  0  0
 24 26  1  0  0  0  0
 26 27  1  0  0  0  0
 26 28  1  0  0  0  0
 26 29  1  0  0  0  0
M  END
$$$$

  -OEChem-01062216083D

 29 29  0     1  0  0  0  0  0999 V2000
   -2.5752   -3.1822    1.1898 H   0  0  0  0  0  0  0  0  0  0  0  0
   -2.7315   -2.2011    0.7325 C   0  0  0  0  0  0  0  0  0  0  0  0
   -3.5912   -1.7227    1.2079 H   0  0  0  0  0  0  0  0  0  0  0  0
   -2.9412   -2.3393   -0.3309 H   0  0  0  0  0  0  0  0  0  0  0  0
   -1.4964   -1.3389    0.9089 C   0  0  0  0  0  0  0  0  0  0  0  0
   -0.5832   -1.7318    1.6181 O   0  0  0  0  0  0  0  0  0  0  0  0
   -1.4651   -0.0797    0.3427 N   0  0  0  0  0  0  0  0  0  0  0  0
   -2.2731    0.1605   -0.2243 H   0  0  0  0  0  0  0  0  0  0  0  0
   -0.2755    0.7817    0.1734 C   0  0  1  0  0  0  0  0  0  0  0  0
   -0.5265    1.5625   -0.5532 H   0  0  0  0  0  0  0  0  0  0  0  0
    0.0550    1.4731    1.5082 C   0  0  0  0  0  0  0  0  0  0  0  0
    0.2257    0.7273    2.2896 H   0  0  0  0  0  0  0  0  0  0  0  0
    0.9727    2.0599    1.4029 H   0  0  0  0  0  0  0  0  0  0  0  0
   -1.0515    2.3956    1.9217 C   0  0  0  0  0  0  0  0  0  0  0  0
   -1.2923    3.6327    1.3392 N   0  0  0  0  0  0  0  0  0  0  0  0
   -2.2962    4.1621    1.9964 C   0  0  0  0  0  0  0  0  0  0  0  0
   -2.7302    5.1355    1.7864 H   0  0  0  0  0  0  0  0  0  0  0  0
   -2.7160    3.3013    2.9938 N   0  0  0  0  0  0  0  0  0  0  0  0
   -3.4644    3.4916    3.6577 H   0  0  0  0  0  0  0  0  0  0  0  0
   -1.9188    2.1770    2.9550 C   0  0  0  0  0  0  0  0  0  0  0  0
   -1.9461    1.3037    3.6004 H   0  0  0  0  0  0  0  0  0  0  0  0
    0.9869    0.0692   -0.3756 C   0  0  0  0  0  0  0  0  0  0  0  0
    1.3184    0.2635   -1.5384 O   0  0  0  0  0  0  0  0  0  0  0  0
    1.7540   -0.7698    0.4111 N   0  0  0  0  0  0  0  0  0  0  0  0
    1.2709   -1.1276    1.2387 H   0  0  0  0  0  0  0  0  0  0  0  0
    2.8723   -1.5423   -0.1130 C   0  0  0  0  0  0  0  0  0  0  0  0
    3.6188   -0.8802   -0.5640 H   0  0  0  0  0  0  0  0  0  0  0  0
    3.3532   -2.1021    0.6948 H   0  0  0  0  0  0  0  0  0  0  0  0
    2.5253   -2.2520   -0.8711 H   0  0  0  0  0  0  0  0  0  0  0  0
  1  2  1  0  0  0  0
  2  3  1  0  0  0  0
  2  4  1  0  0  0  0
  2  5  1  0  0  0  0
  5  6  2  0  0  0  0
  5  7  1  0  0  0  0
  7  8  1  0  0  0  0
  7  9  1  0  0  0  0
  9 10  1  0  0  0  0
  9 11  1  0  0  0  0
  9 22  1  0  0  0  0
 11 12  1  0  0  0  0
 11 13  1  0  0  0  0
 11 14  1  0  0  0  0
 14 15  1  0  0  0  0
 14 20  2  0  0  0  0
 15 16  2  0  0  0  0
 16 17  1  0  0  0  0
 16 18  1  0  0  0  0
 18 19  1  0  0  0  0
 18 20  1  0  0  0  0
 20 21  1  0  0  0  0
 22 23  2  0  0  0  0
 22 24  1  0  0  0  0
 24 25  1  0  0  0  0
 24 26  1  0  0  0  0
 26 27  1  0  0  0  0
 26 28  1  0  0  0  0
 26 29  1  0  0  0  0
M  END
$$$$

  -OEChem-01062216083D

 29 29  0     1  0  0  0  0  0999 V2000
   -2.7171   -3.1448    1.2467 H   0  0  0  0  0  0  0  0  0  0  0  0
   -2.8290   -2.1757    0.7518 C   0  0  0  0  0  0  0  0  0  0  0  0
   -3.6804   -1.6512    1.1925 H   0  0  0  0  0  0  0  0  0  0  0  0
   -3.0227   -2.3453   -0.3102 H   0  0  0  0  0  0  0  0  0  0  0  0
   -1.5672   -1.3517    0.9240 C   0  0  0  0  0  0  0  0  0  0  0  0
   -0.6757   -1.7675    1.6464 O   0  0  0  0  0  0  0  0  0  0  0  0
   -1.4938   -0.1011    0.3423 N   0  0  0  0  0  0  0  0  0  0  0  0
   -2.3051    0.1600   -0.2106 H   0  0  0  0  0  0  0  0  0  0  0  0
   -0.2934    0.7463    0.1557 C   0  0  1  0  0  0  0  0  0  0  0  0
   -0.5467    1.5267   -0.5709 H   0  0  0  0  0  0  0  0  0  0  0  0
    0.0510    1.4337    1.4881 C   0  0  0  0  0  0  0  0  0  0  0  0
    0.2212    0.6848    2.2667 H   0  0  0  0  0  0  0  0  0  0  0  0
    0.9735    2.0123    1.3775 H   0  0  0  0  0  0  0  0  0  0  0  0
   -1.0426    2.3681    1.9094 C   0  0  0  0  0  0  0  0  0  0  0  0
   -1.2744    3.6084    1.3301 N   0  0  0  0  0  0  0  0  0  0  0  0
   -2.2669    4.1489    1.9956 C   0  0  0  0  0  0  0  0  0  0  0  0
   -2.6892    5.1286    1.7907 H   0  0  0  0  0  0  0  0  0  0  0  0
   -2.6911    3.2907    2.9934 N   0  0  0  0  0  0  0  0  0  0  0  0
   -3.4348    3.4873    3.6607 H   0  0  0  0  0  0  0  0  0  0  0  0
   -1.9064    2.1575    2.9473 C   0  0  0  0  0  0  0  0  0  0  0  0
   -1.9397    1.2830    3.5909 H   0  0  0  0  0  0  0  0  0  0  0  0
    0.9825    0.0486   -0.3845 C   0  0  0  0  0  0  0  0  0  0  0  0
    1.4588    0.4314   -1.4454 O   0  0  0  0  0  0  0  0  0  0  0  0
    1.6010   -0.9945    0.2776 N   0  0  0  0  0  0  0  0  0  0  0  0
    1.0730   -1.4001    1.0547 H   0  0  0  0  0  0  0  0  0  0  0  0
    2.7373   -1.7319   -0.2573 C   0  0  0  0  0  0  0  0  0  0  0  0
    3.5766   -1.0558   -0.4511 H   0  0  0  0  0  0  0  0  0  0  0  0
    3.0645   -2.4900    0.4606 H   0  0  0  0  0  0  0  0  0  0  0  0
    2.4634   -2.2324   -1.1916 H   0  0  0  0  0  0  0  0  0  0  0  0
  1  2  1  0  0  0  0
  2  3  1  0  0  0  0
  2  4  1  0  0  0  0
  2  5  1  0  0  0  0
  5  6  2  0  0  0  0
  5  7  1  0  0  0  0
  7  8  1  0  0  0  0
  7  9  1  0  0  0  0
  9 10  1  0  0  0  0
  9 11  1  0  0  0  0
  9 22  1  0  0  0  0
 11 12  1  0  0  0  0
 11 13  1  0  0  0  0
 11 14  1  0  0  0  0
 14 15  1  0  0  0  0
 14 20  2  0  0  0  0
 15 16  2  0  0  0  0
 16 17  1  0  0  0  0
 16 18  1  0  0  0  0
 18 19  1  0  0  0  0
 18 20  1  0  0  0  0
 20 21  1  0  0  0  0
 22 23  2  0  0  0  0
 22 24  1  0  0  0  0
 24 25  1  0  0  0  0
 24 26  1  0  0  0  0
 26 27  1  0  0  0  0
 26 28  1  0  0  0  0
 26 29  1  0  0  0  0
M  END
$$$$

  -OEChem-01062216083D

 29 29  0     1  0  0  0  0  0999 V2000
   -2.8402   -3.1200    1.2748 H   0  0  0  0  0  0  0  0  0  0  0  0
   -2.9321   -2.1452    0.7871 C   0  0  0  0  0  0  0  0  0  0  0  0
   -3.7540   -1.5949    1.2518 H   0  0  0  0  0  0  0  0  0  0  0  0
   -3.1592   -2.3032   -0.2701 H   0  0  0  0  0  0  0  0  0  0  0  0
   -1.6390   -1.3648    0.9287 C   0  0  0  0  0  0  0  0  0  0  0  0
   -0.7481   -1.8089    1.6340 O   0  0  0  0  0  0  0  0  0  0  0  0
   -1.5361   -0.1221    0.3348 N   0  0  0  0  0  0  0  0  0  0  0  0
   -2.3606    0.1699   -0.1820 H   0  0  0  0  0  0  0  0  0  0  0  0
   -0.3266    0.7086    0.1225 C   0  0  1  0  0  0  0  0  0  0  0  0
   -0.5843    1.4881   -0.6034 H   0  0  0  0  0  0  0  0  0  0  0  0
    0.0429    1.3933    1.4489 C   0  0  0  0  0  0  0  0  0  0  0  0
    0.2174    0.6421    2.2247 H   0  0  0  0  0  0  0  0  0  0  0  0
    0.9693    1.9630    1.3250 H   0  0  0  0  0  0  0  0  0  0  0  0
   -1.0335    2.3412    1.8843 C   0  0  0  0  0  0  0  0  0  0  0  0
   -1.2620    3.5844    1.3103 N   0  0  0  0  0  0  0  0  0  0  0  0
   -2.2346    4.1363    1.9951 C   0  0  0  0  0  0  0  0  0  0  0  0
   -2.6493    5.1209    1.7991 H   0  0  0  0  0  0  0  0  0  0  0  0
   -2.6491    3.2829    3.0010 N   0  0  0  0  0  0  0  0  0  0  0  0
   -3.3733    3.4902    3.6863 H   0  0  0  0  0  0  0  0  0  0  0  0
   -1.8780    2.1413    2.9400 C   0  0  0  0  0  0  0  0  0  0  0  0
   -1.9055    1.2693    3.5872 H   0  0  0  0  0  0  0  0  0  0  0  0
    0.9500    0.0149   -0.4260 C   0  0  0  0  0  0  0  0  0  0  0  0
    1.5682    0.5612   -1.3306 O   0  0  0  0  0  0  0  0  0  0  0  0
    1.4235   -1.1941    0.0454 N   0  0  0  0  0  0  0  0  0  0  0  0
    0.8834   -1.6347    0.7941 H   0  0  0  0  0  0  0  0  0  0  0  0
    2.6178   -1.8602   -0.4558 C   0  0  0  0  0  0  0  0  0  0  0  0
    3.4912   -1.2067   -0.3593 H   0  0  0  0  0  0  0  0  0  0  0  0
    2.8063   -2.7741    0.1155 H   0  0  0  0  0  0  0  0  0  0  0  0
    2.4913   -2.1285   -1.5097 H   0  0  0  0  0  0  0  0  0  0  0  0
  1  2  1  0  0  0  0
  2  3  1  0  0  0  0
  2  4  1  0  0  0  0
  2  5  1  0  0  0  0
  5  6  2  0  0  0  0
  5  7  1  0  0  0  0
  7  8  1  0  0  0  0
  7  9  1  0  0  0  0
  9 10  1  0  0  0  0
  9 11  1  0  0  0  0
  9 22  1  0  0  0  0
 11 12  1  0  0  0  0
 11 13  1  0  0  0  0
 11 14  1  0  0  0  0
 14 15  1  0  0  0  0
 14 20  2  0  0  0  0
 15 16  2  0  0  0  0
 16 17  1  0  0  0  0
 16 18  1  0  0  0  0
 18 19  1  0  0  0  0
 18 20  1  0  0  0  0
 20 21  1  0  0  0  0
 22 23  2  0  0  0  0
 22 24  1  0  0  0  0
 24 25  1  0  0  0  0
 24 26  1  0  0  0  0
 26 27  1  0  0  0  0
 26 28  1  0  0  0  0
 26 29  1  0  0  0  0
M  END
$$$$

  -OEChem-01062216083D

 29 29  0     1  0  0  0  0  0999 V2000
   -2.9474   -3.0734    1.2517 H   0  0  0  0  0  0  0  0  0  0  0  0
   -3.0090   -2.0962    0.7640 C   0  0  0  0  0  0  0  0  0  0  0  0
   -3.7956   -1.5109    1.2464 H   0  0  0  0  0  0  0  0  0  0  0  0
   -3.2675   -2.2453   -0.2872 H   0  0  0  0  0  0  0  0  0  0  0  0
   -1.6812   -1.3705    0.8740 C   0  0  0  0  0  0  0  0  0  0  0  0
   -0.7819   -1.8678    1.5310 O   0  0  0  0  0  0  0  0  0  0  0  0
   -1.5509   -0.1191    0.3046 N   0  0  0  0  0  0  0  0  0  0  0  0
   -2.3826    0.2202   -0.1702 H   0  0  0  0  0  0  0  0  0  0  0  0
   -0.3284    0.6980    0.1109 C   0  0  1  0  0  0  0  0  0  0  0  0
   -0.5746    1.4928   -0.6022 H   0  0  0  0  0  0  0  0  0  0  0  0
    0.0341    1.3536    1.4544 C   0  0  0  0  0  0  0  0  0  0  0  0
    0.1907    0.5846    2.2166 H   0  0  0  0  0  0  0  0  0  0  0  0
    0.9686    1.9148    1.3533 H   0  0  0  0  0  0  0  0  0  0  0  0
   -1.0369    2.3066    1.8945 C   0  0  0  0  0  0  0  0  0  0  0  0
   -1.2423    3.5624    1.3390 N   0  0  0  0  0  0  0  0  0  0  0  0
   -2.2177    4.1152    2.0192 C   0  0  0  0  0  0  0  0  0  0  0  0
   -2.6180    5.1078    1.8335 H   0  0  0  0  0  0  0  0  0  0  0  0
   -2.6567    3.2504    3.0047 N   0  0  0  0  0  0  0  0  0  0  0  0
   -3.3882    3.4552    3.6828 H   0  0  0  0  0  0  0  0  0  0  0  0
   -1.8993    2.1001    2.9349 C   0  0  0  0  0  0  0  0  0  0  0  0
   -1.9472    1.2181    3.5671 H   0  0  0  0  0  0  0  0  0  0  0  0
    0.9509    0.0138   -0.4462 C   0  0  0  0  0  0  0  0  0  0  0  0
    1.7103    0.6814   -1.1367 O   0  0  0  0  0  0  0  0  0  0  0  0
    1.2697   -1.3140   -0.2362 N   0  0  0  0  0  0  0  0  0  0  0  0
    0.7010   -1.8058    0.4565 H   0  0  0  0  0  0  0  0  0  0  0  0
    2.5023   -1.9372   -0.6995 C   0  0  0  0  0  0  0  0  0  0  0  0
    3.3717   -1.4575   -0.2380 H   0  0  0  0  0  0  0  0  0  0  0  0
    2.5094   -2.9987   -0.4347 H   0  0  0  0  0  0  0  0  0  0  0  0
    2.5883   -1.8532   -1.7878 H   0  0  0  0  0  0  0  0  0  0  0  0
  1  2  1  0  0  0  0
  2  3  1  0  0  0  0
  2  4  1  0  0  0  0
  2  5  1  0  0  0  0
  5  6  2  0  0  0  0
  5  7  1  0  0  0  0
  7  8  1  0  0  0  0
  7  9  1  0  0  0  0
  9 10  1  0  0  0  0
  9 11  1  0  0  0  0
  9 22  1  0  0  0  0
 11 12  1  0  0  0  0
 11 13  1  0  0  0  0
 11 14  1  0  0  0  0
 14 15  1  0  0  0  0
 14 20  2  0  0  0  0
 15 16  2  0  0  0  0
 16 17  1  0  0  0  0
 16 18  1  0  0  0  0
 18 19  1  0  0  0  0
 18 20  1  0  0  0  0
 20 21  1  0  0  0  0
 22 23  2  0  0  0  0
 22 24  1  0  0  0  0
 24 25  1  0  0  0  0
 24 26  1  0  0  0  0
 26 27  1  0  0  0  0
 26 28  1  0  0  0  0
 26 29  1  0  0  0  0
M  END
$$$$

  -OEChem-01062216083D

 29 29  0     1  0  0  0  0  0999 V2000
   -2.9475   -3.0465    1.3678 H   0  0  0  0  0  0  0  0  0  0  0  0
   -3.0268   -2.0688    0.8837 C   0  0  0  0  0  0  0  0  0  0  0  0
   -3.7582   -1.4656    1.4272 H   0  0  0  0  0  0  0  0  0  0  0  0
   -3.3735   -2.2130   -0.1427 H   0  0  0  0  0  0  0  0  0  0  0  0
   -1.6786   -1.3729    0.8836 C   0  0  0  0  0  0  0  0  0  0  0  0
   -0.7349   -1.8983    1.4491 O   0  0  0  0  0  0  0  0  0  0  0  0
   -1.5639   -0.1276    0.2981 N   0  0  0  0  0  0  0  0  0  0  0  0
   -2.4238    0.2408   -0.0982 H   0  0  0  0  0  0  0  0  0  0  0  0
   -0.3483    0.6909    0.0675 C   0  0  1  0  0  0  0  0  0  0  0  0
   -0.6114    1.4779   -0.6481 H   0  0  0  0  0  0  0  0  0  0  0  0
    0.0339    1.3563    1.4019 C   0  0  0  0  0  0  0  0  0  0  0  0
    0.2072    0.5912    2.1645 H   0  0  0  0  0  0  0  0  0  0  0  0
    0.9638    1.9217    1.2844 H   0  0  0  0  0  0  0  0  0  0  0  0
   -1.0330    2.3073    1.8569 C   0  0  0  0  0  0  0  0  0  0  0  0
   -1.2568    3.5603    1.3016 N   0  0  0  0  0  0  0  0  0  0  0  0
   -2.2171    4.1126    2.0032 C   0  0  0  0  0  0  0  0  0  0  0  0
   -2.6238    5.1040    1.8245 H   0  0  0  0  0  0  0  0  0  0  0  0
   -2.6304    3.2494    3.0011 N   0  0  0  0  0  0  0  0  0  0  0  0
   -3.3445    3.4553    3.6974 H   0  0  0  0  0  0  0  0  0  0  0  0
   -1.8702    2.1018    2.9179 C   0  0  0  0  0  0  0  0  0  0  0  0
   -1.8978    1.2235    3.5563 H   0  0  0  0  0  0  0  0  0  0  0  0
    0.9243    0.0090   -0.5111 C   0  0  0  0  0  0  0  0  0  0  0  0
    1.7808    0.7191   -1.0232 O   0  0  0  0  0  0  0  0  0  0  0  0
    1.1123   -1.3600   -0.5528 N   0  0  0  0  0  0  0  0  0  0  0  0
    0.5165   -1.8953    0.0813 H   0  0  0  0  0  0  0  0  0  0  0  0
    2.3429   -1.9830   -1.0240 C   0  0  0  0  0  0  0  0  0  0  0  0
    3.1940   -1.6619   -0.4149 H   0  0  0  0  0  0  0  0  0  0  0  0
    2.2610   -3.0722   -0.9595 H   0  0  0  0  0  0  0  0  0  0  0  0
    2.5342   -1.7134   -2.0678 H   0  0  0  0  0  0  0  0  0  0  0  0
  1  2  1  0  0  0  0
  2  3  1  0  0  0  0
  2  4  1  0  0  0  0
  2  5  1  0  0  0  0
  5  6  2  0  0  0  0
  5  7  1  0  0  0  0
  7  8  1  0  0  0  0
  7  9  1  0  0  0  0
  9 10  1  0  0  0  0
  9 11  1  0  0  0  0
  9 22  1  0  0  0  0
 11 12  1  0  0  0  0
 11 13  1  0  0  0  0
 11 14  1  0  0  0  0
 14 15  1  0  0  0  0
 14 20  2  0  0  0  0
 15 16  2  0  0  0  0
 16 17  1  0  0  0  0
 16 18  1  0  0  0  0
 18 19  1  0  0  0  0
 18 20  1  0  0  0  0
 20 21  1  0  0  0  0
 22 23  2  0  0  0  0
 22 24  1  0  0  0  0
 24 25  1  0  0  0  0
 24 26  1  0  0  0  0
 26 27  1  0  0  0  0
 26 28  1  0  0  0  0
 26 29  1  0  0  0  0
M  END
$$$$

  -OEChem-01062216083D

 29 29  0     1  0  0  0  0  0999 V2000
   -2.9254   -3.0150    1.4001 H   0  0  0  0  0  0  0  0  0  0  0  0
   -3.0113   -2.0325    0.9272 C   0  0  0  0  0  0  0  0  0  0  0  0
   -3.6898   -1.4151    1.5208 H   0  0  0  0  0  0  0  0  0  0  0  0
   -3.4281   -2.1606   -0.0747 H   0  0  0  0  0  0  0  0  0  0  0  0
   -1.6488   -1.3708    0.8421 C   0  0  0  0  0  0  0  0  0  0  0  0
   -0.6756   -1.9411    1.3029 O   0  0  0  0  0  0  0  0  0  0  0  0
   -1.5428   -0.1179    0.2723 N   0  0  0  0  0  0  0  0  0  0  0  0
   -2.4184    0.2902   -0.0425 H   0  0  0  0  0  0  0  0  0  0  0  0
   -0.3290    0.7069    0.0568 C   0  0  1  0  0  0  0  0  0  0  0  0
   -0.5869    1.4986   -0.6550 H   0  0  0  0  0  0  0  0  0  0  0  0
    0.0343    1.3603    1.4036 C   0  0  0  0  0  0  0  0  0  0  0  0
    0.2026    0.5868    2.1589 H   0  0  0  0  0  0  0  0  0  0  0  0
    0.9617    1.9337    1.3069 H   0  0  0  0  0  0  0  0  0  0  0  0
   -1.0441    2.3001    1.8543 C   0  0  0  0  0  0  0  0  0  0  0  0
   -1.2682    3.5568    1.3083 N   0  0  0  0  0  0  0  0  0  0  0  0
   -2.2384    4.0983    2.0045 C   0  0  0  0  0  0  0  0  0  0  0  0
   -2.6474    5.0897    1.8317 H   0  0  0  0  0  0  0  0  0  0  0  0
   -2.6592    3.2233    2.9892 N   0  0  0  0  0  0  0  0  0  0  0  0
   -3.3793    3.4207    3.6820 H   0  0  0  0  0  0  0  0  0  0  0  0
   -1.8917    2.0806    2.9043 C   0  0  0  0  0  0  0  0  0  0  0  0
   -1.9199    1.1981    3.5369 H   0  0  0  0  0  0  0  0  0  0  0  0
    0.9431    0.0270   -0.5255 C   0  0  0  0  0  0  0  0  0  0  0  0
    1.8989    0.7303   -0.8305 O   0  0  0  0  0  0  0  0  0  0  0  0
    0.9968   -1.3158   -0.8516 N   0  0  0  0  0  0  0  0  0  0  0  0
    0.3441   -1.8967   -0.3240 H   0  0  0  0  0  0  0  0  0  0  0  0
    2.2042   -1.9534   -1.3613 C   0  0  0  0  0  0  0  0  0  0  0  0
    3.0208   -1.8611   -0.6379 H   0  0  0  0  0  0  0  0  0  0  0  0
    2.0197   -3.0161   -1.5440 H   0  0  0  0  0  0  0  0  0  0  0  0
    2.5136   -1.4910   -2.3043 H   0  0  0  0  0  0  0  0  0  0  0  0
  1  2  1  0  0  0  0
  2  3  1  0  0  0  0
  2  4  1  0  0  0  0
  2  5  1  0  0  0  0
  5  6  2  0  0  0  0
  5  7  1  0  0  0  0
  7  8  1  0  0  0  0
  7  9  1  0  0  0  0
  9 10  1  0  0  0  0
  9 11  1  0  0  0  0
  9 22  1  0  0  0  0
 11 12  1  0  0  0  0
 11 13  1  0  0  0  0
 11 14  1  0  0  0  0
 14 15  1  0  0  0  0
 14 20  2  0  0  0  0
 15 16  2  0  0  0  0
 16 17  1  0  0  0  0
 16 18  1  0  0  0  0
 18 19  1  0  0  0  0
 18 20  1  0  0  0  0
 20 21  1  0  0  0  0
 22 23  2  0  0  0  0
 22 24  1  0  0  0  0
 24 25  1  0  0  0  0
 24 26  1  0  0  0  0
 26 27  1  0  0  0  0
 26 28  1  0  0  0  0
 26 29  1  0  0  0  0
M  END
$$$$

  -OEChem-01062216083D

 29 29  0     1  0  0  0  0  0999 V2000
   -2.8581   -2.9976    1.4181 H   0  0  0  0  0  0  0  0  0  0  0  0
   -2.9613   -2.0108    0.9575 C   0  0  0  0  0  0  0  0  0  0  0  0
   -3.5948   -1.3900    1.5956 H   0  0  0  0  0  0  0  0  0  0  0  0
   -3.4397   -2.1267   -0.0182 H   0  0  0  0  0  0  0  0  0  0  0  0
   -1.5986   -1.3649    0.7941 C   0  0  0  0  0  0  0  0  0  0  0  0
   -0.6023   -1.9666    1.1519 O   0  0  0  0  0  0  0  0  0  0  0  0
   -1.5109   -0.1020    0.2438 N   0  0  0  0  0  0  0  0  0  0  0  0
   -2.3983    0.3389    0.0186 H   0  0  0  0  0  0  0  0  0  0  0  0
   -0.3010    0.7332    0.0525 C   0  0  1  0  0  0  0  0  0  0  0  0
   -0.5510    1.5304   -0.6554 H   0  0  0  0  0  0  0  0  0  0  0  0
    0.0369    1.3752    1.4127 C   0  0  0  0  0  0  0  0  0  0  0  0
    0.2007    0.5948    2.1618 H   0  0  0  0  0  0  0  0  0  0  0  0
    0.9591    1.9598    1.3391 H   0  0  0  0  0  0  0  0  0  0  0  0
   -1.0569    2.3007    1.8551 C   0  0  0  0  0  0  0  0  0  0  0  0
   -1.2844    3.5610    1.3191 N   0  0  0  0  0  0  0  0  0  0  0  0
   -2.2678    4.0878    2.0081 C   0  0  0  0  0  0  0  0  0  0  0  0
   -2.6818    5.0781    1.8403 H   0  0  0  0  0  0  0  0  0  0  0  0
   -2.6945    3.1991    2.9778 N   0  0  0  0  0  0  0  0  0  0  0  0
   -3.4217    3.3861    3.6659 H   0  0  0  0  0  0  0  0  0  0  0  0
   -1.9165    2.0637    2.8916 C   0  0  0  0  0  0  0  0  0  0  0  0
   -1.9439    1.1762    3.5172 H   0  0  0  0  0  0  0  0  0  0  0  0
    0.9675    0.0458   -0.5308 C   0  0  0  0  0  0  0  0  0  0  0  0
    2.0134    0.6791   -0.6138 O   0  0  0  0  0  0  0  0  0  0  0  0
    0.9073   -1.1943   -1.1414 N   0  0  0  0  0  0  0  0  0  0  0  0
    0.1667   -1.7905   -0.7761 H   0  0  0  0  0  0  0  0  0  0  0  0
    2.0869   -1.8550   -1.6867 C   0  0  0  0  0  0  0  0  0  0  0  0
    2.8298   -2.0239   -0.9003 H   0  0  0  0  0  0  0  0  0  0  0  0
    1.8107   -2.8219   -2.1178 H   0  0  0  0  0  0  0  0  0  0  0  0
    2.5397   -1.2445   -2.4749 H   0  0  0  0  0  0  0  0  0  0  0  0
  1  2  1  0  0  0  0
  2  3  1  0  0  0  0
  2  4  1  0  0  0  0
  2  5  1  0  0  0  0
  5  6  2  0  0  0  0
  5  7  1  0  0  0  0
  7  8  1  0  0  0  0
  7  9  1  0  0  0  0
  9 10  1  0  0  0  0
  9 11  1  0  0  0  0
  9 22  1  0  0  0  0
 11 12  1  0  0  0  0
 11 13  1  0  0  0  0
 11 14  1  0  0  0  0
 14 15  1  0  0  0  0
 14 20  2  0  0  0  0
 15 16  2  0  0  0  0
 16 17  1  0  0  0  0
 16 18  1  0  0  0  0
 18 19  1  0  0  0  0
 18 20  1  0  0  0  0
 20 21  1  0  0  0  0
 22 23  2  0  0  0  0
 22 24  1  0  0  0  0
 24 25  1  0  0  0  0
 24 26  1  0  0  0  0
 26 27  1  0  0  0  0
 26 28  1  0  0  0  0
 26 29  1  0  0  0  0
M  END
$$$$

  -OEChem-01062216083D

 29 29  0     1  0  0  0  0  0999 V2000
   -2.7479   -3.0196    1.4014 H   0  0  0  0  0  0  0  0  0  0  0  0
   -2.8786   -2.0308    0.9521 C   0  0  0  0  0  0  0  0  0  0  0  0
   -3.5036   -1.4251    1.6126 H   0  0  0  0  0  0  0  0  0  0  0  0
   -3.3818   -2.1459   -0.0110 H   0  0  0  0  0  0  0  0  0  0  0  0
   -1.5304   -1.3633    0.7577 C   0  0  0  0  0  0  0  0  0  0  0  0
   -0.5165   -1.9559    1.0766 O   0  0  0  0  0  0  0  0  0  0  0  0
   -1.4773   -0.0880    0.2300 N   0  0  0  0  0  0  0  0  0  0  0  0
   -2.3750    0.3562    0.0586 H   0  0  0  0  0  0  0  0  0  0  0  0
   -0.2773    0.7639    0.0602 C   0  0  1  0  0  0  0  0  0  0  0  0
   -0.5273    1.5647   -0.6436 H   0  0  0  0  0  0  0  0  0  0  0  0
    0.0438    1.4032    1.4264 C   0  0  0  0  0  0  0  0  0  0  0  0
    0.2130    0.6203    2.1720 H   0  0  0  0  0  0  0  0  0  0  0  0
    0.9581    2.0009    1.3625 H   0  0  0  0  0  0  0  0  0  0  0  0
   -1.0650    2.3131    1.8640 C   0  0  0  0  0  0  0  0  0  0  0  0
   -1.3003    3.5723    1.3284 N   0  0  0  0  0  0  0  0  0  0  0  0
   -2.2932    4.0889    2.0114 C   0  0  0  0  0  0  0  0  0  0  0  0
   -2.7152    5.0756    1.8419 H   0  0  0  0  0  0  0  0  0  0  0  0
   -2.7189    3.1945    2.9762 N   0  0  0  0  0  0  0  0  0  0  0  0
   -3.4517    3.3744    3.6605 H   0  0  0  0  0  0  0  0  0  0  0  0
   -1.9300    2.0661    2.8936 C   0  0  0  0  0  0  0  0  0  0  0  0
   -1.9529    1.1777    3.5180 H   0  0  0  0  0  0  0  0  0  0  0  0
    0.9820    0.0706   -0.5344 C   0  0  0  0  0  0  0  0  0  0  0  0
    2.0980    0.5508   -0.3714 O   0  0  0  0  0  0  0  0  0  0  0  0
    0.8481   -0.9891   -1.4146 N   0  0  0  0  0  0  0  0  0  0  0  0
   -0.0281   -1.4958   -1.3358 H   0  0  0  0  0  0  0  0  0  0  0  0
    1.9970   -1.7006   -1.9614 C   0  0  0  0  0  0  0  0  0  0  0  0
    2.5818   -2.1576   -1.1562 H   0  0  0  0  0  0  0  0  0  0  0  0
    1.6629   -2.4899   -2.6414 H   0  0  0  0  0  0  0  0  0  0  0  0
    2.6424   -1.0156   -2.5211 H   0  0  0  0  0  0  0  0  0  0  0  0
  1  2  1  0  0  0  0
  2  3  1  0  0  0  0
  2  4  1  0  0  0  0
  2  5  1  0  0  0  0
  5  6  2  0  0  0  0
  5  7  1  0  0  0  0
  7  8  1  0  0  0  0
  7  9  1  0  0  0  0
  9 10  1  0  0  0  0
  9 11  1  0  0  0  0
  9 22  1  0  0  0  0
 11 12  1  0  0  0  0
 11 13  1  0  0  0  0
 11 14  1  0  0  0  0
 14 15  1  0  0  0  0
 14 20  2  0  0  0  0
 15 16  2  0  0  0  0
 16 17  1  0  0  0  0
 16 18  1  0  0  0  0
 18 19  1  0  0  0  0
 18 20  1  0  0  0  0
 20 21  1  0  0  0  0
 22 23  2  0  0  0  0
 22 24  1  0  0  0  0
 24 25  1  0  0  0  0
 24 26  1  0  0  0  0
 26 27  1  0  0  0  0
 26 28  1  0  0  0  0
 26 29  1  0  0  0  0
M  END
$$$$

  -OEChem-01062216083D

 29 29  0     1  0  0  0  0  0999 V2000
   -2.6645   -3.0466    1.3591 H   0  0  0  0  0  0  0  0  0  0  0  0
   -2.8109   -2.0552    0.9211 C   0  0  0  0  0  0  0  0  0  0  0  0
   -3.4540   -1.4703    1.5831 H   0  0  0  0  0  0  0  0  0  0  0  0
   -3.3025   -2.1686   -0.0481 H   0  0  0  0  0  0  0  0  0  0  0  0
   -1.4746   -1.3584    0.7472 C   0  0  0  0  0  0  0  0  0  0  0  0
   -0.4541   -1.9311    1.0805 O   0  0  0  0  0  0  0  0  0  0  0  0
   -1.4437   -0.0778    0.2292 N   0  0  0  0  0  0  0  0  0  0  0  0
   -2.3477    0.3578    0.0706 H   0  0  0  0  0  0  0  0  0  0  0  0
   -0.2529    0.7878    0.0774 C   0  0  1  0  0  0  0  0  0  0  0  0
   -0.4991    1.5887   -0.6272 H   0  0  0  0  0  0  0  0  0  0  0  0
    0.0548    1.4296    1.4445 C   0  0  0  0  0  0  0  0  0  0  0  0
    0.2274    0.6483    2.1910 H   0  0  0  0  0  0  0  0  0  0  0  0
    0.9647    2.0347    1.3835 H   0  0  0  0  0  0  0  0  0  0  0  0
   -1.0658    2.3279    1.8739 C   0  0  0  0  0  0  0  0  0  0  0  0
   -1.3101    3.5843    1.3353 N   0  0  0  0  0  0  0  0  0  0  0  0
   -2.3148    4.0899    2.0098 C   0  0  0  0  0  0  0  0  0  0  0  0
   -2.7459    5.0719    1.8365 H   0  0  0  0  0  0  0  0  0  0  0  0
   -2.7393    3.1909    2.9709 N   0  0  0  0  0  0  0  0  0  0  0  0
   -3.4803    3.3624    3.6483 H   0  0  0  0  0  0  0  0  0  0  0  0
   -1.9372    2.0713    2.8955 C   0  0  0  0  0  0  0  0  0  0  0  0
   -1.9559    1.1821    3.5191 H   0  0  0  0  0  0  0  0  0  0  0  0
    0.9992    0.0827   -0.5140 C   0  0  0  0  0  0  0  0  0  0  0  0
    2.1336    0.3647   -0.1441 O   0  0  0  0  0  0  0  0  0  0  0  0
    0.8509   -0.7460   -1.6127 N   0  0  0  0  0  0  0  0  0  0  0  0
   -0.0927   -1.0700   -1.7961 H   0  0  0  0  0  0  0  0  0  0  0  0
    1.9629   -1.4863   -2.1954 C   0  0  0  0  0  0  0  0  0  0  0  0
    2.3980   -2.1662   -1.4554 H   0  0  0  0  0  0  0  0  0  0  0  0
    1.6175   -2.0759   -3.0497 H   0  0  0  0  0  0  0  0  0  0  0  0
    2.7410   -0.7989   -2.5438 H   0  0  0  0  0  0  0  0  0  0  0  0
  1  2  1  0  0  0  0
  2  3  1  0  0  0  0
  2  4  1  0  0  0  0
  2  5  1  0  0  0  0
  5  6  2  0  0  0  0
  5  7  1  0  0  0  0
  7  8  1  0  0  0  0
  7  9  1  0  0  0  0
  9 10  1  0  0  0  0
  9 11  1  0  0  0  0
  9 22  1  0  0  0  0
 11 12  1  0  0  0  0
 11 13  1  0  0  0  0
 11 14  1  0  0  0  0
 14 15  1  0  0  0  0
 14 20  2  0  0  0  0
 15 16  2  0  0  0  0
 16 17  1  0  0  0  0
 16 18  1  0  0  0  0
 18 19  1  0  0  0  0
 18 20  1  0  0  0  0
 20 21  1  0  0  0  0
 22 23  2  0  0  0  0
 22 24  1  0  0  0  0
 24 25  1  0  0  0  0
 24 26  1  0  0  0  0
 26 27  1  0  0  0  0
 26 28  1  0  0  0  0
 26 29  1  0  0  0  0
M  END
$$$$

  -OEChem-01062216083D

 29 29  0     1  0  0  0  0  0999 V2000
   -2.6518   -3.0567    1.3503 H   0  0  0  0  0  0  0  0  0  0  0  0
   -2.7978   -2.0648    0.9127 C   0  0  0  0  0  0  0  0  0  0  0  0
   -3.4495   -1.4837    1.5696 H   0  0  0  0  0  0  0  0  0  0  0  0
   -3.2795   -2.1786   -0.0614 H   0  0  0  0  0  0  0  0  0  0  0  0
   -1.4619   -1.3630    0.7537 C   0  0  0  0  0  0  0  0  0  0  0  0
   -0.4448   -1.9294    1.1067 O   0  0  0  0  0  0  0  0  0  0  0  0
   -1.4312   -0.0828    0.2342 N   0  0  0  0  0  0  0  0  0  0  0  0
   -2.3353    0.3466    0.0616 H   0  0  0  0  0  0  0  0  0  0  0  0
   -0.2419    0.7848    0.0903 C   0  0  1  0  0  0  0  0  0  0  0  0
   -0.4829    1.5855   -0.6164 H   0  0  0  0  0  0  0  0  0  0  0  0
    0.0601    1.4311    1.4561 C   0  0  0  0  0  0  0  0  0  0  0  0
    0.2290    0.6523    2.2061 H   0  0  0  0  0  0  0  0  0  0  0  0
    0.9711    2.0344    1.3949 H   0  0  0  0  0  0  0  0  0  0  0  0
   -1.0631    2.3291    1.8772 C   0  0  0  0  0  0  0  0  0  0  0  0
   -1.3062    3.5831    1.3325 N   0  0  0  0  0  0  0  0  0  0  0  0
   -2.3159    4.0884    1.9996 C   0  0  0  0  0  0  0  0  0  0  0  0
   -2.7490    5.0683    1.8199 H   0  0  0  0  0  0  0  0  0  0  0  0
   -2.7438    3.1922    2.9618 N   0  0  0  0  0  0  0  0  0  0  0  0
   -3.4902    3.3634    3.6333 H   0  0  0  0  0  0  0  0  0  0  0  0
   -1.9392    2.0741    2.8949 C   0  0  0  0  0  0  0  0  0  0  0  0
   -1.9594    1.1863    3.5206 H   0  0  0  0  0  0  0  0  0  0  0  0
    1.0094    0.0719   -0.4910 C   0  0  0  0  0  0  0  0  0  0  0  0
    2.1144    0.1617    0.0329 O   0  0  0  0  0  0  0  0  0  0  0  0
    0.9225   -0.4961   -1.7502 N   0  0  0  0  0  0  0  0  0  0  0  0
   -0.0120   -0.6347   -2.1193 H   0  0  0  0  0  0  0  0  0  0  0  0
    2.0353   -1.1921   -2.3836 C   0  0  0  0  0  0  0  0  0  0  0  0
    2.3539   -2.0410   -1.7695 H   0  0  0  0  0  0  0  0  0  0  0  0
    1.7362   -1.5669   -3.3668 H   0  0  0  0  0  0  0  0  0  0  0  0
    2.8855   -0.5149   -2.5173 H   0  0  0  0  0  0  0  0  0  0  0  0
  1  2  1  0  0  0  0
  2  3  1  0  0  0  0
  2  4  1  0  0  0  0
  2  5  1  0  0  0  0
  5  6  2  0  0  0  0
  5  7  1  0  0  0  0
  7  8  1  0  0  0  0
  7  9  1  0  0  0  0
  9 10  1  0  0  0  0
  9 11  1  0  0  0  0
  9 22  1  0  0  0  0
 11 12  1  0  0  0  0
 11 13  1  0  0  0  0
 11 14  1  0  0  0  0
 14 15  1  0  0  0  0
 14 20  2  0  0  0  0
 15 16  2  0  0  0  0
 16 17  1  0  0  0  0
 16 18  1  0  0  0  0
 18 19  1  0  0  0  0
 18 20  1  0  0  0  0
 20 21  1  0  0  0  0
 22 23  2  0  0  0  0
 22 24  1  0  0  0  0
 24 25  1  0  0  0  0
 24 26  1  0  0  0  0
 26 27  1  0  0  0  0
 26 28  1  0  0  0  0
 26 29  1  0  0  0  0
M  END
$$$$

  -OEChem-01062216083D

 29 29  0     1  0  0  0  0  0999 V2000
   -2.6743   -3.0648    1.3513 H   0  0  0  0  0  0  0  0  0  0  0  0
   -2.8119   -2.0741    0.9086 C   0  0  0  0  0  0  0  0  0  0  0  0
   -3.4757   -1.4912    1.5513 H   0  0  0  0  0  0  0  0  0  0  0  0
   -3.2743   -2.1901   -0.0745 H   0  0  0  0  0  0  0  0  0  0  0  0
   -1.4734   -1.3729    0.7723 C   0  0  0  0  0  0  0  0  0  0  0  0
   -0.4653   -1.9375    1.1512 O   0  0  0  0  0  0  0  0  0  0  0  0
   -1.4355   -0.0968    0.2437 N   0  0  0  0  0  0  0  0  0  0  0  0
   -2.3375    0.3274    0.0495 H   0  0  0  0  0  0  0  0  0  0  0  0
   -0.2449    0.7666    0.0942 C   0  0  1  0  0  0  0  0  0  0  0  0
   -0.4857    1.5661   -0.6139 H   0  0  0  0  0  0  0  0  0  0  0  0
    0.0615    1.4201    1.4548 C   0  0  0  0  0  0  0  0  0  0  0  0
    0.2271    0.6449    2.2095 H   0  0  0  0  0  0  0  0  0  0  0  0
    0.9768    2.0161    1.3872 H   0  0  0  0  0  0  0  0  0  0  0  0
   -1.0570    2.3245    1.8740 C   0  0  0  0  0  0  0  0  0  0  0  0
   -1.2970    3.5767    1.3231 N   0  0  0  0  0  0  0  0  0  0  0  0
   -2.3026    4.0889    1.9913 C   0  0  0  0  0  0  0  0  0  0  0  0
   -2.7327    5.0698    1.8087 H   0  0  0  0  0  0  0  0  0  0  0  0
   -2.7310    3.1988    2.9590 N   0  0  0  0  0  0  0  0  0  0  0  0
   -3.4751    3.3754    3.6316 H   0  0  0  0  0  0  0  0  0  0  0  0
   -1.9311    2.0774    2.8951 C   0  0  0  0  0  0  0  0  0  0  0  0
   -1.9532    1.1921    3.5245 H   0  0  0  0  0  0  0  0  0  0  0  0
    1.0075    0.0499   -0.4799 C   0  0  0  0  0  0  0  0  0  0  0  0
    2.0511   -0.0531    0.1555 O   0  0  0  0  0  0  0  0  0  0  0  0
    1.0355   -0.2471   -1.8317 N   0  0  0  0  0  0  0  0  0  0  0  0
    0.1574   -0.1840   -2.3359 H   0  0  0  0  0  0  0  0  0  0  0  0
    2.1839   -0.8565   -2.4908 C   0  0  0  0  0  0  0  0  0  0  0  0
    2.4312   -1.8142   -2.0204 H   0  0  0  0  0  0  0  0  0  0  0  0
    1.9624   -1.0358   -3.5470 H   0  0  0  0  0  0  0  0  0  0  0  0
    3.0557   -0.1968   -2.4278 H   0  0  0  0  0  0  0  0  0  0  0  0
  1  2  1  0  0  0  0
  2  3  1  0  0  0  0
  2  4  1  0  0  0  0
  2  5  1  0  0  0  0
  5  6  2  0  0  0  0
  5  7  1  0  0  0  0
  7  8  1  0  0  0  0
  7  9  1  0  0  0  0
  9 10  1  0  0  0  0
  9 11  1  0  0  0  0
  9 22  1  0  0  0  0
 11 12  1  0  0  0  0
 11 13  1  0  0  0  0
 11 14  1  0  0  0  0
 14 15  1  0  0  0  0
 14 20  2  0  0  0  0
 15 16  2  0  0  0  0
 16 17  1  0  0  0  0
 16 18  1  0  0  0  0
 18 19  1  0  0  0  0
 18 20  1  0  0  0  0
 20 21  1  0  0  0  0
 22 23  2  0  0  0  0
 22 24  1  0  0  0  0
 24 25  1  0  0  0  0
 24 26  1  0  0  0  0
 26 27  1  0  0  0  0
 26 28  1  0  0  0  0
 26 29  1  0  0  0  0
M  END
$$$$

  -OEChem-01062216083D

 29 29  0     1  0  0  0  0  0999 V2000
   -2.7090   -3.0856    1.3472 H   0  0  0  0  0  0  0  0  0  0  0  0
   -2.8376   -2.0962    0.8985 C   0  0  0  0  0  0  0  0  0  0  0  0
   -3.5186   -1.5129    1.5227 H   0  0  0  0  0  0  0  0  0  0  0  0
   -3.2746   -2.2165   -0.0955 H   0  0  0  0  0  0  0  0  0  0  0  0
   -1.4976   -1.3920    0.7944 C   0  0  0  0  0  0  0  0  0  0  0  0
   -0.5020   -1.9493    1.2131 O   0  0  0  0  0  0  0  0  0  0  0  0
   -1.4500   -0.1206    0.2554 N   0  0  0  0  0  0  0  0  0  0  0  0
   -2.3481    0.2904    0.0203 H   0  0  0  0  0  0  0  0  0  0  0  0
   -0.2582    0.7390    0.0924 C   0  0  1  0  0  0  0  0  0  0  0  0
   -0.5074    1.5348   -0.6166 H   0  0  0  0  0  0  0  0  0  0  0  0
    0.0618    1.4040    1.4436 C   0  0  0  0  0  0  0  0  0  0  0  0
    0.2291    0.6350    2.2046 H   0  0  0  0  0  0  0  0  0  0  0  0
    0.9807    1.9928    1.3618 H   0  0  0  0  0  0  0  0  0  0  0  0
   -1.0484    2.3170    1.8662 C   0  0  0  0  0  0  0  0  0  0  0  0
   -1.2860    3.5651    1.3048 N   0  0  0  0  0  0  0  0  0  0  0  0
   -2.2793    4.0918    1.9805 C   0  0  0  0  0  0  0  0  0  0  0  0
   -2.7043    5.0739    1.7929 H   0  0  0  0  0  0  0  0  0  0  0  0
   -2.7014    3.2158    2.9637 N   0  0  0  0  0  0  0  0  0  0  0  0
   -3.4332    3.4063    3.6461 H   0  0  0  0  0  0  0  0  0  0  0  0
   -1.9113    2.0874    2.9008 C   0  0  0  0  0  0  0  0  0  0  0  0
   -1.9312    1.2087    3.5396 H   0  0  0  0  0  0  0  0  0  0  0  0
    0.9994    0.0294   -0.4801 C   0  0  0  0  0  0  0  0  0  0  0  0
    1.9605   -0.2666    0.2205 O   0  0  0  0  0  0  0  0  0  0  0  0
    1.1746    0.0049   -1.8537 N   0  0  0  0  0  0  0  0  0  0  0  0
    0.3899    0.2902   -2.4300 H   0  0  0  0  0  0  0  0  0  0  0  0
    2.3751   -0.5110   -2.5008 C   0  0  0  0  0  0  0  0  0  0  0  0
    2.5626   -1.5447   -2.1914 H   0  0  0  0  0  0  0  0  0  0  0  0
    2.2569   -0.4920   -3.5884 H   0  0  0  0  0  0  0  0  0  0  0  0
    3.2447    0.0998   -2.2365 H   0  0  0  0  0  0  0  0  0  0  0  0
  1  2  1  0  0  0  0
  2  3  1  0  0  0  0
  2  4  1  0  0  0  0
  2  5  1  0  0  0  0
  5  6  2  0  0  0  0
  5  7  1  0  0  0  0
  7  8  1  0  0  0  0
  7  9  1  0  0  0  0
  9 10  1  0  0  0  0
  9 11  1  0  0  0  0
  9 22  1  0  0  0  0
 11 12  1  0  0  0  0
 11 13  1  0  0  0  0
 11 14  1  0  0  0  0
 14 15  1  0  0  0  0
 14 20  2  0  0  0  0
 15 16  2  0  0  0  0
 16 17  1  0  0  0  0
 16 18  1  0  0  0  0
 18 19  1  0  0  0  0
 18 20  1  0  0  0  0
 20 21  1  0  0  0  0
 22 23  2  0  0  0  0
 22 24  1  0  0  0  0
 24 25  1  0  0  0  0
 24 26  1  0  0  0  0
 26 27  1  0  0  0  0
 26 28  1  0  0  0  0
 26 29  1  0  0  0  0
M  END
$$$$

  -OEChem-01062216083D

 29 29  0     1  0  0  0  0  0999 V2000
   -2.7362   -3.1121    1.3146 H   0  0  0  0  0  0  0  0  0  0  0  0
   -2.8561   -2.1209    0.8677 C   0  0  0  0  0  0  0  0  0  0  0  0
   -3.5775   -1.5528    1.4597 H   0  0  0  0  0  0  0  0  0  0  0  0
   -3.2391   -2.2390   -0.1487 H   0  0  0  0  0  0  0  0  0  0  0  0
   -1.5231   -1.3962    0.8400 C   0  0  0  0  0  0  0  0  0  0  0  0
   -0.5584   -1.9177    1.3626 O   0  0  0  0  0  0  0  0  0  0  0  0
   -1.4644   -0.1340    0.2806 N   0  0  0  0  0  0  0  0  0  0  0  0
   -2.3497    0.2370   -0.0490 H   0  0  0  0  0  0  0  0  0  0  0  0
   -0.2725    0.7203    0.0887 C   0  0  1  0  0  0  0  0  0  0  0  0
   -0.5371    1.5098   -0.6215 H   0  0  0  0  0  0  0  0  0  0  0  0
    0.0738    1.3961    1.4267 C   0  0  0  0  0  0  0  0  0  0  0  0
    0.2498    0.6335    2.1922 H   0  0  0  0  0  0  0  0  0  0  0  0
    0.9949    1.9780    1.3244 H   0  0  0  0  0  0  0  0  0  0  0  0
   -1.0263    2.3163    1.8588 C   0  0  0  0  0  0  0  0  0  0  0  0
   -1.2701    3.5601    1.2895 N   0  0  0  0  0  0  0  0  0  0  0  0
   -2.2548    4.0918    1.9743 C   0  0  0  0  0  0  0  0  0  0  0  0
   -2.6833    5.0720    1.7847 H   0  0  0  0  0  0  0  0  0  0  0  0
   -2.6638    3.2242    2.9703 N   0  0  0  0  0  0  0  0  0  0  0  0
   -3.3900    3.4179    3.6576 H   0  0  0  0  0  0  0  0  0  0  0  0
   -1.8752    2.0951    2.9063 C   0  0  0  0  0  0  0  0  0  0  0  0
   -1.8883    1.2195    3.5499 H   0  0  0  0  0  0  0  0  0  0  0  0
    0.9888    0.0189   -0.4864 C   0  0  0  0  0  0  0  0  0  0  0  0
    1.8464   -0.4858    0.2272 O   0  0  0  0  0  0  0  0  0  0  0  0
    1.3207    0.2454   -1.8122 N   0  0  0  0  0  0  0  0  0  0  0  0
    0.6530    0.7528   -2.3836 H   0  0  0  0  0  0  0  0  0  0  0  0
    2.5716   -0.1985   -2.4166 C   0  0  0  0  0  0  0  0  0  0  0  0
    2.6955   -1.2795   -2.2926 H   0  0  0  0  0  0  0  0  0  0  0  0
    2.5754    0.0282   -3.4869 H   0  0  0  0  0  0  0  0  0  0  0  0
    3.4226    0.3094   -1.9510 H   0  0  0  0  0  0  0  0  0  0  0  0
  1  2  1  0  0  0  0
  2  3  1  0  0  0  0
  2  4  1  0  0  0  0
  2  5  1  0  0  0  0
  5  6  2  0  0  0  0
  5  7  1  0  0  0  0
  7  8  1  0  0  0  0
  7  9  1  0  0  0  0
  9 10  1  0  0  0  0
  9 11  1  0  0  0  0
  9 22  1  0  0  0  0
 11 12  1  0  0  0  0
 11 13  1  0  0  0  0
 11 14  1  0  0  0  0
 14 15  1  0  0  0  0
 14 20  2  0  0  0  0
 15 16  2  0  0  0  0
 16 17  1  0  0  0  0
 16 18  1  0  0  0  0
 18 19  1  0  0  0  0
 18 20  1  0  0  0  0
 20 21  1  0  0  0  0
 22 23  2  0  0  0  0
 22 24  1  0  0  0  0
 24 25  1  0  0  0  0
 24 26  1  0  0  0  0
 26 27  1  0  0  0  0
 26 28  1  0  0  0  0
 26 29  1  0  0  0  0
M  END
$$$$

  -OEChem-01062216083D

 29 29  0     1  0  0  0  0  0999 V2000
   -2.5910   -3.2203    1.1952 H   0  0  0  0  0  0  0  0  0  0  0  0
   -2.7265   -2.2649    0.6800 C   0  0  0  0  0  0  0  0  0  0  0  0
   -3.6452   -1.7968    1.0414 H   0  0  0  0  0  0  0  0  0  0  0  0
   -2.8172   -2.4561   -0.3919 H   0  0  0  0  0  0  0  0  0  0  0  0
   -1.5405   -1.3569    0.9468 C   0  0  0  0  0  0  0  0  0  0  0  0
   -0.7238   -1.6878    1.7855 O   0  0  0  0  0  0  0  0  0  0  0  0
   -1.5137   -0.1043    0.3620 N   0  0  0  0  0  0  0  0  0  0  0  0
   -2.3100    0.0895   -0.2358 H   0  0  0  0  0  0  0  0  0  0  0  0
   -0.3190    0.7390    0.1324 C   0  0  1  0  0  0  0  0  0  0  0  0
   -0.6049    1.5189   -0.5802 H   0  0  0  0  0  0  0  0  0  0  0  0
    0.0841    1.4354    1.4422 C   0  0  0  0  0  0  0  0  0  0  0  0
    0.2811    0.6900    2.2189 H   0  0  0  0  0  0  0  0  0  0  0  0
    1.0056    2.0064    1.2949 H   0  0  0  0  0  0  0  0  0  0  0  0
   -0.9906    2.3757    1.8915 C   0  0  0  0  0  0  0  0  0  0  0  0
   -1.2365    3.6098    1.3010 N   0  0  0  0  0  0  0  0  0  0  0  0
   -2.2028    4.1610    1.9972 C   0  0  0  0  0  0  0  0  0  0  0  0
   -2.6301    5.1394    1.7966 H   0  0  0  0  0  0  0  0  0  0  0  0
   -2.5954    3.3174    3.0202 N   0  0  0  0  0  0  0  0  0  0  0  0
   -3.3142    3.5239    3.7114 H   0  0  0  0  0  0  0  0  0  0  0  0
   -1.8179    2.1807    2.9604 C   0  0  0  0  0  0  0  0  0  0  0  0
   -1.8294    1.3115    3.6129 H   0  0  0  0  0  0  0  0  0  0  0  0
    0.9316    0.0355   -0.4597 C   0  0  0  0  0  0  0  0  0  0  0  0
    1.5651   -0.8280    0.1289 O   0  0  0  0  0  0  0  0  0  0  0  0
    1.4258    0.4808   -1.6748 N   0  0  0  0  0  0  0  0  0  0  0  0
    0.9608    1.2730   -2.1076 H   0  0  0  0  0  0  0  0  0  0  0  0
    2.6657   -0.0116   -2.2641 C   0  0  0  0  0  0  0  0  0  0  0  0
    2.6197   -1.0967   -2.4043 H   0  0  0  0  0  0  0  0  0  0  0  0
    2.8320    0.4546   -3.2398 H   0  0  0  0  0  0  0  0  0  0  0  0
    3.5167    0.2243   -1.6167 H   0  0  0  0  0  0  0  0  0  0  0  0
  1  2  1  0  0  0  0
  2  3  1  0  0  0  0
  2  4  1  0  0  0  0
  2  5  1  0  0  0  0
  5  6  2  0  0  0  0
  5  7  1  0  0  0  0
  7  8  1  0  0  0  0
  7  9  1  0  0  0  0
  9 10  1  0  0  0  0
  9 11  1  0  0  0  0
  9 22  1  0  0  0  0
 11 12  1  0  0  0  0
 11 13  1  0  0  0  0
 11 14  1  0  0  0  0
 14 15  1  0  0  0  0
 14 20  2  0  0  0  0
 15 16  2  0  0  0  0
 16 17  1  0  0  0  0
 16 18  1  0  0  0  0
 18 19  1  0  0  0  0
 18 20  1  0  0  0  0
 20 21  1  0  0  0  0
 22 23  2  0  0  0  0
 22 24  1  0  0  0  0
 24 25  1  0  0  0  0
 24 26  1  0  0  0  0
 26 27  1  0  0  0  0
 26 28  1  0  0  0  0
 26 29  1  0  0  0  0
M  END
$$$$

  -OEChem-01062216083D

 29 29  0     1  0  0  0  0  0999 V2000
   -2.4395   -3.2779    1.1337 H   0  0  0  0  0  0  0  0  0  0  0  0
   -2.5860   -2.3420    0.5871 C   0  0  0  0  0  0  0  0  0  0  0  0
   -3.5828   -1.9546    0.8101 H   0  0  0  0  0  0  0  0  0  0  0  0
   -2.5097   -2.5476   -0.4831 H   0  0  0  0  0  0  0  0  0  0  0  0
   -1.5307   -1.3314    0.9951 C   0  0  0  0  0  0  0  0  0  0  0  0
   -0.8224   -1.5658    1.9598 O   0  0  0  0  0  0  0  0  0  0  0  0
   -1.5309   -0.0787    0.4089 N   0  0  0  0  0  0  0  0  0  0  0  0
   -2.2585    0.0340   -0.2887 H   0  0  0  0  0  0  0  0  0  0  0  0
   -0.3254    0.7530    0.1904 C   0  0  1  0  0  0  0  0  0  0  0  0
   -0.6063    1.5284   -0.5295 H   0  0  0  0  0  0  0  0  0  0  0  0
    0.0804    1.4596    1.4937 C   0  0  0  0  0  0  0  0  0  0  0  0
    0.2672    0.7239    2.2812 H   0  0  0  0  0  0  0  0  0  0  0  0
    1.0073    2.0211    1.3453 H   0  0  0  0  0  0  0  0  0  0  0  0
   -0.9866    2.4165    1.9248 C   0  0  0  0  0  0  0  0  0  0  0  0
   -1.2129    3.6453    1.3153 N   0  0  0  0  0  0  0  0  0  0  0  0
   -2.1852    4.2120    1.9907 C   0  0  0  0  0  0  0  0  0  0  0  0
   -2.6033    5.1903    1.7709 H   0  0  0  0  0  0  0  0  0  0  0  0
   -2.5970    3.3854    3.0200 N   0  0  0  0  0  0  0  0  0  0  0  0
   -3.3274    3.6033    3.6953 H   0  0  0  0  0  0  0  0  0  0  0  0
   -1.8284    2.2415    2.9852 C   0  0  0  0  0  0  0  0  0  0  0  0
   -1.8590    1.3776    3.6444 H   0  0  0  0  0  0  0  0  0  0  0  0
    0.9286    0.0505   -0.3971 C   0  0  0  0  0  0  0  0  0  0  0  0
    1.2390   -1.1050   -0.1465 O   0  0  0  0  0  0  0  0  0  0  0  0
    1.6173    0.6889   -1.4153 N   0  0  0  0  0  0  0  0  0  0  0  0
    1.3702    1.6546   -1.6122 H   0  0  0  0  0  0  0  0  0  0  0  0
    2.7713    0.1085   -2.0929 C   0  0  0  0  0  0  0  0  0  0  0  0
    2.4957   -0.8304   -2.5849 H   0  0  0  0  0  0  0  0  0  0  0  0
    3.1497    0.7980   -2.8536 H   0  0  0  0  0  0  0  0  0  0  0  0
    3.5749   -0.0918   -1.3764 H   0  0  0  0  0  0  0  0  0  0  0  0
  1  2  1  0  0  0  0
  2  3  1  0  0  0  0
  2  4  1  0  0  0  0
  2  5  1  0  0  0  0
  5  6  2  0  0  0  0
  5  7  1  0  0  0  0
  7  8  1  0  0  0  0
  7  9  1  0  0  0  0
  9 10  1  0  0  0  0
  9 11  1  0  0  0  0
  9 22  1  0  0  0  0
 11 12  1  0  0  0  0
 11 13  1  0  0  0  0
 11 14  1  0  0  0  0
 14 15  1  0  0  0  0
 14 20  2  0  0  0  0
 15 16  2  0  0  0  0
 16 17  1  0  0  0  0
 16 18  1  0  0  0  0
 18 19  1  0  0  0  0
 18 20  1  0  0  0  0
 20 21  1  0  0  0  0
 22 23  2  0  0  0  0
 22 24  1  0  0  0  0
 24 25  1  0  0  0  0
 24 26  1  0  0  0  0
 26 27  1  0  0  0  0
 26 28  1  0  0  0  0
 26 29  1  0  0  0  0
M  END
$$$$

  -OEChem-01062216083D

 29 29  0     1  0  0  0  0  0999 V2000
   -2.4347   -3.2781    1.1500 H   0  0  0  0  0  0  0  0  0  0  0  0
   -2.5823   -2.3432    0.6019 C   0  0  0  0  0  0  0  0  0  0  0  0
   -3.5754   -1.9508    0.8322 H   0  0  0  0  0  0  0  0  0  0  0  0
   -2.5161   -2.5522   -0.4685 H   0  0  0  0  0  0  0  0  0  0  0  0
   -1.5198   -1.3352    0.9973 C   0  0  0  0  0  0  0  0  0  0  0  0
   -0.7807   -1.5797    1.9373 O   0  0  0  0  0  0  0  0  0  0  0  0
   -1.5216   -0.0808    0.4143 N   0  0  0  0  0  0  0  0  0  0  0  0
   -2.2369    0.0286   -0.2965 H   0  0  0  0  0  0  0  0  0  0  0  0
   -0.3092    0.7447    0.2136 C   0  0  1  0  0  0  0  0  0  0  0  0
   -0.5744    1.5186   -0.5135 H   0  0  0  0  0  0  0  0  0  0  0  0
    0.0792    1.4527    1.5232 C   0  0  0  0  0  0  0  0  0  0  0  0
    0.2496    0.7188    2.3157 H   0  0  0  0  0  0  0  0  0  0  0  0
    1.0101    2.0111    1.3899 H   0  0  0  0  0  0  0  0  0  0  0  0
   -0.9893    2.4159    1.9366 C   0  0  0  0  0  0  0  0  0  0  0  0
   -1.1974    3.6442    1.3204 N   0  0  0  0  0  0  0  0  0  0  0  0
   -2.1799    4.2174    1.9754 C   0  0  0  0  0  0  0  0  0  0  0  0
   -2.5897    5.1966    1.7446 H   0  0  0  0  0  0  0  0  0  0  0  0
   -2.6145    3.3958    2.9995 N   0  0  0  0  0  0  0  0  0  0  0  0
   -3.3590    3.6178    3.6579 H   0  0  0  0  0  0  0  0  0  0  0  0
   -1.8513    2.2480    2.9820 C   0  0  0  0  0  0  0  0  0  0  0  0
   -1.9003    1.3858    3.6419 H   0  0  0  0  0  0  0  0  0  0  0  0
    0.9475    0.0360   -0.3620 C   0  0  0  0  0  0  0  0  0  0  0  0
    1.0533   -1.1812   -0.4370 O   0  0  0  0  0  0  0  0  0  0  0  0
    1.8232    0.7908   -1.1249 N   0  0  0  0  0  0  0  0  0  0  0  0
    1.7036    1.7999   -1.1119 H   0  0  0  0  0  0  0  0  0  0  0  0
    2.9530    0.2264   -1.8547 C   0  0  0  0  0  0  0  0  0  0  0  0
    2.6041   -0.4798   -2.6152 H   0  0  0  0  0  0  0  0  0  0  0  0
    3.5150    1.0210   -2.3544 H   0  0  0  0  0  0  0  0  0  0  0  0
    3.6283   -0.2972   -1.1699 H   0  0  0  0  0  0  0  0  0  0  0  0
  1  2  1  0  0  0  0
  2  3  1  0  0  0  0
  2  4  1  0  0  0  0
  2  5  1  0  0  0  0
  5  6  2  0  0  0  0
  5  7  1  0  0  0  0
  7  8  1  0  0  0  0
  7  9  1  0  0  0  0
  9 10  1  0  0  0  0
  9 11  1  0  0  0  0
  9 22  1  0  0  0  0
 11 12  1  0  0  0  0
 11 13  1  0  0  0  0
 11 14  1  0  0  0  0
 14 15  1  0  0  0  0
 14 20  2  0  0  0  0
 15 16  2  0  0  0  0
 16 17  1  0  0  0  0
 16 18  1  0  0  0  0
 18 19  1  0  0  0  0
 18 20  1  0  0  0  0
 20 21  1  0  0  0  0
 22 23  2  0  0  0  0
 22 24  1  0  0  0  0
 24 25  1  0  0  0  0
 24 26  1  0  0  0  0
 26 27  1  0  0  0  0
 26 28  1  0  0  0  0
 26 29  1  0  0  0  0
M  END
$$$$

  -OEChem-01062216083D

 29 29  0     1  0  0  0  0  0999 V2000
   -2.4209   -3.2744    1.1452 H   0  0  0  0  0  0  0  0  0  0  0  0
   -2.5927   -2.3283    0.6242 C   0  0  0  0  0  0  0  0  0  0  0  0
   -3.5704   -1.9368    0.9142 H   0  0  0  0  0  0  0  0  0  0  0  0
   -2.5837   -2.5163   -0.4522 H   0  0  0  0  0  0  0  0  0  0  0  0
   -1.5060   -1.3324    0.9830 C   0  0  0  0  0  0  0  0  0  0  0  0
   -0.7155   -1.6001    1.8741 O   0  0  0  0  0  0  0  0  0  0  0  0
   -1.5154   -0.0749    0.4063 N   0  0  0  0  0  0  0  0  0  0  0  0
   -2.2339    0.0410   -0.3004 H   0  0  0  0  0  0  0  0  0  0  0  0
   -0.3017    0.7504    0.2159 C   0  0  1  0  0  0  0  0  0  0  0  0
   -0.5539    1.5281   -0.5121 H   0  0  0  0  0  0  0  0  0  0  0  0
    0.0727    1.4508    1.5358 C   0  0  0  0  0  0  0  0  0  0  0  0
    0.2348    0.7127    2.3260 H   0  0  0  0  0  0  0  0  0  0  0  0
    1.0033    2.0128    1.4195 H   0  0  0  0  0  0  0  0  0  0  0  0
   -1.0001    2.4107    1.9447 C   0  0  0  0  0  0  0  0  0  0  0  0
   -1.1994    3.6422    1.3330 N   0  0  0  0  0  0  0  0  0  0  0  0
   -2.1875    4.2143    1.9799 C   0  0  0  0  0  0  0  0  0  0  0  0
   -2.5912    5.1963    1.7502 H   0  0  0  0  0  0  0  0  0  0  0  0
   -2.6354    3.3876    2.9941 N   0  0  0  0  0  0  0  0  0  0  0  0
   -3.3877    3.6072    3.6442 H   0  0  0  0  0  0  0  0  0  0  0  0
   -1.8743    2.2381    2.9792 C   0  0  0  0  0  0  0  0  0  0  0  0
   -1.9327    1.3728    3.6341 H   0  0  0  0  0  0  0  0  0  0  0  0
    0.9463    0.0266   -0.3585 C   0  0  0  0  0  0  0  0  0  0  0  0
    0.9181   -1.1495   -0.7018 O   0  0  0  0  0  0  0  0  0  0  0  0
    1.9889    0.7996   -0.8423 N   0  0  0  0  0  0  0  0  0  0  0  0
    1.9688    1.7938   -0.6336 H   0  0  0  0  0  0  0  0  0  0  0  0
    3.1354    0.2553   -1.5601 C   0  0  0  0  0  0  0  0  0  0  0  0
    2.8133   -0.2279   -2.4885 H   0  0  0  0  0  0  0  0  0  0  0  0
    3.8370    1.0562   -1.8127 H   0  0  0  0  0  0  0  0  0  0  0  0
    3.6593   -0.4812   -0.9417 H   0  0  0  0  0  0  0  0  0  0  0  0
  1  2  1  0  0  0  0
  2  3  1  0  0  0  0
  2  4  1  0  0  0  0
  2  5  1  0  0  0  0
  5  6  2  0  0  0  0
  5  7  1  0  0  0  0
  7  8  1  0  0  0  0
  7  9  1  0  0  0  0
  9 10  1  0  0  0  0
  9 11  1  0  0  0  0
  9 22  1  0  0  0  0
 11 12  1  0  0  0  0
 11 13  1  0  0  0  0
 11 14  1  0  0  0  0
 14 15  1  0  0  0  0
 14 20  2  0  0  0  0
 15 16  2  0  0  0  0
 16 17  1  0  0  0  0
 16 18  1  0  0  0  0
 18 19  1  0  0  0  0
 18 20  1  0  0  0  0
 20 21  1  0  0  0  0
 22 23  2  0  0  0  0
 22 24  1  0  0  0  0
 24 25  1  0  0  0  0
 24 26  1  0  0  0  0
 26 27  1  0  0  0  0
 26 28  1  0  0  0  0
 26 29  1  0  0  0  0
M  END
$$$$

  -OEChem-01062216083D

 29 29  0     1  0  0  0  0  0999 V2000
   -2.4806   -3.2563    1.0725 H   0  0  0  0  0  0  0  0  0  0  0  0
   -2.6322   -2.2870    0.5892 C   0  0  0  0  0  0  0  0  0  0  0  0
   -3.5565   -1.8444    0.9674 H   0  0  0  0  0  0  0  0  0  0  0  0
   -2.7227   -2.4432   -0.4886 H   0  0  0  0  0  0  0  0  0  0  0  0
   -1.4595   -1.3695    0.8790 C   0  0  0  0  0  0  0  0  0  0  0  0
   -0.5569   -1.7655    1.5990 O   0  0  0  0  0  0  0  0  0  0  0  0
   -1.4705   -0.0841    0.3673 N   0  0  0  0  0  0  0  0  0  0  0  0
   -2.2236    0.0931   -0.2893 H   0  0  0  0  0  0  0  0  0  0  0  0
   -0.2759    0.7767    0.2261 C   0  0  1  0  0  0  0  0  0  0  0  0
   -0.5986    1.6973   -0.2712 H   0  0  0  0  0  0  0  0  0  0  0  0
    0.3120    1.1878    1.5935 C   0  0  0  0  0  0  0  0  0  0  0  0
    0.5937    0.3125    2.1824 H   0  0  0  0  0  0  0  0  0  0  0  0
    1.2177    1.7826    1.4532 H   0  0  0  0  0  0  0  0  0  0  0  0
   -0.6673    2.0283    2.3513 C   0  0  0  0  0  0  0  0  0  0  0  0
   -0.9364    3.3587    2.0543 N   0  0  0  0  0  0  0  0  0  0  0  0
   -1.8063    3.7626    2.9501 C   0  0  0  0  0  0  0  0  0  0  0  0
   -2.2262    4.7633    2.9987 H   0  0  0  0  0  0  0  0  0  0  0  0
   -2.1067    2.7319    3.8220 N   0  0  0  0  0  0  0  0  0  0  0  0
   -2.7459    2.7957    4.6121 H   0  0  0  0  0  0  0  0  0  0  0  0
   -1.3754    1.6253    3.4468 C   0  0  0  0  0  0  0  0  0  0  0  0
   -1.3467    0.6393    3.9034 H   0  0  0  0  0  0  0  0  0  0  0  0
    0.8117    0.1648   -0.6952 C   0  0  0  0  0  0  0  0  0  0  0  0
    0.5631   -0.8032   -1.4064 O   0  0  0  0  0  0  0  0  0  0  0  0
    1.9919    0.8519   -0.9252 N   0  0  0  0  0  0  0  0  0  0  0  0
    2.1609    1.6898   -0.3764 H   0  0  0  0  0  0  0  0  0  0  0  0
    3.0132    0.4072   -1.8655 C   0  0  0  0  0  0  0  0  0  0  0  0
    2.6123    0.3835   -2.8843 H   0  0  0  0  0  0  0  0  0  0  0  0
    3.8678    1.0902   -1.8462 H   0  0  0  0  0  0  0  0  0  0  0  0
    3.3659   -0.5952   -1.6011 H   0  0  0  0  0  0  0  0  0  0  0  0
  1  2  1  0  0  0  0
  2  3  1  0  0  0  0
  2  4  1  0  0  0  0
  2  5  1  0  0  0  0
  5  6  2  0  0  0  0
  5  7  1  0  0  0  0
  7  8  1  0  0  0  0
  7  9  1  0  0  0  0
  9 10  1  0  0  0  0
  9 11  1  0  0  0  0
  9 22  1  0  0  0  0
 11 12  1  0  0  0  0
 11 13  1  0  0  0  0
 11 14  1  0  0  0  0
 14 15  1  0  0  0  0
 14 20  2  0  0  0  0
 15 16  2  0  0  0  0
 16 17  1  0  0  0  0
 16 18  1  0  0  0  0
 18 19  1  0  0  0  0
 18 20  1  0  0  0  0
 20 21  1  0  0  0  0
 22 23  2  0  0  0  0
 22 24  1  0  0  0  0
 24 25  1  0  0  0  0
 24 26  1  0  0  0  0
 26 27  1  0  0  0  0
 26 28  1  0  0  0  0
 26 29  1  0  0  0  0
M  END
$$$$

  -OEChem-01062216083D

 29 29  0     1  0  0  0  0  0999 V2000
   -2.4215   -3.2599    1.0300 H   0  0  0  0  0  0  0  0  0  0  0  0
   -2.6012   -2.2769    0.5857 C   0  0  0  0  0  0  0  0  0  0  0  0
   -3.5167   -1.8590    1.0104 H   0  0  0  0  0  0  0  0  0  0  0  0
   -2.7280   -2.3980   -0.4930 H   0  0  0  0  0  0  0  0  0  0  0  0
   -1.4295   -1.3550    0.8656 C   0  0  0  0  0  0  0  0  0  0  0  0
   -0.4985   -1.7604    1.5432 O   0  0  0  0  0  0  0  0  0  0  0  0
   -1.4567   -0.0641    0.3702 N   0  0  0  0  0  0  0  0  0  0  0  0
   -2.2169    0.1188   -0.2769 H   0  0  0  0  0  0  0  0  0  0  0  0
   -0.2699    0.8071    0.2368 C   0  0  1  0  0  0  0  0  0  0  0  0
   -0.5933    1.7299   -0.2557 H   0  0  0  0  0  0  0  0  0  0  0  0
    0.3056    1.2135    1.6120 C   0  0  0  0  0  0  0  0  0  0  0  0
    0.5912    0.3366    2.1970 H   0  0  0  0  0  0  0  0  0  0  0  0
    1.2035    1.8217    1.4829 H   0  0  0  0  0  0  0  0  0  0  0  0
   -0.6868    2.0399    2.3689 C   0  0  0  0  0  0  0  0  0  0  0  0
   -0.9653    3.3697    2.0792 N   0  0  0  0  0  0  0  0  0  0  0  0
   -1.8458    3.7609    2.9701 C   0  0  0  0  0  0  0  0  0  0  0  0
   -2.2742    4.7579    3.0212 H   0  0  0  0  0  0  0  0  0  0  0  0
   -2.1443    2.7220    3.8328 N   0  0  0  0  0  0  0  0  0  0  0  0
   -2.7931    2.7743    4.6159 H   0  0  0  0  0  0  0  0  0  0  0  0
   -1.4004    1.6240    3.4563 C   0  0  0  0  0  0  0  0  0  0  0  0
   -1.3681    0.6355    3.9068 H   0  0  0  0  0  0  0  0  0  0  0  0
    0.8036    0.1911   -0.6994 C   0  0  0  0  0  0  0  0  0  0  0  0
    0.4747   -0.6173   -1.5621 O   0  0  0  0  0  0  0  0  0  0  0  0
    2.1001    0.6774   -0.7232 N   0  0  0  0  0  0  0  0  0  0  0  0
    2.3581    1.3563   -0.0138 H   0  0  0  0  0  0  0  0  0  0  0  0
    3.1325    0.1667   -1.6170 C   0  0  0  0  0  0  0  0  0  0  0  0
    2.8486    0.3273   -2.6622 H   0  0  0  0  0  0  0  0  0  0  0  0
    4.0804    0.6815   -1.4336 H   0  0  0  0  0  0  0  0  0  0  0  0
    3.2842   -0.9054   -1.4530 H   0  0  0  0  0  0  0  0  0  0  0  0
  1  2  1  0  0  0  0
  2  3  1  0  0  0  0
  2  4  1  0  0  0  0
  2  5  1  0  0  0  0
  5  6  2  0  0  0  0
  5  7  1  0  0  0  0
  7  8  1  0  0  0  0
  7  9  1  0  0  0  0
  9 10  1  0  0  0  0
  9 11  1  0  0  0  0
  9 22  1  0  0  0  0
 11 12  1  0  0  0  0
 11 13  1  0  0  0  0
 11 14  1  0  0  0  0
 14 15  1  0  0  0  0
 14 20  2  0  0  0  0
 15 16  2  0  0  0  0
 16 17  1  0  0  0  0
 16 18  1  0  0  0  0
 18 19  1  0  0  0  0
 18 20  1  0  0  0  0
 20 21  1  0  0  0  0
 22 23  2  0  0  0  0
 22 24  1  0  0  0  0
 24 25  1  0  0  0  0
 24 26  1  0  0  0  0
 26 27  1  0  0  0  0
 26 28  1  0  0  0  0
 26 29  1  0  0  0  0
M  END
$$$$

  -OEChem-01062216083D

 29 29  0     1  0  0  0  0  0999 V2000
   -2.3897   -3.2575    1.0109 H   0  0  0  0  0  0  0  0  0  0  0  0
   -2.5859   -2.2672    0.5904 C   0  0  0  0  0  0  0  0  0  0  0  0
   -3.4855   -1.8575    1.0553 H   0  0  0  0  0  0  0  0  0  0  0  0
   -2.7518   -2.3698   -0.4850 H   0  0  0  0  0  0  0  0  0  0  0  0
   -1.4060   -1.3484    0.8446 C   0  0  0  0  0  0  0  0  0  0  0  0
   -0.4529   -1.7604    1.4868 O   0  0  0  0  0  0  0  0  0  0  0  0
   -1.4423   -0.0546    0.3595 N   0  0  0  0  0  0  0  0  0  0  0  0
   -2.2113    0.1380   -0.2749 H   0  0  0  0  0  0  0  0  0  0  0  0
   -0.2635    0.8276    0.2394 C   0  0  1  0  0  0  0  0  0  0  0  0
   -0.5884    1.7506   -0.2517 H   0  0  0  0  0  0  0  0  0  0  0  0
    0.2997    1.2336    1.6195 C   0  0  0  0  0  0  0  0  0  0  0  0
    0.5904    0.3568    2.2025 H   0  0  0  0  0  0  0  0  0  0  0  0
    1.1904    1.8540    1.4944 H   0  0  0  0  0  0  0  0  0  0  0  0
   -0.7042    2.0477    2.3749 C   0  0  0  0  0  0  0  0  0  0  0  0
   -0.9930    3.3759    2.0895 N   0  0  0  0  0  0  0  0  0  0  0  0
   -1.8790    3.7570    2.9790 C   0  0  0  0  0  0  0  0  0  0  0  0
   -2.3160    4.7502    3.0319 H   0  0  0  0  0  0  0  0  0  0  0  0
   -2.1702    2.7132    3.8382 N   0  0  0  0  0  0  0  0  0  0  0  0
   -2.8191    2.7589    4.6216 H   0  0  0  0  0  0  0  0  0  0  0  0
   -1.4158    1.6228    3.4604 C   0  0  0  0  0  0  0  0  0  0  0  0
   -1.3750    0.6342    3.9098 H   0  0  0  0  0  0  0  0  0  0  0  0
    0.8081    0.2120   -0.6981 C   0  0  0  0  0  0  0  0  0  0  0  0
    0.4496   -0.4148   -1.6901 O   0  0  0  0  0  0  0  0  0  0  0  0
    2.1599    0.4611   -0.5298 N   0  0  0  0  0  0  0  0  0  0  0  0
    2.4419    0.9233    0.3289 H   0  0  0  0  0  0  0  0  0  0  0  0
    3.1904   -0.1122   -1.3865 C   0  0  0  0  0  0  0  0  0  0  0  0
    3.0382    0.1937   -2.4268 H   0  0  0  0  0  0  0  0  0  0  0  0
    4.1798    0.2300   -1.0684 H   0  0  0  0  0  0  0  0  0  0  0  0
    3.1673   -1.2058   -1.3329 H   0  0  0  0  0  0  0  0  0  0  0  0
  1  2  1  0  0  0  0
  2  3  1  0  0  0  0
  2  4  1  0  0  0  0
  2  5  1  0  0  0  0
  5  6  2  0  0  0  0
  5  7  1  0  0  0  0
  7  8  1  0  0  0  0
  7  9  1  0  0  0  0
  9 10  1  0  0  0  0
  9 11  1  0  0  0  0
  9 22  1  0  0  0  0
 11 12  1  0  0  0  0
 11 13  1  0  0  0  0
 11 14  1  0  0  0  0
 14 15  1  0  0  0  0
 14 20  2  0  0  0  0
 15 16  2  0  0  0  0
 16 17  1  0  0  0  0
 16 18  1  0  0  0  0
 18 19  1  0  0  0  0
 18 20  1  0  0  0  0
 20 21  1  0  0  0  0
 22 23  2  0  0  0  0
 22 24  1  0  0  0  0
 24 25  1  0  0  0  0
 24 26  1  0  0  0  0
 26 27  1  0  0  0  0
 26 28  1  0  0  0  0
 26 29  1  0  0  0  0
M  END
$$$$

  -OEChem-01062216083D

 29 29  0     1  0  0  0  0  0999 V2000
   -2.3815   -3.2455    1.0161 H   0  0  0  0  0  0  0  0  0  0  0  0
   -2.5829   -2.2501    0.6100 C   0  0  0  0  0  0  0  0  0  0  0  0
   -3.4603   -1.8349    1.1114 H   0  0  0  0  0  0  0  0  0  0  0  0
   -2.7907   -2.3432   -0.4589 H   0  0  0  0  0  0  0  0  0  0  0  0
   -1.3853   -1.3445    0.8255 C   0  0  0  0  0  0  0  0  0  0  0  0
   -0.4107   -1.7692    1.4261 O   0  0  0  0  0  0  0  0  0  0  0  0
   -1.4238   -0.0487    0.3477 N   0  0  0  0  0  0  0  0  0  0  0  0
   -2.2114    0.1659   -0.2560 H   0  0  0  0  0  0  0  0  0  0  0  0
   -0.2505    0.8400    0.2379 C   0  0  1  0  0  0  0  0  0  0  0  0
   -0.5758    1.7634   -0.2529 H   0  0  0  0  0  0  0  0  0  0  0  0
    0.3004    1.2445    1.6225 C   0  0  0  0  0  0  0  0  0  0  0  0
    0.5871    0.3656    2.2045 H   0  0  0  0  0  0  0  0  0  0  0  0
    1.1918    1.8663    1.5025 H   0  0  0  0  0  0  0  0  0  0  0  0
   -0.7135    2.0507    2.3741 C   0  0  0  0  0  0  0  0  0  0  0  0
   -1.0097    3.3781    2.0933 N   0  0  0  0  0  0  0  0  0  0  0  0
   -1.9033    3.7499    2.9790 C   0  0  0  0  0  0  0  0  0  0  0  0
   -2.3463    4.7403    3.0340 H   0  0  0  0  0  0  0  0  0  0  0  0
   -2.1939    2.7000    3.8310 N   0  0  0  0  0  0  0  0  0  0  0  0
   -2.8468    2.7386    4.6116 H   0  0  0  0  0  0  0  0  0  0  0  0
   -1.4302    1.6163    3.4527 C   0  0  0  0  0  0  0  0  0  0  0  0
   -1.3858    0.6267    3.8993 H   0  0  0  0  0  0  0  0  0  0  0  0
    0.8235    0.2298   -0.6979 C   0  0  0  0  0  0  0  0  0  0  0  0
    0.4796   -0.2018   -1.7933 O   0  0  0  0  0  0  0  0  0  0  0  0
    2.1682    0.2185   -0.3678 N   0  0  0  0  0  0  0  0  0  0  0  0
    2.4016    0.4474    0.5935 H   0  0  0  0  0  0  0  0  0  0  0  0
    3.1830   -0.4212   -1.1955 C   0  0  0  0  0  0  0  0  0  0  0  0
    3.1840    0.0077   -2.2030 H   0  0  0  0  0  0  0  0  0  0  0  0
    4.1751   -0.2727   -0.7588 H   0  0  0  0  0  0  0  0  0  0  0  0
    2.9927   -1.4970   -1.2696 H   0  0  0  0  0  0  0  0  0  0  0  0
  1  2  1  0  0  0  0
  2  3  1  0  0  0  0
  2  4  1  0  0  0  0
  2  5  1  0  0  0  0
  5  6  2  0  0  0  0
  5  7  1  0  0  0  0
  7  8  1  0  0  0  0
  7  9  1  0  0  0  0
  9 10  1  0  0  0  0
  9 11  1  0  0  0  0
  9 22  1  0  0  0  0
 11 12  1  0  0  0  0
 11 13  1  0  0  0  0
 11 14  1  0  0  0  0
 14 15  1  0  0  0  0
 14 20  2  0  0  0  0
 15 16  2  0  0  0  0
 16 17  1  0  0  0  0
 16 18  1  0  0  0  0
 18 19  1  0  0  0  0
 18 20  1  0  0  0  0
 20 21  1  0  0  0  0
 22 23  2  0  0  0  0
 22 24  1  0  0  0  0
 24 25  1  0  0  0  0
 24 26  1  0  0  0  0
 26 27  1  0  0  0  0
 26 28  1  0  0  0  0
 26 29  1  0  0  0  0
M  END
$$$$

  -OEChem-01062216083D

 29 29  0     1  0  0  0  0  0999 V2000
   -2.3720   -3.2437    1.0236 H   0  0  0  0  0  0  0  0  0  0  0  0
   -2.5769   -2.2489    0.6179 C   0  0  0  0  0  0  0  0  0  0  0  0
   -3.4471   -1.8314    1.1298 H   0  0  0  0  0  0  0  0  0  0  0  0
   -2.7987   -2.3438   -0.4480 H   0  0  0  0  0  0  0  0  0  0  0  0
   -1.3748   -1.3453    0.8168 C   0  0  0  0  0  0  0  0  0  0  0  0
   -0.3894   -1.7724    1.3984 O   0  0  0  0  0  0  0  0  0  0  0  0
   -1.4145   -0.0492    0.3403 N   0  0  0  0  0  0  0  0  0  0  0  0
   -2.2138    0.1796   -0.2431 H   0  0  0  0  0  0  0  0  0  0  0  0
   -0.2439    0.8430    0.2392 C   0  0  1  0  0  0  0  0  0  0  0  0
   -0.5699    1.7657   -0.2530 H   0  0  0  0  0  0  0  0  0  0  0  0
    0.3027    1.2504    1.6237 C   0  0  0  0  0  0  0  0  0  0  0  0
    0.5863    0.3729    2.2093 H   0  0  0  0  0  0  0  0  0  0  0  0
    1.1961    1.8694    1.5008 H   0  0  0  0  0  0  0  0  0  0  0  0
   -0.7143    2.0546    2.3728 C   0  0  0  0  0  0  0  0  0  0  0  0
   -1.0135    3.3808    2.0901 N   0  0  0  0  0  0  0  0  0  0  0  0
   -1.9103    3.7517    2.9726 C   0  0  0  0  0  0  0  0  0  0  0  0
   -2.3557    4.7412    3.0245 H   0  0  0  0  0  0  0  0  0  0  0  0
   -2.2004    2.7020    3.8250 N   0  0  0  0  0  0  0  0  0  0  0  0
   -2.8560    2.7400    4.6033 H   0  0  0  0  0  0  0  0  0  0  0  0
   -1.4324    1.6197    3.4505 C   0  0  0  0  0  0  0  0  0  0  0  0
   -1.3864    0.6312    3.8989 H   0  0  0  0  0  0  0  0  0  0  0  0
    0.8354    0.2362   -0.6894 C   0  0  0  0  0  0  0  0  0  0  0  0
    0.5511    0.0192   -1.8620 O   0  0  0  0  0  0  0  0  0  0  0  0
    2.1127   -0.0505   -0.2396 N   0  0  0  0  0  0  0  0  0  0  0  0
    2.2371   -0.0578    0.7686 H   0  0  0  0  0  0  0  0  0  0  0  0
    3.1001   -0.7403   -1.0596 C   0  0  0  0  0  0  0  0  0  0  0  0
    3.2954   -0.1784   -1.9790 H   0  0  0  0  0  0  0  0  0  0  0  0
    4.0419   -0.8406   -0.5118 H   0  0  0  0  0  0  0  0  0  0  0  0
    2.7439   -1.7409   -1.3259 H   0  0  0  0  0  0  0  0  0  0  0  0
  1  2  1  0  0  0  0
  2  3  1  0  0  0  0
  2  4  1  0  0  0  0
  2  5  1  0  0  0  0
  5  6  2  0  0  0  0
  5  7  1  0  0  0  0
  7  8  1  0  0  0  0
  7  9  1  0  0  0  0
  9 10  1  0  0  0  0
  9 11  1  0  0  0  0
  9 22  1  0  0  0  0
 11 12  1  0  0  0  0
 11 13  1  0  0  0  0
 11 14  1  0  0  0  0
 14 15  1  0  0  0  0
 14 20  2  0  0  0  0
 15 16  2  0  0  0  0
 16 17  1  0  0  0  0
 16 18  1  0  0  0  0
 18 19  1  0  0  0  0
 18 20  1  0  0  0  0
 20 21  1  0  0  0  0
 22 23  2  0  0  0  0
 22 24  1  0  0  0  0
 24 25  1  0  0  0  0
 24 26  1  0  0  0  0
 26 27  1  0  0  0  0
 26 28  1  0  0  0  0
 26 29  1  0  0  0  0
M  END
$$$$

  -OEChem-01062216083D

 29 29  0     1  0  0  0  0  0999 V2000
   -2.3874   -3.2387    1.0437 H   0  0  0  0  0  0  0  0  0  0  0  0
   -2.5935   -2.2408    0.6462 C   0  0  0  0  0  0  0  0  0  0  0  0
   -3.4428   -1.8144    1.1852 H   0  0  0  0  0  0  0  0  0  0  0  0
   -2.8492   -2.3315   -0.4124 H   0  0  0  0  0  0  0  0  0  0  0  0
   -1.3759   -1.3513    0.8106 C   0  0  0  0  0  0  0  0  0  0  0  0
   -0.3811   -1.7878    1.3698 O   0  0  0  0  0  0  0  0  0  0  0  0
   -1.4076   -0.0571    0.3284 N   0  0  0  0  0  0  0  0  0  0  0  0
   -2.2226    0.1939   -0.2235 H   0  0  0  0  0  0  0  0  0  0  0  0
   -0.2358    0.8331    0.2332 C   0  0  1  0  0  0  0  0  0  0  0  0
   -0.5583    1.7554   -0.2620 H   0  0  0  0  0  0  0  0  0  0  0  0
    0.3046    1.2422    1.6193 C   0  0  0  0  0  0  0  0  0  0  0  0
    0.5815    0.3656    2.2091 H   0  0  0  0  0  0  0  0  0  0  0  0
    1.2033    1.8538    1.4969 H   0  0  0  0  0  0  0  0  0  0  0  0
   -0.7138    2.0500    2.3640 C   0  0  0  0  0  0  0  0  0  0  0  0
   -1.0105    3.3765    2.0802 N   0  0  0  0  0  0  0  0  0  0  0  0
   -1.9077    3.7506    2.9608 C   0  0  0  0  0  0  0  0  0  0  0  0
   -2.3499    4.7415    3.0124 H   0  0  0  0  0  0  0  0  0  0  0  0
   -2.2027    2.7019    3.8127 N   0  0  0  0  0  0  0  0  0  0  0  0
   -2.8573    2.7432    4.5917 H   0  0  0  0  0  0  0  0  0  0  0  0
   -1.4370    1.6174    3.4395 C   0  0  0  0  0  0  0  0  0  0  0  0
   -1.3952    0.6292    3.8891 H   0  0  0  0  0  0  0  0  0  0  0  0
    0.8526    0.2257   -0.6819 C   0  0  0  0  0  0  0  0  0  0  0  0
    0.6842    0.2422   -1.8955 O   0  0  0  0  0  0  0  0  0  0  0  0
    2.0054   -0.3354   -0.1620 N   0  0  0  0  0  0  0  0  0  0  0  0
    1.9562   -0.5819    0.8240 H   0  0  0  0  0  0  0  0  0  0  0  0
    2.9781   -1.0346   -0.9916 C   0  0  0  0  0  0  0  0  0  0  0  0
    3.3718   -0.3678   -1.7658 H   0  0  0  0  0  0  0  0  0  0  0  0
    3.8159   -1.3817   -0.3793 H   0  0  0  0  0  0  0  0  0  0  0  0
    2.5166   -1.9022   -1.4745 H   0  0  0  0  0  0  0  0  0  0  0  0
  1  2  1  0  0  0  0
  2  3  1  0  0  0  0
  2  4  1  0  0  0  0
  2  5  1  0  0  0  0
  5  6  2  0  0  0  0
  5  7  1  0  0  0  0
  7  8  1  0  0  0  0
  7  9  1  0  0  0  0
  9 10  1  0  0  0  0
  9 11  1  0  0  0  0
  9 22  1  0  0  0  0
 11 12  1  0  0  0  0
 11 13  1  0  0  0  0
 11 14  1  0  0  0  0
 14 15  1  0  0  0  0
 14 20  2  0  0  0  0
 15 16  2  0  0  0  0
 16 17  1  0  0  0  0
 16 18  1  0  0  0  0
 18 19  1  0  0  0  0
 18 20  1  0  0  0  0
 20 21  1  0  0  0  0
 22 23  2  0  0  0  0
 22 24  1  0  0  0  0
 24 25  1  0  0  0  0
 24 26  1  0  0  0  0
 26 27  1  0  0  0  0
 26 28  1  0  0  0  0
 26 29  1  0  0  0  0
M  END
$$$$

  -OEChem-01062216083D

 29 29  0     1  0  0  0  0  0999 V2000
   -2.4640   -3.2105    1.1021 H   0  0  0  0  0  0  0  0  0  0  0  0
   -2.6498   -2.2126    0.6951 C   0  0  0  0  0  0  0  0  0  0  0  0
   -3.4649   -1.7485    1.2555 H   0  0  0  0  0  0  0  0  0  0  0  0
   -2.9456   -2.3103   -0.3523 H   0  0  0  0  0  0  0  0  0  0  0  0
   -1.3980   -1.3631    0.8034 C   0  0  0  0  0  0  0  0  0  0  0  0
   -0.3995   -1.8228    1.3377 O   0  0  0  0  0  0  0  0  0  0  0  0
   -1.4073   -0.0731    0.3090 N   0  0  0  0  0  0  0  0  0  0  0  0
   -2.2478    0.2155   -0.1832 H   0  0  0  0  0  0  0  0  0  0  0  0
   -0.2325    0.8138    0.2116 C   0  0  1  0  0  0  0  0  0  0  0  0
   -0.5530    1.7360   -0.2854 H   0  0  0  0  0  0  0  0  0  0  0  0
    0.3076    1.2188    1.5980 C   0  0  0  0  0  0  0  0  0  0  0  0
    0.5821    0.3399    2.1860 H   0  0  0  0  0  0  0  0  0  0  0  0
    1.2094    1.8262    1.4764 H   0  0  0  0  0  0  0  0  0  0  0  0
   -0.7093    2.0285    2.3433 C   0  0  0  0  0  0  0  0  0  0  0  0
   -1.0037    3.3562    2.0630 N   0  0  0  0  0  0  0  0  0  0  0  0
   -1.8974    3.7311    2.9468 C   0  0  0  0  0  0  0  0  0  0  0  0
   -2.3375    4.7228    3.0015 H   0  0  0  0  0  0  0  0  0  0  0  0
   -2.1929    2.6815    3.7971 N   0  0  0  0  0  0  0  0  0  0  0  0
   -2.8442    2.7240    4.5787 H   0  0  0  0  0  0  0  0  0  0  0  0
   -1.4306    1.5960    3.4202 C   0  0  0  0  0  0  0  0  0  0  0  0
   -1.3879    0.6080    3.8695 H   0  0  0  0  0  0  0  0  0  0  0  0
    0.8704    0.2085   -0.6865 C   0  0  0  0  0  0  0  0  0  0  0  0
    0.8700    0.4535   -1.8866 O   0  0  0  0  0  0  0  0  0  0  0  0
    1.8557   -0.6027   -0.1544 N   0  0  0  0  0  0  0  0  0  0  0  0
    1.6124   -1.0223    0.7437 H   0  0  0  0  0  0  0  0  0  0  0  0
    2.8369   -1.2905   -0.9833 C   0  0  0  0  0  0  0  0  0  0  0  0
    3.4033   -0.5711   -1.5841 H   0  0  0  0  0  0  0  0  0  0  0  0
    3.5418   -1.8416   -0.3536 H   0  0  0  0  0  0  0  0  0  0  0  0
    2.3416   -1.9992   -1.6551 H   0  0  0  0  0  0  0  0  0  0  0  0
  1  2  1  0  0  0  0
  2  3  1  0  0  0  0
  2  4  1  0  0  0  0
  2  5  1  0  0  0  0
  5  6  2  0  0  0  0
  5  7  1  0  0  0  0
  7  8  1  0  0  0  0
  7  9  1  0  0  0  0
  9 10  1  0  0  0  0
  9 11  1  0  0  0  0
  9 22  1  0  0  0  0
 11 12  1  0  0  0  0
 11 13  1  0  0  0  0
 11 14  1  0  0  0  0
 14 15  1  0  0  0  0
 14 20  2  0  0  0  0
 15 16  2  0  0  0  0
 16 17  1  0  0  0  0
 16 18  1  0  0  0  0
 18 19  1  0  0  0  0
 18 20  1  0  0  0  0
 20 21  1  0  0  0  0
 22 23  2  0  0  0  0
 22 24  1  0  0  0  0
 24 25  1  0  0  0  0
 24 26  1  0  0  0  0
 26 27  1  0  0  0  0
 26 28  1  0  0  0  0
 26 29  1  0  0  0  0
M  END
$$$$

  -OEChem-01062216083D

 29 29  0     1  0  0  0  0  0999 V2000
   -2.5709   -3.1787    1.1560 H   0  0  0  0  0  0  0  0  0  0  0  0
   -2.7269   -2.1814    0.7350 C   0  0  0  0  0  0  0  0  0  0  0  0
   -3.5182   -1.6809    1.2983 H   0  0  0  0  0  0  0  0  0  0  0  0
   -3.0399   -2.2854   -0.3068 H   0  0  0  0  0  0  0  0  0  0  0  0
   -1.4448   -1.3742    0.8126 C   0  0  0  0  0  0  0  0  0  0  0  0
   -0.4601   -1.8586    1.3497 O   0  0  0  0  0  0  0  0  0  0  0  0
   -1.4202   -0.0925    0.2973 N   0  0  0  0  0  0  0  0  0  0  0  0
   -2.2725    0.2221   -0.1574 H   0  0  0  0  0  0  0  0  0  0  0  0
   -0.2410    0.7907    0.1844 C   0  0  1  0  0  0  0  0  0  0  0  0
   -0.5625    1.7116   -0.3150 H   0  0  0  0  0  0  0  0  0  0  0  0
    0.3057    1.1915    1.5679 C   0  0  0  0  0  0  0  0  0  0  0  0
    0.5808    0.3094    2.1510 H   0  0  0  0  0  0  0  0  0  0  0  0
    1.2097    1.7952    1.4427 H   0  0  0  0  0  0  0  0  0  0  0  0
   -0.7030    2.0041    2.3209 C   0  0  0  0  0  0  0  0  0  0  0  0
   -0.9956    3.3336    2.0482 N   0  0  0  0  0  0  0  0  0  0  0  0
   -1.8805    3.7081    2.9409 C   0  0  0  0  0  0  0  0  0  0  0  0
   -2.3152    4.7017    3.0042 H   0  0  0  0  0  0  0  0  0  0  0  0
   -2.1743    2.6554    3.7880 N   0  0  0  0  0  0  0  0  0  0  0  0
   -2.8184    2.6964    4.5756 H   0  0  0  0  0  0  0  0  0  0  0  0
   -1.4187    1.5691    3.4008 C   0  0  0  0  0  0  0  0  0  0  0  0
   -1.3758    0.5790    3.8459 H   0  0  0  0  0  0  0  0  0  0  0  0
    0.8825    0.1933   -0.6941 C   0  0  0  0  0  0  0  0  0  0  0  0
    1.0559    0.6242   -1.8271 O   0  0  0  0  0  0  0  0  0  0  0  0
    1.6879   -0.8275   -0.2249 N   0  0  0  0  0  0  0  0  0  0  0  0
    1.3272   -1.3135    0.5998 H   0  0  0  0  0  0  0  0  0  0  0  0
    2.6721   -1.5097   -1.0542 C   0  0  0  0  0  0  0  0  0  0  0  0
    3.3855   -0.7916   -1.4720 H   0  0  0  0  0  0  0  0  0  0  0  0
    3.2286   -2.2373   -0.4557 H   0  0  0  0  0  0  0  0  0  0  0  0
    2.1796   -2.0383   -1.8768 H   0  0  0  0  0  0  0  0  0  0  0  0
  1  2  1  0  0  0  0
  2  3  1  0  0  0  0
  2  4  1  0  0  0  0
  2  5  1  0  0  0  0
  5  6  2  0  0  0  0
  5  7  1  0  0  0  0
  7  8  1  0  0  0  0
  7  9  1  0  0  0  0
  9 10  1  0  0  0  0
  9 11  1  0  0  0  0
  9 22  1  0  0  0  0
 11 12  1  0  0  0  0
 11 13  1  0  0  0  0
 11 14  1  0  0  0  0
 14 15  1  0  0  0  0
 14 20  2  0  0  0  0
 15 16  2  0  0  0  0
 16 17  1  0  0  0  0
 16 18  1  0  0  0  0
 18 19  1  0  0  0  0
 18 20  1  0  0  0  0
 20 21  1  0  0  0  0
 22 23  2  0  0  0  0
 22 24  1  0  0  0  0
 24 25  1  0  0  0  0
 24 26  1  0  0  0  0
 26 27  1  0  0  0  0
 26 28  1  0  0  0  0
 26 29  1  0  0  0  0
M  END
$$$$

  -OEChem-01062216083D

 29 29  0     1  0  0  0  0  0999 V2000
   -2.6865   -3.1551    1.2052 H   0  0  0  0  0  0  0  0  0  0  0  0
   -2.8122   -2.1613    0.7659 C   0  0  0  0  0  0  0  0  0  0  0  0
   -3.5885   -1.6273    1.3191 H   0  0  0  0  0  0  0  0  0  0  0  0
   -3.1273   -2.2751   -0.2742 H   0  0  0  0  0  0  0  0  0  0  0  0
   -1.5070   -1.3910    0.8294 C   0  0  0  0  0  0  0  0  0  0  0  0
   -0.5359   -1.9001    1.3666 O   0  0  0  0  0  0  0  0  0  0  0  0
   -1.4507   -0.1169    0.2979 N   0  0  0  0  0  0  0  0  0  0  0  0
   -2.3098    0.2196   -0.1275 H   0  0  0  0  0  0  0  0  0  0  0  0
   -0.2645    0.7580    0.1642 C   0  0  1  0  0  0  0  0  0  0  0  0
   -0.5883    1.6771   -0.3371 H   0  0  0  0  0  0  0  0  0  0  0  0
    0.2966    1.1588    1.5408 C   0  0  0  0  0  0  0  0  0  0  0  0
    0.5712    0.2742    2.1209 H   0  0  0  0  0  0  0  0  0  0  0  0
    1.2033    1.7567    1.4060 H   0  0  0  0  0  0  0  0  0  0  0  0
   -0.6986    1.9813    2.3009 C   0  0  0  0  0  0  0  0  0  0  0  0
   -0.9841    3.3122    2.0275 N   0  0  0  0  0  0  0  0  0  0  0  0
   -1.8541    3.6972    2.9302 C   0  0  0  0  0  0  0  0  0  0  0  0
   -2.2796    4.6948    2.9950 H   0  0  0  0  0  0  0  0  0  0  0  0
   -2.1450    2.6498    3.7850 N   0  0  0  0  0  0  0  0  0  0  0  0
   -2.7753    2.7002    4.5832 H   0  0  0  0  0  0  0  0  0  0  0  0
   -1.4023    1.5562    3.3925 C   0  0  0  0  0  0  0  0  0  0  0  0
   -1.3576    0.5687    3.8432 H   0  0  0  0  0  0  0  0  0  0  0  0
    0.8716    0.1689   -0.7059 C   0  0  0  0  0  0  0  0  0  0  0  0
    1.2199    0.7594   -1.7201 O   0  0  0  0  0  0  0  0  0  0  0  0
    1.4923   -1.0208   -0.3775 N   0  0  0  0  0  0  0  0  0  0  0  0
    1.0757   -1.5440    0.3972 H   0  0  0  0  0  0  0  0  0  0  0  0
    2.5017   -1.6654   -1.2055 C   0  0  0  0  0  0  0  0  0  0  0  0
    3.3442   -0.9880   -1.3797 H   0  0  0  0  0  0  0  0  0  0  0  0
    2.8792   -2.5632   -0.7070 H   0  0  0  0  0  0  0  0  0  0  0  0
    2.0757   -1.9559   -2.1711 H   0  0  0  0  0  0  0  0  0  0  0  0
  1  2  1  0  0  0  0
  2  3  1  0  0  0  0
  2  4  1  0  0  0  0
  2  5  1  0  0  0  0
  5  6  2  0  0  0  0
  5  7  1  0  0  0  0
  7  8  1  0  0  0  0
  7  9  1  0  0  0  0
  9 10  1  0  0  0  0
  9 11  1  0  0  0  0
  9 22  1  0  0  0  0
 11 12  1  0  0  0  0
 11 13  1  0  0  0  0
 11 14  1  0  0  0  0
 14 15  1  0  0  0  0
 14 20  2  0  0  0  0
 15 16  2  0  0  0  0
 16 17  1  0  0  0  0
 16 18  1  0  0  0  0
 18 19  1  0  0  0  0
 18 20  1  0  0  0  0
 20 21  1  0  0  0  0
 22 23  2  0  0  0  0
 22 24  1  0  0  0  0
 24 25  1  0  0  0  0
 24 26  1  0  0  0  0
 26 27  1  0  0  0  0
 26 28  1  0  0  0  0
 26 29  1  0  0  0  0
M  END
$$$$

  -OEChem-01062216083D

 29 29  0     1  0  0  0  0  0999 V2000
   -2.7917   -3.1197    1.2826 H   0  0  0  0  0  0  0  0  0  0  0  0
   -2.9004   -2.1331    0.8230 C   0  0  0  0  0  0  0  0  0  0  0  0
   -3.6436   -1.5628    1.3855 H   0  0  0  0  0  0  0  0  0  0  0  0
   -3.2498   -2.2612   -0.2045 H   0  0  0  0  0  0  0  0  0  0  0  0
   -1.5714   -1.4021    0.8312 C   0  0  0  0  0  0  0  0  0  0  0  0
   -0.5975   -1.9365    1.3371 O   0  0  0  0  0  0  0  0  0  0  0  0
   -1.4982   -0.1340    0.2875 N   0  0  0  0  0  0  0  0  0  0  0  0
   -2.3670    0.2267   -0.0961 H   0  0  0  0  0  0  0  0  0  0  0  0
   -0.3048    0.7286    0.1260 C   0  0  1  0  0  0  0  0  0  0  0  0
   -0.6303    1.6488   -0.3719 H   0  0  0  0  0  0  0  0  0  0  0  0
    0.2790    1.1224    1.4944 C   0  0  0  0  0  0  0  0  0  0  0  0
    0.5542    0.2330    2.0673 H   0  0  0  0  0  0  0  0  0  0  0  0
    1.1897    1.7114    1.3478 H   0  0  0  0  0  0  0  0  0  0  0  0
   -0.6959    1.9548    2.2708 C   0  0  0  0  0  0  0  0  0  0  0  0
   -0.9727    3.2893    2.0049 N   0  0  0  0  0  0  0  0  0  0  0  0
   -1.8196    3.6835    2.9254 C   0  0  0  0  0  0  0  0  0  0  0  0
   -2.2323    4.6856    2.9992 H   0  0  0  0  0  0  0  0  0  0  0  0
   -2.1041    2.6391    3.7858 N   0  0  0  0  0  0  0  0  0  0  0  0
   -2.7135    2.6976    4.5996 H   0  0  0  0  0  0  0  0  0  0  0  0
   -1.3811    1.5378    3.3776 C   0  0  0  0  0  0  0  0  0  0  0  0
   -1.3357    0.5509    3.8298 H   0  0  0  0  0  0  0  0  0  0  0  0
    0.8287    0.1426   -0.7523 C   0  0  0  0  0  0  0  0  0  0  0  0
    1.3553    0.8526   -1.5992 O   0  0  0  0  0  0  0  0  0  0  0  0
    1.2593   -1.1637   -0.6238 N   0  0  0  0  0  0  0  0  0  0  0  0
    0.8297   -1.7110    0.1265 H   0  0  0  0  0  0  0  0  0  0  0  0
    2.3466   -1.7464   -1.3975 C   0  0  0  0  0  0  0  0  0  0  0  0
    3.2732   -1.1849   -1.2391 H   0  0  0  0  0  0  0  0  0  0  0  0
    2.5128   -2.7832   -1.0899 H   0  0  0  0  0  0  0  0  0  0  0  0
    2.1045   -1.7364   -2.4653 H   0  0  0  0  0  0  0  0  0  0  0  0
  1  2  1  0  0  0  0
  2  3  1  0  0  0  0
  2  4  1  0  0  0  0
  2  5  1  0  0  0  0
  5  6  2  0  0  0  0
  5  7  1  0  0  0  0
  7  8  1  0  0  0  0
  7  9  1  0  0  0  0
  9 10  1  0  0  0  0
  9 11  1  0  0  0  0
  9 22  1  0  0  0  0
 11 12  1  0  0  0  0
 11 13  1  0  0  0  0
 11 14  1  0  0  0  0
 14 15  1  0  0  0  0
 14 20  2  0  0  0  0
 15 16  2  0  0  0  0
 16 17  1  0  0  0  0
 16 18  1  0  0  0  0
 18 19  1  0  0  0  0
 18 20  1  0  0  0  0
 20 21  1  0  0  0  0
 22 23  2  0  0  0  0
 22 24  1  0  0  0  0
 24 25  1  0  0  0  0
 24 26  1  0  0  0  0
 26 27  1  0  0  0  0
 26 28  1  0  0  0  0
 26 29  1  0  0  0  0
M  END
$$$$

  -OEChem-01062216083D

 29 29  0     1  0  0  0  0  0999 V2000
   -2.8422   -3.0807    1.3496 H   0  0  0  0  0  0  0  0  0  0  0  0
   -2.9487   -2.0936    0.8909 C   0  0  0  0  0  0  0  0  0  0  0  0
   -3.6402   -1.4989    1.4928 H   0  0  0  0  0  0  0  0  0  0  0  0
   -3.3619   -2.2158   -0.1133 H   0  0  0  0  0  0  0  0  0  0  0  0
   -1.6007   -1.4024    0.8159 C   0  0  0  0  0  0  0  0  0  0  0  0
   -0.6111   -1.9697    1.2491 O   0  0  0  0  0  0  0  0  0  0  0  0
   -1.5231   -0.1363    0.2691 N   0  0  0  0  0  0  0  0  0  0  0  0
   -2.4058    0.2583   -0.0430 H   0  0  0  0  0  0  0  0  0  0  0  0
   -0.3260    0.7195    0.0928 C   0  0  1  0  0  0  0  0  0  0  0  0
   -0.6511    1.6420   -0.4009 H   0  0  0  0  0  0  0  0  0  0  0  0
    0.2666    1.1016    1.4611 C   0  0  0  0  0  0  0  0  0  0  0  0
    0.5391    0.2059    2.0256 H   0  0  0  0  0  0  0  0  0  0  0  0
    1.1803    1.6862    1.3145 H   0  0  0  0  0  0  0  0  0  0  0  0
   -0.6987    1.9354    2.2482 C   0  0  0  0  0  0  0  0  0  0  0  0
   -0.9698    3.2732    1.9941 N   0  0  0  0  0  0  0  0  0  0  0  0
   -1.8073    3.6657    2.9237 C   0  0  0  0  0  0  0  0  0  0  0  0
   -2.2139    4.6694    3.0081 H   0  0  0  0  0  0  0  0  0  0  0  0
   -2.0924    2.6164    3.7780 N   0  0  0  0  0  0  0  0  0  0  0  0
   -2.6936    2.6731    4.5980 H   0  0  0  0  0  0  0  0  0  0  0  0
   -1.3789    1.5142    3.3566 C   0  0  0  0  0  0  0  0  0  0  0  0
   -1.3352    0.5243    3.8023 H   0  0  0  0  0  0  0  0  0  0  0  0
    0.8062    0.1397   -0.7941 C   0  0  0  0  0  0  0  0  0  0  0  0
    1.4945    0.9083   -1.4531 O   0  0  0  0  0  0  0  0  0  0  0  0
    1.0477   -1.2171   -0.8990 N   0  0  0  0  0  0  0  0  0  0  0  0
    0.5807   -1.8011   -0.2016 H   0  0  0  0  0  0  0  0  0  0  0  0
    2.1664   -1.7797   -1.6433 C   0  0  0  0  0  0  0  0  0  0  0  0
    3.1169   -1.4109   -1.2441 H   0  0  0  0  0  0  0  0  0  0  0  0
    2.1574   -2.8712   -1.5668 H   0  0  0  0  0  0  0  0  0  0  0  0
    2.0977   -1.5072   -2.7016 H   0  0  0  0  0  0  0  0  0  0  0  0
  1  2  1  0  0  0  0
  2  3  1  0  0  0  0
  2  4  1  0  0  0  0
  2  5  1  0  0  0  0
  5  6  2  0  0  0  0
  5  7  1  0  0  0  0
  7  8  1  0  0  0  0
  7  9  1  0  0  0  0
  9 10  1  0  0  0  0
  9 11  1  0  0  0  0
  9 22  1  0  0  0  0
 11 12  1  0  0  0  0
 11 13  1  0  0  0  0
 11 14  1  0  0  0  0
 14 15  1  0  0  0  0
 14 20  2  0  0  0  0
 15 16  2  0  0  0  0
 16 17  1  0  0  0  0
 16 18  1  0  0  0  0
 18 19  1  0  0  0  0
 18 20  1  0  0  0  0
 20 21  1  0  0  0  0
 22 23  2  0  0  0  0
 22 24  1  0  0  0  0
 24 25  1  0  0  0  0
 24 26  1  0  0  0  0
 26 27  1  0  0  0  0
 26 28  1  0  0  0  0
 26 29  1  0  0  0  0
M  END
$$$$

  -OEChem-01062216083D

 29 29  0     1  0  0  0  0  0999 V2000
   -2.8407   -3.0453    1.4047 H   0  0  0  0  0  0  0  0  0  0  0  0
   -2.9537   -2.0563    0.9514 C   0  0  0  0  0  0  0  0  0  0  0  0
   -3.5904   -1.4451    1.5956 H   0  0  0  0  0  0  0  0  0  0  0  0
   -3.4345   -2.1690   -0.0235 H   0  0  0  0  0  0  0  0  0  0  0  0
   -1.5972   -1.3977    0.7871 C   0  0  0  0  0  0  0  0  0  0  0  0
   -0.5910   -1.9995    1.1226 O   0  0  0  0  0  0  0  0  0  0  0  0
   -1.5241   -0.1295    0.2461 N   0  0  0  0  0  0  0  0  0  0  0  0
   -2.4167    0.3004    0.0208 H   0  0  0  0  0  0  0  0  0  0  0  0
   -0.3249    0.7241    0.0738 C   0  0  1  0  0  0  0  0  0  0  0  0
   -0.6464    1.6497   -0.4160 H   0  0  0  0  0  0  0  0  0  0  0  0
    0.2579    1.0935    1.4504 C   0  0  0  0  0  0  0  0  0  0  0  0
    0.5229    0.1913    2.0081 H   0  0  0  0  0  0  0  0  0  0  0  0
    1.1745    1.6773    1.3186 H   0  0  0  0  0  0  0  0  0  0  0  0
   -0.7124    1.9232    2.2366 C   0  0  0  0  0  0  0  0  0  0  0  0
   -0.9803    3.2637    1.9930 N   0  0  0  0  0  0  0  0  0  0  0  0
   -1.8186    3.6511    2.9240 C   0  0  0  0  0  0  0  0  0  0  0  0
   -2.2208    4.6560    3.0173 H   0  0  0  0  0  0  0  0  0  0  0  0
   -2.1102    2.5947    3.7670 N   0  0  0  0  0  0  0  0  0  0  0  0
   -2.7105    2.6472    4.5879 H   0  0  0  0  0  0  0  0  0  0  0  0
   -1.3980    1.4943    3.3386 C   0  0  0  0  0  0  0  0  0  0  0  0
   -1.3559    0.5015    3.7778 H   0  0  0  0  0  0  0  0  0  0  0  0
    0.8099    0.1505   -0.8159 C   0  0  0  0  0  0  0  0  0  0  0  0
    1.6420    0.9179   -1.2833 O   0  0  0  0  0  0  0  0  0  0  0  0
    0.8702   -1.1844   -1.1713 N   0  0  0  0  0  0  0  0  0  0  0  0
    0.3397   -1.8085   -0.5610 H   0  0  0  0  0  0  0  0  0  0  0  0
    1.9737   -1.7512   -1.9359 C   0  0  0  0  0  0  0  0  0  0  0  0
    2.9200   -1.6154   -1.4019 H   0  0  0  0  0  0  0  0  0  0  0  0
    1.8125   -2.8222   -2.0916 H   0  0  0  0  0  0  0  0  0  0  0  0
    2.0488   -1.2683   -2.9157 H   0  0  0  0  0  0  0  0  0  0  0  0
  1  2  1  0  0  0  0
  2  3  1  0  0  0  0
  2  4  1  0  0  0  0
  2  5  1  0  0  0  0
  5  6  2  0  0  0  0
  5  7  1  0  0  0  0
  7  8  1  0  0  0  0
  7  9  1  0  0  0  0
  9 10  1  0  0  0  0
  9 11  1  0  0  0  0
  9 22  1  0  0  0  0
 11 12  1  0  0  0  0
 11 13  1  0  0  0  0
 11 14  1  0  0  0  0
 14 15  1  0  0  0  0
 14 20  2  0  0  0  0
 15 16  2  0  0  0  0
 16 17  1  0  0  0  0
 16 18  1  0  0  0  0
 18 19  1  0  0  0  0
 18 20  1  0  0  0  0
 20 21  1  0  0  0  0
 22 23  2  0  0  0  0
 22 24  1  0  0  0  0
 24 25  1  0  0  0  0
 24 26  1  0  0  0  0
 26 27  1  0  0  0  0
 26 28  1  0  0  0  0
 26 29  1  0  0  0  0
M  END
$$$$

  -OEChem-01062216083D

 29 29  0     1  0  0  0  0  0999 V2000
   -2.7933   -3.0202    1.4483 H   0  0  0  0  0  0  0  0  0  0  0  0
   -2.9237   -2.0303    1.0015 C   0  0  0  0  0  0  0  0  0  0  0  0
   -3.5086   -1.4108    1.6857 H   0  0  0  0  0  0  0  0  0  0  0  0
   -3.4689   -2.1382    0.0608 H   0  0  0  0  0  0  0  0  0  0  0  0
   -1.5729   -1.3889    0.7474 C   0  0  0  0  0  0  0  0  0  0  0  0
   -0.5544   -2.0155    0.9822 O   0  0  0  0  0  0  0  0  0  0  0  0
   -1.5133   -0.1147    0.2193 N   0  0  0  0  0  0  0  0  0  0  0  0
   -2.4097    0.3437    0.0820 H   0  0  0  0  0  0  0  0  0  0  0  0
   -0.3116    0.7389    0.0634 C   0  0  1  0  0  0  0  0  0  0  0  0
   -0.6250    1.6692   -0.4224 H   0  0  0  0  0  0  0  0  0  0  0  0
    0.2547    1.0927    1.4524 C   0  0  0  0  0  0  0  0  0  0  0  0
    0.5098    0.1825    2.0020 H   0  0  0  0  0  0  0  0  0  0  0  0
    1.1739    1.6765    1.3428 H   0  0  0  0  0  0  0  0  0  0  0  0
   -0.7241    1.9150    2.2352 C   0  0  0  0  0  0  0  0  0  0  0  0
   -0.9857    3.2582    2.0014 N   0  0  0  0  0  0  0  0  0  0  0  0
   -1.8341    3.6389    2.9258 C   0  0  0  0  0  0  0  0  0  0  0  0
   -2.2336    4.6442    3.0243 H   0  0  0  0  0  0  0  0  0  0  0  0
   -2.1401    2.5749    3.7542 N   0  0  0  0  0  0  0  0  0  0  0  0
   -2.7498    2.6213    4.5688 H   0  0  0  0  0  0  0  0  0  0  0  0
   -1.4256    1.4767    3.3236 C   0  0  0  0  0  0  0  0  0  0  0  0
   -1.3911    0.4801    3.7544 H   0  0  0  0  0  0  0  0  0  0  0  0
    0.8222    0.1659   -0.8283 C   0  0  0  0  0  0  0  0  0  0  0  0
    1.7838    0.8731   -1.1040 O   0  0  0  0  0  0  0  0  0  0  0  0
    0.7151   -1.0709   -1.4379 N   0  0  0  0  0  0  0  0  0  0  0  0
    0.0896   -1.7142   -0.9538 H   0  0  0  0  0  0  0  0  0  0  0  0
    1.7908   -1.6467   -2.2351 C   0  0  0  0  0  0  0  0  0  0  0  0
    2.6921   -1.7754   -1.6269 H   0  0  0  0  0  0  0  0  0  0  0  0
    1.4900   -2.6244   -2.6232 H   0  0  0  0  0  0  0  0  0  0  0  0
    2.0280   -0.9981   -3.0847 H   0  0  0  0  0  0  0  0  0  0  0  0
  1  2  1  0  0  0  0
  2  3  1  0  0  0  0
  2  4  1  0  0  0  0
  2  5  1  0  0  0  0
  5  6  2  0  0  0  0
  5  7  1  0  0  0  0
  7  8  1  0  0  0  0
  7  9  1  0  0  0  0
  9 10  1  0  0  0  0
  9 11  1  0  0  0  0
  9 22  1  0  0  0  0
 11 12  1  0  0  0  0
 11 13  1  0  0  0  0
 11 14  1  0  0  0  0
 14 15  1  0  0  0  0
 14 20  2  0  0  0  0
 15 16  2  0  0  0  0
 16 17  1  0  0  0  0
 16 18  1  0  0  0  0
 18 19  1  0  0  0  0
 18 20  1  0  0  0  0
 20 21  1  0  0  0  0
 22 23  2  0  0  0  0
 22 24  1  0  0  0  0
 24 25  1  0  0  0  0
 24 26  1  0  0  0  0
 26 27  1  0  0  0  0
 26 28  1  0  0  0  0
 26 29  1  0  0  0  0
M  END
$$$$

  -OEChem-01062216083D

 29 29  0     1  0  0  0  0  0999 V2000
   -2.7205   -3.0249    1.4415 H   0  0  0  0  0  0  0  0  0  0  0  0
   -2.8688   -2.0317    1.0079 C   0  0  0  0  0  0  0  0  0  0  0  0
   -3.4318   -1.4198    1.7170 H   0  0  0  0  0  0  0  0  0  0  0  0
   -3.4454   -2.1331    0.0853 H   0  0  0  0  0  0  0  0  0  0  0  0
   -1.5289   -1.3840    0.7142 C   0  0  0  0  0  0  0  0  0  0  0  0
   -0.5014   -2.0095    0.9032 O   0  0  0  0  0  0  0  0  0  0  0  0
   -1.4907   -0.1015    0.2044 N   0  0  0  0  0  0  0  0  0  0  0  0
   -2.3897    0.3657    0.1277 H   0  0  0  0  0  0  0  0  0  0  0  0
   -0.2913    0.7570    0.0673 C   0  0  1  0  0  0  0  0  0  0  0  0
   -0.6017    1.6898   -0.4147 H   0  0  0  0  0  0  0  0  0  0  0  0
    0.2581    1.1041    1.4659 C   0  0  0  0  0  0  0  0  0  0  0  0
    0.5106    0.1907    2.0117 H   0  0  0  0  0  0  0  0  0  0  0  0
    1.1756    1.6935    1.3740 H   0  0  0  0  0  0  0  0  0  0  0  0
   -0.7341    1.9176    2.2412 C   0  0  0  0  0  0  0  0  0  0  0  0
   -0.9980    3.2613    2.0110 N   0  0  0  0  0  0  0  0  0  0  0  0
   -1.8548    3.6360    2.9302 C   0  0  0  0  0  0  0  0  0  0  0  0
   -2.2571    4.6401    3.0309 H   0  0  0  0  0  0  0  0  0  0  0  0
   -2.1653    2.5671    3.7505 N   0  0  0  0  0  0  0  0  0  0  0  0
   -2.7782    2.6096    4.5627 H   0  0  0  0  0  0  0  0  0  0  0  0
   -1.4430    1.4731    3.3222 C   0  0  0  0  0  0  0  0  0  0  0  0
   -1.4062    0.4761    3.7519 H   0  0  0  0  0  0  0  0  0  0  0  0
    0.8352    0.1830   -0.8336 C   0  0  0  0  0  0  0  0  0  0  0  0
    1.9143    0.7584   -0.9113 O   0  0  0  0  0  0  0  0  0  0  0  0
    0.5910   -0.8795   -1.6853 N   0  0  0  0  0  0  0  0  0  0  0  0
   -0.1890   -1.4680   -1.4059 H   0  0  0  0  0  0  0  0  0  0  0  0
    1.6336   -1.4788   -2.5088 C   0  0  0  0  0  0  0  0  0  0  0  0
    2.4339   -1.8819   -1.8795 H   0  0  0  0  0  0  0  0  0  0  0  0
    1.2181   -2.2939   -3.1087 H   0  0  0  0  0  0  0  0  0  0  0  0
    2.0605   -0.7347   -3.1894 H   0  0  0  0  0  0  0  0  0  0  0  0
  1  2  1  0  0  0  0
  2  3  1  0  0  0  0
  2  4  1  0  0  0  0
  2  5  1  0  0  0  0
  5  6  2  0  0  0  0
  5  7  1  0  0  0  0
  7  8  1  0  0  0  0
  7  9  1  0  0  0  0
  9 10  1  0  0  0  0
  9 11  1  0  0  0  0
  9 22  1  0  0  0  0
 11 12  1  0  0  0  0
 11 13  1  0  0  0  0
 11 14  1  0  0  0  0
 14 15  1  0  0  0  0
 14 20  2  0  0  0  0
 15 16  2  0  0  0  0
 16 17  1  0  0  0  0
 16 18  1  0  0  0  0
 18 19  1  0  0  0  0
 18 20  1  0  0  0  0
 20 21  1  0  0  0  0
 22 23  2  0  0  0  0
 22 24  1  0  0  0  0
 24 25  1  0  0  0  0
 24 26  1  0  0  0  0
 26 27  1  0  0  0  0
 26 28  1  0  0  0  0
 26 29  1  0  0  0  0
M  END
$$$$

  -OEChem-01062216083D

 29 29  0     1  0  0  0  0  0999 V2000
   -2.6389   -3.0529    1.3852 H   0  0  0  0  0  0  0  0  0  0  0  0
   -2.8025   -2.0548    0.9685 C   0  0  0  0  0  0  0  0  0  0  0  0
   -3.3867   -1.4681    1.6814 H   0  0  0  0  0  0  0  0  0  0  0  0
   -3.3656   -2.1510    0.0371 H   0  0  0  0  0  0  0  0  0  0  0  0
   -1.4723   -1.3752    0.7037 C   0  0  0  0  0  0  0  0  0  0  0  0
   -0.4361   -1.9770    0.9185 O   0  0  0  0  0  0  0  0  0  0  0  0
   -1.4549   -0.0858    0.2083 N   0  0  0  0  0  0  0  0  0  0  0  0
   -2.3588    0.3743    0.1474 H   0  0  0  0  0  0  0  0  0  0  0  0
   -0.2611    0.7814    0.0871 C   0  0  1  0  0  0  0  0  0  0  0  0
   -0.5698    1.7157   -0.3932 H   0  0  0  0  0  0  0  0  0  0  0  0
    0.2783    1.1288    1.4899 C   0  0  0  0  0  0  0  0  0  0  0  0
    0.5367    0.2167    2.0355 H   0  0  0  0  0  0  0  0  0  0  0  0
    1.1900    1.7280    1.4049 H   0  0  0  0  0  0  0  0  0  0  0  0
   -0.7283    1.9322    2.2562 C   0  0  0  0  0  0  0  0  0  0  0  0
   -1.0028    3.2736    2.0249 N   0  0  0  0  0  0  0  0  0  0  0  0
   -1.8783    3.6357    2.9315 C   0  0  0  0  0  0  0  0  0  0  0  0
   -2.2939    4.6346    3.0271 H   0  0  0  0  0  0  0  0  0  0  0  0
   -2.1901    2.5614    3.7442 N   0  0  0  0  0  0  0  0  0  0  0  0
   -2.8182    2.5940    4.5452 H   0  0  0  0  0  0  0  0  0  0  0  0
   -1.4496    1.4766    3.3242 C   0  0  0  0  0  0  0  0  0  0  0  0
   -1.4110    0.4776    3.7490 H   0  0  0  0  0  0  0  0  0  0  0  0
    0.8517    0.1965   -0.8234 C   0  0  0  0  0  0  0  0  0  0  0  0
    2.0159    0.5651   -0.7204 O   0  0  0  0  0  0  0  0  0  0  0  0
    0.5120   -0.6322   -1.8785 N   0  0  0  0  0  0  0  0  0  0  0  0
   -0.4155   -1.0407   -1.8311 H   0  0  0  0  0  0  0  0  0  0  0  0
    1.5045   -1.2631   -2.7392 C   0  0  0  0  0  0  0  0  0  0  0  0
    2.1562   -1.9197   -2.1534 H   0  0  0  0  0  0  0  0  0  0  0  0
    1.0097   -1.8611   -3.5102 H   0  0  0  0  0  0  0  0  0  0  0  0
    2.1204   -0.5054   -3.2351 H   0  0  0  0  0  0  0  0  0  0  0  0
  1  2  1  0  0  0  0
  2  3  1  0  0  0  0
  2  4  1  0  0  0  0
  2  5  1  0  0  0  0
  5  6  2  0  0  0  0
  5  7  1  0  0  0  0
  7  8  1  0  0  0  0
  7  9  1  0  0  0  0
  9 10  1  0  0  0  0
  9 11  1  0  0  0  0
  9 22  1  0  0  0  0
 11 12  1  0  0  0  0
 11 13  1  0  0  0  0
 11 14  1  0  0  0  0
 14 15  1  0  0  0  0
 14 20  2  0  0  0  0
 15 16  2  0  0  0  0
 16 17  1  0  0  0  0
 16 18  1  0  0  0  0
 18 19  1  0  0  0  0
 18 20  1  0  0  0  0
 20 21  1  0  0  0  0
 22 23  2  0  0  0  0
 22 24  1  0  0  0  0
 24 25  1  0  0  0  0
 24 26  1  0  0  0  0
 26 27  1  0  0  0  0
 26 28  1  0  0  0  0
 26 29  1  0  0  0  0
M  END
$$$$

  -OEChem-01062216083D

 29 29  0     1  0  0  0  0  0999 V2000
   -2.6118   -3.0728    1.3537 H   0  0  0  0  0  0  0  0  0  0  0  0
   -2.7765   -2.0734    0.9405 C   0  0  0  0  0  0  0  0  0  0  0  0
   -3.3745   -1.4951    1.6490 H   0  0  0  0  0  0  0  0  0  0  0  0
   -3.3261   -2.1681    0.0009 H   0  0  0  0  0  0  0  0  0  0  0  0
   -1.4473   -1.3831    0.6982 C   0  0  0  0  0  0  0  0  0  0  0  0
   -0.4112   -1.9743    0.9403 O   0  0  0  0  0  0  0  0  0  0  0  0
   -1.4346   -0.0912    0.2085 N   0  0  0  0  0  0  0  0  0  0  0  0
   -2.3408    0.3628    0.1419 H   0  0  0  0  0  0  0  0  0  0  0  0
   -0.2441    0.7803    0.1009 C   0  0  1  0  0  0  0  0  0  0  0  0
   -0.5504    1.7139   -0.3818 H   0  0  0  0  0  0  0  0  0  0  0  0
    0.2839    1.1350    1.5063 C   0  0  0  0  0  0  0  0  0  0  0  0
    0.5415    0.2261    2.0574 H   0  0  0  0  0  0  0  0  0  0  0  0
    1.1947    1.7364    1.4246 H   0  0  0  0  0  0  0  0  0  0  0  0
   -0.7308    1.9370    2.2629 C   0  0  0  0  0  0  0  0  0  0  0  0
   -1.0073    3.2768    2.0232 N   0  0  0  0  0  0  0  0  0  0  0  0
   -1.8855    3.6424    2.9258 C   0  0  0  0  0  0  0  0  0  0  0  0
   -2.3029    4.6415    3.0155 H   0  0  0  0  0  0  0  0  0  0  0  0
   -2.1978    2.5717    3.7432 N   0  0  0  0  0  0  0  0  0  0  0  0
   -2.8285    2.6070    4.5422 H   0  0  0  0  0  0  0  0  0  0  0  0
   -1.4540    1.4858    3.3314 C   0  0  0  0  0  0  0  0  0  0  0  0
   -1.4121    0.4899    3.7634 H   0  0  0  0  0  0  0  0  0  0  0  0
    0.8661    0.1877   -0.8064 C   0  0  0  0  0  0  0  0  0  0  0  0
    2.0562    0.3421   -0.5579 O   0  0  0  0  0  0  0  0  0  0  0  0
    0.5127   -0.3694   -2.0232 N   0  0  0  0  0  0  0  0  0  0  0  0
   -0.4712   -0.5819   -2.1487 H   0  0  0  0  0  0  0  0  0  0  0  0
    1.4802   -0.9696   -2.9333 C   0  0  0  0  0  0  0  0  0  0  0  0
    1.9888   -1.8102   -2.4497 H   0  0  0  0  0  0  0  0  0  0  0  0
    0.9759   -1.3384   -3.8315 H   0  0  0  0  0  0  0  0  0  0  0  0
    2.2298   -0.2315   -3.2379 H   0  0  0  0  0  0  0  0  0  0  0  0
  1  2  1  0  0  0  0
  2  3  1  0  0  0  0
  2  4  1  0  0  0  0
  2  5  1  0  0  0  0
  5  6  2  0  0  0  0
  5  7  1  0  0  0  0
  7  8  1  0  0  0  0
  7  9  1  0  0  0  0
  9 10  1  0  0  0  0
  9 11  1  0  0  0  0
  9 22  1  0  0  0  0
 11 12  1  0  0  0  0
 11 13  1  0  0  0  0
 11 14  1  0  0  0  0
 14 15  1  0  0  0  0
 14 20  2  0  0  0  0
 15 16  2  0  0  0  0
 16 17  1  0  0  0  0
 16 18  1  0  0  0  0
 18 19  1  0  0  0  0
 18 20  1  0  0  0  0
 20 21  1  0  0  0  0
 22 23  2  0  0  0  0
 22 24  1  0  0  0  0
 24 25  1  0  0  0  0
 24 26  1  0  0  0  0
 26 27  1  0  0  0  0
 26 28  1  0  0  0  0
 26 29  1  0  0  0  0
M  END
$$$$

  -OEChem-01062216083D

 29 29  0     1  0  0  0  0  0999 V2000
   -2.6180   -3.0840    1.3329 H   0  0  0  0  0  0  0  0  0  0  0  0
   -2.7750   -2.0859    0.9141 C   0  0  0  0  0  0  0  0  0  0  0  0
   -3.3985   -1.5105    1.6025 H   0  0  0  0  0  0  0  0  0  0  0  0
   -3.2930   -2.1844   -0.0428 H   0  0  0  0  0  0  0  0  0  0  0  0
   -1.4427   -1.3885    0.7132 C   0  0  0  0  0  0  0  0  0  0  0  0
   -0.4131   -1.9731    0.9940 O   0  0  0  0  0  0  0  0  0  0  0  0
   -1.4242   -0.0975    0.2213 N   0  0  0  0  0  0  0  0  0  0  0  0
   -2.3312    0.3488    0.1245 H   0  0  0  0  0  0  0  0  0  0  0  0
   -0.2349    0.7741    0.1128 C   0  0  1  0  0  0  0  0  0  0  0  0
   -0.5397    1.7077   -0.3710 H   0  0  0  0  0  0  0  0  0  0  0  0
    0.2953    1.1352    1.5151 C   0  0  0  0  0  0  0  0  0  0  0  0
    0.5523    0.2285    2.0703 H   0  0  0  0  0  0  0  0  0  0  0  0
    1.2073    1.7337    1.4273 H   0  0  0  0  0  0  0  0  0  0  0  0
   -0.7204    1.9396    2.2672 C   0  0  0  0  0  0  0  0  0  0  0  0
   -0.9989    3.2780    2.0203 N   0  0  0  0  0  0  0  0  0  0  0  0
   -1.8829    3.6441    2.9172 C   0  0  0  0  0  0  0  0  0  0  0  0
   -2.3047    4.6418    3.0005 H   0  0  0  0  0  0  0  0  0  0  0  0
   -2.1952    2.5762    3.7381 N   0  0  0  0  0  0  0  0  0  0  0  0
   -2.8293    2.6131    4.5342 H   0  0  0  0  0  0  0  0  0  0  0  0
   -1.4466    1.4909    3.3343 C   0  0  0  0  0  0  0  0  0  0  0  0
   -1.4049    0.4959    3.7687 H   0  0  0  0  0  0  0  0  0  0  0  0
    0.8708    0.1724   -0.7931 C   0  0  0  0  0  0  0  0  0  0  0  0
    2.0419    0.1061   -0.4383 O   0  0  0  0  0  0  0  0  0  0  0  0
    0.5687   -0.0988   -2.1165 N   0  0  0  0  0  0  0  0  0  0  0  0
   -0.4131   -0.0911   -2.3713 H   0  0  0  0  0  0  0  0  0  0  0  0
    1.5373   -0.6411   -3.0614 C   0  0  0  0  0  0  0  0  0  0  0  0
    1.9393   -1.5916   -2.6950 H   0  0  0  0  0  0  0  0  0  0  0  0
    1.0616   -0.8167   -4.0309 H   0  0  0  0  0  0  0  0  0  0  0  0
    2.3659    0.0602   -3.2050 H   0  0  0  0  0  0  0  0  0  0  0  0
  1  2  1  0  0  0  0
  2  3  1  0  0  0  0
  2  4  1  0  0  0  0
  2  5  1  0  0  0  0
  5  6  2  0  0  0  0
  5  7  1  0  0  0  0
  7  8  1  0  0  0  0
  7  9  1  0  0  0  0
  9 10  1  0  0  0  0
  9 11  1  0  0  0  0
  9 22  1  0  0  0  0
 11 12  1  0  0  0  0
 11 13  1  0  0  0  0
 11 14  1  0  0  0  0
 14 15  1  0  0  0  0
 14 20  2  0  0  0  0
 15 16  2  0  0  0  0
 16 17  1  0  0  0  0
 16 18  1  0  0  0  0
 18 19  1  0  0  0  0
 18 20  1  0  0  0  0
 20 21  1  0  0  0  0
 22 23  2  0  0  0  0
 22 24  1  0  0  0  0
 24 25  1  0  0  0  0
 24 26  1  0  0  0  0
 26 27  1  0  0  0  0
 26 28  1  0  0  0  0
 26 29  1  0  0  0  0
M  END
$$$$

  -OEChem-01062216083D

 29 29  0     1  0  0  0  0  0999 V2000
   -2.6440   -3.1087    1.3227 H   0  0  0  0  0  0  0  0  0  0  0  0
   -2.7933   -2.1117    0.8979 C   0  0  0  0  0  0  0  0  0  0  0  0
   -3.4418   -1.5389    1.5651 H   0  0  0  0  0  0  0  0  0  0  0  0
   -3.2795   -2.2140   -0.0753 H   0  0  0  0  0  0  0  0  0  0  0  0
   -1.4593   -1.4067    0.7385 C   0  0  0  0  0  0  0  0  0  0  0  0
   -0.4393   -1.9799    1.0713 O   0  0  0  0  0  0  0  0  0  0  0  0
   -1.4352   -0.1199    0.2357 N   0  0  0  0  0  0  0  0  0  0  0  0
   -2.3423    0.3099    0.0836 H   0  0  0  0  0  0  0  0  0  0  0  0
   -0.2482    0.7520    0.1131 C   0  0  1  0  0  0  0  0  0  0  0  0
   -0.5602    1.6818   -0.3731 H   0  0  0  0  0  0  0  0  0  0  0  0
    0.2932    1.1288    1.5060 C   0  0  0  0  0  0  0  0  0  0  0  0
    0.5545    0.2283    2.0695 H   0  0  0  0  0  0  0  0  0  0  0  0
    1.2054    1.7242    1.4016 H   0  0  0  0  0  0  0  0  0  0  0  0
   -0.7142    1.9403    2.2605 C   0  0  0  0  0  0  0  0  0  0  0  0
   -0.9938    3.2763    2.0014 N   0  0  0  0  0  0  0  0  0  0  0  0
   -1.8642    3.6539    2.9071 C   0  0  0  0  0  0  0  0  0  0  0  0
   -2.2828    4.6533    2.9855 H   0  0  0  0  0  0  0  0  0  0  0  0
   -2.1665    2.5961    3.7449 N   0  0  0  0  0  0  0  0  0  0  0  0
   -2.7888    2.6427    4.5496 H   0  0  0  0  0  0  0  0  0  0  0  0
   -1.4258    1.5048    3.3426 C   0  0  0  0  0  0  0  0  0  0  0  0
   -1.3790    0.5144    3.7869 H   0  0  0  0  0  0  0  0  0  0  0  0
    0.8592    0.1511   -0.7910 C   0  0  0  0  0  0  0  0  0  0  0  0
    1.9704   -0.1374   -0.3632 O   0  0  0  0  0  0  0  0  0  0  0  0
    0.6718    0.1599   -2.1629 N   0  0  0  0  0  0  0  0  0  0  0  0
   -0.2511    0.4052   -2.5054 H   0  0  0  0  0  0  0  0  0  0  0  0
    1.6827   -0.2886   -3.1131 C   0  0  0  0  0  0  0  0  0  0  0  0
    1.9637   -1.3275   -2.9107 H   0  0  0  0  0  0  0  0  0  0  0  0
    1.2960   -0.2274   -4.1349 H   0  0  0  0  0  0  0  0  0  0  0  0
    2.5776    0.3388   -3.0440 H   0  0  0  0  0  0  0  0  0  0  0  0
  1  2  1  0  0  0  0
  2  3  1  0  0  0  0
  2  4  1  0  0  0  0
  2  5  1  0  0  0  0
  5  6  2  0  0  0  0
  5  7  1  0  0  0  0
  7  8  1  0  0  0  0
  7  9  1  0  0  0  0
  9 10  1  0  0  0  0
  9 11  1  0  0  0  0
  9 22  1  0  0  0  0
 11 12  1  0  0  0  0
 11 13  1  0  0  0  0
 11 14  1  0  0  0  0
 14 15  1  0  0  0  0
 14 20  2  0  0  0  0
 15 16  2  0  0  0  0
 16 17  1  0  0  0  0
 16 18  1  0  0  0  0
 18 19  1  0  0  0  0
 18 20  1  0  0  0  0
 20 21  1  0  0  0  0
 22 23  2  0  0  0  0
 22 24  1  0  0  0  0
 24 25  1  0  0  0  0
 24 26  1  0  0  0  0
 26 27  1  0  0  0  0
 26 28  1  0  0  0  0
 26 29  1  0  0  0  0
M  END
$$$$

  -OEChem-01062216083D

 29 29  0     1  0  0  0  0  0999 V2000
   -2.6706   -3.1372    1.2812 H   0  0  0  0  0  0  0  0  0  0  0  0
   -2.8112   -2.1402    0.8539 C   0  0  0  0  0  0  0  0  0  0  0  0
   -3.5040   -1.5806    1.4870 H   0  0  0  0  0  0  0  0  0  0  0  0
   -3.2406   -2.2449   -0.1453 H   0  0  0  0  0  0  0  0  0  0  0  0
   -1.4811   -1.4146    0.7730 C   0  0  0  0  0  0  0  0  0  0  0  0
   -0.4813   -1.9619    1.1966 O   0  0  0  0  0  0  0  0  0  0  0  0
   -1.4503   -0.1336    0.2554 N   0  0  0  0  0  0  0  0  0  0  0  0
   -2.3520    0.2619    0.0093 H   0  0  0  0  0  0  0  0  0  0  0  0
   -0.2680    0.7416    0.1107 C   0  0  1  0  0  0  0  0  0  0  0  0
   -0.5936    1.6665   -0.3756 H   0  0  0  0  0  0  0  0  0  0  0  0
    0.2962    1.1335    1.4896 C   0  0  0  0  0  0  0  0  0  0  0  0
    0.5698    0.2401    2.0584 H   0  0  0  0  0  0  0  0  0  0  0  0
    1.2055    1.7286    1.3621 H   0  0  0  0  0  0  0  0  0  0  0  0
   -0.6995    1.9487    2.2548 C   0  0  0  0  0  0  0  0  0  0  0  0
   -0.9894    3.2815    1.9899 N   0  0  0  0  0  0  0  0  0  0  0  0
   -1.8447    3.6614    2.9093 C   0  0  0  0  0  0  0  0  0  0  0  0
   -2.2674    4.6590    2.9876 H   0  0  0  0  0  0  0  0  0  0  0  0
   -2.1255    2.6094    3.7620 N   0  0  0  0  0  0  0  0  0  0  0  0
   -2.7335    2.6586    4.5775 H   0  0  0  0  0  0  0  0  0  0  0  0
   -1.3874    1.5188    3.3540 C   0  0  0  0  0  0  0  0  0  0  0  0
   -1.3270    0.5312    3.8037 H   0  0  0  0  0  0  0  0  0  0  0  0
    0.8408    0.1439   -0.7942 C   0  0  0  0  0  0  0  0  0  0  0  0
    1.8525   -0.3750   -0.3395 O   0  0  0  0  0  0  0  0  0  0  0  0
    0.8067    0.4110   -2.1529 N   0  0  0  0  0  0  0  0  0  0  0  0
   -0.0020    0.9060   -2.5141 H   0  0  0  0  0  0  0  0  0  0  0  0
    1.8676    0.0236   -3.0753 C   0  0  0  0  0  0  0  0  0  0  0  0
    2.0542   -1.0539   -3.0145 H   0  0  0  0  0  0  0  0  0  0  0  0
    1.5829    0.2667   -4.1034 H   0  0  0  0  0  0  0  0  0  0  0  0
    2.7945    0.5557   -2.8370 H   0  0  0  0  0  0  0  0  0  0  0  0
  1  2  1  0  0  0  0
  2  3  1  0  0  0  0
  2  4  1  0  0  0  0
  2  5  1  0  0  0  0
  5  6  2  0  0  0  0
  5  7  1  0  0  0  0
  7  8  1  0  0  0  0
  7  9  1  0  0  0  0
  9 10  1  0  0  0  0
  9 11  1  0  0  0  0
  9 22  1  0  0  0  0
 11 12  1  0  0  0  0
 11 13  1  0  0  0  0
 11 14  1  0  0  0  0
 14 15  1  0  0  0  0
 14 20  2  0  0  0  0
 15 16  2  0  0  0  0
 16 17  1  0  0  0  0
 16 18  1  0  0  0  0
 18 19  1  0  0  0  0
 18 20  1  0  0  0  0
 20 21  1  0  0  0  0
 22 23  2  0  0  0  0
 22 24  1  0  0  0  0
 24 25  1  0  0  0  0
 24 26  1  0  0  0  0
 26 27  1  0  0  0  0
 26 28  1  0  0  0  0
 26 29  1  0  0  0  0
M  END
$$$$

  -OEChem-01062216083D

 29 29  0     1  0  0  0  0  0999 V2000
   -2.6390   -3.2088    1.1772 H   0  0  0  0  0  0  0  0  0  0  0  0
   -2.7799   -2.2196    0.7323 C   0  0  0  0  0  0  0  0  0  0  0  0
   -3.5886   -1.7085    1.2600 H   0  0  0  0  0  0  0  0  0  0  0  0
   -3.0572   -2.3446   -0.3171 H   0  0  0  0  0  0  0  0  0  0  0  0
   -1.4992   -1.4128    0.8382 C   0  0  0  0  0  0  0  0  0  0  0  0
   -0.5592   -1.8816    1.4517 O   0  0  0  0  0  0  0  0  0  0  0  0
   -1.4734   -0.1350    0.3097 N   0  0  0  0  0  0  0  0  0  0  0  0
   -2.3362    0.1668   -0.1303 H   0  0  0  0  0  0  0  0  0  0  0  0
   -0.2938    0.7408    0.1373 C   0  0  1  0  0  0  0  0  0  0  0  0
   -0.6392    1.6601   -0.3460 H   0  0  0  0  0  0  0  0  0  0  0  0
    0.3101    1.1528    1.4920 C   0  0  0  0  0  0  0  0  0  0  0  0
    0.6033    0.2712    2.0684 H   0  0  0  0  0  0  0  0  0  0  0  0
    1.2141    1.7466    1.3286 H   0  0  0  0  0  0  0  0  0  0  0  0
   -0.6663    1.9783    2.2700 C   0  0  0  0  0  0  0  0  0  0  0  0
   -0.9612    3.3067    1.9864 N   0  0  0  0  0  0  0  0  0  0  0  0
   -1.8027    3.7002    2.9131 C   0  0  0  0  0  0  0  0  0  0  0  0
   -2.2260    4.6984    2.9812 H   0  0  0  0  0  0  0  0  0  0  0  0
   -2.0692    2.6624    3.7872 N   0  0  0  0  0  0  0  0  0  0  0  0
   -2.6729    2.7215    4.6051 H   0  0  0  0  0  0  0  0  0  0  0  0
   -1.3379    1.5649    3.3850 C   0  0  0  0  0  0  0  0  0  0  0  0
   -1.2764    0.5807    3.8424 H   0  0  0  0  0  0  0  0  0  0  0  0
    0.8074    0.1512   -0.7801 C   0  0  0  0  0  0  0  0  0  0  0  0
    1.6420   -0.6497   -0.3827 O   0  0  0  0  0  0  0  0  0  0  0  0
    0.9476    0.6546   -2.0629 N   0  0  0  0  0  0  0  0  0  0  0  0
    0.3091    1.3890   -2.3517 H   0  0  0  0  0  0  0  0  0  0  0  0
    2.0317    0.2730   -2.9606 C   0  0  0  0  0  0  0  0  0  0  0  0
    2.0187   -0.8072   -3.1398 H   0  0  0  0  0  0  0  0  0  0  0  0
    1.9242    0.7835   -3.9223 H   0  0  0  0  0  0  0  0  0  0  0  0
    3.0004    0.5470   -2.5294 H   0  0  0  0  0  0  0  0  0  0  0  0
  1  2  1  0  0  0  0
  2  3  1  0  0  0  0
  2  4  1  0  0  0  0
  2  5  1  0  0  0  0
  5  6  2  0  0  0  0
  5  7  1  0  0  0  0
  7  8  1  0  0  0  0
  7  9  1  0  0  0  0
  9 10  1  0  0  0  0
  9 11  1  0  0  0  0
  9 22  1  0  0  0  0
 11 12  1  0  0  0  0
 11 13  1  0  0  0  0
 11 14  1  0  0  0  0
 14 15  1  0  0  0  0
 14 20  2  0  0  0  0
 15 16  2  0  0  0  0
 16 17  1  0  0  0  0
 16 18  1  0  0  0  0
 18 19  1  0  0  0  0
 18 20  1  0  0  0  0
 20 21  1  0  0  0  0
 22 23  2  0  0  0  0
 22 24  1  0  0  0  0
 24 25  1  0  0  0  0
 24 26  1  0  0  0  0
 26 27  1  0  0  0  0
 26 28  1  0  0  0  0
 26 29  1  0  0  0  0
M  END
$$$$

  -OEChem-01062216083D

 29 29  0     1  0  0  0  0  0999 V2000
   -2.5273   -3.2727    1.0417 H   0  0  0  0  0  0  0  0  0  0  0  0
   -2.6832   -2.2921    0.5833 C   0  0  0  0  0  0  0  0  0  0  0  0
   -3.6052   -1.8598    0.9789 H   0  0  0  0  0  0  0  0  0  0  0  0
   -2.7810   -2.4235   -0.4969 H   0  0  0  0  0  0  0  0  0  0  0  0
   -1.5092   -1.3810    0.8898 C   0  0  0  0  0  0  0  0  0  0  0  0
   -0.6759   -1.7497    1.6984 O   0  0  0  0  0  0  0  0  0  0  0  0
   -1.5004   -0.1054    0.3526 N   0  0  0  0  0  0  0  0  0  0  0  0
   -2.2871    0.0892   -0.2573 H   0  0  0  0  0  0  0  0  0  0  0  0
   -0.3165    0.7658    0.1759 C   0  0  1  0  0  0  0  0  0  0  0  0
   -0.6685    1.6811   -0.3101 H   0  0  0  0  0  0  0  0  0  0  0  0
    0.3155    1.1871    1.5135 C   0  0  0  0  0  0  0  0  0  0  0  0
    0.6240    0.3134    2.0928 H   0  0  0  0  0  0  0  0  0  0  0  0
    1.2148    1.7810    1.3270 H   0  0  0  0  0  0  0  0  0  0  0  0
   -0.6430    2.0228    2.3011 C   0  0  0  0  0  0  0  0  0  0  0  0
   -0.9390    3.3499    2.0111 N   0  0  0  0  0  0  0  0  0  0  0  0
   -1.7746    3.7466    2.9422 C   0  0  0  0  0  0  0  0  0  0  0  0
   -2.2012    4.7435    3.0066 H   0  0  0  0  0  0  0  0  0  0  0  0
   -2.0311    2.7144    3.8263 N   0  0  0  0  0  0  0  0  0  0  0  0
   -2.6369    2.7734    4.6426 H   0  0  0  0  0  0  0  0  0  0  0  0
   -1.3047    1.6146    3.4230 C   0  0  0  0  0  0  0  0  0  0  0  0
   -1.2462    0.6287    3.8775 H   0  0  0  0  0  0  0  0  0  0  0  0
    0.7831    0.1738   -0.7403 C   0  0  0  0  0  0  0  0  0  0  0  0
    1.3114   -0.9081   -0.5284 O   0  0  0  0  0  0  0  0  0  0  0  0
    1.1422    0.8639   -1.8859 N   0  0  0  0  0  0  0  0  0  0  0  0
    0.7433    1.7884   -2.0197 H   0  0  0  0  0  0  0  0  0  0  0  0
    2.1816    0.4089   -2.8021 C   0  0  0  0  0  0  0  0  0  0  0  0
    1.9371   -0.5824   -3.1978 H   0  0  0  0  0  0  0  0  0  0  0  0
    2.2737    1.1021   -3.6436 H   0  0  0  0  0  0  0  0  0  0  0  0
    3.1475    0.3551   -2.2889 H   0  0  0  0  0  0  0  0  0  0  0  0
  1  2  1  0  0  0  0
  2  3  1  0  0  0  0
  2  4  1  0  0  0  0
  2  5  1  0  0  0  0
  5  6  2  0  0  0  0
  5  7  1  0  0  0  0
  7  8  1  0  0  0  0
  7  9  1  0  0  0  0
  9 10  1  0  0  0  0
  9 11  1  0  0  0  0
  9 22  1  0  0  0  0
 11 12  1  0  0  0  0
 11 13  1  0  0  0  0
 11 14  1  0  0  0  0
 14 15  1  0  0  0  0
 14 20  2  0  0  0  0
 15 16  2  0  0  0  0
 16 17  1  0  0  0  0
 16 18  1  0  0  0  0
 18 19  1  0  0  0  0
 18 20  1  0  0  0  0
 20 21  1  0  0  0  0
 22 23  2  0  0  0  0
 22 24  1  0  0  0  0
 24 25  1  0  0  0  0
 24 26  1  0  0  0  0
 26 27  1  0  0  0  0
 26 28  1  0  0  0  0
 26 29  1  0  0  0  0
M  END
$$$$

  -OEChem-01062216083D

 29 29  0     1  0  0  0  0  0999 V2000
   -2.4626   -3.3029    0.9935 H   0  0  0  0  0  0  0  0  0  0  0  0
   -2.6349   -2.3226    0.5404 C   0  0  0  0  0  0  0  0  0  0  0  0
   -3.5869   -1.9276    0.9023 H   0  0  0  0  0  0  0  0  0  0  0  0
   -2.6837   -2.4441   -0.5444 H   0  0  0  0  0  0  0  0  0  0  0  0
   -1.5077   -1.3749    0.9050 C   0  0  0  0  0  0  0  0  0  0  0  0
   -0.7029   -1.7157    1.7557 O   0  0  0  0  0  0  0  0  0  0  0  0
   -1.5067   -0.0989    0.3680 N   0  0  0  0  0  0  0  0  0  0  0  0
   -2.2557    0.0600   -0.2974 H   0  0  0  0  0  0  0  0  0  0  0  0
   -0.3141    0.7627    0.2007 C   0  0  1  0  0  0  0  0  0  0  0  0
   -0.6607    1.6767   -0.2923 H   0  0  0  0  0  0  0  0  0  0  0  0
    0.3142    1.1886    1.5393 C   0  0  0  0  0  0  0  0  0  0  0  0
    0.6152    0.3185    2.1271 H   0  0  0  0  0  0  0  0  0  0  0  0
    1.2178    1.7762    1.3540 H   0  0  0  0  0  0  0  0  0  0  0  0
   -0.6405    2.0372    2.3178 C   0  0  0  0  0  0  0  0  0  0  0  0
   -0.9225    3.3649    2.0172 N   0  0  0  0  0  0  0  0  0  0  0  0
   -1.7616    3.7741    2.9401 C   0  0  0  0  0  0  0  0  0  0  0  0
   -2.1803    4.7750    2.9959 H   0  0  0  0  0  0  0  0  0  0  0  0
   -2.0328    2.7498    3.8291 N   0  0  0  0  0  0  0  0  0  0  0  0
   -2.6450    2.8181    4.6399 H   0  0  0  0  0  0  0  0  0  0  0  0
   -1.3136    1.6413    3.4373 C   0  0  0  0  0  0  0  0  0  0  0  0
   -1.2695    0.6566    3.8961 H   0  0  0  0  0  0  0  0  0  0  0  0
    0.7909    0.1699   -0.7100 C   0  0  0  0  0  0  0  0  0  0  0  0
    1.0307   -1.0288   -0.7630 O   0  0  0  0  0  0  0  0  0  0  0  0
    1.3826    0.9898   -1.6560 N   0  0  0  0  0  0  0  0  0  0  0  0
    1.1838    1.9848   -1.6023 H   0  0  0  0  0  0  0  0  0  0  0  0
    2.3857    0.5244   -2.6071 C   0  0  0  0  0  0  0  0  0  0  0  0
    1.9771   -0.2733   -3.2363 H   0  0  0  0  0  0  0  0  0  0  0  0
    2.7021    1.3467   -3.2558 H   0  0  0  0  0  0  0  0  0  0  0  0
    3.2653    0.1416   -2.0790 H   0  0  0  0  0  0  0  0  0  0  0  0
  1  2  1  0  0  0  0
  2  3  1  0  0  0  0
  2  4  1  0  0  0  0
  2  5  1  0  0  0  0
  5  6  2  0  0  0  0
  5  7  1  0  0  0  0
  7  8  1  0  0  0  0
  7  9  1  0  0  0  0
  9 10  1  0  0  0  0
  9 11  1  0  0  0  0
  9 22  1  0  0  0  0
 11 12  1  0  0  0  0
 11 13  1  0  0  0  0
 11 14  1  0  0  0  0
 14 15  1  0  0  0  0
 14 20  2  0  0  0  0
 15 16  2  0  0  0  0
 16 17  1  0  0  0  0
 16 18  1  0  0  0  0
 18 19  1  0  0  0  0
 18 20  1  0  0  0  0
 20 21  1  0  0  0  0
 22 23  2  0  0  0  0
 22 24  1  0  0  0  0
 24 25  1  0  0  0  0
 24 26  1  0  0  0  0
 26 27  1  0  0  0  0
 26 28  1  0  0  0  0
 26 29  1  0  0  0  0
M  END
$$$$

  -OEChem-01062216083D

 29 29  0     1  0  0  0  0  0999 V2000
   -2.4978   -3.2835    1.0588 H   0  0  0  0  0  0  0  0  0  0  0  0
   -2.6346   -2.3216    0.5566 C   0  0  0  0  0  0  0  0  0  0  0  0
   -3.5865   -1.8896    0.8739 H   0  0  0  0  0  0  0  0  0  0  0  0
   -2.6569   -2.4908   -0.5227 H   0  0  0  0  0  0  0  0  0  0  0  0
   -1.4949   -1.3834    0.9062 C   0  0  0  0  0  0  0  0  0  0  0  0
   -0.6586   -1.7431    1.7186 O   0  0  0  0  0  0  0  0  0  0  0  0
   -1.4948   -0.1035    0.3789 N   0  0  0  0  0  0  0  0  0  0  0  0
   -2.2409    0.0620   -0.2881 H   0  0  0  0  0  0  0  0  0  0  0  0
   -0.2950    0.7488    0.2206 C   0  0  1  0  0  0  0  0  0  0  0  0
   -0.6324    1.6645   -0.2758 H   0  0  0  0  0  0  0  0  0  0  0  0
    0.3234    1.1727    1.5658 C   0  0  0  0  0  0  0  0  0  0  0  0
    0.6110    0.3031    2.1605 H   0  0  0  0  0  0  0  0  0  0  0  0
    1.2328    1.7545    1.3908 H   0  0  0  0  0  0  0  0  0  0  0  0
   -0.6353    2.0296    2.3300 C   0  0  0  0  0  0  0  0  0  0  0  0
   -0.9012    3.3576    2.0177 N   0  0  0  0  0  0  0  0  0  0  0  0
   -1.7565    3.7774    2.9204 C   0  0  0  0  0  0  0  0  0  0  0  0
   -2.1700    4.7810    2.9617 H   0  0  0  0  0  0  0  0  0  0  0  0
   -2.0522    2.7596    3.8089 N   0  0  0  0  0  0  0  0  0  0  0  0
   -2.6830    2.8360    4.6045 H   0  0  0  0  0  0  0  0  0  0  0  0
   -1.3324    1.6439    3.4384 C   0  0  0  0  0  0  0  0  0  0  0  0
   -1.3052    0.6617    3.9037 H   0  0  0  0  0  0  0  0  0  0  0  0
    0.8074    0.1561   -0.6929 C   0  0  0  0  0  0  0  0  0  0  0  0
    0.8245   -1.0254   -1.0157 O   0  0  0  0  0  0  0  0  0  0  0  0
    1.6193    1.0280   -1.3984 N   0  0  0  0  0  0  0  0  0  0  0  0
    1.5746    2.0127   -1.1508 H   0  0  0  0  0  0  0  0  0  0  0  0
    2.6037    0.5936   -2.3824 C   0  0  0  0  0  0  0  0  0  0  0  0
    2.1130    0.0741   -3.2121 H   0  0  0  0  0  0  0  0  0  0  0  0
    3.1416    1.4569   -2.7858 H   0  0  0  0  0  0  0  0  0  0  0  0
    3.3312   -0.0836   -1.9226 H   0  0  0  0  0  0  0  0  0  0  0  0
  1  2  1  0  0  0  0
  2  3  1  0  0  0  0
  2  4  1  0  0  0  0
  2  5  1  0  0  0  0
  5  6  2  0  0  0  0
  5  7  1  0  0  0  0
  7  8  1  0  0  0  0
  7  9  1  0  0  0  0
  9 10  1  0  0  0  0
  9 11  1  0  0  0  0
  9 22  1  0  0  0  0
 11 12  1  0  0  0  0
 11 13  1  0  0  0  0
 11 14  1  0  0  0  0
 14 15  1  0  0  0  0
 14 20  2  0  0  0  0
 15 16  2  0  0  0  0
 16 17  1  0  0  0  0
 16 18  1  0  0  0  0
 18 19  1  0  0  0  0
 18 20  1  0  0  0  0
 20 21  1  0  0  0  0
 22 23  2  0  0  0  0
 22 24  1  0  0  0  0
 24 25  1  0  0  0  0
 24 26  1  0  0  0  0
 26 27  1  0  0  0  0
 26 28  1  0  0  0  0
 26 29  1  0  0  0  0
M  END
$$$$

  -OEChem-01062216083D

 29 29  0     1  0  0  0  0  0999 V2000
   -2.5006   -3.2652    1.0819 H   0  0  0  0  0  0  0  0  0  0  0  0
   -2.6373   -2.3046    0.5771 C   0  0  0  0  0  0  0  0  0  0  0  0
   -3.5776   -1.8603    0.9117 H   0  0  0  0  0  0  0  0  0  0  0  0
   -2.6848   -2.4795   -0.5004 H   0  0  0  0  0  0  0  0  0  0  0  0
   -1.4801   -1.3773    0.8966 C   0  0  0  0  0  0  0  0  0  0  0  0
   -0.6112   -1.7559    1.6652 O   0  0  0  0  0  0  0  0  0  0  0  0
   -1.4825   -0.0959    0.3735 N   0  0  0  0  0  0  0  0  0  0  0  0
   -2.2292    0.0734   -0.2921 H   0  0  0  0  0  0  0  0  0  0  0  0
   -0.2831    0.7581    0.2237 C   0  0  1  0  0  0  0  0  0  0  0  0
   -0.6108    1.6762   -0.2747 H   0  0  0  0  0  0  0  0  0  0  0  0
    0.3200    1.1754    1.5804 C   0  0  0  0  0  0  0  0  0  0  0  0
    0.6013    0.3030    2.1737 H   0  0  0  0  0  0  0  0  0  0  0  0
    1.2299    1.7603    1.4235 H   0  0  0  0  0  0  0  0  0  0  0  0
   -0.6473    2.0267    2.3401 C   0  0  0  0  0  0  0  0  0  0  0  0
   -0.9110    3.3562    2.0343 N   0  0  0  0  0  0  0  0  0  0  0  0
   -1.7743    3.7702    2.9320 C   0  0  0  0  0  0  0  0  0  0  0  0
   -2.1885    4.7734    2.9764 H   0  0  0  0  0  0  0  0  0  0  0  0
   -2.0772    2.7468    3.8115 N   0  0  0  0  0  0  0  0  0  0  0  0
   -2.7155    2.8180    4.6017 H   0  0  0  0  0  0  0  0  0  0  0  0
   -1.3542    1.6339    3.4398 C   0  0  0  0  0  0  0  0  0  0  0  0
   -1.3316    0.6491    3.8995 H   0  0  0  0  0  0  0  0  0  0  0  0
    0.8145    0.1545   -0.6893 C   0  0  0  0  0  0  0  0  0  0  0  0
    0.6795   -0.9421   -1.2203 O   0  0  0  0  0  0  0  0  0  0  0  0
    1.8294    0.9744   -1.1527 N   0  0  0  0  0  0  0  0  0  0  0  0
    1.8913    1.9101   -0.7613 H   0  0  0  0  0  0  0  0  0  0  0  0
    2.8264    0.5503   -2.1285 C   0  0  0  0  0  0  0  0  0  0  0  0
    2.3483    0.3037   -3.0824 H   0  0  0  0  0  0  0  0  0  0  0  0
    3.5510    1.3517   -2.3017 H   0  0  0  0  0  0  0  0  0  0  0  0
    3.3664   -0.3309   -1.7663 H   0  0  0  0  0  0  0  0  0  0  0  0
  1  2  1  0  0  0  0
  2  3  1  0  0  0  0
  2  4  1  0  0  0  0
  2  5  1  0  0  0  0
  5  6  2  0  0  0  0
  5  7  1  0  0  0  0
  7  8  1  0  0  0  0
  7  9  1  0  0  0  0
  9 10  1  0  0  0  0
  9 11  1  0  0  0  0
  9 22  1  0  0  0  0
 11 12  1  0  0  0  0
 11 13  1  0  0  0  0
 11 14  1  0  0  0  0
 14 15  1  0  0  0  0
 14 20  2  0  0  0  0
 15 16  2  0  0  0  0
 16 17  1  0  0  0  0
 16 18  1  0  0  0  0
 18 19  1  0  0  0  0
 18 20  1  0  0  0  0
 20 21  1  0  0  0  0
 22 23  2  0  0  0  0
 22 24  1  0  0  0  0
 24 25  1  0  0  0  0
 24 26  1  0  0  0  0
 26 27  1  0  0  0  0
 26 28  1  0  0  0  0
 26 29  1  0  0  0  0
M  END
$$$$

  -OEChem-01062216083D

 29 29  0     1  0  0  0  0  0999 V2000
   -2.5908   -3.2506    0.9674 H   0  0  0  0  0  0  0  0  0  0  0  0
   -2.7059   -2.2549    0.5298 C   0  0  0  0  0  0  0  0  0  0  0  0
   -3.5948   -1.7835    0.9555 H   0  0  0  0  0  0  0  0  0  0  0  0
   -2.8367   -2.3599   -0.5501 H   0  0  0  0  0  0  0  0  0  0  0  0
   -1.4801   -1.4091    0.8195 C   0  0  0  0  0  0  0  0  0  0  0  0
   -0.5751   -1.8912    1.4806 O   0  0  0  0  0  0  0  0  0  0  0  0
   -1.4484   -0.1100    0.3458 N   0  0  0  0  0  0  0  0  0  0  0  0
   -2.2100    0.1100   -0.2881 H   0  0  0  0  0  0  0  0  0  0  0  0
   -0.2581    0.7641    0.2343 C   0  0  1  0  0  0  0  0  0  0  0  0
   -0.6253    1.7679   -0.0031 H   0  0  0  0  0  0  0  0  0  0  0  0
    0.5601    0.8977    1.5381 C   0  0  0  0  0  0  0  0  0  0  0  0
    0.9321   -0.0684    1.8828 H   0  0  0  0  0  0  0  0  0  0  0  0
    1.4372    1.5267    1.3682 H   0  0  0  0  0  0  0  0  0  0  0  0
   -0.2591    1.5591    2.6006 C   0  0  0  0  0  0  0  0  0  0  0  0
   -0.5427    2.9190    2.6257 N   0  0  0  0  0  0  0  0  0  0  0  0
   -1.2470    3.1222    3.7144 C   0  0  0  0  0  0  0  0  0  0  0  0
   -1.6315    4.0874    4.0313 H   0  0  0  0  0  0  0  0  0  0  0  0
   -1.4246    1.9329    4.3977 N   0  0  0  0  0  0  0  0  0  0  0  0
   -1.9285    1.8267    5.2760 H   0  0  0  0  0  0  0  0  0  0  0  0
   -0.7895    0.9337    3.6916 C   0  0  0  0  0  0  0  0  0  0  0  0
   -0.7120   -0.1261    3.9230 H   0  0  0  0  0  0  0  0  0  0  0  0
    0.6456    0.3570   -0.9569 C   0  0  0  0  0  0  0  0  0  0  0  0
    0.2687   -0.4761   -1.7747 O   0  0  0  0  0  0  0  0  0  0  0  0
    1.8099    1.0570   -1.2248 N   0  0  0  0  0  0  0  0  0  0  0  0
    2.0860    1.7785   -0.5651 H   0  0  0  0  0  0  0  0  0  0  0  0
    2.6663    0.7863   -2.3731 C   0  0  0  0  0  0  0  0  0  0  0  0
    2.1218    0.9596   -3.3072 H   0  0  0  0  0  0  0  0  0  0  0  0
    3.5407    1.4439   -2.3553 H   0  0  0  0  0  0  0  0  0  0  0  0
    3.0142   -0.2519   -2.3549 H   0  0  0  0  0  0  0  0  0  0  0  0
  1  2  1  0  0  0  0
  2  3  1  0  0  0  0
  2  4  1  0  0  0  0
  2  5  1  0  0  0  0
  5  6  2  0  0  0  0
  5  7  1  0  0  0  0
  7  8  1  0  0  0  0
  7  9  1  0  0  0  0
  9 10  1  0  0  0  0
  9 11  1  0  0  0  0
  9 22  1  0  0  0  0
 11 12  1  0  0  0  0
 11 13  1  0  0  0  0
 11 14  1  0  0  0  0
 14 15  1  0  0  0  0
 14 20  2  0  0  0  0
 15 16  2  0  0  0  0
 16 17  1  0  0  0  0
 16 18  1  0  0  0  0
 18 19  1  0  0  0  0
 18 20  1  0  0  0  0
 20 21  1  0  0  0  0
 22 23  2  0  0  0  0
 22 24  1  0  0  0  0
 24 25  1  0  0  0  0
 24 26  1  0  0  0  0
 26 27  1  0  0  0  0
 26 28  1  0  0  0  0
 26 29  1  0  0  0  0
M  END
$$$$

  -OEChem-01062216083D

 29 29  0     1  0  0  0  0  0999 V2000
   -2.5432   -3.2570    0.9143 H   0  0  0  0  0  0  0  0  0  0  0  0
   -2.6844   -2.2433    0.5291 C   0  0  0  0  0  0  0  0  0  0  0  0
   -3.5574   -1.7998    1.0136 H   0  0  0  0  0  0  0  0  0  0  0  0
   -2.8611   -2.2996   -0.5479 H   0  0  0  0  0  0  0  0  0  0  0  0
   -1.4536   -1.4008    0.8059 C   0  0  0  0  0  0  0  0  0  0  0  0
   -0.5261   -1.8965    1.4243 O   0  0  0  0  0  0  0  0  0  0  0  0
   -1.4287   -0.0957    0.3506 N   0  0  0  0  0  0  0  0  0  0  0  0
   -2.1940    0.1351   -0.2757 H   0  0  0  0  0  0  0  0  0  0  0  0
   -0.2417    0.7829    0.2520 C   0  0  1  0  0  0  0  0  0  0  0  0
   -0.6072    1.7881    0.0182 H   0  0  0  0  0  0  0  0  0  0  0  0
    0.5624    0.9117    1.5665 C   0  0  0  0  0  0  0  0  0  0  0  0
    0.9355   -0.0538    1.9116 H   0  0  0  0  0  0  0  0  0  0  0  0
    1.4352    1.5500    1.4108 H   0  0  0  0  0  0  0  0  0  0  0  0
   -0.2729    1.5646    2.6222 C   0  0  0  0  0  0  0  0  0  0  0  0
   -0.5625    2.9230    2.6514 N   0  0  0  0  0  0  0  0  0  0  0  0
   -1.2839    3.1176    3.7304 C   0  0  0  0  0  0  0  0  0  0  0  0
   -1.6778    4.0794    4.0465 H   0  0  0  0  0  0  0  0  0  0  0  0
   -1.4664    1.9238    4.4045 N   0  0  0  0  0  0  0  0  0  0  0  0
   -1.9857    1.8105    5.2730 H   0  0  0  0  0  0  0  0  0  0  0  0
   -0.8162    0.9314    3.7026 C   0  0  0  0  0  0  0  0  0  0  0  0
   -0.7380   -0.1289    3.9304 H   0  0  0  0  0  0  0  0  0  0  0  0
    0.6486    0.3763   -0.9506 C   0  0  0  0  0  0  0  0  0  0  0  0
    0.1655   -0.2551   -1.8854 O   0  0  0  0  0  0  0  0  0  0  0  0
    1.9494    0.8347   -1.0737 N   0  0  0  0  0  0  0  0  0  0  0  0
    2.3354    1.3633   -0.2974 H   0  0  0  0  0  0  0  0  0  0  0  0
    2.8122    0.5122   -2.2037 C   0  0  0  0  0  0  0  0  0  0  0  0
    2.3709    0.8727   -3.1389 H   0  0  0  0  0  0  0  0  0  0  0  0
    3.7906    0.9858   -2.0792 H   0  0  0  0  0  0  0  0  0  0  0  0
    2.9582   -0.5708   -2.2767 H   0  0  0  0  0  0  0  0  0  0  0  0
  1  2  1  0  0  0  0
  2  3  1  0  0  0  0
  2  4  1  0  0  0  0
  2  5  1  0  0  0  0
  5  6  2  0  0  0  0
  5  7  1  0  0  0  0
  7  8  1  0  0  0  0
  7  9  1  0  0  0  0
  9 10  1  0  0  0  0
  9 11  1  0  0  0  0
  9 22  1  0  0  0  0
 11 12  1  0  0  0  0
 11 13  1  0  0  0  0
 11 14  1  0  0  0  0
 14 15  1  0  0  0  0
 14 20  2  0  0  0  0
 15 16  2  0  0  0  0
 16 17  1  0  0  0  0
 16 18  1  0  0  0  0
 18 19  1  0  0  0  0
 18 20  1  0  0  0  0
 20 21  1  0  0  0  0
 22 23  2  0  0  0  0
 22 24  1  0  0  0  0
 24 25  1  0  0  0  0
 24 26  1  0  0  0  0
 26 27  1  0  0  0  0
 26 28  1  0  0  0  0
 26 29  1  0  0  0  0
M  END
$$$$

  -OEChem-01062216083D

 29 29  0     1  0  0  0  0  0999 V2000
   -2.5353   -3.2432    0.9286 H   0  0  0  0  0  0  0  0  0  0  0  0
   -2.6813   -2.2258    0.5551 C   0  0  0  0  0  0  0  0  0  0  0  0
   -3.5252   -1.7741    1.0820 H   0  0  0  0  0  0  0  0  0  0  0  0
   -2.9091   -2.2735   -0.5127 H   0  0  0  0  0  0  0  0  0  0  0  0
   -1.4284   -1.4001    0.7797 C   0  0  0  0  0  0  0  0  0  0  0  0
   -0.4746   -1.9110    1.3435 O   0  0  0  0  0  0  0  0  0  0  0  0
   -1.4074   -0.0913    0.3370 N   0  0  0  0  0  0  0  0  0  0  0  0
   -2.1908    0.1623   -0.2576 H   0  0  0  0  0  0  0  0  0  0  0  0
   -0.2265    0.7951    0.2537 C   0  0  1  0  0  0  0  0  0  0  0  0
   -0.5933    1.8003    0.0213 H   0  0  0  0  0  0  0  0  0  0  0  0
    0.5609    0.9227    1.5780 C   0  0  0  0  0  0  0  0  0  0  0  0
    0.9346   -0.0427    1.9233 H   0  0  0  0  0  0  0  0  0  0  0  0
    1.4298    1.5693    1.4331 H   0  0  0  0  0  0  0  0  0  0  0  0
   -0.2902    1.5651    2.6279 C   0  0  0  0  0  0  0  0  0  0  0  0
   -0.5892    2.9211    2.6620 N   0  0  0  0  0  0  0  0  0  0  0  0
   -1.3203    3.1065    3.7358 C   0  0  0  0  0  0  0  0  0  0  0  0
   -1.7215    4.0647    4.0540 H   0  0  0  0  0  0  0  0  0  0  0  0
   -1.5010    1.9082    4.4022 N   0  0  0  0  0  0  0  0  0  0  0  0
   -2.0230    1.7887    5.2681 H   0  0  0  0  0  0  0  0  0  0  0  0
   -0.8386    0.9232    3.7011 C   0  0  0  0  0  0  0  0  0  0  0  0
   -0.7546   -0.1371    3.9270 H   0  0  0  0  0  0  0  0  0  0  0  0
    0.6646    0.3951   -0.9493 C   0  0  0  0  0  0  0  0  0  0  0  0
    0.1381   -0.0206   -1.9767 O   0  0  0  0  0  0  0  0  0  0  0  0
    2.0362    0.5847   -0.9420 N   0  0  0  0  0  0  0  0  0  0  0  0
    2.4612    0.8728   -0.0661 H   0  0  0  0  0  0  0  0  0  0  0  0
    2.9030    0.2030   -2.0501 C   0  0  0  0  0  0  0  0  0  0  0  0
    2.5916    0.7061   -2.9716 H   0  0  0  0  0  0  0  0  0  0  0  0
    3.9377    0.4871   -1.8358 H   0  0  0  0  0  0  0  0  0  0  0  0
    2.8654   -0.8799   -2.2090 H   0  0  0  0  0  0  0  0  0  0  0  0
  1  2  1  0  0  0  0
  2  3  1  0  0  0  0
  2  4  1  0  0  0  0
  2  5  1  0  0  0  0
  5  6  2  0  0  0  0
  5  7  1  0  0  0  0
  7  8  1  0  0  0  0
  7  9  1  0  0  0  0
  9 10  1  0  0  0  0
  9 11  1  0  0  0  0
  9 22  1  0  0  0  0
 11 12  1  0  0  0  0
 11 13  1  0  0  0  0
 11 14  1  0  0  0  0
 14 15  1  0  0  0  0
 14 20  2  0  0  0  0
 15 16  2  0  0  0  0
 16 17  1  0  0  0  0
 16 18  1  0  0  0  0
 18 19  1  0  0  0  0
 18 20  1  0  0  0  0
 20 21  1  0  0  0  0
 22 23  2  0  0  0  0
 22 24  1  0  0  0  0
 24 25  1  0  0  0  0
 24 26  1  0  0  0  0
 26 27  1  0  0  0  0
 26 28  1  0  0  0  0
 26 29  1  0  0  0  0
M  END
$$$$

  -OEChem-01062216083D

 29 29  0     1  0  0  0  0  0999 V2000
   -2.5156   -3.2469    0.9149 H   0  0  0  0  0  0  0  0  0  0  0  0
   -2.6706   -2.2254    0.5564 C   0  0  0  0  0  0  0  0  0  0  0  0
   -3.5049   -1.7818    1.1049 H   0  0  0  0  0  0  0  0  0  0  0  0
   -2.9194   -2.2612   -0.5072 H   0  0  0  0  0  0  0  0  0  0  0  0
   -1.4149   -1.4002    0.7662 C   0  0  0  0  0  0  0  0  0  0  0  0
   -0.4458   -1.9164    1.2985 O   0  0  0  0  0  0  0  0  0  0  0  0
   -1.3971   -0.0895    0.3303 N   0  0  0  0  0  0  0  0  0  0  0  0
   -2.1941    0.1819   -0.2380 H   0  0  0  0  0  0  0  0  0  0  0  0
   -0.2195    0.8004    0.2585 C   0  0  1  0  0  0  0  0  0  0  0  0
   -0.5889    1.8049    0.0257 H   0  0  0  0  0  0  0  0  0  0  0  0
    0.5592    0.9315    1.5870 C   0  0  0  0  0  0  0  0  0  0  0  0
    0.9317   -0.0328    1.9373 H   0  0  0  0  0  0  0  0  0  0  0  0
    1.4279    1.5792    1.4410 H   0  0  0  0  0  0  0  0  0  0  0  0
   -0.2992    1.5708    2.6330 C   0  0  0  0  0  0  0  0  0  0  0  0
   -0.6027    2.9257    2.6652 N   0  0  0  0  0  0  0  0  0  0  0  0
   -1.3367    3.1107    3.7369 C   0  0  0  0  0  0  0  0  0  0  0  0
   -1.7414    4.0681    4.0525 H   0  0  0  0  0  0  0  0  0  0  0  0
   -1.5152    1.9125    4.4042 N   0  0  0  0  0  0  0  0  0  0  0  0
   -2.0380    1.7927    5.2696 H   0  0  0  0  0  0  0  0  0  0  0  0
   -0.8483    0.9285    3.7058 C   0  0  0  0  0  0  0  0  0  0  0  0
   -0.7610   -0.1307    3.9347 H   0  0  0  0  0  0  0  0  0  0  0  0
    0.6745    0.4045   -0.9417 C   0  0  0  0  0  0  0  0  0  0  0  0
    0.1513    0.2041   -2.0325 O   0  0  0  0  0  0  0  0  0  0  0  0
    2.0514    0.3040   -0.8345 N   0  0  0  0  0  0  0  0  0  0  0  0
    2.4452    0.3609    0.0998 H   0  0  0  0  0  0  0  0  0  0  0  0
    2.9082   -0.1361   -1.9286 C   0  0  0  0  0  0  0  0  0  0  0  0
    2.7891    0.5198   -2.7974 H   0  0  0  0  0  0  0  0  0  0  0  0
    3.9576   -0.1106   -1.6201 H   0  0  0  0  0  0  0  0  0  0  0  0
    2.6570   -1.1607   -2.2224 H   0  0  0  0  0  0  0  0  0  0  0  0
  1  2  1  0  0  0  0
  2  3  1  0  0  0  0
  2  4  1  0  0  0  0
  2  5  1  0  0  0  0
  5  6  2  0  0  0  0
  5  7  1  0  0  0  0
  7  8  1  0  0  0  0
  7  9  1  0  0  0  0
  9 10  1  0  0  0  0
  9 11  1  0  0  0  0
  9 22  1  0  0  0  0
 11 12  1  0  0  0  0
 11 13  1  0  0  0  0
 11 14  1  0  0  0  0
 14 15  1  0  0  0  0
 14 20  2  0  0  0  0
 15 16  2  0  0  0  0
 16 17  1  0  0  0  0
 16 18  1  0  0  0  0
 18 19  1  0  0  0  0
 18 20  1  0  0  0  0
 20 21  1  0  0  0  0
 22 23  2  0  0  0  0
 22 24  1  0  0  0  0
 24 25  1  0  0  0  0
 24 26  1  0  0  0  0
 26 27  1  0  0  0  0
 26 28  1  0  0  0  0
 26 29  1  0  0  0  0
M  END
$$$$

  -OEChem-01062216083D

 29 29  0     1  0  0  0  0  0999 V2000
   -2.5198   -3.2277    0.9555 H   0  0  0  0  0  0  0  0  0  0  0  0
   -2.6745   -2.2058    0.5981 C   0  0  0  0  0  0  0  0  0  0  0  0
   -3.4752   -1.7455    1.1817 H   0  0  0  0  0  0  0  0  0  0  0  0
   -2.9724   -2.2427   -0.4526 H   0  0  0  0  0  0  0  0  0  0  0  0
   -1.3975   -1.4003    0.7455 C   0  0  0  0  0  0  0  0  0  0  0  0
   -0.4069   -1.9311    1.2215 O   0  0  0  0  0  0  0  0  0  0  0  0
   -1.3786   -0.0888    0.3133 N   0  0  0  0  0  0  0  0  0  0  0  0
   -2.2037    0.2176   -0.1939 H   0  0  0  0  0  0  0  0  0  0  0  0
   -0.2022    0.8012    0.2536 C   0  0  1  0  0  0  0  0  0  0  0  0
   -0.5695    1.8064    0.0199 H   0  0  0  0  0  0  0  0  0  0  0  0
    0.5647    0.9296    1.5881 C   0  0  0  0  0  0  0  0  0  0  0  0
    0.9284   -0.0364    1.9426 H   0  0  0  0  0  0  0  0  0  0  0  0
    1.4386    1.5719    1.4462 H   0  0  0  0  0  0  0  0  0  0  0  0
   -0.3048    1.5668    2.6273 C   0  0  0  0  0  0  0  0  0  0  0  0
   -0.6113    2.9209    2.6610 N   0  0  0  0  0  0  0  0  0  0  0  0
   -1.3572    3.1021    3.7248 C   0  0  0  0  0  0  0  0  0  0  0  0
   -1.7664    4.0583    4.0387 H   0  0  0  0  0  0  0  0  0  0  0  0
   -1.5419    1.9017    4.3862 N   0  0  0  0  0  0  0  0  0  0  0  0
   -2.0723    1.7796    5.2468 H   0  0  0  0  0  0  0  0  0  0  0  0
   -0.8661    0.9206    3.6919 C   0  0  0  0  0  0  0  0  0  0  0  0
   -0.7805   -0.1389    3.9193 H   0  0  0  0  0  0  0  0  0  0  0  0
    0.6994    0.4083   -0.9388 C   0  0  0  0  0  0  0  0  0  0  0  0
    0.2330    0.4447   -2.0718 O   0  0  0  0  0  0  0  0  0  0  0  0
    2.0144    0.0125   -0.7642 N   0  0  0  0  0  0  0  0  0  0  0  0
    2.3036   -0.1838    0.1899 H   0  0  0  0  0  0  0  0  0  0  0  0
    2.8498   -0.4704   -1.8567 C   0  0  0  0  0  0  0  0  0  0  0  0
    2.9139    0.2801   -2.6516 H   0  0  0  0  0  0  0  0  0  0  0  0
    3.8624   -0.6748   -1.4955 H   0  0  0  0  0  0  0  0  0  0  0  0
    2.4363   -1.3937   -2.2758 H   0  0  0  0  0  0  0  0  0  0  0  0
  1  2  1  0  0  0  0
  2  3  1  0  0  0  0
  2  4  1  0  0  0  0
  2  5  1  0  0  0  0
  5  6  2  0  0  0  0
  5  7  1  0  0  0  0
  7  8  1  0  0  0  0
  7  9  1  0  0  0  0
  9 10  1  0  0  0  0
  9 11  1  0  0  0  0
  9 22  1  0  0  0  0
 11 12  1  0  0  0  0
 11 13  1  0  0  0  0
 11 14  1  0  0  0  0
 14 15  1  0  0  0  0
 14 20  2  0  0  0  0
 15 16  2  0  0  0  0
 16 17  1  0  0  0  0
 16 18  1  0  0  0  0
 18 19  1  0  0  0  0
 18 20  1  0  0  0  0
 20 21  1  0  0  0  0
 22 23  2  0  0  0  0
 22 24  1  0  0  0  0
 24 25  1  0  0  0  0
 24 26  1  0  0  0  0
 26 27  1  0  0  0  0
 26 28  1  0  0  0  0
 26 29  1  0  0  0  0
M  END
$$$$

  -OEChem-01062216083D

 29 29  0     1  0  0  0  0  0999 V2000
   -2.5258   -3.2089    1.0093 H   0  0  0  0  0  0  0  0  0  0  0  0
   -2.6822   -2.1897    0.6448 C   0  0  0  0  0  0  0  0  0  0  0  0
   -3.4474   -1.7092    1.2592 H   0  0  0  0  0  0  0  0  0  0  0  0
   -3.0307   -2.2362   -0.3899 H   0  0  0  0  0  0  0  0  0  0  0  0
   -1.3879   -1.4023    0.7198 C   0  0  0  0  0  0  0  0  0  0  0  0
   -0.3767   -1.9459    1.1354 O   0  0  0  0  0  0  0  0  0  0  0  0
   -1.3697   -0.0919    0.2848 N   0  0  0  0  0  0  0  0  0  0  0  0
   -2.2231    0.2490   -0.1484 H   0  0  0  0  0  0  0  0  0  0  0  0
   -0.1942    0.7981    0.2367 C   0  0  1  0  0  0  0  0  0  0  0  0
   -0.5593    1.8037    0.0004 H   0  0  0  0  0  0  0  0  0  0  0  0
    0.5634    0.9246    1.5765 C   0  0  0  0  0  0  0  0  0  0  0  0
    0.9217   -0.0427    1.9330 H   0  0  0  0  0  0  0  0  0  0  0  0
    1.4412    1.5630    1.4382 H   0  0  0  0  0  0  0  0  0  0  0  0
   -0.3116    1.5593    2.6126 C   0  0  0  0  0  0  0  0  0  0  0  0
   -0.6193    2.9127    2.6488 N   0  0  0  0  0  0  0  0  0  0  0  0
   -1.3665    3.0917    3.7120 C   0  0  0  0  0  0  0  0  0  0  0  0
   -1.7763    4.0470    4.0272 H   0  0  0  0  0  0  0  0  0  0  0  0
   -1.5517    1.8899    4.3706 N   0  0  0  0  0  0  0  0  0  0  0  0
   -2.0801    1.7662    5.2323 H   0  0  0  0  0  0  0  0  0  0  0  0
   -0.8734    0.9110    3.6757 C   0  0  0  0  0  0  0  0  0  0  0  0
   -0.7843   -0.1477    3.9041 H   0  0  0  0  0  0  0  0  0  0  0  0
    0.7209    0.4050   -0.9427 C   0  0  0  0  0  0  0  0  0  0  0  0
    0.3755    0.6788   -2.0859 O   0  0  0  0  0  0  0  0  0  0  0  0
    1.9093   -0.2712   -0.7327 N   0  0  0  0  0  0  0  0  0  0  0  0
    2.0203   -0.6879    0.1887 H   0  0  0  0  0  0  0  0  0  0  0  0
    2.7274   -0.7833   -1.8241 C   0  0  0  0  0  0  0  0  0  0  0  0
    3.0155    0.0280   -2.5009 H   0  0  0  0  0  0  0  0  0  0  0  0
    3.6393   -1.2409   -1.4290 H   0  0  0  0  0  0  0  0  0  0  0  0
    2.1761   -1.5391   -2.3931 H   0  0  0  0  0  0  0  0  0  0  0  0
  1  2  1  0  0  0  0
  2  3  1  0  0  0  0
  2  4  1  0  0  0  0
  2  5  1  0  0  0  0
  5  6  2  0  0  0  0
  5  7  1  0  0  0  0
  7  8  1  0  0  0  0
  7  9  1  0  0  0  0
  9 10  1  0  0  0  0
  9 11  1  0  0  0  0
  9 22  1  0  0  0  0
 11 12  1  0  0  0  0
 11 13  1  0  0  0  0
 11 14  1  0  0  0  0
 14 15  1  0  0  0  0
 14 20  2  0  0  0  0
 15 16  2  0  0  0  0
 16 17  1  0  0  0  0
 16 18  1  0  0  0  0
 18 19  1  0  0  0  0
 18 20  1  0  0  0  0
 20 21  1  0  0  0  0
 22 23  2  0  0  0  0
 22 24  1  0  0  0  0
 24 25  1  0  0  0  0
 24 26  1  0  0  0  0
 26 27  1  0  0  0  0
 26 28  1  0  0  0  0
 26 29  1  0  0  0  0
M  END
$$$$

  -OEChem-01062216083D

 29 29  0     1  0  0  0  0  0999 V2000
   -2.5448   -3.1815    1.0798 H   0  0  0  0  0  0  0  0  0  0  0  0
   -2.7014   -2.1658    0.7058 C   0  0  0  0  0  0  0  0  0  0  0  0
   -3.4214   -1.6591    1.3528 H   0  0  0  0  0  0  0  0  0  0  0  0
   -3.1084   -2.2234   -0.3067 H   0  0  0  0  0  0  0  0  0  0  0  0
   -1.3897   -1.4039    0.6945 C   0  0  0  0  0  0  0  0  0  0  0  0
   -0.3622   -1.9650    1.0442 O   0  0  0  0  0  0  0  0  0  0  0  0
   -1.3691   -0.0964    0.2506 N   0  0  0  0  0  0  0  0  0  0  0  0
   -2.2502    0.2840   -0.0827 H   0  0  0  0  0  0  0  0  0  0  0  0
   -0.1923    0.7923    0.2114 C   0  0  1  0  0  0  0  0  0  0  0  0
   -0.5534    1.7989   -0.0280 H   0  0  0  0  0  0  0  0  0  0  0  0
    0.5597    0.9128    1.5536 C   0  0  0  0  0  0  0  0  0  0  0  0
    0.9150   -0.0568    1.9076 H   0  0  0  0  0  0  0  0  0  0  0  0
    1.4399    1.5483    1.4188 H   0  0  0  0  0  0  0  0  0  0  0  0
   -0.3183    1.5445    2.5892 C   0  0  0  0  0  0  0  0  0  0  0  0
   -0.6258    2.8977    2.6313 N   0  0  0  0  0  0  0  0  0  0  0  0
   -1.3699    3.0738    3.6969 C   0  0  0  0  0  0  0  0  0  0  0  0
   -1.7769    4.0287    4.0172 H   0  0  0  0  0  0  0  0  0  0  0  0
   -1.5557    1.8692    4.3505 N   0  0  0  0  0  0  0  0  0  0  0  0
   -2.0785    1.7435    5.2153 H   0  0  0  0  0  0  0  0  0  0  0  0
   -0.8787    0.8926    3.6511 C   0  0  0  0  0  0  0  0  0  0  0  0
   -0.7864   -0.1659    3.8788 H   0  0  0  0  0  0  0  0  0  0  0  0
    0.7384    0.3936   -0.9521 C   0  0  0  0  0  0  0  0  0  0  0  0
    0.5752    0.8888   -2.0604 O   0  0  0  0  0  0  0  0  0  0  0  0
    1.7445   -0.5340   -0.7538 N   0  0  0  0  0  0  0  0  0  0  0  0
    1.6423   -1.1035    0.0864 H   0  0  0  0  0  0  0  0  0  0  0  0
    2.5591   -1.0554   -1.8432 C   0  0  0  0  0  0  0  0  0  0  0  0
    3.0638   -0.2385   -2.3698 H   0  0  0  0  0  0  0  0  0  0  0  0
    3.3224   -1.7342   -1.4512 H   0  0  0  0  0  0  0  0  0  0  0  0
    1.9370   -1.6045   -2.5574 H   0  0  0  0  0  0  0  0  0  0  0  0
  1  2  1  0  0  0  0
  2  3  1  0  0  0  0
  2  4  1  0  0  0  0
  2  5  1  0  0  0  0
  5  6  2  0  0  0  0
  5  7  1  0  0  0  0
  7  8  1  0  0  0  0
  7  9  1  0  0  0  0
  9 10  1  0  0  0  0
  9 11  1  0  0  0  0
  9 22  1  0  0  0  0
 11 12  1  0  0  0  0
 11 13  1  0  0  0  0
 11 14  1  0  0  0  0
 14 15  1  0  0  0  0
 14 20  2  0  0  0  0
 15 16  2  0  0  0  0
 16 17  1  0  0  0  0
 16 18  1  0  0  0  0
 18 19  1  0  0  0  0
 18 20  1  0  0  0  0
 20 21  1  0  0  0  0
 22 23  2  0  0  0  0
 22 24  1  0  0  0  0
 24 25  1  0  0  0  0
 24 26  1  0  0  0  0
 26 27  1  0  0  0  0
 26 28  1  0  0  0  0
 26 29  1  0  0  0  0
M  END
$$$$

  -OEChem-01062216083D

 29 29  0     1  0  0  0  0  0999 V2000
   -2.5970   -3.1575    1.1374 H   0  0  0  0  0  0  0  0  0  0  0  0
   -2.7425   -2.1446    0.7516 C   0  0  0  0  0  0  0  0  0  0  0  0
   -3.4345   -1.6133    1.4093 H   0  0  0  0  0  0  0  0  0  0  0  0
   -3.1780   -2.2091   -0.2487 H   0  0  0  0  0  0  0  0  0  0  0  0
   -1.4161   -1.4108    0.6938 C   0  0  0  0  0  0  0  0  0  0  0  0
   -0.3911   -1.9910    1.0187 O   0  0  0  0  0  0  0  0  0  0  0  0
   -1.3818   -0.1089    0.2336 N   0  0  0  0  0  0  0  0  0  0  0  0
   -2.2720    0.2929   -0.0461 H   0  0  0  0  0  0  0  0  0  0  0  0
   -0.2027    0.7793    0.1872 C   0  0  1  0  0  0  0  0  0  0  0  0
   -0.5625    1.7859   -0.0551 H   0  0  0  0  0  0  0  0  0  0  0  0
    0.5525    0.8957    1.5266 C   0  0  0  0  0  0  0  0  0  0  0  0
    0.9068   -0.0765    1.8747 H   0  0  0  0  0  0  0  0  0  0  0  0
    1.4341    1.5291    1.3901 H   0  0  0  0  0  0  0  0  0  0  0  0
   -0.3194    1.5272    2.5676 C   0  0  0  0  0  0  0  0  0  0  0  0
   -0.6237    2.8809    2.6149 N   0  0  0  0  0  0  0  0  0  0  0  0
   -1.3597    3.0572    3.6861 C   0  0  0  0  0  0  0  0  0  0  0  0
   -1.7613    4.0125    4.0117 H   0  0  0  0  0  0  0  0  0  0  0  0
   -1.5449    1.8516    4.3376 N   0  0  0  0  0  0  0  0  0  0  0  0
   -2.0610    1.7266    5.2065 H   0  0  0  0  0  0  0  0  0  0  0  0
   -0.8748    0.8746    3.6319 C   0  0  0  0  0  0  0  0  0  0  0  0
   -0.7819   -0.1841    3.8581 H   0  0  0  0  0  0  0  0  0  0  0  0
    0.7450    0.3778   -0.9613 C   0  0  0  0  0  0  0  0  0  0  0  0
    0.7812    1.0413   -1.9897 O   0  0  0  0  0  0  0  0  0  0  0  0
    1.5405   -0.7459   -0.8386 N   0  0  0  0  0  0  0  0  0  0  0  0
    1.2890   -1.3737   -0.0713 H   0  0  0  0  0  0  0  0  0  0  0  0
    2.3559   -1.2656   -1.9277 C   0  0  0  0  0  0  0  0  0  0  0  0
    3.0455   -0.4965   -2.2912 H   0  0  0  0  0  0  0  0  0  0  0  0
    2.9458   -2.1197   -1.5818 H   0  0  0  0  0  0  0  0  0  0  0  0
    1.7216   -1.5920   -2.7582 H   0  0  0  0  0  0  0  0  0  0  0  0
  1  2  1  0  0  0  0
  2  3  1  0  0  0  0
  2  4  1  0  0  0  0
  2  5  1  0  0  0  0
  5  6  2  0  0  0  0
  5  7  1  0  0  0  0
  7  8  1  0  0  0  0
  7  9  1  0  0  0  0
  9 10  1  0  0  0  0
  9 11  1  0  0  0  0
  9 22  1  0  0  0  0
 11 12  1  0  0  0  0
 11 13  1  0  0  0  0
 11 14  1  0  0  0  0
 14 15  1  0  0  0  0
 14 20  2  0  0  0  0
 15 16  2  0  0  0  0
 16 17  1  0  0  0  0
 16 18  1  0  0  0  0
 18 19  1  0  0  0  0
 18 20  1  0  0  0  0
 20 21  1  0  0  0  0
 22 23  2  0  0  0  0
 22 24  1  0  0  0  0
 24 25  1  0  0  0  0
 24 26  1  0  0  0  0
 26 27  1  0  0  0  0
 26 28  1  0  0  0  0
 26 29  1  0  0  0  0
M  END
$$$$

  -OEChem-01062216083D

 29 29  0     1  0  0  0  0  0999 V2000
   -2.6767   -3.1296    1.2046 H   0  0  0  0  0  0  0  0  0  0  0  0
   -2.8062   -2.1200    0.8047 C   0  0  0  0  0  0  0  0  0  0  0  0
   -3.4714   -1.5620    1.4681 H   0  0  0  0  0  0  0  0  0  0  0  0
   -3.2639   -2.1904   -0.1851 H   0  0  0  0  0  0  0  0  0  0  0  0
   -1.4644   -1.4194    0.7067 C   0  0  0  0  0  0  0  0  0  0  0  0
   -0.4485   -2.0208    1.0191 O   0  0  0  0  0  0  0  0  0  0  0  0
   -1.4112   -0.1252    0.2266 N   0  0  0  0  0  0  0  0  0  0  0  0
   -2.3040    0.2906   -0.0228 H   0  0  0  0  0  0  0  0  0  0  0  0
   -0.2281    0.7601    0.1591 C   0  0  1  0  0  0  0  0  0  0  0  0
   -0.5880    1.7659   -0.0853 H   0  0  0  0  0  0  0  0  0  0  0  0
    0.5371    0.8727    1.4920 C   0  0  0  0  0  0  0  0  0  0  0  0
    0.8888   -0.1031    1.8336 H   0  0  0  0  0  0  0  0  0  0  0  0
    1.4216    1.5007    1.3494 H   0  0  0  0  0  0  0  0  0  0  0  0
   -0.3224    1.5089    2.5409 C   0  0  0  0  0  0  0  0  0  0  0  0
   -0.6211    2.8637    2.5943 N   0  0  0  0  0  0  0  0  0  0  0  0
   -1.3419    3.0415    3.6755 C   0  0  0  0  0  0  0  0  0  0  0  0
   -1.7353    3.9981    4.0077 H   0  0  0  0  0  0  0  0  0  0  0  0
   -1.5224    1.8358    4.3284 N   0  0  0  0  0  0  0  0  0  0  0  0
   -2.0228    1.7119    5.2066 H   0  0  0  0  0  0  0  0  0  0  0  0
   -0.8646    0.8576    3.6129 C   0  0  0  0  0  0  0  0  0  0  0  0
   -0.7693   -0.2010    3.8390 H   0  0  0  0  0  0  0  0  0  0  0  0
    0.7324    0.3581   -0.9802 C   0  0  0  0  0  0  0  0  0  0  0  0
    0.9722    1.1424   -1.8888 O   0  0  0  0  0  0  0  0  0  0  0  0
    1.3062   -0.8988   -0.9945 N   0  0  0  0  0  0  0  0  0  0  0  0
    0.9850   -1.5472   -0.2707 H   0  0  0  0  0  0  0  0  0  0  0  0
    2.1492   -1.3957   -2.0723 C   0  0  0  0  0  0  0  0  0  0  0  0
    3.0026   -0.7281   -2.2302 H   0  0  0  0  0  0  0  0  0  0  0  0
    2.5312   -2.3901   -1.8225 H   0  0  0  0  0  0  0  0  0  0  0  0
    1.5772   -1.4658   -3.0031 H   0  0  0  0  0  0  0  0  0  0  0  0
  1  2  1  0  0  0  0
  2  3  1  0  0  0  0
  2  4  1  0  0  0  0
  2  5  1  0  0  0  0
  5  6  2  0  0  0  0
  5  7  1  0  0  0  0
  7  8  1  0  0  0  0
  7  9  1  0  0  0  0
  9 10  1  0  0  0  0
  9 11  1  0  0  0  0
  9 22  1  0  0  0  0
 11 12  1  0  0  0  0
 11 13  1  0  0  0  0
 11 14  1  0  0  0  0
 14 15  1  0  0  0  0
 14 20  2  0  0  0  0
 15 16  2  0  0  0  0
 16 17  1  0  0  0  0
 16 18  1  0  0  0  0
 18 19  1  0  0  0  0
 18 20  1  0  0  0  0
 20 21  1  0  0  0  0
 22 23  2  0  0  0  0
 22 24  1  0  0  0  0
 24 25  1  0  0  0  0
 24 26  1  0  0  0  0
 26 27  1  0  0  0  0
 26 28  1  0  0  0  0
 26 29  1  0  0  0  0
M  END
$$$$

  -OEChem-01062216083D

 29 29  0     1  0  0  0  0  0999 V2000
   -2.7466   -3.1081    1.2875 H   0  0  0  0  0  0  0  0  0  0  0  0
   -2.8737   -2.0990    0.8854 C   0  0  0  0  0  0  0  0  0  0  0  0
   -3.4926   -1.5209    1.5759 H   0  0  0  0  0  0  0  0  0  0  0  0
   -3.3816   -2.1670   -0.0798 H   0  0  0  0  0  0  0  0  0  0  0  0
   -1.5236   -1.4290    0.7146 C   0  0  0  0  0  0  0  0  0  0  0  0
   -0.5064   -2.0512    0.9764 O   0  0  0  0  0  0  0  0  0  0  0  0
   -1.4665   -0.1407    0.2195 N   0  0  0  0  0  0  0  0  0  0  0  0
   -2.3646    0.2933    0.0264 H   0  0  0  0  0  0  0  0  0  0  0  0
   -0.2793    0.7388    0.1198 C   0  0  1  0  0  0  0  0  0  0  0  0
   -0.6397    1.7450   -0.1227 H   0  0  0  0  0  0  0  0  0  0  0  0
    0.5093    0.8471    1.4382 C   0  0  0  0  0  0  0  0  0  0  0  0
    0.8602   -0.1319    1.7720 H   0  0  0  0  0  0  0  0  0  0  0  0
    1.3956    1.4691    1.2792 H   0  0  0  0  0  0  0  0  0  0  0  0
   -0.3251    1.4901    2.5030 C   0  0  0  0  0  0  0  0  0  0  0  0
   -0.6144    2.8465    2.5642 N   0  0  0  0  0  0  0  0  0  0  0  0
   -1.3094    3.0278    3.6615 C   0  0  0  0  0  0  0  0  0  0  0  0
   -1.6893    3.9865    4.0034 H   0  0  0  0  0  0  0  0  0  0  0  0
   -1.4831    1.8226    4.3171 N   0  0  0  0  0  0  0  0  0  0  0  0
   -1.9625    1.7012    5.2073 H   0  0  0  0  0  0  0  0  0  0  0  0
   -0.8480    0.8412    3.5859 C   0  0  0  0  0  0  0  0  0  0  0  0
   -0.7528   -0.2180    3.8091 H   0  0  0  0  0  0  0  0  0  0  0  0
    0.6755    0.3382   -1.0269 C   0  0  0  0  0  0  0  0  0  0  0  0
    1.1298    1.1963   -1.7722 O   0  0  0  0  0  0  0  0  0  0  0  0
    1.0197   -0.9847   -1.2293 N   0  0  0  0  0  0  0  0  0  0  0  0
    0.6782   -1.6506   -0.5314 H   0  0  0  0  0  0  0  0  0  0  0  0
    1.9649   -1.4339   -2.2415 C   0  0  0  0  0  0  0  0  0  0  0  0
    2.9509   -0.9906   -2.0684 H   0  0  0  0  0  0  0  0  0  0  0  0
    2.0632   -2.5230   -2.2071 H   0  0  0  0  0  0  0  0  0  0  0  0
    1.6197   -1.1494   -3.2407 H   0  0  0  0  0  0  0  0  0  0  0  0
  1  2  1  0  0  0  0
  2  3  1  0  0  0  0
  2  4  1  0  0  0  0
  2  5  1  0  0  0  0
  5  6  2  0  0  0  0
  5  7  1  0  0  0  0
  7  8  1  0  0  0  0
  7  9  1  0  0  0  0
  9 10  1  0  0  0  0
  9 11  1  0  0  0  0
  9 22  1  0  0  0  0
 11 12  1  0  0  0  0
 11 13  1  0  0  0  0
 11 14  1  0  0  0  0
 14 15  1  0  0  0  0
 14 20  2  0  0  0  0
 15 16  2  0  0  0  0
 16 17  1  0  0  0  0
 16 18  1  0  0  0  0
 18 19  1  0  0  0  0
 18 20  1  0  0  0  0
 20 21  1  0  0  0  0
 22 23  2  0  0  0  0
 22 24  1  0  0  0  0
 24 25  1  0  0  0  0
 24 26  1  0  0  0  0
 26 27  1  0  0  0  0
 26 28  1  0  0  0  0
 26 29  1  0  0  0  0
M  END
$$$$

  -OEChem-01062216083D

 29 29  0     1  0  0  0  0  0999 V2000
   -2.7668   -3.0735    1.3722 H   0  0  0  0  0  0  0  0  0  0  0  0
   -2.8984   -2.0676    0.9636 C   0  0  0  0  0  0  0  0  0  0  0  0
   -3.4632   -1.4679    1.6817 H   0  0  0  0  0  0  0  0  0  0  0  0
   -3.4646   -2.1378    0.0317 H   0  0  0  0  0  0  0  0  0  0  0  0
   -1.5483   -1.4278    0.7024 C   0  0  0  0  0  0  0  0  0  0  0  0
   -0.5294   -2.0750    0.8805 O   0  0  0  0  0  0  0  0  0  0  0  0
   -1.4941   -0.1410    0.2048 N   0  0  0  0  0  0  0  0  0  0  0  0
   -2.3943    0.3153    0.0871 H   0  0  0  0  0  0  0  0  0  0  0  0
   -0.3029    0.7330    0.0929 C   0  0  1  0  0  0  0  0  0  0  0  0
   -0.6608    1.7408   -0.1450 H   0  0  0  0  0  0  0  0  0  0  0  0
    0.4905    0.8289    1.4100 C   0  0  0  0  0  0  0  0  0  0  0  0
    0.8341   -0.1557    1.7359 H   0  0  0  0  0  0  0  0  0  0  0  0
    1.3814    1.4446    1.2526 H   0  0  0  0  0  0  0  0  0  0  0  0
   -0.3359    1.4725    2.4812 C   0  0  0  0  0  0  0  0  0  0  0  0
   -0.6155    2.8306    2.5510 N   0  0  0  0  0  0  0  0  0  0  0  0
   -1.3029    3.0119    3.6532 C   0  0  0  0  0  0  0  0  0  0  0  0
   -1.6745    3.9713    4.0017 H   0  0  0  0  0  0  0  0  0  0  0  0
   -1.4813    1.8050    4.3041 N   0  0  0  0  0  0  0  0  0  0  0  0
   -1.9560    1.6834    5.1968 H   0  0  0  0  0  0  0  0  0  0  0  0
   -0.8562    0.8228    3.5653 C   0  0  0  0  0  0  0  0  0  0  0  0
   -0.7641   -0.2371    3.7859 H   0  0  0  0  0  0  0  0  0  0  0  0
    0.6526    0.3410   -1.0583 C   0  0  0  0  0  0  0  0  0  0  0  0
    1.2999    1.2081   -1.6309 O   0  0  0  0  0  0  0  0  0  0  0  0
    0.7703   -0.9725   -1.4728 N   0  0  0  0  0  0  0  0  0  0  0  0
    0.3718   -1.6658   -0.8356 H   0  0  0  0  0  0  0  0  0  0  0  0
    1.7430   -1.4132   -2.4636 C   0  0  0  0  0  0  0  0  0  0  0  0
    2.7616   -1.2110   -2.1165 H   0  0  0  0  0  0  0  0  0  0  0  0
    1.6418   -2.4887   -2.6376 H   0  0  0  0  0  0  0  0  0  0  0  0
    1.5842   -0.8942   -3.4145 H   0  0  0  0  0  0  0  0  0  0  0  0
  1  2  1  0  0  0  0
  2  3  1  0  0  0  0
  2  4  1  0  0  0  0
  2  5  1  0  0  0  0
  5  6  2  0  0  0  0
  5  7  1  0  0  0  0
  7  8  1  0  0  0  0
  7  9  1  0  0  0  0
  9 10  1  0  0  0  0
  9 11  1  0  0  0  0
  9 22  1  0  0  0  0
 11 12  1  0  0  0  0
 11 13  1  0  0  0  0
 11 14  1  0  0  0  0
 14 15  1  0  0  0  0
 14 20  2  0  0  0  0
 15 16  2  0  0  0  0
 16 17  1  0  0  0  0
 16 18  1  0  0  0  0
 18 19  1  0  0  0  0
 18 20  1  0  0  0  0
 20 21  1  0  0  0  0
 22 23  2  0  0  0  0
 22 24  1  0  0  0  0
 24 25  1  0  0  0  0
 24 26  1  0  0  0  0
 26 27  1  0  0  0  0
 26 28  1  0  0  0  0
 26 29  1  0  0  0  0
M  END
$$$$

  -OEChem-01062216083D

 29 29  0     1  0  0  0  0  0999 V2000
   -2.7374   -3.0472    1.4367 H   0  0  0  0  0  0  0  0  0  0  0  0
   -2.8828   -2.0422    1.0304 C   0  0  0  0  0  0  0  0  0  0  0  0
   -3.3937   -1.4314    1.7788 H   0  0  0  0  0  0  0  0  0  0  0  0
   -3.5078   -2.1107    0.1367 H   0  0  0  0  0  0  0  0  0  0  0  0
   -1.5443   -1.4207    0.6804 C   0  0  0  0  0  0  0  0  0  0  0  0
   -0.5262   -2.0862    0.7672 O   0  0  0  0  0  0  0  0  0  0  0  0
   -1.5000   -0.1323    0.1878 N   0  0  0  0  0  0  0  0  0  0  0  0
   -2.3973    0.3429    0.1494 H   0  0  0  0  0  0  0  0  0  0  0  0
   -0.3049    0.7372    0.0787 C   0  0  1  0  0  0  0  0  0  0  0  0
   -0.6574    1.7477   -0.1554 H   0  0  0  0  0  0  0  0  0  0  0  0
    0.4793    0.8186    1.4031 C   0  0  0  0  0  0  0  0  0  0  0  0
    0.8130   -0.1715    1.7229 H   0  0  0  0  0  0  0  0  0  0  0  0
    1.3761    1.4295    1.2594 H   0  0  0  0  0  0  0  0  0  0  0  0
   -0.3518    1.4603    2.4722 C   0  0  0  0  0  0  0  0  0  0  0  0
   -0.6231    2.8196    2.5486 N   0  0  0  0  0  0  0  0  0  0  0  0
   -1.3131    2.9997    3.6491 C   0  0  0  0  0  0  0  0  0  0  0  0
   -1.6763    3.9605    4.0024 H   0  0  0  0  0  0  0  0  0  0  0  0
   -1.5053    1.7899    4.2907 N   0  0  0  0  0  0  0  0  0  0  0  0
   -1.9819    1.6672    5.1823 H   0  0  0  0  0  0  0  0  0  0  0  0
   -0.8833    0.8076    3.5493 C   0  0  0  0  0  0  0  0  0  0  0  0
   -0.7986   -0.2536    3.7659 H   0  0  0  0  0  0  0  0  0  0  0  0
    0.6521    0.3521   -1.0751 C   0  0  0  0  0  0  0  0  0  0  0  0
    1.4696    1.1680   -1.4818 O   0  0  0  0  0  0  0  0  0  0  0  0
    0.5550   -0.8749   -1.7052 N   0  0  0  0  0  0  0  0  0  0  0  0
    0.0624   -1.5861   -1.1634 H   0  0  0  0  0  0  0  0  0  0  0  0
    1.5073   -1.3192   -2.7143 C   0  0  0  0  0  0  0  0  0  0  0  0
    2.5119   -1.3944   -2.2853 H   0  0  0  0  0  0  0  0  0  0  0  0
    1.2179   -2.3019   -3.0986 H   0  0  0  0  0  0  0  0  0  0  0  0
    1.5337   -0.6163   -3.5536 H   0  0  0  0  0  0  0  0  0  0  0  0
  1  2  1  0  0  0  0
  2  3  1  0  0  0  0
  2  4  1  0  0  0  0
  2  5  1  0  0  0  0
  5  6  2  0  0  0  0
  5  7  1  0  0  0  0
  7  8  1  0  0  0  0
  7  9  1  0  0  0  0
  9 10  1  0  0  0  0
  9 11  1  0  0  0  0
  9 22  1  0  0  0  0
 11 12  1  0  0  0  0
 11 13  1  0  0  0  0
 11 14  1  0  0  0  0
 14 15  1  0  0  0  0
 14 20  2  0  0  0  0
 15 16  2  0  0  0  0
 16 17  1  0  0  0  0
 16 18  1  0  0  0  0
 18 19  1  0  0  0  0
 18 20  1  0  0  0  0
 20 21  1  0  0  0  0
 22 23  2  0  0  0  0
 22 24  1  0  0  0  0
 24 25  1  0  0  0  0
 24 26  1  0  0  0  0
 26 27  1  0  0  0  0
 26 28  1  0  0  0  0
 26 29  1  0  0  0  0
M  END
$$$$

  -OEChem-01062216083D

 29 29  0     1  0  0  0  0  0999 V2000
   -2.6965   -3.0457    1.4455 H   0  0  0  0  0  0  0  0  0  0  0  0
   -2.8523   -2.0378    1.0504 C   0  0  0  0  0  0  0  0  0  0  0  0
   -3.3391   -1.4316    1.8183 H   0  0  0  0  0  0  0  0  0  0  0  0
   -3.5042   -2.0990    0.1755 H   0  0  0  0  0  0  0  0  0  0  0  0
   -1.5237   -1.4166    0.6645 C   0  0  0  0  0  0  0  0  0  0  0  0
   -0.5062   -2.0851    0.7094 O   0  0  0  0  0  0  0  0  0  0  0  0
   -1.4895   -0.1243    0.1822 N   0  0  0  0  0  0  0  0  0  0  0  0
   -2.3834    0.3588    0.1910 H   0  0  0  0  0  0  0  0  0  0  0  0
   -0.2917    0.7427    0.0818 C   0  0  1  0  0  0  0  0  0  0  0  0
   -0.6396    1.7550   -0.1500 H   0  0  0  0  0  0  0  0  0  0  0  0
    0.4811    0.8176    1.4149 C   0  0  0  0  0  0  0  0  0  0  0  0
    0.8077   -0.1750    1.7339 H   0  0  0  0  0  0  0  0  0  0  0  0
    1.3812    1.4264    1.2855 H   0  0  0  0  0  0  0  0  0  0  0  0
   -0.3594    1.4589    2.4769 C   0  0  0  0  0  0  0  0  0  0  0  0
   -0.6284    2.8187    2.5545 N   0  0  0  0  0  0  0  0  0  0  0  0
   -1.3276    2.9976    3.6493 C   0  0  0  0  0  0  0  0  0  0  0  0
   -1.6926    3.9583    4.0015 H   0  0  0  0  0  0  0  0  0  0  0  0
   -1.5271    1.7868    4.2866 N   0  0  0  0  0  0  0  0  0  0  0  0
   -2.0091    1.6633    5.1751 H   0  0  0  0  0  0  0  0  0  0  0  0
   -0.9002    0.8050    3.5486 C   0  0  0  0  0  0  0  0  0  0  0  0
   -0.8169   -0.2565    3.7651 H   0  0  0  0  0  0  0  0  0  0  0  0
    0.6612    0.3607   -1.0780 C   0  0  0  0  0  0  0  0  0  0  0  0
    1.6301    1.0663   -1.3299 O   0  0  0  0  0  0  0  0  0  0  0  0
    0.3734   -0.7044   -1.9123 N   0  0  0  0  0  0  0  0  0  0  0  0
   -0.2629   -1.3897   -1.5104 H   0  0  0  0  0  0  0  0  0  0  0  0
    1.2820   -1.1480   -2.9619 C   0  0  0  0  0  0  0  0  0  0  0  0
    2.2340   -1.4745   -2.5308 H   0  0  0  0  0  0  0  0  0  0  0  0
    0.8429   -1.9860   -3.5115 H   0  0  0  0  0  0  0  0  0  0  0  0
    1.4754   -0.3363   -3.6709 H   0  0  0  0  0  0  0  0  0  0  0  0
  1  2  1  0  0  0  0
  2  3  1  0  0  0  0
  2  4  1  0  0  0  0
  2  5  1  0  0  0  0
  5  6  2  0  0  0  0
  5  7  1  0  0  0  0
  7  8  1  0  0  0  0
  7  9  1  0  0  0  0
  9 10  1  0  0  0  0
  9 11  1  0  0  0  0
  9 22  1  0  0  0  0
 11 12  1  0  0  0  0
 11 13  1  0  0  0  0
 11 14  1  0  0  0  0
 14 15  1  0  0  0  0
 14 20  2  0  0  0  0
 15 16  2  0  0  0  0
 16 17  1  0  0  0  0
 16 18  1  0  0  0  0
 18 19  1  0  0  0  0
 18 20  1  0  0  0  0
 20 21  1  0  0  0  0
 22 23  2  0  0  0  0
 22 24  1  0  0  0  0
 24 25  1  0  0  0  0
 24 26  1  0  0  0  0
 26 27  1  0  0  0  0
 26 28  1  0  0  0  0
 26 29  1  0  0  0  0
M  END
$$$$

  -OEChem-01062216083D

 29 29  0     1  0  0  0  0  0999 V2000
   -2.6469   -3.0736    1.3999 H   0  0  0  0  0  0  0  0  0  0  0  0
   -2.8110   -2.0607    1.0207 C   0  0  0  0  0  0  0  0  0  0  0  0
   -3.3099   -1.4726    1.7948 H   0  0  0  0  0  0  0  0  0  0  0  0
   -3.4559   -2.1149    0.1402 H   0  0  0  0  0  0  0  0  0  0  0  0
   -1.4861   -1.4191    0.6554 C   0  0  0  0  0  0  0  0  0  0  0  0
   -0.4609   -2.0725    0.7239 O   0  0  0  0  0  0  0  0  0  0  0  0
   -1.4656   -0.1194    0.1896 N   0  0  0  0  0  0  0  0  0  0  0  0
   -2.3615    0.3594    0.2167 H   0  0  0  0  0  0  0  0  0  0  0  0
   -0.2697    0.7505    0.0972 C   0  0  1  0  0  0  0  0  0  0  0  0
   -0.6197    1.7626   -0.1307 H   0  0  0  0  0  0  0  0  0  0  0  0
    0.4965    0.8271    1.4355 C   0  0  0  0  0  0  0  0  0  0  0  0
    0.8264   -0.1636    1.7564 H   0  0  0  0  0  0  0  0  0  0  0  0
    1.3947    1.4405    1.3150 H   0  0  0  0  0  0  0  0  0  0  0  0
   -0.3549    1.4658    2.4902 C   0  0  0  0  0  0  0  0  0  0  0  0
   -0.6284    2.8254    2.5632 N   0  0  0  0  0  0  0  0  0  0  0  0
   -1.3381    3.0039    3.6512 C   0  0  0  0  0  0  0  0  0  0  0  0
   -1.7072    3.9643    3.9997 H   0  0  0  0  0  0  0  0  0  0  0  0
   -1.5432    1.7929    4.2865 N   0  0  0  0  0  0  0  0  0  0  0  0
   -2.0345    1.6688    5.1699 H   0  0  0  0  0  0  0  0  0  0  0  0
   -0.9071    0.8115    3.5558 C   0  0  0  0  0  0  0  0  0  0  0  0
   -0.8253   -0.2499    3.7728 H   0  0  0  0  0  0  0  0  0  0  0  0
    0.6693    0.3740   -1.0770 C   0  0  0  0  0  0  0  0  0  0  0  0
    1.7717    0.8966   -1.1874 O   0  0  0  0  0  0  0  0  0  0  0  0
    0.2258   -0.4612   -2.0872 N   0  0  0  0  0  0  0  0  0  0  0  0
   -0.5995   -1.0085   -1.8631 H   0  0  0  0  0  0  0  0  0  0  0  0
    1.0872   -0.9185   -3.1701 C   0  0  0  0  0  0  0  0  0  0  0  0
    1.9210   -1.5065   -2.7725 H   0  0  0  0  0  0  0  0  0  0  0  0
    0.5202   -1.5447   -3.8654 H   0  0  0  0  0  0  0  0  0  0  0  0
    1.4901   -0.0657   -3.7264 H   0  0  0  0  0  0  0  0  0  0  0  0
  1  2  1  0  0  0  0
  2  3  1  0  0  0  0
  2  4  1  0  0  0  0
  2  5  1  0  0  0  0
  5  6  2  0  0  0  0
  5  7  1  0  0  0  0
  7  8  1  0  0  0  0
  7  9  1  0  0  0  0
  9 10  1  0  0  0  0
  9 11  1  0  0  0  0
  9 22  1  0  0  0  0
 11 12  1  0  0  0  0
 11 13  1  0  0  0  0
 11 14  1  0  0  0  0
 14 15  1  0  0  0  0
 14 20  2  0  0  0  0
 15 16  2  0  0  0  0
 16 17  1  0  0  0  0
 16 18  1  0  0  0  0
 18 19  1  0  0  0  0
 18 20  1  0  0  0  0
 20 21  1  0  0  0  0
 22 23  2  0  0  0  0
 22 24  1  0  0  0  0
 24 25  1  0  0  0  0
 24 26  1  0  0  0  0
 26 27  1  0  0  0  0
 26 28  1  0  0  0  0
 26 29  1  0  0  0  0
M  END
$$$$

  -OEChem-01062216083D

 29 29  0     1  0  0  0  0  0999 V2000
   -2.6217   -3.0920    1.3615 H   0  0  0  0  0  0  0  0  0  0  0  0
   -2.7858   -2.0793    0.9825 C   0  0  0  0  0  0  0  0  0  0  0  0
   -3.3059   -1.4983    1.7479 H   0  0  0  0  0  0  0  0  0  0  0  0
   -3.4107   -2.1359    0.0881 H   0  0  0  0  0  0  0  0  0  0  0  0
   -1.4581   -1.4260    0.6481 C   0  0  0  0  0  0  0  0  0  0  0  0
   -0.4297   -2.0696    0.7502 O   0  0  0  0  0  0  0  0  0  0  0  0
   -1.4408   -0.1224    0.1915 N   0  0  0  0  0  0  0  0  0  0  0  0
   -2.3379    0.3535    0.2229 H   0  0  0  0  0  0  0  0  0  0  0  0
   -0.2459    0.7487    0.1112 C   0  0  1  0  0  0  0  0  0  0  0  0
   -0.5953    1.7606   -0.1187 H   0  0  0  0  0  0  0  0  0  0  0  0
    0.5093    0.8319    1.4560 C   0  0  0  0  0  0  0  0  0  0  0  0
    0.8390   -0.1569    1.7836 H   0  0  0  0  0  0  0  0  0  0  0  0
    1.4066    1.4477    1.3416 H   0  0  0  0  0  0  0  0  0  0  0  0
   -0.3531    1.4722    2.5003 C   0  0  0  0  0  0  0  0  0  0  0  0
   -0.6312    2.8312    2.5658 N   0  0  0  0  0  0  0  0  0  0  0  0
   -1.3482    3.0114    3.6489 C   0  0  0  0  0  0  0  0  0  0  0  0
   -1.7234    3.9718    3.9909 H   0  0  0  0  0  0  0  0  0  0  0  0
   -1.5532    1.8026    4.2882 N   0  0  0  0  0  0  0  0  0  0  0  0
   -2.0482    1.6808    5.1699 H   0  0  0  0  0  0  0  0  0  0  0  0
   -0.9103    0.8204    3.5644 C   0  0  0  0  0  0  0  0  0  0  0  0
   -0.8258   -0.2402    3.7849 H   0  0  0  0  0  0  0  0  0  0  0  0
    0.6870    0.3680   -1.0668 C   0  0  0  0  0  0  0  0  0  0  0  0
    1.8747    0.6687   -1.0638 O   0  0  0  0  0  0  0  0  0  0  0  0
    0.1501   -0.1931   -2.2124 N   0  0  0  0  0  0  0  0  0  0  0  0
   -0.7959   -0.5503   -2.1283 H   0  0  0  0  0  0  0  0  0  0  0  0
    0.9628   -0.6227   -3.3436 C   0  0  0  0  0  0  0  0  0  0  0  0
    1.6628   -1.4067   -3.0361 H   0  0  0  0  0  0  0  0  0  0  0  0
    0.3241   -1.0189   -4.1386 H   0  0  0  0  0  0  0  0  0  0  0  0
    1.5329    0.2199   -3.7489 H   0  0  0  0  0  0  0  0  0  0  0  0
  1  2  1  0  0  0  0
  2  3  1  0  0  0  0
  2  4  1  0  0  0  0
  2  5  1  0  0  0  0
  5  6  2  0  0  0  0
  5  7  1  0  0  0  0
  7  8  1  0  0  0  0
  7  9  1  0  0  0  0
  9 10  1  0  0  0  0
  9 11  1  0  0  0  0
  9 22  1  0  0  0  0
 11 12  1  0  0  0  0
 11 13  1  0  0  0  0
 11 14  1  0  0  0  0
 14 15  1  0  0  0  0
 14 20  2  0  0  0  0
 15 16  2  0  0  0  0
 16 17  1  0  0  0  0
 16 18  1  0  0  0  0
 18 19  1  0  0  0  0
 18 20  1  0  0  0  0
 20 21  1  0  0  0  0
 22 23  2  0  0  0  0
 22 24  1  0  0  0  0
 24 25  1  0  0  0  0
 24 26  1  0  0  0  0
 26 27  1  0  0  0  0
 26 28  1  0  0  0  0
 26 29  1  0  0  0  0
M  END
$$$$

  -OEChem-01062216083D

 29 29  0     1  0  0  0  0  0999 V2000
   -2.6150   -3.1094    1.3243 H   0  0  0  0  0  0  0  0  0  0  0  0
   -2.7745   -2.0949    0.9476 C   0  0  0  0  0  0  0  0  0  0  0  0
   -3.3168   -1.5216    1.7033 H   0  0  0  0  0  0  0  0  0  0  0  0
   -3.3764   -2.1492    0.0372 H   0  0  0  0  0  0  0  0  0  0  0  0
   -1.4422   -1.4329    0.6502 C   0  0  0  0  0  0  0  0  0  0  0  0
   -0.4141   -2.0688    0.7926 O   0  0  0  0  0  0  0  0  0  0  0  0
   -1.4230   -0.1281    0.1962 N   0  0  0  0  0  0  0  0  0  0  0  0
   -2.3233    0.3417    0.2097 H   0  0  0  0  0  0  0  0  0  0  0  0
   -0.2304    0.7456    0.1205 C   0  0  1  0  0  0  0  0  0  0  0  0
   -0.5793    1.7572   -0.1112 H   0  0  0  0  0  0  0  0  0  0  0  0
    0.5214    0.8357    1.4663 C   0  0  0  0  0  0  0  0  0  0  0  0
    0.8542   -0.1508    1.7975 H   0  0  0  0  0  0  0  0  0  0  0  0
    1.4170    1.4536    1.3500 H   0  0  0  0  0  0  0  0  0  0  0  0
   -0.3462    1.4766    2.5057 C   0  0  0  0  0  0  0  0  0  0  0  0
   -0.6288    2.8356    2.5646 N   0  0  0  0  0  0  0  0  0  0  0  0
   -1.3518    3.0170    3.6437 C   0  0  0  0  0  0  0  0  0  0  0  0
   -1.7310    3.9775    3.9810 H   0  0  0  0  0  0  0  0  0  0  0  0
   -1.5566    1.8097    4.2859 N   0  0  0  0  0  0  0  0  0  0  0  0
   -2.0559    1.6890    5.1652 H   0  0  0  0  0  0  0  0  0  0  0  0
   -0.9064    0.8270    3.5695 C   0  0  0  0  0  0  0  0  0  0  0  0
   -0.8201   -0.2326    3.7941 H   0  0  0  0  0  0  0  0  0  0  0  0
    0.6975    0.3589   -1.0588 C   0  0  0  0  0  0  0  0  0  0  0  0
    1.9179    0.4206   -0.9702 O   0  0  0  0  0  0  0  0  0  0  0  0
    0.1382    0.0953   -2.2974 N   0  0  0  0  0  0  0  0  0  0  0  0
   -0.8667   -0.0420   -2.3186 H   0  0  0  0  0  0  0  0  0  0  0  0
    0.9253   -0.2908   -3.4619 C   0  0  0  0  0  0  0  0  0  0  0  0
    1.4644   -1.2237   -3.2666 H   0  0  0  0  0  0  0  0  0  0  0  0
    0.2724   -0.4410   -4.3270 H   0  0  0  0  0  0  0  0  0  0  0  0
    1.6512    0.4907   -3.7101 H   0  0  0  0  0  0  0  0  0  0  0  0
  1  2  1  0  0  0  0
  2  3  1  0  0  0  0
  2  4  1  0  0  0  0
  2  5  1  0  0  0  0
  5  6  2  0  0  0  0
  5  7  1  0  0  0  0
  7  8  1  0  0  0  0
  7  9  1  0  0  0  0
  9 10  1  0  0  0  0
  9 11  1  0  0  0  0
  9 22  1  0  0  0  0
 11 12  1  0  0  0  0
 11 13  1  0  0  0  0
 11 14  1  0  0  0  0
 14 15  1  0  0  0  0
 14 20  2  0  0  0  0
 15 16  2  0  0  0  0
 16 17  1  0  0  0  0
 16 18  1  0  0  0  0
 18 19  1  0  0  0  0
 18 20  1  0  0  0  0
 20 21  1  0  0  0  0
 22 23  2  0  0  0  0
 22 24  1  0  0  0  0
 24 25  1  0  0  0  0
 24 26  1  0  0  0  0
 26 27  1  0  0  0  0
 26 28  1  0  0  0  0
 26 29  1  0  0  0  0
M  END
$$$$

  -OEChem-01062216083D

 29 29  0     1  0  0  0  0  0999 V2000
   -2.6347   -3.1282    1.2951 H   0  0  0  0  0  0  0  0  0  0  0  0
   -2.7854   -2.1159    0.9091 C   0  0  0  0  0  0  0  0  0  0  0  0
   -3.3651   -1.5452    1.6384 H   0  0  0  0  0  0  0  0  0  0  0  0
   -3.3455   -2.1773   -0.0269 H   0  0  0  0  0  0  0  0  0  0  0  0
   -1.4463   -1.4444    0.6686 C   0  0  0  0  0  0  0  0  0  0  0  0
   -0.4229   -2.0714    0.8696 O   0  0  0  0  0  0  0  0  0  0  0  0
   -1.4201   -0.1415    0.2087 N   0  0  0  0  0  0  0  0  0  0  0  0
   -2.3248    0.3177    0.1717 H   0  0  0  0  0  0  0  0  0  0  0  0
   -0.2309    0.7349    0.1268 C   0  0  1  0  0  0  0  0  0  0  0  0
   -0.5834    1.7448   -0.1068 H   0  0  0  0  0  0  0  0  0  0  0  0
    0.5280    0.8377    1.4669 C   0  0  0  0  0  0  0  0  0  0  0  0
    0.8664   -0.1452    1.8038 H   0  0  0  0  0  0  0  0  0  0  0  0
    1.4210    1.4567    1.3375 H   0  0  0  0  0  0  0  0  0  0  0  0
   -0.3351    1.4824    2.5070 C   0  0  0  0  0  0  0  0  0  0  0  0
   -0.6215    2.8410    2.5569 N   0  0  0  0  0  0  0  0  0  0  0  0
   -1.3397    3.0273    3.6386 C   0  0  0  0  0  0  0  0  0  0  0  0
   -1.7208    3.9887    3.9714 H   0  0  0  0  0  0  0  0  0  0  0  0
   -1.5375    1.8237    4.2902 N   0  0  0  0  0  0  0  0  0  0  0  0
   -2.0345    1.7069    5.1714 H   0  0  0  0  0  0  0  0  0  0  0  0
   -0.8874    0.8382    3.5778 C   0  0  0  0  0  0  0  0  0  0  0  0
   -0.7963   -0.2200    3.8078 H   0  0  0  0  0  0  0  0  0  0  0  0
    0.6939    0.3409   -1.0520 C   0  0  0  0  0  0  0  0  0  0  0  0
    1.8962    0.1573   -0.9052 O   0  0  0  0  0  0  0  0  0  0  0  0
    0.1875    0.3738   -2.3401 N   0  0  0  0  0  0  0  0  0  0  0  0
   -0.8158    0.4856   -2.4387 H   0  0  0  0  0  0  0  0  0  0  0  0
    0.9832    0.0615   -3.5210 C   0  0  0  0  0  0  0  0  0  0  0  0
    1.3808   -0.9569   -3.4562 H   0  0  0  0  0  0  0  0  0  0  0  0
    0.3678    0.1370   -4.4224 H   0  0  0  0  0  0  0  0  0  0  0  0
    1.8201    0.7614   -3.6152 H   0  0  0  0  0  0  0  0  0  0  0  0
  1  2  1  0  0  0  0
  2  3  1  0  0  0  0
  2  4  1  0  0  0  0
  2  5  1  0  0  0  0
  5  6  2  0  0  0  0
  5  7  1  0  0  0  0
  7  8  1  0  0  0  0
  7  9  1  0  0  0  0
  9 10  1  0  0  0  0
  9 11  1  0  0  0  0
  9 22  1  0  0  0  0
 11 12  1  0  0  0  0
 11 13  1  0  0  0  0
 11 14  1  0  0  0  0
 14 15  1  0  0  0  0
 14 20  2  0  0  0  0
 15 16  2  0  0  0  0
 16 17  1  0  0  0  0
 16 18  1  0  0  0  0
 18 19  1  0  0  0  0
 18 20  1  0  0  0  0
 20 21  1  0  0  0  0
 22 23  2  0  0  0  0
 22 24  1  0  0  0  0
 24 25  1  0  0  0  0
 24 26  1  0  0  0  0
 26 27  1  0  0  0  0
 26 28  1  0  0  0  0
 26 29  1  0  0  0  0
M  END
$$$$

  -OEChem-01062216083D

 29 29  0     1  0  0  0  0  0999 V2000
   -2.6623   -3.1538    1.2483 H   0  0  0  0  0  0  0  0  0  0  0  0
   -2.8015   -2.1426    0.8552 C   0  0  0  0  0  0  0  0  0  0  0  0
   -3.4309   -1.5796    1.5485 H   0  0  0  0  0  0  0  0  0  0  0  0
   -3.3034   -2.2091   -0.1132 H   0  0  0  0  0  0  0  0  0  0  0  0
   -1.4583   -1.4544    0.6971 C   0  0  0  0  0  0  0  0  0  0  0  0
   -0.4452   -2.0639    0.9843 O   0  0  0  0  0  0  0  0  0  0  0  0
   -1.4248   -0.1543    0.2287 N   0  0  0  0  0  0  0  0  0  0  0  0
   -2.3324    0.2820    0.1032 H   0  0  0  0  0  0  0  0  0  0  0  0
   -0.2413    0.7280    0.1326 C   0  0  1  0  0  0  0  0  0  0  0  0
   -0.6018    1.7352   -0.1004 H   0  0  0  0  0  0  0  0  0  0  0  0
    0.5343    0.8465    1.4608 C   0  0  0  0  0  0  0  0  0  0  0  0
    0.8835   -0.1310    1.8023 H   0  0  0  0  0  0  0  0  0  0  0  0
    1.4228    1.4677    1.3124 H   0  0  0  0  0  0  0  0  0  0  0  0
   -0.3190    1.4935    2.5069 C   0  0  0  0  0  0  0  0  0  0  0  0
   -0.6137    2.8509    2.5499 N   0  0  0  0  0  0  0  0  0  0  0  0
   -1.3214    3.0391    3.6385 C   0  0  0  0  0  0  0  0  0  0  0  0
   -1.7059    3.9999    3.9689 H   0  0  0  0  0  0  0  0  0  0  0  0
   -1.5031    1.8389    4.3011 N   0  0  0  0  0  0  0  0  0  0  0  0
   -1.9911    1.7238    5.1874 H   0  0  0  0  0  0  0  0  0  0  0  0
   -0.8552    0.8530    3.5877 C   0  0  0  0  0  0  0  0  0  0  0  0
   -0.7565   -0.2039    3.8213 H   0  0  0  0  0  0  0  0  0  0  0  0
    0.6797    0.3314   -1.0474 C   0  0  0  0  0  0  0  0  0  0  0  0
    1.8102   -0.1075   -0.8770 O   0  0  0  0  0  0  0  0  0  0  0  0
    0.2861    0.6445   -2.3376 N   0  0  0  0  0  0  0  0  0  0  0  0
   -0.6463    1.0238   -2.4636 H   0  0  0  0  0  0  0  0  0  0  0  0
    1.1113    0.3904   -3.5124 C   0  0  0  0  0  0  0  0  0  0  0  0
    1.3597   -0.6739   -3.5834 H   0  0  0  0  0  0  0  0  0  0  0  0
    0.5761    0.6814   -4.4213 H   0  0  0  0  0  0  0  0  0  0  0  0
    2.0409    0.9667   -3.4586 H   0  0  0  0  0  0  0  0  0  0  0  0
  1  2  1  0  0  0  0
  2  3  1  0  0  0  0
  2  4  1  0  0  0  0
  2  5  1  0  0  0  0
  5  6  2  0  0  0  0
  5  7  1  0  0  0  0
  7  8  1  0  0  0  0
  7  9  1  0  0  0  0
  9 10  1  0  0  0  0
  9 11  1  0  0  0  0
  9 22  1  0  0  0  0
 11 12  1  0  0  0  0
 11 13  1  0  0  0  0
 11 14  1  0  0  0  0
 14 15  1  0  0  0  0
 14 20  2  0  0  0  0
 15 16  2  0  0  0  0
 16 17  1  0  0  0  0
 16 18  1  0  0  0  0
 18 19  1  0  0  0  0
 18 20  1  0  0  0  0
 20 21  1  0  0  0  0
 22 23  2  0  0  0  0
 22 24  1  0  0  0  0
 24 25  1  0  0  0  0
 24 26  1  0  0  0  0
 26 27  1  0  0  0  0
 26 28  1  0  0  0  0
 26 29  1  0  0  0  0
M  END
$$$$

  -OEChem-01062216083D

 29 29  0     1  0  0  0  0  0999 V2000
   -2.6841   -3.1980    1.1601 H   0  0  0  0  0  0  0  0  0  0  0  0
   -2.8129   -2.1862    0.7648 C   0  0  0  0  0  0  0  0  0  0  0  0
   -3.5225   -1.6486    1.3982 H   0  0  0  0  0  0  0  0  0  0  0  0
   -3.2160   -2.2549   -0.2484 H   0  0  0  0  0  0  0  0  0  0  0  0
   -1.4806   -1.4599    0.7450 C   0  0  0  0  0  0  0  0  0  0  0  0
   -0.4963   -2.0295    1.1776 O   0  0  0  0  0  0  0  0  0  0  0  0
   -1.4406   -0.1634    0.2654 N   0  0  0  0  0  0  0  0  0  0  0  0
   -2.3353    0.2172   -0.0242 H   0  0  0  0  0  0  0  0  0  0  0  0
   -0.2633    0.7248    0.1465 C   0  0  1  0  0  0  0  0  0  0  0  0
   -0.6384    1.7272   -0.0831 H   0  0  0  0  0  0  0  0  0  0  0  0
    0.5426    0.8619    1.4534 C   0  0  0  0  0  0  0  0  0  0  0  0
    0.9086   -0.1083    1.7974 H   0  0  0  0  0  0  0  0  0  0  0  0
    1.4222    1.4876    1.2768 H   0  0  0  0  0  0  0  0  0  0  0  0
   -0.2923    1.5125    2.5112 C   0  0  0  0  0  0  0  0  0  0  0  0
   -0.5954    2.8686    2.5441 N   0  0  0  0  0  0  0  0  0  0  0  0
   -1.2868    3.0616    3.6423 C   0  0  0  0  0  0  0  0  0  0  0  0
   -1.6753    4.0222    3.9680 H   0  0  0  0  0  0  0  0  0  0  0  0
   -1.4468    1.8678    4.3215 N   0  0  0  0  0  0  0  0  0  0  0  0
   -1.9244    1.7570    5.2140 H   0  0  0  0  0  0  0  0  0  0  0  0
   -0.8051    0.8790    3.6069 C   0  0  0  0  0  0  0  0  0  0  0  0
   -0.6994   -0.1767    3.8445 H   0  0  0  0  0  0  0  0  0  0  0  0
    0.6508    0.3287   -1.0378 C   0  0  0  0  0  0  0  0  0  0  0  0
    1.6429   -0.3733   -0.8938 O   0  0  0  0  0  0  0  0  0  0  0  0
    0.4185    0.8903   -2.2822 N   0  0  0  0  0  0  0  0  0  0  0  0
   -0.3647    1.5294   -2.3711 H   0  0  0  0  0  0  0  0  0  0  0  0
    1.2862    0.6752   -3.4339 C   0  0  0  0  0  0  0  0  0  0  0  0
    1.3610   -0.3928   -3.6643 H   0  0  0  0  0  0  0  0  0  0  0  0
    0.8837    1.1898   -4.3115 H   0  0  0  0  0  0  0  0  0  0  0  0
    2.2904    1.0637   -3.2344 H   0  0  0  0  0  0  0  0  0  0  0  0
  1  2  1  0  0  0  0
  2  3  1  0  0  0  0
  2  4  1  0  0  0  0
  2  5  1  0  0  0  0
  5  6  2  0  0  0  0
  5  7  1  0  0  0  0
  7  8  1  0  0  0  0
  7  9  1  0  0  0  0
  9 10  1  0  0  0  0
  9 11  1  0  0  0  0
  9 22  1  0  0  0  0
 11 12  1  0  0  0  0
 11 13  1  0  0  0  0
 11 14  1  0  0  0  0
 14 15  1  0  0  0  0
 14 20  2  0  0  0  0
 15 16  2  0  0  0  0
 16 17  1  0  0  0  0
 16 18  1  0  0  0  0
 18 19  1  0  0  0  0
 18 20  1  0  0  0  0
 20 21  1  0  0  0  0
 22 23  2  0  0  0  0
 22 24  1  0  0  0  0
 24 25  1  0  0  0  0
 24 26  1  0  0  0  0
 26 27  1  0  0  0  0
 26 28  1  0  0  0  0
 26 29  1  0  0  0  0
M  END
$$$$

  -OEChem-01062216083D

 29 29  0     1  0  0  0  0  0999 V2000
   -2.6366   -3.2574    0.9964 H   0  0  0  0  0  0  0  0  0  0  0  0
   -2.7699   -2.2478    0.5970 C   0  0  0  0  0  0  0  0  0  0  0  0
   -3.6057   -1.7714    1.1148 H   0  0  0  0  0  0  0  0  0  0  0  0
   -3.0018   -2.3213   -0.4681 H   0  0  0  0  0  0  0  0  0  0  0  0
   -1.5041   -1.4351    0.7973 C   0  0  0  0  0  0  0  0  0  0  0  0
   -0.5929   -1.9255    1.4391 O   0  0  0  0  0  0  0  0  0  0  0  0
   -1.4693   -0.1407    0.3083 N   0  0  0  0  0  0  0  0  0  0  0  0
   -2.3041    0.1401   -0.1951 H   0  0  0  0  0  0  0  0  0  0  0  0
   -0.2930    0.7492    0.1798 C   0  0  1  0  0  0  0  0  0  0  0  0
   -0.6783    1.7481   -0.0465 H   0  0  0  0  0  0  0  0  0  0  0  0
    0.5450    0.8984    1.4635 C   0  0  0  0  0  0  0  0  0  0  0  0
    0.9302   -0.0657    1.8027 H   0  0  0  0  0  0  0  0  0  0  0  0
    1.4144    1.5301    1.2602 H   0  0  0  0  0  0  0  0  0  0  0  0
   -0.2640    1.5508    2.5394 C   0  0  0  0  0  0  0  0  0  0  0  0
   -0.5712    2.9063    2.5707 N   0  0  0  0  0  0  0  0  0  0  0  0
   -1.2416    3.1010    3.6821 C   0  0  0  0  0  0  0  0  0  0  0  0
   -1.6288    4.0610    4.0109 H   0  0  0  0  0  0  0  0  0  0  0  0
   -1.3816    1.9104    4.3714 N   0  0  0  0  0  0  0  0  0  0  0  0
   -1.8471    1.8000    5.2703 H   0  0  0  0  0  0  0  0  0  0  0  0
   -0.7519    0.9207    3.6476 C   0  0  0  0  0  0  0  0  0  0  0  0
   -0.6431   -0.1357    3.8817 H   0  0  0  0  0  0  0  0  0  0  0  0
    0.6178    0.3501   -1.0044 C   0  0  0  0  0  0  0  0  0  0  0  0
    1.3519   -0.6271   -0.9610 O   0  0  0  0  0  0  0  0  0  0  0  0
    0.6013    1.1150   -2.1586 N   0  0  0  0  0  0  0  0  0  0  0  0
    0.0421    1.9625   -2.1519 H   0  0  0  0  0  0  0  0  0  0  0  0
    1.4600    0.8492   -3.3067 C   0  0  0  0  0  0  0  0  0  0  0  0
    1.2677   -0.1524   -3.7056 H   0  0  0  0  0  0  0  0  0  0  0  0
    1.2676    1.5788   -4.0990 H   0  0  0  0  0  0  0  0  0  0  0  0
    2.5149    0.9184   -3.0209 H   0  0  0  0  0  0  0  0  0  0  0  0
  1  2  1  0  0  0  0
  2  3  1  0  0  0  0
  2  4  1  0  0  0  0
  2  5  1  0  0  0  0
  5  6  2  0  0  0  0
  5  7  1  0  0  0  0
  7  8  1  0  0  0  0
  7  9  1  0  0  0  0
  9 10  1  0  0  0  0
  9 11  1  0  0  0  0
  9 22  1  0  0  0  0
 11 12  1  0  0  0  0
 11 13  1  0  0  0  0
 11 14  1  0  0  0  0
 14 15  1  0  0  0  0
 14 20  2  0  0  0  0
 15 16  2  0  0  0  0
 16 17  1  0  0  0  0
 16 18  1  0  0  0  0
 18 19  1  0  0  0  0
 18 20  1  0  0  0  0
 20 21  1  0  0  0  0
 22 23  2  0  0  0  0
 22 24  1  0  0  0  0
 24 25  1  0  0  0  0
 24 26  1  0  0  0  0
 26 27  1  0  0  0  0
 26 28  1  0  0  0  0
 26 29  1  0  0  0  0
M  END
$$$$

  -OEChem-01062216083D

 29 29  0     1  0  0  0  0  0999 V2000
   -2.5869   -3.2779    0.9258 H   0  0  0  0  0  0  0  0  0  0  0  0
   -2.7240   -2.2749    0.5116 C   0  0  0  0  0  0  0  0  0  0  0  0
   -3.6233   -1.8331    0.9469 H   0  0  0  0  0  0  0  0  0  0  0  0
   -2.8510   -2.3585   -0.5704 H   0  0  0  0  0  0  0  0  0  0  0  0
   -1.5162   -1.4113    0.8244 C   0  0  0  0  0  0  0  0  0  0  0  0
   -0.6563   -1.8580    1.5638 O   0  0  0  0  0  0  0  0  0  0  0  0
   -1.4869   -0.1178    0.3311 N   0  0  0  0  0  0  0  0  0  0  0  0
   -2.2772    0.1127   -0.2614 H   0  0  0  0  0  0  0  0  0  0  0  0
   -0.3042    0.7643    0.2024 C   0  0  1  0  0  0  0  0  0  0  0  0
   -0.6889    1.7634   -0.0249 H   0  0  0  0  0  0  0  0  0  0  0  0
    0.5476    0.9114    1.4760 C   0  0  0  0  0  0  0  0  0  0  0  0
    0.9350   -0.0529    1.8113 H   0  0  0  0  0  0  0  0  0  0  0  0
    1.4161    1.5412    1.2637 H   0  0  0  0  0  0  0  0  0  0  0  0
   -0.2471    1.5691    2.5593 C   0  0  0  0  0  0  0  0  0  0  0  0
   -0.5471    2.9264    2.5909 N   0  0  0  0  0  0  0  0  0  0  0  0
   -1.2156    3.1231    3.7033 C   0  0  0  0  0  0  0  0  0  0  0  0
   -1.6002    4.0841    4.0322 H   0  0  0  0  0  0  0  0  0  0  0  0
   -1.3583    1.9333    4.3934 N   0  0  0  0  0  0  0  0  0  0  0  0
   -1.8296    1.8227    5.2891 H   0  0  0  0  0  0  0  0  0  0  0  0
   -0.7357    0.9406    3.6678 C   0  0  0  0  0  0  0  0  0  0  0  0
   -0.6374   -0.1183    3.8968 H   0  0  0  0  0  0  0  0  0  0  0  0
    0.6063    0.3605   -0.9800 C   0  0  0  0  0  0  0  0  0  0  0  0
    1.0417   -0.7763   -1.1009 O   0  0  0  0  0  0  0  0  0  0  0  0
    0.8427    1.2696   -1.9971 N   0  0  0  0  0  0  0  0  0  0  0  0
    0.5097    2.2200   -1.8638 H   0  0  0  0  0  0  0  0  0  0  0  0
    1.6822    0.9758   -3.1527 C   0  0  0  0  0  0  0  0  0  0  0  0
    1.2851    0.1194   -3.7078 H   0  0  0  0  0  0  0  0  0  0  0  0
    1.7140    1.8378   -3.8261 H   0  0  0  0  0  0  0  0  0  0  0  0
    2.7048    0.7464   -2.8347 H   0  0  0  0  0  0  0  0  0  0  0  0
  1  2  1  0  0  0  0
  2  3  1  0  0  0  0
  2  4  1  0  0  0  0
  2  5  1  0  0  0  0
  5  6  2  0  0  0  0
  5  7  1  0  0  0  0
  7  8  1  0  0  0  0
  7  9  1  0  0  0  0
  9 10  1  0  0  0  0
  9 11  1  0  0  0  0
  9 22  1  0  0  0  0
 11 12  1  0  0  0  0
 11 13  1  0  0  0  0
 11 14  1  0  0  0  0
 14 15  1  0  0  0  0
 14 20  2  0  0  0  0
 15 16  2  0  0  0  0
 16 17  1  0  0  0  0
 16 18  1  0  0  0  0
 18 19  1  0  0  0  0
 18 20  1  0  0  0  0
 20 21  1  0  0  0  0
 22 23  2  0  0  0  0
 22 24  1  0  0  0  0
 24 25  1  0  0  0  0
 24 26  1  0  0  0  0
 26 27  1  0  0  0  0
 26 28  1  0  0  0  0
 26 29  1  0  0  0  0
M  END
$$$$

  -OEChem-01062216083D

 29 29  0     1  0  0  0  0  0999 V2000
   -2.5792   -3.2838    0.9244 H   0  0  0  0  0  0  0  0  0  0  0  0
   -2.7058   -2.2890    0.4880 C   0  0  0  0  0  0  0  0  0  0  0  0
   -3.6246   -1.8463    0.8796 H   0  0  0  0  0  0  0  0  0  0  0  0
   -2.7890   -2.3913   -0.5967 H   0  0  0  0  0  0  0  0  0  0  0  0
   -1.5168   -1.4115    0.8327 C   0  0  0  0  0  0  0  0  0  0  0  0
   -0.6697   -1.8481    1.5936 O   0  0  0  0  0  0  0  0  0  0  0  0
   -1.4873   -0.1174    0.3413 N   0  0  0  0  0  0  0  0  0  0  0  0
   -2.2520    0.0925   -0.2914 H   0  0  0  0  0  0  0  0  0  0  0  0
   -0.2968    0.7553    0.2164 C   0  0  1  0  0  0  0  0  0  0  0  0
   -0.6786    1.7547   -0.0151 H   0  0  0  0  0  0  0  0  0  0  0  0
    0.5532    0.9020    1.4921 C   0  0  0  0  0  0  0  0  0  0  0  0
    0.9349   -0.0624    1.8330 H   0  0  0  0  0  0  0  0  0  0  0  0
    1.4255    1.5268    1.2807 H   0  0  0  0  0  0  0  0  0  0  0  0
   -0.2393    1.5701    2.5705 C   0  0  0  0  0  0  0  0  0  0  0  0
   -0.5270    2.9302    2.5920 N   0  0  0  0  0  0  0  0  0  0  0  0
   -1.2025    3.1392    3.6979 C   0  0  0  0  0  0  0  0  0  0  0  0
   -1.5800    4.1057    4.0191 H   0  0  0  0  0  0  0  0  0  0  0  0
   -1.3619    1.9542    4.3929 N   0  0  0  0  0  0  0  0  0  0  0  0
   -1.8446    1.8521    5.2835 H   0  0  0  0  0  0  0  0  0  0  0  0
   -0.7428    0.9517    3.6779 C   0  0  0  0  0  0  0  0  0  0  0  0
   -0.6597   -0.1071    3.9124 H   0  0  0  0  0  0  0  0  0  0  0  0
    0.6184    0.3547   -0.9640 C   0  0  0  0  0  0  0  0  0  0  0  0
    0.7777   -0.8150   -1.2888 O   0  0  0  0  0  0  0  0  0  0  0  0
    1.1157    1.3419   -1.7973 N   0  0  0  0  0  0  0  0  0  0  0  0
    0.9871    2.3076   -1.5080 H   0  0  0  0  0  0  0  0  0  0  0  0
    1.9340    1.0630   -2.9714 C   0  0  0  0  0  0  0  0  0  0  0  0
    1.3838    0.4389   -3.6834 H   0  0  0  0  0  0  0  0  0  0  0  0
    2.2077    1.9968   -3.4717 H   0  0  0  0  0  0  0  0  0  0  0  0
    2.8530    0.5421   -2.6828 H   0  0  0  0  0  0  0  0  0  0  0  0
  1  2  1  0  0  0  0
  2  3  1  0  0  0  0
  2  4  1  0  0  0  0
  2  5  1  0  0  0  0
  5  6  2  0  0  0  0
  5  7  1  0  0  0  0
  7  8  1  0  0  0  0
  7  9  1  0  0  0  0
  9 10  1  0  0  0  0
  9 11  1  0  0  0  0
  9 22  1  0  0  0  0
 11 12  1  0  0  0  0
 11 13  1  0  0  0  0
 11 14  1  0  0  0  0
 14 15  1  0  0  0  0
 14 20  2  0  0  0  0
 15 16  2  0  0  0  0
 16 17  1  0  0  0  0
 16 18  1  0  0  0  0
 18 19  1  0  0  0  0
 18 20  1  0  0  0  0
 20 21  1  0  0  0  0
 22 23  2  0  0  0  0
 22 24  1  0  0  0  0
 24 25  1  0  0  0  0
 24 26  1  0  0  0  0
 26 27  1  0  0  0  0
 26 28  1  0  0  0  0
 26 29  1  0  0  0  0
M  END
$$$$

  -OEChem-01062216083D

 29 29  0     1  0  0  0  0  0999 V2000
   -2.5909   -3.2743    0.9513 H   0  0  0  0  0  0  0  0  0  0  0  0
   -2.7038   -2.2873    0.4939 C   0  0  0  0  0  0  0  0  0  0  0  0
   -3.6234   -1.8295    0.8656 H   0  0  0  0  0  0  0  0  0  0  0  0
   -2.7747   -2.4099   -0.5898 H   0  0  0  0  0  0  0  0  0  0  0  0
   -1.5115   -1.4132    0.8358 C   0  0  0  0  0  0  0  0  0  0  0  0
   -0.6524   -1.8592    1.5784 O   0  0  0  0  0  0  0  0  0  0  0  0
   -1.4796   -0.1181    0.3475 N   0  0  0  0  0  0  0  0  0  0  0  0
   -2.2338    0.0875   -0.2994 H   0  0  0  0  0  0  0  0  0  0  0  0
   -0.2840    0.7482    0.2252 C   0  0  1  0  0  0  0  0  0  0  0  0
   -0.6586    1.7494   -0.0107 H   0  0  0  0  0  0  0  0  0  0  0  0
    0.5595    0.8926    1.5067 C   0  0  0  0  0  0  0  0  0  0  0  0
    0.9339   -0.0725    1.8528 H   0  0  0  0  0  0  0  0  0  0  0  0
    1.4369    1.5127    1.3025 H   0  0  0  0  0  0  0  0  0  0  0  0
   -0.2369    1.5674    2.5781 C   0  0  0  0  0  0  0  0  0  0  0  0
   -0.5172    2.9288    2.5945 N   0  0  0  0  0  0  0  0  0  0  0  0
   -1.2027    3.1435    3.6932 C   0  0  0  0  0  0  0  0  0  0  0  0
   -1.5788    4.1128    4.0083 H   0  0  0  0  0  0  0  0  0  0  0  0
   -1.3740    1.9609    4.3895 N   0  0  0  0  0  0  0  0  0  0  0  0
   -1.8663    1.8634    5.2754 H   0  0  0  0  0  0  0  0  0  0  0  0
   -0.7534    0.9538    3.6822 C   0  0  0  0  0  0  0  0  0  0  0  0
   -0.6783   -0.1051    3.9194 H   0  0  0  0  0  0  0  0  0  0  0  0
    0.6299    0.3458   -0.9564 C   0  0  0  0  0  0  0  0  0  0  0  0
    0.5586   -0.7615   -1.4764 O   0  0  0  0  0  0  0  0  0  0  0  0
    1.3798    1.3212   -1.5906 N   0  0  0  0  0  0  0  0  0  0  0  0
    1.4101    2.2420   -1.1614 H   0  0  0  0  0  0  0  0  0  0  0  0
    2.1967    1.0666   -2.7712 C   0  0  0  0  0  0  0  0  0  0  0  0
    1.5726    0.7246   -3.6035 H   0  0  0  0  0  0  0  0  0  0  0  0
    2.7113    1.9817   -3.0793 H   0  0  0  0  0  0  0  0  0  0  0  0
    2.9500    0.3010   -2.5581 H   0  0  0  0  0  0  0  0  0  0  0  0
  1  2  1  0  0  0  0
  2  3  1  0  0  0  0
  2  4  1  0  0  0  0
  2  5  1  0  0  0  0
  5  6  2  0  0  0  0
  5  7  1  0  0  0  0
  7  8  1  0  0  0  0
  7  9  1  0  0  0  0
  9 10  1  0  0  0  0
  9 11  1  0  0  0  0
  9 22  1  0  0  0  0
 11 12  1  0  0  0  0
 11 13  1  0  0  0  0
 11 14  1  0  0  0  0
 14 15  1  0  0  0  0
 14 20  2  0  0  0  0
 15 16  2  0  0  0  0
 16 17  1  0  0  0  0
 16 18  1  0  0  0  0
 18 19  1  0  0  0  0
 18 20  1  0  0  0  0
 20 21  1  0  0  0  0
 22 23  2  0  0  0  0
 22 24  1  0  0  0  0
 24 25  1  0  0  0  0
 24 26  1  0  0  0  0
 26 27  1  0  0  0  0
 26 28  1  0  0  0  0
 26 29  1  0  0  0  0
M  END
$$$$

  -OEChem-01062216083D

 29 29  0     1  0  0  0  0  0999 V2000
   -2.5904   -3.2676    0.9509 H   0  0  0  0  0  0  0  0  0  0  0  0
   -2.7056   -2.2749    0.5067 C   0  0  0  0  0  0  0  0  0  0  0  0
   -3.6131   -1.8137    0.9032 H   0  0  0  0  0  0  0  0  0  0  0  0
   -2.8015   -2.3849   -0.5764 H   0  0  0  0  0  0  0  0  0  0  0  0
   -1.5002   -1.4129    0.8307 C   0  0  0  0  0  0  0  0  0  0  0  0
   -0.6198   -1.8757    1.5372 O   0  0  0  0  0  0  0  0  0  0  0  0
   -1.4679   -0.1166    0.3478 N   0  0  0  0  0  0  0  0  0  0  0  0
   -2.2236    0.0935   -0.2961 H   0  0  0  0  0  0  0  0  0  0  0  0
   -0.2736    0.7510    0.2293 C   0  0  1  0  0  0  0  0  0  0  0  0
   -0.6440    1.7535   -0.0089 H   0  0  0  0  0  0  0  0  0  0  0  0
    0.5597    0.8911    1.5206 C   0  0  0  0  0  0  0  0  0  0  0  0
    0.9317   -0.0744    1.8678 H   0  0  0  0  0  0  0  0  0  0  0  0
    1.4385    1.5126    1.3303 H   0  0  0  0  0  0  0  0  0  0  0  0
   -0.2450    1.5624    2.5877 C   0  0  0  0  0  0  0  0  0  0  0  0
   -0.5237    2.9239    2.6052 N   0  0  0  0  0  0  0  0  0  0  0  0
   -1.2161    3.1373    3.6997 C   0  0  0  0  0  0  0  0  0  0  0  0
   -1.5945    4.1060    4.0136 H   0  0  0  0  0  0  0  0  0  0  0  0
   -1.3911    1.9538    4.3937 N   0  0  0  0  0  0  0  0  0  0  0  0
   -1.8887    1.8552    5.2766 H   0  0  0  0  0  0  0  0  0  0  0  0
   -0.7666    0.9474    3.6887 C   0  0  0  0  0  0  0  0  0  0  0  0
   -0.6916   -0.1112    3.9264 H   0  0  0  0  0  0  0  0  0  0  0  0
    0.6362    0.3458   -0.9558 C   0  0  0  0  0  0  0  0  0  0  0  0
    0.3936   -0.6445   -1.6369 O   0  0  0  0  0  0  0  0  0  0  0  0
    1.6127    1.2220   -1.3972 N   0  0  0  0  0  0  0  0  0  0  0  0
    1.7718    2.0622   -0.8482 H   0  0  0  0  0  0  0  0  0  0  0  0
    2.4498    0.9723   -2.5645 C   0  0  0  0  0  0  0  0  0  0  0  0
    1.8359    0.9012   -3.4685 H   0  0  0  0  0  0  0  0  0  0  0  0
    3.1666    1.7882   -2.6968 H   0  0  0  0  0  0  0  0  0  0  0  0
    3.0079    0.0380   -2.4426 H   0  0  0  0  0  0  0  0  0  0  0  0
  1  2  1  0  0  0  0
  2  3  1  0  0  0  0
  2  4  1  0  0  0  0
  2  5  1  0  0  0  0
  5  6  2  0  0  0  0
  5  7  1  0  0  0  0
  7  8  1  0  0  0  0
  7  9  1  0  0  0  0
  9 10  1  0  0  0  0
  9 11  1  0  0  0  0
  9 22  1  0  0  0  0
 11 12  1  0  0  0  0
 11 13  1  0  0  0  0
 11 14  1  0  0  0  0
 14 15  1  0  0  0  0
 14 20  2  0  0  0  0
 15 16  2  0  0  0  0
 16 17  1  0  0  0  0
 16 18  1  0  0  0  0
 18 19  1  0  0  0  0
 18 20  1  0  0  0  0
 20 21  1  0  0  0  0
 22 23  2  0  0  0  0
 22 24  1  0  0  0  0
 24 25  1  0  0  0  0
 24 26  1  0  0  0  0
 26 27  1  0  0  0  0
 26 28  1  0  0  0  0
 26 29  1  0  0  0  0
M  END
$$$$

  -OEChem-01062216083D

 29 29  0     1  0  0  0  0  0999 V2000
   -2.7077   -3.2441    0.8438 H   0  0  0  0  0  0  0  0  0  0  0  0
   -2.7921   -2.2214    0.4656 C   0  0  0  0  0  0  0  0  0  0  0  0
   -3.6446   -1.7370    0.9476 H   0  0  0  0  0  0  0  0  0  0  0  0
   -2.9631   -2.2600   -0.6133 H   0  0  0  0  0  0  0  0  0  0  0  0
   -1.5205   -1.4469    0.7583 C   0  0  0  0  0  0  0  0  0  0  0  0
   -0.6221   -2.0100    1.3617 O   0  0  0  0  0  0  0  0  0  0  0  0
   -1.4381   -0.1363    0.3231 N   0  0  0  0  0  0  0  0  0  0  0  0
   -2.2025    0.1326   -0.2892 H   0  0  0  0  0  0  0  0  0  0  0  0
   -0.2385    0.7304    0.2379 C   0  0  1  0  0  0  0  0  0  0  0  0
   -0.6038    1.7617    0.2779 H   0  0  0  0  0  0  0  0  0  0  0  0
    0.7785    0.6019    1.3947 C   0  0  0  0  0  0  0  0  0  0  0  0
    1.1725   -0.4136    1.4689 H   0  0  0  0  0  0  0  0  0  0  0  0
    1.6356    1.2550    1.2149 H   0  0  0  0  0  0  0  0  0  0  0  0
    0.1601    1.0341    2.6885 C   0  0  0  0  0  0  0  0  0  0  0  0
   -0.0695    2.3643    3.0201 N   0  0  0  0  0  0  0  0  0  0  0  0
   -0.5779    2.3553    4.2302 C   0  0  0  0  0  0  0  0  0  0  0  0
   -0.8735    3.2417    4.7841 H   0  0  0  0  0  0  0  0  0  0  0  0
   -0.6782    1.0574    4.6963 N   0  0  0  0  0  0  0  0  0  0  0  0
   -1.0353    0.7838    5.6097 H   0  0  0  0  0  0  0  0  0  0  0  0
   -0.2001    0.2130    3.7176 C   0  0  0  0  0  0  0  0  0  0  0  0
   -0.1199   -0.8717    3.7290 H   0  0  0  0  0  0  0  0  0  0  0  0
    0.4518    0.5917   -1.1419 C   0  0  0  0  0  0  0  0  0  0  0  0
   -0.0759   -0.0549   -2.0411 O   0  0  0  0  0  0  0  0  0  0  0  0
    1.5951    1.3147   -1.4370 N   0  0  0  0  0  0  0  0  0  0  0  0
    1.9940    1.8860   -0.6974 H   0  0  0  0  0  0  0  0  0  0  0  0
    2.2560    1.2805   -2.7361 C   0  0  0  0  0  0  0  0  0  0  0  0
    1.5805    1.6399   -3.5195 H   0  0  0  0  0  0  0  0  0  0  0  0
    3.1441    1.9197   -2.7254 H   0  0  0  0  0  0  0  0  0  0  0  0
    2.5678    0.2593   -2.9798 H   0  0  0  0  0  0  0  0  0  0  0  0
  1  2  1  0  0  0  0
  2  3  1  0  0  0  0
  2  4  1  0  0  0  0
  2  5  1  0  0  0  0
  5  6  2  0  0  0  0
  5  7  1  0  0  0  0
  7  8  1  0  0  0  0
  7  9  1  0  0  0  0
  9 10  1  0  0  0  0
  9 11  1  0  0  0  0
  9 22  1  0  0  0  0
 11 12  1  0  0  0  0
 11 13  1  0  0  0  0
 11 14  1  0  0  0  0
 14 15  1  0  0  0  0
 14 20  2  0  0  0  0
 15 16  2  0  0  0  0
 16 17  1  0  0  0  0
 16 18  1  0  0  0  0
 18 19  1  0  0  0  0
 18 20  1  0  0  0  0
 20 21  1  0  0  0  0
 22 23  2  0  0  0  0
 22 24  1  0  0  0  0
 24 25  1  0  0  0  0
 24 26  1  0  0  0  0
 26 27  1  0  0  0  0
 26 28  1  0  0  0  0
 26 29  1  0  0  0  0
M  END
$$$$

  -OEChem-01062216083D

 29 29  0     1  0  0  0  0  0999 V2000
   -2.6874   -3.2363    0.8235 H   0  0  0  0  0  0  0  0  0  0  0  0
   -2.7785   -2.2039    0.4750 C   0  0  0  0  0  0  0  0  0  0  0  0
   -3.6137   -1.7287    0.9947 H   0  0  0  0  0  0  0  0  0  0  0  0
   -2.9823   -2.2132   -0.5986 H   0  0  0  0  0  0  0  0  0  0  0  0
   -1.4957   -1.4415    0.7492 C   0  0  0  0  0  0  0  0  0  0  0  0
   -0.5849   -2.0171    1.3214 O   0  0  0  0  0  0  0  0  0  0  0  0
   -1.4134   -0.1272    0.3271 N   0  0  0  0  0  0  0  0  0  0  0  0
   -2.1803    0.1517   -0.2785 H   0  0  0  0  0  0  0  0  0  0  0  0
   -0.2171    0.7441    0.2528 C   0  0  1  0  0  0  0  0  0  0  0  0
   -0.5826    1.7753    0.2945 H   0  0  0  0  0  0  0  0  0  0  0  0
    0.7883    0.6109    1.4203 C   0  0  0  0  0  0  0  0  0  0  0  0
    1.1871   -0.4025    1.4938 H   0  0  0  0  0  0  0  0  0  0  0  0
    1.6418    1.2726    1.2565 H   0  0  0  0  0  0  0  0  0  0  0  0
    0.1544    1.0350    2.7095 C   0  0  0  0  0  0  0  0  0  0  0  0
   -0.0831    2.3616    3.0493 N   0  0  0  0  0  0  0  0  0  0  0  0
   -0.6131    2.3409    4.2498 C   0  0  0  0  0  0  0  0  0  0  0  0
   -0.9200    3.2217    4.8064 H   0  0  0  0  0  0  0  0  0  0  0  0
   -0.7208    1.0387    4.7019 N   0  0  0  0  0  0  0  0  0  0  0  0
   -1.0991    0.7565    5.6041 H   0  0  0  0  0  0  0  0  0  0  0  0
   -0.2246    0.2038    3.7240 C   0  0  0  0  0  0  0  0  0  0  0  0
   -0.1469   -0.8810    3.7252 H   0  0  0  0  0  0  0  0  0  0  0  0
    0.4632    0.6066   -1.1331 C   0  0  0  0  0  0  0  0  0  0  0  0
   -0.1767    0.1770   -2.0881 O   0  0  0  0  0  0  0  0  0  0  0  0
    1.7499    1.0656   -1.3598 N   0  0  0  0  0  0  0  0  0  0  0  0
    2.2650    1.4301   -0.5640 H   0  0  0  0  0  0  0  0  0  0  0  0
    2.4180    0.9840   -2.6532 C   0  0  0  0  0  0  0  0  0  0  0  0
    1.8450    1.5210   -3.4165 H   0  0  0  0  0  0  0  0  0  0  0  0
    3.4145    1.4318   -2.5925 H   0  0  0  0  0  0  0  0  0  0  0  0
    2.5261   -0.0609   -2.9622 H   0  0  0  0  0  0  0  0  0  0  0  0
  1  2  1  0  0  0  0
  2  3  1  0  0  0  0
  2  4  1  0  0  0  0
  2  5  1  0  0  0  0
  5  6  2  0  0  0  0
  5  7  1  0  0  0  0
  7  8  1  0  0  0  0
  7  9  1  0  0  0  0
  9 10  1  0  0  0  0
  9 11  1  0  0  0  0
  9 22  1  0  0  0  0
 11 12  1  0  0  0  0
 11 13  1  0  0  0  0
 11 14  1  0  0  0  0
 14 15  1  0  0  0  0
 14 20  2  0  0  0  0
 15 16  2  0  0  0  0
 16 17  1  0  0  0  0
 16 18  1  0  0  0  0
 18 19  1  0  0  0  0
 18 20  1  0  0  0  0
 20 21  1  0  0  0  0
 22 23  2  0  0  0  0
 22 24  1  0  0  0  0
 24 25  1  0  0  0  0
 24 26  1  0  0  0  0
 26 27  1  0  0  0  0
 26 28  1  0  0  0  0
 26 29  1  0  0  0  0
M  END
$$$$

  -OEChem-01062216083D

 29 29  0     1  0  0  0  0  0999 V2000
   -2.6768   -3.2248    0.8402 H   0  0  0  0  0  0  0  0  0  0  0  0
   -2.7681   -2.1923    0.4911 C   0  0  0  0  0  0  0  0  0  0  0  0
   -3.5854   -1.7087    1.0314 H   0  0  0  0  0  0  0  0  0  0  0  0
   -3.0006   -2.2023   -0.5767 H   0  0  0  0  0  0  0  0  0  0  0  0
   -1.4729   -1.4394    0.7308 C   0  0  0  0  0  0  0  0  0  0  0  0
   -0.5456   -2.0244    1.2657 O   0  0  0  0  0  0  0  0  0  0  0  0
   -1.3936   -0.1222    0.3183 N   0  0  0  0  0  0  0  0  0  0  0  0
   -2.1740    0.1750   -0.2610 H   0  0  0  0  0  0  0  0  0  0  0  0
   -0.2031    0.7567    0.2586 C   0  0  1  0  0  0  0  0  0  0  0  0
   -0.5723    1.7868    0.3004 H   0  0  0  0  0  0  0  0  0  0  0  0
    0.7913    0.6248    1.4352 C   0  0  0  0  0  0  0  0  0  0  0  0
    1.1976   -0.3856    1.5092 H   0  0  0  0  0  0  0  0  0  0  0  0
    1.6387    1.2973    1.2810 H   0  0  0  0  0  0  0  0  0  0  0  0
    0.1418    1.0387    2.7195 C   0  0  0  0  0  0  0  0  0  0  0  0
   -0.1091    2.3607    3.0655 N   0  0  0  0  0  0  0  0  0  0  0  0
   -0.6498    2.3284    4.2608 C   0  0  0  0  0  0  0  0  0  0  0  0
   -0.9687    3.2036    4.8196 H   0  0  0  0  0  0  0  0  0  0  0  0
   -0.7510    1.0224    4.7036 N   0  0  0  0  0  0  0  0  0  0  0  0
   -1.1313    0.7316    5.6022 H   0  0  0  0  0  0  0  0  0  0  0  0
   -0.2398    0.1977    3.7248 C   0  0  0  0  0  0  0  0  0  0  0  0
   -0.1526   -0.8863    3.7205 H   0  0  0  0  0  0  0  0  0  0  0  0
    0.4772    0.6219   -1.1266 C   0  0  0  0  0  0  0  0  0  0  0  0
   -0.2152    0.4161   -2.1184 O   0  0  0  0  0  0  0  0  0  0  0  0
    1.8406    0.7926   -1.2982 N   0  0  0  0  0  0  0  0  0  0  0  0
    2.4040    0.9212   -0.4633 H   0  0  0  0  0  0  0  0  0  0  0  0
    2.5128    0.6448   -2.5832 C   0  0  0  0  0  0  0  0  0  0  0  0
    2.0996    1.3463   -3.3156 H   0  0  0  0  0  0  0  0  0  0  0  0
    3.5824    0.8494   -2.4757 H   0  0  0  0  0  0  0  0  0  0  0  0
    2.3912   -0.3749   -2.9636 H   0  0  0  0  0  0  0  0  0  0  0  0
  1  2  1  0  0  0  0
  2  3  1  0  0  0  0
  2  4  1  0  0  0  0
  2  5  1  0  0  0  0
  5  6  2  0  0  0  0
  5  7  1  0  0  0  0
  7  8  1  0  0  0  0
  7  9  1  0  0  0  0
  9 10  1  0  0  0  0
  9 11  1  0  0  0  0
  9 22  1  0  0  0  0
 11 12  1  0  0  0  0
 11 13  1  0  0  0  0
 11 14  1  0  0  0  0
 14 15  1  0  0  0  0
 14 20  2  0  0  0  0
 15 16  2  0  0  0  0
 16 17  1  0  0  0  0
 16 18  1  0  0  0  0
 18 19  1  0  0  0  0
 18 20  1  0  0  0  0
 20 21  1  0  0  0  0
 22 23  2  0  0  0  0
 22 24  1  0  0  0  0
 24 25  1  0  0  0  0
 24 26  1  0  0  0  0
 26 27  1  0  0  0  0
 26 28  1  0  0  0  0
 26 29  1  0  0  0  0
M  END
$$$$

  -OEChem-01062216083D

 29 29  0     1  0  0  0  0  0999 V2000
   -2.6715   -3.2205    0.8450 H   0  0  0  0  0  0  0  0  0  0  0  0
   -2.7683   -2.1843    0.5086 C   0  0  0  0  0  0  0  0  0  0  0  0
   -3.5656   -1.7019    1.0790 H   0  0  0  0  0  0  0  0  0  0  0  0
   -3.0349   -2.1827   -0.5512 H   0  0  0  0  0  0  0  0  0  0  0  0
   -1.4616   -1.4408    0.7141 C   0  0  0  0  0  0  0  0  0  0  0  0
   -0.5208   -2.0340    1.2154 O   0  0  0  0  0  0  0  0  0  0  0  0
   -1.3810   -0.1229    0.3050 N   0  0  0  0  0  0  0  0  0  0  0  0
   -2.1794    0.1984   -0.2361 H   0  0  0  0  0  0  0  0  0  0  0  0
   -0.1929    0.7583    0.2573 C   0  0  1  0  0  0  0  0  0  0  0  0
   -0.5633    1.7882    0.2955 H   0  0  0  0  0  0  0  0  0  0  0  0
    0.7922    0.6298    1.4416 C   0  0  0  0  0  0  0  0  0  0  0  0
    1.2001   -0.3794    1.5222 H   0  0  0  0  0  0  0  0  0  0  0  0
    1.6388    1.3046    1.2884 H   0  0  0  0  0  0  0  0  0  0  0  0
    0.1321    1.0414    2.7210 C   0  0  0  0  0  0  0  0  0  0  0  0
   -0.1264    2.3616    3.0672 N   0  0  0  0  0  0  0  0  0  0  0  0
   -0.6709    2.3262    4.2605 C   0  0  0  0  0  0  0  0  0  0  0  0
   -0.9944    3.1998    4.8193 H   0  0  0  0  0  0  0  0  0  0  0  0
   -0.7687    1.0191    4.7015 N   0  0  0  0  0  0  0  0  0  0  0  0
   -1.1482    0.7265    5.5998 H   0  0  0  0  0  0  0  0  0  0  0  0
   -0.2507    0.1974    3.7235 C   0  0  0  0  0  0  0  0  0  0  0  0
   -0.1574   -0.8861    3.7199 H   0  0  0  0  0  0  0  0  0  0  0  0
    0.4948    0.6239   -1.1218 C   0  0  0  0  0  0  0  0  0  0  0  0
   -0.1970    0.6421   -2.1344 O   0  0  0  0  0  0  0  0  0  0  0  0
    1.8667    0.4920   -1.2542 N   0  0  0  0  0  0  0  0  0  0  0  0
    2.4067    0.3846   -0.4006 H   0  0  0  0  0  0  0  0  0  0  0  0
    2.5326    0.2952   -2.5357 C   0  0  0  0  0  0  0  0  0  0  0  0
    2.2976    1.1166   -3.2209 H   0  0  0  0  0  0  0  0  0  0  0  0
    3.6175    0.2634   -2.3966 H   0  0  0  0  0  0  0  0  0  0  0  0
    2.2128   -0.6476   -2.9918 H   0  0  0  0  0  0  0  0  0  0  0  0
  1  2  1  0  0  0  0
  2  3  1  0  0  0  0
  2  4  1  0  0  0  0
  2  5  1  0  0  0  0
  5  6  2  0  0  0  0
  5  7  1  0  0  0  0
  7  8  1  0  0  0  0
  7  9  1  0  0  0  0
  9 10  1  0  0  0  0
  9 11  1  0  0  0  0
  9 22  1  0  0  0  0
 11 12  1  0  0  0  0
 11 13  1  0  0  0  0
 11 14  1  0  0  0  0
 14 15  1  0  0  0  0
 14 20  2  0  0  0  0
 15 16  2  0  0  0  0
 16 17  1  0  0  0  0
 16 18  1  0  0  0  0
 18 19  1  0  0  0  0
 18 20  1  0  0  0  0
 20 21  1  0  0  0  0
 22 23  2  0  0  0  0
 22 24  1  0  0  0  0
 24 25  1  0  0  0  0
 24 26  1  0  0  0  0
 26 27  1  0  0  0  0
 26 28  1  0  0  0  0
 26 29  1  0  0  0  0
M  END
$$$$

  -OEChem-01062216083D

 29 29  0     1  0  0  0  0  0999 V2000
   -2.6734   -3.2039    0.8911 H   0  0  0  0  0  0  0  0  0  0  0  0
   -2.7715   -2.1687    0.5523 C   0  0  0  0  0  0  0  0  0  0  0  0
   -3.5354   -1.6720    1.1552 H   0  0  0  0  0  0  0  0  0  0  0  0
   -3.0856   -2.1699   -0.4943 H   0  0  0  0  0  0  0  0  0  0  0  0
   -1.4470   -1.4425    0.6945 C   0  0  0  0  0  0  0  0  0  0  0  0
   -0.4863   -2.0483    1.1401 O   0  0  0  0  0  0  0  0  0  0  0  0
   -1.3671   -0.1247    0.2868 N   0  0  0  0  0  0  0  0  0  0  0  0
   -2.1911    0.2257   -0.1943 H   0  0  0  0  0  0  0  0  0  0  0  0
   -0.1814    0.7580    0.2489 C   0  0  1  0  0  0  0  0  0  0  0  0
   -0.5544    1.7873    0.2860 H   0  0  0  0  0  0  0  0  0  0  0  0
    0.7969    0.6314    1.4386 C   0  0  0  0  0  0  0  0  0  0  0  0
    1.2041   -0.3775    1.5258 H   0  0  0  0  0  0  0  0  0  0  0  0
    1.6445    1.3053    1.2830 H   0  0  0  0  0  0  0  0  0  0  0  0
    0.1278    1.0406    2.7144 C   0  0  0  0  0  0  0  0  0  0  0  0
   -0.1384    2.3583    3.0641 N   0  0  0  0  0  0  0  0  0  0  0  0
   -0.6936    2.3167    4.2523 C   0  0  0  0  0  0  0  0  0  0  0  0
   -1.0242    3.1870    4.8120 H   0  0  0  0  0  0  0  0  0  0  0  0
   -0.7928    1.0074    4.6863 N   0  0  0  0  0  0  0  0  0  0  0  0
   -1.1794    0.7103    5.5801 H   0  0  0  0  0  0  0  0  0  0  0  0
   -0.2636    0.1913    3.7094 C   0  0  0  0  0  0  0  0  0  0  0  0
   -0.1687   -0.8919    3.7016 H   0  0  0  0  0  0  0  0  0  0  0  0
    0.5161    0.6251   -1.1234 C   0  0  0  0  0  0  0  0  0  0  0  0
   -0.1219    0.8747   -2.1398 O   0  0  0  0  0  0  0  0  0  0  0  0
    1.8268    0.1957   -1.2407 N   0  0  0  0  0  0  0  0  0  0  0  0
    2.2741   -0.1449   -0.3944 H   0  0  0  0  0  0  0  0  0  0  0  0
    2.4775   -0.0467   -2.5222 C   0  0  0  0  0  0  0  0  0  0  0  0
    2.4437    0.8526   -3.1461 H   0  0  0  0  0  0  0  0  0  0  0  0
    3.5261   -0.3178   -2.3675 H   0  0  0  0  0  0  0  0  0  0  0  0
    1.9814   -0.8646   -3.0550 H   0  0  0  0  0  0  0  0  0  0  0  0
  1  2  1  0  0  0  0
  2  3  1  0  0  0  0
  2  4  1  0  0  0  0
  2  5  1  0  0  0  0
  5  6  2  0  0  0  0
  5  7  1  0  0  0  0
  7  8  1  0  0  0  0
  7  9  1  0  0  0  0
  9 10  1  0  0  0  0
  9 11  1  0  0  0  0
  9 22  1  0  0  0  0
 11 12  1  0  0  0  0
 11 13  1  0  0  0  0
 11 14  1  0  0  0  0
 14 15  1  0  0  0  0
 14 20  2  0  0  0  0
 15 16  2  0  0  0  0
 16 17  1  0  0  0  0
 16 18  1  0  0  0  0
 18 19  1  0  0  0  0
 18 20  1  0  0  0  0
 20 21  1  0  0  0  0
 22 23  2  0  0  0  0
 22 24  1  0  0  0  0
 24 25  1  0  0  0  0
 24 26  1  0  0  0  0
 26 27  1  0  0  0  0
 26 28  1  0  0  0  0
 26 29  1  0  0  0  0
M  END
$$$$

  -OEChem-01062216083D

 29 29  0     1  0  0  0  0  0999 V2000
   -2.6749   -3.1841    0.9577 H   0  0  0  0  0  0  0  0  0  0  0  0
   -2.7767   -2.1509    0.6139 C   0  0  0  0  0  0  0  0  0  0  0  0
   -3.4954   -1.6358    1.2557 H   0  0  0  0  0  0  0  0  0  0  0  0
   -3.1532   -2.1574   -0.4120 H   0  0  0  0  0  0  0  0  0  0  0  0
   -1.4353   -1.4445    0.6696 C   0  0  0  0  0  0  0  0  0  0  0  0
   -0.4532   -2.0654    1.0424 O   0  0  0  0  0  0  0  0  0  0  0  0
   -1.3576   -0.1276    0.2592 N   0  0  0  0  0  0  0  0  0  0  0  0
   -2.2115    0.2591   -0.1334 H   0  0  0  0  0  0  0  0  0  0  0  0
   -0.1723    0.7545    0.2315 C   0  0  1  0  0  0  0  0  0  0  0  0
   -0.5450    1.7841    0.2659 H   0  0  0  0  0  0  0  0  0  0  0  0
    0.7981    0.6268    1.4268 C   0  0  0  0  0  0  0  0  0  0  0  0
    1.2028   -0.3821    1.5195 H   0  0  0  0  0  0  0  0  0  0  0  0
    1.6489    1.2973    1.2734 H   0  0  0  0  0  0  0  0  0  0  0  0
    0.1192    1.0345    2.6979 C   0  0  0  0  0  0  0  0  0  0  0  0
   -0.1520    2.3503    3.0498 N   0  0  0  0  0  0  0  0  0  0  0  0
   -0.7143    2.3047    4.2343 C   0  0  0  0  0  0  0  0  0  0  0  0
   -1.0486    3.1729    4.7951 H   0  0  0  0  0  0  0  0  0  0  0  0
   -0.8156    0.9939    4.6629 N   0  0  0  0  0  0  0  0  0  0  0  0
   -1.2042    0.6942    5.5550 H   0  0  0  0  0  0  0  0  0  0  0  0
   -0.2780    0.1815    3.6876 C   0  0  0  0  0  0  0  0  0  0  0  0
   -0.1790   -0.9012    3.6794 H   0  0  0  0  0  0  0  0  0  0  0  0
    0.5393    0.6205   -1.1303 C   0  0  0  0  0  0  0  0  0  0  0  0
    0.0173    1.1024   -2.1283 O   0  0  0  0  0  0  0  0  0  0  0  0
    1.7216   -0.0873   -1.2566 N   0  0  0  0  0  0  0  0  0  0  0  0
    2.0084   -0.6336   -0.4482 H   0  0  0  0  0  0  0  0  0  0  0  0
    2.3536   -0.3574   -2.5415 C   0  0  0  0  0  0  0  0  0  0  0  0
    2.5397    0.5770   -3.0814 H   0  0  0  0  0  0  0  0  0  0  0  0
    3.3120   -0.8636   -2.3919 H   0  0  0  0  0  0  0  0  0  0  0  0
    1.7124   -0.9984   -3.1555 H   0  0  0  0  0  0  0  0  0  0  0  0
  1  2  1  0  0  0  0
  2  3  1  0  0  0  0
  2  4  1  0  0  0  0
  2  5  1  0  0  0  0
  5  6  2  0  0  0  0
  5  7  1  0  0  0  0
  7  8  1  0  0  0  0
  7  9  1  0  0  0  0
  9 10  1  0  0  0  0
  9 11  1  0  0  0  0
  9 22  1  0  0  0  0
 11 12  1  0  0  0  0
 11 13  1  0  0  0  0
 11 14  1  0  0  0  0
 14 15  1  0  0  0  0
 14 20  2  0  0  0  0
 15 16  2  0  0  0  0
 16 17  1  0  0  0  0
 16 18  1  0  0  0  0
 18 19  1  0  0  0  0
 18 20  1  0  0  0  0
 20 21  1  0  0  0  0
 22 23  2  0  0  0  0
 22 24  1  0  0  0  0
 24 25  1  0  0  0  0
 24 26  1  0  0  0  0
 26 27  1  0  0  0  0
 26 28  1  0  0  0  0
 26 29  1  0  0  0  0
M  END
$$$$

  -OEChem-01062216083D

 29 29  0     1  0  0  0  0  0999 V2000
   -2.6643   -3.1625    1.0337 H   0  0  0  0  0  0  0  0  0  0  0  0
   -2.7779   -2.1323    0.6848 C   0  0  0  0  0  0  0  0  0  0  0  0
   -3.4444   -1.6011    1.3687 H   0  0  0  0  0  0  0  0  0  0  0  0
   -3.2247   -2.1463   -0.3124 H   0  0  0  0  0  0  0  0  0  0  0  0
   -1.4274   -1.4427    0.6372 C   0  0  0  0  0  0  0  0  0  0  0  0
   -0.4214   -2.0788    0.9084 O   0  0  0  0  0  0  0  0  0  0  0  0
   -1.3580   -0.1275    0.2220 N   0  0  0  0  0  0  0  0  0  0  0  0
   -2.2386    0.2958   -0.0569 H   0  0  0  0  0  0  0  0  0  0  0  0
   -0.1718    0.7528    0.2080 C   0  0  1  0  0  0  0  0  0  0  0  0
   -0.5433    1.7833    0.2394 H   0  0  0  0  0  0  0  0  0  0  0  0
    0.7920    0.6223    1.4074 C   0  0  0  0  0  0  0  0  0  0  0  0
    1.1979   -0.3861    1.5002 H   0  0  0  0  0  0  0  0  0  0  0  0
    1.6435    1.2930    1.2573 H   0  0  0  0  0  0  0  0  0  0  0  0
    0.1064    1.0258    2.6757 C   0  0  0  0  0  0  0  0  0  0  0  0
   -0.1689    2.3393    3.0317 N   0  0  0  0  0  0  0  0  0  0  0  0
   -0.7322    2.2890    4.2152 C   0  0  0  0  0  0  0  0  0  0  0  0
   -1.0699    3.1547    4.7778 H   0  0  0  0  0  0  0  0  0  0  0  0
   -0.8304    0.9763    4.6392 N   0  0  0  0  0  0  0  0  0  0  0  0
   -1.2166    0.6730    5.5312 H   0  0  0  0  0  0  0  0  0  0  0  0
   -0.2886    0.1684    3.6625 C   0  0  0  0  0  0  0  0  0  0  0  0
   -0.1819   -0.9134    3.6539 H   0  0  0  0  0  0  0  0  0  0  0  0
    0.5554    0.6127   -1.1426 C   0  0  0  0  0  0  0  0  0  0  0  0
    0.2208    1.3113   -2.0911 O   0  0  0  0  0  0  0  0  0  0  0  0
    1.5462   -0.3386   -1.3047 N   0  0  0  0  0  0  0  0  0  0  0  0
    1.6198   -1.0321   -0.5621 H   0  0  0  0  0  0  0  0  0  0  0  0
    2.1675   -0.6257   -2.5911 C   0  0  0  0  0  0  0  0  0  0  0  0
    2.5990    0.2847   -3.0206 H   0  0  0  0  0  0  0  0  0  0  0  0
    2.9696   -1.3598   -2.4678 H   0  0  0  0  0  0  0  0  0  0  0  0
    1.4290   -1.0302   -3.2910 H   0  0  0  0  0  0  0  0  0  0  0  0
  1  2  1  0  0  0  0
  2  3  1  0  0  0  0
  2  4  1  0  0  0  0
  2  5  1  0  0  0  0
  5  6  2  0  0  0  0
  5  7  1  0  0  0  0
  7  8  1  0  0  0  0
  7  9  1  0  0  0  0
  9 10  1  0  0  0  0
  9 11  1  0  0  0  0
  9 22  1  0  0  0  0
 11 12  1  0  0  0  0
 11 13  1  0  0  0  0
 11 14  1  0  0  0  0
 14 15  1  0  0  0  0
 14 20  2  0  0  0  0
 15 16  2  0  0  0  0
 16 17  1  0  0  0  0
 16 18  1  0  0  0  0
 18 19  1  0  0  0  0
 18 20  1  0  0  0  0
 20 21  1  0  0  0  0
 22 23  2  0  0  0  0
 22 24  1  0  0  0  0
 24 25  1  0  0  0  0
 24 26  1  0  0  0  0
 26 27  1  0  0  0  0
 26 28  1  0  0  0  0
 26 29  1  0  0  0  0
M  END
$$$$

  -OEChem-01062216083D

 29 29  0     1  0  0  0  0  0999 V2000
   -2.6581   -3.1355    1.1126 H   0  0  0  0  0  0  0  0  0  0  0  0
   -2.7831   -2.1079    0.7595 C   0  0  0  0  0  0  0  0  0  0  0  0
   -3.3919   -1.5596    1.4825 H   0  0  0  0  0  0  0  0  0  0  0  0
   -3.3005   -2.1272   -0.2028 H   0  0  0  0  0  0  0  0  0  0  0  0
   -1.4302   -1.4384    0.6070 C   0  0  0  0  0  0  0  0  0  0  0  0
   -0.4126   -2.0899    0.7843 O   0  0  0  0  0  0  0  0  0  0  0  0
   -1.3685   -0.1265    0.1815 N   0  0  0  0  0  0  0  0  0  0  0  0
   -2.2635    0.3220    0.0080 H   0  0  0  0  0  0  0  0  0  0  0  0
   -0.1823    0.7548    0.1770 C   0  0  1  0  0  0  0  0  0  0  0  0
   -0.5522    1.7861    0.2046 H   0  0  0  0  0  0  0  0  0  0  0  0
    0.7769    0.6175    1.3780 C   0  0  0  0  0  0  0  0  0  0  0  0
    1.1819   -0.3922    1.4637 H   0  0  0  0  0  0  0  0  0  0  0  0
    1.6292    1.2881    1.2333 H   0  0  0  0  0  0  0  0  0  0  0  0
    0.0880    1.0122    2.6476 C   0  0  0  0  0  0  0  0  0  0  0  0
   -0.1897    2.3225    3.0131 N   0  0  0  0  0  0  0  0  0  0  0  0
   -0.7449    2.2652    4.2000 C   0  0  0  0  0  0  0  0  0  0  0  0
   -1.0792    3.1276    4.7697 H   0  0  0  0  0  0  0  0  0  0  0  0
   -0.8376    0.9500    4.6171 N   0  0  0  0  0  0  0  0  0  0  0  0
   -1.2103    0.6420    5.5132 H   0  0  0  0  0  0  0  0  0  0  0  0
   -0.2983    0.1487    3.6332 C   0  0  0  0  0  0  0  0  0  0  0  0
   -0.1824   -0.9321    3.6226 H   0  0  0  0  0  0  0  0  0  0  0  0
    0.5621    0.6058   -1.1616 C   0  0  0  0  0  0  0  0  0  0  0  0
    0.4607    1.4624   -2.0303 O   0  0  0  0  0  0  0  0  0  0  0  0
    1.3157   -0.5301   -1.3906 N   0  0  0  0  0  0  0  0  0  0  0  0
    1.1967   -1.2835   -0.7116 H   0  0  0  0  0  0  0  0  0  0  0  0
    1.9370   -0.8299   -2.6733 C   0  0  0  0  0  0  0  0  0  0  0  0
    2.6017   -0.0145   -2.9775 H   0  0  0  0  0  0  0  0  0  0  0  0
    2.5291   -1.7471   -2.6001 H   0  0  0  0  0  0  0  0  0  0  0  0
    1.1727   -0.9684   -3.4449 H   0  0  0  0  0  0  0  0  0  0  0  0
  1  2  1  0  0  0  0
  2  3  1  0  0  0  0
  2  4  1  0  0  0  0
  2  5  1  0  0  0  0
  5  6  2  0  0  0  0
  5  7  1  0  0  0  0
  7  8  1  0  0  0  0
  7  9  1  0  0  0  0
  9 10  1  0  0  0  0
  9 11  1  0  0  0  0
  9 22  1  0  0  0  0
 11 12  1  0  0  0  0
 11 13  1  0  0  0  0
 11 14  1  0  0  0  0
 14 15  1  0  0  0  0
 14 20  2  0  0  0  0
 15 16  2  0  0  0  0
 16 17  1  0  0  0  0
 16 18  1  0  0  0  0
 18 19  1  0  0  0  0
 18 20  1  0  0  0  0
 20 21  1  0  0  0  0
 22 23  2  0  0  0  0
 22 24  1  0  0  0  0
 24 25  1  0  0  0  0
 24 26  1  0  0  0  0
 26 27  1  0  0  0  0
 26 28  1  0  0  0  0
 26 29  1  0  0  0  0
M  END
$$$$

  -OEChem-01062216083D

 29 29  0     1  0  0  0  0  0999 V2000
   -2.6847   -3.1150    1.1866 H   0  0  0  0  0  0  0  0  0  0  0  0
   -2.8123   -2.0852    0.8408 C   0  0  0  0  0  0  0  0  0  0  0  0
   -3.3673   -1.5266    1.5985 H   0  0  0  0  0  0  0  0  0  0  0  0
   -3.3860   -2.0948   -0.0893 H   0  0  0  0  0  0  0  0  0  0  0  0
   -1.4600   -1.4393    0.6081 C   0  0  0  0  0  0  0  0  0  0  0  0
   -0.4444   -2.1064    0.7274 O   0  0  0  0  0  0  0  0  0  0  0  0
   -1.4004   -0.1337    0.1641 N   0  0  0  0  0  0  0  0  0  0  0  0
   -2.2994    0.3265    0.0523 H   0  0  0  0  0  0  0  0  0  0  0  0
   -0.2135    0.7495    0.1459 C   0  0  1  0  0  0  0  0  0  0  0  0
   -0.5807    1.7819    0.1705 H   0  0  0  0  0  0  0  0  0  0  0  0
    0.7530    0.6056    1.3389 C   0  0  0  0  0  0  0  0  0  0  0  0
    1.1564   -0.4058    1.4146 H   0  0  0  0  0  0  0  0  0  0  0  0
    1.6057    1.2754    1.1908 H   0  0  0  0  0  0  0  0  0  0  0  0
    0.0759    0.9967    2.6162 C   0  0  0  0  0  0  0  0  0  0  0  0
   -0.1956    2.3058    2.9899 N   0  0  0  0  0  0  0  0  0  0  0  0
   -0.7380    2.2448    4.1825 C   0  0  0  0  0  0  0  0  0  0  0  0
   -1.0653    3.1056    4.7588 H   0  0  0  0  0  0  0  0  0  0  0  0
   -0.8282    0.9282    4.5960 N   0  0  0  0  0  0  0  0  0  0  0  0
   -1.1893    0.6179    5.4962 H   0  0  0  0  0  0  0  0  0  0  0  0
   -0.3007    0.1299    3.6033 C   0  0  0  0  0  0  0  0  0  0  0  0
   -0.1847   -0.9509    3.5891 H   0  0  0  0  0  0  0  0  0  0  0  0
    0.5395    0.5915   -1.1876 C   0  0  0  0  0  0  0  0  0  0  0  0
    0.6782    1.5416   -1.9465 O   0  0  0  0  0  0  0  0  0  0  0  0
    1.0359   -0.6510   -1.5340 N   0  0  0  0  0  0  0  0  0  0  0  0
    0.8148   -1.4192   -0.8965 H   0  0  0  0  0  0  0  0  0  0  0  0
    1.7035   -0.9363   -2.7960 C   0  0  0  0  0  0  0  0  0  0  0  0
    2.5828   -0.2952   -2.9177 H   0  0  0  0  0  0  0  0  0  0  0  0
    2.0314   -1.9799   -2.8208 H   0  0  0  0  0  0  0  0  0  0  0  0
    1.0227   -0.7656   -3.6362 H   0  0  0  0  0  0  0  0  0  0  0  0
  1  2  1  0  0  0  0
  2  3  1  0  0  0  0
  2  4  1  0  0  0  0
  2  5  1  0  0  0  0
  5  6  2  0  0  0  0
  5  7  1  0  0  0  0
  7  8  1  0  0  0  0
  7  9  1  0  0  0  0
  9 10  1  0  0  0  0
  9 11  1  0  0  0  0
  9 22  1  0  0  0  0
 11 12  1  0  0  0  0
 11 13  1  0  0  0  0
 11 14  1  0  0  0  0
 14 15  1  0  0  0  0
 14 20  2  0  0  0  0
 15 16  2  0  0  0  0
 16 17  1  0  0  0  0
 16 18  1  0  0  0  0
 18 19  1  0  0  0  0
 18 20  1  0  0  0  0
 20 21  1  0  0  0  0
 22 23  2  0  0  0  0
 22 24  1  0  0  0  0
 24 25  1  0  0  0  0
 24 26  1  0  0  0  0
 26 27  1  0  0  0  0
 26 28  1  0  0  0  0
 26 29  1  0  0  0  0
M  END
$$$$

  -OEChem-01062216083D

 29 29  0     1  0  0  0  0  0999 V2000
   -2.7200   -3.1001    1.2823 H   0  0  0  0  0  0  0  0  0  0  0  0
   -2.8535   -2.0708    0.9376 C   0  0  0  0  0  0  0  0  0  0  0  0
   -3.3487   -1.4979    1.7255 H   0  0  0  0  0  0  0  0  0  0  0  0
   -3.4868   -2.0774    0.0471 H   0  0  0  0  0  0  0  0  0  0  0  0
   -1.5088   -1.4489    0.6128 C   0  0  0  0  0  0  0  0  0  0  0  0
   -0.4989   -2.1324    0.6622 O   0  0  0  0  0  0  0  0  0  0  0  0
   -1.4552   -0.1471    0.1576 N   0  0  0  0  0  0  0  0  0  0  0  0
   -2.3537    0.3251    0.1128 H   0  0  0  0  0  0  0  0  0  0  0  0
   -0.2654    0.7337    0.1119 C   0  0  1  0  0  0  0  0  0  0  0  0
   -0.6308    1.7661    0.1400 H   0  0  0  0  0  0  0  0  0  0  0  0
    0.7163    0.5849    1.2909 C   0  0  0  0  0  0  0  0  0  0  0  0
    1.1126   -0.4302    1.3590 H   0  0  0  0  0  0  0  0  0  0  0  0
    1.5717    1.2480    1.1301 H   0  0  0  0  0  0  0  0  0  0  0  0
    0.0605    0.9814    2.5778 C   0  0  0  0  0  0  0  0  0  0  0  0
   -0.1984    2.2918    2.9565 N   0  0  0  0  0  0  0  0  0  0  0  0
   -0.7153    2.2344    4.1605 C   0  0  0  0  0  0  0  0  0  0  0  0
   -1.0257    3.0968    4.7436 H   0  0  0  0  0  0  0  0  0  0  0  0
   -0.8028    0.9185    4.5763 N   0  0  0  0  0  0  0  0  0  0  0  0
   -1.1411    0.6105    5.4861 H   0  0  0  0  0  0  0  0  0  0  0  0
   -0.2990    0.1174    3.5735 C   0  0  0  0  0  0  0  0  0  0  0  0
   -0.1838   -0.9633    3.5606 H   0  0  0  0  0  0  0  0  0  0  0  0
    0.4837    0.5820   -1.2261 C   0  0  0  0  0  0  0  0  0  0  0  0
    0.8762    1.5675   -1.8364 O   0  0  0  0  0  0  0  0  0  0  0  0
    0.7149   -0.6817   -1.7359 N   0  0  0  0  0  0  0  0  0  0  0  0
    0.4459   -1.4636   -1.1350 H   0  0  0  0  0  0  0  0  0  0  0  0
    1.4885   -0.9394   -2.9422 C   0  0  0  0  0  0  0  0  0  0  0  0
    2.5137   -0.5729   -2.8253 H   0  0  0  0  0  0  0  0  0  0  0  0
    1.5247   -2.0142   -3.1436 H   0  0  0  0  0  0  0  0  0  0  0  0
    1.0314   -0.4417   -3.8038 H   0  0  0  0  0  0  0  0  0  0  0  0
  1  2  1  0  0  0  0
  2  3  1  0  0  0  0
  2  4  1  0  0  0  0
  2  5  1  0  0  0  0
  5  6  2  0  0  0  0
  5  7  1  0  0  0  0
  7  8  1  0  0  0  0
  7  9  1  0  0  0  0
  9 10  1  0  0  0  0
  9 11  1  0  0  0  0
  9 22  1  0  0  0  0
 11 12  1  0  0  0  0
 11 13  1  0  0  0  0
 11 14  1  0  0  0  0
 14 15  1  0  0  0  0
 14 20  2  0  0  0  0
 15 16  2  0  0  0  0
 16 17  1  0  0  0  0
 16 18  1  0  0  0  0
 18 19  1  0  0  0  0
 18 20  1  0  0  0  0
 20 21  1  0  0  0  0
 22 23  2  0  0  0  0
 22 24  1  0  0  0  0
 24 25  1  0  0  0  0
 24 26  1  0  0  0  0
 26 27  1  0  0  0  0
 26 28  1  0  0  0  0
 26 29  1  0  0  0  0
M  END
$$$$

  -OEChem-01062216083D

 29 29  0     1  0  0  0  0  0999 V2000
   -2.7150   -3.0804    1.3686 H   0  0  0  0  0  0  0  0  0  0  0  0
   -2.8594   -2.0553    1.0155 C   0  0  0  0  0  0  0  0  0  0  0  0
   -3.3085   -1.4671    1.8195 H   0  0  0  0  0  0  0  0  0  0  0  0
   -3.5384   -2.0696    0.1594 H   0  0  0  0  0  0  0  0  0  0  0  0
   -1.5293   -1.4482    0.6125 C   0  0  0  0  0  0  0  0  0  0  0  0
   -0.5272   -2.1430    0.5956 O   0  0  0  0  0  0  0  0  0  0  0  0
   -1.4849   -0.1486    0.1516 N   0  0  0  0  0  0  0  0  0  0  0  0
   -2.3808    0.3304    0.1601 H   0  0  0  0  0  0  0  0  0  0  0  0
   -0.2948    0.7332    0.0905 C   0  0  1  0  0  0  0  0  0  0  0  0
   -0.6595    1.7659    0.1218 H   0  0  0  0  0  0  0  0  0  0  0  0
    0.6923    0.5773    1.2645 C   0  0  0  0  0  0  0  0  0  0  0  0
    1.0832   -0.4403    1.3262 H   0  0  0  0  0  0  0  0  0  0  0  0
    1.5504    1.2372    1.1018 H   0  0  0  0  0  0  0  0  0  0  0  0
    0.0470    0.9729    2.5573 C   0  0  0  0  0  0  0  0  0  0  0  0
   -0.2045    2.2825    2.9437 N   0  0  0  0  0  0  0  0  0  0  0  0
   -0.7112    2.2217    4.1517 C   0  0  0  0  0  0  0  0  0  0  0  0
   -1.0120    3.0826    4.7417 H   0  0  0  0  0  0  0  0  0  0  0  0
   -0.8025    0.9042    4.5621 N   0  0  0  0  0  0  0  0  0  0  0  0
   -1.1346    0.5941    5.4736 H   0  0  0  0  0  0  0  0  0  0  0  0
   -0.3088    0.1058    3.5519 C   0  0  0  0  0  0  0  0  0  0  0  0
   -0.1963   -0.9749    3.5333 H   0  0  0  0  0  0  0  0  0  0  0  0
    0.4549    0.5898   -1.2506 C   0  0  0  0  0  0  0  0  0  0  0  0
    1.0620    1.5417   -1.7236 O   0  0  0  0  0  0  0  0  0  0  0  0
    0.4326   -0.6151   -1.9287 N   0  0  0  0  0  0  0  0  0  0  0  0
    0.0824   -1.4086   -1.3897 H   0  0  0  0  0  0  0  0  0  0  0  0
    1.2341   -0.8747   -3.1171 C   0  0  0  0  0  0  0  0  0  0  0  0
    2.3011   -0.8111   -2.8796 H   0  0  0  0  0  0  0  0  0  0  0  0
    1.0222   -1.8763   -3.5033 H   0  0  0  0  0  0  0  0  0  0  0  0
    1.0036   -0.1473   -3.9024 H   0  0  0  0  0  0  0  0  0  0  0  0
  1  2  1  0  0  0  0
  2  3  1  0  0  0  0
  2  4  1  0  0  0  0
  2  5  1  0  0  0  0
  5  6  2  0  0  0  0
  5  7  1  0  0  0  0
  7  8  1  0  0  0  0
  7  9  1  0  0  0  0
  9 10  1  0  0  0  0
  9 11  1  0  0  0  0
  9 22  1  0  0  0  0
 11 12  1  0  0  0  0
 11 13  1  0  0  0  0
 11 14  1  0  0  0  0
 14 15  1  0  0  0  0
 14 20  2  0  0  0  0
 15 16  2  0  0  0  0
 16 17  1  0  0  0  0
 16 18  1  0  0  0  0
 18 19  1  0  0  0  0
 18 20  1  0  0  0  0
 20 21  1  0  0  0  0
 22 23  2  0  0  0  0
 22 24  1  0  0  0  0
 24 25  1  0  0  0  0
 24 26  1  0  0  0  0
 26 27  1  0  0  0  0
 26 28  1  0  0  0  0
 26 29  1  0  0  0  0
M  END
$$$$

  -OEChem-01062216083D

 29 29  0     1  0  0  0  0  0999 V2000
   -2.7139   -3.0763    1.3996 H   0  0  0  0  0  0  0  0  0  0  0  0
   -2.8593   -2.0568    1.0311 C   0  0  0  0  0  0  0  0  0  0  0  0
   -3.3117   -1.4581    1.8255 H   0  0  0  0  0  0  0  0  0  0  0  0
   -3.5366   -2.0854    0.1739 H   0  0  0  0  0  0  0  0  0  0  0  0
   -1.5292   -1.4537    0.6218 C   0  0  0  0  0  0  0  0  0  0  0  0
   -0.5314   -2.1526    0.5973 O   0  0  0  0  0  0  0  0  0  0  0  0
   -1.4852   -0.1535    0.1622 N   0  0  0  0  0  0  0  0  0  0  0  0
   -2.3791    0.3289    0.1882 H   0  0  0  0  0  0  0  0  0  0  0  0
   -0.2940    0.7278    0.0933 C   0  0  1  0  0  0  0  0  0  0  0  0
   -0.6587    1.7602    0.1255 H   0  0  0  0  0  0  0  0  0  0  0  0
    0.6908    0.5708    1.2703 C   0  0  0  0  0  0  0  0  0  0  0  0
    1.0780   -0.4481    1.3343 H   0  0  0  0  0  0  0  0  0  0  0  0
    1.5521    1.2271    1.1109 H   0  0  0  0  0  0  0  0  0  0  0  0
    0.0430    0.9718    2.5603 C   0  0  0  0  0  0  0  0  0  0  0  0
   -0.2057    2.2827    2.9439 N   0  0  0  0  0  0  0  0  0  0  0  0
   -0.7117    2.2259    4.1524 C   0  0  0  0  0  0  0  0  0  0  0  0
   -1.0104    3.0890    4.7406 H   0  0  0  0  0  0  0  0  0  0  0  0
   -0.8052    0.9096    4.5657 N   0  0  0  0  0  0  0  0  0  0  0  0
   -1.1351    0.6023    5.4788 H   0  0  0  0  0  0  0  0  0  0  0  0
   -0.3130    0.1079    3.5576 C   0  0  0  0  0  0  0  0  0  0  0  0
   -0.1996   -0.9729    3.5424 H   0  0  0  0  0  0  0  0  0  0  0  0
    0.4546    0.5935   -1.2516 C   0  0  0  0  0  0  0  0  0  0  0  0
    1.2448    1.4592   -1.6051 O   0  0  0  0  0  0  0  0  0  0  0  0
    0.1982   -0.4747   -2.0918 N   0  0  0  0  0  0  0  0  0  0  0  0
   -0.2835   -1.2575   -1.6527 H   0  0  0  0  0  0  0  0  0  0  0  0
    0.9550   -0.7215   -3.3122 C   0  0  0  0  0  0  0  0  0  0  0  0
    2.0114   -0.8912   -3.0791 H   0  0  0  0  0  0  0  0  0  0  0  0
    0.5653   -1.6059   -3.8254 H   0  0  0  0  0  0  0  0  0  0  0  0
    0.8760    0.1331   -3.9923 H   0  0  0  0  0  0  0  0  0  0  0  0
  1  2  1  0  0  0  0
  2  3  1  0  0  0  0
  2  4  1  0  0  0  0
  2  5  1  0  0  0  0
  5  6  2  0  0  0  0
  5  7  1  0  0  0  0
  7  8  1  0  0  0  0
  7  9  1  0  0  0  0
  9 10  1  0  0  0  0
  9 11  1  0  0  0  0
  9 22  1  0  0  0  0
 11 12  1  0  0  0  0
 11 13  1  0  0  0  0
 11 14  1  0  0  0  0
 14 15  1  0  0  0  0
 14 20  2  0  0  0  0
 15 16  2  0  0  0  0
 16 17  1  0  0  0  0
 16 18  1  0  0  0  0
 18 19  1  0  0  0  0
 18 20  1  0  0  0  0
 20 21  1  0  0  0  0
 22 23  2  0  0  0  0
 22 24  1  0  0  0  0
 24 25  1  0  0  0  0
 24 26  1  0  0  0  0
 26 27  1  0  0  0  0
 26 28  1  0  0  0  0
 26 29  1  0  0  0  0
M  END
$$$$

  -OEChem-01062216083D

 29 29  0     1  0  0  0  0  0999 V2000
   -2.7072   -3.0952    1.3787 H   0  0  0  0  0  0  0  0  0  0  0  0
   -2.8482   -2.0732    1.0154 C   0  0  0  0  0  0  0  0  0  0  0  0
   -3.3136   -1.4810    1.8072 H   0  0  0  0  0  0  0  0  0  0  0  0
   -3.5117   -2.0965    0.1476 H   0  0  0  0  0  0  0  0  0  0  0  0
   -1.5128   -1.4653    0.6312 C   0  0  0  0  0  0  0  0  0  0  0  0
   -0.5121   -2.1591    0.6448 O   0  0  0  0  0  0  0  0  0  0  0  0
   -1.4705   -0.1615    0.1787 N   0  0  0  0  0  0  0  0  0  0  0  0
   -2.3654    0.3191    0.2074 H   0  0  0  0  0  0  0  0  0  0  0  0
   -0.2803    0.7215    0.1035 C   0  0  1  0  0  0  0  0  0  0  0  0
   -0.6481    1.7524    0.1373 H   0  0  0  0  0  0  0  0  0  0  0  0
    0.7027    0.5692    1.2847 C   0  0  0  0  0  0  0  0  0  0  0  0
    1.0916   -0.4486    1.3538 H   0  0  0  0  0  0  0  0  0  0  0  0
    1.5649    1.2251    1.1286 H   0  0  0  0  0  0  0  0  0  0  0  0
    0.0493    0.9765    2.5698 C   0  0  0  0  0  0  0  0  0  0  0  0
   -0.2021    2.2891    2.9473 N   0  0  0  0  0  0  0  0  0  0  0  0
   -0.7146    2.2359    4.1534 C   0  0  0  0  0  0  0  0  0  0  0  0
   -1.0172    3.1008    4.7368 H   0  0  0  0  0  0  0  0  0  0  0  0
   -0.8101    0.9210    4.5706 N   0  0  0  0  0  0  0  0  0  0  0  0
   -1.1448    0.6162    5.4829 H   0  0  0  0  0  0  0  0  0  0  0  0
   -0.3126    0.1161    3.5678 C   0  0  0  0  0  0  0  0  0  0  0  0
   -0.1999   -0.9650    3.5563 H   0  0  0  0  0  0  0  0  0  0  0  0
    0.4585    0.5982   -1.2504 C   0  0  0  0  0  0  0  0  0  0  0  0
    1.4140    1.3210   -1.5029 O   0  0  0  0  0  0  0  0  0  0  0  0
   -0.0040   -0.2653   -2.2276 N   0  0  0  0  0  0  0  0  0  0  0  0
   -0.6639   -0.9683   -1.9068 H   0  0  0  0  0  0  0  0  0  0  0  0
    0.6994   -0.4925   -3.4837 C   0  0  0  0  0  0  0  0  0  0  0  0
    1.6911   -0.9168   -3.2951 H   0  0  0  0  0  0  0  0  0  0  0  0
    0.1358   -1.1897   -4.1109 H   0  0  0  0  0  0  0  0  0  0  0  0
    0.8164    0.4470   -4.0342 H   0  0  0  0  0  0  0  0  0  0  0  0
  1  2  1  0  0  0  0
  2  3  1  0  0  0  0
  2  4  1  0  0  0  0
  2  5  1  0  0  0  0
  5  6  2  0  0  0  0
  5  7  1  0  0  0  0
  7  8  1  0  0  0  0
  7  9  1  0  0  0  0
  9 10  1  0  0  0  0
  9 11  1  0  0  0  0
  9 22  1  0  0  0  0
 11 12  1  0  0  0  0
 11 13  1  0  0  0  0
 11 14  1  0  0  0  0
 14 15  1  0  0  0  0
 14 20  2  0  0  0  0
 15 16  2  0  0  0  0
 16 17  1  0  0  0  0
 16 18  1  0  0  0  0
 18 19  1  0  0  0  0
 18 20  1  0  0  0  0
 20 21  1  0  0  0  0
 22 23  2  0  0  0  0
 22 24  1  0  0  0  0
 24 25  1  0  0  0  0
 24 26  1  0  0  0  0
 26 27  1  0  0  0  0
 26 28  1  0  0  0  0
 26 29  1  0  0  0  0
M  END
$$$$

  -OEChem-01062216083D

 29 29  0     1  0  0  0  0  0999 V2000
   -2.6893   -3.1173    1.3331 H   0  0  0  0  0  0  0  0  0  0  0  0
   -2.8304   -2.0923    0.9782 C   0  0  0  0  0  0  0  0  0  0  0  0
   -3.3118   -1.5111    1.7685 H   0  0  0  0  0  0  0  0  0  0  0  0
   -3.4800   -2.1107    0.0997 H   0  0  0  0  0  0  0  0  0  0  0  0
   -1.4915   -1.4740    0.6220 C   0  0  0  0  0  0  0  0  0  0  0  0
   -0.4879   -2.1616    0.6666 O   0  0  0  0  0  0  0  0  0  0  0  0
   -1.4508   -0.1644    0.1829 N   0  0  0  0  0  0  0  0  0  0  0  0
   -2.3451    0.3159    0.2246 H   0  0  0  0  0  0  0  0  0  0  0  0
   -0.2594    0.7179    0.1134 C   0  0  1  0  0  0  0  0  0  0  0  0
   -0.6279    1.7484    0.1497 H   0  0  0  0  0  0  0  0  0  0  0  0
    0.7168    0.5673    1.3017 C   0  0  0  0  0  0  0  0  0  0  0  0
    1.1062   -0.4500    1.3748 H   0  0  0  0  0  0  0  0  0  0  0  0
    1.5797    1.2235    1.1537 H   0  0  0  0  0  0  0  0  0  0  0  0
    0.0528    0.9784    2.5799 C   0  0  0  0  0  0  0  0  0  0  0  0
   -0.2006    2.2931    2.9497 N   0  0  0  0  0  0  0  0  0  0  0  0
   -0.7189    2.2455    4.1535 C   0  0  0  0  0  0  0  0  0  0  0  0
   -1.0233    3.1134    4.7316 H   0  0  0  0  0  0  0  0  0  0  0  0
   -0.8174    0.9326    4.5764 N   0  0  0  0  0  0  0  0  0  0  0  0
   -1.1561    0.6323    5.4886 H   0  0  0  0  0  0  0  0  0  0  0  0
   -0.3144    0.1229    3.5801 C   0  0  0  0  0  0  0  0  0  0  0  0
   -0.1995   -0.9580    3.5744 H   0  0  0  0  0  0  0  0  0  0  0  0
    0.4698    0.6031   -1.2481 C   0  0  0  0  0  0  0  0  0  0  0  0
    1.5655    1.1214   -1.4237 O   0  0  0  0  0  0  0  0  0  0  0  0
   -0.1586    0.0024   -2.3247 N   0  0  0  0  0  0  0  0  0  0  0  0
   -0.9862   -0.5417   -2.1026 H   0  0  0  0  0  0  0  0  0  0  0  0
    0.4941   -0.2075   -3.6109 C   0  0  0  0  0  0  0  0  0  0  0  0
    1.3779   -0.8428   -3.4918 H   0  0  0  0  0  0  0  0  0  0  0  0
   -0.1931   -0.6951   -4.3086 H   0  0  0  0  0  0  0  0  0  0  0  0
    0.8036    0.7492   -4.0446 H   0  0  0  0  0  0  0  0  0  0  0  0
  1  2  1  0  0  0  0
  2  3  1  0  0  0  0
  2  4  1  0  0  0  0
  2  5  1  0  0  0  0
  5  6  2  0  0  0  0
  5  7  1  0  0  0  0
  7  8  1  0  0  0  0
  7  9  1  0  0  0  0
  9 10  1  0  0  0  0
  9 11  1  0  0  0  0
  9 22  1  0  0  0  0
 11 12  1  0  0  0  0
 11 13  1  0  0  0  0
 11 14  1  0  0  0  0
 14 15  1  0  0  0  0
 14 20  2  0  0  0  0
 15 16  2  0  0  0  0
 16 17  1  0  0  0  0
 16 18  1  0  0  0  0
 18 19  1  0  0  0  0
 18 20  1  0  0  0  0
 20 21  1  0  0  0  0
 22 23  2  0  0  0  0
 22 24  1  0  0  0  0
 24 25  1  0  0  0  0
 24 26  1  0  0  0  0
 26 27  1  0  0  0  0
 26 28  1  0  0  0  0
 26 29  1  0  0  0  0
M  END
$$$$

  -OEChem-01062216083D

 29 29  0     1  0  0  0  0  0999 V2000
   -2.6799   -3.1304    1.3027 H   0  0  0  0  0  0  0  0  0  0  0  0
   -2.8160   -2.1059    0.9445 C   0  0  0  0  0  0  0  0  0  0  0  0
   -3.3159   -1.5258    1.7239 H   0  0  0  0  0  0  0  0  0  0  0  0
   -3.4463   -2.1269    0.0523 H   0  0  0  0  0  0  0  0  0  0  0  0
   -1.4716   -1.4839    0.6171 C   0  0  0  0  0  0  0  0  0  0  0  0
   -0.4669   -2.1661    0.7015 O   0  0  0  0  0  0  0  0  0  0  0  0
   -1.4293   -0.1719    0.1841 N   0  0  0  0  0  0  0  0  0  0  0  0
   -2.3250    0.3056    0.2214 H   0  0  0  0  0  0  0  0  0  0  0  0
   -0.2380    0.7104    0.1200 C   0  0  1  0  0  0  0  0  0  0  0  0
   -0.6073    1.7407    0.1546 H   0  0  0  0  0  0  0  0  0  0  0  0
    0.7318    0.5657    1.3150 C   0  0  0  0  0  0  0  0  0  0  0  0
    1.1231   -0.4504    1.3943 H   0  0  0  0  0  0  0  0  0  0  0  0
    1.5946    1.2232    1.1708 H   0  0  0  0  0  0  0  0  0  0  0  0
    0.0589    0.9812    2.5870 C   0  0  0  0  0  0  0  0  0  0  0  0
   -0.1984    2.2976    2.9491 N   0  0  0  0  0  0  0  0  0  0  0  0
   -0.7258    2.2542    4.1492 C   0  0  0  0  0  0  0  0  0  0  0  0
   -1.0351    3.1243    4.7214 H   0  0  0  0  0  0  0  0  0  0  0  0
   -0.8271    0.9429    4.5765 N   0  0  0  0  0  0  0  0  0  0  0  0
   -1.1709    0.6462    5.4879 H   0  0  0  0  0  0  0  0  0  0  0  0
   -0.3168    0.1295    3.5871 C   0  0  0  0  0  0  0  0  0  0  0  0
   -0.2029   -0.9516    3.5855 H   0  0  0  0  0  0  0  0  0  0  0  0
    0.4857    0.5946   -1.2451 C   0  0  0  0  0  0  0  0  0  0  0  0
    1.6708    0.8779   -1.3704 O   0  0  0  0  0  0  0  0  0  0  0  0
   -0.2418    0.2889   -2.3824 N   0  0  0  0  0  0  0  0  0  0  0  0
   -1.1825   -0.0594   -2.2311 H   0  0  0  0  0  0  0  0  0  0  0  0
    0.3636    0.1291   -3.6989 C   0  0  0  0  0  0  0  0  0  0  0  0
    1.0868   -0.6930   -3.6902 H   0  0  0  0  0  0  0  0  0  0  0  0
   -0.4056   -0.0927   -4.4447 H   0  0  0  0  0  0  0  0  0  0  0  0
    0.8777    1.0484   -3.9983 H   0  0  0  0  0  0  0  0  0  0  0  0
  1  2  1  0  0  0  0
  2  3  1  0  0  0  0
  2  4  1  0  0  0  0
  2  5  1  0  0  0  0
  5  6  2  0  0  0  0
  5  7  1  0  0  0  0
  7  8  1  0  0  0  0
  7  9  1  0  0  0  0
  9 10  1  0  0  0  0
  9 11  1  0  0  0  0
  9 22  1  0  0  0  0
 11 12  1  0  0  0  0
 11 13  1  0  0  0  0
 11 14  1  0  0  0  0
 14 15  1  0  0  0  0
 14 20  2  0  0  0  0
 15 16  2  0  0  0  0
 16 17  1  0  0  0  0
 16 18  1  0  0  0  0
 18 19  1  0  0  0  0
 18 20  1  0  0  0  0
 20 21  1  0  0  0  0
 22 23  2  0  0  0  0
 22 24  1  0  0  0  0
 24 25  1  0  0  0  0
 24 26  1  0  0  0  0
 26 27  1  0  0  0  0
 26 28  1  0  0  0  0
 26 29  1  0  0  0  0
M  END
$$$$

  -OEChem-01062216083D

 29 29  0     1  0  0  0  0  0999 V2000
   -2.6829   -3.1454    1.2463 H   0  0  0  0  0  0  0  0  0  0  0  0
   -2.8119   -2.1178    0.8939 C   0  0  0  0  0  0  0  0  0  0  0  0
   -3.3392   -1.5475    1.6625 H   0  0  0  0  0  0  0  0  0  0  0  0
   -3.4128   -2.1329   -0.0186 H   0  0  0  0  0  0  0  0  0  0  0  0
   -1.4605   -1.4867    0.6155 C   0  0  0  0  0  0  0  0  0  0  0  0
   -0.4562   -2.1622    0.7445 O   0  0  0  0  0  0  0  0  0  0  0  0
   -1.4148   -0.1731    0.1866 N   0  0  0  0  0  0  0  0  0  0  0  0
   -2.3142    0.2976    0.1989 H   0  0  0  0  0  0  0  0  0  0  0  0
   -0.2262    0.7112    0.1272 C   0  0  1  0  0  0  0  0  0  0  0  0
   -0.5968    1.7408    0.1626 H   0  0  0  0  0  0  0  0  0  0  0  0
    0.7433    0.5729    1.3225 C   0  0  0  0  0  0  0  0  0  0  0  0
    1.1389   -0.4414    1.4037 H   0  0  0  0  0  0  0  0  0  0  0  0
    1.6030    1.2338    1.1755 H   0  0  0  0  0  0  0  0  0  0  0  0
    0.0672    0.9878    2.5922 C   0  0  0  0  0  0  0  0  0  0  0  0
   -0.1964    2.3042    2.9509 N   0  0  0  0  0  0  0  0  0  0  0  0
   -0.7252    2.2601    4.1505 C   0  0  0  0  0  0  0  0  0  0  0  0
   -1.0398    3.1295    4.7208 H   0  0  0  0  0  0  0  0  0  0  0  0
   -0.8208    0.9492    4.5801 N   0  0  0  0  0  0  0  0  0  0  0  0
   -1.1657    0.6518    5.4909 H   0  0  0  0  0  0  0  0  0  0  0  0
   -0.3055    0.1362    3.5931 C   0  0  0  0  0  0  0  0  0  0  0  0
   -0.1864   -0.9444    3.5924 H   0  0  0  0  0  0  0  0  0  0  0  0
    0.4913    0.5915   -1.2402 C   0  0  0  0  0  0  0  0  0  0  0  0
    1.7123    0.6049   -1.3374 O   0  0  0  0  0  0  0  0  0  0  0  0
   -0.2608    0.5966   -2.4026 N   0  0  0  0  0  0  0  0  0  0  0  0
   -1.2645    0.4983   -2.2963 H   0  0  0  0  0  0  0  0  0  0  0  0
    0.3227    0.4682   -3.7324 C   0  0  0  0  0  0  0  0  0  0  0  0
    0.8666   -0.4780   -3.8213 H   0  0  0  0  0  0  0  0  0  0  0  0
   -0.4624    0.4902   -4.4940 H   0  0  0  0  0  0  0  0  0  0  0  0
    1.0159    1.2931   -3.9282 H   0  0  0  0  0  0  0  0  0  0  0  0
  1  2  1  0  0  0  0
  2  3  1  0  0  0  0
  2  4  1  0  0  0  0
  2  5  1  0  0  0  0
  5  6  2  0  0  0  0
  5  7  1  0  0  0  0
  7  8  1  0  0  0  0
  7  9  1  0  0  0  0
  9 10  1  0  0  0  0
  9 11  1  0  0  0  0
  9 22  1  0  0  0  0
 11 12  1  0  0  0  0
 11 13  1  0  0  0  0
 11 14  1  0  0  0  0
 14 15  1  0  0  0  0
 14 20  2  0  0  0  0
 15 16  2  0  0  0  0
 16 17  1  0  0  0  0
 16 18  1  0  0  0  0
 18 19  1  0  0  0  0
 18 20  1  0  0  0  0
 20 21  1  0  0  0  0
 22 23  2  0  0  0  0
 22 24  1  0  0  0  0
 24 25  1  0  0  0  0
 24 26  1  0  0  0  0
 26 27  1  0  0  0  0
 26 28  1  0  0  0  0
 26 29  1  0  0  0  0
M  END
$$$$

  -OEChem-01062216083D

 29 29  0     1  0  0  0  0  0999 V2000
   -2.7201   -3.1684    1.1938 H   0  0  0  0  0  0  0  0  0  0  0  0
   -2.8337   -2.1453    0.8241 C   0  0  0  0  0  0  0  0  0  0  0  0
   -3.4271   -1.5761    1.5434 H   0  0  0  0  0  0  0  0  0  0  0  0
   -3.3603   -2.1749   -0.1328 H   0  0  0  0  0  0  0  0  0  0  0  0
   -1.4723   -1.4992    0.6472 C   0  0  0  0  0  0  0  0  0  0  0  0
   -0.4759   -2.1581    0.8807 O   0  0  0  0  0  0  0  0  0  0  0  0
   -1.4144   -0.1893    0.2071 N   0  0  0  0  0  0  0  0  0  0  0  0
   -2.3191    0.2625    0.1218 H   0  0  0  0  0  0  0  0  0  0  0  0
   -0.2299    0.6990    0.1364 C   0  0  1  0  0  0  0  0  0  0  0  0
   -0.6037    1.7275    0.1682 H   0  0  0  0  0  0  0  0  0  0  0  0
    0.7508    0.5768    1.3233 C   0  0  0  0  0  0  0  0  0  0  0  0
    1.1535   -0.4344    1.4089 H   0  0  0  0  0  0  0  0  0  0  0  0
    1.6054    1.2400    1.1584 H   0  0  0  0  0  0  0  0  0  0  0  0
    0.0866    0.9979    2.5968 C   0  0  0  0  0  0  0  0  0  0  0  0
   -0.1790    2.3169    2.9453 N   0  0  0  0  0  0  0  0  0  0  0  0
   -0.6974    2.2805    4.1498 C   0  0  0  0  0  0  0  0  0  0  0  0
   -1.0103    3.1535    4.7154 H   0  0  0  0  0  0  0  0  0  0  0  0
   -0.7850    0.9731    4.5918 N   0  0  0  0  0  0  0  0  0  0  0  0
   -1.1241    0.6816    5.5068 H   0  0  0  0  0  0  0  0  0  0  0  0
   -0.2763    0.1535    3.6069 C   0  0  0  0  0  0  0  0  0  0  0  0
   -0.1580   -0.9274    3.6107 H   0  0  0  0  0  0  0  0  0  0  0  0
    0.4828    0.5656   -1.2316 C   0  0  0  0  0  0  0  0  0  0  0  0
    1.6777    0.3137   -1.3248 O   0  0  0  0  0  0  0  0  0  0  0  0
   -0.2168    0.8652   -2.3885 N   0  0  0  0  0  0  0  0  0  0  0  0
   -1.2065    1.0662   -2.2971 H   0  0  0  0  0  0  0  0  0  0  0  0
    0.3768    0.8234   -3.7195 C   0  0  0  0  0  0  0  0  0  0  0  0
    0.7692   -0.1765   -3.9336 H   0  0  0  0  0  0  0  0  0  0  0  0
   -0.3742    1.0693   -4.4762 H   0  0  0  0  0  0  0  0  0  0  0  0
    1.1951    1.5472   -3.7962 H   0  0  0  0  0  0  0  0  0  0  0  0
  1  2  1  0  0  0  0
  2  3  1  0  0  0  0
  2  4  1  0  0  0  0
  2  5  1  0  0  0  0
  5  6  2  0  0  0  0
  5  7  1  0  0  0  0
  7  8  1  0  0  0  0
  7  9  1  0  0  0  0
  9 10  1  0  0  0  0
  9 11  1  0  0  0  0
  9 22  1  0  0  0  0
 11 12  1  0  0  0  0
 11 13  1  0  0  0  0
 11 14  1  0  0  0  0
 14 15  1  0  0  0  0
 14 20  2  0  0  0  0
 15 16  2  0  0  0  0
 16 17  1  0  0  0  0
 16 18  1  0  0  0  0
 18 19  1  0  0  0  0
 18 20  1  0  0  0  0
 20 21  1  0  0  0  0
 22 23  2  0  0  0  0
 22 24  1  0  0  0  0
 24 25  1  0  0  0  0
 24 26  1  0  0  0  0
 26 27  1  0  0  0  0
 26 28  1  0  0  0  0
 26 29  1  0  0  0  0
M  END
$$$$

  -OEChem-01062216083D

 29 29  0     1  0  0  0  0  0999 V2000
   -2.7481   -3.1998    1.1018 H   0  0  0  0  0  0  0  0  0  0  0  0
   -2.8481   -2.1741    0.7349 C   0  0  0  0  0  0  0  0  0  0  0  0
   -3.5129   -1.6242    1.4053 H   0  0  0  0  0  0  0  0  0  0  0  0
   -3.2883   -2.2012   -0.2647 H   0  0  0  0  0  0  0  0  0  0  0  0
   -1.4891   -1.5008    0.6849 C   0  0  0  0  0  0  0  0  0  0  0  0
   -0.5126   -2.1315    1.0464 O   0  0  0  0  0  0  0  0  0  0  0  0
   -1.4211   -0.1929    0.2380 N   0  0  0  0  0  0  0  0  0  0  0  0
   -2.3183    0.2202    0.0068 H   0  0  0  0  0  0  0  0  0  0  0  0
   -0.2401    0.6982    0.1525 C   0  0  1  0  0  0  0  0  0  0  0  0
   -0.6170    1.7253    0.1888 H   0  0  0  0  0  0  0  0  0  0  0  0
    0.7606    0.5878    1.3216 C   0  0  0  0  0  0  0  0  0  0  0  0
    1.1680   -0.4218    1.4064 H   0  0  0  0  0  0  0  0  0  0  0  0
    1.6098    1.2520    1.1364 H   0  0  0  0  0  0  0  0  0  0  0  0
    0.1129    1.0119    2.6026 C   0  0  0  0  0  0  0  0  0  0  0  0
   -0.1542    2.3327    2.9445 N   0  0  0  0  0  0  0  0  0  0  0  0
   -0.6641    2.3009    4.1530 C   0  0  0  0  0  0  0  0  0  0  0  0
   -0.9779    3.1759    4.7150 H   0  0  0  0  0  0  0  0  0  0  0  0
   -0.7423    0.9962    4.6046 N   0  0  0  0  0  0  0  0  0  0  0  0
   -1.0802    0.7081    5.5209 H   0  0  0  0  0  0  0  0  0  0  0  0
   -0.2382    0.1726    3.6209 C   0  0  0  0  0  0  0  0  0  0  0  0
   -0.1199   -0.9084    3.6270 H   0  0  0  0  0  0  0  0  0  0  0  0
    0.4616    0.5582   -1.2191 C   0  0  0  0  0  0  0  0  0  0  0  0
    1.5557    0.0228   -1.3429 O   0  0  0  0  0  0  0  0  0  0  0  0
   -0.1205    1.1355   -2.3353 N   0  0  0  0  0  0  0  0  0  0  0  0
   -0.9966    1.6304   -2.2059 H   0  0  0  0  0  0  0  0  0  0  0  0
    0.4981    1.1301   -3.6557 C   0  0  0  0  0  0  0  0  0  0  0  0
    0.6919    0.1036   -3.9844 H   0  0  0  0  0  0  0  0  0  0  0  0
   -0.1639    1.6063   -4.3850 H   0  0  0  0  0  0  0  0  0  0  0  0
    1.4452    1.6794   -3.6370 H   0  0  0  0  0  0  0  0  0  0  0  0
  1  2  1  0  0  0  0
  2  3  1  0  0  0  0
  2  4  1  0  0  0  0
  2  5  1  0  0  0  0
  5  6  2  0  0  0  0
  5  7  1  0  0  0  0
  7  8  1  0  0  0  0
  7  9  1  0  0  0  0
  9 10  1  0  0  0  0
  9 11  1  0  0  0  0
  9 22  1  0  0  0  0
 11 12  1  0  0  0  0
 11 13  1  0  0  0  0
 11 14  1  0  0  0  0
 14 15  1  0  0  0  0
 14 20  2  0  0  0  0
 15 16  2  0  0  0  0
 16 17  1  0  0  0  0
 16 18  1  0  0  0  0
 18 19  1  0  0  0  0
 18 20  1  0  0  0  0
 20 21  1  0  0  0  0
 22 23  2  0  0  0  0
 22 24  1  0  0  0  0
 24 25  1  0  0  0  0
 24 26  1  0  0  0  0
 26 27  1  0  0  0  0
 26 28  1  0  0  0  0
 26 29  1  0  0  0  0
M  END
$$$$

  -OEChem-01062216083D

 29 29  0     1  0  0  0  0  0999 V2000
   -2.7502   -3.2278    1.0065 H   0  0  0  0  0  0  0  0  0  0  0  0
   -2.8493   -2.2030    0.6370 C   0  0  0  0  0  0  0  0  0  0  0  0
   -3.5887   -1.6791    1.2473 H   0  0  0  0  0  0  0  0  0  0  0  0
   -3.1966   -2.2371   -0.3984 H   0  0  0  0  0  0  0  0  0  0  0  0
   -1.5132   -1.4874    0.7140 C   0  0  0  0  0  0  0  0  0  0  0  0
   -0.5641   -2.0819    1.1922 O   0  0  0  0  0  0  0  0  0  0  0  0
   -1.4438   -0.1804    0.2630 N   0  0  0  0  0  0  0  0  0  0  0  0
   -2.3171    0.1864   -0.0999 H   0  0  0  0  0  0  0  0  0  0  0  0
   -0.2631    0.7104    0.1703 C   0  0  1  0  0  0  0  0  0  0  0  0
   -0.6427    1.7360    0.2133 H   0  0  0  0  0  0  0  0  0  0  0  0
    0.7579    0.6065    1.3206 C   0  0  0  0  0  0  0  0  0  0  0  0
    1.1702   -0.4019    1.3991 H   0  0  0  0  0  0  0  0  0  0  0  0
    1.6012    1.2732    1.1181 H   0  0  0  0  0  0  0  0  0  0  0  0
    0.1331    1.0293    2.6135 C   0  0  0  0  0  0  0  0  0  0  0  0
   -0.1314    2.3509    2.9559 N   0  0  0  0  0  0  0  0  0  0  0  0
   -0.6231    2.3204    4.1723 C   0  0  0  0  0  0  0  0  0  0  0  0
   -0.9318    3.1951    4.7377 H   0  0  0  0  0  0  0  0  0  0  0  0
   -0.6897    1.0167    4.6285 N   0  0  0  0  0  0  0  0  0  0  0  0
   -1.0187    0.7285    5.5480 H   0  0  0  0  0  0  0  0  0  0  0  0
   -0.1992    0.1921    3.6391 C   0  0  0  0  0  0  0  0  0  0  0  0
   -0.0823   -0.8894    3.6434 H   0  0  0  0  0  0  0  0  0  0  0  0
    0.4340    0.5685   -1.2017 C   0  0  0  0  0  0  0  0  0  0  0  0
    1.3395   -0.2328   -1.3897 O   0  0  0  0  0  0  0  0  0  0  0  0
    0.0424    1.3847   -2.2495 N   0  0  0  0  0  0  0  0  0  0  0  0
   -0.6526    2.0983   -2.0540 H   0  0  0  0  0  0  0  0  0  0  0  0
    0.6872    1.3709   -3.5574 C   0  0  0  0  0  0  0  0  0  0  0  0
    0.6447    0.3682   -3.9958 H   0  0  0  0  0  0  0  0  0  0  0  0
    0.1816    2.0646   -4.2359 H   0  0  0  0  0  0  0  0  0  0  0  0
    1.7362    1.6730   -3.4701 H   0  0  0  0  0  0  0  0  0  0  0  0
  1  2  1  0  0  0  0
  2  3  1  0  0  0  0
  2  4  1  0  0  0  0
  2  5  1  0  0  0  0
  5  6  2  0  0  0  0
  5  7  1  0  0  0  0
  7  8  1  0  0  0  0
  7  9  1  0  0  0  0
  9 10  1  0  0  0  0
  9 11  1  0  0  0  0
  9 22  1  0  0  0  0
 11 12  1  0  0  0  0
 11 13  1  0  0  0  0
 11 14  1  0  0  0  0
 14 15  1  0  0  0  0
 14 20  2  0  0  0  0
 15 16  2  0  0  0  0
 16 17  1  0  0  0  0
 16 18  1  0  0  0  0
 18 19  1  0  0  0  0
 18 20  1  0  0  0  0
 20 21  1  0  0  0  0
 22 23  2  0  0  0  0
 22 24  1  0  0  0  0
 24 25  1  0  0  0  0
 24 26  1  0  0  0  0
 26 27  1  0  0  0  0
 26 28  1  0  0  0  0
 26 29  1  0  0  0  0
M  END
$$$$

  -OEChem-01062216083D

 29 29  0     1  0  0  0  0  0999 V2000
   -2.7346   -3.2552    0.9106 H   0  0  0  0  0  0  0  0  0  0  0  0
   -2.8374   -2.2300    0.5434 C   0  0  0  0  0  0  0  0  0  0  0  0
   -3.6410   -1.7374    1.0959 H   0  0  0  0  0  0  0  0  0  0  0  0
   -3.0978   -2.2634   -0.5174 H   0  0  0  0  0  0  0  0  0  0  0  0
   -1.5362   -1.4725    0.7341 C   0  0  0  0  0  0  0  0  0  0  0  0
   -0.6204   -2.0324    1.3105 O   0  0  0  0  0  0  0  0  0  0  0  0
   -1.4688   -0.1655    0.2815 N   0  0  0  0  0  0  0  0  0  0  0  0
   -2.3063    0.1533   -0.1940 H   0  0  0  0  0  0  0  0  0  0  0  0
   -0.2848    0.7209    0.1884 C   0  0  1  0  0  0  0  0  0  0  0  0
   -0.6686    1.7450    0.2359 H   0  0  0  0  0  0  0  0  0  0  0  0
    0.7499    0.6195    1.3253 C   0  0  0  0  0  0  0  0  0  0  0  0
    1.1626   -0.3894    1.3970 H   0  0  0  0  0  0  0  0  0  0  0  0
    1.5901    1.2863    1.1120 H   0  0  0  0  0  0  0  0  0  0  0  0
    0.1452    1.0421    2.6280 C   0  0  0  0  0  0  0  0  0  0  0  0
   -0.1114    2.3663    2.9669 N   0  0  0  0  0  0  0  0  0  0  0  0
   -0.5827    2.3432    4.1917 C   0  0  0  0  0  0  0  0  0  0  0  0
   -0.8820    3.2215    4.7562 H   0  0  0  0  0  0  0  0  0  0  0  0
   -0.6410    1.0426    4.6575 N   0  0  0  0  0  0  0  0  0  0  0  0
   -0.9577    0.7596    5.5828 H   0  0  0  0  0  0  0  0  0  0  0  0
   -0.1690    0.2116    3.6646 C   0  0  0  0  0  0  0  0  0  0  0  0
   -0.0555   -0.8702    3.6724 H   0  0  0  0  0  0  0  0  0  0  0  0
    0.4154    0.5814   -1.1810 C   0  0  0  0  0  0  0  0  0  0  0  0
    1.0579   -0.4177   -1.4735 O   0  0  0  0  0  0  0  0  0  0  0  0
    0.2694    1.5802   -2.1285 N   0  0  0  0  0  0  0  0  0  0  0  0
   -0.2089    2.4296   -1.8437 H   0  0  0  0  0  0  0  0  0  0  0  0
    0.9237    1.5467   -3.4314 C   0  0  0  0  0  0  0  0  0  0  0  0
    0.6274    0.6509   -3.9874 H   0  0  0  0  0  0  0  0  0  0  0  0
    0.6410    2.4254   -4.0192 H   0  0  0  0  0  0  0  0  0  0  0  0
    2.0125    1.5435   -3.3133 H   0  0  0  0  0  0  0  0  0  0  0  0
  1  2  1  0  0  0  0
  2  3  1  0  0  0  0
  2  4  1  0  0  0  0
  2  5  1  0  0  0  0
  5  6  2  0  0  0  0
  5  7  1  0  0  0  0
  7  8  1  0  0  0  0
  7  9  1  0  0  0  0
  9 10  1  0  0  0  0
  9 11  1  0  0  0  0
  9 22  1  0  0  0  0
 11 12  1  0  0  0  0
 11 13  1  0  0  0  0
 11 14  1  0  0  0  0
 14 15  1  0  0  0  0
 14 20  2  0  0  0  0
 15 16  2  0  0  0  0
 16 17  1  0  0  0  0
 16 18  1  0  0  0  0
 18 19  1  0  0  0  0
 18 20  1  0  0  0  0
 20 21  1  0  0  0  0
 22 23  2  0  0  0  0
 22 24  1  0  0  0  0
 24 25  1  0  0  0  0
 24 26  1  0  0  0  0
 26 27  1  0  0  0  0
 26 28  1  0  0  0  0
 26 29  1  0  0  0  0
M  END
$$$$

  -OEChem-01062216083D

 29 29  0     1  0  0  0  0  0999 V2000
   -2.7199   -3.2629    0.8624 H   0  0  0  0  0  0  0  0  0  0  0  0
   -2.8163   -2.2435    0.4780 C   0  0  0  0  0  0  0  0  0  0  0  0
   -3.6650   -1.7614    0.9686 H   0  0  0  0  0  0  0  0  0  0  0  0
   -3.0019   -2.2915   -0.5978 H   0  0  0  0  0  0  0  0  0  0  0  0
   -1.5451   -1.4601    0.7481 C   0  0  0  0  0  0  0  0  0  0  0  0
   -0.6549   -2.0009    1.3816 O   0  0  0  0  0  0  0  0  0  0  0  0
   -1.4767   -0.1525    0.2979 N   0  0  0  0  0  0  0  0  0  0  0  0
   -2.2817    0.1358   -0.2481 H   0  0  0  0  0  0  0  0  0  0  0  0
   -0.2858    0.7244    0.2068 C   0  0  1  0  0  0  0  0  0  0  0  0
   -0.6684    1.7489    0.2561 H   0  0  0  0  0  0  0  0  0  0  0  0
    0.7549    0.6198    1.3370 C   0  0  0  0  0  0  0  0  0  0  0  0
    1.1624   -0.3913    1.4067 H   0  0  0  0  0  0  0  0  0  0  0  0
    1.5970    1.2828    1.1196 H   0  0  0  0  0  0  0  0  0  0  0  0
    0.1585    1.0469    2.6421 C   0  0  0  0  0  0  0  0  0  0  0  0
   -0.0880    2.3748    2.9737 N   0  0  0  0  0  0  0  0  0  0  0  0
   -0.5597    2.3617    4.1984 C   0  0  0  0  0  0  0  0  0  0  0  0
   -0.8541    3.2455    4.7569 H   0  0  0  0  0  0  0  0  0  0  0  0
   -0.6246    1.0645    4.6724 N   0  0  0  0  0  0  0  0  0  0  0  0
   -0.9468    0.7884    5.5978 H   0  0  0  0  0  0  0  0  0  0  0  0
   -0.1585    0.2247    3.6843 C   0  0  0  0  0  0  0  0  0  0  0  0
   -0.0549   -0.8580    3.6977 H   0  0  0  0  0  0  0  0  0  0  0  0
    0.4155    0.5870   -1.1613 C   0  0  0  0  0  0  0  0  0  0  0  0
    0.7572   -0.5056   -1.5939 O   0  0  0  0  0  0  0  0  0  0  0  0
    0.5467    1.6972   -1.9773 N   0  0  0  0  0  0  0  0  0  0  0  0
    0.2975    2.6001   -1.5835 H   0  0  0  0  0  0  0  0  0  0  0  0
    1.1811    1.6534   -3.2894 C   0  0  0  0  0  0  0  0  0  0  0  0
    0.6538    0.9548   -3.9476 H   0  0  0  0  0  0  0  0  0  0  0  0
    1.1607    2.6447   -3.7523 H   0  0  0  0  0  0  0  0  0  0  0  0
    2.2247    1.3338   -3.1999 H   0  0  0  0  0  0  0  0  0  0  0  0
  1  2  1  0  0  0  0
  2  3  1  0  0  0  0
  2  4  1  0  0  0  0
  2  5  1  0  0  0  0
  5  6  2  0  0  0  0
  5  7  1  0  0  0  0
  7  8  1  0  0  0  0
  7  9  1  0  0  0  0
  9 10  1  0  0  0  0
  9 11  1  0  0  0  0
  9 22  1  0  0  0  0
 11 12  1  0  0  0  0
 11 13  1  0  0  0  0
 11 14  1  0  0  0  0
 14 15  1  0  0  0  0
 14 20  2  0  0  0  0
 15 16  2  0  0  0  0
 16 17  1  0  0  0  0
 16 18  1  0  0  0  0
 18 19  1  0  0  0  0
 18 20  1  0  0  0  0
 20 21  1  0  0  0  0
 22 23  2  0  0  0  0
 22 24  1  0  0  0  0
 24 25  1  0  0  0  0
 24 26  1  0  0  0  0
 26 27  1  0  0  0  0
 26 28  1  0  0  0  0
 26 29  1  0  0  0  0
M  END
$$$$

  -OEChem-01062216083D

 29 29  0     1  0  0  0  0  0999 V2000
   -2.7244   -3.2658    0.8660 H   0  0  0  0  0  0  0  0  0  0  0  0
   -2.8135   -2.2505    0.4692 C   0  0  0  0  0  0  0  0  0  0  0  0
   -3.6714   -1.7631    0.9384 H   0  0  0  0  0  0  0  0  0  0  0  0
   -2.9792   -2.3102   -0.6093 H   0  0  0  0  0  0  0  0  0  0  0  0
   -1.5476   -1.4636    0.7544 C   0  0  0  0  0  0  0  0  0  0  0  0
   -0.6625   -2.0019    1.3981 O   0  0  0  0  0  0  0  0  0  0  0  0
   -1.4760   -0.1556    0.3059 N   0  0  0  0  0  0  0  0  0  0  0  0
   -2.2639    0.1200   -0.2708 H   0  0  0  0  0  0  0  0  0  0  0  0
   -0.2779    0.7116    0.2109 C   0  0  1  0  0  0  0  0  0  0  0  0
   -0.6587    1.7371    0.2573 H   0  0  0  0  0  0  0  0  0  0  0  0
    0.7619    0.6055    1.3424 C   0  0  0  0  0  0  0  0  0  0  0  0
    1.1619   -0.4079    1.4181 H   0  0  0  0  0  0  0  0  0  0  0  0
    1.6098    1.2605    1.1228 H   0  0  0  0  0  0  0  0  0  0  0  0
    0.1689    1.0447    2.6453 C   0  0  0  0  0  0  0  0  0  0  0  0
   -0.0661    2.3769    2.9676 N   0  0  0  0  0  0  0  0  0  0  0  0
   -0.5455    2.3753    4.1896 C   0  0  0  0  0  0  0  0  0  0  0  0
   -0.8355    3.2647    4.7415 H   0  0  0  0  0  0  0  0  0  0  0  0
   -0.6255    1.0817    4.6709 N   0  0  0  0  0  0  0  0  0  0  0  0
   -0.9594    0.8143    5.5947 H   0  0  0  0  0  0  0  0  0  0  0  0
   -0.1626    0.2316    3.6901 C   0  0  0  0  0  0  0  0  0  0  0  0
   -0.0734   -0.8523    3.7095 H   0  0  0  0  0  0  0  0  0  0  0  0
    0.4262    0.5815   -1.1573 C   0  0  0  0  0  0  0  0  0  0  0  0
    0.4868   -0.4919   -1.7435 O   0  0  0  0  0  0  0  0  0  0  0  0
    0.8425    1.7240   -1.8182 N   0  0  0  0  0  0  0  0  0  0  0  0
    0.8019    2.6012   -1.3065 H   0  0  0  0  0  0  0  0  0  0  0  0
    1.4732    1.7050   -3.1326 C   0  0  0  0  0  0  0  0  0  0  0  0
    0.8056    1.2513   -3.8726 H   0  0  0  0  0  0  0  0  0  0  0  0
    1.7034    2.7247   -3.4561 H   0  0  0  0  0  0  0  0  0  0  0  0
    2.4061    1.1323   -3.1016 H   0  0  0  0  0  0  0  0  0  0  0  0
  1  2  1  0  0  0  0
  2  3  1  0  0  0  0
  2  4  1  0  0  0  0
  2  5  1  0  0  0  0
  5  6  2  0  0  0  0
  5  7  1  0  0  0  0
  7  8  1  0  0  0  0
  7  9  1  0  0  0  0
  9 10  1  0  0  0  0
  9 11  1  0  0  0  0
  9 22  1  0  0  0  0
 11 12  1  0  0  0  0
 11 13  1  0  0  0  0
 11 14  1  0  0  0  0
 14 15  1  0  0  0  0
 14 20  2  0  0  0  0
 15 16  2  0  0  0  0
 16 17  1  0  0  0  0
 16 18  1  0  0  0  0
 18 19  1  0  0  0  0
 18 20  1  0  0  0  0
 20 21  1  0  0  0  0
 22 23  2  0  0  0  0
 22 24  1  0  0  0  0
 24 25  1  0  0  0  0
 24 26  1  0  0  0  0
 26 27  1  0  0  0  0
 26 28  1  0  0  0  0
 26 29  1  0  0  0  0
M  END
$$$$

  -OEChem-01062216083D

 29 29  0     1  0  0  0  0  0999 V2000
   -2.7266   -3.2626    0.8598 H   0  0  0  0  0  0  0  0  0  0  0  0
   -2.8083   -2.2489    0.4575 C   0  0  0  0  0  0  0  0  0  0  0  0
   -3.6732   -1.7587    0.9103 H   0  0  0  0  0  0  0  0  0  0  0  0
   -2.9553   -2.3119   -0.6236 H   0  0  0  0  0  0  0  0  0  0  0  0
   -1.5472   -1.4615    0.7603 C   0  0  0  0  0  0  0  0  0  0  0  0
   -0.6640   -2.0030    1.4043 O   0  0  0  0  0  0  0  0  0  0  0  0
   -1.4711   -0.1539    0.3130 N   0  0  0  0  0  0  0  0  0  0  0  0
   -2.2433    0.1114   -0.2900 H   0  0  0  0  0  0  0  0  0  0  0  0
   -0.2690    0.7076    0.2184 C   0  0  1  0  0  0  0  0  0  0  0  0
   -0.6447    1.7353    0.2602 H   0  0  0  0  0  0  0  0  0  0  0  0
    0.7672    0.5970    1.3544 C   0  0  0  0  0  0  0  0  0  0  0  0
    1.1616   -0.4184    1.4333 H   0  0  0  0  0  0  0  0  0  0  0  0
    1.6197    1.2471    1.1402 H   0  0  0  0  0  0  0  0  0  0  0  0
    0.1718    1.0414    2.6543 C   0  0  0  0  0  0  0  0  0  0  0  0
   -0.0561    2.3758    2.9717 N   0  0  0  0  0  0  0  0  0  0  0  0
   -0.5410    2.3807    4.1914 C   0  0  0  0  0  0  0  0  0  0  0  0
   -0.8295    3.2736    4.7387 H   0  0  0  0  0  0  0  0  0  0  0  0
   -0.6285    1.0889    4.6768 N   0  0  0  0  0  0  0  0  0  0  0  0
   -0.9687    0.8259    5.5995 H   0  0  0  0  0  0  0  0  0  0  0  0
   -0.1665    0.2330    3.7007 C   0  0  0  0  0  0  0  0  0  0  0  0
   -0.0830   -0.8514    3.7244 H   0  0  0  0  0  0  0  0  0  0  0  0
    0.4348    0.5756   -1.1508 C   0  0  0  0  0  0  0  0  0  0  0  0
    0.2518   -0.3996   -1.8700 O   0  0  0  0  0  0  0  0  0  0  0  0
    1.1283    1.6575   -1.6643 N   0  0  0  0  0  0  0  0  0  0  0  0
    1.2601    2.4611   -1.0559 H   0  0  0  0  0  0  0  0  0  0  0  0
    1.7604    1.6574   -2.9779 C   0  0  0  0  0  0  0  0  0  0  0  0
    1.0137    1.4987   -3.7631 H   0  0  0  0  0  0  0  0  0  0  0  0
    2.2535    2.6171   -3.1600 H   0  0  0  0  0  0  0  0  0  0  0  0
    2.5124    0.8639   -3.0409 H   0  0  0  0  0  0  0  0  0  0  0  0
  1  2  1  0  0  0  0
  2  3  1  0  0  0  0
  2  4  1  0  0  0  0
  2  5  1  0  0  0  0
  5  6  2  0  0  0  0
  5  7  1  0  0  0  0
  7  8  1  0  0  0  0
  7  9  1  0  0  0  0
  9 10  1  0  0  0  0
  9 11  1  0  0  0  0
  9 22  1  0  0  0  0
 11 12  1  0  0  0  0
 11 13  1  0  0  0  0
 11 14  1  0  0  0  0
 14 15  1  0  0  0  0
 14 20  2  0  0  0  0
 15 16  2  0  0  0  0
 16 17  1  0  0  0  0
 16 18  1  0  0  0  0
 18 19  1  0  0  0  0
 18 20  1  0  0  0  0
 20 21  1  0  0  0  0
 22 23  2  0  0  0  0
 22 24  1  0  0  0  0
 24 25  1  0  0  0  0
 24 26  1  0  0  0  0
 26 27  1  0  0  0  0
 26 28  1  0  0  0  0
 26 29  1  0  0  0  0
M  END
$$$$

  -OEChem-01062216083D

 29 29  0     1  0  0  0  0  0999 V2000
   -2.7332   -3.2462    0.8830 H   0  0  0  0  0  0  0  0  0  0  0  0
   -2.8072   -2.2345    0.4744 C   0  0  0  0  0  0  0  0  0  0  0  0
   -3.6630   -1.7320    0.9313 H   0  0  0  0  0  0  0  0  0  0  0  0
   -2.9649   -2.3034   -0.6049 H   0  0  0  0  0  0  0  0  0  0  0  0
   -1.5353   -1.4581    0.7608 C   0  0  0  0  0  0  0  0  0  0  0  0
   -0.6427   -2.0112    1.3818 O   0  0  0  0  0  0  0  0  0  0  0  0
   -1.4549   -0.1502    0.3161 N   0  0  0  0  0  0  0  0  0  0  0  0
   -2.2237    0.1156   -0.2913 H   0  0  0  0  0  0  0  0  0  0  0  0
   -0.2537    0.7133    0.2227 C   0  0  1  0  0  0  0  0  0  0  0  0
   -0.6244    1.7428    0.2617 H   0  0  0  0  0  0  0  0  0  0  0  0
    0.7738    0.5947    1.3682 C   0  0  0  0  0  0  0  0  0  0  0  0
    1.1679   -0.4205    1.4460 H   0  0  0  0  0  0  0  0  0  0  0  0
    1.6293    1.2451    1.1690 H   0  0  0  0  0  0  0  0  0  0  0  0
    0.1688    1.0353    2.6653 C   0  0  0  0  0  0  0  0  0  0  0  0
   -0.0584    2.3684    2.9884 N   0  0  0  0  0  0  0  0  0  0  0  0
   -0.5547    2.3680    4.2036 C   0  0  0  0  0  0  0  0  0  0  0  0
   -0.8450    3.2584    4.7542 H   0  0  0  0  0  0  0  0  0  0  0  0
   -0.6508    1.0738    4.6804 N   0  0  0  0  0  0  0  0  0  0  0  0
   -0.9996    0.8069    5.5989 H   0  0  0  0  0  0  0  0  0  0  0  0
   -0.1823    0.2220    3.7037 C   0  0  0  0  0  0  0  0  0  0  0  0
   -0.1026   -0.8625    3.7221 H   0  0  0  0  0  0  0  0  0  0  0  0
    0.4471    0.5786   -1.1498 C   0  0  0  0  0  0  0  0  0  0  0  0
    0.0735   -0.2495   -1.9733 O   0  0  0  0  0  0  0  0  0  0  0  0
    1.3871    1.5178   -1.5379 N   0  0  0  0  0  0  0  0  0  0  0  0
    1.6561    2.2219   -0.8560 H   0  0  0  0  0  0  0  0  0  0  0  0
    2.0332    1.5186   -2.8448 C   0  0  0  0  0  0  0  0  0  0  0  0
    1.2901    1.6421   -3.6395 H   0  0  0  0  0  0  0  0  0  0  0  0
    2.7503    2.3425   -2.9112 H   0  0  0  0  0  0  0  0  0  0  0  0
    2.5707    0.5785   -3.0071 H   0  0  0  0  0  0  0  0  0  0  0  0
  1  2  1  0  0  0  0
  2  3  1  0  0  0  0
  2  4  1  0  0  0  0
  2  5  1  0  0  0  0
  5  6  2  0  0  0  0
  5  7  1  0  0  0  0
  7  8  1  0  0  0  0
  7  9  1  0  0  0  0
  9 10  1  0  0  0  0
  9 11  1  0  0  0  0
  9 22  1  0  0  0  0
 11 12  1  0  0  0  0
 11 13  1  0  0  0  0
 11 14  1  0  0  0  0
 14 15  1  0  0  0  0
 14 20  2  0  0  0  0
 15 16  2  0  0  0  0
 16 17  1  0  0  0  0
 16 18  1  0  0  0  0
 18 19  1  0  0  0  0
 18 20  1  0  0  0  0
 20 21  1  0  0  0  0
 22 23  2  0  0  0  0
 22 24  1  0  0  0  0
 24 25  1  0  0  0  0
 24 26  1  0  0  0  0
 26 27  1  0  0  0  0
 26 28  1  0  0  0  0
 26 29  1  0  0  0  0
M  END
$$$$

  -OEChem-01062216083D

 29 29  0     1  0  0  0  0  0999 V2000
   -2.8782   -3.2108    0.8017 H   0  0  0  0  0  0  0  0  0  0  0  0
   -2.9182   -2.1709    0.4655 C   0  0  0  0  0  0  0  0  0  0  0  0
   -3.6791   -1.6426    1.0450 H   0  0  0  0  0  0  0  0  0  0  0  0
   -3.1962   -2.1542   -0.5913 H   0  0  0  0  0  0  0  0  0  0  0  0
   -1.5680   -1.5051    0.6549 C   0  0  0  0  0  0  0  0  0  0  0  0
   -0.6506   -2.1701    1.1064 O   0  0  0  0  0  0  0  0  0  0  0  0
   -1.4326   -0.1860    0.2625 N   0  0  0  0  0  0  0  0  0  0  0  0
   -2.2219    0.1610   -0.2755 H   0  0  0  0  0  0  0  0  0  0  0  0
   -0.2184    0.6621    0.2013 C   0  0  1  0  0  0  0  0  0  0  0  0
   -0.5468    1.6586    0.5148 H   0  0  0  0  0  0  0  0  0  0  0  0
    0.9491    0.3130    1.1538 C   0  0  0  0  0  0  0  0  0  0  0  0
    1.3065   -0.7029    0.9698 H   0  0  0  0  0  0  0  0  0  0  0  0
    1.7943    0.9816    0.9759 H   0  0  0  0  0  0  0  0  0  0  0  0
    0.5481    0.4834    2.5895 C   0  0  0  0  0  0  0  0  0  0  0  0
    0.4176    1.7340    3.1834 N   0  0  0  0  0  0  0  0  0  0  0  0
    0.1290    1.5134    4.4445 C   0  0  0  0  0  0  0  0  0  0  0  0
   -0.0422    2.2888    5.1856 H   0  0  0  0  0  0  0  0  0  0  0  0
    0.0820    0.1546    4.6919 N   0  0  0  0  0  0  0  0  0  0  0  0
   -0.1100   -0.2753    5.5945 H   0  0  0  0  0  0  0  0  0  0  0  0
    0.3631   -0.5041    3.5145 C   0  0  0  0  0  0  0  0  0  0  0  0
    0.4301   -1.5741    3.3326 H   0  0  0  0  0  0  0  0  0  0  0  0
    0.2568    0.8488   -1.2604 C   0  0  0  0  0  0  0  0  0  0  0  0
   -0.4234    0.4342   -2.1936 O   0  0  0  0  0  0  0  0  0  0  0  0
    1.3778    1.6079   -1.5494 N   0  0  0  0  0  0  0  0  0  0  0  0
    1.8986    1.9927   -0.7662 H   0  0  0  0  0  0  0  0  0  0  0  0
    1.8377    1.8832   -2.9051 C   0  0  0  0  0  0  0  0  0  0  0  0
    1.0724    2.4296   -3.4662 H   0  0  0  0  0  0  0  0  0  0  0  0
    2.7471    2.4911   -2.8789 H   0  0  0  0  0  0  0  0  0  0  0  0
    2.0614    0.9489   -3.4309 H   0  0  0  0  0  0  0  0  0  0  0  0
  1  2  1  0  0  0  0
  2  3  1  0  0  0  0
  2  4  1  0  0  0  0
  2  5  1  0  0  0  0
  5  6  2  0  0  0  0
  5  7  1  0  0  0  0
  7  8  1  0  0  0  0
  7  9  1  0  0  0  0
  9 10  1  0  0  0  0
  9 11  1  0  0  0  0
  9 22  1  0  0  0  0
 11 12  1  0  0  0  0
 11 13  1  0  0  0  0
 11 14  1  0  0  0  0
 14 15  1  0  0  0  0
 14 20  2  0  0  0  0
 15 16  2  0  0  0  0
 16 17  1  0  0  0  0
 16 18  1  0  0  0  0
 18 19  1  0  0  0  0
 18 20  1  0  0  0  0
 20 21  1  0  0  0  0
 22 23  2  0  0  0  0
 22 24  1  0  0  0  0
 24 25  1  0  0  0  0
 24 26  1  0  0  0  0
 26 27  1  0  0  0  0
 26 28  1  0  0  0  0
 26 29  1  0  0  0  0
M  END
$$$$

  -OEChem-01062216083D

 29 29  0     1  0  0  0  0  0999 V2000
   -2.8613   -3.1974    0.7927 H   0  0  0  0  0  0  0  0  0  0  0  0
   -2.8998   -2.1543    0.4664 C   0  0  0  0  0  0  0  0  0  0  0  0
   -3.6529   -1.6280    1.0577 H   0  0  0  0  0  0  0  0  0  0  0  0
   -3.1881   -2.1264   -0.5874 H   0  0  0  0  0  0  0  0  0  0  0  0
   -1.5447   -1.4962    0.6490 C   0  0  0  0  0  0  0  0  0  0  0  0
   -0.6221   -2.1713    1.0742 O   0  0  0  0  0  0  0  0  0  0  0  0
   -1.4057   -0.1739    0.2697 N   0  0  0  0  0  0  0  0  0  0  0  0
   -2.1988    0.1887   -0.2532 H   0  0  0  0  0  0  0  0  0  0  0  0
   -0.1926    0.6760    0.2207 C   0  0  1  0  0  0  0  0  0  0  0  0
   -0.5185    1.6725    0.5363 H   0  0  0  0  0  0  0  0  0  0  0  0
    0.9658    0.3177    1.1828 C   0  0  0  0  0  0  0  0  0  0  0  0
    1.3282   -0.6960    0.9960 H   0  0  0  0  0  0  0  0  0  0  0  0
    1.8104    0.9920    1.0240 H   0  0  0  0  0  0  0  0  0  0  0  0
    0.5469    0.4794    2.6145 C   0  0  0  0  0  0  0  0  0  0  0  0
    0.4098    1.7241    3.2186 N   0  0  0  0  0  0  0  0  0  0  0  0
    0.0957    1.4923    4.4713 C   0  0  0  0  0  0  0  0  0  0  0  0
   -0.0875    2.2613    5.2163 H   0  0  0  0  0  0  0  0  0  0  0  0
    0.0390    0.1310    4.7036 N   0  0  0  0  0  0  0  0  0  0  0  0
   -0.1744   -0.3076    5.5972 H   0  0  0  0  0  0  0  0  0  0  0  0
    0.3402   -0.5169    3.5252 C   0  0  0  0  0  0  0  0  0  0  0  0
    0.4041   -1.5852    3.3324 H   0  0  0  0  0  0  0  0  0  0  0  0
    0.2709    0.8633   -1.2458 C   0  0  0  0  0  0  0  0  0  0  0  0
   -0.5182    0.6667   -2.1648 O   0  0  0  0  0  0  0  0  0  0  0  0
    1.5306    1.3473   -1.5558 N   0  0  0  0  0  0  0  0  0  0  0  0
    2.1655    1.5342   -0.7854 H   0  0  0  0  0  0  0  0  0  0  0  0
    1.9934    1.5712   -2.9199 C   0  0  0  0  0  0  0  0  0  0  0  0
    1.3612    2.3105   -3.4228 H   0  0  0  0  0  0  0  0  0  0  0  0
    3.0222    1.9438   -2.9136 H   0  0  0  0  0  0  0  0  0  0  0  0
    1.9674    0.6371   -3.4910 H   0  0  0  0  0  0  0  0  0  0  0  0
  1  2  1  0  0  0  0
  2  3  1  0  0  0  0
  2  4  1  0  0  0  0
  2  5  1  0  0  0  0
  5  6  2  0  0  0  0
  5  7  1  0  0  0  0
  7  8  1  0  0  0  0
  7  9  1  0  0  0  0
  9 10  1  0  0  0  0
  9 11  1  0  0  0  0
  9 22  1  0  0  0  0
 11 12  1  0  0  0  0
 11 13  1  0  0  0  0
 11 14  1  0  0  0  0
 14 15  1  0  0  0  0
 14 20  2  0  0  0  0
 15 16  2  0  0  0  0
 16 17  1  0  0  0  0
 16 18  1  0  0  0  0
 18 19  1  0  0  0  0
 18 20  1  0  0  0  0
 20 21  1  0  0  0  0
 22 23  2  0  0  0  0
 22 24  1  0  0  0  0
 24 25  1  0  0  0  0
 24 26  1  0  0  0  0
 26 27  1  0  0  0  0
 26 28  1  0  0  0  0
 26 29  1  0  0  0  0
M  END
$$$$

  -OEChem-01062216083D

 29 29  0     1  0  0  0  0  0999 V2000
   -2.8469   -3.1915    0.7767 H   0  0  0  0  0  0  0  0  0  0  0  0
   -2.8884   -2.1429    0.4689 C   0  0  0  0  0  0  0  0  0  0  0  0
   -3.6284   -1.6244    1.0831 H   0  0  0  0  0  0  0  0  0  0  0  0
   -3.1960   -2.0963   -0.5788 H   0  0  0  0  0  0  0  0  0  0  0  0
   -1.5285   -1.4915    0.6381 C   0  0  0  0  0  0  0  0  0  0  0  0
   -0.6009   -2.1732    1.0417 O   0  0  0  0  0  0  0  0  0  0  0  0
   -1.3876   -0.1672    0.2675 N   0  0  0  0  0  0  0  0  0  0  0  0
   -2.1880    0.2125   -0.2322 H   0  0  0  0  0  0  0  0  0  0  0  0
   -0.1758    0.6836    0.2321 C   0  0  1  0  0  0  0  0  0  0  0  0
   -0.5027    1.6802    0.5476 H   0  0  0  0  0  0  0  0  0  0  0  0
    0.9745    0.3248    1.2025 C   0  0  0  0  0  0  0  0  0  0  0  0
    1.3425   -0.6870    1.0163 H   0  0  0  0  0  0  0  0  0  0  0  0
    1.8152    1.0062    1.0511 H   0  0  0  0  0  0  0  0  0  0  0  0
    0.5434    0.4813    2.6311 C   0  0  0  0  0  0  0  0  0  0  0  0
    0.3978    1.7216    3.2417 N   0  0  0  0  0  0  0  0  0  0  0  0
    0.0697    1.4816    4.4892 C   0  0  0  0  0  0  0  0  0  0  0  0
   -0.1225    2.2454    5.2373 H   0  0  0  0  0  0  0  0  0  0  0  0
    0.0102    0.1188    4.7117 N   0  0  0  0  0  0  0  0  0  0  0  0
   -0.2170   -0.3252    5.5993 H   0  0  0  0  0  0  0  0  0  0  0  0
    0.3244   -0.5210    3.5322 C   0  0  0  0  0  0  0  0  0  0  0  0
    0.3875   -1.5878    3.3318 H   0  0  0  0  0  0  0  0  0  0  0  0
    0.2855    0.8704   -1.2342 C   0  0  0  0  0  0  0  0  0  0  0  0
   -0.5549    0.9026   -2.1277 O   0  0  0  0  0  0  0  0  0  0  0  0
    1.6154    1.0571   -1.5715 N   0  0  0  0  0  0  0  0  0  0  0  0
    2.3007    0.9945   -0.8248 H   0  0  0  0  0  0  0  0  0  0  0  0
    2.0817    1.2267   -2.9423 C   0  0  0  0  0  0  0  0  0  0  0  0
    1.5853    2.0817   -3.4133 H   0  0  0  0  0  0  0  0  0  0  0  0
    3.1612    1.4059   -2.9547 H   0  0  0  0  0  0  0  0  0  0  0  0
    1.8724    0.3279   -3.5318 H   0  0  0  0  0  0  0  0  0  0  0  0
  1  2  1  0  0  0  0
  2  3  1  0  0  0  0
  2  4  1  0  0  0  0
  2  5  1  0  0  0  0
  5  6  2  0  0  0  0
  5  7  1  0  0  0  0
  7  8  1  0  0  0  0
  7  9  1  0  0  0  0
  9 10  1  0  0  0  0
  9 11  1  0  0  0  0
  9 22  1  0  0  0  0
 11 12  1  0  0  0  0
 11 13  1  0  0  0  0
 11 14  1  0  0  0  0
 14 15  1  0  0  0  0
 14 20  2  0  0  0  0
 15 16  2  0  0  0  0
 16 17  1  0  0  0  0
 16 18  1  0  0  0  0
 18 19  1  0  0  0  0
 18 20  1  0  0  0  0
 20 21  1  0  0  0  0
 22 23  2  0  0  0  0
 22 24  1  0  0  0  0
 24 25  1  0  0  0  0
 24 26  1  0  0  0  0
 26 27  1  0  0  0  0
 26 28  1  0  0  0  0
 26 29  1  0  0  0  0
M  END
$$$$

  -OEChem-01062216083D

 29 29  0     1  0  0  0  0  0999 V2000
   -2.8340   -3.1802    0.8098 H   0  0  0  0  0  0  0  0  0  0  0  0
   -2.8807   -2.1333    0.4969 C   0  0  0  0  0  0  0  0  0  0  0  0
   -3.5998   -1.6085    1.1305 H   0  0  0  0  0  0  0  0  0  0  0  0
   -3.2204   -2.0917   -0.5411 H   0  0  0  0  0  0  0  0  0  0  0  0
   -1.5133   -1.4872    0.6208 C   0  0  0  0  0  0  0  0  0  0  0  0
   -0.5738   -2.1730    0.9887 O   0  0  0  0  0  0  0  0  0  0  0  0
   -1.3756   -0.1622    0.2520 N   0  0  0  0  0  0  0  0  0  0  0  0
   -2.1945    0.2395   -0.1980 H   0  0  0  0  0  0  0  0  0  0  0  0
   -0.1680    0.6937    0.2306 C   0  0  1  0  0  0  0  0  0  0  0  0
   -0.5001    1.6892    0.5443 H   0  0  0  0  0  0  0  0  0  0  0  0
    0.9771    0.3374    1.2072 C   0  0  0  0  0  0  0  0  0  0  0  0
    1.3529   -0.6712    1.0215 H   0  0  0  0  0  0  0  0  0  0  0  0
    1.8135    1.0260    1.0599 H   0  0  0  0  0  0  0  0  0  0  0  0
    0.5350    0.4850    2.6332 C   0  0  0  0  0  0  0  0  0  0  0  0
    0.3764    1.7190    3.2526 N   0  0  0  0  0  0  0  0  0  0  0  0
    0.0407    1.4671    4.4958 C   0  0  0  0  0  0  0  0  0  0  0  0
   -0.1602    2.2238    5.2488 H   0  0  0  0  0  0  0  0  0  0  0  0
   -0.0136    0.1020    4.7061 N   0  0  0  0  0  0  0  0  0  0  0  0
   -0.2421   -0.3507    5.5890 H   0  0  0  0  0  0  0  0  0  0  0  0
    0.3130   -0.5264    3.5237 C   0  0  0  0  0  0  0  0  0  0  0  0
    0.3835   -1.5911    3.3149 H   0  0  0  0  0  0  0  0  0  0  0  0
    0.3031    0.8787   -1.2306 C   0  0  0  0  0  0  0  0  0  0  0  0
   -0.5294    1.1253   -2.0968 O   0  0  0  0  0  0  0  0  0  0  0  0
    1.6335    0.7668   -1.5972 N   0  0  0  0  0  0  0  0  0  0  0  0
    2.2907    0.4776   -0.8789 H   0  0  0  0  0  0  0  0  0  0  0  0
    2.0978    0.8664   -2.9752 C   0  0  0  0  0  0  0  0  0  0  0  0
    1.8030    1.8267   -3.4112 H   0  0  0  0  0  0  0  0  0  0  0  0
    3.1889    0.7925   -3.0122 H   0  0  0  0  0  0  0  0  0  0  0  0
    1.6743    0.0588   -3.5813 H   0  0  0  0  0  0  0  0  0  0  0  0
  1  2  1  0  0  0  0
  2  3  1  0  0  0  0
  2  4  1  0  0  0  0
  2  5  1  0  0  0  0
  5  6  2  0  0  0  0
  5  7  1  0  0  0  0
  7  8  1  0  0  0  0
  7  9  1  0  0  0  0
  9 10  1  0  0  0  0
  9 11  1  0  0  0  0
  9 22  1  0  0  0  0
 11 12  1  0  0  0  0
 11 13  1  0  0  0  0
 11 14  1  0  0  0  0
 14 15  1  0  0  0  0
 14 20  2  0  0  0  0
 15 16  2  0  0  0  0
 16 17  1  0  0  0  0
 16 18  1  0  0  0  0
 18 19  1  0  0  0  0
 18 20  1  0  0  0  0
 20 21  1  0  0  0  0
 22 23  2  0  0  0  0
 22 24  1  0  0  0  0
 24 25  1  0  0  0  0
 24 26  1  0  0  0  0
 26 27  1  0  0  0  0
 26 28  1  0  0  0  0
 26 29  1  0  0  0  0
M  END
$$$$

  -OEChem-01062216083D

 29 29  0     1  0  0  0  0  0999 V2000
   -2.8301   -3.1686    0.8498 H   0  0  0  0  0  0  0  0  0  0  0  0
   -2.8788   -2.1226    0.5343 C   0  0  0  0  0  0  0  0  0  0  0  0
   -3.5713   -1.5896    1.1902 H   0  0  0  0  0  0  0  0  0  0  0  0
   -3.2539   -2.0820   -0.4912 H   0  0  0  0  0  0  0  0  0  0  0  0
   -1.5026   -1.4873    0.6077 C   0  0  0  0  0  0  0  0  0  0  0  0
   -0.5534   -2.1798    0.9368 O   0  0  0  0  0  0  0  0  0  0  0  0
   -1.3664   -0.1633    0.2351 N   0  0  0  0  0  0  0  0  0  0  0  0
   -2.2041    0.2595   -0.1565 H   0  0  0  0  0  0  0  0  0  0  0  0
   -0.1613    0.6951    0.2224 C   0  0  1  0  0  0  0  0  0  0  0  0
   -0.4967    1.6910    0.5321 H   0  0  0  0  0  0  0  0  0  0  0  0
    0.9787    0.3419    1.2046 C   0  0  0  0  0  0  0  0  0  0  0  0
    1.3575   -0.6662    1.0238 H   0  0  0  0  0  0  0  0  0  0  0  0
    1.8141    1.0323    1.0556 H   0  0  0  0  0  0  0  0  0  0  0  0
    0.5281    0.4867    2.6279 C   0  0  0  0  0  0  0  0  0  0  0  0
    0.3604    1.7171    3.2516 N   0  0  0  0  0  0  0  0  0  0  0  0
    0.0180    1.4584    4.4913 C   0  0  0  0  0  0  0  0  0  0  0  0
   -0.1900    2.2113    5.2462 H   0  0  0  0  0  0  0  0  0  0  0  0
   -0.0336    0.0921    4.6951 N   0  0  0  0  0  0  0  0  0  0  0  0
   -0.2640   -0.3650    5.5752 H   0  0  0  0  0  0  0  0  0  0  0  0
    0.3024   -0.5298    3.5117 C   0  0  0  0  0  0  0  0  0  0  0  0
    0.3778   -1.5934    3.2985 H   0  0  0  0  0  0  0  0  0  0  0  0
    0.3228    0.8757   -1.2326 C   0  0  0  0  0  0  0  0  0  0  0  0
   -0.4514    1.3384   -2.0625 O   0  0  0  0  0  0  0  0  0  0  0  0
    1.5833    0.4736   -1.6398 N   0  0  0  0  0  0  0  0  0  0  0  0
    2.1504   -0.0248   -0.9601 H   0  0  0  0  0  0  0  0  0  0  0  0
    2.0326    0.5268   -3.0253 C   0  0  0  0  0  0  0  0  0  0  0  0
    1.9458    1.5454   -3.4183 H   0  0  0  0  0  0  0  0  0  0  0  0
    3.0808    0.2205   -3.0941 H   0  0  0  0  0  0  0  0  0  0  0  0
    1.4323   -0.1443   -3.6485 H   0  0  0  0  0  0  0  0  0  0  0  0
  1  2  1  0  0  0  0
  2  3  1  0  0  0  0
  2  4  1  0  0  0  0
  2  5  1  0  0  0  0
  5  6  2  0  0  0  0
  5  7  1  0  0  0  0
  7  8  1  0  0  0  0
  7  9  1  0  0  0  0
  9 10  1  0  0  0  0
  9 11  1  0  0  0  0
  9 22  1  0  0  0  0
 11 12  1  0  0  0  0
 11 13  1  0  0  0  0
 11 14  1  0  0  0  0
 14 15  1  0  0  0  0
 14 20  2  0  0  0  0
 15 16  2  0  0  0  0
 16 17  1  0  0  0  0
 16 18  1  0  0  0  0
 18 19  1  0  0  0  0
 18 20  1  0  0  0  0
 20 21  1  0  0  0  0
 22 23  2  0  0  0  0
 22 24  1  0  0  0  0
 24 25  1  0  0  0  0
 24 26  1  0  0  0  0
 26 27  1  0  0  0  0
 26 28  1  0  0  0  0
 26 29  1  0  0  0  0
M  END
$$$$

  -OEChem-01062216083D

 29 29  0     1  0  0  0  0  0999 V2000
   -2.8200   -3.1610    0.8915 H   0  0  0  0  0  0  0  0  0  0  0  0
   -2.8761   -2.1153    0.5765 C   0  0  0  0  0  0  0  0  0  0  0  0
   -3.5393   -1.5783    1.2588 H   0  0  0  0  0  0  0  0  0  0  0  0
   -3.2917   -2.0739   -0.4333 H   0  0  0  0  0  0  0  0  0  0  0  0
   -1.4948   -1.4872    0.5947 C   0  0  0  0  0  0  0  0  0  0  0  0
   -0.5351   -2.1839    0.8815 O   0  0  0  0  0  0  0  0  0  0  0  0
   -1.3632   -0.1650    0.2150 N   0  0  0  0  0  0  0  0  0  0  0  0
   -2.2191    0.2778   -0.1091 H   0  0  0  0  0  0  0  0  0  0  0  0
   -0.1601    0.6951    0.2096 C   0  0  1  0  0  0  0  0  0  0  0  0
   -0.4987    1.6909    0.5166 H   0  0  0  0  0  0  0  0  0  0  0  0
    0.9778    0.3457    1.1948 C   0  0  0  0  0  0  0  0  0  0  0  0
    1.3618   -0.6611    1.0179 H   0  0  0  0  0  0  0  0  0  0  0  0
    1.8116    1.0378    1.0430 H   0  0  0  0  0  0  0  0  0  0  0  0
    0.5216    0.4882    2.6166 C   0  0  0  0  0  0  0  0  0  0  0  0
    0.3459    1.7156    3.2439 N   0  0  0  0  0  0  0  0  0  0  0  0
   -0.0006    1.4515    4.4814 C   0  0  0  0  0  0  0  0  0  0  0  0
   -0.2145    2.2008    5.2383 H   0  0  0  0  0  0  0  0  0  0  0  0
   -0.0485    0.0843    4.6797 N   0  0  0  0  0  0  0  0  0  0  0  0
   -0.2789   -0.3765    5.5579 H   0  0  0  0  0  0  0  0  0  0  0  0
    0.2945   -0.5323    3.4956 C   0  0  0  0  0  0  0  0  0  0  0  0
    0.3748   -1.5947    3.2791 H   0  0  0  0  0  0  0  0  0  0  0  0
    0.3385    0.8687   -1.2389 C   0  0  0  0  0  0  0  0  0  0  0  0
   -0.3202    1.5425   -2.0217 O   0  0  0  0  0  0  0  0  0  0  0  0
    1.4611    0.2017   -1.6971 N   0  0  0  0  0  0  0  0  0  0  0  0
    1.8787   -0.4769   -1.0659 H   0  0  0  0  0  0  0  0  0  0  0  0
    1.8900    0.2216   -3.0898 C   0  0  0  0  0  0  0  0  0  0  0  0
    2.0515    1.2510   -3.4266 H   0  0  0  0  0  0  0  0  0  0  0  0
    2.8292   -0.3284   -3.2035 H   0  0  0  0  0  0  0  0  0  0  0  0
    1.1337   -0.2443   -3.7300 H   0  0  0  0  0  0  0  0  0  0  0  0
  1  2  1  0  0  0  0
  2  3  1  0  0  0  0
  2  4  1  0  0  0  0
  2  5  1  0  0  0  0
  5  6  2  0  0  0  0
  5  7  1  0  0  0  0
  7  8  1  0  0  0  0
  7  9  1  0  0  0  0
  9 10  1  0  0  0  0
  9 11  1  0  0  0  0
  9 22  1  0  0  0  0
 11 12  1  0  0  0  0
 11 13  1  0  0  0  0
 11 14  1  0  0  0  0
 14 15  1  0  0  0  0
 14 20  2  0  0  0  0
 15 16  2  0  0  0  0
 16 17  1  0  0  0  0
 16 18  1  0  0  0  0
 18 19  1  0  0  0  0
 18 20  1  0  0  0  0
 20 21  1  0  0  0  0
 22 23  2  0  0  0  0
 22 24  1  0  0  0  0
 24 25  1  0  0  0  0
 24 26  1  0  0  0  0
 26 27  1  0  0  0  0
 26 28  1  0  0  0  0
 26 29  1  0  0  0  0
M  END
$$$$

  -OEChem-01062216083D

 29 29  0     1  0  0  0  0  0999 V2000
   -2.8048   -3.1402    0.9811 H   0  0  0  0  0  0  0  0  0  0  0  0
   -2.8724   -2.0996    0.6513 C   0  0  0  0  0  0  0  0  0  0  0  0
   -3.4904   -1.5455    1.3620 H   0  0  0  0  0  0  0  0  0  0  0  0
   -3.3465   -2.0727   -0.3329 H   0  0  0  0  0  0  0  0  0  0  0  0
   -1.4885   -1.4822    0.5774 C   0  0  0  0  0  0  0  0  0  0  0  0
   -0.5147   -2.1855    0.7924 O   0  0  0  0  0  0  0  0  0  0  0  0
   -1.3670   -0.1630    0.1853 N   0  0  0  0  0  0  0  0  0  0  0  0
   -2.2413    0.3000   -0.0477 H   0  0  0  0  0  0  0  0  0  0  0  0
   -0.1663    0.7005    0.1874 C   0  0  1  0  0  0  0  0  0  0  0  0
   -0.5074    1.6973    0.4892 H   0  0  0  0  0  0  0  0  0  0  0  0
    0.9710    0.3524    1.1727 C   0  0  0  0  0  0  0  0  0  0  0  0
    1.3635   -0.6506    0.9940 H   0  0  0  0  0  0  0  0  0  0  0  0
    1.8009    1.0494    1.0233 H   0  0  0  0  0  0  0  0  0  0  0  0
    0.5097    0.4875    2.5928 C   0  0  0  0  0  0  0  0  0  0  0  0
    0.3240    1.7079    3.2299 N   0  0  0  0  0  0  0  0  0  0  0  0
   -0.0239    1.4310    4.4641 C   0  0  0  0  0  0  0  0  0  0  0  0
   -0.2425    2.1723    5.2274 H   0  0  0  0  0  0  0  0  0  0  0  0
   -0.0665    0.0617    4.6497 N   0  0  0  0  0  0  0  0  0  0  0  0
   -0.2946   -0.4079    5.5239 H   0  0  0  0  0  0  0  0  0  0  0  0
    0.2843   -0.5421    3.4614 C   0  0  0  0  0  0  0  0  0  0  0  0
    0.3729   -1.6020    3.2359 H   0  0  0  0  0  0  0  0  0  0  0  0
    0.3480    0.8607   -1.2551 C   0  0  0  0  0  0  0  0  0  0  0  0
   -0.1245    1.7283   -1.9785 O   0  0  0  0  0  0  0  0  0  0  0  0
    1.2726   -0.0305   -1.7689 N   0  0  0  0  0  0  0  0  0  0  0  0
    1.4896   -0.8394   -1.1909 H   0  0  0  0  0  0  0  0  0  0  0  0
    1.6914   -0.0318   -3.1645 C   0  0  0  0  0  0  0  0  0  0  0  0
    2.0829    0.9508   -3.4481 H   0  0  0  0  0  0  0  0  0  0  0  0
    2.4803   -0.7738   -3.3211 H   0  0  0  0  0  0  0  0  0  0  0  0
    0.8472   -0.2770   -3.8171 H   0  0  0  0  0  0  0  0  0  0  0  0
  1  2  1  0  0  0  0
  2  3  1  0  0  0  0
  2  4  1  0  0  0  0
  2  5  1  0  0  0  0
  5  6  2  0  0  0  0
  5  7  1  0  0  0  0
  7  8  1  0  0  0  0
  7  9  1  0  0  0  0
  9 10  1  0  0  0  0
  9 11  1  0  0  0  0
  9 22  1  0  0  0  0
 11 12  1  0  0  0  0
 11 13  1  0  0  0  0
 11 14  1  0  0  0  0
 14 15  1  0  0  0  0
 14 20  2  0  0  0  0
 15 16  2  0  0  0  0
 16 17  1  0  0  0  0
 16 18  1  0  0  0  0
 18 19  1  0  0  0  0
 18 20  1  0  0  0  0
 20 21  1  0  0  0  0
 22 23  2  0  0  0  0
 22 24  1  0  0  0  0
 24 25  1  0  0  0  0
 24 26  1  0  0  0  0
 26 27  1  0  0  0  0
 26 28  1  0  0  0  0
 26 29  1  0  0  0  0
M  END
$$$$

  -OEChem-01062216083D

 29 29  0     1  0  0  0  0  0999 V2000
   -2.7892   -3.1237    1.0590 H   0  0  0  0  0  0  0  0  0  0  0  0
   -2.8714   -2.0854    0.7259 C   0  0  0  0  0  0  0  0  0  0  0  0
   -3.4433   -1.5233    1.4680 H   0  0  0  0  0  0  0  0  0  0  0  0
   -3.4031   -2.0630   -0.2284 H   0  0  0  0  0  0  0  0  0  0  0  0
   -1.4916   -1.4763    0.5642 C   0  0  0  0  0  0  0  0  0  0  0  0
   -0.5083   -2.1856    0.7033 O   0  0  0  0  0  0  0  0  0  0  0  0
   -1.3831   -0.1612    0.1563 N   0  0  0  0  0  0  0  0  0  0  0  0
   -2.2685    0.3132    0.0014 H   0  0  0  0  0  0  0  0  0  0  0  0
   -0.1856    0.7078    0.1630 C   0  0  1  0  0  0  0  0  0  0  0  0
   -0.5289    1.7053    0.4595 H   0  0  0  0  0  0  0  0  0  0  0  0
    0.9532    0.3602    1.1455 C   0  0  0  0  0  0  0  0  0  0  0  0
    1.3535   -0.6384    0.9595 H   0  0  0  0  0  0  0  0  0  0  0  0
    1.7785    1.0632    0.9986 H   0  0  0  0  0  0  0  0  0  0  0  0
    0.4933    0.4848    2.5669 C   0  0  0  0  0  0  0  0  0  0  0  0
    0.3014    1.6984    3.2148 N   0  0  0  0  0  0  0  0  0  0  0  0
   -0.0375    1.4096    4.4486 C   0  0  0  0  0  0  0  0  0  0  0  0
   -0.2548    2.1435    5.2195 H   0  0  0  0  0  0  0  0  0  0  0  0
   -0.0728    0.0385    4.6223 N   0  0  0  0  0  0  0  0  0  0  0  0
   -0.2894   -0.4395    5.4948 H   0  0  0  0  0  0  0  0  0  0  0  0
    0.2757   -0.5538    3.4272 C   0  0  0  0  0  0  0  0  0  0  0  0
    0.3721   -1.6113    3.1933 H   0  0  0  0  0  0  0  0  0  0  0  0
    0.3429    0.8521   -1.2746 C   0  0  0  0  0  0  0  0  0  0  0  0
    0.1075    1.8617   -1.9255 O   0  0  0  0  0  0  0  0  0  0  0  0
    1.0218   -0.2028   -1.8562 N   0  0  0  0  0  0  0  0  0  0  0  0
    1.0530   -1.0695   -1.3214 H   0  0  0  0  0  0  0  0  0  0  0  0
    1.4463   -0.2144   -3.2496 C   0  0  0  0  0  0  0  0  0  0  0  0
    2.0799    0.6525   -3.4648 H   0  0  0  0  0  0  0  0  0  0  0  0
    2.0212   -1.1210   -3.4610 H   0  0  0  0  0  0  0  0  0  0  0  0
    0.5771   -0.1902   -3.9150 H   0  0  0  0  0  0  0  0  0  0  0  0
  1  2  1  0  0  0  0
  2  3  1  0  0  0  0
  2  4  1  0  0  0  0
  2  5  1  0  0  0  0
  5  6  2  0  0  0  0
  5  7  1  0  0  0  0
  7  8  1  0  0  0  0
  7  9  1  0  0  0  0
  9 10  1  0  0  0  0
  9 11  1  0  0  0  0
  9 22  1  0  0  0  0
 11 12  1  0  0  0  0
 11 13  1  0  0  0  0
 11 14  1  0  0  0  0
 14 15  1  0  0  0  0
 14 20  2  0  0  0  0
 15 16  2  0  0  0  0
 16 17  1  0  0  0  0
 16 18  1  0  0  0  0
 18 19  1  0  0  0  0
 18 20  1  0  0  0  0
 20 21  1  0  0  0  0
 22 23  2  0  0  0  0
 22 24  1  0  0  0  0
 24 25  1  0  0  0  0
 24 26  1  0  0  0  0
 26 27  1  0  0  0  0
 26 28  1  0  0  0  0
 26 29  1  0  0  0  0
M  END
$$$$

  -OEChem-01062216083D

 29 29  0     1  0  0  0  0  0999 V2000
   -2.7862   -3.1159    1.1331 H   0  0  0  0  0  0  0  0  0  0  0  0
   -2.8816   -2.0747    0.8124 C   0  0  0  0  0  0  0  0  0  0  0  0
   -3.3998   -1.5130    1.5935 H   0  0  0  0  0  0  0  0  0  0  0  0
   -3.4735   -2.0419   -0.1056 H   0  0  0  0  0  0  0  0  0  0  0  0
   -1.5106   -1.4746    0.5660 C   0  0  0  0  0  0  0  0  0  0  0  0
   -0.5244   -2.1895    0.6361 O   0  0  0  0  0  0  0  0  0  0  0  0
   -1.4159   -0.1644    0.1409 N   0  0  0  0  0  0  0  0  0  0  0  0
   -2.3074    0.3145    0.0487 H   0  0  0  0  0  0  0  0  0  0  0  0
   -0.2221    0.7122    0.1383 C   0  0  1  0  0  0  0  0  0  0  0  0
   -0.5667    1.7104    0.4313 H   0  0  0  0  0  0  0  0  0  0  0  0
    0.9263    0.3649    1.1084 C   0  0  0  0  0  0  0  0  0  0  0  0
    1.3288   -0.6308    0.9115 H   0  0  0  0  0  0  0  0  0  0  0  0
    1.7473    1.0722    0.9565 H   0  0  0  0  0  0  0  0  0  0  0  0
    0.4791    0.4803    2.5344 C   0  0  0  0  0  0  0  0  0  0  0  0
    0.2871    1.6882    3.1922 N   0  0  0  0  0  0  0  0  0  0  0  0
   -0.0404    1.3897    4.4267 C   0  0  0  0  0  0  0  0  0  0  0  0
   -0.2560    2.1175    5.2037 H   0  0  0  0  0  0  0  0  0  0  0  0
   -0.0673    0.0173    4.5917 N   0  0  0  0  0  0  0  0  0  0  0  0
   -0.2732   -0.4676    5.4632 H   0  0  0  0  0  0  0  0  0  0  0  0
    0.2742   -0.5650    3.3897 C   0  0  0  0  0  0  0  0  0  0  0  0
    0.3743   -1.6205    3.1484 H   0  0  0  0  0  0  0  0  0  0  0  0
    0.3111    0.8444   -1.2981 C   0  0  0  0  0  0  0  0  0  0  0  0
    0.3412    1.9307   -1.8606 O   0  0  0  0  0  0  0  0  0  0  0  0
    0.7133   -0.2955   -1.9685 N   0  0  0  0  0  0  0  0  0  0  0  0
    0.6139   -1.1779   -1.4672 H   0  0  0  0  0  0  0  0  0  0  0  0
    1.1902   -0.3018   -3.3442 C   0  0  0  0  0  0  0  0  0  0  0  0
    2.0611    0.3535   -3.4503 H   0  0  0  0  0  0  0  0  0  0  0  0
    1.4825   -1.3147   -3.6371 H   0  0  0  0  0  0  0  0  0  0  0  0
    0.4036    0.0431   -4.0232 H   0  0  0  0  0  0  0  0  0  0  0  0
  1  2  1  0  0  0  0
  2  3  1  0  0  0  0
  2  4  1  0  0  0  0
  2  5  1  0  0  0  0
  5  6  2  0  0  0  0
  5  7  1  0  0  0  0
  7  8  1  0  0  0  0
  7  9  1  0  0  0  0
  9 10  1  0  0  0  0
  9 11  1  0  0  0  0
  9 22  1  0  0  0  0
 11 12  1  0  0  0  0
 11 13  1  0  0  0  0
 11 14  1  0  0  0  0
 14 15  1  0  0  0  0
 14 20  2  0  0  0  0
 15 16  2  0  0  0  0
 16 17  1  0  0  0  0
 16 18  1  0  0  0  0
 18 19  1  0  0  0  0
 18 20  1  0  0  0  0
 20 21  1  0  0  0  0
 22 23  2  0  0  0  0
 22 24  1  0  0  0  0
 24 25  1  0  0  0  0
 24 26  1  0  0  0  0
 26 27  1  0  0  0  0
 26 28  1  0  0  0  0
 26 29  1  0  0  0  0
M  END
$$$$

  -OEChem-01062216083D

 29 29  0     1  0  0  0  0  0999 V2000
   -2.8006   -3.1187    1.2112 H   0  0  0  0  0  0  0  0  0  0  0  0
   -2.9052   -2.0754    0.8995 C   0  0  0  0  0  0  0  0  0  0  0  0
   -3.3756   -1.5128    1.7096 H   0  0  0  0  0  0  0  0  0  0  0  0
   -3.5466   -2.0347    0.0156 H   0  0  0  0  0  0  0  0  0  0  0  0
   -1.5447   -1.4844    0.5812 C   0  0  0  0  0  0  0  0  0  0  0  0
   -0.5601   -2.2038    0.6041 O   0  0  0  0  0  0  0  0  0  0  0  0
   -1.4645   -0.1777    0.1426 N   0  0  0  0  0  0  0  0  0  0  0  0
   -2.3594    0.3016    0.0991 H   0  0  0  0  0  0  0  0  0  0  0  0
   -0.2752    0.7075    0.1153 C   0  0  1  0  0  0  0  0  0  0  0  0
   -0.6209    1.7047    0.4095 H   0  0  0  0  0  0  0  0  0  0  0  0
    0.8873    0.3632    1.0677 C   0  0  0  0  0  0  0  0  0  0  0  0
    1.2889   -0.6315    0.8624 H   0  0  0  0  0  0  0  0  0  0  0  0
    1.7048    1.0723    0.9044 H   0  0  0  0  0  0  0  0  0  0  0  0
    0.4609    0.4780    2.5001 C   0  0  0  0  0  0  0  0  0  0  0  0
    0.2748    1.6838    3.1636 N   0  0  0  0  0  0  0  0  0  0  0  0
   -0.0270    1.3815    4.4037 C   0  0  0  0  0  0  0  0  0  0  0  0
   -0.2314    2.1071    5.1860 H   0  0  0  0  0  0  0  0  0  0  0  0
   -0.0432    0.0088    4.5670 N   0  0  0  0  0  0  0  0  0  0  0  0
   -0.2242   -0.4779    5.4427 H   0  0  0  0  0  0  0  0  0  0  0  0
    0.2789   -0.5697    3.3578 C   0  0  0  0  0  0  0  0  0  0  0  0
    0.3845   -1.6240    3.1134 H   0  0  0  0  0  0  0  0  0  0  0  0
    0.2536    0.8431   -1.3240 C   0  0  0  0  0  0  0  0  0  0  0  0
    0.5611    1.9368   -1.7782 O   0  0  0  0  0  0  0  0  0  0  0  0
    0.3711   -0.2884   -2.1096 N   0  0  0  0  0  0  0  0  0  0  0  0
    0.1807   -1.1781   -1.6498 H   0  0  0  0  0  0  0  0  0  0  0  0
    0.9439   -0.2839   -3.4486 C   0  0  0  0  0  0  0  0  0  0  0  0
    1.9839    0.0576   -3.4186 H   0  0  0  0  0  0  0  0  0  0  0  0
    0.9216   -1.2926   -3.8719 H   0  0  0  0  0  0  0  0  0  0  0  0
    0.3734    0.3797   -4.1066 H   0  0  0  0  0  0  0  0  0  0  0  0
  1  2  1  0  0  0  0
  2  3  1  0  0  0  0
  2  4  1  0  0  0  0
  2  5  1  0  0  0  0
  5  6  2  0  0  0  0
  5  7  1  0  0  0  0
  7  8  1  0  0  0  0
  7  9  1  0  0  0  0
  9 10  1  0  0  0  0
  9 11  1  0  0  0  0
  9 22  1  0  0  0  0
 11 12  1  0  0  0  0
 11 13  1  0  0  0  0
 11 14  1  0  0  0  0
 14 15  1  0  0  0  0
 14 20  2  0  0  0  0
 15 16  2  0  0  0  0
 16 17  1  0  0  0  0
 16 18  1  0  0  0  0
 18 19  1  0  0  0  0
 18 20  1  0  0  0  0
 20 21  1  0  0  0  0
 22 23  2  0  0  0  0
 22 24  1  0  0  0  0
 24 25  1  0  0  0  0
 24 26  1  0  0  0  0
 26 27  1  0  0  0  0
 26 28  1  0  0  0  0
 26 29  1  0  0  0  0
M  END
$$$$

  -OEChem-01062216083D

 29 29  0     1  0  0  0  0  0999 V2000
   -2.8007   -3.1112    1.2758 H   0  0  0  0  0  0  0  0  0  0  0  0
   -2.9105   -2.0761    0.9398 C   0  0  0  0  0  0  0  0  0  0  0  0
   -3.3738   -1.4952    1.7412 H   0  0  0  0  0  0  0  0  0  0  0  0
   -3.5605   -2.0580    0.0617 H   0  0  0  0  0  0  0  0  0  0  0  0
   -1.5546   -1.4909    0.5937 C   0  0  0  0  0  0  0  0  0  0  0  0
   -0.5734   -2.2140    0.6012 O   0  0  0  0  0  0  0  0  0  0  0  0
   -1.4804   -0.1852    0.1510 N   0  0  0  0  0  0  0  0  0  0  0  0
   -2.3762    0.2938    0.1288 H   0  0  0  0  0  0  0  0  0  0  0  0
   -0.2940    0.7057    0.1092 C   0  0  1  0  0  0  0  0  0  0  0  0
   -0.6406    1.7020    0.4051 H   0  0  0  0  0  0  0  0  0  0  0  0
    0.8725    0.3611    1.0575 C   0  0  0  0  0  0  0  0  0  0  0  0
    1.2722   -0.6339    0.8503 H   0  0  0  0  0  0  0  0  0  0  0  0
    1.6903    1.0695    0.8916 H   0  0  0  0  0  0  0  0  0  0  0  0
    0.4537    0.4777    2.4922 C   0  0  0  0  0  0  0  0  0  0  0  0
    0.2713    1.6826    3.1586 N   0  0  0  0  0  0  0  0  0  0  0  0
   -0.0213    1.3785    4.4005 C   0  0  0  0  0  0  0  0  0  0  0  0
   -0.2189    2.1028    5.1855 H   0  0  0  0  0  0  0  0  0  0  0  0
   -0.0379    0.0054    4.5617 N   0  0  0  0  0  0  0  0  0  0  0  0
   -0.2137   -0.4831    5.4375 H   0  0  0  0  0  0  0  0  0  0  0  0
    0.2765   -0.5711    3.3497 C   0  0  0  0  0  0  0  0  0  0  0  0
    0.3812   -1.6250    3.1027 H   0  0  0  0  0  0  0  0  0  0  0  0
    0.2336    0.8503   -1.3322 C   0  0  0  0  0  0  0  0  0  0  0  0
    0.7749    1.8860   -1.6950 O   0  0  0  0  0  0  0  0  0  0  0  0
    0.0758   -0.1901   -2.2295 N   0  0  0  0  0  0  0  0  0  0  0  0
   -0.2404   -1.0725   -1.8317 H   0  0  0  0  0  0  0  0  0  0  0  0
    0.6445   -0.1834   -3.5706 C   0  0  0  0  0  0  0  0  0  0  0  0
    1.7355   -0.1046   -3.5233 H   0  0  0  0  0  0  0  0  0  0  0  0
    0.3855   -1.1081   -4.0950 H   0  0  0  0  0  0  0  0  0  0  0  0
    0.2545    0.6612   -4.1479 H   0  0  0  0  0  0  0  0  0  0  0  0
  1  2  1  0  0  0  0
  2  3  1  0  0  0  0
  2  4  1  0  0  0  0
  2  5  1  0  0  0  0
  5  6  2  0  0  0  0
  5  7  1  0  0  0  0
  7  8  1  0  0  0  0
  7  9  1  0  0  0  0
  9 10  1  0  0  0  0
  9 11  1  0  0  0  0
  9 22  1  0  0  0  0
 11 12  1  0  0  0  0
 11 13  1  0  0  0  0
 11 14  1  0  0  0  0
 14 15  1  0  0  0  0
 14 20  2  0  0  0  0
 15 16  2  0  0  0  0
 16 17  1  0  0  0  0
 16 18  1  0  0  0  0
 18 19  1  0  0  0  0
 18 20  1  0  0  0  0
 20 21  1  0  0  0  0
 22 23  2  0  0  0  0
 22 24  1  0  0  0  0
 24 25  1  0  0  0  0
 24 26  1  0  0  0  0
 26 27  1  0  0  0  0
 26 28  1  0  0  0  0
 26 29  1  0  0  0  0
M  END
$$$$

  -OEChem-01062216083D

 29 29  0     1  0  0  0  0  0999 V2000
   -2.7983   -3.1247    1.2928 H   0  0  0  0  0  0  0  0  0  0  0  0
   -2.9089   -2.0902    0.9552 C   0  0  0  0  0  0  0  0  0  0  0  0
   -3.3696   -1.5077    1.7568 H   0  0  0  0  0  0  0  0  0  0  0  0
   -3.5622   -2.0741    0.0795 H   0  0  0  0  0  0  0  0  0  0  0  0
   -1.5535   -1.5062    0.6039 C   0  0  0  0  0  0  0  0  0  0  0  0
   -0.5731   -2.2293    0.6228 O   0  0  0  0  0  0  0  0  0  0  0  0
   -1.4834   -0.1984    0.1634 N   0  0  0  0  0  0  0  0  0  0  0  0
   -2.3793    0.2810    0.1609 H   0  0  0  0  0  0  0  0  0  0  0  0
   -0.2978    0.6955    0.1091 C   0  0  1  0  0  0  0  0  0  0  0  0
   -0.6465    1.6901    0.4077 H   0  0  0  0  0  0  0  0  0  0  0  0
    0.8693    0.3522    1.0588 C   0  0  0  0  0  0  0  0  0  0  0  0
    1.2671   -0.6441    0.8546 H   0  0  0  0  0  0  0  0  0  0  0  0
    1.6898    1.0573    0.8922 H   0  0  0  0  0  0  0  0  0  0  0  0
    0.4506    0.4772    2.4929 C   0  0  0  0  0  0  0  0  0  0  0  0
    0.2710    1.6859    3.1538 N   0  0  0  0  0  0  0  0  0  0  0  0
   -0.0179    1.3886    4.3982 C   0  0  0  0  0  0  0  0  0  0  0  0
   -0.2118    2.1171    5.1804 H   0  0  0  0  0  0  0  0  0  0  0  0
   -0.0366    0.0165    4.5661 N   0  0  0  0  0  0  0  0  0  0  0  0
   -0.2085   -0.4671    5.4455 H   0  0  0  0  0  0  0  0  0  0  0  0
    0.2742   -0.5668    3.3565 C   0  0  0  0  0  0  0  0  0  0  0  0
    0.3794   -1.6220    3.1154 H   0  0  0  0  0  0  0  0  0  0  0  0
    0.2261    0.8560   -1.3351 C   0  0  0  0  0  0  0  0  0  0  0  0
    0.9755    1.7799   -1.6230 O   0  0  0  0  0  0  0  0  0  0  0  0
   -0.1839   -0.0147   -2.3289 N   0  0  0  0  0  0  0  0  0  0  0  0
   -0.6652   -0.8513   -2.0088 H   0  0  0  0  0  0  0  0  0  0  0  0
    0.3543    0.0119   -3.6831 C   0  0  0  0  0  0  0  0  0  0  0  0
    1.4298   -0.1939   -3.6714 H   0  0  0  0  0  0  0  0  0  0  0  0
   -0.1383   -0.7456   -4.3002 H   0  0  0  0  0  0  0  0  0  0  0  0
    0.1876    0.9916   -4.1432 H   0  0  0  0  0  0  0  0  0  0  0  0
  1  2  1  0  0  0  0
  2  3  1  0  0  0  0
  2  4  1  0  0  0  0
  2  5  1  0  0  0  0
  5  6  2  0  0  0  0
  5  7  1  0  0  0  0
  7  8  1  0  0  0  0
  7  9  1  0  0  0  0
  9 10  1  0  0  0  0
  9 11  1  0  0  0  0
  9 22  1  0  0  0  0
 11 12  1  0  0  0  0
 11 13  1  0  0  0  0
 11 14  1  0  0  0  0
 14 15  1  0  0  0  0
 14 20  2  0  0  0  0
 15 16  2  0  0  0  0
 16 17  1  0  0  0  0
 16 18  1  0  0  0  0
 18 19  1  0  0  0  0
 18 20  1  0  0  0  0
 20 21  1  0  0  0  0
 22 23  2  0  0  0  0
 22 24  1  0  0  0  0
 24 25  1  0  0  0  0
 24 26  1  0  0  0  0
 26 27  1  0  0  0  0
 26 28  1  0  0  0  0
 26 29  1  0  0  0  0
M  END
$$$$

  -OEChem-01062216083D

 29 29  0     1  0  0  0  0  0999 V2000
   -2.7790   -3.1428    1.2763 H   0  0  0  0  0  0  0  0  0  0  0  0
   -2.8905   -2.1054    0.9482 C   0  0  0  0  0  0  0  0  0  0  0  0
   -3.3491   -1.5305    1.7564 H   0  0  0  0  0  0  0  0  0  0  0  0
   -3.5460   -2.0819    0.0745 H   0  0  0  0  0  0  0  0  0  0  0  0
   -1.5358   -1.5181    0.5989 C   0  0  0  0  0  0  0  0  0  0  0  0
   -0.5549   -2.2393    0.6305 O   0  0  0  0  0  0  0  0  0  0  0  0
   -1.4687   -0.2059    0.1682 N   0  0  0  0  0  0  0  0  0  0  0  0
   -2.3633    0.2756    0.1868 H   0  0  0  0  0  0  0  0  0  0  0  0
   -0.2814    0.6870    0.1113 C   0  0  1  0  0  0  0  0  0  0  0  0
   -0.6297    1.6807    0.4124 H   0  0  0  0  0  0  0  0  0  0  0  0
    0.8810    0.3423    1.0693 C   0  0  0  0  0  0  0  0  0  0  0  0
    1.2781   -0.6554    0.8710 H   0  0  0  0  0  0  0  0  0  0  0  0
    1.7055    1.0437    0.9094 H   0  0  0  0  0  0  0  0  0  0  0  0
    0.4516    0.4759    2.4996 C   0  0  0  0  0  0  0  0  0  0  0  0
    0.2718    1.6890    3.1527 N   0  0  0  0  0  0  0  0  0  0  0  0
   -0.0269    1.3992    4.3965 C   0  0  0  0  0  0  0  0  0  0  0  0
   -0.2228    2.1326    5.1734 H   0  0  0  0  0  0  0  0  0  0  0  0
   -0.0524    0.0281    4.5720 N   0  0  0  0  0  0  0  0  0  0  0  0
   -0.2301   -0.4498    5.4532 H   0  0  0  0  0  0  0  0  0  0  0  0
    0.2651   -0.5627    3.3676 C   0  0  0  0  0  0  0  0  0  0  0  0
    0.3693   -1.6194    3.1327 H   0  0  0  0  0  0  0  0  0  0  0  0
    0.2337    0.8617   -1.3373 C   0  0  0  0  0  0  0  0  0  0  0  0
    1.1627    1.6200   -1.5830 O   0  0  0  0  0  0  0  0  0  0  0  0
   -0.3994    0.2217   -2.3885 N   0  0  0  0  0  0  0  0  0  0  0  0
   -1.0517   -0.5120   -2.1279 H   0  0  0  0  0  0  0  0  0  0  0  0
    0.0846    0.2752   -3.7626 C   0  0  0  0  0  0  0  0  0  0  0  0
    1.0715   -0.1930   -3.8384 H   0  0  0  0  0  0  0  0  0  0  0  0
   -0.6042   -0.2547   -4.4275 H   0  0  0  0  0  0  0  0  0  0  0  0
    0.1599    1.3133   -4.1035 H   0  0  0  0  0  0  0  0  0  0  0  0
  1  2  1  0  0  0  0
  2  3  1  0  0  0  0
  2  4  1  0  0  0  0
  2  5  1  0  0  0  0
  5  6  2  0  0  0  0
  5  7  1  0  0  0  0
  7  8  1  0  0  0  0
  7  9  1  0  0  0  0
  9 10  1  0  0  0  0
  9 11  1  0  0  0  0
  9 22  1  0  0  0  0
 11 12  1  0  0  0  0
 11 13  1  0  0  0  0
 11 14  1  0  0  0  0
 14 15  1  0  0  0  0
 14 20  2  0  0  0  0
 15 16  2  0  0  0  0
 16 17  1  0  0  0  0
 16 18  1  0  0  0  0
 18 19  1  0  0  0  0
 18 20  1  0  0  0  0
 20 21  1  0  0  0  0
 22 23  2  0  0  0  0
 22 24  1  0  0  0  0
 24 25  1  0  0  0  0
 24 26  1  0  0  0  0
 26 27  1  0  0  0  0
 26 28  1  0  0  0  0
 26 29  1  0  0  0  0
M  END
$$$$

  -OEChem-01062216083D

 29 29  0     1  0  0  0  0  0999 V2000
   -2.7651   -3.1491    1.2571 H   0  0  0  0  0  0  0  0  0  0  0  0
   -2.8746   -2.1137    0.9218 C   0  0  0  0  0  0  0  0  0  0  0  0
   -3.3445   -1.5351    1.7208 H   0  0  0  0  0  0  0  0  0  0  0  0
   -3.5184   -2.0969    0.0391 H   0  0  0  0  0  0  0  0  0  0  0  0
   -1.5168   -1.5257    0.5865 C   0  0  0  0  0  0  0  0  0  0  0  0
   -0.5367   -2.2469    0.6337 O   0  0  0  0  0  0  0  0  0  0  0  0
   -1.4480   -0.2096    0.1661 N   0  0  0  0  0  0  0  0  0  0  0  0
   -2.3403    0.2747    0.2038 H   0  0  0  0  0  0  0  0  0  0  0  0
   -0.2571    0.6791    0.1128 C   0  0  1  0  0  0  0  0  0  0  0  0
   -0.6038    1.6730    0.4149 H   0  0  0  0  0  0  0  0  0  0  0  0
    0.8971    0.3325    1.0814 C   0  0  0  0  0  0  0  0  0  0  0  0
    1.2926   -0.6669    0.8894 H   0  0  0  0  0  0  0  0  0  0  0  0
    1.7263    1.0299    0.9290 H   0  0  0  0  0  0  0  0  0  0  0  0
    0.4557    0.4738    2.5072 C   0  0  0  0  0  0  0  0  0  0  0  0
    0.2757    1.6906    3.1535 N   0  0  0  0  0  0  0  0  0  0  0  0
   -0.0335    1.4073    4.3963 C   0  0  0  0  0  0  0  0  0  0  0  0
   -0.2318    2.1454    5.1683 H   0  0  0  0  0  0  0  0  0  0  0  0
   -0.0674    0.0369    4.5770 N   0  0  0  0  0  0  0  0  0  0  0  0
   -0.2543   -0.4371    5.4585 H   0  0  0  0  0  0  0  0  0  0  0  0
    0.2567   -0.5603    3.3776 C   0  0  0  0  0  0  0  0  0  0  0  0
    0.3578   -1.6182    3.1472 H   0  0  0  0  0  0  0  0  0  0  0  0
    0.2498    0.8604   -1.3398 C   0  0  0  0  0  0  0  0  0  0  0  0
    1.3185    1.4094   -1.5757 O   0  0  0  0  0  0  0  0  0  0  0  0
   -0.5539    0.4966   -2.4069 N   0  0  0  0  0  0  0  0  0  0  0  0
   -1.3567   -0.0816   -2.1807 H   0  0  0  0  0  0  0  0  0  0  0  0
   -0.1267    0.5918   -3.7976 C   0  0  0  0  0  0  0  0  0  0  0  0
    0.7396   -0.0536   -3.9771 H   0  0  0  0  0  0  0  0  0  0  0  0
   -0.9365    0.2801   -4.4641 H   0  0  0  0  0  0  0  0  0  0  0  0
    0.1446    1.6233   -4.0460 H   0  0  0  0  0  0  0  0  0  0  0  0
  1  2  1  0  0  0  0
  2  3  1  0  0  0  0
  2  4  1  0  0  0  0
  2  5  1  0  0  0  0
  5  6  2  0  0  0  0
  5  7  1  0  0  0  0
  7  8  1  0  0  0  0
  7  9  1  0  0  0  0
  9 10  1  0  0  0  0
  9 11  1  0  0  0  0
  9 22  1  0  0  0  0
 11 12  1  0  0  0  0
 11 13  1  0  0  0  0
 11 14  1  0  0  0  0
 14 15  1  0  0  0  0
 14 20  2  0  0  0  0
 15 16  2  0  0  0  0
 16 17  1  0  0  0  0
 16 18  1  0  0  0  0
 18 19  1  0  0  0  0
 18 20  1  0  0  0  0
 20 21  1  0  0  0  0
 22 23  2  0  0  0  0
 22 24  1  0  0  0  0
 24 25  1  0  0  0  0
 24 26  1  0  0  0  0
 26 27  1  0  0  0  0
 26 28  1  0  0  0  0
 26 29  1  0  0  0  0
M  END
$$$$

  -OEChem-01062216083D

 29 29  0     1  0  0  0  0  0999 V2000
   -2.7609   -3.1549    1.2170 H   0  0  0  0  0  0  0  0  0  0  0  0
   -2.8653   -2.1182    0.8840 C   0  0  0  0  0  0  0  0  0  0  0  0
   -3.3506   -1.5431    1.6762 H   0  0  0  0  0  0  0  0  0  0  0  0
   -3.4931   -2.0988   -0.0101 H   0  0  0  0  0  0  0  0  0  0  0  0
   -1.5017   -1.5282    0.5753 C   0  0  0  0  0  0  0  0  0  0  0  0
   -0.5223   -2.2480    0.6479 O   0  0  0  0  0  0  0  0  0  0  0  0
   -1.4296   -0.2093    0.1635 N   0  0  0  0  0  0  0  0  0  0  0  0
   -2.3215    0.2742    0.2073 H   0  0  0  0  0  0  0  0  0  0  0  0
   -0.2376    0.6769    0.1153 C   0  0  1  0  0  0  0  0  0  0  0  0
   -0.5834    1.6706    0.4180 H   0  0  0  0  0  0  0  0  0  0  0  0
    0.9128    0.3311    1.0890 C   0  0  0  0  0  0  0  0  0  0  0  0
    1.3088   -0.6688    0.8992 H   0  0  0  0  0  0  0  0  0  0  0  0
    1.7424    1.0288    0.9405 H   0  0  0  0  0  0  0  0  0  0  0  0
    0.4627    0.4753    2.5112 C   0  0  0  0  0  0  0  0  0  0  0  0
    0.2790    1.6938    3.1539 N   0  0  0  0  0  0  0  0  0  0  0  0
   -0.0400    1.4122    4.3946 C   0  0  0  0  0  0  0  0  0  0  0  0
   -0.2449    2.1510    5.1641 H   0  0  0  0  0  0  0  0  0  0  0  0
   -0.0747    0.0423    4.5776 N   0  0  0  0  0  0  0  0  0  0  0  0
   -0.2676   -0.4301    5.4587 H   0  0  0  0  0  0  0  0  0  0  0  0
    0.2581   -0.5571    3.3818 C   0  0  0  0  0  0  0  0  0  0  0  0
    0.3611   -1.6155    3.1535 H   0  0  0  0  0  0  0  0  0  0  0  0
    0.2613    0.8600   -1.3406 C   0  0  0  0  0  0  0  0  0  0  0  0
    1.4221    1.1574   -1.5928 O   0  0  0  0  0  0  0  0  0  0  0  0
   -0.6417    0.7999   -2.3888 N   0  0  0  0  0  0  0  0  0  0  0  0
   -1.5600    0.4286   -2.1706 H   0  0  0  0  0  0  0  0  0  0  0  0
   -0.2516    0.9295   -3.7878 C   0  0  0  0  0  0  0  0  0  0  0  0
    0.4467    0.1331   -4.0657 H   0  0  0  0  0  0  0  0  0  0  0  0
   -1.1322    0.8611   -4.4336 H   0  0  0  0  0  0  0  0  0  0  0  0
    0.2293    1.8974   -3.9638 H   0  0  0  0  0  0  0  0  0  0  0  0
  1  2  1  0  0  0  0
  2  3  1  0  0  0  0
  2  4  1  0  0  0  0
  2  5  1  0  0  0  0
  5  6  2  0  0  0  0
  5  7  1  0  0  0  0
  7  8  1  0  0  0  0
  7  9  1  0  0  0  0
  9 10  1  0  0  0  0
  9 11  1  0  0  0  0
  9 22  1  0  0  0  0
 11 12  1  0  0  0  0
 11 13  1  0  0  0  0
 11 14  1  0  0  0  0
 14 15  1  0  0  0  0
 14 20  2  0  0  0  0
 15 16  2  0  0  0  0
 16 17  1  0  0  0  0
 16 18  1  0  0  0  0
 18 19  1  0  0  0  0
 18 20  1  0  0  0  0
 20 21  1  0  0  0  0
 22 23  2  0  0  0  0
 22 24  1  0  0  0  0
 24 25  1  0  0  0  0
 24 26  1  0  0  0  0
 26 27  1  0  0  0  0
 26 28  1  0  0  0  0
 26 29  1  0  0  0  0
M  END
$$$$

  -OEChem-01062216083D

 29 29  0     1  0  0  0  0  0999 V2000
   -2.7742   -3.1734    1.1498 H   0  0  0  0  0  0  0  0  0  0  0  0
   -2.8689   -2.1330    0.8257 C   0  0  0  0  0  0  0  0  0  0  0  0
   -3.3844   -1.5683    1.6063 H   0  0  0  0  0  0  0  0  0  0  0  0
   -3.4631   -2.1040   -0.0909 H   0  0  0  0  0  0  0  0  0  0  0  0
   -1.4966   -1.5362    0.5744 C   0  0  0  0  0  0  0  0  0  0  0  0
   -0.5182   -2.2500    0.7014 O   0  0  0  0  0  0  0  0  0  0  0  0
   -1.4174   -0.2162    0.1661 N   0  0  0  0  0  0  0  0  0  0  0  0
   -2.3133    0.2604    0.1677 H   0  0  0  0  0  0  0  0  0  0  0  0
   -0.2251    0.6680    0.1195 C   0  0  1  0  0  0  0  0  0  0  0  0
   -0.5707    1.6618    0.4225 H   0  0  0  0  0  0  0  0  0  0  0  0
    0.9244    0.3290    1.0957 C   0  0  0  0  0  0  0  0  0  0  0  0
    1.3210   -0.6716    0.9111 H   0  0  0  0  0  0  0  0  0  0  0  0
    1.7532    1.0263    0.9408 H   0  0  0  0  0  0  0  0  0  0  0  0
    0.4733    0.4797    2.5171 C   0  0  0  0  0  0  0  0  0  0  0  0
    0.2882    1.7030    3.1515 N   0  0  0  0  0  0  0  0  0  0  0  0
   -0.0317    1.4291    4.3939 C   0  0  0  0  0  0  0  0  0  0  0  0
   -0.2385    2.1725    5.1585 H   0  0  0  0  0  0  0  0  0  0  0  0
   -0.0651    0.0605    4.5860 N   0  0  0  0  0  0  0  0  0  0  0  0
   -0.2587   -0.4065    5.4698 H   0  0  0  0  0  0  0  0  0  0  0  0
    0.2684   -0.5467    3.3944 C   0  0  0  0  0  0  0  0  0  0  0  0
    0.3706   -1.6065    3.1730 H   0  0  0  0  0  0  0  0  0  0  0  0
    0.2674    0.8490   -1.3382 C   0  0  0  0  0  0  0  0  0  0  0  0
    1.4574    0.8613   -1.6273 O   0  0  0  0  0  0  0  0  0  0  0  0
   -0.6526    1.1017   -2.3421 N   0  0  0  0  0  0  0  0  0  0  0  0
   -1.6334    1.0156   -2.1012 H   0  0  0  0  0  0  0  0  0  0  0  0
   -0.2842    1.2795   -3.7416 C   0  0  0  0  0  0  0  0  0  0  0  0
    0.2060    0.3787   -4.1258 H   0  0  0  0  0  0  0  0  0  0  0  0
   -1.1755    1.4744   -4.3457 H   0  0  0  0  0  0  0  0  0  0  0  0
    0.3993    2.1279   -3.8533 H   0  0  0  0  0  0  0  0  0  0  0  0
  1  2  1  0  0  0  0
  2  3  1  0  0  0  0
  2  4  1  0  0  0  0
  2  5  1  0  0  0  0
  5  6  2  0  0  0  0
  5  7  1  0  0  0  0
  7  8  1  0  0  0  0
  7  9  1  0  0  0  0
  9 10  1  0  0  0  0
  9 11  1  0  0  0  0
  9 22  1  0  0  0  0
 11 12  1  0  0  0  0
 11 13  1  0  0  0  0
 11 14  1  0  0  0  0
 14 15  1  0  0  0  0
 14 20  2  0  0  0  0
 15 16  2  0  0  0  0
 16 17  1  0  0  0  0
 16 18  1  0  0  0  0
 18 19  1  0  0  0  0
 18 20  1  0  0  0  0
 20 21  1  0  0  0  0
 22 23  2  0  0  0  0
 22 24  1  0  0  0  0
 24 25  1  0  0  0  0
 24 26  1  0  0  0  0
 26 27  1  0  0  0  0
 26 28  1  0  0  0  0
 26 29  1  0  0  0  0
M  END
$$$$

  -OEChem-01062216083D

 29 29  0     1  0  0  0  0  0999 V2000
   -2.8174   -3.1964    1.0891 H   0  0  0  0  0  0  0  0  0  0  0  0
   -2.8976   -2.1603    0.7474 C   0  0  0  0  0  0  0  0  0  0  0  0
   -3.4797   -1.5943    1.4788 H   0  0  0  0  0  0  0  0  0  0  0  0
   -3.4172   -2.1472   -0.2138 H   0  0  0  0  0  0  0  0  0  0  0  0
   -1.5164   -1.5498    0.5983 C   0  0  0  0  0  0  0  0  0  0  0  0
   -0.5453   -2.2500    0.8209 O   0  0  0  0  0  0  0  0  0  0  0  0
   -1.4231   -0.2322    0.1845 N   0  0  0  0  0  0  0  0  0  0  0  0
   -2.3206    0.2257    0.0685 H   0  0  0  0  0  0  0  0  0  0  0  0
   -0.2296    0.6486    0.1273 C   0  0  1  0  0  0  0  0  0  0  0  0
   -0.5723    1.6434    0.4297 H   0  0  0  0  0  0  0  0  0  0  0  0
    0.9293    0.3219    1.0951 C   0  0  0  0  0  0  0  0  0  0  0  0
    1.3209   -0.6824    0.9169 H   0  0  0  0  0  0  0  0  0  0  0  0
    1.7565    1.0165    0.9198 H   0  0  0  0  0  0  0  0  0  0  0  0
    0.4927    0.4848    2.5196 C   0  0  0  0  0  0  0  0  0  0  0  0
    0.3133    1.7175    3.1375 N   0  0  0  0  0  0  0  0  0  0  0  0
    0.0052    1.4611    4.3866 C   0  0  0  0  0  0  0  0  0  0  0  0
   -0.1958    2.2158    5.1415 H   0  0  0  0  0  0  0  0  0  0  0  0
   -0.0237    0.0956    4.5998 N   0  0  0  0  0  0  0  0  0  0  0  0
   -0.2137   -0.3590    5.4907 H   0  0  0  0  0  0  0  0  0  0  0  0
    0.2993   -0.5287    3.4144 C   0  0  0  0  0  0  0  0  0  0  0  0
    0.3986   -1.5917    3.2067 H   0  0  0  0  0  0  0  0  0  0  0  0
    0.2543    0.8193   -1.3329 C   0  0  0  0  0  0  0  0  0  0  0  0
    1.3947    0.5389   -1.6797 O   0  0  0  0  0  0  0  0  0  0  0  0
   -0.6017    1.3701   -2.2725 N   0  0  0  0  0  0  0  0  0  0  0  0
   -1.5293    1.6386   -1.9635 H   0  0  0  0  0  0  0  0  0  0  0  0
   -0.2172    1.6268   -3.6555 C   0  0  0  0  0  0  0  0  0  0  0  0
    0.1113    0.7017   -4.1408 H   0  0  0  0  0  0  0  0  0  0  0  0
   -1.0671    2.0272   -4.2163 H   0  0  0  0  0  0  0  0  0  0  0  0
    0.5992    2.3553   -3.6964 H   0  0  0  0  0  0  0  0  0  0  0  0
  1  2  1  0  0  0  0
  2  3  1  0  0  0  0
  2  4  1  0  0  0  0
  2  5  1  0  0  0  0
  5  6  2  0  0  0  0
  5  7  1  0  0  0  0
  7  8  1  0  0  0  0
  7  9  1  0  0  0  0
  9 10  1  0  0  0  0
  9 11  1  0  0  0  0
  9 22  1  0  0  0  0
 11 12  1  0  0  0  0
 11 13  1  0  0  0  0
 11 14  1  0  0  0  0
 14 15  1  0  0  0  0
 14 20  2  0  0  0  0
 15 16  2  0  0  0  0
 16 17  1  0  0  0  0
 16 18  1  0  0  0  0
 18 19  1  0  0  0  0
 18 20  1  0  0  0  0
 20 21  1  0  0  0  0
 22 23  2  0  0  0  0
 22 24  1  0  0  0  0
 24 25  1  0  0  0  0
 24 26  1  0  0  0  0
 26 27  1  0  0  0  0
 26 28  1  0  0  0  0
 26 29  1  0  0  0  0
M  END
$$$$

  -OEChem-01062216083D

 29 29  0     1  0  0  0  0  0999 V2000
   -2.8441   -3.2141    1.0162 H   0  0  0  0  0  0  0  0  0  0  0  0
   -2.9158   -2.1777    0.6738 C   0  0  0  0  0  0  0  0  0  0  0  0
   -3.5508   -1.6222    1.3680 H   0  0  0  0  0  0  0  0  0  0  0  0
   -3.3730   -2.1678   -0.3184 H   0  0  0  0  0  0  0  0  0  0  0  0
   -1.5362   -1.5487    0.6157 C   0  0  0  0  0  0  0  0  0  0  0  0
   -0.5753   -2.2336    0.9170 O   0  0  0  0  0  0  0  0  0  0  0  0
   -1.4351   -0.2317    0.2015 N   0  0  0  0  0  0  0  0  0  0  0  0
   -2.3235    0.2004   -0.0281 H   0  0  0  0  0  0  0  0  0  0  0  0
   -0.2414    0.6466    0.1376 C   0  0  1  0  0  0  0  0  0  0  0  0
   -0.5830    1.6398    0.4462 H   0  0  0  0  0  0  0  0  0  0  0  0
    0.9284    0.3265    1.0925 C   0  0  0  0  0  0  0  0  0  0  0  0
    1.3156   -0.6797    0.9139 H   0  0  0  0  0  0  0  0  0  0  0  0
    1.7538    1.0185    0.9006 H   0  0  0  0  0  0  0  0  0  0  0  0
    0.5089    0.4919    2.5225 C   0  0  0  0  0  0  0  0  0  0  0  0
    0.3359    1.7301    3.1323 N   0  0  0  0  0  0  0  0  0  0  0  0
    0.0410    1.4835    4.3868 C   0  0  0  0  0  0  0  0  0  0  0  0
   -0.1527    2.2434    5.1386 H   0  0  0  0  0  0  0  0  0  0  0  0
    0.0156    0.1200    4.6118 N   0  0  0  0  0  0  0  0  0  0  0  0
   -0.1699   -0.3277    5.5072 H   0  0  0  0  0  0  0  0  0  0  0  0
    0.3274   -0.5137    3.4283 C   0  0  0  0  0  0  0  0  0  0  0  0
    0.4243   -1.5785    3.2285 H   0  0  0  0  0  0  0  0  0  0  0  0
    0.2349    0.8157   -1.3231 C   0  0  0  0  0  0  0  0  0  0  0  0
    1.2468    0.2706   -1.7443 O   0  0  0  0  0  0  0  0  0  0  0  0
   -0.4814    1.6369   -2.1782 N   0  0  0  0  0  0  0  0  0  0  0  0
   -1.2641    2.1516   -1.7881 H   0  0  0  0  0  0  0  0  0  0  0  0
   -0.0694    1.9170   -3.5487 C   0  0  0  0  0  0  0  0  0  0  0  0
    0.0326    0.9864   -4.1172 H   0  0  0  0  0  0  0  0  0  0  0  0
   -0.8147    2.5442   -4.0470 H   0  0  0  0  0  0  0  0  0  0  0  0
    0.8906    2.4437   -3.5597 H   0  0  0  0  0  0  0  0  0  0  0  0
  1  2  1  0  0  0  0
  2  3  1  0  0  0  0
  2  4  1  0  0  0  0
  2  5  1  0  0  0  0
  5  6  2  0  0  0  0
  5  7  1  0  0  0  0
  7  8  1  0  0  0  0
  7  9  1  0  0  0  0
  9 10  1  0  0  0  0
  9 11  1  0  0  0  0
  9 22  1  0  0  0  0
 11 12  1  0  0  0  0
 11 13  1  0  0  0  0
 11 14  1  0  0  0  0
 14 15  1  0  0  0  0
 14 20  2  0  0  0  0
 15 16  2  0  0  0  0
 16 17  1  0  0  0  0
 16 18  1  0  0  0  0
 18 19  1  0  0  0  0
 18 20  1  0  0  0  0
 20 21  1  0  0  0  0
 22 23  2  0  0  0  0
 22 24  1  0  0  0  0
 24 25  1  0  0  0  0
 24 26  1  0  0  0  0
 26 27  1  0  0  0  0
 26 28  1  0  0  0  0
 26 29  1  0  0  0  0
M  END
$$$$

  -OEChem-01062216083D

 29 29  0     1  0  0  0  0  0999 V2000
   -2.8613   -3.2319    0.9410 H   0  0  0  0  0  0  0  0  0  0  0  0
   -2.9312   -2.1932    0.6054 C   0  0  0  0  0  0  0  0  0  0  0  0
   -3.6110   -1.6546    1.2699 H   0  0  0  0  0  0  0  0  0  0  0  0
   -3.3348   -2.1797   -0.4100 H   0  0  0  0  0  0  0  0  0  0  0  0
   -1.5604   -1.5426    0.6277 C   0  0  0  0  0  0  0  0  0  0  0  0
   -0.6104   -2.2107    0.9950 O   0  0  0  0  0  0  0  0  0  0  0  0
   -1.4568   -0.2254    0.2145 N   0  0  0  0  0  0  0  0  0  0  0  0
   -2.3317    0.1844   -0.0952 H   0  0  0  0  0  0  0  0  0  0  0  0
   -0.2622    0.6501    0.1484 C   0  0  1  0  0  0  0  0  0  0  0  0
   -0.6057    1.6402    0.4643 H   0  0  0  0  0  0  0  0  0  0  0  0
    0.9183    0.3359    1.0900 C   0  0  0  0  0  0  0  0  0  0  0  0
    1.3032   -0.6707    0.9072 H   0  0  0  0  0  0  0  0  0  0  0  0
    1.7400    1.0286    0.8865 H   0  0  0  0  0  0  0  0  0  0  0  0
    0.5176    0.4996    2.5261 C   0  0  0  0  0  0  0  0  0  0  0  0
    0.3502    1.7414    3.1307 N   0  0  0  0  0  0  0  0  0  0  0  0
    0.0775    1.5021    4.3917 C   0  0  0  0  0  0  0  0  0  0  0  0
   -0.1076    2.2667    5.1408 H   0  0  0  0  0  0  0  0  0  0  0  0
    0.0641    0.1403    4.6267 N   0  0  0  0  0  0  0  0  0  0  0  0
   -0.1035   -0.3024    5.5280 H   0  0  0  0  0  0  0  0  0  0  0  0
    0.3588   -0.5001    3.4427 C   0  0  0  0  0  0  0  0  0  0  0  0
    0.4579   -1.5658    3.2497 H   0  0  0  0  0  0  0  0  0  0  0  0
    0.2151    0.8236   -1.3096 C   0  0  0  0  0  0  0  0  0  0  0  0
    1.0285    0.0621   -1.8156 O   0  0  0  0  0  0  0  0  0  0  0  0
   -0.2878    1.8650   -2.0712 N   0  0  0  0  0  0  0  0  0  0  0  0
   -0.8905    2.5368   -1.6059 H   0  0  0  0  0  0  0  0  0  0  0  0
    0.1570    2.1462   -3.4310 C   0  0  0  0  0  0  0  0  0  0  0  0
   -0.0014    1.2748   -4.0751 H   0  0  0  0  0  0  0  0  0  0  0  0
   -0.4058    2.9877   -3.8461 H   0  0  0  0  0  0  0  0  0  0  0  0
    1.2217    2.4019   -3.4402 H   0  0  0  0  0  0  0  0  0  0  0  0
  1  2  1  0  0  0  0
  2  3  1  0  0  0  0
  2  4  1  0  0  0  0
  2  5  1  0  0  0  0
  5  6  2  0  0  0  0
  5  7  1  0  0  0  0
  7  8  1  0  0  0  0
  7  9  1  0  0  0  0
  9 10  1  0  0  0  0
  9 11  1  0  0  0  0
  9 22  1  0  0  0  0
 11 12  1  0  0  0  0
 11 13  1  0  0  0  0
 11 14  1  0  0  0  0
 14 15  1  0  0  0  0
 14 20  2  0  0  0  0
 15 16  2  0  0  0  0
 16 17  1  0  0  0  0
 16 18  1  0  0  0  0
 18 19  1  0  0  0  0
 18 20  1  0  0  0  0
 20 21  1  0  0  0  0
 22 23  2  0  0  0  0
 22 24  1  0  0  0  0
 24 25  1  0  0  0  0
 24 26  1  0  0  0  0
 26 27  1  0  0  0  0
 26 28  1  0  0  0  0
 26 29  1  0  0  0  0
M  END
$$$$

  -OEChem-01062216083D

 29 29  0     1  0  0  0  0  0999 V2000
   -2.8684   -3.2338    0.8892 H   0  0  0  0  0  0  0  0  0  0  0  0
   -2.9354   -2.1951    0.5528 C   0  0  0  0  0  0  0  0  0  0  0  0
   -3.6491   -1.6651    1.1881 H   0  0  0  0  0  0  0  0  0  0  0  0
   -3.2946   -2.1833   -0.4790 H   0  0  0  0  0  0  0  0  0  0  0  0
   -1.5741   -1.5295    0.6342 C   0  0  0  0  0  0  0  0  0  0  0  0
   -0.6340   -2.1859    1.0466 O   0  0  0  0  0  0  0  0  0  0  0  0
   -1.4681   -0.2118    0.2234 N   0  0  0  0  0  0  0  0  0  0  0  0
   -2.3272    0.1786   -0.1490 H   0  0  0  0  0  0  0  0  0  0  0  0
   -0.2720    0.6611    0.1607 C   0  0  1  0  0  0  0  0  0  0  0  0
   -0.6200    1.6482    0.4814 H   0  0  0  0  0  0  0  0  0  0  0  0
    0.9138    0.3481    1.0945 C   0  0  0  0  0  0  0  0  0  0  0  0
    1.2965   -0.6585    0.9065 H   0  0  0  0  0  0  0  0  0  0  0  0
    1.7337    1.0420    0.8877 H   0  0  0  0  0  0  0  0  0  0  0  0
    0.5247    0.5066    2.5345 C   0  0  0  0  0  0  0  0  0  0  0  0
    0.3602    1.7483    3.1404 N   0  0  0  0  0  0  0  0  0  0  0  0
    0.1001    1.5080    4.4041 C   0  0  0  0  0  0  0  0  0  0  0  0
   -0.0820    2.2716    5.1548 H   0  0  0  0  0  0  0  0  0  0  0  0
    0.0959    0.1464    4.6401 N   0  0  0  0  0  0  0  0  0  0  0  0
   -0.0647   -0.2971    5.5424 H   0  0  0  0  0  0  0  0  0  0  0  0
    0.3807   -0.4931    3.4533 C   0  0  0  0  0  0  0  0  0  0  0  0
    0.4805   -1.5584    3.2599 H   0  0  0  0  0  0  0  0  0  0  0  0
    0.2123    0.8397   -1.2936 C   0  0  0  0  0  0  0  0  0  0  0  0
    0.7616   -0.0721   -1.8968 O   0  0  0  0  0  0  0  0  0  0  0  0
   -0.0245    2.0326   -1.9553 N   0  0  0  0  0  0  0  0  0  0  0  0
   -0.4155    2.7984   -1.4145 H   0  0  0  0  0  0  0  0  0  0  0  0
    0.4264    2.2941   -3.3172 C   0  0  0  0  0  0  0  0  0  0  0  0
    0.0239    1.5439   -4.0061 H   0  0  0  0  0  0  0  0  0  0  0  0
    0.0849    3.2804   -3.6456 H   0  0  0  0  0  0  0  0  0  0  0  0
    1.5199    2.2700   -3.3696 H   0  0  0  0  0  0  0  0  0  0  0  0
  1  2  1  0  0  0  0
  2  3  1  0  0  0  0
  2  4  1  0  0  0  0
  2  5  1  0  0  0  0
  5  6  2  0  0  0  0
  5  7  1  0  0  0  0
  7  8  1  0  0  0  0
  7  9  1  0  0  0  0
  9 10  1  0  0  0  0
  9 11  1  0  0  0  0
  9 22  1  0  0  0  0
 11 12  1  0  0  0  0
 11 13  1  0  0  0  0
 11 14  1  0  0  0  0
 14 15  1  0  0  0  0
 14 20  2  0  0  0  0
 15 16  2  0  0  0  0
 16 17  1  0  0  0  0
 16 18  1  0  0  0  0
 18 19  1  0  0  0  0
 18 20  1  0  0  0  0
 20 21  1  0  0  0  0
 22 23  2  0  0  0  0
 22 24  1  0  0  0  0
 24 25  1  0  0  0  0
 24 26  1  0  0  0  0
 26 27  1  0  0  0  0
 26 28  1  0  0  0  0
 26 29  1  0  0  0  0
M  END
$$$$

  -OEChem-01062216083D

 29 29  0     1  0  0  0  0  0999 V2000
   -2.8746   -3.2405    0.8446 H   0  0  0  0  0  0  0  0  0  0  0  0
   -2.9344   -2.2045    0.4994 C   0  0  0  0  0  0  0  0  0  0  0  0
   -3.6825   -1.6774    1.0963 H   0  0  0  0  0  0  0  0  0  0  0  0
   -3.2438   -2.2022   -0.5485 H   0  0  0  0  0  0  0  0  0  0  0  0
   -1.5845   -1.5254    0.6414 C   0  0  0  0  0  0  0  0  0  0  0  0
   -0.6569   -2.1726    1.0959 O   0  0  0  0  0  0  0  0  0  0  0  0
   -1.4735   -0.2067    0.2354 N   0  0  0  0  0  0  0  0  0  0  0  0
   -2.3100    0.1633   -0.2038 H   0  0  0  0  0  0  0  0  0  0  0  0
   -0.2692    0.6548    0.1707 C   0  0  1  0  0  0  0  0  0  0  0  0
   -0.6167    1.6413    0.4937 H   0  0  0  0  0  0  0  0  0  0  0  0
    0.9183    0.3407    1.1010 C   0  0  0  0  0  0  0  0  0  0  0  0
    1.2934   -0.6693    0.9163 H   0  0  0  0  0  0  0  0  0  0  0  0
    1.7418    1.0284    0.8890 H   0  0  0  0  0  0  0  0  0  0  0  0
    0.5362    0.5088    2.5418 C   0  0  0  0  0  0  0  0  0  0  0  0
    0.3824    1.7574    3.1363 N   0  0  0  0  0  0  0  0  0  0  0  0
    0.1244    1.5308    4.4030 C   0  0  0  0  0  0  0  0  0  0  0  0
   -0.0514    2.3026    5.1467 H   0  0  0  0  0  0  0  0  0  0  0  0
    0.1149    0.1718    4.6523 N   0  0  0  0  0  0  0  0  0  0  0  0
   -0.0447   -0.2622    5.5592 H   0  0  0  0  0  0  0  0  0  0  0  0
    0.3917   -0.4810    3.4710 C   0  0  0  0  0  0  0  0  0  0  0  0
    0.4843   -1.5490    3.2877 H   0  0  0  0  0  0  0  0  0  0  0  0
    0.2186    0.8430   -1.2806 C   0  0  0  0  0  0  0  0  0  0  0  0
    0.4469   -0.1196   -2.0009 O   0  0  0  0  0  0  0  0  0  0  0  0
    0.2815    2.1142   -1.8244 N   0  0  0  0  0  0  0  0  0  0  0  0
    0.1336    2.8998   -1.1970 H   0  0  0  0  0  0  0  0  0  0  0  0
    0.7155    2.3784   -3.1910 C   0  0  0  0  0  0  0  0  0  0  0  0
    0.0736    1.8525   -3.9056 H   0  0  0  0  0  0  0  0  0  0  0  0
    0.6616    3.4502   -3.4038 H   0  0  0  0  0  0  0  0  0  0  0  0
    1.7494    2.0475   -3.3354 H   0  0  0  0  0  0  0  0  0  0  0  0
  1  2  1  0  0  0  0
  2  3  1  0  0  0  0
  2  4  1  0  0  0  0
  2  5  1  0  0  0  0
  5  6  2  0  0  0  0
  5  7  1  0  0  0  0
  7  8  1  0  0  0  0
  7  9  1  0  0  0  0
  9 10  1  0  0  0  0
  9 11  1  0  0  0  0
  9 22  1  0  0  0  0
 11 12  1  0  0  0  0
 11 13  1  0  0  0  0
 11 14  1  0  0  0  0
 14 15  1  0  0  0  0
 14 20  2  0  0  0  0
 15 16  2  0  0  0  0
 16 17  1  0  0  0  0
 16 18  1  0  0  0  0
 18 19  1  0  0  0  0
 18 20  1  0  0  0  0
 20 21  1  0  0  0  0
 22 23  2  0  0  0  0
 22 24  1  0  0  0  0
 24 25  1  0  0  0  0
 24 26  1  0  0  0  0
 26 27  1  0  0  0  0
 26 28  1  0  0  0  0
 26 29  1  0  0  0  0
M  END
$$$$

  -OEChem-01062216083D

 29 29  0     1  0  0  0  0  0999 V2000
   -2.8811   -3.2409    0.8221 H   0  0  0  0  0  0  0  0  0  0  0  0
   -2.9345   -2.2048    0.4761 C   0  0  0  0  0  0  0  0  0  0  0  0
   -3.6980   -1.6797    1.0550 H   0  0  0  0  0  0  0  0  0  0  0  0
   -3.2178   -2.2022   -0.5794 H   0  0  0  0  0  0  0  0  0  0  0  0
   -1.5900   -1.5229    0.6507 C   0  0  0  0  0  0  0  0  0  0  0  0
   -0.6700   -2.1684    1.1238 O   0  0  0  0  0  0  0  0  0  0  0  0
   -1.4725   -0.2050    0.2453 N   0  0  0  0  0  0  0  0  0  0  0  0
   -2.2900    0.1496   -0.2406 H   0  0  0  0  0  0  0  0  0  0  0  0
   -0.2619    0.6471    0.1751 C   0  0  1  0  0  0  0  0  0  0  0  0
   -0.6063    1.6361    0.4944 H   0  0  0  0  0  0  0  0  0  0  0  0
    0.9250    0.3290    1.1057 C   0  0  0  0  0  0  0  0  0  0  0  0
    1.2920   -0.6848    0.9259 H   0  0  0  0  0  0  0  0  0  0  0  0
    1.7536    1.0095    0.8902 H   0  0  0  0  0  0  0  0  0  0  0  0
    0.5476    0.5070    2.5466 C   0  0  0  0  0  0  0  0  0  0  0  0
    0.4056    1.7611    3.1321 N   0  0  0  0  0  0  0  0  0  0  0  0
    0.1447    1.5455    4.4002 C   0  0  0  0  0  0  0  0  0  0  0  0
   -0.0244    2.3242    5.1385 H   0  0  0  0  0  0  0  0  0  0  0  0
    0.1223    0.1881    4.6589 N   0  0  0  0  0  0  0  0  0  0  0  0
   -0.0488   -0.2382    5.5675 H   0  0  0  0  0  0  0  0  0  0  0  0
    0.3941   -0.4755    3.4823 C   0  0  0  0  0  0  0  0  0  0  0  0
    0.4752   -1.5456    3.3060 H   0  0  0  0  0  0  0  0  0  0  0  0
    0.2270    0.8383   -1.2761 C   0  0  0  0  0  0  0  0  0  0  0  0
    0.1566   -0.0707   -2.0935 O   0  0  0  0  0  0  0  0  0  0  0  0
    0.5957    2.0993   -1.7111 N   0  0  0  0  0  0  0  0  0  0  0  0
    0.6619    2.8348   -1.0126 H   0  0  0  0  0  0  0  0  0  0  0  0
    1.0252    2.3833   -3.0750 C   0  0  0  0  0  0  0  0  0  0  0  0
    0.2372    2.1198   -3.7883 H   0  0  0  0  0  0  0  0  0  0  0  0
    1.2490    3.4485   -3.1871 H   0  0  0  0  0  0  0  0  0  0  0  0
    1.9269    1.8119   -3.3189 H   0  0  0  0  0  0  0  0  0  0  0  0
  1  2  1  0  0  0  0
  2  3  1  0  0  0  0
  2  4  1  0  0  0  0
  2  5  1  0  0  0  0
  5  6  2  0  0  0  0
  5  7  1  0  0  0  0
  7  8  1  0  0  0  0
  7  9  1  0  0  0  0
  9 10  1  0  0  0  0
  9 11  1  0  0  0  0
  9 22  1  0  0  0  0
 11 12  1  0  0  0  0
 11 13  1  0  0  0  0
 11 14  1  0  0  0  0
 14 15  1  0  0  0  0
 14 20  2  0  0  0  0
 15 16  2  0  0  0  0
 16 17  1  0  0  0  0
 16 18  1  0  0  0  0
 18 19  1  0  0  0  0
 18 20  1  0  0  0  0
 20 21  1  0  0  0  0
 22 23  2  0  0  0  0
 22 24  1  0  0  0  0
 24 25  1  0  0  0  0
 24 26  1  0  0  0  0
 26 27  1  0  0  0  0
 26 28  1  0  0  0  0
 26 29  1  0  0  0  0
M  END
$$$$

  -OEChem-01062216083D

 29 29  0     1  0  0  0  0  0999 V2000
   -2.8852   -3.2326    0.8291 H   0  0  0  0  0  0  0  0  0  0  0  0
   -2.9312   -2.2003    0.4712 C   0  0  0  0  0  0  0  0  0  0  0  0
   -3.7003   -1.6666    1.0344 H   0  0  0  0  0  0  0  0  0  0  0  0
   -3.2014   -2.2081   -0.5877 H   0  0  0  0  0  0  0  0  0  0  0  0
   -1.5872   -1.5204    0.6558 C   0  0  0  0  0  0  0  0  0  0  0  0
   -0.6684   -2.1707    1.1251 O   0  0  0  0  0  0  0  0  0  0  0  0
   -1.4637   -0.2023    0.2542 N   0  0  0  0  0  0  0  0  0  0  0  0
   -2.2684    0.1463   -0.2575 H   0  0  0  0  0  0  0  0  0  0  0  0
   -0.2482    0.6428    0.1802 C   0  0  1  0  0  0  0  0  0  0  0  0
   -0.5854    1.6348    0.4981 H   0  0  0  0  0  0  0  0  0  0  0  0
    0.9362    0.3155    1.1129 C   0  0  0  0  0  0  0  0  0  0  0  0
    1.2954   -0.7013    0.9358 H   0  0  0  0  0  0  0  0  0  0  0  0
    1.7719    0.9878    0.9004 H   0  0  0  0  0  0  0  0  0  0  0  0
    0.5568    0.4991    2.5526 C   0  0  0  0  0  0  0  0  0  0  0  0
    0.4247    1.7566    3.1331 N   0  0  0  0  0  0  0  0  0  0  0  0
    0.1522    1.5480    4.3999 C   0  0  0  0  0  0  0  0  0  0  0  0
   -0.0144    2.3307    5.1343 H   0  0  0  0  0  0  0  0  0  0  0  0
    0.1138    0.1919    4.6629 N   0  0  0  0  0  0  0  0  0  0  0  0
   -0.0700   -0.2291    5.5714 H   0  0  0  0  0  0  0  0  0  0  0  0
    0.3860   -0.4787    3.4903 C   0  0  0  0  0  0  0  0  0  0  0  0
    0.4540   -1.5503    3.3182 H   0  0  0  0  0  0  0  0  0  0  0  0
    0.2362    0.8372   -1.2731 C   0  0  0  0  0  0  0  0  0  0  0  0
   -0.0929    0.0588   -2.1605 O   0  0  0  0  0  0  0  0  0  0  0  0
    0.8979    2.0015   -1.6222 N   0  0  0  0  0  0  0  0  0  0  0  0
    1.1469    2.6423   -0.8731 H   0  0  0  0  0  0  0  0  0  0  0  0
    1.3285    2.3037   -2.9819 C   0  0  0  0  0  0  0  0  0  0  0  0
    0.4678    2.3390   -3.6580 H   0  0  0  0  0  0  0  0  0  0  0  0
    1.8308    3.2753   -3.0124 H   0  0  0  0  0  0  0  0  0  0  0  0
    2.0278    1.5409   -3.3404 H   0  0  0  0  0  0  0  0  0  0  0  0
  1  2  1  0  0  0  0
  2  3  1  0  0  0  0
  2  4  1  0  0  0  0
  2  5  1  0  0  0  0
  5  6  2  0  0  0  0
  5  7  1  0  0  0  0
  7  8  1  0  0  0  0
  7  9  1  0  0  0  0
  9 10  1  0  0  0  0
  9 11  1  0  0  0  0
  9 22  1  0  0  0  0
 11 12  1  0  0  0  0
 11 13  1  0  0  0  0
 11 14  1  0  0  0  0
 14 15  1  0  0  0  0
 14 20  2  0  0  0  0
 15 16  2  0  0  0  0
 16 17  1  0  0  0  0
 16 18  1  0  0  0  0
 18 19  1  0  0  0  0
 18 20  1  0  0  0  0
 20 21  1  0  0  0  0
 22 23  2  0  0  0  0
 22 24  1  0  0  0  0
 24 25  1  0  0  0  0
 24 26  1  0  0  0  0
 26 27  1  0  0  0  0
 26 28  1  0  0  0  0
 26 29  1  0  0  0  0
M  END
$$$$

  -OEChem-01062216083D

 29 29  0     1  0  0  0  0  0999 V2000
   -2.8867   -3.2180    0.8274 H   0  0  0  0  0  0  0  0  0  0  0  0
   -2.9270   -2.1837    0.4744 C   0  0  0  0  0  0  0  0  0  0  0  0
   -3.6919   -1.6476    1.0413 H   0  0  0  0  0  0  0  0  0  0  0  0
   -3.1988   -2.1845   -0.5842 H   0  0  0  0  0  0  0  0  0  0  0  0
   -1.5789   -1.5123    0.6601 C   0  0  0  0  0  0  0  0  0  0  0  0
   -0.6616   -2.1706    1.1213 O   0  0  0  0  0  0  0  0  0  0  0  0
   -1.4479   -0.1951    0.2590 N   0  0  0  0  0  0  0  0  0  0  0  0
   -2.2434    0.1501   -0.2699 H   0  0  0  0  0  0  0  0  0  0  0  0
   -0.2327    0.6509    0.1886 C   0  0  1  0  0  0  0  0  0  0  0  0
   -0.5645    1.6458    0.5031 H   0  0  0  0  0  0  0  0  0  0  0  0
    0.9450    0.3124    1.1290 C   0  0  0  0  0  0  0  0  0  0  0  0
    1.3014   -0.7047    0.9487 H   0  0  0  0  0  0  0  0  0  0  0  0
    1.7866    0.9813    0.9315 H   0  0  0  0  0  0  0  0  0  0  0  0
    0.5566    0.4905    2.5670 C   0  0  0  0  0  0  0  0  0  0  0  0
    0.4267    1.7449    3.1536 N   0  0  0  0  0  0  0  0  0  0  0  0
    0.1437    1.5312    4.4171 C   0  0  0  0  0  0  0  0  0  0  0  0
   -0.0249    2.3106    5.1546 H   0  0  0  0  0  0  0  0  0  0  0  0
    0.0986    0.1738    4.6726 N   0  0  0  0  0  0  0  0  0  0  0  0
   -0.0926   -0.2518    5.5774 H   0  0  0  0  0  0  0  0  0  0  0  0
    0.3768   -0.4915    3.4985 C   0  0  0  0  0  0  0  0  0  0  0  0
    0.4425   -1.5624    3.3214 H   0  0  0  0  0  0  0  0  0  0  0  0
    0.2499    0.8387   -1.2682 C   0  0  0  0  0  0  0  0  0  0  0  0
   -0.2741    0.2231   -2.1902 O   0  0  0  0  0  0  0  0  0  0  0  0
    1.1669    1.8303   -1.5714 N   0  0  0  0  0  0  0  0  0  0  0  0
    1.5501    2.3677   -0.7983 H   0  0  0  0  0  0  0  0  0  0  0  0
    1.6064    2.1324   -2.9281 C   0  0  0  0  0  0  0  0  0  0  0  0
    0.7578    2.4472   -3.5445 H   0  0  0  0  0  0  0  0  0  0  0  0
    2.3431    2.9414   -2.9154 H   0  0  0  0  0  0  0  0  0  0  0  0
    2.0682    1.2513   -3.3861 H   0  0  0  0  0  0  0  0  0  0  0  0
  1  2  1  0  0  0  0
  2  3  1  0  0  0  0
  2  4  1  0  0  0  0
  2  5  1  0  0  0  0
  5  6  2  0  0  0  0
  5  7  1  0  0  0  0
  7  8  1  0  0  0  0
  7  9  1  0  0  0  0
  9 10  1  0  0  0  0
  9 11  1  0  0  0  0
  9 22  1  0  0  0  0
 11 12  1  0  0  0  0
 11 13  1  0  0  0  0
 11 14  1  0  0  0  0
 14 15  1  0  0  0  0
 14 20  2  0  0  0  0
 15 16  2  0  0  0  0
 16 17  1  0  0  0  0
 16 18  1  0  0  0  0
 18 19  1  0  0  0  0
 18 20  1  0  0  0  0
 20 21  1  0  0  0  0
 22 23  2  0  0  0  0
 22 24  1  0  0  0  0
 24 25  1  0  0  0  0
 24 26  1  0  0  0  0
 26 27  1  0  0  0  0
 26 28  1  0  0  0  0
 26 29  1  0  0  0  0
M  END
$$$$

  -OEChem-01062216083D

 29 29  0     1  0  0  0  0  0999 V2000
   -3.0486   -3.1427    0.7870 H   0  0  0  0  0  0  0  0  0  0  0  0
   -3.0449   -2.0890    0.4941 C   0  0  0  0  0  0  0  0  0  0  0  0
   -3.6874   -1.5310    1.1794 H   0  0  0  0  0  0  0  0  0  0  0  0
   -3.4435   -2.0043   -0.5199 H   0  0  0  0  0  0  0  0  0  0  0  0
   -1.6334   -1.5344    0.5412 C   0  0  0  0  0  0  0  0  0  0  0  0
   -0.7165   -2.2972    0.7932 O   0  0  0  0  0  0  0  0  0  0  0  0
   -1.4424   -0.2112    0.1922 N   0  0  0  0  0  0  0  0  0  0  0  0
   -2.2586    0.2270   -0.2272 H   0  0  0  0  0  0  0  0  0  0  0  0
   -0.2078    0.6073    0.1450 C   0  0  1  0  0  0  0  0  0  0  0  0
   -0.4555    1.5081    0.7161 H   0  0  0  0  0  0  0  0  0  0  0  0
    1.0725    0.0738    0.8330 C   0  0  0  0  0  0  0  0  0  0  0  0
    1.3487   -0.8931    0.4037 H   0  0  0  0  0  0  0  0  0  0  0  0
    1.9095    0.7540    0.6603 H   0  0  0  0  0  0  0  0  0  0  0  0
    0.9026   -0.0496    2.3213 C   0  0  0  0  0  0  0  0  0  0  0  0
    0.9064    1.0679    3.1502 N   0  0  0  0  0  0  0  0  0  0  0  0
    0.8350    0.6174    4.3806 C   0  0  0  0  0  0  0  0  0  0  0  0
    0.8095    1.2419    5.2691 H   0  0  0  0  0  0  0  0  0  0  0  0
    0.8076   -0.7637    4.3796 N   0  0  0  0  0  0  0  0  0  0  0  0
    0.7654   -1.3550    5.2072 H   0  0  0  0  0  0  0  0  0  0  0  0
    0.8740   -1.1910    3.0715 C   0  0  0  0  0  0  0  0  0  0  0  0
    0.9006   -2.2092    2.6915 H   0  0  0  0  0  0  0  0  0  0  0  0
    0.0516    1.1369   -1.2863 C   0  0  0  0  0  0  0  0  0  0  0  0
   -0.7817    0.9664   -2.1706 O   0  0  0  0  0  0  0  0  0  0  0  0
    1.1540    1.9268   -1.5646 N   0  0  0  0  0  0  0  0  0  0  0  0
    1.8035    2.1102   -0.8048 H   0  0  0  0  0  0  0  0  0  0  0  0
    1.4160    2.5132   -2.8734 C   0  0  0  0  0  0  0  0  0  0  0  0
    0.6012    3.1851   -3.1631 H   0  0  0  0  0  0  0  0  0  0  0  0
    2.3466    3.0883   -2.8501 H   0  0  0  0  0  0  0  0  0  0  0  0
    1.5132    1.7285   -3.6312 H   0  0  0  0  0  0  0  0  0  0  0  0
  1  2  1  0  0  0  0
  2  3  1  0  0  0  0
  2  4  1  0  0  0  0
  2  5  1  0  0  0  0
  5  6  2  0  0  0  0
  5  7  1  0  0  0  0
  7  8  1  0  0  0  0
  7  9  1  0  0  0  0
  9 10  1  0  0  0  0
  9 11  1  0  0  0  0
  9 22  1  0  0  0  0
 11 12  1  0  0  0  0
 11 13  1  0  0  0  0
 11 14  1  0  0  0  0
 14 15  1  0  0  0  0
 14 20  2  0  0  0  0
 15 16  2  0  0  0  0
 16 17  1  0  0  0  0
 16 18  1  0  0  0  0
 18 19  1  0  0  0  0
 18 20  1  0  0  0  0
 20 21  1  0  0  0  0
 22 23  2  0  0  0  0
 22 24  1  0  0  0  0
 24 25  1  0  0  0  0
 24 26  1  0  0  0  0
 26 27  1  0  0  0  0
 26 28  1  0  0  0  0
 26 29  1  0  0  0  0
M  END
$$$$

  -OEChem-01062216083D

 29 29  0     1  0  0  0  0  0999 V2000
   -3.0310   -3.1287    0.7859 H   0  0  0  0  0  0  0  0  0  0  0  0
   -3.0278   -2.0737    0.4978 C   0  0  0  0  0  0  0  0  0  0  0  0
   -3.6602   -1.5173    1.1938 H   0  0  0  0  0  0  0  0  0  0  0  0
   -3.4392   -1.9833   -0.5107 H   0  0  0  0  0  0  0  0  0  0  0  0
   -1.6136   -1.5250    0.5308 C   0  0  0  0  0  0  0  0  0  0  0  0
   -0.6958   -2.2956    0.7547 O   0  0  0  0  0  0  0  0  0  0  0  0
   -1.4182   -0.1994    0.1946 N   0  0  0  0  0  0  0  0  0  0  0  0
   -2.2377    0.2573   -0.1989 H   0  0  0  0  0  0  0  0  0  0  0  0
   -0.1823    0.6171    0.1616 C   0  0  1  0  0  0  0  0  0  0  0  0
   -0.4279    1.5172    0.7349 H   0  0  0  0  0  0  0  0  0  0  0  0
    1.0891    0.0717    0.8583 C   0  0  0  0  0  0  0  0  0  0  0  0
    1.3701   -0.8911    0.4232 H   0  0  0  0  0  0  0  0  0  0  0  0
    1.9279    0.7543    0.7063 H   0  0  0  0  0  0  0  0  0  0  0  0
    0.9013   -0.0611    2.3437 C   0  0  0  0  0  0  0  0  0  0  0  0
    0.9011    1.0486    3.1821 N   0  0  0  0  0  0  0  0  0  0  0  0
    0.8077    0.5885    4.4073 C   0  0  0  0  0  0  0  0  0  0  0  0
    0.7736    1.2063    5.3000 H   0  0  0  0  0  0  0  0  0  0  0  0
    0.7689   -0.7922    4.3941 N   0  0  0  0  0  0  0  0  0  0  0  0
    0.7089   -1.3900    5.2159 H   0  0  0  0  0  0  0  0  0  0  0  0
    0.8507   -1.2088    3.0833 C   0  0  0  0  0  0  0  0  0  0  0  0
    0.8724   -2.2239    2.6947 H   0  0  0  0  0  0  0  0  0  0  0  0
    0.0695    1.1496   -1.2711 C   0  0  0  0  0  0  0  0  0  0  0  0
   -0.8558    1.1894   -2.0764 O   0  0  0  0  0  0  0  0  0  0  0  0
    1.2932    1.6748   -1.6501 N   0  0  0  0  0  0  0  0  0  0  0  0
    2.0428    1.6610   -0.9648 H   0  0  0  0  0  0  0  0  0  0  0  0
    1.5623    2.2146   -2.9772 C   0  0  0  0  0  0  0  0  0  0  0  0
    0.8895    3.0506   -3.1955 H   0  0  0  0  0  0  0  0  0  0  0  0
    2.5928    2.5774   -3.0356 H   0  0  0  0  0  0  0  0  0  0  0  0
    1.4240    1.4412   -3.7400 H   0  0  0  0  0  0  0  0  0  0  0  0
  1  2  1  0  0  0  0
  2  3  1  0  0  0  0
  2  4  1  0  0  0  0
  2  5  1  0  0  0  0
  5  6  2  0  0  0  0
  5  7  1  0  0  0  0
  7  8  1  0  0  0  0
  7  9  1  0  0  0  0
  9 10  1  0  0  0  0
  9 11  1  0  0  0  0
  9 22  1  0  0  0  0
 11 12  1  0  0  0  0
 11 13  1  0  0  0  0
 11 14  1  0  0  0  0
 14 15  1  0  0  0  0
 14 20  2  0  0  0  0
 15 16  2  0  0  0  0
 16 17  1  0  0  0  0
 16 18  1  0  0  0  0
 18 19  1  0  0  0  0
 18 20  1  0  0  0  0
 20 21  1  0  0  0  0
 22 23  2  0  0  0  0
 22 24  1  0  0  0  0
 24 25  1  0  0  0  0
 24 26  1  0  0  0  0
 26 27  1  0  0  0  0
 26 28  1  0  0  0  0
 26 29  1  0  0  0  0
M  END
$$$$

  -OEChem-01062216083D

 29 29  0     1  0  0  0  0  0999 V2000
   -3.0226   -3.1195    0.7765 H   0  0  0  0  0  0  0  0  0  0  0  0
   -3.0154   -2.0621    0.4977 C   0  0  0  0  0  0  0  0  0  0  0  0
   -3.6375   -1.5079    1.2045 H   0  0  0  0  0  0  0  0  0  0  0  0
   -3.4355   -1.9599   -0.5059 H   0  0  0  0  0  0  0  0  0  0  0  0
   -1.5979   -1.5217    0.5218 C   0  0  0  0  0  0  0  0  0  0  0  0
   -0.6804   -2.2978    0.7282 O   0  0  0  0  0  0  0  0  0  0  0  0
   -1.3976   -0.1952    0.1926 N   0  0  0  0  0  0  0  0  0  0  0  0
   -2.2234    0.2803   -0.1642 H   0  0  0  0  0  0  0  0  0  0  0  0
   -0.1606    0.6185    0.1727 C   0  0  1  0  0  0  0  0  0  0  0  0
   -0.4070    1.5191    0.7452 H   0  0  0  0  0  0  0  0  0  0  0  0
    1.1030    0.0697    0.8794 C   0  0  0  0  0  0  0  0  0  0  0  0
    1.3900   -0.8918    0.4454 H   0  0  0  0  0  0  0  0  0  0  0  0
    1.9405    0.7569    0.7372 H   0  0  0  0  0  0  0  0  0  0  0  0
    0.8998   -0.0659    2.3628 C   0  0  0  0  0  0  0  0  0  0  0  0
    0.8924    1.0394    3.2068 N   0  0  0  0  0  0  0  0  0  0  0  0
    0.7824    0.5740    4.4285 C   0  0  0  0  0  0  0  0  0  0  0  0
    0.7401    1.1874    5.3242 H   0  0  0  0  0  0  0  0  0  0  0  0
    0.7370   -0.8066    4.4076 N   0  0  0  0  0  0  0  0  0  0  0  0
    0.6630   -1.4078    5.2258 H   0  0  0  0  0  0  0  0  0  0  0  0
    0.8327   -1.2172    3.0958 C   0  0  0  0  0  0  0  0  0  0  0  0
    0.8527   -2.2305    2.7024 H   0  0  0  0  0  0  0  0  0  0  0  0
    0.0912    1.1493   -1.2596 C   0  0  0  0  0  0  0  0  0  0  0  0
   -0.8687    1.4016   -1.9812 O   0  0  0  0  0  0  0  0  0  0  0  0
    1.3645    1.3915   -1.7465 N   0  0  0  0  0  0  0  0  0  0  0  0
    2.1488    1.1590   -1.1448 H   0  0  0  0  0  0  0  0  0  0  0  0
    1.6308    1.8892   -3.0908 C   0  0  0  0  0  0  0  0  0  0  0  0
    1.1175    2.8425   -3.2555 H   0  0  0  0  0  0  0  0  0  0  0  0
    2.7046    2.0478   -3.2290 H   0  0  0  0  0  0  0  0  0  0  0  0
    1.2869    1.1691   -3.8405 H   0  0  0  0  0  0  0  0  0  0  0  0
  1  2  1  0  0  0  0
  2  3  1  0  0  0  0
  2  4  1  0  0  0  0
  2  5  1  0  0  0  0
  5  6  2  0  0  0  0
  5  7  1  0  0  0  0
  7  8  1  0  0  0  0
  7  9  1  0  0  0  0
  9 10  1  0  0  0  0
  9 11  1  0  0  0  0
  9 22  1  0  0  0  0
 11 12  1  0  0  0  0
 11 13  1  0  0  0  0
 11 14  1  0  0  0  0
 14 15  1  0  0  0  0
 14 20  2  0  0  0  0
 15 16  2  0  0  0  0
 16 17  1  0  0  0  0
 16 18  1  0  0  0  0
 18 19  1  0  0  0  0
 18 20  1  0  0  0  0
 20 21  1  0  0  0  0
 22 23  2  0  0  0  0
 22 24  1  0  0  0  0
 24 25  1  0  0  0  0
 24 26  1  0  0  0  0
 26 27  1  0  0  0  0
 26 28  1  0  0  0  0
 26 29  1  0  0  0  0
M  END
$$$$

  -OEChem-01062216083D

 29 29  0     1  0  0  0  0  0999 V2000
   -2.9991   -3.1128    0.8136 H   0  0  0  0  0  0  0  0  0  0  0  0
   -3.0005   -2.0569    0.5290 C   0  0  0  0  0  0  0  0  0  0  0  0
   -3.5987   -1.4989    1.2533 H   0  0  0  0  0  0  0  0  0  0  0  0
   -3.4537   -1.9595   -0.4607 H   0  0  0  0  0  0  0  0  0  0  0  0
   -1.5822   -1.5180    0.5047 C   0  0  0  0  0  0  0  0  0  0  0  0
   -0.6577   -2.2950    0.6751 O   0  0  0  0  0  0  0  0  0  0  0  0
   -1.3880   -0.1902    0.1767 N   0  0  0  0  0  0  0  0  0  0  0  0
   -2.2270    0.3017   -0.1219 H   0  0  0  0  0  0  0  0  0  0  0  0
   -0.1545    0.6280    0.1727 C   0  0  1  0  0  0  0  0  0  0  0  0
   -0.4082    1.5277    0.7439 H   0  0  0  0  0  0  0  0  0  0  0  0
    1.1055    0.0824    0.8864 C   0  0  0  0  0  0  0  0  0  0  0  0
    1.4029   -0.8752    0.4508 H   0  0  0  0  0  0  0  0  0  0  0  0
    1.9374    0.7787    0.7505 H   0  0  0  0  0  0  0  0  0  0  0  0
    0.8906   -0.0629    2.3672 C   0  0  0  0  0  0  0  0  0  0  0  0
    0.8693    1.0340    3.2216 N   0  0  0  0  0  0  0  0  0  0  0  0
    0.7506    0.5565    4.4377 C   0  0  0  0  0  0  0  0  0  0  0  0
    0.6987    1.1606    5.3389 H   0  0  0  0  0  0  0  0  0  0  0  0
    0.7097   -0.8238    4.4031 N   0  0  0  0  0  0  0  0  0  0  0  0
    0.6326   -1.4331    5.2151 H   0  0  0  0  0  0  0  0  0  0  0  0
    0.8185   -1.2214    3.0881 C   0  0  0  0  0  0  0  0  0  0  0  0
    0.8442   -2.2308    2.6851 H   0  0  0  0  0  0  0  0  0  0  0  0
    0.1088    1.1560   -1.2561 C   0  0  0  0  0  0  0  0  0  0  0  0
   -0.8287    1.6088   -1.9042 O   0  0  0  0  0  0  0  0  0  0  0  0
    1.3652    1.1172   -1.8368 N   0  0  0  0  0  0  0  0  0  0  0  0
    2.1090    0.6705   -1.3087 H   0  0  0  0  0  0  0  0  0  0  0  0
    1.6319    1.5449   -3.2045 C   0  0  0  0  0  0  0  0  0  0  0  0
    1.3362    2.5900   -3.3443 H   0  0  0  0  0  0  0  0  0  0  0  0
    2.6997    1.4566   -3.4265 H   0  0  0  0  0  0  0  0  0  0  0  0
    1.0771    0.9230   -3.9149 H   0  0  0  0  0  0  0  0  0  0  0  0
  1  2  1  0  0  0  0
  2  3  1  0  0  0  0
  2  4  1  0  0  0  0
  2  5  1  0  0  0  0
  5  6  2  0  0  0  0
  5  7  1  0  0  0  0
  7  8  1  0  0  0  0
  7  9  1  0  0  0  0
  9 10  1  0  0  0  0
  9 11  1  0  0  0  0
  9 22  1  0  0  0  0
 11 12  1  0  0  0  0
 11 13  1  0  0  0  0
 11 14  1  0  0  0  0
 14 15  1  0  0  0  0
 14 20  2  0  0  0  0
 15 16  2  0  0  0  0
 16 17  1  0  0  0  0
 16 18  1  0  0  0  0
 18 19  1  0  0  0  0
 18 20  1  0  0  0  0
 20 21  1  0  0  0  0
 22 23  2  0  0  0  0
 22 24  1  0  0  0  0
 24 25  1  0  0  0  0
 24 26  1  0  0  0  0
 26 27  1  0  0  0  0
 26 28  1  0  0  0  0
 26 29  1  0  0  0  0
M  END
$$$$

  -OEChem-01062216083D

 29 29  0     1  0  0  0  0  0999 V2000
   -2.9777   -3.1030    0.8645 H   0  0  0  0  0  0  0  0  0  0  0  0
   -2.9869   -2.0489    0.5730 C   0  0  0  0  0  0  0  0  0  0  0  0
   -3.5556   -1.4840    1.3156 H   0  0  0  0  0  0  0  0  0  0  0  0
   -3.4764   -1.9568   -0.3997 H   0  0  0  0  0  0  0  0  0  0  0  0
   -1.5694   -1.5147    0.4918 C   0  0  0  0  0  0  0  0  0  0  0  0
   -0.6399   -2.2934    0.6240 O   0  0  0  0  0  0  0  0  0  0  0  0
   -1.3822   -0.1877    0.1573 N   0  0  0  0  0  0  0  0  0  0  0  0
   -2.2333    0.3171   -0.0779 H   0  0  0  0  0  0  0  0  0  0  0  0
   -0.1522    0.6343    0.1655 C   0  0  1  0  0  0  0  0  0  0  0  0
   -0.4122    1.5348    0.7326 H   0  0  0  0  0  0  0  0  0  0  0  0
    1.1050    0.0922    0.8857 C   0  0  0  0  0  0  0  0  0  0  0  0
    1.4106   -0.8633    0.4517 H   0  0  0  0  0  0  0  0  0  0  0  0
    1.9337    0.7935    0.7514 H   0  0  0  0  0  0  0  0  0  0  0  0
    0.8805   -0.0593    2.3644 C   0  0  0  0  0  0  0  0  0  0  0  0
    0.8469    1.0302    3.2273 N   0  0  0  0  0  0  0  0  0  0  0  0
    0.7202    0.5425    4.4386 C   0  0  0  0  0  0  0  0  0  0  0  0
    0.6588    1.1394    5.3442 H   0  0  0  0  0  0  0  0  0  0  0  0
    0.6845   -0.8378    4.3923 N   0  0  0  0  0  0  0  0  0  0  0  0
    0.6067   -1.4542    5.1988 H   0  0  0  0  0  0  0  0  0  0  0  0
    0.8051   -1.2242    3.0750 C   0  0  0  0  0  0  0  0  0  0  0  0
    0.8379   -2.2303    2.6644 H   0  0  0  0  0  0  0  0  0  0  0  0
    0.1273    1.1535   -1.2609 C   0  0  0  0  0  0  0  0  0  0  0  0
   -0.7395    1.8000   -1.8381 O   0  0  0  0  0  0  0  0  0  0  0  0
    1.2973    0.8447   -1.9334 N   0  0  0  0  0  0  0  0  0  0  0  0
    1.9418    0.2089   -1.4724 H   0  0  0  0  0  0  0  0  0  0  0  0
    1.5492    1.2192   -3.3194 C   0  0  0  0  0  0  0  0  0  0  0  0
    1.4621    2.3035   -3.4456 H   0  0  0  0  0  0  0  0  0  0  0  0
    2.5594    0.9191   -3.6140 H   0  0  0  0  0  0  0  0  0  0  0  0
    0.8325    0.7273   -3.9850 H   0  0  0  0  0  0  0  0  0  0  0  0
  1  2  1  0  0  0  0
  2  3  1  0  0  0  0
  2  4  1  0  0  0  0
  2  5  1  0  0  0  0
  5  6  2  0  0  0  0
  5  7  1  0  0  0  0
  7  8  1  0  0  0  0
  7  9  1  0  0  0  0
  9 10  1  0  0  0  0
  9 11  1  0  0  0  0
  9 22  1  0  0  0  0
 11 12  1  0  0  0  0
 11 13  1  0  0  0  0
 11 14  1  0  0  0  0
 14 15  1  0  0  0  0
 14 20  2  0  0  0  0
 15 16  2  0  0  0  0
 16 17  1  0  0  0  0
 16 18  1  0  0  0  0
 18 19  1  0  0  0  0
 18 20  1  0  0  0  0
 20 21  1  0  0  0  0
 22 23  2  0  0  0  0
 22 24  1  0  0  0  0
 24 25  1  0  0  0  0
 24 26  1  0  0  0  0
 26 27  1  0  0  0  0
 26 28  1  0  0  0  0
 26 29  1  0  0  0  0
M  END
$$$$

  -OEChem-01062216083D

 29 29  0     1  0  0  0  0  0999 V2000
   -2.9569   -3.0930    0.9308 H   0  0  0  0  0  0  0  0  0  0  0  0
   -2.9764   -2.0430    0.6254 C   0  0  0  0  0  0  0  0  0  0  0  0
   -3.5162   -1.4683    1.3820 H   0  0  0  0  0  0  0  0  0  0  0  0
   -3.5031   -1.9623   -0.3287 H   0  0  0  0  0  0  0  0  0  0  0  0
   -1.5622   -1.5122    0.4828 C   0  0  0  0  0  0  0  0  0  0  0  0
   -0.6279   -2.2914    0.5733 O   0  0  0  0  0  0  0  0  0  0  0  0
   -1.3833   -0.1870    0.1372 N   0  0  0  0  0  0  0  0  0  0  0  0
   -2.2432    0.3270   -0.0374 H   0  0  0  0  0  0  0  0  0  0  0  0
   -0.1556    0.6378    0.1541 C   0  0  1  0  0  0  0  0  0  0  0  0
   -0.4205    1.5392    0.7180 H   0  0  0  0  0  0  0  0  0  0  0  0
    1.1007    0.0998    0.8772 C   0  0  0  0  0  0  0  0  0  0  0  0
    1.4135   -0.8538    0.4447 H   0  0  0  0  0  0  0  0  0  0  0  0
    1.9259    0.8051    0.7427 H   0  0  0  0  0  0  0  0  0  0  0  0
    0.8698   -0.0563    2.3538 C   0  0  0  0  0  0  0  0  0  0  0  0
    0.8262    1.0274    3.2231 N   0  0  0  0  0  0  0  0  0  0  0  0
    0.6948    0.5315    4.4304 C   0  0  0  0  0  0  0  0  0  0  0  0
    0.6256    1.1222    5.3395 H   0  0  0  0  0  0  0  0  0  0  0  0
    0.6652   -0.8487    4.3751 N   0  0  0  0  0  0  0  0  0  0  0  0
    0.5863   -1.4705    5.1773 H   0  0  0  0  0  0  0  0  0  0  0  0
    0.7955   -1.2262    3.0562 C   0  0  0  0  0  0  0  0  0  0  0  0
    0.8364   -2.2293    2.6388 H   0  0  0  0  0  0  0  0  0  0  0  0
    0.1423    1.1456   -1.2703 C   0  0  0  0  0  0  0  0  0  0  0  0
   -0.5993    1.9796   -1.7756 O   0  0  0  0  0  0  0  0  0  0  0  0
    1.1595    0.5941   -2.0295 N   0  0  0  0  0  0  0  0  0  0  0  0
    1.6526   -0.1996   -1.6298 H   0  0  0  0  0  0  0  0  0  0  0  0
    1.3908    0.9349   -3.4275 C   0  0  0  0  0  0  0  0  0  0  0  0
    1.5327    2.0149   -3.5410 H   0  0  0  0  0  0  0  0  0  0  0  0
    2.2894    0.4302   -3.7953 H   0  0  0  0  0  0  0  0  0  0  0  0
    0.5402    0.6239   -4.0429 H   0  0  0  0  0  0  0  0  0  0  0  0
  1  2  1  0  0  0  0
  2  3  1  0  0  0  0
  2  4  1  0  0  0  0
  2  5  1  0  0  0  0
  5  6  2  0  0  0  0
  5  7  1  0  0  0  0
  7  8  1  0  0  0  0
  7  9  1  0  0  0  0
  9 10  1  0  0  0  0
  9 11  1  0  0  0  0
  9 22  1  0  0  0  0
 11 12  1  0  0  0  0
 11 13  1  0  0  0  0
 11 14  1  0  0  0  0
 14 15  1  0  0  0  0
 14 20  2  0  0  0  0
 15 16  2  0  0  0  0
 16 17  1  0  0  0  0
 16 18  1  0  0  0  0
 18 19  1  0  0  0  0
 18 20  1  0  0  0  0
 20 21  1  0  0  0  0
 22 23  2  0  0  0  0
 22 24  1  0  0  0  0
 24 25  1  0  0  0  0
 24 26  1  0  0  0  0
 26 27  1  0  0  0  0
 26 28  1  0  0  0  0
 26 29  1  0  0  0  0
M  END
$$$$

  -OEChem-01062216083D

 29 29  0     1  0  0  0  0  0999 V2000
   -2.9288   -3.0910    0.9913 H   0  0  0  0  0  0  0  0  0  0  0  0
   -2.9634   -2.0421    0.6834 C   0  0  0  0  0  0  0  0  0  0  0  0
   -3.4698   -1.4653    1.4613 H   0  0  0  0  0  0  0  0  0  0  0  0
   -3.5324   -1.9664   -0.2465 H   0  0  0  0  0  0  0  0  0  0  0  0
   -1.5576   -1.5102    0.4759 C   0  0  0  0  0  0  0  0  0  0  0  0
   -0.6189   -2.2885    0.5172 O   0  0  0  0  0  0  0  0  0  0  0  0
   -1.3916   -0.1871    0.1160 N   0  0  0  0  0  0  0  0  0  0  0  0
   -2.2589    0.3323    0.0091 H   0  0  0  0  0  0  0  0  0  0  0  0
   -0.1666    0.6429    0.1391 C   0  0  1  0  0  0  0  0  0  0  0  0
   -0.4364    1.5460    0.6984 H   0  0  0  0  0  0  0  0  0  0  0  0
    1.0903    0.1095    0.8633 C   0  0  0  0  0  0  0  0  0  0  0  0
    1.4108   -0.8405    0.4290 H   0  0  0  0  0  0  0  0  0  0  0  0
    1.9121    0.8195    0.7310 H   0  0  0  0  0  0  0  0  0  0  0  0
    0.8565   -0.0524    2.3386 C   0  0  0  0  0  0  0  0  0  0  0  0
    0.8043    1.0257    3.2141 N   0  0  0  0  0  0  0  0  0  0  0  0
    0.6742    0.5220    4.4182 C   0  0  0  0  0  0  0  0  0  0  0  0
    0.6021    1.1073    5.3305 H   0  0  0  0  0  0  0  0  0  0  0  0
    0.6500   -0.8581    4.3543 N   0  0  0  0  0  0  0  0  0  0  0  0
    0.5755   -1.4847    5.1532 H   0  0  0  0  0  0  0  0  0  0  0  0
    0.7841   -1.2269    3.0333 C   0  0  0  0  0  0  0  0  0  0  0  0
    0.8311   -2.2271    2.6098 H   0  0  0  0  0  0  0  0  0  0  0  0
    0.1474    1.1367   -1.2848 C   0  0  0  0  0  0  0  0  0  0  0  0
   -0.4053    2.1399   -1.7178 O   0  0  0  0  0  0  0  0  0  0  0  0
    0.9533    0.3859   -2.1214 N   0  0  0  0  0  0  0  0  0  0  0  0
    1.2526   -0.5212   -1.7723 H   0  0  0  0  0  0  0  0  0  0  0  0
    1.1687    0.7060   -3.5266 C   0  0  0  0  0  0  0  0  0  0  0  0
    1.5582    1.7239   -3.6334 H   0  0  0  0  0  0  0  0  0  0  0  0
    1.8939    0.0134   -3.9646 H   0  0  0  0  0  0  0  0  0  0  0  0
    0.2304    0.6268   -4.0851 H   0  0  0  0  0  0  0  0  0  0  0  0
  1  2  1  0  0  0  0
  2  3  1  0  0  0  0
  2  4  1  0  0  0  0
  2  5  1  0  0  0  0
  5  6  2  0  0  0  0
  5  7  1  0  0  0  0
  7  8  1  0  0  0  0
  7  9  1  0  0  0  0
  9 10  1  0  0  0  0
  9 11  1  0  0  0  0
  9 22  1  0  0  0  0
 11 12  1  0  0  0  0
 11 13  1  0  0  0  0
 11 14  1  0  0  0  0
 14 15  1  0  0  0  0
 14 20  2  0  0  0  0
 15 16  2  0  0  0  0
 16 17  1  0  0  0  0
 16 18  1  0  0  0  0
 18 19  1  0  0  0  0
 18 20  1  0  0  0  0
 20 21  1  0  0  0  0
 22 23  2  0  0  0  0
 22 24  1  0  0  0  0
 24 25  1  0  0  0  0
 24 26  1  0  0  0  0
 26 27  1  0  0  0  0
 26 28  1  0  0  0  0
 26 29  1  0  0  0  0
M  END
$$$$

  -OEChem-01062216083D

 29 29  0     1  0  0  0  0  0999 V2000
   -2.9068   -3.0914    1.0501 H   0  0  0  0  0  0  0  0  0  0  0  0
   -2.9561   -2.0416    0.7474 C   0  0  0  0  0  0  0  0  0  0  0  0
   -3.4268   -1.4676    1.5493 H   0  0  0  0  0  0  0  0  0  0  0  0
   -3.5667   -1.9636   -0.1554 H   0  0  0  0  0  0  0  0  0  0  0  0
   -1.5614   -1.5084    0.4780 C   0  0  0  0  0  0  0  0  0  0  0  0
   -0.6204   -2.2848    0.4709 O   0  0  0  0  0  0  0  0  0  0  0  0
   -1.4106   -0.1889    0.0996 N   0  0  0  0  0  0  0  0  0  0  0  0
   -2.2830    0.3299    0.0440 H   0  0  0  0  0  0  0  0  0  0  0  0
   -0.1903    0.6491    0.1248 C   0  0  1  0  0  0  0  0  0  0  0  0
   -0.4646    1.5541    0.6789 H   0  0  0  0  0  0  0  0  0  0  0  0
    1.0716    0.1231    0.8432 C   0  0  0  0  0  0  0  0  0  0  0  0
    1.4011   -0.8207    0.4020 H   0  0  0  0  0  0  0  0  0  0  0  0
    1.8861    0.8420    0.7116 H   0  0  0  0  0  0  0  0  0  0  0  0
    0.8425   -0.0472    2.3180 C   0  0  0  0  0  0  0  0  0  0  0  0
    0.7829    1.0237    3.2018 N   0  0  0  0  0  0  0  0  0  0  0  0
    0.6602    0.5100    4.4024 C   0  0  0  0  0  0  0  0  0  0  0  0
    0.5856    1.0876    5.3194 H   0  0  0  0  0  0  0  0  0  0  0  0
    0.6464   -0.8698    4.3281 N   0  0  0  0  0  0  0  0  0  0  0  0
    0.5803   -1.5028    5.1226 H   0  0  0  0  0  0  0  0  0  0  0  0
    0.7805   -1.2276    3.0040 C   0  0  0  0  0  0  0  0  0  0  0  0
    0.8356   -2.2242    2.5728 H   0  0  0  0  0  0  0  0  0  0  0  0
    0.1344    1.1241   -1.3015 C   0  0  0  0  0  0  0  0  0  0  0  0
   -0.1707    2.2523   -1.6647 O   0  0  0  0  0  0  0  0  0  0  0  0
    0.6824    0.2341   -2.2067 N   0  0  0  0  0  0  0  0  0  0  0  0
    0.7879   -0.7282   -1.8925 H   0  0  0  0  0  0  0  0  0  0  0  0
    0.9052    0.5500   -3.6113 C   0  0  0  0  0  0  0  0  0  0  0  0
    1.5428    1.4351   -3.7088 H   0  0  0  0  0  0  0  0  0  0  0  0
    1.4003   -0.2875   -4.1123 H   0  0  0  0  0  0  0  0  0  0  0  0
   -0.0472    0.7435   -4.1158 H   0  0  0  0  0  0  0  0  0  0  0  0
  1  2  1  0  0  0  0
  2  3  1  0  0  0  0
  2  4  1  0  0  0  0
  2  5  1  0  0  0  0
  5  6  2  0  0  0  0
  5  7  1  0  0  0  0
  7  8  1  0  0  0  0
  7  9  1  0  0  0  0
  9 10  1  0  0  0  0
  9 11  1  0  0  0  0
  9 22  1  0  0  0  0
 11 12  1  0  0  0  0
 11 13  1  0  0  0  0
 11 14  1  0  0  0  0
 14 15  1  0  0  0  0
 14 20  2  0  0  0  0
 15 16  2  0  0  0  0
 16 17  1  0  0  0  0
 16 18  1  0  0  0  0
 18 19  1  0  0  0  0
 18 20  1  0  0  0  0
 20 21  1  0  0  0  0
 22 23  2  0  0  0  0
 22 24  1  0  0  0  0
 24 25  1  0  0  0  0
 24 26  1  0  0  0  0
 26 27  1  0  0  0  0
 26 28  1  0  0  0  0
 26 29  1  0  0  0  0
M  END
$$$$

  -OEChem-01062216083D

 29 29  0     1  0  0  0  0  0999 V2000
   -2.8872   -3.0905    1.1312 H   0  0  0  0  0  0  0  0  0  0  0  0
   -2.9510   -2.0428    0.8245 C   0  0  0  0  0  0  0  0  0  0  0  0
   -3.3826   -1.4636    1.6446 H   0  0  0  0  0  0  0  0  0  0  0  0
   -3.6045   -1.9702   -0.0483 H   0  0  0  0  0  0  0  0  0  0  0  0
   -1.5711   -1.5116    0.4855 C   0  0  0  0  0  0  0  0  0  0  0  0
   -0.6314   -2.2874    0.4292 O   0  0  0  0  0  0  0  0  0  0  0  0
   -1.4378   -0.1955    0.0905 N   0  0  0  0  0  0  0  0  0  0  0  0
   -2.3140    0.3192    0.0793 H   0  0  0  0  0  0  0  0  0  0  0  0
   -0.2234    0.6535    0.1098 C   0  0  1  0  0  0  0  0  0  0  0  0
   -0.5012    1.5601    0.6595 H   0  0  0  0  0  0  0  0  0  0  0  0
    1.0445    0.1334    0.8197 C   0  0  0  0  0  0  0  0  0  0  0  0
    1.3790   -0.8053    0.3713 H   0  0  0  0  0  0  0  0  0  0  0  0
    1.8532    0.8588    0.6872 H   0  0  0  0  0  0  0  0  0  0  0  0
    0.8231   -0.0433    2.2951 C   0  0  0  0  0  0  0  0  0  0  0  0
    0.7595    1.0207    3.1869 N   0  0  0  0  0  0  0  0  0  0  0  0
    0.6501    0.4978    4.3848 C   0  0  0  0  0  0  0  0  0  0  0  0
    0.5777    1.0686    5.3063 H   0  0  0  0  0  0  0  0  0  0  0  0
    0.6470   -0.8815    4.3009 N   0  0  0  0  0  0  0  0  0  0  0  0
    0.5955   -1.5206    5.0917 H   0  0  0  0  0  0  0  0  0  0  0  0
    0.7759   -1.2288    2.9734 C   0  0  0  0  0  0  0  0  0  0  0  0
    0.8398   -2.2216    2.5348 H   0  0  0  0  0  0  0  0  0  0  0  0
    0.1036    1.1154   -1.3203 C   0  0  0  0  0  0  0  0  0  0  0  0
    0.0861    2.3025   -1.6157 O   0  0  0  0  0  0  0  0  0  0  0  0
    0.3626    0.1662   -2.2913 N   0  0  0  0  0  0  0  0  0  0  0  0
    0.3058   -0.8091   -2.0037 H   0  0  0  0  0  0  0  0  0  0  0  0
    0.6209    0.4869   -3.6885 C   0  0  0  0  0  0  0  0  0  0  0  0
    1.4723    1.1702   -3.7740 H   0  0  0  0  0  0  0  0  0  0  0  0
    0.8529   -0.4245   -4.2477 H   0  0  0  0  0  0  0  0  0  0  0  0
   -0.2575    0.9584   -4.1413 H   0  0  0  0  0  0  0  0  0  0  0  0
  1  2  1  0  0  0  0
  2  3  1  0  0  0  0
  2  4  1  0  0  0  0
  2  5  1  0  0  0  0
  5  6  2  0  0  0  0
  5  7  1  0  0  0  0
  7  8  1  0  0  0  0
  7  9  1  0  0  0  0
  9 10  1  0  0  0  0
  9 11  1  0  0  0  0
  9 22  1  0  0  0  0
 11 12  1  0  0  0  0
 11 13  1  0  0  0  0
 11 14  1  0  0  0  0
 14 15  1  0  0  0  0
 14 20  2  0  0  0  0
 15 16  2  0  0  0  0
 16 17  1  0  0  0  0
 16 18  1  0  0  0  0
 18 19  1  0  0  0  0
 18 20  1  0  0  0  0
 20 21  1  0  0  0  0
 22 23  2  0  0  0  0
 22 24  1  0  0  0  0
 24 25  1  0  0  0  0
 24 26  1  0  0  0  0
 26 27  1  0  0  0  0
 26 28  1  0  0  0  0
 26 29  1  0  0  0  0
M  END
$$$$

  -OEChem-01062216083D

 29 29  0     1  0  0  0  0  0999 V2000
   -2.8858   -3.1147    1.1700 H   0  0  0  0  0  0  0  0  0  0  0  0
   -2.9592   -2.0618    0.8835 C   0  0  0  0  0  0  0  0  0  0  0  0
   -3.3603   -1.4964    1.7281 H   0  0  0  0  0  0  0  0  0  0  0  0
   -3.6434   -1.9741    0.0360 H   0  0  0  0  0  0  0  0  0  0  0  0
   -1.5919   -1.5247    0.5047 C   0  0  0  0  0  0  0  0  0  0  0  0
   -0.6517   -2.2966    0.4195 O   0  0  0  0  0  0  0  0  0  0  0  0
   -1.4768   -0.2097    0.0998 N   0  0  0  0  0  0  0  0  0  0  0  0
   -2.3565    0.2986    0.1194 H   0  0  0  0  0  0  0  0  0  0  0  0
   -0.2696    0.6521    0.1006 C   0  0  1  0  0  0  0  0  0  0  0  0
   -0.5498    1.5580    0.6500 H   0  0  0  0  0  0  0  0  0  0  0  0
    1.0097    0.1408    0.7954 C   0  0  0  0  0  0  0  0  0  0  0  0
    1.3446   -0.7954    0.3417 H   0  0  0  0  0  0  0  0  0  0  0  0
    1.8121    0.8713    0.6529 H   0  0  0  0  0  0  0  0  0  0  0  0
    0.8081   -0.0367    2.2736 C   0  0  0  0  0  0  0  0  0  0  0  0
    0.7484    1.0258    3.1677 N   0  0  0  0  0  0  0  0  0  0  0  0
    0.6621    0.5013    4.3666 C   0  0  0  0  0  0  0  0  0  0  0  0
    0.6004    1.0704    5.2897 H   0  0  0  0  0  0  0  0  0  0  0  0
    0.6685   -0.8779    4.2813 N   0  0  0  0  0  0  0  0  0  0  0  0
    0.6397   -1.5178    5.0727 H   0  0  0  0  0  0  0  0  0  0  0  0
    0.7809   -1.2230    2.9517 C   0  0  0  0  0  0  0  0  0  0  0  0
    0.8495   -2.2148    2.5117 H   0  0  0  0  0  0  0  0  0  0  0  0
    0.0496    1.1161   -1.3320 C   0  0  0  0  0  0  0  0  0  0  0  0
    0.3247    2.2849   -1.5661 O   0  0  0  0  0  0  0  0  0  0  0  0
    0.0074    0.1992   -2.3658 N   0  0  0  0  0  0  0  0  0  0  0  0
   -0.1741   -0.7686   -2.1072 H   0  0  0  0  0  0  0  0  0  0  0  0
    0.3383    0.5212   -3.7472 C   0  0  0  0  0  0  0  0  0  0  0  0
    1.3688    0.8841   -3.8190 H   0  0  0  0  0  0  0  0  0  0  0  0
    0.2397   -0.3688   -4.3760 H   0  0  0  0  0  0  0  0  0  0  0  0
   -0.3355    1.2937   -4.1325 H   0  0  0  0  0  0  0  0  0  0  0  0
  1  2  1  0  0  0  0
  2  3  1  0  0  0  0
  2  4  1  0  0  0  0
  2  5  1  0  0  0  0
  5  6  2  0  0  0  0
  5  7  1  0  0  0  0
  7  8  1  0  0  0  0
  7  9  1  0  0  0  0
  9 10  1  0  0  0  0
  9 11  1  0  0  0  0
  9 22  1  0  0  0  0
 11 12  1  0  0  0  0
 11 13  1  0  0  0  0
 11 14  1  0  0  0  0
 14 15  1  0  0  0  0
 14 20  2  0  0  0  0
 15 16  2  0  0  0  0
 16 17  1  0  0  0  0
 16 18  1  0  0  0  0
 18 19  1  0  0  0  0
 18 20  1  0  0  0  0
 20 21  1  0  0  0  0
 22 23  2  0  0  0  0
 22 24  1  0  0  0  0
 24 25  1  0  0  0  0
 24 26  1  0  0  0  0
 26 27  1  0  0  0  0
 26 28  1  0  0  0  0
 26 29  1  0  0  0  0
M  END
$$$$

  -OEChem-01062216083D

 29 29  0     1  0  0  0  0  0999 V2000
   -2.8795   -3.1263    1.2211 H   0  0  0  0  0  0  0  0  0  0  0  0
   -2.9624   -2.0780    0.9201 C   0  0  0  0  0  0  0  0  0  0  0  0
   -3.3582   -1.5030    1.7608 H   0  0  0  0  0  0  0  0  0  0  0  0
   -3.6565   -2.0073    0.0790 H   0  0  0  0  0  0  0  0  0  0  0  0
   -1.6022   -1.5383    0.5191 C   0  0  0  0  0  0  0  0  0  0  0  0
   -0.6627   -2.3089    0.4243 O   0  0  0  0  0  0  0  0  0  0  0  0
   -1.4970   -0.2226    0.1118 N   0  0  0  0  0  0  0  0  0  0  0  0
   -2.3779    0.2823    0.1536 H   0  0  0  0  0  0  0  0  0  0  0  0
   -0.2927    0.6466    0.0969 C   0  0  1  0  0  0  0  0  0  0  0  0
   -0.5724    1.5511    0.6484 H   0  0  0  0  0  0  0  0  0  0  0  0
    0.9922    0.1376    0.7839 C   0  0  0  0  0  0  0  0  0  0  0  0
    1.3243   -0.7988    0.3287 H   0  0  0  0  0  0  0  0  0  0  0  0
    1.7938    0.8677    0.6348 H   0  0  0  0  0  0  0  0  0  0  0  0
    0.8022   -0.0359    2.2642 C   0  0  0  0  0  0  0  0  0  0  0  0
    0.7489    1.0285    3.1565 N   0  0  0  0  0  0  0  0  0  0  0  0
    0.6745    0.5066    4.3573 C   0  0  0  0  0  0  0  0  0  0  0  0
    0.6200    1.0781    5.2796 H   0  0  0  0  0  0  0  0  0  0  0  0
    0.6809   -0.8728    4.2752 N   0  0  0  0  0  0  0  0  0  0  0  0
    0.6589   -1.5111    5.0681 H   0  0  0  0  0  0  0  0  0  0  0  0
    0.7806   -1.2208    2.9453 C   0  0  0  0  0  0  0  0  0  0  0  0
    0.8452   -2.2133    2.5062 H   0  0  0  0  0  0  0  0  0  0  0  0
    0.0222    1.1221   -1.3356 C   0  0  0  0  0  0  0  0  0  0  0  0
    0.5508    2.2083   -1.5296 O   0  0  0  0  0  0  0  0  0  0  0  0
   -0.3093    0.3236   -2.4150 N   0  0  0  0  0  0  0  0  0  0  0  0
   -0.6370   -0.6141   -2.1946 H   0  0  0  0  0  0  0  0  0  0  0  0
    0.0336    0.6514   -3.7926 C   0  0  0  0  0  0  0  0  0  0  0  0
    1.1188    0.7446   -3.9050 H   0  0  0  0  0  0  0  0  0  0  0  0
   -0.3188   -0.1347   -4.4672 H   0  0  0  0  0  0  0  0  0  0  0  0
   -0.4343    1.5960   -4.0891 H   0  0  0  0  0  0  0  0  0  0  0  0
  1  2  1  0  0  0  0
  2  3  1  0  0  0  0
  2  4  1  0  0  0  0
  2  5  1  0  0  0  0
  5  6  2  0  0  0  0
  5  7  1  0  0  0  0
  7  8  1  0  0  0  0
  7  9  1  0  0  0  0
  9 10  1  0  0  0  0
  9 11  1  0  0  0  0
  9 22  1  0  0  0  0
 11 12  1  0  0  0  0
 11 13  1  0  0  0  0
 11 14  1  0  0  0  0
 14 15  1  0  0  0  0
 14 20  2  0  0  0  0
 15 16  2  0  0  0  0
 16 17  1  0  0  0  0
 16 18  1  0  0  0  0
 18 19  1  0  0  0  0
 18 20  1  0  0  0  0
 20 21  1  0  0  0  0
 22 23  2  0  0  0  0
 22 24  1  0  0  0  0
 24 25  1  0  0  0  0
 24 26  1  0  0  0  0
 26 27  1  0  0  0  0
 26 28  1  0  0  0  0
 26 29  1  0  0  0  0
M  END
$$$$

  -OEChem-01062216083D

 29 29  0     1  0  0  0  0  0999 V2000
   -2.8646   -3.1458    1.2245 H   0  0  0  0  0  0  0  0  0  0  0  0
   -2.9514   -2.0955    0.9322 C   0  0  0  0  0  0  0  0  0  0  0  0
   -3.3403   -1.5270    1.7807 H   0  0  0  0  0  0  0  0  0  0  0  0
   -3.6530   -2.0196    0.0980 H   0  0  0  0  0  0  0  0  0  0  0  0
   -1.5952   -1.5527    0.5224 C   0  0  0  0  0  0  0  0  0  0  0  0
   -0.6548   -2.3219    0.4283 O   0  0  0  0  0  0  0  0  0  0  0  0
   -1.4979   -0.2343    0.1193 N   0  0  0  0  0  0  0  0  0  0  0  0
   -2.3785    0.2688    0.1839 H   0  0  0  0  0  0  0  0  0  0  0  0
   -0.2958    0.6399    0.0943 C   0  0  1  0  0  0  0  0  0  0  0  0
   -0.5762    1.5428    0.6477 H   0  0  0  0  0  0  0  0  0  0  0  0
    0.9903    0.1311    0.7825 C   0  0  0  0  0  0  0  0  0  0  0  0
    1.3216   -0.8072    0.3307 H   0  0  0  0  0  0  0  0  0  0  0  0
    1.7947    0.8580    0.6332 H   0  0  0  0  0  0  0  0  0  0  0  0
    0.7988   -0.0350    2.2632 C   0  0  0  0  0  0  0  0  0  0  0  0
    0.7464    1.0330    3.1515 N   0  0  0  0  0  0  0  0  0  0  0  0
    0.6717    0.5152    4.3542 C   0  0  0  0  0  0  0  0  0  0  0  0
    0.6187    1.0901    5.2743 H   0  0  0  0  0  0  0  0  0  0  0  0
    0.6767   -0.8646    4.2771 N   0  0  0  0  0  0  0  0  0  0  0  0
    0.6586   -1.5001    5.0723 H   0  0  0  0  0  0  0  0  0  0  0  0
    0.7762   -1.2172    2.9485 C   0  0  0  0  0  0  0  0  0  0  0  0
    0.8410   -2.2111    2.5125 H   0  0  0  0  0  0  0  0  0  0  0  0
    0.0122    1.1299   -1.3375 C   0  0  0  0  0  0  0  0  0  0  0  0
    0.7503    2.0882   -1.5223 O   0  0  0  0  0  0  0  0  0  0  0  0
   -0.5802    0.5164   -2.4269 N   0  0  0  0  0  0  0  0  0  0  0  0
   -1.0619   -0.3580   -2.2353 H   0  0  0  0  0  0  0  0  0  0  0  0
   -0.2660    0.8620   -3.8075 C   0  0  0  0  0  0  0  0  0  0  0  0
    0.7903    0.6672   -4.0205 H   0  0  0  0  0  0  0  0  0  0  0  0
   -0.8748    0.2661   -4.4941 H   0  0  0  0  0  0  0  0  0  0  0  0
   -0.4736    1.9210   -3.9939 H   0  0  0  0  0  0  0  0  0  0  0  0
  1  2  1  0  0  0  0
  2  3  1  0  0  0  0
  2  4  1  0  0  0  0
  2  5  1  0  0  0  0
  5  6  2  0  0  0  0
  5  7  1  0  0  0  0
  7  8  1  0  0  0  0
  7  9  1  0  0  0  0
  9 10  1  0  0  0  0
  9 11  1  0  0  0  0
  9 22  1  0  0  0  0
 11 12  1  0  0  0  0
 11 13  1  0  0  0  0
 11 14  1  0  0  0  0
 14 15  1  0  0  0  0
 14 20  2  0  0  0  0
 15 16  2  0  0  0  0
 16 17  1  0  0  0  0
 16 18  1  0  0  0  0
 18 19  1  0  0  0  0
 18 20  1  0  0  0  0
 20 21  1  0  0  0  0
 22 23  2  0  0  0  0
 22 24  1  0  0  0  0
 24 25  1  0  0  0  0
 24 26  1  0  0  0  0
 26 27  1  0  0  0  0
 26 28  1  0  0  0  0
 26 29  1  0  0  0  0
M  END
$$$$

  -OEChem-01062216083D

 29 29  0     1  0  0  0  0  0999 V2000
   -2.8386   -3.1546    1.2326 H   0  0  0  0  0  0  0  0  0  0  0  0
   -2.9310   -2.1072    0.9312 C   0  0  0  0  0  0  0  0  0  0  0  0
   -3.3186   -1.5331    1.7763 H   0  0  0  0  0  0  0  0  0  0  0  0
   -3.6358   -2.0417    0.0990 H   0  0  0  0  0  0  0  0  0  0  0  0
   -1.5782   -1.5627    0.5118 C   0  0  0  0  0  0  0  0  0  0  0  0
   -0.6384   -2.3322    0.4174 O   0  0  0  0  0  0  0  0  0  0  0  0
   -1.4847   -0.2408    0.1172 N   0  0  0  0  0  0  0  0  0  0  0  0
   -2.3624    0.2629    0.2089 H   0  0  0  0  0  0  0  0  0  0  0  0
   -0.2806    0.6324    0.0887 C   0  0  1  0  0  0  0  0  0  0  0  0
   -0.5593    1.5343    0.6442 H   0  0  0  0  0  0  0  0  0  0  0  0
    1.0013    0.1192    0.7842 C   0  0  0  0  0  0  0  0  0  0  0  0
    1.3312   -0.8215    0.3365 H   0  0  0  0  0  0  0  0  0  0  0  0
    1.8117    0.8401    0.6402 H   0  0  0  0  0  0  0  0  0  0  0  0
    0.7993   -0.0385    2.2642 C   0  0  0  0  0  0  0  0  0  0  0  0
    0.7472    1.0338    3.1475 N   0  0  0  0  0  0  0  0  0  0  0  0
    0.6617    0.5217    4.3519 C   0  0  0  0  0  0  0  0  0  0  0  0
    0.6065    1.1011    5.2692 H   0  0  0  0  0  0  0  0  0  0  0  0
    0.6573   -0.8583    4.2808 N   0  0  0  0  0  0  0  0  0  0  0  0
    0.6299   -1.4901    5.0786 H   0  0  0  0  0  0  0  0  0  0  0  0
    0.7633   -1.2175    2.9545 C   0  0  0  0  0  0  0  0  0  0  0  0
    0.8246   -2.2138    2.5233 H   0  0  0  0  0  0  0  0  0  0  0  0
    0.0195    1.1356   -1.3432 C   0  0  0  0  0  0  0  0  0  0  0  0
    0.9307    1.9253   -1.5543 O   0  0  0  0  0  0  0  0  0  0  0  0
   -0.7923    0.7598   -2.3993 N   0  0  0  0  0  0  0  0  0  0  0  0
   -1.4316   -0.0074   -2.2143 H   0  0  0  0  0  0  0  0  0  0  0  0
   -0.5312    1.1405   -3.7819 C   0  0  0  0  0  0  0  0  0  0  0  0
    0.4301    0.7359   -4.1155 H   0  0  0  0  0  0  0  0  0  0  0  0
   -1.3179    0.7523   -4.4357 H   0  0  0  0  0  0  0  0  0  0  0  0
   -0.5081    2.2309   -3.8816 H   0  0  0  0  0  0  0  0  0  0  0  0
  1  2  1  0  0  0  0
  2  3  1  0  0  0  0
  2  4  1  0  0  0  0
  2  5  1  0  0  0  0
  5  6  2  0  0  0  0
  5  7  1  0  0  0  0
  7  8  1  0  0  0  0
  7  9  1  0  0  0  0
  9 10  1  0  0  0  0
  9 11  1  0  0  0  0
  9 22  1  0  0  0  0
 11 12  1  0  0  0  0
 11 13  1  0  0  0  0
 11 14  1  0  0  0  0
 14 15  1  0  0  0  0
 14 20  2  0  0  0  0
 15 16  2  0  0  0  0
 16 17  1  0  0  0  0
 16 18  1  0  0  0  0
 18 19  1  0  0  0  0
 18 20  1  0  0  0  0
 20 21  1  0  0  0  0
 22 23  2  0  0  0  0
 22 24  1  0  0  0  0
 24 25  1  0  0  0  0
 24 26  1  0  0  0  0
 26 27  1  0  0  0  0
 26 28  1  0  0  0  0
 26 29  1  0  0  0  0
M  END
$$$$

  -OEChem-01062216083D

 29 29  0     1  0  0  0  0  0999 V2000
   -2.8222   -3.1605    1.2060 H   0  0  0  0  0  0  0  0  0  0  0  0
   -2.9129   -2.1094    0.9172 C   0  0  0  0  0  0  0  0  0  0  0  0
   -3.2910   -1.5432    1.7720 H   0  0  0  0  0  0  0  0  0  0  0  0
   -3.6245   -2.0320    0.0917 H   0  0  0  0  0  0  0  0  0  0  0  0
   -1.5617   -1.5659    0.4920 C   0  0  0  0  0  0  0  0  0  0  0  0
   -0.6216   -2.3352    0.3998 O   0  0  0  0  0  0  0  0  0  0  0  0
   -1.4708   -0.2407    0.1070 N   0  0  0  0  0  0  0  0  0  0  0  0
   -2.3454    0.2620    0.2263 H   0  0  0  0  0  0  0  0  0  0  0  0
   -0.2666    0.6322    0.0830 C   0  0  1  0  0  0  0  0  0  0  0  0
   -0.5465    1.5320    0.6410 H   0  0  0  0  0  0  0  0  0  0  0  0
    1.0114    0.1165    0.7875 C   0  0  0  0  0  0  0  0  0  0  0  0
    1.3443   -0.8237    0.3416 H   0  0  0  0  0  0  0  0  0  0  0  0
    1.8241    0.8364    0.6528 H   0  0  0  0  0  0  0  0  0  0  0  0
    0.7975   -0.0389    2.2661 C   0  0  0  0  0  0  0  0  0  0  0  0
    0.7405    1.0340    3.1486 N   0  0  0  0  0  0  0  0  0  0  0  0
    0.6477    0.5224    4.3526 C   0  0  0  0  0  0  0  0  0  0  0  0
    0.5881    1.1020    5.2693 H   0  0  0  0  0  0  0  0  0  0  0  0
    0.6423   -0.8575    4.2824 N   0  0  0  0  0  0  0  0  0  0  0  0
    0.6099   -1.4888    5.0804 H   0  0  0  0  0  0  0  0  0  0  0  0
    0.7568   -1.2174    2.9569 C   0  0  0  0  0  0  0  0  0  0  0  0
    0.8222   -2.2138    2.5263 H   0  0  0  0  0  0  0  0  0  0  0  0
    0.0261    1.1439   -1.3499 C   0  0  0  0  0  0  0  0  0  0  0  0
    1.0679    1.7284   -1.6176 O   0  0  0  0  0  0  0  0  0  0  0  0
   -0.9411    1.0388   -2.3352 N   0  0  0  0  0  0  0  0  0  0  0  0
   -1.7131    0.4121   -2.1321 H   0  0  0  0  0  0  0  0  0  0  0  0
   -0.7198    1.4503   -3.7164 C   0  0  0  0  0  0  0  0  0  0  0  0
    0.0877    0.8636   -4.1669 H   0  0  0  0  0  0  0  0  0  0  0  0
   -1.6295    1.2993   -4.3054 H   0  0  0  0  0  0  0  0  0  0  0  0
   -0.4529    2.5115   -3.7625 H   0  0  0  0  0  0  0  0  0  0  0  0
  1  2  1  0  0  0  0
  2  3  1  0  0  0  0
  2  4  1  0  0  0  0
  2  5  1  0  0  0  0
  5  6  2  0  0  0  0
  5  7  1  0  0  0  0
  7  8  1  0  0  0  0
  7  9  1  0  0  0  0
  9 10  1  0  0  0  0
  9 11  1  0  0  0  0
  9 22  1  0  0  0  0
 11 12  1  0  0  0  0
 11 13  1  0  0  0  0
 11 14  1  0  0  0  0
 14 15  1  0  0  0  0
 14 20  2  0  0  0  0
 15 16  2  0  0  0  0
 16 17  1  0  0  0  0
 16 18  1  0  0  0  0
 18 19  1  0  0  0  0
 18 20  1  0  0  0  0
 20 21  1  0  0  0  0
 22 23  2  0  0  0  0
 22 24  1  0  0  0  0
 24 25  1  0  0  0  0
 24 26  1  0  0  0  0
 26 27  1  0  0  0  0
 26 28  1  0  0  0  0
 26 29  1  0  0  0  0
M  END
$$$$

  -OEChem-01062216083D

 29 29  0     1  0  0  0  0  0999 V2000
   -2.8196   -3.1675    1.1826 H   0  0  0  0  0  0  0  0  0  0  0  0
   -2.9082   -2.1204    0.8789 C   0  0  0  0  0  0  0  0  0  0  0  0
   -3.3081   -1.5458    1.7178 H   0  0  0  0  0  0  0  0  0  0  0  0
   -3.6018   -2.0565    0.0370 H   0  0  0  0  0  0  0  0  0  0  0  0
   -1.5499   -1.5759    0.4768 C   0  0  0  0  0  0  0  0  0  0  0  0
   -0.6083   -2.3457    0.4068 O   0  0  0  0  0  0  0  0  0  0  0  0
   -1.4540   -0.2481    0.1002 N   0  0  0  0  0  0  0  0  0  0  0  0
   -2.3269    0.2546    0.2254 H   0  0  0  0  0  0  0  0  0  0  0  0
   -0.2456    0.6184    0.0752 C   0  0  1  0  0  0  0  0  0  0  0  0
   -0.5228    1.5190    0.6329 H   0  0  0  0  0  0  0  0  0  0  0  0
    1.0279    0.1026    0.7883 C   0  0  0  0  0  0  0  0  0  0  0  0
    1.3592   -0.8423    0.3506 H   0  0  0  0  0  0  0  0  0  0  0  0
    1.8442    0.8186    0.6530 H   0  0  0  0  0  0  0  0  0  0  0  0
    0.8045   -0.0399    2.2667 C   0  0  0  0  0  0  0  0  0  0  0  0
    0.7471    1.0416    3.1392 N   0  0  0  0  0  0  0  0  0  0  0  0
    0.6428    0.5407    4.3469 C   0  0  0  0  0  0  0  0  0  0  0  0
    0.5784    1.1286    5.2582 H   0  0  0  0  0  0  0  0  0  0  0  0
    0.6317   -0.8398    4.2887 N   0  0  0  0  0  0  0  0  0  0  0  0
    0.5916   -1.4640    5.0920 H   0  0  0  0  0  0  0  0  0  0  0  0
    0.7535   -1.2120    2.9673 C   0  0  0  0  0  0  0  0  0  0  0  0
    0.8170   -2.2121    2.5453 H   0  0  0  0  0  0  0  0  0  0  0  0
    0.0387    1.1366   -1.3580 C   0  0  0  0  0  0  0  0  0  0  0  0
    1.1620    1.4701   -1.7133 O   0  0  0  0  0  0  0  0  0  0  0  0
   -1.0106    1.3311   -2.2410 N   0  0  0  0  0  0  0  0  0  0  0  0
   -1.9006    0.9196   -1.9826 H   0  0  0  0  0  0  0  0  0  0  0  0
   -0.8267    1.7988   -3.6100 C   0  0  0  0  0  0  0  0  0  0  0  0
   -0.2160    1.0896   -4.1785 H   0  0  0  0  0  0  0  0  0  0  0  0
   -1.7957    1.9006   -4.1077 H   0  0  0  0  0  0  0  0  0  0  0  0
   -0.3319    2.7757   -3.6184 H   0  0  0  0  0  0  0  0  0  0  0  0
  1  2  1  0  0  0  0
  2  3  1  0  0  0  0
  2  4  1  0  0  0  0
  2  5  1  0  0  0  0
  5  6  2  0  0  0  0
  5  7  1  0  0  0  0
  7  8  1  0  0  0  0
  7  9  1  0  0  0  0
  9 10  1  0  0  0  0
  9 11  1  0  0  0  0
  9 22  1  0  0  0  0
 11 12  1  0  0  0  0
 11 13  1  0  0  0  0
 11 14  1  0  0  0  0
 14 15  1  0  0  0  0
 14 20  2  0  0  0  0
 15 16  2  0  0  0  0
 16 17  1  0  0  0  0
 16 18  1  0  0  0  0
 18 19  1  0  0  0  0
 18 20  1  0  0  0  0
 20 21  1  0  0  0  0
 22 23  2  0  0  0  0
 22 24  1  0  0  0  0
 24 25  1  0  0  0  0
 24 26  1  0  0  0  0
 26 27  1  0  0  0  0
 26 28  1  0  0  0  0
 26 29  1  0  0  0  0
M  END
$$$$

  -OEChem-01062216083D

 29 29  0     1  0  0  0  0  0999 V2000
   -2.8515   -3.1817    1.1249 H   0  0  0  0  0  0  0  0  0  0  0  0
   -2.9294   -2.1353    0.8159 C   0  0  0  0  0  0  0  0  0  0  0  0
   -3.3688   -1.5610    1.6350 H   0  0  0  0  0  0  0  0  0  0  0  0
   -3.5835   -2.0747   -0.0573 H   0  0  0  0  0  0  0  0  0  0  0  0
   -1.5557   -1.5875    0.4751 C   0  0  0  0  0  0  0  0  0  0  0  0
   -0.6097   -2.3548    0.4608 O   0  0  0  0  0  0  0  0  0  0  0  0
   -1.4493   -0.2594    0.1017 N   0  0  0  0  0  0  0  0  0  0  0  0
   -2.3294    0.2396    0.1729 H   0  0  0  0  0  0  0  0  0  0  0  0
   -0.2385    0.6020    0.0731 C   0  0  1  0  0  0  0  0  0  0  0  0
   -0.5134    1.5022    0.6323 H   0  0  0  0  0  0  0  0  0  0  0  0
    1.0366    0.0940    0.7873 C   0  0  0  0  0  0  0  0  0  0  0  0
    1.3664   -0.8551    0.3571 H   0  0  0  0  0  0  0  0  0  0  0  0
    1.8512    0.8095    0.6402 H   0  0  0  0  0  0  0  0  0  0  0  0
    0.8168   -0.0370    2.2670 C   0  0  0  0  0  0  0  0  0  0  0  0
    0.7606    1.0547    3.1274 N   0  0  0  0  0  0  0  0  0  0  0  0
    0.6599    0.5665    4.3408 C   0  0  0  0  0  0  0  0  0  0  0  0
    0.5973    1.1639    5.2458 H   0  0  0  0  0  0  0  0  0  0  0  0
    0.6512   -0.8146    4.2978 N   0  0  0  0  0  0  0  0  0  0  0  0
    0.6117   -1.4305    5.1075 H   0  0  0  0  0  0  0  0  0  0  0  0
    0.7708   -1.2013    2.9805 C   0  0  0  0  0  0  0  0  0  0  0  0
    0.8354   -2.2058    2.5686 H   0  0  0  0  0  0  0  0  0  0  0  0
    0.0398    1.1208   -1.3600 C   0  0  0  0  0  0  0  0  0  0  0  0
    1.1715    1.1700   -1.8252 O   0  0  0  0  0  0  0  0  0  0  0  0
   -1.0026    1.6149   -2.1271 N   0  0  0  0  0  0  0  0  0  0  0  0
   -1.9396    1.5365   -1.7492 H   0  0  0  0  0  0  0  0  0  0  0  0
   -0.8285    2.1358   -3.4777 C   0  0  0  0  0  0  0  0  0  0  0  0
   -0.4112    1.3654   -4.1345 H   0  0  0  0  0  0  0  0  0  0  0  0
   -1.7916    2.4551   -3.8871 H   0  0  0  0  0  0  0  0  0  0  0  0
   -0.1528    2.9976   -3.4714 H   0  0  0  0  0  0  0  0  0  0  0  0
  1  2  1  0  0  0  0
  2  3  1  0  0  0  0
  2  4  1  0  0  0  0
  2  5  1  0  0  0  0
  5  6  2  0  0  0  0
  5  7  1  0  0  0  0
  7  8  1  0  0  0  0
  7  9  1  0  0  0  0
  9 10  1  0  0  0  0
  9 11  1  0  0  0  0
  9 22  1  0  0  0  0
 11 12  1  0  0  0  0
 11 13  1  0  0  0  0
 11 14  1  0  0  0  0
 14 15  1  0  0  0  0
 14 20  2  0  0  0  0
 15 16  2  0  0  0  0
 16 17  1  0  0  0  0
 16 18  1  0  0  0  0
 18 19  1  0  0  0  0
 18 20  1  0  0  0  0
 20 21  1  0  0  0  0
 22 23  2  0  0  0  0
 22 24  1  0  0  0  0
 24 25  1  0  0  0  0
 24 26  1  0  0  0  0
 26 27  1  0  0  0  0
 26 28  1  0  0  0  0
 26 29  1  0  0  0  0
M  END
$$$$

  -OEChem-01062216083D

 29 29  0     1  0  0  0  0  0999 V2000
   -2.9130   -3.2007    1.0314 H   0  0  0  0  0  0  0  0  0  0  0  0
   -2.9728   -2.1517    0.7274 C   0  0  0  0  0  0  0  0  0  0  0  0
   -3.4727   -1.5866    1.5177 H   0  0  0  0  0  0  0  0  0  0  0  0
   -3.5624   -2.0857   -0.1902 H   0  0  0  0  0  0  0  0  0  0  0  0
   -1.5806   -1.5957    0.4908 C   0  0  0  0  0  0  0  0  0  0  0  0
   -0.6323   -2.3564    0.5649 O   0  0  0  0  0  0  0  0  0  0  0  0
   -1.4566   -0.2696    0.1147 N   0  0  0  0  0  0  0  0  0  0  0  0
   -2.3434    0.2192    0.0621 H   0  0  0  0  0  0  0  0  0  0  0  0
   -0.2442    0.5874    0.0775 C   0  0  1  0  0  0  0  0  0  0  0  0
   -0.5149    1.4889    0.6367 H   0  0  0  0  0  0  0  0  0  0  0  0
    1.0371    0.0908    0.7855 C   0  0  0  0  0  0  0  0  0  0  0  0
    1.3615   -0.8630    0.3611 H   0  0  0  0  0  0  0  0  0  0  0  0
    1.8482    0.8057    0.6173 H   0  0  0  0  0  0  0  0  0  0  0  0
    0.8351   -0.0303    2.2692 C   0  0  0  0  0  0  0  0  0  0  0  0
    0.7857    1.0739    3.1146 N   0  0  0  0  0  0  0  0  0  0  0  0
    0.7025    0.6029    4.3360 C   0  0  0  0  0  0  0  0  0  0  0  0
    0.6476    1.2134    5.2327 H   0  0  0  0  0  0  0  0  0  0  0  0
    0.7002   -0.7784    4.3139 N   0  0  0  0  0  0  0  0  0  0  0  0
    0.6713   -1.3823    5.1329 H   0  0  0  0  0  0  0  0  0  0  0  0
    0.8045   -1.1837    3.0011 C   0  0  0  0  0  0  0  0  0  0  0  0
    0.8662   -2.1944    2.6048 H   0  0  0  0  0  0  0  0  0  0  0  0
    0.0250    1.0973   -1.3580 C   0  0  0  0  0  0  0  0  0  0  0  0
    1.0772    0.8702   -1.9413 O   0  0  0  0  0  0  0  0  0  0  0  0
   -0.9317    1.8670   -1.9999 N   0  0  0  0  0  0  0  0  0  0  0  0
   -1.7666    2.1103   -1.4784 H   0  0  0  0  0  0  0  0  0  0  0  0
   -0.7368    2.4451   -3.3246 C   0  0  0  0  0  0  0  0  0  0  0  0
   -0.5292    1.6598   -4.0593 H   0  0  0  0  0  0  0  0  0  0  0  0
   -1.6369    2.9817   -3.6396 H   0  0  0  0  0  0  0  0  0  0  0  0
    0.1015    3.1498   -3.3155 H   0  0  0  0  0  0  0  0  0  0  0  0
  1  2  1  0  0  0  0
  2  3  1  0  0  0  0
  2  4  1  0  0  0  0
  2  5  1  0  0  0  0
  5  6  2  0  0  0  0
  5  7  1  0  0  0  0
  7  8  1  0  0  0  0
  7  9  1  0  0  0  0
  9 10  1  0  0  0  0
  9 11  1  0  0  0  0
  9 22  1  0  0  0  0
 11 12  1  0  0  0  0
 11 13  1  0  0  0  0
 11 14  1  0  0  0  0
 14 15  1  0  0  0  0
 14 20  2  0  0  0  0
 15 16  2  0  0  0  0
 16 17  1  0  0  0  0
 16 18  1  0  0  0  0
 18 19  1  0  0  0  0
 18 20  1  0  0  0  0
 20 21  1  0  0  0  0
 22 23  2  0  0  0  0
 22 24  1  0  0  0  0
 24 25  1  0  0  0  0
 24 26  1  0  0  0  0
 26 27  1  0  0  0  0
 26 28  1  0  0  0  0
 26 29  1  0  0  0  0
M  END
$$$$

  -OEChem-01062216083D

 29 29  0     1  0  0  0  0  0999 V2000
   -2.9580   -3.2065    0.9662 H   0  0  0  0  0  0  0  0  0  0  0  0
   -3.0062   -2.1566    0.6630 C   0  0  0  0  0  0  0  0  0  0  0  0
   -3.5502   -1.5963    1.4271 H   0  0  0  0  0  0  0  0  0  0  0  0
   -3.5460   -2.0899   -0.2846 H   0  0  0  0  0  0  0  0  0  0  0  0
   -1.6064   -1.5923    0.5035 C   0  0  0  0  0  0  0  0  0  0  0  0
   -0.6594   -2.3454    0.6421 O   0  0  0  0  0  0  0  0  0  0  0  0
   -1.4726   -0.2673    0.1274 N   0  0  0  0  0  0  0  0  0  0  0  0
   -2.3566    0.2103   -0.0115 H   0  0  0  0  0  0  0  0  0  0  0  0
   -0.2597    0.5863    0.0851 C   0  0  1  0  0  0  0  0  0  0  0  0
   -0.5286    1.4854    0.6489 H   0  0  0  0  0  0  0  0  0  0  0  0
    1.0295    0.0980    0.7814 C   0  0  0  0  0  0  0  0  0  0  0  0
    1.3475   -0.8587    0.3580 H   0  0  0  0  0  0  0  0  0  0  0  0
    1.8371    0.8127    0.5975 H   0  0  0  0  0  0  0  0  0  0  0  0
    0.8457   -0.0217    2.2677 C   0  0  0  0  0  0  0  0  0  0  0  0
    0.8015    1.0881    3.1064 N   0  0  0  0  0  0  0  0  0  0  0  0
    0.7383    0.6245    4.3321 C   0  0  0  0  0  0  0  0  0  0  0  0
    0.6914    1.2400    5.2259 H   0  0  0  0  0  0  0  0  0  0  0  0
    0.7466   -0.7568    4.3189 N   0  0  0  0  0  0  0  0  0  0  0  0
    0.7302   -1.3560    5.1416 H   0  0  0  0  0  0  0  0  0  0  0  0
    0.8365   -1.1702    3.0076 C   0  0  0  0  0  0  0  0  0  0  0  0
    0.9008   -2.1829    2.6170 H   0  0  0  0  0  0  0  0  0  0  0  0
    0.0046    1.0939   -1.3495 C   0  0  0  0  0  0  0  0  0  0  0  0
    0.9082    0.6391   -2.0387 O   0  0  0  0  0  0  0  0  0  0  0  0
   -0.7862    2.1050   -1.8703 N   0  0  0  0  0  0  0  0  0  0  0  0
   -1.4578    2.5416   -1.2470 H   0  0  0  0  0  0  0  0  0  0  0  0
   -0.5519    2.7045   -3.1790 C   0  0  0  0  0  0  0  0  0  0  0  0
   -0.5819    1.9397   -3.9623 H   0  0  0  0  0  0  0  0  0  0  0  0
   -1.3218    3.4506   -3.3973 H   0  0  0  0  0  0  0  0  0  0  0  0
    0.4260    3.1967   -3.2046 H   0  0  0  0  0  0  0  0  0  0  0  0
  1  2  1  0  0  0  0
  2  3  1  0  0  0  0
  2  4  1  0  0  0  0
  2  5  1  0  0  0  0
  5  6  2  0  0  0  0
  5  7  1  0  0  0  0
  7  8  1  0  0  0  0
  7  9  1  0  0  0  0
  9 10  1  0  0  0  0
  9 11  1  0  0  0  0
  9 22  1  0  0  0  0
 11 12  1  0  0  0  0
 11 13  1  0  0  0  0
 11 14  1  0  0  0  0
 14 15  1  0  0  0  0
 14 20  2  0  0  0  0
 15 16  2  0  0  0  0
 16 17  1  0  0  0  0
 16 18  1  0  0  0  0
 18 19  1  0  0  0  0
 18 20  1  0  0  0  0
 20 21  1  0  0  0  0
 22 23  2  0  0  0  0
 22 24  1  0  0  0  0
 24 25  1  0  0  0  0
 24 26  1  0  0  0  0
 26 27  1  0  0  0  0
 26 28  1  0  0  0  0
 26 29  1  0  0  0  0
M  END
$$$$

  -OEChem-01062216083D

 29 29  0     1  0  0  0  0  0999 V2000
   -2.9832   -3.2025    0.9180 H   0  0  0  0  0  0  0  0  0  0  0  0
   -3.0253   -2.1519    0.6163 C   0  0  0  0  0  0  0  0  0  0  0  0
   -3.6004   -1.5968    1.3612 H   0  0  0  0  0  0  0  0  0  0  0  0
   -3.5294   -2.0848   -0.3508 H   0  0  0  0  0  0  0  0  0  0  0  0
   -1.6233   -1.5804    0.5108 C   0  0  0  0  0  0  0  0  0  0  0  0
   -0.6792   -2.3283    0.6914 O   0  0  0  0  0  0  0  0  0  0  0  0
   -1.4834   -0.2549    0.1389 N   0  0  0  0  0  0  0  0  0  0  0  0
   -2.3619    0.2139   -0.0554 H   0  0  0  0  0  0  0  0  0  0  0  0
   -0.2699    0.5962    0.0967 C   0  0  1  0  0  0  0  0  0  0  0  0
   -0.5390    1.4897    0.6687 H   0  0  0  0  0  0  0  0  0  0  0  0
    1.0256    0.1102    0.7808 C   0  0  0  0  0  0  0  0  0  0  0  0
    1.3389   -0.8459    0.3519 H   0  0  0  0  0  0  0  0  0  0  0  0
    1.8305    0.8261    0.5907 H   0  0  0  0  0  0  0  0  0  0  0  0
    0.8557   -0.0162    2.2683 C   0  0  0  0  0  0  0  0  0  0  0  0
    0.8157    1.0943    3.1066 N   0  0  0  0  0  0  0  0  0  0  0  0
    0.7647    0.6312    4.3332 C   0  0  0  0  0  0  0  0  0  0  0  0
    0.7225    1.2472    5.2268 H   0  0  0  0  0  0  0  0  0  0  0  0
    0.7800   -0.7499    4.3212 N   0  0  0  0  0  0  0  0  0  0  0  0
    0.7695   -1.3485    5.1444 H   0  0  0  0  0  0  0  0  0  0  0  0
    0.8602   -1.1639    3.0094 C   0  0  0  0  0  0  0  0  0  0  0  0
    0.9240   -2.1768    2.6191 H   0  0  0  0  0  0  0  0  0  0  0  0
   -0.0029    1.1096   -1.3337 C   0  0  0  0  0  0  0  0  0  0  0  0
    0.6828    0.4734   -2.1226 O   0  0  0  0  0  0  0  0  0  0  0  0
   -0.5581    2.3097   -1.7454 N   0  0  0  0  0  0  0  0  0  0  0  0
   -1.0412    2.8660   -1.0466 H   0  0  0  0  0  0  0  0  0  0  0  0
   -0.3068    2.8952   -3.0569 C   0  0  0  0  0  0  0  0  0  0  0  0
   -0.5917    2.1962   -3.8502 H   0  0  0  0  0  0  0  0  0  0  0  0
   -0.8911    3.8120   -3.1806 H   0  0  0  0  0  0  0  0  0  0  0  0
    0.7542    3.1414   -3.1692 H   0  0  0  0  0  0  0  0  0  0  0  0
  1  2  1  0  0  0  0
  2  3  1  0  0  0  0
  2  4  1  0  0  0  0
  2  5  1  0  0  0  0
  5  6  2  0  0  0  0
  5  7  1  0  0  0  0
  7  8  1  0  0  0  0
  7  9  1  0  0  0  0
  9 10  1  0  0  0  0
  9 11  1  0  0  0  0
  9 22  1  0  0  0  0
 11 12  1  0  0  0  0
 11 13  1  0  0  0  0
 11 14  1  0  0  0  0
 14 15  1  0  0  0  0
 14 20  2  0  0  0  0
 15 16  2  0  0  0  0
 16 17  1  0  0  0  0
 16 18  1  0  0  0  0
 18 19  1  0  0  0  0
 18 20  1  0  0  0  0
 20 21  1  0  0  0  0
 22 23  2  0  0  0  0
 22 24  1  0  0  0  0
 24 25  1  0  0  0  0
 24 26  1  0  0  0  0
 26 27  1  0  0  0  0
 26 28  1  0  0  0  0
 26 29  1  0  0  0  0
M  END
$$$$

  -OEChem-01062216083D

 29 29  0     1  0  0  0  0  0999 V2000
   -3.0059   -3.2042    0.8686 H   0  0  0  0  0  0  0  0  0  0  0  0
   -3.0443   -2.1524    0.5712 C   0  0  0  0  0  0  0  0  0  0  0  0
   -3.6482   -1.6041    1.2981 H   0  0  0  0  0  0  0  0  0  0  0  0
   -3.5152   -2.0835   -0.4124 H   0  0  0  0  0  0  0  0  0  0  0  0
   -1.6429   -1.5719    0.5175 C   0  0  0  0  0  0  0  0  0  0  0  0
   -0.7015   -2.3118    0.7417 O   0  0  0  0  0  0  0  0  0  0  0  0
   -1.4985   -0.2467    0.1477 N   0  0  0  0  0  0  0  0  0  0  0  0
   -2.3691    0.2115   -0.1006 H   0  0  0  0  0  0  0  0  0  0  0  0
   -0.2836    0.6014    0.1062 C   0  0  1  0  0  0  0  0  0  0  0  0
   -0.5583    1.4902    0.6828 H   0  0  0  0  0  0  0  0  0  0  0  0
    1.0163    0.1209    0.7833 C   0  0  0  0  0  0  0  0  0  0  0  0
    1.3289   -0.8341    0.3512 H   0  0  0  0  0  0  0  0  0  0  0  0
    1.8171    0.8402    0.5891 H   0  0  0  0  0  0  0  0  0  0  0  0
    0.8599   -0.0082    2.2721 C   0  0  0  0  0  0  0  0  0  0  0  0
    0.8227    1.1040    3.1083 N   0  0  0  0  0  0  0  0  0  0  0  0
    0.7917    0.6430    4.3364 C   0  0  0  0  0  0  0  0  0  0  0  0
    0.7547    1.2607    5.2289 H   0  0  0  0  0  0  0  0  0  0  0  0
    0.8204   -0.7379    4.3275 N   0  0  0  0  0  0  0  0  0  0  0  0
    0.8267   -1.3349    5.1521 H   0  0  0  0  0  0  0  0  0  0  0  0
    0.8865   -1.1540    3.0157 C   0  0  0  0  0  0  0  0  0  0  0  0
    0.9554   -2.1670    2.6268 H   0  0  0  0  0  0  0  0  0  0  0  0
   -0.0080    1.1208   -1.3197 C   0  0  0  0  0  0  0  0  0  0  0  0
    0.3980    0.3715   -2.1976 O   0  0  0  0  0  0  0  0  0  0  0  0
   -0.2786    2.4409   -1.6375 N   0  0  0  0  0  0  0  0  0  0  0  0
   -0.5359    3.0616   -0.8755 H   0  0  0  0  0  0  0  0  0  0  0  0
   -0.0044    3.0172   -2.9489 C   0  0  0  0  0  0  0  0  0  0  0  0
   -0.5363    2.4646   -3.7307 H   0  0  0  0  0  0  0  0  0  0  0  0
   -0.3345    4.0599   -2.9801 H   0  0  0  0  0  0  0  0  0  0  0  0
    1.0689    2.9861   -3.1644 H   0  0  0  0  0  0  0  0  0  0  0  0
  1  2  1  0  0  0  0
  2  3  1  0  0  0  0
  2  4  1  0  0  0  0
  2  5  1  0  0  0  0
  5  6  2  0  0  0  0
  5  7  1  0  0  0  0
  7  8  1  0  0  0  0
  7  9  1  0  0  0  0
  9 10  1  0  0  0  0
  9 11  1  0  0  0  0
  9 22  1  0  0  0  0
 11 12  1  0  0  0  0
 11 13  1  0  0  0  0
 11 14  1  0  0  0  0
 14 15  1  0  0  0  0
 14 20  2  0  0  0  0
 15 16  2  0  0  0  0
 16 17  1  0  0  0  0
 16 18  1  0  0  0  0
 18 19  1  0  0  0  0
 18 20  1  0  0  0  0
 20 21  1  0  0  0  0
 22 23  2  0  0  0  0
 22 24  1  0  0  0  0
 24 25  1  0  0  0  0
 24 26  1  0  0  0  0
 26 27  1  0  0  0  0
 26 28  1  0  0  0  0
 26 29  1  0  0  0  0
M  END
$$$$

  -OEChem-01062216083D

 29 29  0     1  0  0  0  0  0999 V2000
   -3.0233   -3.1992    0.8211 H   0  0  0  0  0  0  0  0  0  0  0  0
   -3.0527   -2.1459    0.5277 C   0  0  0  0  0  0  0  0  0  0  0  0
   -3.6844   -1.6019    1.2339 H   0  0  0  0  0  0  0  0  0  0  0  0
   -3.4863   -2.0727   -0.4726 H   0  0  0  0  0  0  0  0  0  0  0  0
   -1.6520   -1.5618    0.5279 C   0  0  0  0  0  0  0  0  0  0  0  0
   -0.7170   -2.2994    0.7850 O   0  0  0  0  0  0  0  0  0  0  0  0
   -1.4986   -0.2375    0.1606 N   0  0  0  0  0  0  0  0  0  0  0  0
   -2.3555    0.2084   -0.1507 H   0  0  0  0  0  0  0  0  0  0  0  0
   -0.2778    0.6012    0.1142 C   0  0  1  0  0  0  0  0  0  0  0  0
   -0.5511    1.4903    0.6912 H   0  0  0  0  0  0  0  0  0  0  0  0
    1.0228    0.1179    0.7878 C   0  0  0  0  0  0  0  0  0  0  0  0
    1.3269   -0.8409    0.3583 H   0  0  0  0  0  0  0  0  0  0  0  0
    1.8272    0.8312    0.5872 H   0  0  0  0  0  0  0  0  0  0  0  0
    0.8749   -0.0054    2.2780 C   0  0  0  0  0  0  0  0  0  0  0  0
    0.8479    1.1118    3.1079 N   0  0  0  0  0  0  0  0  0  0  0  0
    0.8176    0.6575    4.3387 C   0  0  0  0  0  0  0  0  0  0  0  0
    0.7869    1.2800    5.2284 H   0  0  0  0  0  0  0  0  0  0  0  0
    0.8392   -0.7236    4.3369 N   0  0  0  0  0  0  0  0  0  0  0  0
    0.8397   -1.3169    5.1641 H   0  0  0  0  0  0  0  0  0  0  0  0
    0.8984   -1.1472    3.0274 C   0  0  0  0  0  0  0  0  0  0  0  0
    0.9579   -2.1629    2.6443 H   0  0  0  0  0  0  0  0  0  0  0  0
    0.0004    1.1254   -1.3093 C   0  0  0  0  0  0  0  0  0  0  0  0
    0.0830    0.3573   -2.2585 O   0  0  0  0  0  0  0  0  0  0  0  0
    0.0435    2.4886   -1.5452 N   0  0  0  0  0  0  0  0  0  0  0  0
    0.0269    3.1036   -0.7363 H   0  0  0  0  0  0  0  0  0  0  0  0
    0.3043    3.0639   -2.8593 C   0  0  0  0  0  0  0  0  0  0  0  0
   -0.4412    2.7204   -3.5841 H   0  0  0  0  0  0  0  0  0  0  0  0
    0.2583    4.1560   -2.8099 H   0  0  0  0  0  0  0  0  0  0  0  0
    1.2992    2.7742   -3.2130 H   0  0  0  0  0  0  0  0  0  0  0  0
  1  2  1  0  0  0  0
  2  3  1  0  0  0  0
  2  4  1  0  0  0  0
  2  5  1  0  0  0  0
  5  6  2  0  0  0  0
  5  7  1  0  0  0  0
  7  8  1  0  0  0  0
  7  9  1  0  0  0  0
  9 10  1  0  0  0  0
  9 11  1  0  0  0  0
  9 22  1  0  0  0  0
 11 12  1  0  0  0  0
 11 13  1  0  0  0  0
 11 14  1  0  0  0  0
 14 15  1  0  0  0  0
 14 20  2  0  0  0  0
 15 16  2  0  0  0  0
 16 17  1  0  0  0  0
 16 18  1  0  0  0  0
 18 19  1  0  0  0  0
 18 20  1  0  0  0  0
 20 21  1  0  0  0  0
 22 23  2  0  0  0  0
 22 24  1  0  0  0  0
 24 25  1  0  0  0  0
 24 26  1  0  0  0  0
 26 27  1  0  0  0  0
 26 28  1  0  0  0  0
 26 29  1  0  0  0  0
M  END
$$$$

  -OEChem-01062216083D

 29 29  0     1  0  0  0  0  0999 V2000
   -3.0370   -3.1941    0.8093 H   0  0  0  0  0  0  0  0  0  0  0  0
   -3.0608   -2.1415    0.5135 C   0  0  0  0  0  0  0  0  0  0  0  0
   -3.7019   -1.5955    1.2093 H   0  0  0  0  0  0  0  0  0  0  0  0
   -3.4803   -2.0695   -0.4929 H   0  0  0  0  0  0  0  0  0  0  0  0
   -1.6597   -1.5588    0.5332 C   0  0  0  0  0  0  0  0  0  0  0  0
   -0.7291   -2.2964    0.8069 O   0  0  0  0  0  0  0  0  0  0  0  0
   -1.4986   -0.2350    0.1682 N   0  0  0  0  0  0  0  0  0  0  0  0
   -2.3424    0.2022   -0.1888 H   0  0  0  0  0  0  0  0  0  0  0  0
   -0.2720    0.5949    0.1132 C   0  0  1  0  0  0  0  0  0  0  0  0
   -0.5413    1.4857    0.6897 H   0  0  0  0  0  0  0  0  0  0  0  0
    1.0284    0.1055    0.7843 C   0  0  0  0  0  0  0  0  0  0  0  0
    1.3239   -0.8576    0.3588 H   0  0  0  0  0  0  0  0  0  0  0  0
    1.8378    0.8114    0.5785 H   0  0  0  0  0  0  0  0  0  0  0  0
    0.8859   -0.0097    2.2758 C   0  0  0  0  0  0  0  0  0  0  0  0
    0.8707    1.1142    3.0967 N   0  0  0  0  0  0  0  0  0  0  0  0
    0.8368    0.6700    4.3312 C   0  0  0  0  0  0  0  0  0  0  0  0
    0.8105    1.2998    5.2157 H   0  0  0  0  0  0  0  0  0  0  0  0
    0.8488   -0.7113    4.3405 N   0  0  0  0  0  0  0  0  0  0  0  0
    0.8436   -1.2978    5.1726 H   0  0  0  0  0  0  0  0  0  0  0  0
    0.9029   -1.1458    3.0342 C   0  0  0  0  0  0  0  0  0  0  0  0
    0.9519   -2.1652    2.6596 H   0  0  0  0  0  0  0  0  0  0  0  0
    0.0076    1.1266   -1.3079 C   0  0  0  0  0  0  0  0  0  0  0  0
   -0.2158    0.4383   -2.2956 O   0  0  0  0  0  0  0  0  0  0  0  0
    0.3696    2.4508   -1.4843 N   0  0  0  0  0  0  0  0  0  0  0  0
    0.5719    2.9949   -0.6496 H   0  0  0  0  0  0  0  0  0  0  0  0
    0.6360    3.0412   -2.7907 C   0  0  0  0  0  0  0  0  0  0  0  0
   -0.2342    2.9324   -3.4468 H   0  0  0  0  0  0  0  0  0  0  0  0
    0.8564    4.1078   -2.6854 H   0  0  0  0  0  0  0  0  0  0  0  0
    1.4957    2.5540   -3.2626 H   0  0  0  0  0  0  0  0  0  0  0  0
  1  2  1  0  0  0  0
  2  3  1  0  0  0  0
  2  4  1  0  0  0  0
  2  5  1  0  0  0  0
  5  6  2  0  0  0  0
  5  7  1  0  0  0  0
  7  8  1  0  0  0  0
  7  9  1  0  0  0  0
  9 10  1  0  0  0  0
  9 11  1  0  0  0  0
  9 22  1  0  0  0  0
 11 12  1  0  0  0  0
 11 13  1  0  0  0  0
 11 14  1  0  0  0  0
 14 15  1  0  0  0  0
 14 20  2  0  0  0  0
 15 16  2  0  0  0  0
 16 17  1  0  0  0  0
 16 18  1  0  0  0  0
 18 19  1  0  0  0  0
 18 20  1  0  0  0  0
 20 21  1  0  0  0  0
 22 23  2  0  0  0  0
 22 24  1  0  0  0  0
 24 25  1  0  0  0  0
 24 26  1  0  0  0  0
 26 27  1  0  0  0  0
 26 28  1  0  0  0  0
 26 29  1  0  0  0  0
M  END
$$$$

  -OEChem-01062216083D

 29 29  0     1  0  0  0  0  0999 V2000
   -3.0459   -3.1800    0.8104 H   0  0  0  0  0  0  0  0  0  0  0  0
   -3.0581   -2.1317    0.4988 C   0  0  0  0  0  0  0  0  0  0  0  0
   -3.7124   -1.5731    1.1723 H   0  0  0  0  0  0  0  0  0  0  0  0
   -3.4540   -2.0720   -0.5181 H   0  0  0  0  0  0  0  0  0  0  0  0
   -1.6552   -1.5548    0.5414 C   0  0  0  0  0  0  0  0  0  0  0  0
   -0.7307   -2.2994    0.8177 O   0  0  0  0  0  0  0  0  0  0  0  0
   -1.4823   -0.2320    0.1794 N   0  0  0  0  0  0  0  0  0  0  0  0
   -2.3116    0.1995   -0.2175 H   0  0  0  0  0  0  0  0  0  0  0  0
   -0.2487    0.5870    0.1162 C   0  0  1  0  0  0  0  0  0  0  0  0
   -0.5072    1.4832    0.6896 H   0  0  0  0  0  0  0  0  0  0  0  0
    1.0469    0.0834    0.7894 C   0  0  0  0  0  0  0  0  0  0  0  0
    1.3293   -0.8859    0.3688 H   0  0  0  0  0  0  0  0  0  0  0  0
    1.8675    0.7757    0.5826 H   0  0  0  0  0  0  0  0  0  0  0  0
    0.9021   -0.0224    2.2814 C   0  0  0  0  0  0  0  0  0  0  0  0
    0.9023    1.1086    3.0922 N   0  0  0  0  0  0  0  0  0  0  0  0
    0.8534    0.6763    4.3302 C   0  0  0  0  0  0  0  0  0  0  0  0
    0.8328    1.3146    5.2089 H   0  0  0  0  0  0  0  0  0  0  0  0
    0.8403   -0.7048    4.3514 N   0  0  0  0  0  0  0  0  0  0  0  0
    0.8119   -1.2837    5.1883 H   0  0  0  0  0  0  0  0  0  0  0  0
    0.8939   -1.1521    3.0494 C   0  0  0  0  0  0  0  0  0  0  0  0
    0.9232   -2.1758    2.6845 H   0  0  0  0  0  0  0  0  0  0  0  0
    0.0251    1.1214   -1.3058 C   0  0  0  0  0  0  0  0  0  0  0  0
   -0.4716    0.5854   -2.2894 O   0  0  0  0  0  0  0  0  0  0  0  0
    0.6885    2.3252   -1.4667 N   0  0  0  0  0  0  0  0  0  0  0  0
    1.0690    2.7654   -0.6328 H   0  0  0  0  0  0  0  0  0  0  0  0
    0.9290    2.9446   -2.7642 C   0  0  0  0  0  0  0  0  0  0  0  0
   -0.0190    3.1587   -3.2688 H   0  0  0  0  0  0  0  0  0  0  0  0
    1.4730    3.8855   -2.6382 H   0  0  0  0  0  0  0  0  0  0  0  0
    1.5255    2.2822   -3.4004 H   0  0  0  0  0  0  0  0  0  0  0  0
  1  2  1  0  0  0  0
  2  3  1  0  0  0  0
  2  4  1  0  0  0  0
  2  5  1  0  0  0  0
  5  6  2  0  0  0  0
  5  7  1  0  0  0  0
  7  8  1  0  0  0  0
  7  9  1  0  0  0  0
  9 10  1  0  0  0  0
  9 11  1  0  0  0  0
  9 22  1  0  0  0  0
 11 12  1  0  0  0  0
 11 13  1  0  0  0  0
 11 14  1  0  0  0  0
 14 15  1  0  0  0  0
 14 20  2  0  0  0  0
 15 16  2  0  0  0  0
 16 17  1  0  0  0  0
 16 18  1  0  0  0  0
 18 19  1  0  0  0  0
 18 20  1  0  0  0  0
 20 21  1  0  0  0  0
 22 23  2  0  0  0  0
 22 24  1  0  0  0  0
 24 25  1  0  0  0  0
 24 26  1  0  0  0  0
 26 27  1  0  0  0  0
 26 28  1  0  0  0  0
 26 29  1  0  0  0  0
M  END
$$$$

  -OEChem-01062216083D

 29 29  0     1  0  0  0  0  0999 V2000
   -3.0552   -3.1636    0.7712 H   0  0  0  0  0  0  0  0  0  0  0  0
   -3.0605   -2.1073    0.4874 C   0  0  0  0  0  0  0  0  0  0  0  0
   -3.7126   -1.5621    1.1740 H   0  0  0  0  0  0  0  0  0  0  0  0
   -3.4540   -2.0179   -0.5283 H   0  0  0  0  0  0  0  0  0  0  0  0
   -1.6543   -1.5400    0.5480 C   0  0  0  0  0  0  0  0  0  0  0  0
   -0.7362   -2.2923    0.8251 O   0  0  0  0  0  0  0  0  0  0  0  0
   -1.4701   -0.2182    0.1890 N   0  0  0  0  0  0  0  0  0  0  0  0
   -2.2873    0.2101   -0.2373 H   0  0  0  0  0  0  0  0  0  0  0  0
   -0.2350    0.5991    0.1313 C   0  0  1  0  0  0  0  0  0  0  0  0
   -0.4870    1.4990    0.7017 H   0  0  0  0  0  0  0  0  0  0  0  0
    1.0536    0.0798    0.8105 C   0  0  0  0  0  0  0  0  0  0  0  0
    1.3297   -0.8894    0.3858 H   0  0  0  0  0  0  0  0  0  0  0  0
    1.8833    0.7643    0.6173 H   0  0  0  0  0  0  0  0  0  0  0  0
    0.9021   -0.0344    2.3013 C   0  0  0  0  0  0  0  0  0  0  0  0
    0.9084    1.0901    3.1207 N   0  0  0  0  0  0  0  0  0  0  0  0
    0.8599    0.6488    4.3555 C   0  0  0  0  0  0  0  0  0  0  0  0
    0.8449    1.2803    5.2392 H   0  0  0  0  0  0  0  0  0  0  0  0
    0.8420   -0.7324    4.3664 N   0  0  0  0  0  0  0  0  0  0  0  0
    0.8173   -1.3174    5.1992 H   0  0  0  0  0  0  0  0  0  0  0  0
    0.8921   -1.1698    3.0610 C   0  0  0  0  0  0  0  0  0  0  0  0
    0.9209   -2.1906    2.6883 H   0  0  0  0  0  0  0  0  0  0  0  0
    0.0338    1.1280   -1.2961 C   0  0  0  0  0  0  0  0  0  0  0  0
   -0.6558    0.7611   -2.2414 O   0  0  0  0  0  0  0  0  0  0  0  0
    0.9471    2.1483   -1.4984 N   0  0  0  0  0  0  0  0  0  0  0  0
    1.4766    2.4703   -0.6924 H   0  0  0  0  0  0  0  0  0  0  0  0
    1.2025    2.7555   -2.7992 C   0  0  0  0  0  0  0  0  0  0  0  0
    0.2772    3.1594   -3.2236 H   0  0  0  0  0  0  0  0  0  0  0  0
    1.9213    3.5744   -2.6990 H   0  0  0  0  0  0  0  0  0  0  0  0
    1.6147    2.0150   -3.4927 H   0  0  0  0  0  0  0  0  0  0  0  0
  1  2  1  0  0  0  0
  2  3  1  0  0  0  0
  2  4  1  0  0  0  0
  2  5  1  0  0  0  0
  5  6  2  0  0  0  0
  5  7  1  0  0  0  0
  7  8  1  0  0  0  0
  7  9  1  0  0  0  0
  9 10  1  0  0  0  0
  9 11  1  0  0  0  0
  9 22  1  0  0  0  0
 11 12  1  0  0  0  0
 11 13  1  0  0  0  0
 11 14  1  0  0  0  0
 14 15  1  0  0  0  0
 14 20  2  0  0  0  0
 15 16  2  0  0  0  0
 16 17  1  0  0  0  0
 16 18  1  0  0  0  0
 18 19  1  0  0  0  0
 18 20  1  0  0  0  0
 20 21  1  0  0  0  0
 22 23  2  0  0  0  0
 22 24  1  0  0  0  0
 24 25  1  0  0  0  0
 24 26  1  0  0  0  0
 26 27  1  0  0  0  0
 26 28  1  0  0  0  0
 26 29  1  0  0  0  0
M  END
$$$$

  -OEChem-01062216083D

 29 29  0     1  0  0  0  0  0999 V2000
   -1.8262   -2.6725    1.9493 H   0  0  0  0  0  0  0  0  0  0  0  0
   -2.2175   -1.7098    1.6123 C   0  0  0  0  0  0  0  0  0  0  0  0
   -1.8991   -0.9306    2.3087 H   0  0  0  0  0  0  0  0  0  0  0  0
   -3.3093   -1.7496    1.6121 H   0  0  0  0  0  0  0  0  0  0  0  0
   -1.7214   -1.4060    0.2086 C   0  0  0  0  0  0  0  0  0  0  0  0
   -1.8092   -2.2586   -0.6551 O   0  0  0  0  0  0  0  0  0  0  0  0
   -1.6196   -0.1109   -0.2276 N   0  0  0  0  0  0  0  0  0  0  0  0
   -1.8816   -0.0878   -1.2170 H   0  0  0  0  0  0  0  0  0  0  0  0
   -0.4624    0.7837    0.0014 C   0  0  1  0  0  0  0  0  0  0  0  0
   -0.7426    1.5287    0.7530 H   0  0  0  0  0  0  0  0  0  0  0  0
    0.8614    0.0988    0.4478 C   0  0  0  0  0  0  0  0  0  0  0  0
    1.1474   -0.6320   -0.3157 H   0  0  0  0  0  0  0  0  0  0  0  0
    1.6621    0.8407    0.5064 H   0  0  0  0  0  0  0  0  0  0  0  0
    0.8272   -0.5879    1.7776 C   0  0  0  0  0  0  0  0  0  0  0  0
    0.8425    0.0994    2.9825 N   0  0  0  0  0  0  0  0  0  0  0  0
    0.9368   -0.8081    3.9259 C   0  0  0  0  0  0  0  0  0  0  0  0
    0.9689   -0.5949    4.9908 H   0  0  0  0  0  0  0  0  0  0  0  0
    1.0007   -2.0695    3.3633 N   0  0  0  0  0  0  0  0  0  0  0  0
    1.1062   -2.9401    3.8819 H   0  0  0  0  0  0  0  0  0  0  0  0
    0.9596   -1.9318    1.9921 C   0  0  0  0  0  0  0  0  0  0  0  0
    1.0315   -2.7070    1.2328 H   0  0  0  0  0  0  0  0  0  0  0  0
   -0.1293    1.5171   -1.3258 C   0  0  0  0  0  0  0  0  0  0  0  0
   -0.7956    1.3037   -2.3327 O   0  0  0  0  0  0  0  0  0  0  0  0
    0.9145    2.4242   -1.4053 N   0  0  0  0  0  0  0  0  0  0  0  0
    1.4284    2.6276   -0.5526 H   0  0  0  0  0  0  0  0  0  0  0  0
    1.2570    3.1508   -2.6224 C   0  0  0  0  0  0  0  0  0  0  0  0
    0.4186    3.7776   -2.9438 H   0  0  0  0  0  0  0  0  0  0  0  0
    2.1233    3.7957   -2.4467 H   0  0  0  0  0  0  0  0  0  0  0  0
    1.5047    2.4524   -3.4288 H   0  0  0  0  0  0  0  0  0  0  0  0
  1  2  1  0  0  0  0
  2  3  1  0  0  0  0
  2  4  1  0  0  0  0
  2  5  1  0  0  0  0
  5  6  2  0  0  0  0
  5  7  1  0  0  0  0
  7  8  1  0  0  0  0
  7  9  1  0  0  0  0
  9 10  1  0  0  0  0
  9 11  1  0  0  0  0
  9 22  1  0  0  0  0
 11 12  1  0  0  0  0
 11 13  1  0  0  0  0
 11 14  1  0  0  0  0
 14 15  1  0  0  0  0
 14 20  2  0  0  0  0
 15 16  2  0  0  0  0
 16 17  1  0  0  0  0
 16 18  1  0  0  0  0
 18 19  1  0  0  0  0
 18 20  1  0  0  0  0
 20 21  1  0  0  0  0
 22 23  2  0  0  0  0
 22 24  1  0  0  0  0
 24 25  1  0  0  0  0
 24 26  1  0  0  0  0
 26 27  1  0  0  0  0
 26 28  1  0  0  0  0
 26 29  1  0  0  0  0
M  END
$$$$

  -OEChem-01062216083D

 29 29  0     1  0  0  0  0  0999 V2000
   -1.8450   -2.6846    1.9410 H   0  0  0  0  0  0  0  0  0  0  0  0
   -2.2232   -1.7134    1.6139 C   0  0  0  0  0  0  0  0  0  0  0  0
   -1.9009   -0.9473    2.3228 H   0  0  0  0  0  0  0  0  0  0  0  0
   -3.3154   -1.7409    1.6052 H   0  0  0  0  0  0  0  0  0  0  0  0
   -1.7130   -1.3952    0.2186 C   0  0  0  0  0  0  0  0  0  0  0  0
   -1.7820   -2.2408   -0.6538 O   0  0  0  0  0  0  0  0  0  0  0  0
   -1.6064   -0.0957   -0.2033 N   0  0  0  0  0  0  0  0  0  0  0  0
   -1.9036   -0.0445   -1.1815 H   0  0  0  0  0  0  0  0  0  0  0  0
   -0.4377    0.7873    0.0138 C   0  0  1  0  0  0  0  0  0  0  0  0
   -0.7000    1.5338    0.7703 H   0  0  0  0  0  0  0  0  0  0  0  0
    0.8790    0.0825    0.4540 C   0  0  0  0  0  0  0  0  0  0  0  0
    1.1534   -0.6518   -0.3104 H   0  0  0  0  0  0  0  0  0  0  0  0
    1.6894    0.8130    0.5153 H   0  0  0  0  0  0  0  0  0  0  0  0
    0.8390   -0.5997    1.7866 C   0  0  0  0  0  0  0  0  0  0  0  0
    0.8706    0.0879    2.9909 N   0  0  0  0  0  0  0  0  0  0  0  0
    0.9492   -0.8202    3.9350 C   0  0  0  0  0  0  0  0  0  0  0  0
    0.9853   -0.6072    4.9997 H   0  0  0  0  0  0  0  0  0  0  0  0
    0.9897   -2.0831    3.3737 N   0  0  0  0  0  0  0  0  0  0  0  0
    1.0777   -2.9551    3.8932 H   0  0  0  0  0  0  0  0  0  0  0  0
    0.9488   -1.9455    2.0025 C   0  0  0  0  0  0  0  0  0  0  0  0
    1.0039   -2.7228    1.2439 H   0  0  0  0  0  0  0  0  0  0  0  0
   -0.1358    1.5262   -1.3215 C   0  0  0  0  0  0  0  0  0  0  0  0
   -0.9602    1.5039   -2.2291 O   0  0  0  0  0  0  0  0  0  0  0  0
    1.0599    2.1890   -1.5476 N   0  0  0  0  0  0  0  0  0  0  0  0
    1.7227    2.2408   -0.7797 H   0  0  0  0  0  0  0  0  0  0  0  0
    1.3780    2.8723   -2.7962 C   0  0  0  0  0  0  0  0  0  0  0  0
    0.6641    3.6813   -2.9833 H   0  0  0  0  0  0  0  0  0  0  0  0
    2.3829    3.3023   -2.7463 H   0  0  0  0  0  0  0  0  0  0  0  0
    1.3446    2.1706   -3.6366 H   0  0  0  0  0  0  0  0  0  0  0  0
  1  2  1  0  0  0  0
  2  3  1  0  0  0  0
  2  4  1  0  0  0  0
  2  5  1  0  0  0  0
  5  6  2  0  0  0  0
  5  7  1  0  0  0  0
  7  8  1  0  0  0  0
  7  9  1  0  0  0  0
  9 10  1  0  0  0  0
  9 11  1  0  0  0  0
  9 22  1  0  0  0  0
 11 12  1  0  0  0  0
 11 13  1  0  0  0  0
 11 14  1  0  0  0  0
 14 15  1  0  0  0  0
 14 20  2  0  0  0  0
 15 16  2  0  0  0  0
 16 17  1  0  0  0  0
 16 18  1  0  0  0  0
 18 19  1  0  0  0  0
 18 20  1  0  0  0  0
 20 21  1  0  0  0  0
 22 23  2  0  0  0  0
 22 24  1  0  0  0  0
 24 25  1  0  0  0  0
 24 26  1  0  0  0  0
 26 27  1  0  0  0  0
 26 28  1  0  0  0  0
 26 29  1  0  0  0  0
M  END
$$$$

  -OEChem-01062216083D

 29 29  0     1  0  0  0  0  0999 V2000
   -1.8501   -2.6963    1.9214 H   0  0  0  0  0  0  0  0  0  0  0  0
   -2.2260   -1.7205    1.6053 C   0  0  0  0  0  0  0  0  0  0  0  0
   -1.9027   -0.9631    2.3232 H   0  0  0  0  0  0  0  0  0  0  0  0
   -3.3183   -1.7456    1.5958 H   0  0  0  0  0  0  0  0  0  0  0  0
   -1.7134   -1.3886    0.2141 C   0  0  0  0  0  0  0  0  0  0  0  0
   -1.7887   -2.2216   -0.6700 O   0  0  0  0  0  0  0  0  0  0  0  0
   -1.5959   -0.0856   -0.1932 N   0  0  0  0  0  0  0  0  0  0  0  0
   -1.9232   -0.0065   -1.1588 H   0  0  0  0  0  0  0  0  0  0  0  0
   -0.4147    0.7808    0.0199 C   0  0  1  0  0  0  0  0  0  0  0  0
   -0.6660    1.5294    0.7784 H   0  0  0  0  0  0  0  0  0  0  0  0
    0.8930    0.0636    0.4647 C   0  0  0  0  0  0  0  0  0  0  0  0
    1.1635   -0.6774   -0.2945 H   0  0  0  0  0  0  0  0  0  0  0  0
    1.7069    0.7904    0.5283 H   0  0  0  0  0  0  0  0  0  0  0  0
    0.8407   -0.6092    1.8019 C   0  0  0  0  0  0  0  0  0  0  0  0
    0.8778    0.0851    3.0019 N   0  0  0  0  0  0  0  0  0  0  0  0
    0.9460   -0.8174    3.9521 C   0  0  0  0  0  0  0  0  0  0  0  0
    0.9838   -0.5981    5.0154 H   0  0  0  0  0  0  0  0  0  0  0  0
    0.9742   -2.0840    3.3990 N   0  0  0  0  0  0  0  0  0  0  0  0
    1.0549   -2.9533    3.9242 H   0  0  0  0  0  0  0  0  0  0  0  0
    0.9376   -1.9546    2.0269 C   0  0  0  0  0  0  0  0  0  0  0  0
    0.9881   -2.7375    1.2739 H   0  0  0  0  0  0  0  0  0  0  0  0
   -0.1306    1.5256   -1.3173 C   0  0  0  0  0  0  0  0  0  0  0  0
   -1.0539    1.7239   -2.0990 O   0  0  0  0  0  0  0  0  0  0  0  0
    1.1393    1.9210   -1.7082 N   0  0  0  0  0  0  0  0  0  0  0  0
    1.9047    1.7614   -1.0607 H   0  0  0  0  0  0  0  0  0  0  0  0
    1.4228    2.5779   -2.9792 C   0  0  0  0  0  0  0  0  0  0  0  0
    0.8719    3.5213   -3.0551 H   0  0  0  0  0  0  0  0  0  0  0  0
    2.4921    2.7948   -3.0626 H   0  0  0  0  0  0  0  0  0  0  0  0
    1.1351    1.9331   -3.8163 H   0  0  0  0  0  0  0  0  0  0  0  0
  1  2  1  0  0  0  0
  2  3  1  0  0  0  0
  2  4  1  0  0  0  0
  2  5  1  0  0  0  0
  5  6  2  0  0  0  0
  5  7  1  0  0  0  0
  7  8  1  0  0  0  0
  7  9  1  0  0  0  0
  9 10  1  0  0  0  0
  9 11  1  0  0  0  0
  9 22  1  0  0  0  0
 11 12  1  0  0  0  0
 11 13  1  0  0  0  0
 11 14  1  0  0  0  0
 14 15  1  0  0  0  0
 14 20  2  0  0  0  0
 15 16  2  0  0  0  0
 16 17  1  0  0  0  0
 16 18  1  0  0  0  0
 18 19  1  0  0  0  0
 18 20  1  0  0  0  0
 20 21  1  0  0  0  0
 22 23  2  0  0  0  0
 22 24  1  0  0  0  0
 24 25  1  0  0  0  0
 24 26  1  0  0  0  0
 26 27  1  0  0  0  0
 26 28  1  0  0  0  0
 26 29  1  0  0  0  0
M  END
$$$$

  -OEChem-01062216083D

 29 29  0     1  0  0  0  0  0999 V2000
   -1.8507   -2.7009    1.9092 H   0  0  0  0  0  0  0  0  0  0  0  0
   -2.2284   -1.7233    1.6008 C   0  0  0  0  0  0  0  0  0  0  0  0
   -1.9045   -0.9705    2.3235 H   0  0  0  0  0  0  0  0  0  0  0  0
   -3.3207   -1.7497    1.5931 H   0  0  0  0  0  0  0  0  0  0  0  0
   -1.7195   -1.3808    0.2110 C   0  0  0  0  0  0  0  0  0  0  0  0
   -1.8069   -2.2019   -0.6831 O   0  0  0  0  0  0  0  0  0  0  0  0
   -1.5930   -0.0754   -0.1844 N   0  0  0  0  0  0  0  0  0  0  0  0
   -1.9452    0.0240   -1.1382 H   0  0  0  0  0  0  0  0  0  0  0  0
   -0.4002    0.7741    0.0261 C   0  0  1  0  0  0  0  0  0  0  0  0
   -0.6420    1.5226    0.7879 H   0  0  0  0  0  0  0  0  0  0  0  0
    0.9029    0.0501    0.4710 C   0  0  0  0  0  0  0  0  0  0  0  0
    1.1663   -0.6987   -0.2832 H   0  0  0  0  0  0  0  0  0  0  0  0
    1.7195    0.7758    0.5264 H   0  0  0  0  0  0  0  0  0  0  0  0
    0.8458   -0.6163    1.8112 C   0  0  0  0  0  0  0  0  0  0  0  0
    0.8885    0.0835    3.0075 N   0  0  0  0  0  0  0  0  0  0  0  0
    0.9454   -0.8141    3.9628 C   0  0  0  0  0  0  0  0  0  0  0  0
    0.9829   -0.5884    5.0248 H   0  0  0  0  0  0  0  0  0  0  0  0
    0.9616   -2.0840    3.4163 N   0  0  0  0  0  0  0  0  0  0  0  0
    1.0286   -2.9514    3.9466 H   0  0  0  0  0  0  0  0  0  0  0  0
    0.9287   -1.9615    2.0433 C   0  0  0  0  0  0  0  0  0  0  0  0
    0.9716   -2.7488    1.2946 H   0  0  0  0  0  0  0  0  0  0  0  0
   -0.1255    1.5257   -1.3070 C   0  0  0  0  0  0  0  0  0  0  0  0
   -1.0766    1.9529   -1.9503 O   0  0  0  0  0  0  0  0  0  0  0  0
    1.1379    1.6490   -1.8644 N   0  0  0  0  0  0  0  0  0  0  0  0
    1.9209    1.2569   -1.3510 H   0  0  0  0  0  0  0  0  0  0  0  0
    1.3909    2.2759   -3.1567 C   0  0  0  0  0  0  0  0  0  0  0  0
    1.0467    3.3155   -3.1529 H   0  0  0  0  0  0  0  0  0  0  0  0
    2.4626    2.2683   -3.3773 H   0  0  0  0  0  0  0  0  0  0  0  0
    0.8702    1.7347   -3.9537 H   0  0  0  0  0  0  0  0  0  0  0  0
  1  2  1  0  0  0  0
  2  3  1  0  0  0  0
  2  4  1  0  0  0  0
  2  5  1  0  0  0  0
  5  6  2  0  0  0  0
  5  7  1  0  0  0  0
  7  8  1  0  0  0  0
  7  9  1  0  0  0  0
  9 10  1  0  0  0  0
  9 11  1  0  0  0  0
  9 22  1  0  0  0  0
 11 12  1  0  0  0  0
 11 13  1  0  0  0  0
 11 14  1  0  0  0  0
 14 15  1  0  0  0  0
 14 20  2  0  0  0  0
 15 16  2  0  0  0  0
 16 17  1  0  0  0  0
 16 18  1  0  0  0  0
 18 19  1  0  0  0  0
 18 20  1  0  0  0  0
 20 21  1  0  0  0  0
 22 23  2  0  0  0  0
 22 24  1  0  0  0  0
 24 25  1  0  0  0  0
 24 26  1  0  0  0  0
 26 27  1  0  0  0  0
 26 28  1  0  0  0  0
 26 29  1  0  0  0  0
M  END
$$$$

  -OEChem-01062216083D

 29 29  0     1  0  0  0  0  0999 V2000
   -1.8707   -2.7086    1.9068 H   0  0  0  0  0  0  0  0  0  0  0  0
   -2.2336   -1.7231    1.6054 C   0  0  0  0  0  0  0  0  0  0  0  0
   -1.8939   -0.9800    2.3308 H   0  0  0  0  0  0  0  0  0  0  0  0
   -3.3263   -1.7307    1.6030 H   0  0  0  0  0  0  0  0  0  0  0  0
   -1.7250   -1.3803    0.2157 C   0  0  0  0  0  0  0  0  0  0  0  0
   -1.8168   -2.1971   -0.6819 O   0  0  0  0  0  0  0  0  0  0  0  0
   -1.5963   -0.0748   -0.1778 N   0  0  0  0  0  0  0  0  0  0  0  0
   -1.9608    0.0278   -1.1254 H   0  0  0  0  0  0  0  0  0  0  0  0
   -0.3964    0.7646    0.0279 C   0  0  1  0  0  0  0  0  0  0  0  0
   -0.6323    1.5142    0.7909 H   0  0  0  0  0  0  0  0  0  0  0  0
    0.9050    0.0391    0.4731 C   0  0  0  0  0  0  0  0  0  0  0  0
    1.1600   -0.7207   -0.2722 H   0  0  0  0  0  0  0  0  0  0  0  0
    1.7244    0.7635    0.5109 H   0  0  0  0  0  0  0  0  0  0  0  0
    0.8481   -0.6197    1.8174 C   0  0  0  0  0  0  0  0  0  0  0  0
    0.8955    0.0856    3.0103 N   0  0  0  0  0  0  0  0  0  0  0  0
    0.9504   -0.8067    3.9704 C   0  0  0  0  0  0  0  0  0  0  0  0
    0.9913   -0.5756    5.0312 H   0  0  0  0  0  0  0  0  0  0  0  0
    0.9592   -2.0794    3.4304 N   0  0  0  0  0  0  0  0  0  0  0  0
    1.0236   -2.9443    3.9651 H   0  0  0  0  0  0  0  0  0  0  0  0
    0.9251   -1.9642    2.0568 C   0  0  0  0  0  0  0  0  0  0  0  0
    0.9645   -2.7566    1.3135 H   0  0  0  0  0  0  0  0  0  0  0  0
   -0.1224    1.5189   -1.3008 C   0  0  0  0  0  0  0  0  0  0  0  0
   -1.0316    2.1645   -1.8057 O   0  0  0  0  0  0  0  0  0  0  0  0
    1.0565    1.3874   -2.0183 N   0  0  0  0  0  0  0  0  0  0  0  0
    1.7785    0.7867   -1.6332 H   0  0  0  0  0  0  0  0  0  0  0  0
    1.2746    1.9958   -3.3256 C   0  0  0  0  0  0  0  0  0  0  0  0
    1.1560    3.0830   -3.2673 H   0  0  0  0  0  0  0  0  0  0  0  0
    2.2867    1.7783   -3.6798 H   0  0  0  0  0  0  0  0  0  0  0  0
    0.5596    1.6013   -4.0552 H   0  0  0  0  0  0  0  0  0  0  0  0
  1  2  1  0  0  0  0
  2  3  1  0  0  0  0
  2  4  1  0  0  0  0
  2  5  1  0  0  0  0
  5  6  2  0  0  0  0
  5  7  1  0  0  0  0
  7  8  1  0  0  0  0
  7  9  1  0  0  0  0
  9 10  1  0  0  0  0
  9 11  1  0  0  0  0
  9 22  1  0  0  0  0
 11 12  1  0  0  0  0
 11 13  1  0  0  0  0
 11 14  1  0  0  0  0
 14 15  1  0  0  0  0
 14 20  2  0  0  0  0
 15 16  2  0  0  0  0
 16 17  1  0  0  0  0
 16 18  1  0  0  0  0
 18 19  1  0  0  0  0
 18 20  1  0  0  0  0
 20 21  1  0  0  0  0
 22 23  2  0  0  0  0
 22 24  1  0  0  0  0
 24 25  1  0  0  0  0
 24 26  1  0  0  0  0
 26 27  1  0  0  0  0
 26 28  1  0  0  0  0
 26 29  1  0  0  0  0
M  END
$$$$

  -OEChem-01062216083D

 29 29  0     1  0  0  0  0  0999 V2000
   -1.8796   -2.7124    1.9161 H   0  0  0  0  0  0  0  0  0  0  0  0
   -2.2424   -1.7269    1.6150 C   0  0  0  0  0  0  0  0  0  0  0  0
   -1.9034   -0.9839    2.3408 H   0  0  0  0  0  0  0  0  0  0  0  0
   -3.3349   -1.7351    1.6115 H   0  0  0  0  0  0  0  0  0  0  0  0
   -1.7325   -1.3832    0.2261 C   0  0  0  0  0  0  0  0  0  0  0  0
   -1.8102   -2.2012   -0.6719 O   0  0  0  0  0  0  0  0  0  0  0  0
   -1.6082   -0.0791   -0.1724 N   0  0  0  0  0  0  0  0  0  0  0  0
   -1.9737    0.0131   -1.1195 H   0  0  0  0  0  0  0  0  0  0  0  0
   -0.4020    0.7527    0.0265 C   0  0  1  0  0  0  0  0  0  0  0  0
   -0.6337    1.5029    0.7906 H   0  0  0  0  0  0  0  0  0  0  0  0
    0.9003    0.0294    0.4705 C   0  0  0  0  0  0  0  0  0  0  0  0
    1.1506   -0.7398   -0.2661 H   0  0  0  0  0  0  0  0  0  0  0  0
    1.7205    0.7543    0.4921 H   0  0  0  0  0  0  0  0  0  0  0  0
    0.8464   -0.6209    1.8196 C   0  0  0  0  0  0  0  0  0  0  0  0
    0.8979    0.0914    3.0081 N   0  0  0  0  0  0  0  0  0  0  0  0
    0.9540   -0.7945    3.9738 C   0  0  0  0  0  0  0  0  0  0  0  0
    0.9977   -0.5567    5.0330 H   0  0  0  0  0  0  0  0  0  0  0  0
    0.9600   -2.0707    3.4421 N   0  0  0  0  0  0  0  0  0  0  0  0
    1.0283   -2.9318    3.9825 H   0  0  0  0  0  0  0  0  0  0  0  0
    0.9207   -1.9641    2.0678 C   0  0  0  0  0  0  0  0  0  0  0  0
    0.9553   -2.7614    1.3297 H   0  0  0  0  0  0  0  0  0  0  0  0
   -0.1230    1.5078   -1.2972 C   0  0  0  0  0  0  0  0  0  0  0  0
   -0.9096    2.3721   -1.6578 O   0  0  0  0  0  0  0  0  0  0  0  0
    0.8997    1.1506   -2.1615 N   0  0  0  0  0  0  0  0  0  0  0  0
    1.4768    0.3562   -1.9035 H   0  0  0  0  0  0  0  0  0  0  0  0
    1.0923    1.7596   -3.4723 C   0  0  0  0  0  0  0  0  0  0  0  0
    1.2167    2.8435   -3.3775 H   0  0  0  0  0  0  0  0  0  0  0  0
    1.9876    1.3512   -3.9508 H   0  0  0  0  0  0  0  0  0  0  0  0
    0.2312    1.5586   -4.1183 H   0  0  0  0  0  0  0  0  0  0  0  0
  1  2  1  0  0  0  0
  2  3  1  0  0  0  0
  2  4  1  0  0  0  0
  2  5  1  0  0  0  0
  5  6  2  0  0  0  0
  5  7  1  0  0  0  0
  7  8  1  0  0  0  0
  7  9  1  0  0  0  0
  9 10  1  0  0  0  0
  9 11  1  0  0  0  0
  9 22  1  0  0  0  0
 11 12  1  0  0  0  0
 11 13  1  0  0  0  0
 11 14  1  0  0  0  0
 14 15  1  0  0  0  0
 14 20  2  0  0  0  0
 15 16  2  0  0  0  0
 16 17  1  0  0  0  0
 16 18  1  0  0  0  0
 18 19  1  0  0  0  0
 18 20  1  0  0  0  0
 20 21  1  0  0  0  0
 22 23  2  0  0  0  0
 22 24  1  0  0  0  0
 24 25  1  0  0  0  0
 24 26  1  0  0  0  0
 26 27  1  0  0  0  0
 26 28  1  0  0  0  0
 26 29  1  0  0  0  0
M  END
$$$$

  -OEChem-01062216083D

 29 29  0     1  0  0  0  0  0999 V2000
   -1.8827   -2.7122    1.9397 H   0  0  0  0  0  0  0  0  0  0  0  0
   -2.2466   -1.7277    1.6366 C   0  0  0  0  0  0  0  0  0  0  0  0
   -1.9025   -0.9828    2.3582 H   0  0  0  0  0  0  0  0  0  0  0  0
   -3.3392   -1.7347    1.6401 H   0  0  0  0  0  0  0  0  0  0  0  0
   -1.7445   -1.3893    0.2434 C   0  0  0  0  0  0  0  0  0  0  0  0
   -1.8077   -2.2138   -0.6498 O   0  0  0  0  0  0  0  0  0  0  0  0
   -1.6303   -0.0885   -0.1684 N   0  0  0  0  0  0  0  0  0  0  0  0
   -1.9886   -0.0167   -1.1193 H   0  0  0  0  0  0  0  0  0  0  0  0
   -0.4250    0.7455    0.0269 C   0  0  1  0  0  0  0  0  0  0  0  0
   -0.6583    1.4974    0.7893 H   0  0  0  0  0  0  0  0  0  0  0  0
    0.8844    0.0332    0.4666 C   0  0  0  0  0  0  0  0  0  0  0  0
    1.1416   -0.7345   -0.2685 H   0  0  0  0  0  0  0  0  0  0  0  0
    1.6982    0.7653    0.4815 H   0  0  0  0  0  0  0  0  0  0  0  0
    0.8407   -0.6157    1.8170 C   0  0  0  0  0  0  0  0  0  0  0  0
    0.8911    0.0959    3.0058 N   0  0  0  0  0  0  0  0  0  0  0  0
    0.9561   -0.7900    3.9708 C   0  0  0  0  0  0  0  0  0  0  0  0
    1.0029   -0.5519    5.0297 H   0  0  0  0  0  0  0  0  0  0  0  0
    0.9667   -2.0659    3.4385 N   0  0  0  0  0  0  0  0  0  0  0  0
    1.0419   -2.9268    3.9782 H   0  0  0  0  0  0  0  0  0  0  0  0
    0.9226   -1.9589    2.0644 C   0  0  0  0  0  0  0  0  0  0  0  0
    0.9590   -2.7561    1.3263 H   0  0  0  0  0  0  0  0  0  0  0  0
   -0.1398    1.4927   -1.2974 C   0  0  0  0  0  0  0  0  0  0  0  0
   -0.7183    2.5451   -1.5263 O   0  0  0  0  0  0  0  0  0  0  0  0
    0.6704    0.9526   -2.2828 N   0  0  0  0  0  0  0  0  0  0  0  0
    1.0313    0.0155   -2.1293 H   0  0  0  0  0  0  0  0  0  0  0  0
    0.8619    1.5707   -3.5895 C   0  0  0  0  0  0  0  0  0  0  0  0
    1.2438    2.5914   -3.4795 H   0  0  0  0  0  0  0  0  0  0  0  0
    1.5837    0.9957   -4.1773 H   0  0  0  0  0  0  0  0  0  0  0  0
   -0.0845    1.6055   -4.1392 H   0  0  0  0  0  0  0  0  0  0  0  0
  1  2  1  0  0  0  0
  2  3  1  0  0  0  0
  2  4  1  0  0  0  0
  2  5  1  0  0  0  0
  5  6  2  0  0  0  0
  5  7  1  0  0  0  0
  7  8  1  0  0  0  0
  7  9  1  0  0  0  0
  9 10  1  0  0  0  0
  9 11  1  0  0  0  0
  9 22  1  0  0  0  0
 11 12  1  0  0  0  0
 11 13  1  0  0  0  0
 11 14  1  0  0  0  0
 14 15  1  0  0  0  0
 14 20  2  0  0  0  0
 15 16  2  0  0  0  0
 16 17  1  0  0  0  0
 16 18  1  0  0  0  0
 18 19  1  0  0  0  0
 18 20  1  0  0  0  0
 20 21  1  0  0  0  0
 22 23  2  0  0  0  0
 22 24  1  0  0  0  0
 24 25  1  0  0  0  0
 24 26  1  0  0  0  0
 26 27  1  0  0  0  0
 26 28  1  0  0  0  0
 26 29  1  0  0  0  0
M  END
$$$$

  -OEChem-01062216083D

 29 29  0     1  0  0  0  0  0999 V2000
   -1.8605   -2.6986    1.9706 H   0  0  0  0  0  0  0  0  0  0  0  0
   -2.2490   -1.7249    1.6630 C   0  0  0  0  0  0  0  0  0  0  0  0
   -1.9112   -0.9650    2.3720 H   0  0  0  0  0  0  0  0  0  0  0  0
   -3.3411   -1.7554    1.6820 H   0  0  0  0  0  0  0  0  0  0  0  0
   -1.7720   -1.3911    0.2599 C   0  0  0  0  0  0  0  0  0  0  0  0
   -1.8402   -2.2185   -0.6305 O   0  0  0  0  0  0  0  0  0  0  0  0
   -1.6678   -0.0943   -0.1657 N   0  0  0  0  0  0  0  0  0  0  0  0
   -2.0162   -0.0407   -1.1212 H   0  0  0  0  0  0  0  0  0  0  0  0
   -0.4719    0.7516    0.0358 C   0  0  1  0  0  0  0  0  0  0  0  0
   -0.7144    1.5039    0.7950 H   0  0  0  0  0  0  0  0  0  0  0  0
    0.8496    0.0588    0.4671 C   0  0  0  0  0  0  0  0  0  0  0  0
    1.1209   -0.6959   -0.2766 H   0  0  0  0  0  0  0  0  0  0  0  0
    1.6498    0.8058    0.4851 H   0  0  0  0  0  0  0  0  0  0  0  0
    0.8244   -0.6029    1.8113 C   0  0  0  0  0  0  0  0  0  0  0  0
    0.8672    0.0949    3.0086 N   0  0  0  0  0  0  0  0  0  0  0  0
    0.9634   -0.8009    3.9617 C   0  0  0  0  0  0  0  0  0  0  0  0
    1.0152   -0.5750    5.0231 H   0  0  0  0  0  0  0  0  0  0  0  0
    0.9995   -2.0695    3.4136 N   0  0  0  0  0  0  0  0  0  0  0  0
    1.1088   -2.9343    3.9411 H   0  0  0  0  0  0  0  0  0  0  0  0
    0.9391   -1.9465    2.0415 C   0  0  0  0  0  0  0  0  0  0  0  0
    0.9908   -2.7324    1.2924 H   0  0  0  0  0  0  0  0  0  0  0  0
   -0.1799    1.4843   -1.2920 C   0  0  0  0  0  0  0  0  0  0  0  0
   -0.4926    2.6584   -1.4233 O   0  0  0  0  0  0  0  0  0  0  0  0
    0.3814    0.8116   -2.3644 N   0  0  0  0  0  0  0  0  0  0  0  0
    0.5252   -0.1897   -2.2636 H   0  0  0  0  0  0  0  0  0  0  0  0
    0.5997    1.4241   -3.6691 C   0  0  0  0  0  0  0  0  0  0  0  0
    1.2247    2.3184   -3.5738 H   0  0  0  0  0  0  0  0  0  0  0  0
    1.1065    0.7206   -4.3366 H   0  0  0  0  0  0  0  0  0  0  0  0
   -0.3553    1.7079   -4.1233 H   0  0  0  0  0  0  0  0  0  0  0  0
  1  2  1  0  0  0  0
  2  3  1  0  0  0  0
  2  4  1  0  0  0  0
  2  5  1  0  0  0  0
  5  6  2  0  0  0  0
  5  7  1  0  0  0  0
  7  8  1  0  0  0  0
  7  9  1  0  0  0  0
  9 10  1  0  0  0  0
  9 11  1  0  0  0  0
  9 22  1  0  0  0  0
 11 12  1  0  0  0  0
 11 13  1  0  0  0  0
 11 14  1  0  0  0  0
 14 15  1  0  0  0  0
 14 20  2  0  0  0  0
 15 16  2  0  0  0  0
 16 17  1  0  0  0  0
 16 18  1  0  0  0  0
 18 19  1  0  0  0  0
 18 20  1  0  0  0  0
 20 21  1  0  0  0  0
 22 23  2  0  0  0  0
 22 24  1  0  0  0  0
 24 25  1  0  0  0  0
 24 26  1  0  0  0  0
 26 27  1  0  0  0  0
 26 28  1  0  0  0  0
 26 29  1  0  0  0  0
M  END
$$$$

  -OEChem-01062216083D

 29 29  0     1  0  0  0  0  0999 V2000
   -1.8196   -2.6932    2.0073 H   0  0  0  0  0  0  0  0  0  0  0  0
   -2.2376   -1.7327    1.6970 C   0  0  0  0  0  0  0  0  0  0  0  0
   -1.9062   -0.9575    2.3922 H   0  0  0  0  0  0  0  0  0  0  0  0
   -3.3280   -1.7901    1.7365 H   0  0  0  0  0  0  0  0  0  0  0  0
   -1.7961   -1.4022    0.2815 C   0  0  0  0  0  0  0  0  0  0  0  0
   -1.9096   -2.2242   -0.6091 O   0  0  0  0  0  0  0  0  0  0  0  0
   -1.7018   -0.1078   -0.1530 N   0  0  0  0  0  0  0  0  0  0  0  0
   -2.0578   -0.0604   -1.1058 H   0  0  0  0  0  0  0  0  0  0  0  0
   -0.5219    0.7604    0.0519 C   0  0  1  0  0  0  0  0  0  0  0  0
   -0.7753    1.5107    0.8094 H   0  0  0  0  0  0  0  0  0  0  0  0
    0.8163    0.0922    0.4655 C   0  0  0  0  0  0  0  0  0  0  0  0
    1.1022   -0.6418   -0.2934 H   0  0  0  0  0  0  0  0  0  0  0  0
    1.5980    0.8586    0.4907 H   0  0  0  0  0  0  0  0  0  0  0  0
    0.8142   -0.5869    1.8011 C   0  0  0  0  0  0  0  0  0  0  0  0
    0.8489    0.0949    3.0080 N   0  0  0  0  0  0  0  0  0  0  0  0
    0.9669   -0.8114    3.9485 C   0  0  0  0  0  0  0  0  0  0  0  0
    1.0186   -0.5988    5.0126 H   0  0  0  0  0  0  0  0  0  0  0  0
    1.0242   -2.0715    3.3829 N   0  0  0  0  0  0  0  0  0  0  0  0
    1.1494   -2.9414    3.8982 H   0  0  0  0  0  0  0  0  0  0  0  0
    0.9562   -1.9312    2.0128 C   0  0  0  0  0  0  0  0  0  0  0  0
    1.0195   -2.7064    1.2535 H   0  0  0  0  0  0  0  0  0  0  0  0
   -0.2310    1.4827   -1.2799 C   0  0  0  0  0  0  0  0  0  0  0  0
   -0.2631    2.7026   -1.3419 O   0  0  0  0  0  0  0  0  0  0  0  0
    0.0553    0.7498   -2.4195 N   0  0  0  0  0  0  0  0  0  0  0  0
    0.0325   -0.2646   -2.3445 H   0  0  0  0  0  0  0  0  0  0  0  0
    0.3119    1.3562   -3.7202 C   0  0  0  0  0  0  0  0  0  0  0  0
    1.1571    2.0498   -3.6602 H   0  0  0  0  0  0  0  0  0  0  0  0
    0.5522    0.5833   -4.4565 H   0  0  0  0  0  0  0  0  0  0  0  0
   -0.5700    1.9040   -4.0683 H   0  0  0  0  0  0  0  0  0  0  0  0
  1  2  1  0  0  0  0
  2  3  1  0  0  0  0
  2  4  1  0  0  0  0
  2  5  1  0  0  0  0
  5  6  2  0  0  0  0
  5  7  1  0  0  0  0
  7  8  1  0  0  0  0
  7  9  1  0  0  0  0
  9 10  1  0  0  0  0
  9 11  1  0  0  0  0
  9 22  1  0  0  0  0
 11 12  1  0  0  0  0
 11 13  1  0  0  0  0
 11 14  1  0  0  0  0
 14 15  1  0  0  0  0
 14 20  2  0  0  0  0
 15 16  2  0  0  0  0
 16 17  1  0  0  0  0
 16 18  1  0  0  0  0
 18 19  1  0  0  0  0
 18 20  1  0  0  0  0
 20 21  1  0  0  0  0
 22 23  2  0  0  0  0
 22 24  1  0  0  0  0
 24 25  1  0  0  0  0
 24 26  1  0  0  0  0
 26 27  1  0  0  0  0
 26 28  1  0  0  0  0
 26 29  1  0  0  0  0
M  END
$$$$

  -OEChem-01062216083D

 29 29  0     1  0  0  0  0  0999 V2000
   -1.7668   -2.6952    2.0332 H   0  0  0  0  0  0  0  0  0  0  0  0
   -2.2233   -1.7515    1.7263 C   0  0  0  0  0  0  0  0  0  0  0  0
   -1.9017   -0.9601    2.4074 H   0  0  0  0  0  0  0  0  0  0  0  0
   -3.3098   -1.8444    1.7930 H   0  0  0  0  0  0  0  0  0  0  0  0
   -1.8279   -1.4180    0.2979 C   0  0  0  0  0  0  0  0  0  0  0  0
   -2.0045   -2.2271   -0.5941 O   0  0  0  0  0  0  0  0  0  0  0  0
   -1.7389   -0.1235   -0.1373 N   0  0  0  0  0  0  0  0  0  0  0  0
   -2.1142   -0.0689   -1.0819 H   0  0  0  0  0  0  0  0  0  0  0  0
   -0.5771    0.7692    0.0715 C   0  0  1  0  0  0  0  0  0  0  0  0
   -0.8423    1.5147    0.8295 H   0  0  0  0  0  0  0  0  0  0  0  0
    0.7752    0.1221    0.4712 C   0  0  0  0  0  0  0  0  0  0  0  0
    1.0689   -0.5951   -0.3013 H   0  0  0  0  0  0  0  0  0  0  0  0
    1.5431    0.9024    0.5015 H   0  0  0  0  0  0  0  0  0  0  0  0
    0.7972   -0.5737    1.7975 C   0  0  0  0  0  0  0  0  0  0  0  0
    0.8269    0.0919    3.0136 N   0  0  0  0  0  0  0  0  0  0  0  0
    0.9746   -0.8244    3.9401 C   0  0  0  0  0  0  0  0  0  0  0  0
    1.0314   -0.6256    5.0065 H   0  0  0  0  0  0  0  0  0  0  0  0
    1.0559   -2.0749    3.3562 N   0  0  0  0  0  0  0  0  0  0  0  0
    1.2062   -2.9485    3.8585 H   0  0  0  0  0  0  0  0  0  0  0  0
    0.9735   -1.9169    1.9886 C   0  0  0  0  0  0  0  0  0  0  0  0
    1.0511   -2.6787    1.2172 H   0  0  0  0  0  0  0  0  0  0  0  0
   -0.2834    1.4923   -1.2593 C   0  0  0  0  0  0  0  0  0  0  0  0
   -0.0506    2.6919   -1.2744 O   0  0  0  0  0  0  0  0  0  0  0  0
   -0.2765    0.7801   -2.4477 N   0  0  0  0  0  0  0  0  0  0  0  0
   -0.4117   -0.2272   -2.3944 H   0  0  0  0  0  0  0  0  0  0  0  0
    0.0223    1.3842   -3.7403 C   0  0  0  0  0  0  0  0  0  0  0  0
    1.0214    1.8325   -3.7328 H   0  0  0  0  0  0  0  0  0  0  0  0
   -0.0102    0.6263   -4.5290 H   0  0  0  0  0  0  0  0  0  0  0  0
   -0.7110    2.1619   -3.9776 H   0  0  0  0  0  0  0  0  0  0  0  0
  1  2  1  0  0  0  0
  2  3  1  0  0  0  0
  2  4  1  0  0  0  0
  2  5  1  0  0  0  0
  5  6  2  0  0  0  0
  5  7  1  0  0  0  0
  7  8  1  0  0  0  0
  7  9  1  0  0  0  0
  9 10  1  0  0  0  0
  9 11  1  0  0  0  0
  9 22  1  0  0  0  0
 11 12  1  0  0  0  0
 11 13  1  0  0  0  0
 11 14  1  0  0  0  0
 14 15  1  0  0  0  0
 14 20  2  0  0  0  0
 15 16  2  0  0  0  0
 16 17  1  0  0  0  0
 16 18  1  0  0  0  0
 18 19  1  0  0  0  0
 18 20  1  0  0  0  0
 20 21  1  0  0  0  0
 22 23  2  0  0  0  0
 22 24  1  0  0  0  0
 24 25  1  0  0  0  0
 24 26  1  0  0  0  0
 26 27  1  0  0  0  0
 26 28  1  0  0  0  0
 26 29  1  0  0  0  0
M  END
$$$$

  -OEChem-01062216083D

 29 29  0     1  0  0  0  0  0999 V2000
   -1.7120   -2.7080    2.0458 H   0  0  0  0  0  0  0  0  0  0  0  0
   -2.2050   -1.7802    1.7474 C   0  0  0  0  0  0  0  0  0  0  0  0
   -1.8953   -0.9764    2.4195 H   0  0  0  0  0  0  0  0  0  0  0  0
   -3.2861   -1.9082    1.8390 H   0  0  0  0  0  0  0  0  0  0  0  0
   -1.8539   -1.4394    0.3091 C   0  0  0  0  0  0  0  0  0  0  0  0
   -2.1072   -2.2278   -0.5828 O   0  0  0  0  0  0  0  0  0  0  0  0
   -1.7644   -0.1428   -0.1203 N   0  0  0  0  0  0  0  0  0  0  0  0
   -2.1781   -0.0675   -1.0466 H   0  0  0  0  0  0  0  0  0  0  0  0
   -0.6201    0.7733    0.0904 C   0  0  1  0  0  0  0  0  0  0  0  0
   -0.8973    1.5123    0.8502 H   0  0  0  0  0  0  0  0  0  0  0  0
    0.7419    0.1420    0.4834 C   0  0  0  0  0  0  0  0  0  0  0  0
    1.0423   -0.5634   -0.2974 H   0  0  0  0  0  0  0  0  0  0  0  0
    1.5000    0.9317    0.5188 H   0  0  0  0  0  0  0  0  0  0  0  0
    0.7823   -0.5640    1.8038 C   0  0  0  0  0  0  0  0  0  0  0  0
    0.8080    0.0909    3.0260 N   0  0  0  0  0  0  0  0  0  0  0  0
    0.9845   -0.8301    3.9427 C   0  0  0  0  0  0  0  0  0  0  0  0
    1.0463   -0.6397    5.0105 H   0  0  0  0  0  0  0  0  0  0  0  0
    1.0890   -2.0729    3.3465 N   0  0  0  0  0  0  0  0  0  0  0  0
    1.2670   -2.9469    3.8387 H   0  0  0  0  0  0  0  0  0  0  0  0
    0.9908   -1.9045    1.9813 C   0  0  0  0  0  0  0  0  0  0  0  0
    1.0821   -2.6573    1.2029 H   0  0  0  0  0  0  0  0  0  0  0  0
   -0.3216    1.5059   -1.2371 C   0  0  0  0  0  0  0  0  0  0  0  0
    0.1371    2.6389   -1.2252 O   0  0  0  0  0  0  0  0  0  0  0  0
   -0.5834    0.8921   -2.4522 N   0  0  0  0  0  0  0  0  0  0  0  0
   -0.8097   -0.0997   -2.4325 H   0  0  0  0  0  0  0  0  0  0  0  0
   -0.2680    1.5081   -3.7355 C   0  0  0  0  0  0  0  0  0  0  0  0
    0.8060    1.7070   -3.8124 H   0  0  0  0  0  0  0  0  0  0  0  0
   -0.5567    0.8432   -4.5552 H   0  0  0  0  0  0  0  0  0  0  0  0
   -0.8102    2.4526   -3.8509 H   0  0  0  0  0  0  0  0  0  0  0  0
  1  2  1  0  0  0  0
  2  3  1  0  0  0  0
  2  4  1  0  0  0  0
  2  5  1  0  0  0  0
  5  6  2  0  0  0  0
  5  7  1  0  0  0  0
  7  8  1  0  0  0  0
  7  9  1  0  0  0  0
  9 10  1  0  0  0  0
  9 11  1  0  0  0  0
  9 22  1  0  0  0  0
 11 12  1  0  0  0  0
 11 13  1  0  0  0  0
 11 14  1  0  0  0  0
 14 15  1  0  0  0  0
 14 20  2  0  0  0  0
 15 16  2  0  0  0  0
 16 17  1  0  0  0  0
 16 18  1  0  0  0  0
 18 19  1  0  0  0  0
 18 20  1  0  0  0  0
 20 21  1  0  0  0  0
 22 23  2  0  0  0  0
 22 24  1  0  0  0  0
 24 25  1  0  0  0  0
 24 26  1  0  0  0  0
 26 27  1  0  0  0  0
 26 28  1  0  0  0  0
 26 29  1  0  0  0  0
M  END
$$$$

  -OEChem-01062216083D

 29 29  0     1  0  0  0  0  0999 V2000
   -1.6644   -2.7240    2.0454 H   0  0  0  0  0  0  0  0  0  0  0  0
   -2.1857   -1.8088    1.7566 C   0  0  0  0  0  0  0  0  0  0  0  0
   -1.8858   -0.9974    2.4242 H   0  0  0  0  0  0  0  0  0  0  0  0
   -3.2615   -1.9651    1.8678 H   0  0  0  0  0  0  0  0  0  0  0  0
   -1.8705   -1.4585    0.3120 C   0  0  0  0  0  0  0  0  0  0  0  0
   -2.2044   -2.2200   -0.5769 O   0  0  0  0  0  0  0  0  0  0  0  0
   -1.7702   -0.1586   -0.1065 N   0  0  0  0  0  0  0  0  0  0  0  0
   -2.2312   -0.0544   -1.0058 H   0  0  0  0  0  0  0  0  0  0  0  0
   -0.6343    0.7697    0.1031 C   0  0  1  0  0  0  0  0  0  0  0  0
   -0.9185    1.5033    0.8652 H   0  0  0  0  0  0  0  0  0  0  0  0
    0.7290    0.1393    0.4994 C   0  0  0  0  0  0  0  0  0  0  0  0
    1.0316   -0.5632   -0.2833 H   0  0  0  0  0  0  0  0  0  0  0  0
    1.4876    0.9282    0.5392 H   0  0  0  0  0  0  0  0  0  0  0  0
    0.7742   -0.5678    1.8190 C   0  0  0  0  0  0  0  0  0  0  0  0
    0.8001    0.0841    3.0432 N   0  0  0  0  0  0  0  0  0  0  0  0
    0.9954   -0.8369    3.9561 C   0  0  0  0  0  0  0  0  0  0  0  0
    1.0635   -0.6485    5.0238 H   0  0  0  0  0  0  0  0  0  0  0  0
    1.1123   -2.0768    3.3563 N   0  0  0  0  0  0  0  0  0  0  0  0
    1.3090   -2.9489    3.8450 H   0  0  0  0  0  0  0  0  0  0  0  0
    1.0039   -1.9057    1.9922 C   0  0  0  0  0  0  0  0  0  0  0  0
    1.1060   -2.6541    1.2111 H   0  0  0  0  0  0  0  0  0  0  0  0
   -0.3297    1.5172   -1.2199 C   0  0  0  0  0  0  0  0  0  0  0  0
    0.3231    2.5515   -1.2016 O   0  0  0  0  0  0  0  0  0  0  0  0
   -0.8417    1.0727   -2.4303 N   0  0  0  0  0  0  0  0  0  0  0  0
   -1.1925    0.1189   -2.4585 H   0  0  0  0  0  0  0  0  0  0  0  0
   -0.5503    1.7321   -3.6984 C   0  0  0  0  0  0  0  0  0  0  0  0
    0.5255    1.7135   -3.9024 H   0  0  0  0  0  0  0  0  0  0  0  0
   -1.0679    1.2226   -4.5167 H   0  0  0  0  0  0  0  0  0  0  0  0
   -0.8871    2.7740   -3.6757 H   0  0  0  0  0  0  0  0  0  0  0  0
  1  2  1  0  0  0  0
  2  3  1  0  0  0  0
  2  4  1  0  0  0  0
  2  5  1  0  0  0  0
  5  6  2  0  0  0  0
  5  7  1  0  0  0  0
  7  8  1  0  0  0  0
  7  9  1  0  0  0  0
  9 10  1  0  0  0  0
  9 11  1  0  0  0  0
  9 22  1  0  0  0  0
 11 12  1  0  0  0  0
 11 13  1  0  0  0  0
 11 14  1  0  0  0  0
 14 15  1  0  0  0  0
 14 20  2  0  0  0  0
 15 16  2  0  0  0  0
 16 17  1  0  0  0  0
 16 18  1  0  0  0  0
 18 19  1  0  0  0  0
 18 20  1  0  0  0  0
 20 21  1  0  0  0  0
 22 23  2  0  0  0  0
 22 24  1  0  0  0  0
 24 25  1  0  0  0  0
 24 26  1  0  0  0  0
 26 27  1  0  0  0  0
 26 28  1  0  0  0  0
 26 29  1  0  0  0  0
M  END
$$$$

  -OEChem-01062216083D

 29 29  0     1  0  0  0  0  0999 V2000
   -1.6396   -2.7457    2.0413 H   0  0  0  0  0  0  0  0  0  0  0  0
   -2.1684   -1.8331    1.7581 C   0  0  0  0  0  0  0  0  0  0  0  0
   -1.8728   -1.0216    2.4272 H   0  0  0  0  0  0  0  0  0  0  0  0
   -3.2425   -1.9981    1.8730 H   0  0  0  0  0  0  0  0  0  0  0  0
   -1.8616   -1.4762    0.3134 C   0  0  0  0  0  0  0  0  0  0  0  0
   -2.2343   -2.2211   -0.5738 O   0  0  0  0  0  0  0  0  0  0  0  0
   -1.7616   -0.1740   -0.0981 N   0  0  0  0  0  0  0  0  0  0  0  0
   -2.2327   -0.0745   -0.9901 H   0  0  0  0  0  0  0  0  0  0  0  0
   -0.6272    0.7600    0.1050 C   0  0  1  0  0  0  0  0  0  0  0  0
   -0.9123    1.4905    0.8695 H   0  0  0  0  0  0  0  0  0  0  0  0
    0.7334    0.1230    0.5109 C   0  0  0  0  0  0  0  0  0  0  0  0
    1.0352   -0.5833   -0.2686 H   0  0  0  0  0  0  0  0  0  0  0  0
    1.4984    0.9053    0.5547 H   0  0  0  0  0  0  0  0  0  0  0  0
    0.7735   -0.5752    1.8352 C   0  0  0  0  0  0  0  0  0  0  0  0
    0.8013    0.0839    3.0556 N   0  0  0  0  0  0  0  0  0  0  0  0
    0.9985   -0.8312    3.9740 C   0  0  0  0  0  0  0  0  0  0  0  0
    1.0687   -0.6358    5.0403 H   0  0  0  0  0  0  0  0  0  0  0  0
    1.1148   -2.0746    3.3814 N   0  0  0  0  0  0  0  0  0  0  0  0
    1.3133   -2.9434    3.8749 H   0  0  0  0  0  0  0  0  0  0  0  0
    1.0065   -1.9114    2.0162 C   0  0  0  0  0  0  0  0  0  0  0  0
    1.1118   -2.6634    1.2388 H   0  0  0  0  0  0  0  0  0  0  0  0
   -0.3231    1.5245   -1.2147 C   0  0  0  0  0  0  0  0  0  0  0  0
    0.5115    2.4196   -1.2254 O   0  0  0  0  0  0  0  0  0  0  0  0
   -1.0516    1.3052   -2.3761 N   0  0  0  0  0  0  0  0  0  0  0  0
   -1.5977    0.4523   -2.4305 H   0  0  0  0  0  0  0  0  0  0  0  0
   -0.7891    2.0223   -3.6195 C   0  0  0  0  0  0  0  0  0  0  0  0
    0.2322    1.8313   -3.9655 H   0  0  0  0  0  0  0  0  0  0  0  0
   -1.4856    1.6960   -4.3978 H   0  0  0  0  0  0  0  0  0  0  0  0
   -0.9169    3.1003   -3.4747 H   0  0  0  0  0  0  0  0  0  0  0  0
  1  2  1  0  0  0  0
  2  3  1  0  0  0  0
  2  4  1  0  0  0  0
  2  5  1  0  0  0  0
  5  6  2  0  0  0  0
  5  7  1  0  0  0  0
  7  8  1  0  0  0  0
  7  9  1  0  0  0  0
  9 10  1  0  0  0  0
  9 11  1  0  0  0  0
  9 22  1  0  0  0  0
 11 12  1  0  0  0  0
 11 13  1  0  0  0  0
 11 14  1  0  0  0  0
 14 15  1  0  0  0  0
 14 20  2  0  0  0  0
 15 16  2  0  0  0  0
 16 17  1  0  0  0  0
 16 18  1  0  0  0  0
 18 19  1  0  0  0  0
 18 20  1  0  0  0  0
 20 21  1  0  0  0  0
 22 23  2  0  0  0  0
 22 24  1  0  0  0  0
 24 25  1  0  0  0  0
 24 26  1  0  0  0  0
 26 27  1  0  0  0  0
 26 28  1  0  0  0  0
 26 29  1  0  0  0  0
M  END
$$$$

  -OEChem-01062216083D

 29 29  0     1  0  0  0  0  0999 V2000
   -1.7297   -2.7730    2.0107 H   0  0  0  0  0  0  0  0  0  0  0  0
   -2.1852   -1.8254    1.7141 C   0  0  0  0  0  0  0  0  0  0  0  0
   -1.8826   -1.0465    2.4180 H   0  0  0  0  0  0  0  0  0  0  0  0
   -3.2725   -1.9257    1.7569 H   0  0  0  0  0  0  0  0  0  0  0  0
   -1.7629   -1.4620    0.3004 C   0  0  0  0  0  0  0  0  0  0  0  0
   -1.9625   -2.2467   -0.6074 O   0  0  0  0  0  0  0  0  0  0  0  0
   -1.7116   -0.1565   -0.1091 N   0  0  0  0  0  0  0  0  0  0  0  0
   -1.9894   -0.1811   -1.0865 H   0  0  0  0  0  0  0  0  0  0  0  0
   -0.5603    0.7583    0.0988 C   0  0  1  0  0  0  0  0  0  0  0  0
   -0.8368    1.4852    0.8695 H   0  0  0  0  0  0  0  0  0  0  0  0
    0.7879    0.0999    0.5194 C   0  0  0  0  0  0  0  0  0  0  0  0
    1.0871   -0.6133   -0.2549 H   0  0  0  0  0  0  0  0  0  0  0  0
    1.5666    0.8674    0.5730 H   0  0  0  0  0  0  0  0  0  0  0  0
    0.7955   -0.5895    1.8493 C   0  0  0  0  0  0  0  0  0  0  0  0
    0.8192    0.0781    3.0655 N   0  0  0  0  0  0  0  0  0  0  0  0
    0.9786   -0.8360    3.9923 C   0  0  0  0  0  0  0  0  0  0  0  0
    1.0356   -0.6356    5.0585 H   0  0  0  0  0  0  0  0  0  0  0  0
    1.0734   -2.0862    3.4101 N   0  0  0  0  0  0  0  0  0  0  0  0
    1.2441   -2.9563    3.9117 H   0  0  0  0  0  0  0  0  0  0  0  0
    0.9902   -1.9299    2.0427 C   0  0  0  0  0  0  0  0  0  0  0  0
    1.0865   -2.6892    1.2708 H   0  0  0  0  0  0  0  0  0  0  0  0
   -0.2875    1.5394   -1.2213 C   0  0  0  0  0  0  0  0  0  0  0  0
    0.7746    2.1153   -1.4198 O   0  0  0  0  0  0  0  0  0  0  0  0
   -1.2336    1.5672   -2.2365 N   0  0  0  0  0  0  0  0  0  0  0  0
   -2.1791    1.2905   -1.9929 H   0  0  0  0  0  0  0  0  0  0  0  0
   -1.0374    2.2988   -3.4834 C   0  0  0  0  0  0  0  0  0  0  0  0
   -0.1294    1.9557   -3.9908 H   0  0  0  0  0  0  0  0  0  0  0  0
   -1.8865    2.1359   -4.1540 H   0  0  0  0  0  0  0  0  0  0  0  0
   -0.9483    3.3727   -3.2887 H   0  0  0  0  0  0  0  0  0  0  0  0
  1  2  1  0  0  0  0
  2  3  1  0  0  0  0
  2  4  1  0  0  0  0
  2  5  1  0  0  0  0
  5  6  2  0  0  0  0
  5  7  1  0  0  0  0
  7  8  1  0  0  0  0
  7  9  1  0  0  0  0
  9 10  1  0  0  0  0
  9 11  1  0  0  0  0
  9 22  1  0  0  0  0
 11 12  1  0  0  0  0
 11 13  1  0  0  0  0
 11 14  1  0  0  0  0
 14 15  1  0  0  0  0
 14 20  2  0  0  0  0
 15 16  2  0  0  0  0
 16 17  1  0  0  0  0
 16 18  1  0  0  0  0
 18 19  1  0  0  0  0
 18 20  1  0  0  0  0
 20 21  1  0  0  0  0
 22 23  2  0  0  0  0
 22 24  1  0  0  0  0
 24 25  1  0  0  0  0
 24 26  1  0  0  0  0
 26 27  1  0  0  0  0
 26 28  1  0  0  0  0
 26 29  1  0  0  0  0
M  END
$$$$

  -OEChem-01062216083D

 29 29  0     1  0  0  0  0  0999 V2000
   -1.7086   -2.7615    1.9573 H   0  0  0  0  0  0  0  0  0  0  0  0
   -2.1776   -1.8196    1.6636 C   0  0  0  0  0  0  0  0  0  0  0  0
   -1.8929   -1.0400    2.3745 H   0  0  0  0  0  0  0  0  0  0  0  0
   -3.2633   -1.9386    1.6976 H   0  0  0  0  0  0  0  0  0  0  0  0
   -1.7516   -1.4406    0.2553 C   0  0  0  0  0  0  0  0  0  0  0  0
   -1.9683   -2.2088   -0.6624 O   0  0  0  0  0  0  0  0  0  0  0  0
   -1.6811   -0.1289   -0.1313 N   0  0  0  0  0  0  0  0  0  0  0  0
   -1.9613   -0.1219   -1.1104 H   0  0  0  0  0  0  0  0  0  0  0  0
   -0.5209    0.7671    0.0996 C   0  0  1  0  0  0  0  0  0  0  0  0
   -0.7987    1.4912    0.8725 H   0  0  0  0  0  0  0  0  0  0  0  0
    0.8172    0.0996    0.5345 C   0  0  0  0  0  0  0  0  0  0  0  0
    1.1225   -0.6123   -0.2388 H   0  0  0  0  0  0  0  0  0  0  0  0
    1.5971    0.8651    0.5992 H   0  0  0  0  0  0  0  0  0  0  0  0
    0.8040   -0.5965    1.8607 C   0  0  0  0  0  0  0  0  0  0  0  0
    0.8156    0.0674    3.0794 N   0  0  0  0  0  0  0  0  0  0  0  0
    0.9620   -0.8503    4.0050 C   0  0  0  0  0  0  0  0  0  0  0  0
    1.0079   -0.6536    5.0725 H   0  0  0  0  0  0  0  0  0  0  0  0
    1.0598   -2.0988    3.4198 N   0  0  0  0  0  0  0  0  0  0  0  0
    1.2226   -2.9708    3.9207 H   0  0  0  0  0  0  0  0  0  0  0  0
    0.9925   -1.9380    2.0520 C   0  0  0  0  0  0  0  0  0  0  0  0
    1.0968   -2.6949    1.2787 H   0  0  0  0  0  0  0  0  0  0  0  0
   -0.2527    1.5517   -1.2174 C   0  0  0  0  0  0  0  0  0  0  0  0
    0.8702    1.8954   -1.5643 O   0  0  0  0  0  0  0  0  0  0  0  0
   -1.3106    1.8405   -2.0661 N   0  0  0  0  0  0  0  0  0  0  0  0
   -2.2470    1.7062   -1.6950 H   0  0  0  0  0  0  0  0  0  0  0  0
   -1.1587    2.6008   -3.3019 C   0  0  0  0  0  0  0  0  0  0  0  0
   -0.4285    2.1204   -3.9618 H   0  0  0  0  0  0  0  0  0  0  0  0
   -2.1147    2.6552   -3.8314 H   0  0  0  0  0  0  0  0  0  0  0  0
   -0.8219    3.6201   -3.0863 H   0  0  0  0  0  0  0  0  0  0  0  0
  1  2  1  0  0  0  0
  2  3  1  0  0  0  0
  2  4  1  0  0  0  0
  2  5  1  0  0  0  0
  5  6  2  0  0  0  0
  5  7  1  0  0  0  0
  7  8  1  0  0  0  0
  7  9  1  0  0  0  0
  9 10  1  0  0  0  0
  9 11  1  0  0  0  0
  9 22  1  0  0  0  0
 11 12  1  0  0  0  0
 11 13  1  0  0  0  0
 11 14  1  0  0  0  0
 14 15  1  0  0  0  0
 14 20  2  0  0  0  0
 15 16  2  0  0  0  0
 16 17  1  0  0  0  0
 16 18  1  0  0  0  0
 18 19  1  0  0  0  0
 18 20  1  0  0  0  0
 20 21  1  0  0  0  0
 22 23  2  0  0  0  0
 22 24  1  0  0  0  0
 24 25  1  0  0  0  0
 24 26  1  0  0  0  0
 26 27  1  0  0  0  0
 26 28  1  0  0  0  0
 26 29  1  0  0  0  0
M  END
$$$$

  -OEChem-01062216083D

 29 29  0     1  0  0  0  0  0999 V2000
   -1.6852   -2.7526    1.9170 H   0  0  0  0  0  0  0  0  0  0  0  0
   -2.1640   -1.8135    1.6307 C   0  0  0  0  0  0  0  0  0  0  0  0
   -1.8843   -1.0353    2.3447 H   0  0  0  0  0  0  0  0  0  0  0  0
   -3.2483   -1.9431    1.6697 H   0  0  0  0  0  0  0  0  0  0  0  0
   -1.7488   -1.4234    0.2219 C   0  0  0  0  0  0  0  0  0  0  0  0
   -1.9976   -2.1764   -0.7002 O   0  0  0  0  0  0  0  0  0  0  0  0
   -1.6595   -0.1081   -0.1499 N   0  0  0  0  0  0  0  0  0  0  0  0
   -1.9524   -0.0728   -1.1254 H   0  0  0  0  0  0  0  0  0  0  0  0
   -0.4966    0.7776    0.0989 C   0  0  1  0  0  0  0  0  0  0  0  0
   -0.7762    1.4995    0.8732 H   0  0  0  0  0  0  0  0  0  0  0  0
    0.8355    0.1071    0.5434 C   0  0  0  0  0  0  0  0  0  0  0  0
    1.1451   -0.6048   -0.2282 H   0  0  0  0  0  0  0  0  0  0  0  0
    1.6150    0.8731    0.6117 H   0  0  0  0  0  0  0  0  0  0  0  0
    0.8090   -0.5948    1.8657 C   0  0  0  0  0  0  0  0  0  0  0  0
    0.8096    0.0645    3.0870 N   0  0  0  0  0  0  0  0  0  0  0  0
    0.9454   -0.8575    4.0102 C   0  0  0  0  0  0  0  0  0  0  0  0
    0.9812   -0.6655    5.0790 H   0  0  0  0  0  0  0  0  0  0  0  0
    1.0466   -2.1039    3.4210 N   0  0  0  0  0  0  0  0  0  0  0  0
    1.2023   -2.9786    3.9194 H   0  0  0  0  0  0  0  0  0  0  0  0
    0.9932   -1.9373    2.0534 C   0  0  0  0  0  0  0  0  0  0  0  0
    1.1032   -2.6913    1.2782 H   0  0  0  0  0  0  0  0  0  0  0  0
   -0.2243    1.5622   -1.2143 C   0  0  0  0  0  0  0  0  0  0  0  0
    0.8923    1.6829   -1.7026 O   0  0  0  0  0  0  0  0  0  0  0  0
   -1.2975    2.1187   -1.8903 N   0  0  0  0  0  0  0  0  0  0  0  0
   -2.2012    2.0946   -1.4256 H   0  0  0  0  0  0  0  0  0  0  0  0
   -1.1600    2.8953   -3.1173 C   0  0  0  0  0  0  0  0  0  0  0  0
   -0.6537    2.3070   -3.8901 H   0  0  0  0  0  0  0  0  0  0  0  0
   -2.1460    3.1815   -3.4956 H   0  0  0  0  0  0  0  0  0  0  0  0
   -0.5810    3.8060   -2.9315 H   0  0  0  0  0  0  0  0  0  0  0  0
  1  2  1  0  0  0  0
  2  3  1  0  0  0  0
  2  4  1  0  0  0  0
  2  5  1  0  0  0  0
  5  6  2  0  0  0  0
  5  7  1  0  0  0  0
  7  8  1  0  0  0  0
  7  9  1  0  0  0  0
  9 10  1  0  0  0  0
  9 11  1  0  0  0  0
  9 22  1  0  0  0  0
 11 12  1  0  0  0  0
 11 13  1  0  0  0  0
 11 14  1  0  0  0  0
 14 15  1  0  0  0  0
 14 20  2  0  0  0  0
 15 16  2  0  0  0  0
 16 17  1  0  0  0  0
 16 18  1  0  0  0  0
 18 19  1  0  0  0  0
 18 20  1  0  0  0  0
 20 21  1  0  0  0  0
 22 23  2  0  0  0  0
 22 24  1  0  0  0  0
 24 25  1  0  0  0  0
 24 26  1  0  0  0  0
 26 27  1  0  0  0  0
 26 28  1  0  0  0  0
 26 29  1  0  0  0  0
M  END
$$$$

  -OEChem-01062216083D

 29 29  0     1  0  0  0  0  0999 V2000
   -1.6746   -2.7467    1.8868 H   0  0  0  0  0  0  0  0  0  0  0  0
   -2.1572   -1.8083    1.6047 C   0  0  0  0  0  0  0  0  0  0  0  0
   -1.8769   -1.0304    2.3187 H   0  0  0  0  0  0  0  0  0  0  0  0
   -3.2409   -1.9409    1.6483 H   0  0  0  0  0  0  0  0  0  0  0  0
   -1.7506   -1.4141    0.1944 C   0  0  0  0  0  0  0  0  0  0  0  0
   -2.0265   -2.1573   -0.7281 O   0  0  0  0  0  0  0  0  0  0  0  0
   -1.6486   -0.0970   -0.1685 N   0  0  0  0  0  0  0  0  0  0  0  0
   -1.9497   -0.0440   -1.1408 H   0  0  0  0  0  0  0  0  0  0  0  0
   -0.4847    0.7814    0.0934 C   0  0  1  0  0  0  0  0  0  0  0  0
   -0.7675    1.4996    0.8698 H   0  0  0  0  0  0  0  0  0  0  0  0
    0.8440    0.1115    0.5463 C   0  0  0  0  0  0  0  0  0  0  0  0
    1.1560   -0.6043   -0.2211 H   0  0  0  0  0  0  0  0  0  0  0  0
    1.6233    0.8776    0.6130 H   0  0  0  0  0  0  0  0  0  0  0  0
    0.8088   -0.5927    1.8665 C   0  0  0  0  0  0  0  0  0  0  0  0
    0.8002    0.0657    3.0882 N   0  0  0  0  0  0  0  0  0  0  0  0
    0.9310   -0.8575    4.0110 C   0  0  0  0  0  0  0  0  0  0  0  0
    0.9596   -0.6660    5.0800 H   0  0  0  0  0  0  0  0  0  0  0  0
    1.0374   -2.1033    3.4211 N   0  0  0  0  0  0  0  0  0  0  0  0
    1.1893   -2.9788    3.9197 H   0  0  0  0  0  0  0  0  0  0  0  0
    0.9934   -1.9350    2.0533 C   0  0  0  0  0  0  0  0  0  0  0  0
    1.1098   -2.6869    1.2770 H   0  0  0  0  0  0  0  0  0  0  0  0
   -0.1996    1.5696   -1.2122 C   0  0  0  0  0  0  0  0  0  0  0  0
    0.8489    1.4712   -1.8375 O   0  0  0  0  0  0  0  0  0  0  0  0
   -1.1942    2.3881   -1.7183 N   0  0  0  0  0  0  0  0  0  0  0  0
   -2.0468    2.4804   -1.1727 H   0  0  0  0  0  0  0  0  0  0  0  0
   -1.0464    3.1760   -2.9365 C   0  0  0  0  0  0  0  0  0  0  0  0
   -0.8040    2.5280   -3.7855 H   0  0  0  0  0  0  0  0  0  0  0  0
   -1.9786    3.7030   -3.1611 H   0  0  0  0  0  0  0  0  0  0  0  0
   -0.2485    3.9166   -2.8188 H   0  0  0  0  0  0  0  0  0  0  0  0
  1  2  1  0  0  0  0
  2  3  1  0  0  0  0
  2  4  1  0  0  0  0
  2  5  1  0  0  0  0
  5  6  2  0  0  0  0
  5  7  1  0  0  0  0
  7  8  1  0  0  0  0
  7  9  1  0  0  0  0
  9 10  1  0  0  0  0
  9 11  1  0  0  0  0
  9 22  1  0  0  0  0
 11 12  1  0  0  0  0
 11 13  1  0  0  0  0
 11 14  1  0  0  0  0
 14 15  1  0  0  0  0
 14 20  2  0  0  0  0
 15 16  2  0  0  0  0
 16 17  1  0  0  0  0
 16 18  1  0  0  0  0
 18 19  1  0  0  0  0
 18 20  1  0  0  0  0
 20 21  1  0  0  0  0
 22 23  2  0  0  0  0
 22 24  1  0  0  0  0
 24 25  1  0  0  0  0
 24 26  1  0  0  0  0
 26 27  1  0  0  0  0
 26 28  1  0  0  0  0
 26 29  1  0  0  0  0
M  END
$$$$

  -OEChem-01062216083D

 29 29  0     1  0  0  0  0  0999 V2000
   -1.6715   -2.7389    1.8725 H   0  0  0  0  0  0  0  0  0  0  0  0
   -2.1576   -1.8037    1.5866 C   0  0  0  0  0  0  0  0  0  0  0  0
   -1.8836   -1.0227    2.2995 H   0  0  0  0  0  0  0  0  0  0  0  0
   -3.2407   -1.9420    1.6276 H   0  0  0  0  0  0  0  0  0  0  0  0
   -1.7492   -1.4115    0.1762 C   0  0  0  0  0  0  0  0  0  0  0  0
   -2.0299   -2.1555   -0.7441 O   0  0  0  0  0  0  0  0  0  0  0  0
   -1.6415   -0.0946   -0.1866 N   0  0  0  0  0  0  0  0  0  0  0  0
   -1.9359   -0.0397   -1.1610 H   0  0  0  0  0  0  0  0  0  0  0  0
   -0.4813    0.7840    0.0861 C   0  0  1  0  0  0  0  0  0  0  0  0
   -0.7713    1.4983    0.8631 H   0  0  0  0  0  0  0  0  0  0  0  0
    0.8476    0.1205    0.5454 C   0  0  0  0  0  0  0  0  0  0  0  0
    1.1670   -0.5960   -0.2183 H   0  0  0  0  0  0  0  0  0  0  0  0
    1.6227    0.8905    0.6128 H   0  0  0  0  0  0  0  0  0  0  0  0
    0.8075   -0.5863    1.8636 C   0  0  0  0  0  0  0  0  0  0  0  0
    0.7878    0.0712    3.0857 N   0  0  0  0  0  0  0  0  0  0  0  0
    0.9129   -0.8532    4.0082 C   0  0  0  0  0  0  0  0  0  0  0  0
    0.9335   -0.6641    5.0779 H   0  0  0  0  0  0  0  0  0  0  0  0
    1.0251   -2.0981    3.4175 N   0  0  0  0  0  0  0  0  0  0  0  0
    1.1720   -2.9743    3.9161 H   0  0  0  0  0  0  0  0  0  0  0  0
    0.9916   -1.9286    2.0497 C   0  0  0  0  0  0  0  0  0  0  0  0
    1.1134   -2.6799    1.2735 H   0  0  0  0  0  0  0  0  0  0  0  0
   -0.1765    1.5736   -1.2119 C   0  0  0  0  0  0  0  0  0  0  0  0
    0.7408    1.2758   -1.9666 O   0  0  0  0  0  0  0  0  0  0  0  0
   -1.0109    2.6187   -1.5648 N   0  0  0  0  0  0  0  0  0  0  0  0
   -1.7752    2.8426   -0.9336 H   0  0  0  0  0  0  0  0  0  0  0  0
   -0.8376    3.4145   -2.7743 C   0  0  0  0  0  0  0  0  0  0  0  0
   -0.8769    2.7760   -3.6632 H   0  0  0  0  0  0  0  0  0  0  0  0
   -1.6326    4.1624   -2.8517 H   0  0  0  0  0  0  0  0  0  0  0  0
    0.1261    3.9342   -2.7556 H   0  0  0  0  0  0  0  0  0  0  0  0
  1  2  1  0  0  0  0
  2  3  1  0  0  0  0
  2  4  1  0  0  0  0
  2  5  1  0  0  0  0
  5  6  2  0  0  0  0
  5  7  1  0  0  0  0
  7  8  1  0  0  0  0
  7  9  1  0  0  0  0
  9 10  1  0  0  0  0
  9 11  1  0  0  0  0
  9 22  1  0  0  0  0
 11 12  1  0  0  0  0
 11 13  1  0  0  0  0
 11 14  1  0  0  0  0
 14 15  1  0  0  0  0
 14 20  2  0  0  0  0
 15 16  2  0  0  0  0
 16 17  1  0  0  0  0
 16 18  1  0  0  0  0
 18 19  1  0  0  0  0
 18 20  1  0  0  0  0
 20 21  1  0  0  0  0
 22 23  2  0  0  0  0
 22 24  1  0  0  0  0
 24 25  1  0  0  0  0
 24 26  1  0  0  0  0
 26 27  1  0  0  0  0
 26 28  1  0  0  0  0
 26 29  1  0  0  0  0
M  END
$$$$

  -OEChem-01062216083D

 29 29  0     1  0  0  0  0  0999 V2000
   -1.6755   -2.7282    1.8673 H   0  0  0  0  0  0  0  0  0  0  0  0
   -2.1593   -1.7934    1.5760 C   0  0  0  0  0  0  0  0  0  0  0  0
   -1.8844   -1.0092    2.2849 H   0  0  0  0  0  0  0  0  0  0  0  0
   -3.2427   -1.9298    1.6163 H   0  0  0  0  0  0  0  0  0  0  0  0
   -1.7484   -1.4093    0.1643 C   0  0  0  0  0  0  0  0  0  0  0  0
   -2.0191   -2.1643   -0.7501 O   0  0  0  0  0  0  0  0  0  0  0  0
   -1.6402   -0.0942   -0.2058 N   0  0  0  0  0  0  0  0  0  0  0  0
   -1.9140   -0.0477   -1.1869 H   0  0  0  0  0  0  0  0  0  0  0  0
   -0.4859    0.7872    0.0780 C   0  0  1  0  0  0  0  0  0  0  0  0
   -0.7864    1.4990    0.8535 H   0  0  0  0  0  0  0  0  0  0  0  0
    0.8448    0.1325    0.5422 C   0  0  0  0  0  0  0  0  0  0  0  0
    1.1717   -0.5814   -0.2211 H   0  0  0  0  0  0  0  0  0  0  0  0
    1.6150    0.9070    0.6132 H   0  0  0  0  0  0  0  0  0  0  0  0
    0.8036   -0.5796    1.8577 C   0  0  0  0  0  0  0  0  0  0  0  0
    0.7728    0.0760    3.0807 N   0  0  0  0  0  0  0  0  0  0  0  0
    0.8966   -0.8496    4.0024 C   0  0  0  0  0  0  0  0  0  0  0  0
    0.9079   -0.6625    5.0725 H   0  0  0  0  0  0  0  0  0  0  0  0
    1.0214   -2.0926    3.4103 N   0  0  0  0  0  0  0  0  0  0  0  0
    1.1700   -2.9689    3.9082 H   0  0  0  0  0  0  0  0  0  0  0  0
    0.9937   -1.9212    2.0425 C   0  0  0  0  0  0  0  0  0  0  0  0
    1.1213   -2.6708    1.2656 H   0  0  0  0  0  0  0  0  0  0  0  0
   -0.1560    1.5743   -1.2128 C   0  0  0  0  0  0  0  0  0  0  0  0
    0.5662    1.1093   -2.0852 O   0  0  0  0  0  0  0  0  0  0  0  0
   -0.7654    2.7960   -1.4342 N   0  0  0  0  0  0  0  0  0  0  0  0
   -1.3895    3.1483   -0.7138 H   0  0  0  0  0  0  0  0  0  0  0  0
   -0.5607    3.5896   -2.6401 C   0  0  0  0  0  0  0  0  0  0  0  0
   -0.8594    3.0227   -3.5282 H   0  0  0  0  0  0  0  0  0  0  0  0
   -1.1599    4.5041   -2.5969 H   0  0  0  0  0  0  0  0  0  0  0  0
    0.4930    3.8706   -2.7389 H   0  0  0  0  0  0  0  0  0  0  0  0
  1  2  1  0  0  0  0
  2  3  1  0  0  0  0
  2  4  1  0  0  0  0
  2  5  1  0  0  0  0
  5  6  2  0  0  0  0
  5  7  1  0  0  0  0
  7  8  1  0  0  0  0
  7  9  1  0  0  0  0
  9 10  1  0  0  0  0
  9 11  1  0  0  0  0
  9 22  1  0  0  0  0
 11 12  1  0  0  0  0
 11 13  1  0  0  0  0
 11 14  1  0  0  0  0
 14 15  1  0  0  0  0
 14 20  2  0  0  0  0
 15 16  2  0  0  0  0
 16 17  1  0  0  0  0
 16 18  1  0  0  0  0
 18 19  1  0  0  0  0
 18 20  1  0  0  0  0
 20 21  1  0  0  0  0
 22 23  2  0  0  0  0
 22 24  1  0  0  0  0
 24 25  1  0  0  0  0
 24 26  1  0  0  0  0
 26 27  1  0  0  0  0
 26 28  1  0  0  0  0
 26 29  1  0  0  0  0
M  END
$$$$

  -OEChem-01062216083D

 29 29  0     1  0  0  0  0  0999 V2000
   -1.6888   -2.6992    1.8818 H   0  0  0  0  0  0  0  0  0  0  0  0
   -2.1678   -1.7674    1.5737 C   0  0  0  0  0  0  0  0  0  0  0  0
   -1.8987   -0.9747    2.2755 H   0  0  0  0  0  0  0  0  0  0  0  0
   -3.2519   -1.9008    1.6034 H   0  0  0  0  0  0  0  0  0  0  0  0
   -1.7414   -1.4027    0.1615 C   0  0  0  0  0  0  0  0  0  0  0  0
   -1.9901   -2.1765   -0.7432 O   0  0  0  0  0  0  0  0  0  0  0  0
   -1.6308   -0.0918   -0.2224 N   0  0  0  0  0  0  0  0  0  0  0  0
   -1.8739   -0.0611   -1.2128 H   0  0  0  0  0  0  0  0  0  0  0  0
   -0.4831    0.7938    0.0728 C   0  0  1  0  0  0  0  0  0  0  0  0
   -0.7940    1.5058    0.8440 H   0  0  0  0  0  0  0  0  0  0  0  0
    0.8493    0.1465    0.5382 C   0  0  0  0  0  0  0  0  0  0  0  0
    1.1852   -0.5590   -0.2291 H   0  0  0  0  0  0  0  0  0  0  0  0
    1.6135    0.9259    0.6200 H   0  0  0  0  0  0  0  0  0  0  0  0
    0.8048   -0.5737    1.8487 C   0  0  0  0  0  0  0  0  0  0  0  0
    0.7624    0.0757    3.0744 N   0  0  0  0  0  0  0  0  0  0  0  0
    0.8784   -0.8553    3.9918 C   0  0  0  0  0  0  0  0  0  0  0  0
    0.8789   -0.6739    5.0630 H   0  0  0  0  0  0  0  0  0  0  0  0
    1.0099   -2.0949    3.3940 N   0  0  0  0  0  0  0  0  0  0  0  0
    1.1497   -2.9745    3.8886 H   0  0  0  0  0  0  0  0  0  0  0  0
    0.9947   -1.9159    2.0270 C   0  0  0  0  0  0  0  0  0  0  0  0
    1.1270   -2.6611    1.2464 H   0  0  0  0  0  0  0  0  0  0  0  0
   -0.1282    1.5684   -1.2164 C   0  0  0  0  0  0  0  0  0  0  0  0
    0.3546    0.9938   -2.1833 O   0  0  0  0  0  0  0  0  0  0  0  0
   -0.4700    2.9034   -1.3320 N   0  0  0  0  0  0  0  0  0  0  0  0
   -0.9148    3.3478   -0.5338 H   0  0  0  0  0  0  0  0  0  0  0  0
   -0.2457    3.6874   -2.5406 C   0  0  0  0  0  0  0  0  0  0  0  0
   -0.7806    3.2469   -3.3887 H   0  0  0  0  0  0  0  0  0  0  0  0
   -0.6058    4.7111   -2.3997 H   0  0  0  0  0  0  0  0  0  0  0  0
    0.8224    3.7261   -2.7789 H   0  0  0  0  0  0  0  0  0  0  0  0
  1  2  1  0  0  0  0
  2  3  1  0  0  0  0
  2  4  1  0  0  0  0
  2  5  1  0  0  0  0
  5  6  2  0  0  0  0
  5  7  1  0  0  0  0
  7  8  1  0  0  0  0
  7  9  1  0  0  0  0
  9 10  1  0  0  0  0
  9 11  1  0  0  0  0
  9 22  1  0  0  0  0
 11 12  1  0  0  0  0
 11 13  1  0  0  0  0
 11 14  1  0  0  0  0
 14 15  1  0  0  0  0
 14 20  2  0  0  0  0
 15 16  2  0  0  0  0
 16 17  1  0  0  0  0
 16 18  1  0  0  0  0
 18 19  1  0  0  0  0
 18 20  1  0  0  0  0
 20 21  1  0  0  0  0
 22 23  2  0  0  0  0
 22 24  1  0  0  0  0
 24 25  1  0  0  0  0
 24 26  1  0  0  0  0
 26 27  1  0  0  0  0
 26 28  1  0  0  0  0
 26 29  1  0  0  0  0
M  END
$$$$

  -OEChem-01062216083D

 29 29  0     1  0  0  0  0  0999 V2000
   -1.7093   -2.6742    1.9070 H   0  0  0  0  0  0  0  0  0  0  0  0
   -2.1773   -1.7424    1.5819 C   0  0  0  0  0  0  0  0  0  0  0  0
   -1.9040   -0.9422    2.2734 H   0  0  0  0  0  0  0  0  0  0  0  0
   -3.2627   -1.8642    1.6069 H   0  0  0  0  0  0  0  0  0  0  0  0
   -1.7385   -1.4022    0.1673 C   0  0  0  0  0  0  0  0  0  0  0  0
   -1.9542   -2.2024   -0.7231 O   0  0  0  0  0  0  0  0  0  0  0  0
   -1.6299   -0.0973   -0.2376 N   0  0  0  0  0  0  0  0  0  0  0  0
   -1.8462   -0.0855   -1.2357 H   0  0  0  0  0  0  0  0  0  0  0  0
   -0.4887    0.7959    0.0592 C   0  0  1  0  0  0  0  0  0  0  0  0
   -0.8078    1.5129    0.8223 H   0  0  0  0  0  0  0  0  0  0  0  0
    0.8455    0.1546    0.5242 C   0  0  0  0  0  0  0  0  0  0  0  0
    1.1842   -0.5463   -0.2462 H   0  0  0  0  0  0  0  0  0  0  0  0
    1.6066    0.9365    0.6090 H   0  0  0  0  0  0  0  0  0  0  0  0
    0.8048   -0.5687    1.8333 C   0  0  0  0  0  0  0  0  0  0  0  0
    0.7593    0.0787    3.0599 N   0  0  0  0  0  0  0  0  0  0  0  0
    0.8754   -0.8540    3.9757 C   0  0  0  0  0  0  0  0  0  0  0  0
    0.8732   -0.6752    5.0472 H   0  0  0  0  0  0  0  0  0  0  0  0
    1.0108   -2.0922    3.3758 N   0  0  0  0  0  0  0  0  0  0  0  0
    1.1513   -2.9727    3.8687 H   0  0  0  0  0  0  0  0  0  0  0  0
    0.9963   -1.9111    2.0092 C   0  0  0  0  0  0  0  0  0  0  0  0
    1.1289   -2.6554    1.2279 H   0  0  0  0  0  0  0  0  0  0  0  0
   -0.1143    1.5541   -1.2330 C   0  0  0  0  0  0  0  0  0  0  0  0
    0.1242    0.9398   -2.2646 O   0  0  0  0  0  0  0  0  0  0  0  0
   -0.1649    2.9358   -1.2675 N   0  0  0  0  0  0  0  0  0  0  0  0
   -0.4086    3.4225   -0.4094 H   0  0  0  0  0  0  0  0  0  0  0  0
    0.0985    3.7167   -2.4702 C   0  0  0  0  0  0  0  0  0  0  0  0
   -0.6136    3.4563   -3.2605 H   0  0  0  0  0  0  0  0  0  0  0  0
    0.0013    4.7854   -2.2562 H   0  0  0  0  0  0  0  0  0  0  0  0
    1.1138    3.5280   -2.8345 H   0  0  0  0  0  0  0  0  0  0  0  0
  1  2  1  0  0  0  0
  2  3  1  0  0  0  0
  2  4  1  0  0  0  0
  2  5  1  0  0  0  0
  5  6  2  0  0  0  0
  5  7  1  0  0  0  0
  7  8  1  0  0  0  0
  7  9  1  0  0  0  0
  9 10  1  0  0  0  0
  9 11  1  0  0  0  0
  9 22  1  0  0  0  0
 11 12  1  0  0  0  0
 11 13  1  0  0  0  0
 11 14  1  0  0  0  0
 14 15  1  0  0  0  0
 14 20  2  0  0  0  0
 15 16  2  0  0  0  0
 16 17  1  0  0  0  0
 16 18  1  0  0  0  0
 18 19  1  0  0  0  0
 18 20  1  0  0  0  0
 20 21  1  0  0  0  0
 22 23  2  0  0  0  0
 22 24  1  0  0  0  0
 24 25  1  0  0  0  0
 24 26  1  0  0  0  0
 26 27  1  0  0  0  0
 26 28  1  0  0  0  0
 26 29  1  0  0  0  0
M  END
$$$$

  -OEChem-01062216083D

 29 29  0     1  0  0  0  0  0999 V2000
   -1.7279   -2.6519    1.9355 H   0  0  0  0  0  0  0  0  0  0  0  0
   -2.1878   -1.7220    1.5937 C   0  0  0  0  0  0  0  0  0  0  0  0
   -1.9118   -0.9134    2.2745 H   0  0  0  0  0  0  0  0  0  0  0  0
   -3.2743   -1.8360    1.6153 H   0  0  0  0  0  0  0  0  0  0  0  0
   -1.7395   -1.4058    0.1762 C   0  0  0  0  0  0  0  0  0  0  0  0
   -1.9312   -2.2285   -0.6991 O   0  0  0  0  0  0  0  0  0  0  0  0
   -1.6301   -0.1073   -0.2495 N   0  0  0  0  0  0  0  0  0  0  0  0
   -1.8355   -0.1090   -1.2510 H   0  0  0  0  0  0  0  0  0  0  0  0
   -0.4890    0.7902    0.0354 C   0  0  1  0  0  0  0  0  0  0  0  0
   -0.8072    1.5171    0.7894 H   0  0  0  0  0  0  0  0  0  0  0  0
    0.8452    0.1492    0.4991 C   0  0  0  0  0  0  0  0  0  0  0  0
    1.1780   -0.5567   -0.2695 H   0  0  0  0  0  0  0  0  0  0  0  0
    1.6094    0.9287    0.5770 H   0  0  0  0  0  0  0  0  0  0  0  0
    0.8072   -0.5652    1.8130 C   0  0  0  0  0  0  0  0  0  0  0  0
    0.7676    0.0920    3.0344 N   0  0  0  0  0  0  0  0  0  0  0  0
    0.8790   -0.8341    3.9575 C   0  0  0  0  0  0  0  0  0  0  0  0
    0.8781   -0.6469    5.0277 H   0  0  0  0  0  0  0  0  0  0  0  0
    1.0072   -2.0775    3.3669 N   0  0  0  0  0  0  0  0  0  0  0  0
    1.1420   -2.9552    3.8666 H   0  0  0  0  0  0  0  0  0  0  0  0
    0.9906   -1.9073    1.9988 C   0  0  0  0  0  0  0  0  0  0  0  0
    1.1143   -2.6592    1.2231 H   0  0  0  0  0  0  0  0  0  0  0  0
   -0.1050    1.5322   -1.2635 C   0  0  0  0  0  0  0  0  0  0  0  0
   -0.1128    0.9436   -2.3371 O   0  0  0  0  0  0  0  0  0  0  0  0
    0.1490    2.8916   -1.2390 N   0  0  0  0  0  0  0  0  0  0  0  0
    0.1117    3.3638   -0.3399 H   0  0  0  0  0  0  0  0  0  0  0  0
    0.4493    3.6718   -2.4334 C   0  0  0  0  0  0  0  0  0  0  0  0
   -0.3862    3.6287   -3.1402 H   0  0  0  0  0  0  0  0  0  0  0  0
    0.6231    4.7189   -2.1674 H   0  0  0  0  0  0  0  0  0  0  0  0
    1.3481    3.2869   -2.9263 H   0  0  0  0  0  0  0  0  0  0  0  0
  1  2  1  0  0  0  0
  2  3  1  0  0  0  0
  2  4  1  0  0  0  0
  2  5  1  0  0  0  0
  5  6  2  0  0  0  0
  5  7  1  0  0  0  0
  7  8  1  0  0  0  0
  7  9  1  0  0  0  0
  9 10  1  0  0  0  0
  9 11  1  0  0  0  0
  9 22  1  0  0  0  0
 11 12  1  0  0  0  0
 11 13  1  0  0  0  0
 11 14  1  0  0  0  0
 14 15  1  0  0  0  0
 14 20  2  0  0  0  0
 15 16  2  0  0  0  0
 16 17  1  0  0  0  0
 16 18  1  0  0  0  0
 18 19  1  0  0  0  0
 18 20  1  0  0  0  0
 20 21  1  0  0  0  0
 22 23  2  0  0  0  0
 22 24  1  0  0  0  0
 24 25  1  0  0  0  0
 24 26  1  0  0  0  0
 26 27  1  0  0  0  0
 26 28  1  0  0  0  0
 26 29  1  0  0  0  0
M  END
$$$$

  -OEChem-01062216083D

 29 29  0     1  0  0  0  0  0999 V2000
   -1.7553   -2.6448    1.9538 H   0  0  0  0  0  0  0  0  0  0  0  0
   -2.1974   -1.7094    1.6034 C   0  0  0  0  0  0  0  0  0  0  0  0
   -1.9106   -0.9014    2.2802 H   0  0  0  0  0  0  0  0  0  0  0  0
   -3.2858   -1.8039    1.6192 H   0  0  0  0  0  0  0  0  0  0  0  0
   -1.7348   -1.4105    0.1868 C   0  0  0  0  0  0  0  0  0  0  0  0
   -1.8879   -2.2539   -0.6764 O   0  0  0  0  0  0  0  0  0  0  0  0
   -1.6291   -0.1172   -0.2548 N   0  0  0  0  0  0  0  0  0  0  0  0
   -1.8387   -0.1245   -1.2564 H   0  0  0  0  0  0  0  0  0  0  0  0
   -0.4866    0.7842    0.0122 C   0  0  1  0  0  0  0  0  0  0  0  0
   -0.7986    1.5209    0.7593 H   0  0  0  0  0  0  0  0  0  0  0  0
    0.8461    0.1367    0.4738 C   0  0  0  0  0  0  0  0  0  0  0  0
    1.1667   -0.5787   -0.2910 H   0  0  0  0  0  0  0  0  0  0  0  0
    1.6190    0.9085    0.5413 H   0  0  0  0  0  0  0  0  0  0  0  0
    0.8119   -0.5659    1.7944 C   0  0  0  0  0  0  0  0  0  0  0  0
    0.7857    0.1046    3.0088 N   0  0  0  0  0  0  0  0  0  0  0  0
    0.8926   -0.8132    3.9409 C   0  0  0  0  0  0  0  0  0  0  0  0
    0.9001   -0.6153    5.0090 H   0  0  0  0  0  0  0  0  0  0  0  0
    1.0042   -2.0639    3.3625 N   0  0  0  0  0  0  0  0  0  0  0  0
    1.1279   -2.9382    3.8708 H   0  0  0  0  0  0  0  0  0  0  0  0
    0.9824   -1.9078    1.9929 C   0  0  0  0  0  0  0  0  0  0  0  0
    1.0930   -2.6694    1.2248 H   0  0  0  0  0  0  0  0  0  0  0  0
   -0.1057    1.5148   -1.2955 C   0  0  0  0  0  0  0  0  0  0  0  0
   -0.3503    1.0081   -2.3836 O   0  0  0  0  0  0  0  0  0  0  0  0
    0.4448    2.7833   -1.2495 N   0  0  0  0  0  0  0  0  0  0  0  0
    0.6024    3.1978   -0.3350 H   0  0  0  0  0  0  0  0  0  0  0  0
    0.7734    3.5577   -2.4404 C   0  0  0  0  0  0  0  0  0  0  0  0
   -0.1263    3.7457   -3.0358 H   0  0  0  0  0  0  0  0  0  0  0  0
    1.2080    4.5212   -2.1571 H   0  0  0  0  0  0  0  0  0  0  0  0
    1.4996    3.0200   -3.0590 H   0  0  0  0  0  0  0  0  0  0  0  0
  1  2  1  0  0  0  0
  2  3  1  0  0  0  0
  2  4  1  0  0  0  0
  2  5  1  0  0  0  0
  5  6  2  0  0  0  0
  5  7  1  0  0  0  0
  7  8  1  0  0  0  0
  7  9  1  0  0  0  0
  9 10  1  0  0  0  0
  9 11  1  0  0  0  0
  9 22  1  0  0  0  0
 11 12  1  0  0  0  0
 11 13  1  0  0  0  0
 11 14  1  0  0  0  0
 14 15  1  0  0  0  0
 14 20  2  0  0  0  0
 15 16  2  0  0  0  0
 16 17  1  0  0  0  0
 16 18  1  0  0  0  0
 18 19  1  0  0  0  0
 18 20  1  0  0  0  0
 20 21  1  0  0  0  0
 22 23  2  0  0  0  0
 22 24  1  0  0  0  0
 24 25  1  0  0  0  0
 24 26  1  0  0  0  0
 26 27  1  0  0  0  0
 26 28  1  0  0  0  0
 26 29  1  0  0  0  0
M  END
$$$$

  -OEChem-01062216083D

 29 29  0     1  0  0  0  0  0999 V2000
   -1.7890   -2.6531    1.9616 H   0  0  0  0  0  0  0  0  0  0  0  0
   -2.2079   -1.7067    1.6118 C   0  0  0  0  0  0  0  0  0  0  0  0
   -1.9069   -0.9078    2.2933 H   0  0  0  0  0  0  0  0  0  0  0  0
   -3.2982   -1.7763    1.6202 H   0  0  0  0  0  0  0  0  0  0  0  0
   -1.7296   -1.4124    0.1997 C   0  0  0  0  0  0  0  0  0  0  0  0
   -1.8486   -2.2659   -0.6591 O   0  0  0  0  0  0  0  0  0  0  0  0
   -1.6276   -0.1201   -0.2459 N   0  0  0  0  0  0  0  0  0  0  0  0
   -1.8614   -0.1182   -1.2425 H   0  0  0  0  0  0  0  0  0  0  0  0
   -0.4791    0.7810   -0.0016 C   0  0  1  0  0  0  0  0  0  0  0  0
   -0.7766    1.5236    0.7457 H   0  0  0  0  0  0  0  0  0  0  0  0
    0.8511    0.1191    0.4525 C   0  0  0  0  0  0  0  0  0  0  0  0
    1.1549   -0.6060   -0.3100 H   0  0  0  0  0  0  0  0  0  0  0  0
    1.6371    0.8778    0.5108 H   0  0  0  0  0  0  0  0  0  0  0  0
    0.8190   -0.5717    1.7799 C   0  0  0  0  0  0  0  0  0  0  0  0
    0.8131    0.1104    2.9882 N   0  0  0  0  0  0  0  0  0  0  0  0
    0.9138   -0.8000    3.9282 C   0  0  0  0  0  0  0  0  0  0  0  0
    0.9327   -0.5922    4.9944 H   0  0  0  0  0  0  0  0  0  0  0  0
    1.0019   -2.0576    3.3607 N   0  0  0  0  0  0  0  0  0  0  0  0
    1.1159   -2.9290    3.8763 H   0  0  0  0  0  0  0  0  0  0  0  0
    0.9710   -1.9141    1.9898 C   0  0  0  0  0  0  0  0  0  0  0  0
    1.0611   -2.6845    1.2277 H   0  0  0  0  0  0  0  0  0  0  0  0
   -0.1179    1.5093   -1.3198 C   0  0  0  0  0  0  0  0  0  0  0  0
   -0.5856    1.1310   -2.3876 O   0  0  0  0  0  0  0  0  0  0  0  0
    0.7040    2.6230   -1.3048 N   0  0  0  0  0  0  0  0  0  0  0  0
    1.0430    2.9469   -0.4031 H   0  0  0  0  0  0  0  0  0  0  0  0
    1.0554    3.3779   -2.5018 C   0  0  0  0  0  0  0  0  0  0  0  0
    0.1574    3.7957   -2.9690 H   0  0  0  0  0  0  0  0  0  0  0  0
    1.7275    4.2024   -2.2446 H   0  0  0  0  0  0  0  0  0  0  0  0
    1.5628    2.7332   -3.2271 H   0  0  0  0  0  0  0  0  0  0  0  0
  1  2  1  0  0  0  0
  2  3  1  0  0  0  0
  2  4  1  0  0  0  0
  2  5  1  0  0  0  0
  5  6  2  0  0  0  0
  5  7  1  0  0  0  0
  7  8  1  0  0  0  0
  7  9  1  0  0  0  0
  9 10  1  0  0  0  0
  9 11  1  0  0  0  0
  9 22  1  0  0  0  0
 11 12  1  0  0  0  0
 11 13  1  0  0  0  0
 11 14  1  0  0  0  0
 14 15  1  0  0  0  0
 14 20  2  0  0  0  0
 15 16  2  0  0  0  0
 16 17  1  0  0  0  0
 16 18  1  0  0  0  0
 18 19  1  0  0  0  0
 18 20  1  0  0  0  0
 20 21  1  0  0  0  0
 22 23  2  0  0  0  0
 22 24  1  0  0  0  0
 24 25  1  0  0  0  0
 24 26  1  0  0  0  0
 26 27  1  0  0  0  0
 26 28  1  0  0  0  0
 26 29  1  0  0  0  0
M  END
$$$$

  -OEChem-01062216083D

 29 29  0     1  0  0  0  0  0999 V2000
   -1.5596   -0.8845    2.3315 H   0  0  0  0  0  0  0  0  0  0  0  0
   -2.0459   -1.6432    1.7142 C   0  0  0  0  0  0  0  0  0  0  0  0
   -3.1068   -1.6719    1.9740 H   0  0  0  0  0  0  0  0  0  0  0  0
   -1.6024   -2.6178    1.9286 H   0  0  0  0  0  0  0  0  0  0  0  0
   -1.8953   -1.3122    0.2381 C   0  0  0  0  0  0  0  0  0  0  0  0
   -2.3473   -2.0766   -0.5942 O   0  0  0  0  0  0  0  0  0  0  0  0
   -1.6836   -0.0258   -0.1882 N   0  0  0  0  0  0  0  0  0  0  0  0
   -2.0430    0.0878   -1.1393 H   0  0  0  0  0  0  0  0  0  0  0  0
   -0.4819    0.8041    0.0485 C   0  0  1  0  0  0  0  0  0  0  0  0
   -0.6109    1.3709    0.9761 H   0  0  0  0  0  0  0  0  0  0  0  0
    0.8619    0.0202    0.1008 C   0  0  0  0  0  0  0  0  0  0  0  0
    0.9851   -0.5120   -0.8481 H   0  0  0  0  0  0  0  0  0  0  0  0
    1.6957    0.7213    0.1927 H   0  0  0  0  0  0  0  0  0  0  0  0
    1.0206   -0.9639    1.2173 C   0  0  0  0  0  0  0  0  0  0  0  0
    1.2679   -0.5876    2.5297 N   0  0  0  0  0  0  0  0  0  0  0  0
    1.4658   -1.6976    3.2019 C   0  0  0  0  0  0  0  0  0  0  0  0
    1.6843   -1.7496    4.2648 H   0  0  0  0  0  0  0  0  0  0  0  0
    1.3629   -2.7869    2.3566 N   0  0  0  0  0  0  0  0  0  0  0  0
    1.4956   -3.7593    2.6306 H   0  0  0  0  0  0  0  0  0  0  0  0
    1.1016   -2.3222    1.0851 C   0  0  0  0  0  0  0  0  0  0  0  0
    0.9931   -2.8940    0.1667 H   0  0  0  0  0  0  0  0  0  0  0  0
   -0.3161    1.7926   -1.1378 C   0  0  0  0  0  0  0  0  0  0  0  0
   -1.0962    1.7620   -2.0834 O   0  0  0  0  0  0  0  0  0  0  0  0
    0.7321    2.6971   -1.1780 N   0  0  0  0  0  0  0  0  0  0  0  0
    1.3510    2.7369   -0.3730 H   0  0  0  0  0  0  0  0  0  0  0  0
    0.9354    3.6443   -2.2680 C   0  0  0  0  0  0  0  0  0  0  0  0
    0.0771    4.3187   -2.3553 H   0  0  0  0  0  0  0  0  0  0  0  0
    1.8305    4.2460   -2.0834 H   0  0  0  0  0  0  0  0  0  0  0  0
    1.0659    3.1148   -3.2177 H   0  0  0  0  0  0  0  0  0  0  0  0
  1  2  1  0  0  0  0
  2  3  1  0  0  0  0
  2  4  1  0  0  0  0
  2  5  1  0  0  0  0
  5  6  2  0  0  0  0
  5  7  1  0  0  0  0
  7  8  1  0  0  0  0
  7  9  1  0  0  0  0
  9 10  1  0  0  0  0
  9 11  1  0  0  0  0
  9 22  1  0  0  0  0
 11 12  1  0  0  0  0
 11 13  1  0  0  0  0
 11 14  1  0  0  0  0
 14 15  1  0  0  0  0
 14 20  2  0  0  0  0
 15 16  2  0  0  0  0
 16 17  1  0  0  0  0
 16 18  1  0  0  0  0
 18 19  1  0  0  0  0
 18 20  1  0  0  0  0
 20 21  1  0  0  0  0
 22 23  2  0  0  0  0
 22 24  1  0  0  0  0
 24 25  1  0  0  0  0
 24 26  1  0  0  0  0
 26 27  1  0  0  0  0
 26 28  1  0  0  0  0
 26 29  1  0  0  0  0
M  END
$$$$

  -OEChem-01062216083D

 29 29  0     1  0  0  0  0  0999 V2000
   -1.5500   -0.8926    2.3380 H   0  0  0  0  0  0  0  0  0  0  0  0
   -2.0428   -1.6444    1.7175 C   0  0  0  0  0  0  0  0  0  0  0  0
   -3.1036   -1.6659    1.9783 H   0  0  0  0  0  0  0  0  0  0  0  0
   -1.6070   -2.6236    1.9264 H   0  0  0  0  0  0  0  0  0  0  0  0
   -1.8910   -1.3063    0.2431 C   0  0  0  0  0  0  0  0  0  0  0  0
   -2.3584   -2.0580   -0.5924 O   0  0  0  0  0  0  0  0  0  0  0  0
   -1.6687   -0.0184   -0.1730 N   0  0  0  0  0  0  0  0  0  0  0  0
   -2.0629    0.1250   -1.1055 H   0  0  0  0  0  0  0  0  0  0  0  0
   -0.4578    0.8024    0.0518 C   0  0  1  0  0  0  0  0  0  0  0  0
   -0.5720    1.3714    0.9801 H   0  0  0  0  0  0  0  0  0  0  0  0
    0.8761   -0.0014    0.1001 C   0  0  0  0  0  0  0  0  0  0  0  0
    0.9894   -0.5376   -0.8477 H   0  0  0  0  0  0  0  0  0  0  0  0
    1.7203    0.6860    0.1937 H   0  0  0  0  0  0  0  0  0  0  0  0
    1.0264   -0.9818    1.2208 C   0  0  0  0  0  0  0  0  0  0  0  0
    1.2864   -0.6036    2.5300 N   0  0  0  0  0  0  0  0  0  0  0  0
    1.4700   -1.7135    3.2063 C   0  0  0  0  0  0  0  0  0  0  0  0
    1.6896   -1.7634    4.2692 H   0  0  0  0  0  0  0  0  0  0  0  0
    1.3498   -2.8047    2.3655 N   0  0  0  0  0  0  0  0  0  0  0  0
    1.4673   -3.7780    2.6434 H   0  0  0  0  0  0  0  0  0  0  0  0
    1.0908   -2.3415    1.0931 C   0  0  0  0  0  0  0  0  0  0  0  0
    0.9711   -2.9154    0.1774 H   0  0  0  0  0  0  0  0  0  0  0  0
   -0.3145    1.7957   -1.1388 C   0  0  0  0  0  0  0  0  0  0  0  0
   -1.2404    1.9385   -1.9300 O   0  0  0  0  0  0  0  0  0  0  0  0
    0.8595    2.4893   -1.3879 N   0  0  0  0  0  0  0  0  0  0  0  0
    1.6110    2.4021   -0.7100 H   0  0  0  0  0  0  0  0  0  0  0  0
    1.0265    3.4146   -2.5030 C   0  0  0  0  0  0  0  0  0  0  0  0
    0.3143    4.2427   -2.4240 H   0  0  0  0  0  0  0  0  0  0  0  0
    2.0393    3.8287   -2.5025 H   0  0  0  0  0  0  0  0  0  0  0  0
    0.8643    2.8998   -3.4559 H   0  0  0  0  0  0  0  0  0  0  0  0
  1  2  1  0  0  0  0
  2  3  1  0  0  0  0
  2  4  1  0  0  0  0
  2  5  1  0  0  0  0
  5  6  2  0  0  0  0
  5  7  1  0  0  0  0
  7  8  1  0  0  0  0
  7  9  1  0  0  0  0
  9 10  1  0  0  0  0
  9 11  1  0  0  0  0
  9 22  1  0  0  0  0
 11 12  1  0  0  0  0
 11 13  1  0  0  0  0
 11 14  1  0  0  0  0
 14 15  1  0  0  0  0
 14 20  2  0  0  0  0
 15 16  2  0  0  0  0
 16 17  1  0  0  0  0
 16 18  1  0  0  0  0
 18 19  1  0  0  0  0
 18 20  1  0  0  0  0
 20 21  1  0  0  0  0
 22 23  2  0  0  0  0
 22 24  1  0  0  0  0
 24 25  1  0  0  0  0
 24 26  1  0  0  0  0
 26 27  1  0  0  0  0
 26 28  1  0  0  0  0
 26 29  1  0  0  0  0
M  END
$$$$

  -OEChem-01062216083D

 29 29  0     1  0  0  0  0  0999 V2000
   -1.5474   -0.9175    2.3324 H   0  0  0  0  0  0  0  0  0  0  0  0
   -2.0439   -1.6603    1.7037 C   0  0  0  0  0  0  0  0  0  0  0  0
   -3.1038   -1.6823    1.9685 H   0  0  0  0  0  0  0  0  0  0  0  0
   -1.6103   -2.6434    1.8985 H   0  0  0  0  0  0  0  0  0  0  0  0
   -1.8967   -1.3046    0.2331 C   0  0  0  0  0  0  0  0  0  0  0  0
   -2.3827   -2.0369   -0.6090 O   0  0  0  0  0  0  0  0  0  0  0  0
   -1.6623   -0.0151   -0.1702 N   0  0  0  0  0  0  0  0  0  0  0  0
   -2.0864    0.1569   -1.0839 H   0  0  0  0  0  0  0  0  0  0  0  0
   -0.4421    0.7928    0.0502 C   0  0  1  0  0  0  0  0  0  0  0  0
   -0.5501    1.3634    0.9783 H   0  0  0  0  0  0  0  0  0  0  0  0
    0.8861   -0.0192    0.1074 C   0  0  0  0  0  0  0  0  0  0  0  0
    1.0030   -0.5609   -0.8368 H   0  0  0  0  0  0  0  0  0  0  0  0
    1.7304    0.6679    0.2058 H   0  0  0  0  0  0  0  0  0  0  0  0
    1.0288   -0.9923    1.2357 C   0  0  0  0  0  0  0  0  0  0  0  0
    1.2892   -0.6058    2.5421 N   0  0  0  0  0  0  0  0  0  0  0  0
    1.4710   -1.7106    3.2270 C   0  0  0  0  0  0  0  0  0  0  0  0
    1.6915   -1.7534    4.2899 H   0  0  0  0  0  0  0  0  0  0  0  0
    1.3492   -2.8075    2.3942 N   0  0  0  0  0  0  0  0  0  0  0  0
    1.4675   -3.7785    2.6797 H   0  0  0  0  0  0  0  0  0  0  0  0
    1.0916   -2.3532    1.1179 C   0  0  0  0  0  0  0  0  0  0  0  0
    0.9744   -2.9339    0.2061 H   0  0  0  0  0  0  0  0  0  0  0  0
   -0.3153    1.7911   -1.1399 C   0  0  0  0  0  0  0  0  0  0  0  0
   -1.3232    2.1316   -1.7487 O   0  0  0  0  0  0  0  0  0  0  0  0
    0.9028    2.2586   -1.6101 N   0  0  0  0  0  0  0  0  0  0  0  0
    1.7383    1.9978   -1.0957 H   0  0  0  0  0  0  0  0  0  0  0  0
    1.0354    3.1675   -2.7432 C   0  0  0  0  0  0  0  0  0  0  0  0
    0.5285    4.1156   -2.5352 H   0  0  0  0  0  0  0  0  0  0  0  0
    2.0917    3.3758   -2.9384 H   0  0  0  0  0  0  0  0  0  0  0  0
    0.5993    2.7241   -3.6448 H   0  0  0  0  0  0  0  0  0  0  0  0
  1  2  1  0  0  0  0
  2  3  1  0  0  0  0
  2  4  1  0  0  0  0
  2  5  1  0  0  0  0
  5  6  2  0  0  0  0
  5  7  1  0  0  0  0
  7  8  1  0  0  0  0
  7  9  1  0  0  0  0
  9 10  1  0  0  0  0
  9 11  1  0  0  0  0
  9 22  1  0  0  0  0
 11 12  1  0  0  0  0
 11 13  1  0  0  0  0
 11 14  1  0  0  0  0
 14 15  1  0  0  0  0
 14 20  2  0  0  0  0
 15 16  2  0  0  0  0
 16 17  1  0  0  0  0
 16 18  1  0  0  0  0
 18 19  1  0  0  0  0
 18 20  1  0  0  0  0
 20 21  1  0  0  0  0
 22 23  2  0  0  0  0
 22 24  1  0  0  0  0
 24 25  1  0  0  0  0
 24 26  1  0  0  0  0
 26 27  1  0  0  0  0
 26 28  1  0  0  0  0
 26 29  1  0  0  0  0
M  END
$$$$

  -OEChem-01062216083D

 29 29  0     1  0  0  0  0  0999 V2000
   -1.5385   -0.9291    2.3348 H   0  0  0  0  0  0  0  0  0  0  0  0
   -2.0452   -1.6639    1.7051 C   0  0  0  0  0  0  0  0  0  0  0  0
   -3.1037   -1.6784    1.9763 H   0  0  0  0  0  0  0  0  0  0  0  0
   -1.6186   -2.6517    1.8914 H   0  0  0  0  0  0  0  0  0  0  0  0
   -1.9042   -1.2996    0.2361 C   0  0  0  0  0  0  0  0  0  0  0  0
   -2.4038   -2.0195   -0.6087 O   0  0  0  0  0  0  0  0  0  0  0  0
   -1.6619   -0.0097   -0.1608 N   0  0  0  0  0  0  0  0  0  0  0  0
   -2.1077    0.1771   -1.0599 H   0  0  0  0  0  0  0  0  0  0  0  0
   -0.4292    0.7812    0.0486 C   0  0  1  0  0  0  0  0  0  0  0  0
   -0.5255    1.3530    0.9775 H   0  0  0  0  0  0  0  0  0  0  0  0
    0.8934   -0.0384    0.1060 C   0  0  0  0  0  0  0  0  0  0  0  0
    1.0014   -0.5921   -0.8322 H   0  0  0  0  0  0  0  0  0  0  0  0
    1.7391    0.6497    0.1929 H   0  0  0  0  0  0  0  0  0  0  0  0
    1.0328   -1.0039    1.2413 C   0  0  0  0  0  0  0  0  0  0  0  0
    1.3001   -0.6103    2.5440 N   0  0  0  0  0  0  0  0  0  0  0  0
    1.4733   -1.7111    3.2372 C   0  0  0  0  0  0  0  0  0  0  0  0
    1.6950   -1.7473    4.3001 H   0  0  0  0  0  0  0  0  0  0  0  0
    1.3399   -2.8131    2.4130 N   0  0  0  0  0  0  0  0  0  0  0  0
    1.4489   -3.7829    2.7058 H   0  0  0  0  0  0  0  0  0  0  0  0
    1.0833   -2.3662    1.1340 C   0  0  0  0  0  0  0  0  0  0  0  0
    0.9578   -2.9535    0.2277 H   0  0  0  0  0  0  0  0  0  0  0  0
   -0.3124    1.7847   -1.1366 C   0  0  0  0  0  0  0  0  0  0  0  0
   -1.3265    2.3347   -1.5478 O   0  0  0  0  0  0  0  0  0  0  0  0
    0.8672    2.0201   -1.8278 N   0  0  0  0  0  0  0  0  0  0  0  0
    1.7085    1.5588   -1.4965 H   0  0  0  0  0  0  0  0  0  0  0  0
    0.9678    2.9228   -2.9695 C   0  0  0  0  0  0  0  0  0  0  0  0
    0.7014    3.9435   -2.6759 H   0  0  0  0  0  0  0  0  0  0  0  0
    1.9916    2.9306   -3.3558 H   0  0  0  0  0  0  0  0  0  0  0  0
    0.2984    2.6009   -3.7743 H   0  0  0  0  0  0  0  0  0  0  0  0
  1  2  1  0  0  0  0
  2  3  1  0  0  0  0
  2  4  1  0  0  0  0
  2  5  1  0  0  0  0
  5  6  2  0  0  0  0
  5  7  1  0  0  0  0
  7  8  1  0  0  0  0
  7  9  1  0  0  0  0
  9 10  1  0  0  0  0
  9 11  1  0  0  0  0
  9 22  1  0  0  0  0
 11 12  1  0  0  0  0
 11 13  1  0  0  0  0
 11 14  1  0  0  0  0
 14 15  1  0  0  0  0
 14 20  2  0  0  0  0
 15 16  2  0  0  0  0
 16 17  1  0  0  0  0
 16 18  1  0  0  0  0
 18 19  1  0  0  0  0
 18 20  1  0  0  0  0
 20 21  1  0  0  0  0
 22 23  2  0  0  0  0
 22 24  1  0  0  0  0
 24 25  1  0  0  0  0
 24 26  1  0  0  0  0
 26 27  1  0  0  0  0
 26 28  1  0  0  0  0
 26 29  1  0  0  0  0
M  END
$$$$

  -OEChem-01062216083D

 29 29  0     1  0  0  0  0  0999 V2000
   -1.5298   -0.9322    2.3457 H   0  0  0  0  0  0  0  0  0  0  0  0
   -2.0493   -1.6589    1.7169 C   0  0  0  0  0  0  0  0  0  0  0  0
   -3.1061   -1.6617    1.9949 H   0  0  0  0  0  0  0  0  0  0  0  0
   -1.6335   -2.6525    1.8968 H   0  0  0  0  0  0  0  0  0  0  0  0
   -1.9134   -1.2914    0.2484 C   0  0  0  0  0  0  0  0  0  0  0  0
   -2.4209   -2.0046   -0.5975 O   0  0  0  0  0  0  0  0  0  0  0  0
   -1.6674   -0.0021   -0.1471 N   0  0  0  0  0  0  0  0  0  0  0  0
   -2.1240    0.1859   -1.0393 H   0  0  0  0  0  0  0  0  0  0  0  0
   -0.4222    0.7717    0.0484 C   0  0  1  0  0  0  0  0  0  0  0  0
   -0.5052    1.3430    0.9791 H   0  0  0  0  0  0  0  0  0  0  0  0
    0.8948   -0.0565    0.1001 C   0  0  0  0  0  0  0  0  0  0  0  0
    0.9881   -0.6250   -0.8306 H   0  0  0  0  0  0  0  0  0  0  0  0
    1.7451    0.6297    0.1648 H   0  0  0  0  0  0  0  0  0  0  0  0
    1.0342   -1.0158    1.2414 C   0  0  0  0  0  0  0  0  0  0  0  0
    1.3132   -0.6158    2.5395 N   0  0  0  0  0  0  0  0  0  0  0  0
    1.4808   -1.7127    3.2401 C   0  0  0  0  0  0  0  0  0  0  0  0
    1.7084   -1.7426    4.3020 H   0  0  0  0  0  0  0  0  0  0  0  0
    1.3323   -2.8194    2.4247 N   0  0  0  0  0  0  0  0  0  0  0  0
    1.4358   -3.7880    2.7239 H   0  0  0  0  0  0  0  0  0  0  0  0
    1.0715   -2.3795    1.1441 C   0  0  0  0  0  0  0  0  0  0  0  0
    0.9350   -2.9726    0.2434 H   0  0  0  0  0  0  0  0  0  0  0  0
   -0.3079    1.7797   -1.1289 C   0  0  0  0  0  0  0  0  0  0  0  0
   -1.2480    2.5313   -1.3498 O   0  0  0  0  0  0  0  0  0  0  0  0
    0.7527    1.7953   -2.0226 N   0  0  0  0  0  0  0  0  0  0  0  0
    1.5149    1.1442   -1.8634 H   0  0  0  0  0  0  0  0  0  0  0  0
    0.8233    2.6896   -3.1725 C   0  0  0  0  0  0  0  0  0  0  0  0
    0.7910    3.7349   -2.8476 H   0  0  0  0  0  0  0  0  0  0  0  0
    1.7563    2.5277   -3.7208 H   0  0  0  0  0  0  0  0  0  0  0  0
   -0.0144    2.5055   -3.8534 H   0  0  0  0  0  0  0  0  0  0  0  0
  1  2  1  0  0  0  0
  2  3  1  0  0  0  0
  2  4  1  0  0  0  0
  2  5  1  0  0  0  0
  5  6  2  0  0  0  0
  5  7  1  0  0  0  0
  7  8  1  0  0  0  0
  7  9  1  0  0  0  0
  9 10  1  0  0  0  0
  9 11  1  0  0  0  0
  9 22  1  0  0  0  0
 11 12  1  0  0  0  0
 11 13  1  0  0  0  0
 11 14  1  0  0  0  0
 14 15  1  0  0  0  0
 14 20  2  0  0  0  0
 15 16  2  0  0  0  0
 16 17  1  0  0  0  0
 16 18  1  0  0  0  0
 18 19  1  0  0  0  0
 18 20  1  0  0  0  0
 20 21  1  0  0  0  0
 22 23  2  0  0  0  0
 22 24  1  0  0  0  0
 24 25  1  0  0  0  0
 24 26  1  0  0  0  0
 26 27  1  0  0  0  0
 26 28  1  0  0  0  0
 26 29  1  0  0  0  0
M  END
$$$$

  -OEChem-01062216083D

 29 29  0     1  0  0  0  0  0999 V2000
   -1.5333   -0.9213    2.3631 H   0  0  0  0  0  0  0  0  0  0  0  0
   -2.0534   -1.6515    1.7388 C   0  0  0  0  0  0  0  0  0  0  0  0
   -3.1090   -1.6557    2.0201 H   0  0  0  0  0  0  0  0  0  0  0  0
   -1.6346   -2.6432    1.9217 H   0  0  0  0  0  0  0  0  0  0  0  0
   -1.9229   -1.2893    0.2685 C   0  0  0  0  0  0  0  0  0  0  0  0
   -2.4255   -2.0063   -0.5769 O   0  0  0  0  0  0  0  0  0  0  0  0
   -1.6814   -0.0016   -0.1340 N   0  0  0  0  0  0  0  0  0  0  0  0
   -2.1362    0.1718   -1.0291 H   0  0  0  0  0  0  0  0  0  0  0  0
   -0.4286    0.7622    0.0494 C   0  0  1  0  0  0  0  0  0  0  0  0
   -0.5018    1.3338    0.9810 H   0  0  0  0  0  0  0  0  0  0  0  0
    0.8871   -0.0676    0.0945 C   0  0  0  0  0  0  0  0  0  0  0  0
    0.9705   -0.6472   -0.8296 H   0  0  0  0  0  0  0  0  0  0  0  0
    1.7385    0.6194    0.1398 H   0  0  0  0  0  0  0  0  0  0  0  0
    1.0318   -1.0223    1.2394 C   0  0  0  0  0  0  0  0  0  0  0  0
    1.3199   -0.6192    2.5342 N   0  0  0  0  0  0  0  0  0  0  0  0
    1.4880   -1.7140    3.2376 C   0  0  0  0  0  0  0  0  0  0  0  0
    1.7223   -1.7414    4.2981 H   0  0  0  0  0  0  0  0  0  0  0  0
    1.3307   -2.8231    2.4274 N   0  0  0  0  0  0  0  0  0  0  0  0
    1.4331   -3.7907    2.7299 H   0  0  0  0  0  0  0  0  0  0  0  0
    1.0637   -2.3867    1.1467 C   0  0  0  0  0  0  0  0  0  0  0  0
    0.9196   -2.9827    0.2491 H   0  0  0  0  0  0  0  0  0  0  0  0
   -0.3111    1.7702   -1.1241 C   0  0  0  0  0  0  0  0  0  0  0  0
   -1.0970    2.7056   -1.1745 O   0  0  0  0  0  0  0  0  0  0  0  0
    0.5622    1.5965   -2.1869 N   0  0  0  0  0  0  0  0  0  0  0  0
    1.1690    0.7831   -2.1715 H   0  0  0  0  0  0  0  0  0  0  0  0
    0.6155    2.4892   -3.3390 C   0  0  0  0  0  0  0  0  0  0  0  0
    0.8565    3.5094   -3.0222 H   0  0  0  0  0  0  0  0  0  0  0  0
    1.3853    2.1549   -4.0414 H   0  0  0  0  0  0  0  0  0  0  0  0
   -0.3472    2.4999   -3.8610 H   0  0  0  0  0  0  0  0  0  0  0  0
  1  2  1  0  0  0  0
  2  3  1  0  0  0  0
  2  4  1  0  0  0  0
  2  5  1  0  0  0  0
  5  6  2  0  0  0  0
  5  7  1  0  0  0  0
  7  8  1  0  0  0  0
  7  9  1  0  0  0  0
  9 10  1  0  0  0  0
  9 11  1  0  0  0  0
  9 22  1  0  0  0  0
 11 12  1  0  0  0  0
 11 13  1  0  0  0  0
 11 14  1  0  0  0  0
 14 15  1  0  0  0  0
 14 20  2  0  0  0  0
 15 16  2  0  0  0  0
 16 17  1  0  0  0  0
 16 18  1  0  0  0  0
 18 19  1  0  0  0  0
 18 20  1  0  0  0  0
 20 21  1  0  0  0  0
 22 23  2  0  0  0  0
 22 24  1  0  0  0  0
 24 25  1  0  0  0  0
 24 26  1  0  0  0  0
 26 27  1  0  0  0  0
 26 28  1  0  0  0  0
 26 29  1  0  0  0  0
M  END
$$$$

  -OEChem-01062216083D

 29 29  0     1  0  0  0  0  0999 V2000
   -1.5201   -0.9126    2.3870 H   0  0  0  0  0  0  0  0  0  0  0  0
   -2.0597   -1.6345    1.7696 C   0  0  0  0  0  0  0  0  0  0  0  0
   -3.1122   -1.6196    2.0628 H   0  0  0  0  0  0  0  0  0  0  0  0
   -1.6555   -2.6330    1.9496 H   0  0  0  0  0  0  0  0  0  0  0  0
   -1.9382   -1.2771    0.2976 C   0  0  0  0  0  0  0  0  0  0  0  0
   -2.4409   -1.9962   -0.5458 O   0  0  0  0  0  0  0  0  0  0  0  0
   -1.6968    0.0070   -0.1146 N   0  0  0  0  0  0  0  0  0  0  0  0
   -2.1482    0.1644   -1.0139 H   0  0  0  0  0  0  0  0  0  0  0  0
   -0.4345    0.7576    0.0559 C   0  0  1  0  0  0  0  0  0  0  0  0
   -0.4954    1.3304    0.9879 H   0  0  0  0  0  0  0  0  0  0  0  0
    0.8793   -0.0748    0.0884 C   0  0  0  0  0  0  0  0  0  0  0  0
    0.9565   -0.6556   -0.8350 H   0  0  0  0  0  0  0  0  0  0  0  0
    1.7318    0.6116    0.1229 H   0  0  0  0  0  0  0  0  0  0  0  0
    1.0298   -1.0287    1.2337 C   0  0  0  0  0  0  0  0  0  0  0  0
    1.3296   -0.6260    2.5262 N   0  0  0  0  0  0  0  0  0  0  0  0
    1.4990   -1.7204    3.2297 C   0  0  0  0  0  0  0  0  0  0  0  0
    1.7423   -1.7468    4.2882 H   0  0  0  0  0  0  0  0  0  0  0  0
    1.3293   -2.8297    2.4222 N   0  0  0  0  0  0  0  0  0  0  0  0
    1.4309   -3.7975    2.7244 H   0  0  0  0  0  0  0  0  0  0  0  0
    1.0541   -2.3935    1.1432 C   0  0  0  0  0  0  0  0  0  0  0  0
    0.9012   -2.9906    0.2478 H   0  0  0  0  0  0  0  0  0  0  0  0
   -0.3132    1.7602   -1.1181 C   0  0  0  0  0  0  0  0  0  0  0  0
   -0.8540    2.8526   -1.0260 O   0  0  0  0  0  0  0  0  0  0  0  0
    0.3095    1.4315   -2.3118 N   0  0  0  0  0  0  0  0  0  0  0  0
    0.6748    0.4892   -2.4086 H   0  0  0  0  0  0  0  0  0  0  0  0
    0.3513    2.3216   -3.4662 C   0  0  0  0  0  0  0  0  0  0  0  0
    0.8292    3.2709   -3.2018 H   0  0  0  0  0  0  0  0  0  0  0  0
    0.9242    1.8620   -4.2772 H   0  0  0  0  0  0  0  0  0  0  0  0
   -0.6613    2.5258   -3.8297 H   0  0  0  0  0  0  0  0  0  0  0  0
  1  2  1  0  0  0  0
  2  3  1  0  0  0  0
  2  4  1  0  0  0  0
  2  5  1  0  0  0  0
  5  6  2  0  0  0  0
  5  7  1  0  0  0  0
  7  8  1  0  0  0  0
  7  9  1  0  0  0  0
  9 10  1  0  0  0  0
  9 11  1  0  0  0  0
  9 22  1  0  0  0  0
 11 12  1  0  0  0  0
 11 13  1  0  0  0  0
 11 14  1  0  0  0  0
 14 15  1  0  0  0  0
 14 20  2  0  0  0  0
 15 16  2  0  0  0  0
 16 17  1  0  0  0  0
 16 18  1  0  0  0  0
 18 19  1  0  0  0  0
 18 20  1  0  0  0  0
 20 21  1  0  0  0  0
 22 23  2  0  0  0  0
 22 24  1  0  0  0  0
 24 25  1  0  0  0  0
 24 26  1  0  0  0  0
 26 27  1  0  0  0  0
 26 28  1  0  0  0  0
 26 29  1  0  0  0  0
M  END
$$$$

  -OEChem-01062216083D

 29 29  0     1  0  0  0  0  0999 V2000
   -1.5110   -0.8970    2.4190 H   0  0  0  0  0  0  0  0  0  0  0  0
   -2.0584   -1.6234    1.8138 C   0  0  0  0  0  0  0  0  0  0  0  0
   -3.1057   -1.6123    2.1251 H   0  0  0  0  0  0  0  0  0  0  0  0
   -1.6471   -2.6196    1.9909 H   0  0  0  0  0  0  0  0  0  0  0  0
   -1.9639   -1.2714    0.3384 C   0  0  0  0  0  0  0  0  0  0  0  0
   -2.4771   -1.9936   -0.4961 O   0  0  0  0  0  0  0  0  0  0  0  0
   -1.7266    0.0088   -0.0885 N   0  0  0  0  0  0  0  0  0  0  0  0
   -2.1806    0.1527   -0.9881 H   0  0  0  0  0  0  0  0  0  0  0  0
   -0.4620    0.7583    0.0698 C   0  0  1  0  0  0  0  0  0  0  0  0
   -0.5127    1.3324    1.0019 H   0  0  0  0  0  0  0  0  0  0  0  0
    0.8550   -0.0673    0.0800 C   0  0  0  0  0  0  0  0  0  0  0  0
    0.9273   -0.6391   -0.8491 H   0  0  0  0  0  0  0  0  0  0  0  0
    1.7038    0.6240    0.1089 H   0  0  0  0  0  0  0  0  0  0  0  0
    1.0223   -1.0265    1.2180 C   0  0  0  0  0  0  0  0  0  0  0  0
    1.3359   -0.6298    2.5091 N   0  0  0  0  0  0  0  0  0  0  0  0
    1.5164   -1.7274    3.2041 C   0  0  0  0  0  0  0  0  0  0  0  0
    1.7738   -1.7587    4.2591 H   0  0  0  0  0  0  0  0  0  0  0  0
    1.3367   -2.8329    2.3934 N   0  0  0  0  0  0  0  0  0  0  0  0
    1.4439   -3.8019    2.6895 H   0  0  0  0  0  0  0  0  0  0  0  0
    1.0443   -2.3908    1.1203 C   0  0  0  0  0  0  0  0  0  0  0  0
    0.8795   -2.9836    0.2244 H   0  0  0  0  0  0  0  0  0  0  0  0
   -0.3400    1.7493   -1.1102 C   0  0  0  0  0  0  0  0  0  0  0  0
   -0.5777    2.9350   -0.9338 O   0  0  0  0  0  0  0  0  0  0  0  0
   -0.0050    1.3158   -2.3826 N   0  0  0  0  0  0  0  0  0  0  0  0
    0.1220    0.3176   -2.5219 H   0  0  0  0  0  0  0  0  0  0  0  0
    0.0714    2.2031   -3.5372 C   0  0  0  0  0  0  0  0  0  0  0  0
    0.8013    3.0002   -3.3604 H   0  0  0  0  0  0  0  0  0  0  0  0
    0.3812    1.6433   -4.4249 H   0  0  0  0  0  0  0  0  0  0  0  0
   -0.9050    2.6569   -3.7366 H   0  0  0  0  0  0  0  0  0  0  0  0
  1  2  1  0  0  0  0
  2  3  1  0  0  0  0
  2  4  1  0  0  0  0
  2  5  1  0  0  0  0
  5  6  2  0  0  0  0
  5  7  1  0  0  0  0
  7  8  1  0  0  0  0
  7  9  1  0  0  0  0
  9 10  1  0  0  0  0
  9 11  1  0  0  0  0
  9 22  1  0  0  0  0
 11 12  1  0  0  0  0
 11 13  1  0  0  0  0
 11 14  1  0  0  0  0
 14 15  1  0  0  0  0
 14 20  2  0  0  0  0
 15 16  2  0  0  0  0
 16 17  1  0  0  0  0
 16 18  1  0  0  0  0
 18 19  1  0  0  0  0
 18 20  1  0  0  0  0
 20 21  1  0  0  0  0
 22 23  2  0  0  0  0
 22 24  1  0  0  0  0
 24 25  1  0  0  0  0
 24 26  1  0  0  0  0
 26 27  1  0  0  0  0
 26 28  1  0  0  0  0
 26 29  1  0  0  0  0
M  END
$$$$

  -OEChem-01062216083D

 29 29  0     1  0  0  0  0  0999 V2000
   -1.5245   -0.9021    2.4298 H   0  0  0  0  0  0  0  0  0  0  0  0
   -2.0561   -1.6431    1.8280 C   0  0  0  0  0  0  0  0  0  0  0  0
   -3.1008   -1.6614    2.1476 H   0  0  0  0  0  0  0  0  0  0  0  0
   -1.6158   -2.6275    2.0006 H   0  0  0  0  0  0  0  0  0  0  0  0
   -1.9830   -1.2874    0.3525 C   0  0  0  0  0  0  0  0  0  0  0  0
   -2.5065   -2.0077   -0.4774 O   0  0  0  0  0  0  0  0  0  0  0  0
   -1.7567   -0.0065   -0.0783 N   0  0  0  0  0  0  0  0  0  0  0  0
   -2.2116    0.1347   -0.9775 H   0  0  0  0  0  0  0  0  0  0  0  0
   -0.5089    0.7671    0.0985 C   0  0  1  0  0  0  0  0  0  0  0  0
   -0.5769    1.3401    1.0300 H   0  0  0  0  0  0  0  0  0  0  0  0
    0.8248   -0.0287    0.1010 C   0  0  0  0  0  0  0  0  0  0  0  0
    0.9167   -0.5771   -0.8410 H   0  0  0  0  0  0  0  0  0  0  0  0
    1.6564    0.6822    0.1486 H   0  0  0  0  0  0  0  0  0  0  0  0
    1.0094   -1.0042    1.2225 C   0  0  0  0  0  0  0  0  0  0  0  0
    1.3088   -0.6298    2.5237 N   0  0  0  0  0  0  0  0  0  0  0  0
    1.5128   -1.7380    3.1952 C   0  0  0  0  0  0  0  0  0  0  0  0
    1.7671   -1.7873    4.2502 H   0  0  0  0  0  0  0  0  0  0  0  0
    1.3624   -2.8290    2.3595 N   0  0  0  0  0  0  0  0  0  0  0  0
    1.4936   -3.8014    2.6337 H   0  0  0  0  0  0  0  0  0  0  0  0
    1.0646   -2.3652    1.0953 C   0  0  0  0  0  0  0  0  0  0  0  0
    0.9201   -2.9408    0.1849 H   0  0  0  0  0  0  0  0  0  0  0  0
   -0.3844    1.7489   -1.0862 C   0  0  0  0  0  0  0  0  0  0  0  0
   -0.3444    2.9535   -0.8851 O   0  0  0  0  0  0  0  0  0  0  0  0
   -0.3245    1.2762   -2.3870 N   0  0  0  0  0  0  0  0  0  0  0  0
   -0.3704    0.2704   -2.5263 H   0  0  0  0  0  0  0  0  0  0  0  0
   -0.2272    2.1460   -3.5530 C   0  0  0  0  0  0  0  0  0  0  0  0
    0.6839    2.7517   -3.5052 H   0  0  0  0  0  0  0  0  0  0  0  0
   -0.1967    1.5481   -4.4689 H   0  0  0  0  0  0  0  0  0  0  0  0
   -1.0930    2.8146   -3.6053 H   0  0  0  0  0  0  0  0  0  0  0  0
  1  2  1  0  0  0  0
  2  3  1  0  0  0  0
  2  4  1  0  0  0  0
  2  5  1  0  0  0  0
  5  6  2  0  0  0  0
  5  7  1  0  0  0  0
  7  8  1  0  0  0  0
  7  9  1  0  0  0  0
  9 10  1  0  0  0  0
  9 11  1  0  0  0  0
  9 22  1  0  0  0  0
 11 12  1  0  0  0  0
 11 13  1  0  0  0  0
 11 14  1  0  0  0  0
 14 15  1  0  0  0  0
 14 20  2  0  0  0  0
 15 16  2  0  0  0  0
 16 17  1  0  0  0  0
 16 18  1  0  0  0  0
 18 19  1  0  0  0  0
 18 20  1  0  0  0  0
 20 21  1  0  0  0  0
 22 23  2  0  0  0  0
 22 24  1  0  0  0  0
 24 25  1  0  0  0  0
 24 26  1  0  0  0  0
 26 27  1  0  0  0  0
 26 28  1  0  0  0  0
 26 29  1  0  0  0  0
M  END
$$$$

  -OEChem-01062216083D

 29 29  0     1  0  0  0  0  0999 V2000
   -1.5339   -0.9164    2.4488 H   0  0  0  0  0  0  0  0  0  0  0  0
   -2.0542   -1.6681    1.8504 C   0  0  0  0  0  0  0  0  0  0  0  0
   -3.0947   -1.7115    2.1812 H   0  0  0  0  0  0  0  0  0  0  0  0
   -1.5894   -2.6423    2.0156 H   0  0  0  0  0  0  0  0  0  0  0  0
   -2.0057   -1.3072    0.3750 C   0  0  0  0  0  0  0  0  0  0  0  0
   -2.5505   -2.0198   -0.4476 O   0  0  0  0  0  0  0  0  0  0  0  0
   -1.7885   -0.0254   -0.0581 N   0  0  0  0  0  0  0  0  0  0  0  0
   -2.2592    0.1216   -0.9479 H   0  0  0  0  0  0  0  0  0  0  0  0
   -0.5561    0.7725    0.1262 C   0  0  1  0  0  0  0  0  0  0  0  0
   -0.6350    1.3433    1.0583 H   0  0  0  0  0  0  0  0  0  0  0  0
    0.7885   -0.0034    0.1173 C   0  0  0  0  0  0  0  0  0  0  0  0
    0.8848   -0.5342   -0.8346 H   0  0  0  0  0  0  0  0  0  0  0  0
    1.6106    0.7184    0.1728 H   0  0  0  0  0  0  0  0  0  0  0  0
    0.9938   -0.9906    1.2250 C   0  0  0  0  0  0  0  0  0  0  0  0
    1.2924   -0.6298    2.5304 N   0  0  0  0  0  0  0  0  0  0  0  0
    1.5222   -1.7436    3.1841 C   0  0  0  0  0  0  0  0  0  0  0  0
    1.7833   -1.8033    4.2370 H   0  0  0  0  0  0  0  0  0  0  0  0
    1.3887   -2.8248    2.3330 N   0  0  0  0  0  0  0  0  0  0  0  0
    1.5437   -3.7981    2.5912 H   0  0  0  0  0  0  0  0  0  0  0  0
    1.0739   -2.3483    1.0777 C   0  0  0  0  0  0  0  0  0  0  0  0
    0.9365   -2.9126    0.1593 H   0  0  0  0  0  0  0  0  0  0  0  0
   -0.4271    1.7527   -1.0595 C   0  0  0  0  0  0  0  0  0  0  0  0
   -0.1222    2.9199   -0.8636 O   0  0  0  0  0  0  0  0  0  0  0  0
   -0.6482    1.3163   -2.3562 N   0  0  0  0  0  0  0  0  0  0  0  0
   -0.8174    0.3240   -2.4976 H   0  0  0  0  0  0  0  0  0  0  0  0
   -0.5164    2.1808   -3.5229 C   0  0  0  0  0  0  0  0  0  0  0  0
    0.5088    2.5563   -3.6087 H   0  0  0  0  0  0  0  0  0  0  0  0
   -0.7596    1.6261   -4.4343 H   0  0  0  0  0  0  0  0  0  0  0  0
   -1.1989    3.0340   -3.4467 H   0  0  0  0  0  0  0  0  0  0  0  0
  1  2  1  0  0  0  0
  2  3  1  0  0  0  0
  2  4  1  0  0  0  0
  2  5  1  0  0  0  0
  5  6  2  0  0  0  0
  5  7  1  0  0  0  0
  7  8  1  0  0  0  0
  7  9  1  0  0  0  0
  9 10  1  0  0  0  0
  9 11  1  0  0  0  0
  9 22  1  0  0  0  0
 11 12  1  0  0  0  0
 11 13  1  0  0  0  0
 11 14  1  0  0  0  0
 14 15  1  0  0  0  0
 14 20  2  0  0  0  0
 15 16  2  0  0  0  0
 16 17  1  0  0  0  0
 16 18  1  0  0  0  0
 18 19  1  0  0  0  0
 18 20  1  0  0  0  0
 20 21  1  0  0  0  0
 22 23  2  0  0  0  0
 22 24  1  0  0  0  0
 24 25  1  0  0  0  0
 24 26  1  0  0  0  0
 26 27  1  0  0  0  0
 26 28  1  0  0  0  0
 26 29  1  0  0  0  0
M  END
$$$$

  -OEChem-01062216083D

 29 29  0     1  0  0  0  0  0999 V2000
   -1.5344   -0.9622    2.4548 H   0  0  0  0  0  0  0  0  0  0  0  0
   -2.0410   -1.7215    1.8546 C   0  0  0  0  0  0  0  0  0  0  0  0
   -3.0755   -1.7967    2.1982 H   0  0  0  0  0  0  0  0  0  0  0  0
   -1.5483   -2.6845    2.0030 H   0  0  0  0  0  0  0  0  0  0  0  0
   -2.0219   -1.3440    0.3826 C   0  0  0  0  0  0  0  0  0  0  0  0
   -2.5998   -2.0396   -0.4319 O   0  0  0  0  0  0  0  0  0  0  0  0
   -1.8150   -0.0581   -0.0441 N   0  0  0  0  0  0  0  0  0  0  0  0
   -2.3158    0.1063   -0.9133 H   0  0  0  0  0  0  0  0  0  0  0  0
   -0.6038    0.7712    0.1506 C   0  0  1  0  0  0  0  0  0  0  0  0
   -0.6997    1.3354    1.0848 H   0  0  0  0  0  0  0  0  0  0  0  0
    0.7549    0.0196    0.1406 C   0  0  0  0  0  0  0  0  0  0  0  0
    0.8619   -0.4998   -0.8166 H   0  0  0  0  0  0  0  0  0  0  0  0
    1.5643    0.7549    0.2047 H   0  0  0  0  0  0  0  0  0  0  0  0
    0.9804   -0.9727    1.2395 C   0  0  0  0  0  0  0  0  0  0  0  0
    1.2717   -0.6184    2.5485 N   0  0  0  0  0  0  0  0  0  0  0  0
    1.5316   -1.7328    3.1897 C   0  0  0  0  0  0  0  0  0  0  0  0
    1.7972   -1.7970    4.2413 H   0  0  0  0  0  0  0  0  0  0  0  0
    1.4238   -2.8080    2.3276 N   0  0  0  0  0  0  0  0  0  0  0  0
    1.6060   -3.7793    2.5750 H   0  0  0  0  0  0  0  0  0  0  0  0
    1.0957   -2.3264    1.0776 C   0  0  0  0  0  0  0  0  0  0  0  0
    0.9744   -2.8843    0.1530 H   0  0  0  0  0  0  0  0  0  0  0  0
   -0.4695    1.7608   -1.0298 C   0  0  0  0  0  0  0  0  0  0  0  0
    0.0561    2.8510   -0.8571 O   0  0  0  0  0  0  0  0  0  0  0  0
   -0.9458    1.4324   -2.2900 N   0  0  0  0  0  0  0  0  0  0  0  0
   -1.2244    0.4677   -2.4459 H   0  0  0  0  0  0  0  0  0  0  0  0
   -0.7917    2.3059   -3.4476 C   0  0  0  0  0  0  0  0  0  0  0  0
    0.2677    2.4329   -3.6934 H   0  0  0  0  0  0  0  0  0  0  0  0
   -1.3017    1.8768   -4.3153 H   0  0  0  0  0  0  0  0  0  0  0  0
   -1.2272    3.2905   -3.2465 H   0  0  0  0  0  0  0  0  0  0  0  0
  1  2  1  0  0  0  0
  2  3  1  0  0  0  0
  2  4  1  0  0  0  0
  2  5  1  0  0  0  0
  5  6  2  0  0  0  0
  5  7  1  0  0  0  0
  7  8  1  0  0  0  0
  7  9  1  0  0  0  0
  9 10  1  0  0  0  0
  9 11  1  0  0  0  0
  9 22  1  0  0  0  0
 11 12  1  0  0  0  0
 11 13  1  0  0  0  0
 11 14  1  0  0  0  0
 14 15  1  0  0  0  0
 14 20  2  0  0  0  0
 15 16  2  0  0  0  0
 16 17  1  0  0  0  0
 16 18  1  0  0  0  0
 18 19  1  0  0  0  0
 18 20  1  0  0  0  0
 20 21  1  0  0  0  0
 22 23  2  0  0  0  0
 22 24  1  0  0  0  0
 24 25  1  0  0  0  0
 24 26  1  0  0  0  0
 26 27  1  0  0  0  0
 26 28  1  0  0  0  0
 26 29  1  0  0  0  0
M  END
$$$$

  -OEChem-01062216083D

 29 29  0     1  0  0  0  0  0999 V2000
   -1.5286   -0.9947    2.4616 H   0  0  0  0  0  0  0  0  0  0  0  0
   -2.0234   -1.7605    1.8598 C   0  0  0  0  0  0  0  0  0  0  0  0
   -3.0574   -1.8505    2.2015 H   0  0  0  0  0  0  0  0  0  0  0  0
   -1.5180   -2.7168    2.0090 H   0  0  0  0  0  0  0  0  0  0  0  0
   -2.0068   -1.3818    0.3879 C   0  0  0  0  0  0  0  0  0  0  0  0
   -2.5985   -2.0716   -0.4215 O   0  0  0  0  0  0  0  0  0  0  0  0
   -1.8150   -0.0924   -0.0353 N   0  0  0  0  0  0  0  0  0  0  0  0
   -2.3322    0.0699   -0.8930 H   0  0  0  0  0  0  0  0  0  0  0  0
   -0.6194    0.7610    0.1609 C   0  0  1  0  0  0  0  0  0  0  0  0
   -0.7255    1.3201    1.0968 H   0  0  0  0  0  0  0  0  0  0  0  0
    0.7467    0.0186    0.1536 C   0  0  0  0  0  0  0  0  0  0  0  0
    0.8591   -0.4976   -0.8047 H   0  0  0  0  0  0  0  0  0  0  0  0
    1.5529    0.7568    0.2214 H   0  0  0  0  0  0  0  0  0  0  0  0
    0.9795   -0.9711    1.2533 C   0  0  0  0  0  0  0  0  0  0  0  0
    1.2669   -0.6156    2.5629 N   0  0  0  0  0  0  0  0  0  0  0  0
    1.5409   -1.7275    3.2022 C   0  0  0  0  0  0  0  0  0  0  0  0
    1.8084   -1.7896    4.2533 H   0  0  0  0  0  0  0  0  0  0  0  0
    1.4462   -2.8029    2.3384 N   0  0  0  0  0  0  0  0  0  0  0  0
    1.6435   -3.7720    2.5831 H   0  0  0  0  0  0  0  0  0  0  0  0
    1.1135   -2.3229    1.0891 C   0  0  0  0  0  0  0  0  0  0  0  0
    1.0033   -2.8800    0.1626 H   0  0  0  0  0  0  0  0  0  0  0  0
   -0.4823    1.7643   -1.0128 C   0  0  0  0  0  0  0  0  0  0  0  0
    0.2198    2.7576   -0.8833 O   0  0  0  0  0  0  0  0  0  0  0  0
   -1.1888    1.6024   -2.1960 N   0  0  0  0  0  0  0  0  0  0  0  0
   -1.6134    0.6965   -2.3668 H   0  0  0  0  0  0  0  0  0  0  0  0
   -1.0732    2.5280   -3.3174 C   0  0  0  0  0  0  0  0  0  0  0  0
   -0.0476    2.5412   -3.7006 H   0  0  0  0  0  0  0  0  0  0  0  0
   -1.7434    2.2252   -4.1277 H   0  0  0  0  0  0  0  0  0  0  0  0
   -1.3468    3.5421   -3.0073 H   0  0  0  0  0  0  0  0  0  0  0  0
  1  2  1  0  0  0  0
  2  3  1  0  0  0  0
  2  4  1  0  0  0  0
  2  5  1  0  0  0  0
  5  6  2  0  0  0  0
  5  7  1  0  0  0  0
  7  8  1  0  0  0  0
  7  9  1  0  0  0  0
  9 10  1  0  0  0  0
  9 11  1  0  0  0  0
  9 22  1  0  0  0  0
 11 12  1  0  0  0  0
 11 13  1  0  0  0  0
 11 14  1  0  0  0  0
 14 15  1  0  0  0  0
 14 20  2  0  0  0  0
 15 16  2  0  0  0  0
 16 17  1  0  0  0  0
 16 18  1  0  0  0  0
 18 19  1  0  0  0  0
 18 20  1  0  0  0  0
 20 21  1  0  0  0  0
 22 23  2  0  0  0  0
 22 24  1  0  0  0  0
 24 25  1  0  0  0  0
 24 26  1  0  0  0  0
 26 27  1  0  0  0  0
 26 28  1  0  0  0  0
 26 29  1  0  0  0  0
M  END
$$$$

  -OEChem-01062216083D

 29 29  0     1  0  0  0  0  0999 V2000
   -1.5418   -0.9986    2.4697 H   0  0  0  0  0  0  0  0  0  0  0  0
   -2.0364   -1.7544    1.8550 C   0  0  0  0  0  0  0  0  0  0  0  0
   -3.0898   -1.7979    2.1415 H   0  0  0  0  0  0  0  0  0  0  0  0
   -1.5762   -2.7265    2.0455 H   0  0  0  0  0  0  0  0  0  0  0  0
   -1.9239   -1.4030    0.3806 C   0  0  0  0  0  0  0  0  0  0  0  0
   -2.3777   -2.1517   -0.4645 O   0  0  0  0  0  0  0  0  0  0  0  0
   -1.7914   -0.1089   -0.0487 N   0  0  0  0  0  0  0  0  0  0  0  0
   -2.1383   -0.0950   -1.0023 H   0  0  0  0  0  0  0  0  0  0  0  0
   -0.5925    0.7449    0.1440 C   0  0  1  0  0  0  0  0  0  0  0  0
   -0.6987    1.2966    1.0841 H   0  0  0  0  0  0  0  0  0  0  0  0
    0.7708   -0.0116    0.1504 C   0  0  0  0  0  0  0  0  0  0  0  0
    0.8825   -0.5349   -0.8042 H   0  0  0  0  0  0  0  0  0  0  0  0
    1.5877    0.7137    0.2198 H   0  0  0  0  0  0  0  0  0  0  0  0
    0.9910   -0.9920    1.2621 C   0  0  0  0  0  0  0  0  0  0  0  0
    1.2765   -0.6241    2.5693 N   0  0  0  0  0  0  0  0  0  0  0  0
    1.5375   -1.7319    3.2215 C   0  0  0  0  0  0  0  0  0  0  0  0
    1.8012   -1.7850    4.2741 H   0  0  0  0  0  0  0  0  0  0  0  0
    1.4336   -2.8161    2.3701 N   0  0  0  0  0  0  0  0  0  0  0  0
    1.6216   -3.7843    2.6257 H   0  0  0  0  0  0  0  0  0  0  0  0
    1.1100   -2.3469    1.1144 C   0  0  0  0  0  0  0  0  0  0  0  0
    0.9946   -2.9124    0.1933 H   0  0  0  0  0  0  0  0  0  0  0  0
   -0.4707    1.7725   -1.0181 C   0  0  0  0  0  0  0  0  0  0  0  0
    0.4680    2.5570   -1.0586 O   0  0  0  0  0  0  0  0  0  0  0  0
   -1.3955    1.8207   -2.0519 N   0  0  0  0  0  0  0  0  0  0  0  0
   -2.2670    1.3186   -1.9245 H   0  0  0  0  0  0  0  0  0  0  0  0
   -1.3209    2.7952   -3.1354 C   0  0  0  0  0  0  0  0  0  0  0  0
   -0.3728    2.6967   -3.6749 H   0  0  0  0  0  0  0  0  0  0  0  0
   -2.1378    2.6346   -3.8455 H   0  0  0  0  0  0  0  0  0  0  0  0
   -1.3982    3.8143   -2.7419 H   0  0  0  0  0  0  0  0  0  0  0  0
  1  2  1  0  0  0  0
  2  3  1  0  0  0  0
  2  4  1  0  0  0  0
  2  5  1  0  0  0  0
  5  6  2  0  0  0  0
  5  7  1  0  0  0  0
  7  8  1  0  0  0  0
  7  9  1  0  0  0  0
  9 10  1  0  0  0  0
  9 11  1  0  0  0  0
  9 22  1  0  0  0  0
 11 12  1  0  0  0  0
 11 13  1  0  0  0  0
 11 14  1  0  0  0  0
 14 15  1  0  0  0  0
 14 20  2  0  0  0  0
 15 16  2  0  0  0  0
 16 17  1  0  0  0  0
 16 18  1  0  0  0  0
 18 19  1  0  0  0  0
 18 20  1  0  0  0  0
 20 21  1  0  0  0  0
 22 23  2  0  0  0  0
 22 24  1  0  0  0  0
 24 25  1  0  0  0  0
 24 26  1  0  0  0  0
 26 27  1  0  0  0  0
 26 28  1  0  0  0  0
 26 29  1  0  0  0  0
M  END
$$$$

  -OEChem-01062216083D

 29 29  0     1  0  0  0  0  0999 V2000
   -1.5460   -1.0057    2.4430 H   0  0  0  0  0  0  0  0  0  0  0  0
   -2.0384   -1.7474    1.8098 C   0  0  0  0  0  0  0  0  0  0  0  0
   -3.0964   -1.7851    2.0800 H   0  0  0  0  0  0  0  0  0  0  0  0
   -1.5905   -2.7266    1.9929 H   0  0  0  0  0  0  0  0  0  0  0  0
   -1.9008   -1.3751    0.3426 C   0  0  0  0  0  0  0  0  0  0  0  0
   -2.3535   -2.1071   -0.5173 O   0  0  0  0  0  0  0  0  0  0  0  0
   -1.7513   -0.0745   -0.0620 N   0  0  0  0  0  0  0  0  0  0  0  0
   -2.0808   -0.0404   -1.0241 H   0  0  0  0  0  0  0  0  0  0  0  0
   -0.5418    0.7595    0.1484 C   0  0  1  0  0  0  0  0  0  0  0  0
   -0.6476    1.3063    1.0912 H   0  0  0  0  0  0  0  0  0  0  0  0
    0.8133   -0.0111    0.1657 C   0  0  0  0  0  0  0  0  0  0  0  0
    0.9323   -0.5282   -0.7915 H   0  0  0  0  0  0  0  0  0  0  0  0
    1.6362    0.7052    0.2534 H   0  0  0  0  0  0  0  0  0  0  0  0
    1.0067   -0.9989    1.2752 C   0  0  0  0  0  0  0  0  0  0  0  0
    1.2789   -0.6409    2.5881 N   0  0  0  0  0  0  0  0  0  0  0  0
    1.5196   -1.7551    3.2373 C   0  0  0  0  0  0  0  0  0  0  0  0
    1.7694   -1.8171    4.2928 H   0  0  0  0  0  0  0  0  0  0  0  0
    1.4152   -2.8335    2.3789 N   0  0  0  0  0  0  0  0  0  0  0  0
    1.5909   -3.8048    2.6314 H   0  0  0  0  0  0  0  0  0  0  0  0
    1.1131   -2.3542    1.1217 C   0  0  0  0  0  0  0  0  0  0  0  0
    1.0046   -2.9136    0.1960 H   0  0  0  0  0  0  0  0  0  0  0  0
   -0.4395    1.7936   -1.0114 C   0  0  0  0  0  0  0  0  0  0  0  0
    0.6008    2.3927   -1.2521 O   0  0  0  0  0  0  0  0  0  0  0  0
   -1.5301    2.0375   -1.8334 N   0  0  0  0  0  0  0  0  0  0  0  0
   -2.4326    1.7075   -1.5041 H   0  0  0  0  0  0  0  0  0  0  0  0
   -1.5102    3.0252   -2.9071 C   0  0  0  0  0  0  0  0  0  0  0  0
   -0.7217    2.7899   -3.6297 H   0  0  0  0  0  0  0  0  0  0  0  0
   -2.4686    3.0294   -3.4349 H   0  0  0  0  0  0  0  0  0  0  0  0
   -1.3310    4.0274   -2.5036 H   0  0  0  0  0  0  0  0  0  0  0  0
  1  2  1  0  0  0  0
  2  3  1  0  0  0  0
  2  4  1  0  0  0  0
  2  5  1  0  0  0  0
  5  6  2  0  0  0  0
  5  7  1  0  0  0  0
  7  8  1  0  0  0  0
  7  9  1  0  0  0  0
  9 10  1  0  0  0  0
  9 11  1  0  0  0  0
  9 22  1  0  0  0  0
 11 12  1  0  0  0  0
 11 13  1  0  0  0  0
 11 14  1  0  0  0  0
 14 15  1  0  0  0  0
 14 20  2  0  0  0  0
 15 16  2  0  0  0  0
 16 17  1  0  0  0  0
 16 18  1  0  0  0  0
 18 19  1  0  0  0  0
 18 20  1  0  0  0  0
 20 21  1  0  0  0  0
 22 23  2  0  0  0  0
 22 24  1  0  0  0  0
 24 25  1  0  0  0  0
 24 26  1  0  0  0  0
 26 27  1  0  0  0  0
 26 28  1  0  0  0  0
 26 29  1  0  0  0  0
M  END
$$$$

  -OEChem-01062216083D

 29 29  0     1  0  0  0  0  0999 V2000
   -1.5531   -1.0119    2.4081 H   0  0  0  0  0  0  0  0  0  0  0  0
   -2.0319   -1.7491    1.7594 C   0  0  0  0  0  0  0  0  0  0  0  0
   -3.0910   -1.8040    2.0220 H   0  0  0  0  0  0  0  0  0  0  0  0
   -1.5740   -2.7259    1.9296 H   0  0  0  0  0  0  0  0  0  0  0  0
   -1.8900   -1.3514    0.2993 C   0  0  0  0  0  0  0  0  0  0  0  0
   -2.3640   -2.0586   -0.5697 O   0  0  0  0  0  0  0  0  0  0  0  0
   -1.7222   -0.0448   -0.0787 N   0  0  0  0  0  0  0  0  0  0  0  0
   -2.0624    0.0286   -1.0362 H   0  0  0  0  0  0  0  0  0  0  0  0
   -0.5093    0.7759    0.1572 C   0  0  1  0  0  0  0  0  0  0  0  0
   -0.6229    1.3144    1.1036 H   0  0  0  0  0  0  0  0  0  0  0  0
    0.8432    0.0021    0.1872 C   0  0  0  0  0  0  0  0  0  0  0  0
    0.9761   -0.5066   -0.7729 H   0  0  0  0  0  0  0  0  0  0  0  0
    1.6643    0.7182    0.2934 H   0  0  0  0  0  0  0  0  0  0  0  0
    1.0174   -0.9967    1.2896 C   0  0  0  0  0  0  0  0  0  0  0  0
    1.2703   -0.6541    2.6107 N   0  0  0  0  0  0  0  0  0  0  0  0
    1.5002   -1.7763    3.2502 C   0  0  0  0  0  0  0  0  0  0  0  0
    1.7328   -1.8514    4.3086 H   0  0  0  0  0  0  0  0  0  0  0  0
    1.4095   -2.8443    2.3772 N   0  0  0  0  0  0  0  0  0  0  0  0
    1.5789   -3.8189    2.6210 H   0  0  0  0  0  0  0  0  0  0  0  0
    1.1277   -2.3499    1.1213 C   0  0  0  0  0  0  0  0  0  0  0  0
    1.0361   -2.8973    0.1866 H   0  0  0  0  0  0  0  0  0  0  0  0
   -0.4127    1.8182   -0.9951 C   0  0  0  0  0  0  0  0  0  0  0  0
    0.6558    2.2303   -1.4287 O   0  0  0  0  0  0  0  0  0  0  0  0
   -1.5753    2.2793   -1.5928 N   0  0  0  0  0  0  0  0  0  0  0  0
   -2.4528    2.0378   -1.1398 H   0  0  0  0  0  0  0  0  0  0  0  0
   -1.5906    3.2728   -2.6607 C   0  0  0  0  0  0  0  0  0  0  0  0
   -1.0213    2.9148   -3.5251 H   0  0  0  0  0  0  0  0  0  0  0  0
   -2.6184    3.4662   -2.9826 H   0  0  0  0  0  0  0  0  0  0  0  0
   -1.1519    4.2148   -2.3152 H   0  0  0  0  0  0  0  0  0  0  0  0
  1  2  1  0  0  0  0
  2  3  1  0  0  0  0
  2  4  1  0  0  0  0
  2  5  1  0  0  0  0
  5  6  2  0  0  0  0
  5  7  1  0  0  0  0
  7  8  1  0  0  0  0
  7  9  1  0  0  0  0
  9 10  1  0  0  0  0
  9 11  1  0  0  0  0
  9 22  1  0  0  0  0
 11 12  1  0  0  0  0
 11 13  1  0  0  0  0
 11 14  1  0  0  0  0
 14 15  1  0  0  0  0
 14 20  2  0  0  0  0
 15 16  2  0  0  0  0
 16 17  1  0  0  0  0
 16 18  1  0  0  0  0
 18 19  1  0  0  0  0
 18 20  1  0  0  0  0
 20 21  1  0  0  0  0
 22 23  2  0  0  0  0
 22 24  1  0  0  0  0
 24 25  1  0  0  0  0
 24 26  1  0  0  0  0
 26 27  1  0  0  0  0
 26 28  1  0  0  0  0
 26 29  1  0  0  0  0
M  END
$$$$

  -OEChem-01062216083D

 29 29  0     1  0  0  0  0  0999 V2000
   -1.5587   -1.0102    2.3772 H   0  0  0  0  0  0  0  0  0  0  0  0
   -2.0313   -1.7440    1.7200 C   0  0  0  0  0  0  0  0  0  0  0  0
   -3.0893   -1.8130    1.9839 H   0  0  0  0  0  0  0  0  0  0  0  0
   -1.5646   -2.7188    1.8764 H   0  0  0  0  0  0  0  0  0  0  0  0
   -1.8965   -1.3266    0.2648 C   0  0  0  0  0  0  0  0  0  0  0  0
   -2.4024   -2.0094   -0.6057 O   0  0  0  0  0  0  0  0  0  0  0  0
   -1.7033   -0.0186   -0.0971 N   0  0  0  0  0  0  0  0  0  0  0  0
   -2.0586    0.0867   -1.0463 H   0  0  0  0  0  0  0  0  0  0  0  0
   -0.4820    0.7835    0.1509 C   0  0  1  0  0  0  0  0  0  0  0  0
   -0.5966    1.3190    1.0989 H   0  0  0  0  0  0  0  0  0  0  0  0
    0.8638    0.0003    0.1932 C   0  0  0  0  0  0  0  0  0  0  0  0
    0.9990   -0.5129   -0.7642 H   0  0  0  0  0  0  0  0  0  0  0  0
    1.6877    0.7137    0.3003 H   0  0  0  0  0  0  0  0  0  0  0  0
    1.0212   -1.0005    1.2960 C   0  0  0  0  0  0  0  0  0  0  0  0
    1.2647   -0.6571    2.6187 N   0  0  0  0  0  0  0  0  0  0  0  0
    1.4830   -1.7799    3.2613 C   0  0  0  0  0  0  0  0  0  0  0  0
    1.7064   -1.8547    4.3217 H   0  0  0  0  0  0  0  0  0  0  0  0
    1.3939   -2.8487    2.3891 N   0  0  0  0  0  0  0  0  0  0  0  0
    1.5587   -3.8235    2.6352 H   0  0  0  0  0  0  0  0  0  0  0  0
    1.1253   -2.3544    1.1301 C   0  0  0  0  0  0  0  0  0  0  0  0
    1.0385   -2.9025    0.1954 H   0  0  0  0  0  0  0  0  0  0  0  0
   -0.3782    1.8289   -0.9950 C   0  0  0  0  0  0  0  0  0  0  0  0
    0.6552    2.0444   -1.6162 O   0  0  0  0  0  0  0  0  0  0  0  0
   -1.5175    2.5239   -1.3642 N   0  0  0  0  0  0  0  0  0  0  0  0
   -2.3535    2.3751   -0.8053 H   0  0  0  0  0  0  0  0  0  0  0  0
   -1.5439    3.5308   -2.4190 C   0  0  0  0  0  0  0  0  0  0  0  0
   -1.2418    3.0916   -3.3757 H   0  0  0  0  0  0  0  0  0  0  0  0
   -2.5545    3.9358   -2.5296 H   0  0  0  0  0  0  0  0  0  0  0  0
   -0.8647    4.3556   -2.1792 H   0  0  0  0  0  0  0  0  0  0  0  0
  1  2  1  0  0  0  0
  2  3  1  0  0  0  0
  2  4  1  0  0  0  0
  2  5  1  0  0  0  0
  5  6  2  0  0  0  0
  5  7  1  0  0  0  0
  7  8  1  0  0  0  0
  7  9  1  0  0  0  0
  9 10  1  0  0  0  0
  9 11  1  0  0  0  0
  9 22  1  0  0  0  0
 11 12  1  0  0  0  0
 11 13  1  0  0  0  0
 11 14  1  0  0  0  0
 14 15  1  0  0  0  0
 14 20  2  0  0  0  0
 15 16  2  0  0  0  0
 16 17  1  0  0  0  0
 16 18  1  0  0  0  0
 18 19  1  0  0  0  0
 18 20  1  0  0  0  0
 20 21  1  0  0  0  0
 22 23  2  0  0  0  0
 22 24  1  0  0  0  0
 24 25  1  0  0  0  0
 24 26  1  0  0  0  0
 26 27  1  0  0  0  0
 26 28  1  0  0  0  0
 26 29  1  0  0  0  0
M  END
$$$$

  -OEChem-01062216083D

 29 29  0     1  0  0  0  0  0999 V2000
   -1.5633   -1.0119    2.3505 H   0  0  0  0  0  0  0  0  0  0  0  0
   -2.0324   -1.7399    1.6847 C   0  0  0  0  0  0  0  0  0  0  0  0
   -3.0930   -1.8069    1.9386 H   0  0  0  0  0  0  0  0  0  0  0  0
   -1.5697   -2.7169    1.8396 H   0  0  0  0  0  0  0  0  0  0  0  0
   -1.8832   -1.3145    0.2329 C   0  0  0  0  0  0  0  0  0  0  0  0
   -2.3864   -1.9914   -0.6437 O   0  0  0  0  0  0  0  0  0  0  0  0
   -1.6828   -0.0042   -0.1173 N   0  0  0  0  0  0  0  0  0  0  0  0
   -2.0328    0.1146   -1.0672 H   0  0  0  0  0  0  0  0  0  0  0  0
   -0.4646    0.7937    0.1505 C   0  0  1  0  0  0  0  0  0  0  0  0
   -0.5894    1.3228    1.1008 H   0  0  0  0  0  0  0  0  0  0  0  0
    0.8825    0.0155    0.2050 C   0  0  0  0  0  0  0  0  0  0  0  0
    1.0284   -0.4984   -0.7508 H   0  0  0  0  0  0  0  0  0  0  0  0
    1.7014    0.7333    0.3180 H   0  0  0  0  0  0  0  0  0  0  0  0
    1.0282   -0.9903    1.3040 C   0  0  0  0  0  0  0  0  0  0  0  0
    1.2533   -0.6525    2.6316 N   0  0  0  0  0  0  0  0  0  0  0  0
    1.4619   -1.7786    3.2720 C   0  0  0  0  0  0  0  0  0  0  0  0
    1.6705   -1.8582    4.3351 H   0  0  0  0  0  0  0  0  0  0  0  0
    1.3839   -2.8433    2.3935 N   0  0  0  0  0  0  0  0  0  0  0  0
    1.5397   -3.8201    2.6378 H   0  0  0  0  0  0  0  0  0  0  0  0
    1.1340   -2.3432    1.1331 C   0  0  0  0  0  0  0  0  0  0  0  0
    1.0592   -2.8864    0.1945 H   0  0  0  0  0  0  0  0  0  0  0  0
   -0.3494    1.8435   -0.9869 C   0  0  0  0  0  0  0  0  0  0  0  0
    0.5847    1.8759   -1.7786 O   0  0  0  0  0  0  0  0  0  0  0  0
   -1.3809    2.7509   -1.1512 N   0  0  0  0  0  0  0  0  0  0  0  0
   -2.1587    2.6965   -0.4990 H   0  0  0  0  0  0  0  0  0  0  0  0
   -1.4149    3.7535   -2.2096 C   0  0  0  0  0  0  0  0  0  0  0  0
   -1.4192    3.2723   -3.1934 H   0  0  0  0  0  0  0  0  0  0  0  0
   -2.3171    4.3663   -2.1207 H   0  0  0  0  0  0  0  0  0  0  0  0
   -0.5422    4.4117   -2.1429 H   0  0  0  0  0  0  0  0  0  0  0  0
  1  2  1  0  0  0  0
  2  3  1  0  0  0  0
  2  4  1  0  0  0  0
  2  5  1  0  0  0  0
  5  6  2  0  0  0  0
  5  7  1  0  0  0  0
  7  8  1  0  0  0  0
  7  9  1  0  0  0  0
  9 10  1  0  0  0  0
  9 11  1  0  0  0  0
  9 22  1  0  0  0  0
 11 12  1  0  0  0  0
 11 13  1  0  0  0  0
 11 14  1  0  0  0  0
 14 15  1  0  0  0  0
 14 20  2  0  0  0  0
 15 16  2  0  0  0  0
 16 17  1  0  0  0  0
 16 18  1  0  0  0  0
 18 19  1  0  0  0  0
 18 20  1  0  0  0  0
 20 21  1  0  0  0  0
 22 23  2  0  0  0  0
 22 24  1  0  0  0  0
 24 25  1  0  0  0  0
 24 26  1  0  0  0  0
 26 27  1  0  0  0  0
 26 28  1  0  0  0  0
 26 29  1  0  0  0  0
M  END
$$$$

  -OEChem-01062216083D

 29 29  0     1  0  0  0  0  0999 V2000
   -1.5658   -1.0054    2.3359 H   0  0  0  0  0  0  0  0  0  0  0  0
   -2.0369   -1.7308    1.6688 C   0  0  0  0  0  0  0  0  0  0  0  0
   -3.0991   -1.7906    1.9182 H   0  0  0  0  0  0  0  0  0  0  0  0
   -1.5818   -2.7109    1.8265 H   0  0  0  0  0  0  0  0  0  0  0  0
   -1.8792   -1.3083    0.2171 C   0  0  0  0  0  0  0  0  0  0  0  0
   -2.3728   -1.9913   -0.6603 O   0  0  0  0  0  0  0  0  0  0  0  0
   -1.6763    0.0015   -0.1346 N   0  0  0  0  0  0  0  0  0  0  0  0
   -2.0147    0.1178   -1.0891 H   0  0  0  0  0  0  0  0  0  0  0  0
   -0.4603    0.7974    0.1423 C   0  0  1  0  0  0  0  0  0  0  0  0
   -0.5914    1.3225    1.0940 H   0  0  0  0  0  0  0  0  0  0  0  0
    0.8880    0.0229    0.2049 C   0  0  0  0  0  0  0  0  0  0  0  0
    1.0400   -0.4952   -0.7475 H   0  0  0  0  0  0  0  0  0  0  0  0
    1.7046    0.7432    0.3176 H   0  0  0  0  0  0  0  0  0  0  0  0
    1.0292   -0.9836    1.3036 C   0  0  0  0  0  0  0  0  0  0  0  0
    1.2449   -0.6451    2.6324 N   0  0  0  0  0  0  0  0  0  0  0  0
    1.4503   -1.7713    3.2737 C   0  0  0  0  0  0  0  0  0  0  0  0
    1.6513   -1.8515    4.3383 H   0  0  0  0  0  0  0  0  0  0  0  0
    1.3792   -2.8360    2.3947 N   0  0  0  0  0  0  0  0  0  0  0  0
    1.5334   -3.8128    2.6396 H   0  0  0  0  0  0  0  0  0  0  0  0
    1.1355   -2.3363    1.1332 C   0  0  0  0  0  0  0  0  0  0  0  0
    1.0641   -2.8790    0.1940 H   0  0  0  0  0  0  0  0  0  0  0  0
   -0.3256    1.8476   -0.9903 C   0  0  0  0  0  0  0  0  0  0  0  0
    0.4409    1.7065   -1.9351 O   0  0  0  0  0  0  0  0  0  0  0  0
   -1.1677    2.9449   -0.9831 N   0  0  0  0  0  0  0  0  0  0  0  0
   -1.8387    3.0148   -0.2230 H   0  0  0  0  0  0  0  0  0  0  0  0
   -1.1895    3.9509   -2.0386 C   0  0  0  0  0  0  0  0  0  0  0  0
   -1.4832    3.4992   -2.9919 H   0  0  0  0  0  0  0  0  0  0  0  0
   -1.9066    4.7404   -1.7941 H   0  0  0  0  0  0  0  0  0  0  0  0
   -0.2007    4.4071   -2.1546 H   0  0  0  0  0  0  0  0  0  0  0  0
  1  2  1  0  0  0  0
  2  3  1  0  0  0  0
  2  4  1  0  0  0  0
  2  5  1  0  0  0  0
  5  6  2  0  0  0  0
  5  7  1  0  0  0  0
  7  8  1  0  0  0  0
  7  9  1  0  0  0  0
  9 10  1  0  0  0  0
  9 11  1  0  0  0  0
  9 22  1  0  0  0  0
 11 12  1  0  0  0  0
 11 13  1  0  0  0  0
 11 14  1  0  0  0  0
 14 15  1  0  0  0  0
 14 20  2  0  0  0  0
 15 16  2  0  0  0  0
 16 17  1  0  0  0  0
 16 18  1  0  0  0  0
 18 19  1  0  0  0  0
 18 20  1  0  0  0  0
 20 21  1  0  0  0  0
 22 23  2  0  0  0  0
 22 24  1  0  0  0  0
 24 25  1  0  0  0  0
 24 26  1  0  0  0  0
 26 27  1  0  0  0  0
 26 28  1  0  0  0  0
 26 29  1  0  0  0  0
M  END
$$$$

  -OEChem-01062216083D

 29 29  0     1  0  0  0  0  0999 V2000
   -1.5792   -0.9888    2.3174 H   0  0  0  0  0  0  0  0  0  0  0  0
   -2.0408   -1.7204    1.6506 C   0  0  0  0  0  0  0  0  0  0  0  0
   -3.1057   -1.7802    1.8883 H   0  0  0  0  0  0  0  0  0  0  0  0
   -1.5849   -2.6981    1.8206 H   0  0  0  0  0  0  0  0  0  0  0  0
   -1.8685   -1.3084    0.1976 C   0  0  0  0  0  0  0  0  0  0  0  0
   -2.3447   -2.0041   -0.6795 O   0  0  0  0  0  0  0  0  0  0  0  0
   -1.6656   -0.0000   -0.1593 N   0  0  0  0  0  0  0  0  0  0  0  0
   -1.9819    0.1076   -1.1228 H   0  0  0  0  0  0  0  0  0  0  0  0
   -0.4552    0.7981    0.1309 C   0  0  1  0  0  0  0  0  0  0  0  0
   -0.5988    1.3197    1.0826 H   0  0  0  0  0  0  0  0  0  0  0  0
    0.8974    0.0342    0.2026 C   0  0  0  0  0  0  0  0  0  0  0  0
    1.0611   -0.4830   -0.7487 H   0  0  0  0  0  0  0  0  0  0  0  0
    1.7086    0.7594    0.3217 H   0  0  0  0  0  0  0  0  0  0  0  0
    1.0304   -0.9734    1.3010 C   0  0  0  0  0  0  0  0  0  0  0  0
    1.2286   -0.6332    2.6320 N   0  0  0  0  0  0  0  0  0  0  0  0
    1.4260   -1.7591    3.2767 C   0  0  0  0  0  0  0  0  0  0  0  0
    1.6128   -1.8385    4.3439 H   0  0  0  0  0  0  0  0  0  0  0  0
    1.3678   -2.8244    2.3974 N   0  0  0  0  0  0  0  0  0  0  0  0
    1.5187   -3.8010    2.6452 H   0  0  0  0  0  0  0  0  0  0  0  0
    1.1400   -2.3257    1.1324 C   0  0  0  0  0  0  0  0  0  0  0  0
    1.0794   -2.8689    0.1925 H   0  0  0  0  0  0  0  0  0  0  0  0
   -0.2974    1.8449   -0.9981 C   0  0  0  0  0  0  0  0  0  0  0  0
    0.2435    1.5691   -2.0617 O   0  0  0  0  0  0  0  0  0  0  0  0
   -0.8952    3.0841   -0.8578 N   0  0  0  0  0  0  0  0  0  0  0  0
   -1.4122    3.2605   -0.0010 H   0  0  0  0  0  0  0  0  0  0  0  0
   -0.9078    4.0954   -1.9081 C   0  0  0  0  0  0  0  0  0  0  0  0
   -1.4827    3.7437   -2.7711 H   0  0  0  0  0  0  0  0  0  0  0  0
   -1.3657    5.0179   -1.5383 H   0  0  0  0  0  0  0  0  0  0  0  0
    0.1123    4.3250   -2.2335 H   0  0  0  0  0  0  0  0  0  0  0  0
  1  2  1  0  0  0  0
  2  3  1  0  0  0  0
  2  4  1  0  0  0  0
  2  5  1  0  0  0  0
  5  6  2  0  0  0  0
  5  7  1  0  0  0  0
  7  8  1  0  0  0  0
  7  9  1  0  0  0  0
  9 10  1  0  0  0  0
  9 11  1  0  0  0  0
  9 22  1  0  0  0  0
 11 12  1  0  0  0  0
 11 13  1  0  0  0  0
 11 14  1  0  0  0  0
 14 15  1  0  0  0  0
 14 20  2  0  0  0  0
 15 16  2  0  0  0  0
 16 17  1  0  0  0  0
 16 18  1  0  0  0  0
 18 19  1  0  0  0  0
 18 20  1  0  0  0  0
 20 21  1  0  0  0  0
 22 23  2  0  0  0  0
 22 24  1  0  0  0  0
 24 25  1  0  0  0  0
 24 26  1  0  0  0  0
 26 27  1  0  0  0  0
 26 28  1  0  0  0  0
 26 29  1  0  0  0  0
M  END
$$$$

  -OEChem-01062216083D

 29 29  0     1  0  0  0  0  0999 V2000
   -1.5859   -0.9488    2.3147 H   0  0  0  0  0  0  0  0  0  0  0  0
   -2.0454   -1.6924    1.6596 C   0  0  0  0  0  0  0  0  0  0  0  0
   -3.1096   -1.7533    1.8997 H   0  0  0  0  0  0  0  0  0  0  0  0
   -1.5848   -2.6654    1.8438 H   0  0  0  0  0  0  0  0  0  0  0  0
   -1.8763   -1.3005    0.2006 C   0  0  0  0  0  0  0  0  0  0  0  0
   -2.3436   -2.0142   -0.6668 O   0  0  0  0  0  0  0  0  0  0  0  0
   -1.6670    0.0023   -0.1731 N   0  0  0  0  0  0  0  0  0  0  0  0
   -1.9642    0.0988   -1.1447 H   0  0  0  0  0  0  0  0  0  0  0  0
   -0.4597    0.8013    0.1238 C   0  0  1  0  0  0  0  0  0  0  0  0
   -0.6111    1.3285    1.0709 H   0  0  0  0  0  0  0  0  0  0  0  0
    0.8941    0.0430    0.1971 C   0  0  0  0  0  0  0  0  0  0  0  0
    1.0625   -0.4681   -0.7566 H   0  0  0  0  0  0  0  0  0  0  0  0
    1.7024    0.7702    0.3231 H   0  0  0  0  0  0  0  0  0  0  0  0
    1.0274   -0.9683    1.2918 C   0  0  0  0  0  0  0  0  0  0  0  0
    1.2201   -0.6318    2.6247 N   0  0  0  0  0  0  0  0  0  0  0  0
    1.4145   -1.7600    3.2665 C   0  0  0  0  0  0  0  0  0  0  0  0
    1.5962   -1.8432    4.3343 H   0  0  0  0  0  0  0  0  0  0  0  0
    1.3602   -2.8226    2.3836 N   0  0  0  0  0  0  0  0  0  0  0  0
    1.5067   -3.8004    2.6294 H   0  0  0  0  0  0  0  0  0  0  0  0
    1.1365   -2.3202    1.1195 C   0  0  0  0  0  0  0  0  0  0  0  0
    1.0755   -2.8614    0.1784 H   0  0  0  0  0  0  0  0  0  0  0  0
   -0.2797    1.8311   -1.0146 C   0  0  0  0  0  0  0  0  0  0  0  0
    0.0098    1.4697   -2.1482 O   0  0  0  0  0  0  0  0  0  0  0  0
   -0.5907    3.1608   -0.7955 N   0  0  0  0  0  0  0  0  0  0  0  0
   -0.9056    3.4239    0.1339 H   0  0  0  0  0  0  0  0  0  0  0  0
   -0.5653    4.1745   -1.8434 C   0  0  0  0  0  0  0  0  0  0  0  0
   -1.3144    3.9513   -2.6102 H   0  0  0  0  0  0  0  0  0  0  0  0
   -0.7838    5.1601   -1.4214 H   0  0  0  0  0  0  0  0  0  0  0  0
    0.4220    4.2139   -2.3154 H   0  0  0  0  0  0  0  0  0  0  0  0
  1  2  1  0  0  0  0
  2  3  1  0  0  0  0
  2  4  1  0  0  0  0
  2  5  1  0  0  0  0
  5  6  2  0  0  0  0
  5  7  1  0  0  0  0
  7  8  1  0  0  0  0
  7  9  1  0  0  0  0
  9 10  1  0  0  0  0
  9 11  1  0  0  0  0
  9 22  1  0  0  0  0
 11 12  1  0  0  0  0
 11 13  1  0  0  0  0
 11 14  1  0  0  0  0
 14 15  1  0  0  0  0
 14 20  2  0  0  0  0
 15 16  2  0  0  0  0
 16 17  1  0  0  0  0
 16 18  1  0  0  0  0
 18 19  1  0  0  0  0
 18 20  1  0  0  0  0
 20 21  1  0  0  0  0
 22 23  2  0  0  0  0
 22 24  1  0  0  0  0
 24 25  1  0  0  0  0
 24 26  1  0  0  0  0
 26 27  1  0  0  0  0
 26 28  1  0  0  0  0
 26 29  1  0  0  0  0
M  END
$$$$

  -OEChem-01062216083D

 29 29  0     1  0  0  0  0  0999 V2000
   -1.5951   -0.9263    2.3012 H   0  0  0  0  0  0  0  0  0  0  0  0
   -2.0493   -1.6799    1.6540 C   0  0  0  0  0  0  0  0  0  0  0  0
   -3.1154   -1.7373    1.8859 H   0  0  0  0  0  0  0  0  0  0  0  0
   -1.5901   -2.6498    1.8562 H   0  0  0  0  0  0  0  0  0  0  0  0
   -1.8689   -1.3104    0.1907 C   0  0  0  0  0  0  0  0  0  0  0  0
   -2.3170   -2.0448   -0.6698 O   0  0  0  0  0  0  0  0  0  0  0  0
   -1.6606   -0.0123   -0.1996 N   0  0  0  0  0  0  0  0  0  0  0  0
   -1.9377    0.0714   -1.1791 H   0  0  0  0  0  0  0  0  0  0  0  0
   -0.4645    0.7998    0.1057 C   0  0  1  0  0  0  0  0  0  0  0  0
   -0.6325    1.3349    1.0456 H   0  0  0  0  0  0  0  0  0  0  0  0
    0.8940    0.0534    0.1905 C   0  0  0  0  0  0  0  0  0  0  0  0
    1.0724   -0.4560   -0.7624 H   0  0  0  0  0  0  0  0  0  0  0  0
    1.6964    0.7861    0.3226 H   0  0  0  0  0  0  0  0  0  0  0  0
    1.0269   -0.9551    1.2877 C   0  0  0  0  0  0  0  0  0  0  0  0
    1.2065   -0.6122    2.6205 N   0  0  0  0  0  0  0  0  0  0  0  0
    1.4021   -1.7370    3.2682 C   0  0  0  0  0  0  0  0  0  0  0  0
    1.5749   -1.8152    4.3380 H   0  0  0  0  0  0  0  0  0  0  0  0
    1.3617   -2.8031    2.3888 N   0  0  0  0  0  0  0  0  0  0  0  0
    1.5121   -3.7790    2.6396 H   0  0  0  0  0  0  0  0  0  0  0  0
    1.1440   -2.3069    1.1210 C   0  0  0  0  0  0  0  0  0  0  0  0
    1.0915   -2.8515    0.1816 H   0  0  0  0  0  0  0  0  0  0  0  0
   -0.2675    1.8133   -1.0428 C   0  0  0  0  0  0  0  0  0  0  0  0
   -0.2096    1.4277   -2.2038 O   0  0  0  0  0  0  0  0  0  0  0  0
   -0.2855    3.1713   -0.7819 N   0  0  0  0  0  0  0  0  0  0  0  0
   -0.4041    3.4649    0.1836 H   0  0  0  0  0  0  0  0  0  0  0  0
   -0.2228    4.1884   -1.8245 C   0  0  0  0  0  0  0  0  0  0  0  0
   -1.1054    4.1298   -2.4699 H   0  0  0  0  0  0  0  0  0  0  0  0
   -0.1862    5.1861   -1.3769 H   0  0  0  0  0  0  0  0  0  0  0  0
    0.6735    4.0540   -2.4393 H   0  0  0  0  0  0  0  0  0  0  0  0
  1  2  1  0  0  0  0
  2  3  1  0  0  0  0
  2  4  1  0  0  0  0
  2  5  1  0  0  0  0
  5  6  2  0  0  0  0
  5  7  1  0  0  0  0
  7  8  1  0  0  0  0
  7  9  1  0  0  0  0
  9 10  1  0  0  0  0
  9 11  1  0  0  0  0
  9 22  1  0  0  0  0
 11 12  1  0  0  0  0
 11 13  1  0  0  0  0
 11 14  1  0  0  0  0
 14 15  1  0  0  0  0
 14 20  2  0  0  0  0
 15 16  2  0  0  0  0
 16 17  1  0  0  0  0
 16 18  1  0  0  0  0
 18 19  1  0  0  0  0
 18 20  1  0  0  0  0
 20 21  1  0  0  0  0
 22 23  2  0  0  0  0
 22 24  1  0  0  0  0
 24 25  1  0  0  0  0
 24 26  1  0  0  0  0
 26 27  1  0  0  0  0
 26 28  1  0  0  0  0
 26 29  1  0  0  0  0
M  END
$$$$

  -OEChem-01062216083D

 29 29  0     1  0  0  0  0  0999 V2000
   -1.5842   -0.9104    2.3063 H   0  0  0  0  0  0  0  0  0  0  0  0
   -2.0521   -1.6659    1.6714 C   0  0  0  0  0  0  0  0  0  0  0  0
   -3.1158   -1.7126    1.9168 H   0  0  0  0  0  0  0  0  0  0  0  0
   -1.5982   -2.6378    1.8767 H   0  0  0  0  0  0  0  0  0  0  0  0
   -1.8853   -1.3118    0.2026 C   0  0  0  0  0  0  0  0  0  0  0  0
   -2.3312   -2.0620   -0.6453 O   0  0  0  0  0  0  0  0  0  0  0  0
   -1.6752   -0.0196   -0.2067 N   0  0  0  0  0  0  0  0  0  0  0  0
   -1.9585    0.0587   -1.1857 H   0  0  0  0  0  0  0  0  0  0  0  0
   -0.4788    0.7984    0.0830 C   0  0  1  0  0  0  0  0  0  0  0  0
   -0.6430    1.3448    1.0171 H   0  0  0  0  0  0  0  0  0  0  0  0
    0.8792    0.0522    0.1613 C   0  0  0  0  0  0  0  0  0  0  0  0
    1.0474   -0.4619   -0.7909 H   0  0  0  0  0  0  0  0  0  0  0  0
    1.6838    0.7844    0.2826 H   0  0  0  0  0  0  0  0  0  0  0  0
    1.0222   -0.9490    1.2641 C   0  0  0  0  0  0  0  0  0  0  0  0
    1.2141   -0.5945    2.5923 N   0  0  0  0  0  0  0  0  0  0  0  0
    1.4094   -1.7141    3.2491 C   0  0  0  0  0  0  0  0  0  0  0  0
    1.5906   -1.7827    4.3181 H   0  0  0  0  0  0  0  0  0  0  0  0
    1.3566   -2.7882    2.3799 N   0  0  0  0  0  0  0  0  0  0  0  0
    1.4999   -3.7631    2.6393 H   0  0  0  0  0  0  0  0  0  0  0  0
    1.1317   -2.3028    1.1091 C   0  0  0  0  0  0  0  0  0  0  0  0
    1.0664   -2.8568    0.1758 H   0  0  0  0  0  0  0  0  0  0  0  0
   -0.2758    1.7980   -1.0766 C   0  0  0  0  0  0  0  0  0  0  0  0
   -0.4478    1.4403   -2.2357 O   0  0  0  0  0  0  0  0  0  0  0  0
    0.0183    3.1233   -0.8119 N   0  0  0  0  0  0  0  0  0  0  0  0
    0.1168    3.4011    0.1607 H   0  0  0  0  0  0  0  0  0  0  0  0
    0.1535    4.1363   -1.8517 C   0  0  0  0  0  0  0  0  0  0  0  0
   -0.7868    4.2489   -2.4014 H   0  0  0  0  0  0  0  0  0  0  0  0
    0.4119    5.1020   -1.4070 H   0  0  0  0  0  0  0  0  0  0  0  0
    0.9437    3.8590   -2.5574 H   0  0  0  0  0  0  0  0  0  0  0  0
  1  2  1  0  0  0  0
  2  3  1  0  0  0  0
  2  4  1  0  0  0  0
  2  5  1  0  0  0  0
  5  6  2  0  0  0  0
  5  7  1  0  0  0  0
  7  8  1  0  0  0  0
  7  9  1  0  0  0  0
  9 10  1  0  0  0  0
  9 11  1  0  0  0  0
  9 22  1  0  0  0  0
 11 12  1  0  0  0  0
 11 13  1  0  0  0  0
 11 14  1  0  0  0  0
 14 15  1  0  0  0  0
 14 20  2  0  0  0  0
 15 16  2  0  0  0  0
 16 17  1  0  0  0  0
 16 18  1  0  0  0  0
 18 19  1  0  0  0  0
 18 20  1  0  0  0  0
 20 21  1  0  0  0  0
 22 23  2  0  0  0  0
 22 24  1  0  0  0  0
 24 25  1  0  0  0  0
 24 26  1  0  0  0  0
 26 27  1  0  0  0  0
 26 28  1  0  0  0  0
 26 29  1  0  0  0  0
M  END
$$$$

  -OEChem-01062216083D

 29 29  0     1  0  0  0  0  0999 V2000
   -1.5843   -0.8826    2.3150 H   0  0  0  0  0  0  0  0  0  0  0  0
   -2.0506   -1.6494    1.6924 C   0  0  0  0  0  0  0  0  0  0  0  0
   -3.1135   -1.6977    1.9406 H   0  0  0  0  0  0  0  0  0  0  0  0
   -1.5918   -2.6160    1.9110 H   0  0  0  0  0  0  0  0  0  0  0  0
   -1.8895   -1.3162    0.2181 C   0  0  0  0  0  0  0  0  0  0  0  0
   -2.3267   -2.0841   -0.6187 O   0  0  0  0  0  0  0  0  0  0  0  0
   -1.6845   -0.0286   -0.2079 N   0  0  0  0  0  0  0  0  0  0  0  0
   -1.9834    0.0487   -1.1828 H   0  0  0  0  0  0  0  0  0  0  0  0
   -0.4892    0.7979    0.0619 C   0  0  1  0  0  0  0  0  0  0  0  0
   -0.6452    1.3546    0.9914 H   0  0  0  0  0  0  0  0  0  0  0  0
    0.8673    0.0465    0.1314 C   0  0  0  0  0  0  0  0  0  0  0  0
    1.0207   -0.4757   -0.8189 H   0  0  0  0  0  0  0  0  0  0  0  0
    1.6780    0.7739    0.2376 H   0  0  0  0  0  0  0  0  0  0  0  0
    1.0210   -0.9463    1.2403 C   0  0  0  0  0  0  0  0  0  0  0  0
    1.2306   -0.5800    2.5623 N   0  0  0  0  0  0  0  0  0  0  0  0
    1.4281   -1.6943    3.2273 C   0  0  0  0  0  0  0  0  0  0  0  0
    1.6211   -1.7535    4.2948 H   0  0  0  0  0  0  0  0  0  0  0  0
    1.3601   -2.7764    2.3691 N   0  0  0  0  0  0  0  0  0  0  0  0
    1.4997   -3.7497    2.6362 H   0  0  0  0  0  0  0  0  0  0  0  0
    1.1217   -2.3022    1.0967 C   0  0  0  0  0  0  0  0  0  0  0  0
    1.0395   -2.8655    0.1703 H   0  0  0  0  0  0  0  0  0  0  0  0
   -0.2910    1.7875   -1.1088 C   0  0  0  0  0  0  0  0  0  0  0  0
   -0.6802    1.5016   -2.2351 O   0  0  0  0  0  0  0  0  0  0  0  0
    0.2968    3.0201   -0.8877 N   0  0  0  0  0  0  0  0  0  0  0  0
    0.5875    3.2418    0.0605 H   0  0  0  0  0  0  0  0  0  0  0  0
    0.4807    4.0192   -1.9336 C   0  0  0  0  0  0  0  0  0  0  0  0
   -0.4864    4.3225   -2.3481 H   0  0  0  0  0  0  0  0  0  0  0  0
    0.9753    4.9062   -1.5261 H   0  0  0  0  0  0  0  0  0  0  0  0
    1.1011    3.6185   -2.7422 H   0  0  0  0  0  0  0  0  0  0  0  0
  1  2  1  0  0  0  0
  2  3  1  0  0  0  0
  2  4  1  0  0  0  0
  2  5  1  0  0  0  0
  5  6  2  0  0  0  0
  5  7  1  0  0  0  0
  7  8  1  0  0  0  0
  7  9  1  0  0  0  0
  9 10  1  0  0  0  0
  9 11  1  0  0  0  0
  9 22  1  0  0  0  0
 11 12  1  0  0  0  0
 11 13  1  0  0  0  0
 11 14  1  0  0  0  0
 14 15  1  0  0  0  0
 14 20  2  0  0  0  0
 15 16  2  0  0  0  0
 16 17  1  0  0  0  0
 16 18  1  0  0  0  0
 18 19  1  0  0  0  0
 18 20  1  0  0  0  0
 20 21  1  0  0  0  0
 22 23  2  0  0  0  0
 22 24  1  0  0  0  0
 24 25  1  0  0  0  0
 24 26  1  0  0  0  0
 26 27  1  0  0  0  0
 26 28  1  0  0  0  0
 26 29  1  0  0  0  0
M  END
$$$$

  -OEChem-01062216083D

 29 29  0     1  0  0  0  0  0999 V2000
   -1.5582   -0.8840    2.3182 H   0  0  0  0  0  0  0  0  0  0  0  0
   -2.0486   -1.6419    1.7033 C   0  0  0  0  0  0  0  0  0  0  0  0
   -3.1106   -1.6606    1.9597 H   0  0  0  0  0  0  0  0  0  0  0  0
   -1.6129   -2.6189    1.9232 H   0  0  0  0  0  0  0  0  0  0  0  0
   -1.8898   -1.3193    0.2266 C   0  0  0  0  0  0  0  0  0  0  0  0
   -2.3263   -2.0936   -0.6047 O   0  0  0  0  0  0  0  0  0  0  0  0
   -1.6855   -0.0337   -0.2051 N   0  0  0  0  0  0  0  0  0  0  0  0
   -2.0088    0.0550   -1.1716 H   0  0  0  0  0  0  0  0  0  0  0  0
   -0.4892    0.7981    0.0480 C   0  0  1  0  0  0  0  0  0  0  0  0
   -0.6343    1.3611    0.9754 H   0  0  0  0  0  0  0  0  0  0  0  0
    0.8635    0.0352    0.1095 C   0  0  0  0  0  0  0  0  0  0  0  0
    1.0029   -0.4931   -0.8396 H   0  0  0  0  0  0  0  0  0  0  0  0
    1.6839    0.7524    0.2059 H   0  0  0  0  0  0  0  0  0  0  0  0
    1.0214   -0.9515    1.2233 C   0  0  0  0  0  0  0  0  0  0  0  0
    1.2476   -0.5761    2.5399 N   0  0  0  0  0  0  0  0  0  0  0  0
    1.4436   -1.6866    3.2118 C   0  0  0  0  0  0  0  0  0  0  0  0
    1.6469   -1.7394    4.2777 H   0  0  0  0  0  0  0  0  0  0  0  0
    1.3598   -2.7747    2.3627 N   0  0  0  0  0  0  0  0  0  0  0  0
    1.4945   -3.7469    2.6363 H   0  0  0  0  0  0  0  0  0  0  0  0
    1.1125   -2.3089    1.0889 C   0  0  0  0  0  0  0  0  0  0  0  0
    1.0183   -2.8797    0.1683 H   0  0  0  0  0  0  0  0  0  0  0  0
   -0.3027    1.7842   -1.1312 C   0  0  0  0  0  0  0  0  0  0  0  0
   -0.9009    1.6112   -2.1871 O   0  0  0  0  0  0  0  0  0  0  0  0
    0.5435    2.8728   -1.0096 N   0  0  0  0  0  0  0  0  0  0  0  0
    1.0079    3.0121   -0.1164 H   0  0  0  0  0  0  0  0  0  0  0  0
    0.7451    3.8542   -2.0690 C   0  0  0  0  0  0  0  0  0  0  0  0
   -0.2021    4.3401   -2.3261 H   0  0  0  0  0  0  0  0  0  0  0  0
    1.4509    4.6239   -1.7421 H   0  0  0  0  0  0  0  0  0  0  0  0
    1.1499    3.3733   -2.9657 H   0  0  0  0  0  0  0  0  0  0  0  0
  1  2  1  0  0  0  0
  2  3  1  0  0  0  0
  2  4  1  0  0  0  0
  2  5  1  0  0  0  0
  5  6  2  0  0  0  0
  5  7  1  0  0  0  0
  7  8  1  0  0  0  0
  7  9  1  0  0  0  0
  9 10  1  0  0  0  0
  9 11  1  0  0  0  0
  9 22  1  0  0  0  0
 11 12  1  0  0  0  0
 11 13  1  0  0  0  0
 11 14  1  0  0  0  0
 14 15  1  0  0  0  0
 14 20  2  0  0  0  0
 15 16  2  0  0  0  0
 16 17  1  0  0  0  0
 16 18  1  0  0  0  0
 18 19  1  0  0  0  0
 18 20  1  0  0  0  0
 20 21  1  0  0  0  0
 22 23  2  0  0  0  0
 22 24  1  0  0  0  0
 24 25  1  0  0  0  0
 24 26  1  0  0  0  0
 26 27  1  0  0  0  0
 26 28  1  0  0  0  0
 26 29  1  0  0  0  0
M  END
$$$$

  -OEChem-01062216083D

 29 29  0     1  0  0  0  0  0999 V2000
   -3.1270   -2.8856    1.1242 H   0  0  0  0  0  0  0  0  0  0  0  0
   -3.0719   -1.9119    0.6293 C   0  0  0  0  0  0  0  0  0  0  0  0
   -3.9281   -1.3087    0.9412 H   0  0  0  0  0  0  0  0  0  0  0  0
   -3.1165   -2.0641   -0.4519 H   0  0  0  0  0  0  0  0  0  0  0  0
   -1.7805   -1.2073    1.0017 C   0  0  0  0  0  0  0  0  0  0  0  0
   -1.0880   -1.6828    1.8811 O   0  0  0  0  0  0  0  0  0  0  0  0
   -1.5153    0.0213    0.4341 N   0  0  0  0  0  0  0  0  0  0  0  0
   -2.2390    0.3458   -0.2088 H   0  0  0  0  0  0  0  0  0  0  0  0
   -0.2595    0.7983    0.3215 C   0  0  1  0  0  0  0  0  0  0  0  0
   -0.0452    1.2559    1.2929 H   0  0  0  0  0  0  0  0  0  0  0  0
    1.0050    0.0250   -0.1550 C   0  0  0  0  0  0  0  0  0  0  0  0
    0.7875   -0.4111   -1.1346 H   0  0  0  0  0  0  0  0  0  0  0  0
    1.8365    0.7224   -0.2842 H   0  0  0  0  0  0  0  0  0  0  0  0
    1.5131   -1.0634    0.7363 C   0  0  0  0  0  0  0  0  0  0  0  0
    2.1999   -0.7898    1.9121 N   0  0  0  0  0  0  0  0  0  0  0  0
    2.5323   -1.9554    2.4133 C   0  0  0  0  0  0  0  0  0  0  0  0
    3.0556   -2.0967    3.3544 H   0  0  0  0  0  0  0  0  0  0  0  0
    2.1397   -2.9731    1.5632 N   0  0  0  0  0  0  0  0  0  0  0  0
    2.2508   -3.9676    1.7477 H   0  0  0  0  0  0  0  0  0  0  0  0
    1.5064   -2.4064    0.4779 C   0  0  0  0  0  0  0  0  0  0  0  0
    1.0673   -2.9019   -0.3814 H   0  0  0  0  0  0  0  0  0  0  0  0
   -0.4826    1.9176   -0.7295 C   0  0  0  0  0  0  0  0  0  0  0  0
   -1.5544    1.9978   -1.3246 O   0  0  0  0  0  0  0  0  0  0  0  0
    0.5213    2.8150   -1.0514 N   0  0  0  0  0  0  0  0  0  0  0  0
    1.3877    2.7574   -0.5224 H   0  0  0  0  0  0  0  0  0  0  0  0
    0.3650    3.8826   -2.0319 C   0  0  0  0  0  0  0  0  0  0  0  0
   -0.4422    4.5605   -1.7351 H   0  0  0  0  0  0  0  0  0  0  0  0
    1.2907    4.4608   -2.1115 H   0  0  0  0  0  0  0  0  0  0  0  0
    0.1324    3.4662   -3.0177 H   0  0  0  0  0  0  0  0  0  0  0  0
  1  2  1  0  0  0  0
  2  3  1  0  0  0  0
  2  4  1  0  0  0  0
  2  5  1  0  0  0  0
  5  6  2  0  0  0  0
  5  7  1  0  0  0  0
  7  8  1  0  0  0  0
  7  9  1  0  0  0  0
  9 10  1  0  0  0  0
  9 11  1  0  0  0  0
  9 22  1  0  0  0  0
 11 12  1  0  0  0  0
 11 13  1  0  0  0  0
 11 14  1  0  0  0  0
 14 15  1  0  0  0  0
 14 20  2  0  0  0  0
 15 16  2  0  0  0  0
 16 17  1  0  0  0  0
 16 18  1  0  0  0  0
 18 19  1  0  0  0  0
 18 20  1  0  0  0  0
 20 21  1  0  0  0  0
 22 23  2  0  0  0  0
 22 24  1  0  0  0  0
 24 25  1  0  0  0  0
 24 26  1  0  0  0  0
 26 27  1  0  0  0  0
 26 28  1  0  0  0  0
 26 29  1  0  0  0  0
M  END
$$$$

  -OEChem-01062216083D

 29 29  0     1  0  0  0  0  0999 V2000
   -3.2066   -2.8402    1.1049 H   0  0  0  0  0  0  0  0  0  0  0  0
   -3.1257   -1.8615    0.6237 C   0  0  0  0  0  0  0  0  0  0  0  0
   -3.9380   -1.2247    0.9827 H   0  0  0  0  0  0  0  0  0  0  0  0
   -3.2236   -1.9918   -0.4566 H   0  0  0  0  0  0  0  0  0  0  0  0
   -1.7874   -1.2251    0.9512 C   0  0  0  0  0  0  0  0  0  0  0  0
   -1.0799   -1.7584    1.7834 O   0  0  0  0  0  0  0  0  0  0  0  0
   -1.4956    0.0054    0.3995 N   0  0  0  0  0  0  0  0  0  0  0  0
   -2.2428    0.3880   -0.1817 H   0  0  0  0  0  0  0  0  0  0  0  0
   -0.2353    0.7787    0.2974 C   0  0  1  0  0  0  0  0  0  0  0  0
   -0.0311    1.2388    1.2697 H   0  0  0  0  0  0  0  0  0  0  0  0
    1.0386    0.0019   -0.1537 C   0  0  0  0  0  0  0  0  0  0  0  0
    0.8397   -0.4385   -1.1351 H   0  0  0  0  0  0  0  0  0  0  0  0
    1.8735    0.6976   -0.2654 H   0  0  0  0  0  0  0  0  0  0  0  0
    1.5386   -1.0797    0.7507 C   0  0  0  0  0  0  0  0  0  0  0  0
    2.2094   -0.7973    1.9337 N   0  0  0  0  0  0  0  0  0  0  0  0
    2.5475   -1.9588    2.4409 C   0  0  0  0  0  0  0  0  0  0  0  0
    3.0598   -2.0934    3.3892 H   0  0  0  0  0  0  0  0  0  0  0  0
    2.1771   -2.9816    1.5874 N   0  0  0  0  0  0  0  0  0  0  0  0
    2.2950   -3.9745    1.7757 H   0  0  0  0  0  0  0  0  0  0  0  0
    1.5524   -2.4230    0.4932 C   0  0  0  0  0  0  0  0  0  0  0  0
    1.1293   -2.9244   -0.3707 H   0  0  0  0  0  0  0  0  0  0  0  0
   -0.4673    1.9044   -0.7512 C   0  0  0  0  0  0  0  0  0  0  0  0
   -1.6041    2.1311   -1.1585 O   0  0  0  0  0  0  0  0  0  0  0  0
    0.5768    2.6213   -1.3131 N   0  0  0  0  0  0  0  0  0  0  0  0
    1.5081    2.4606   -0.9393 H   0  0  0  0  0  0  0  0  0  0  0  0
    0.3910    3.6825   -2.2956 C   0  0  0  0  0  0  0  0  0  0  0  0
   -0.2375    4.4796   -1.8850 H   0  0  0  0  0  0  0  0  0  0  0  0
    1.3577    4.1137   -2.5731 H   0  0  0  0  0  0  0  0  0  0  0  0
   -0.0838    3.2887   -3.2003 H   0  0  0  0  0  0  0  0  0  0  0  0
  1  2  1  0  0  0  0
  2  3  1  0  0  0  0
  2  4  1  0  0  0  0
  2  5  1  0  0  0  0
  5  6  2  0  0  0  0
  5  7  1  0  0  0  0
  7  8  1  0  0  0  0
  7  9  1  0  0  0  0
  9 10  1  0  0  0  0
  9 11  1  0  0  0  0
  9 22  1  0  0  0  0
 11 12  1  0  0  0  0
 11 13  1  0  0  0  0
 11 14  1  0  0  0  0
 14 15  1  0  0  0  0
 14 20  2  0  0  0  0
 15 16  2  0  0  0  0
 16 17  1  0  0  0  0
 16 18  1  0  0  0  0
 18 19  1  0  0  0  0
 18 20  1  0  0  0  0
 20 21  1  0  0  0  0
 22 23  2  0  0  0  0
 22 24  1  0  0  0  0
 24 25  1  0  0  0  0
 24 26  1  0  0  0  0
 26 27  1  0  0  0  0
 26 28  1  0  0  0  0
 26 29  1  0  0  0  0
M  END
$$$$

  -OEChem-01062216083D

 29 29  0     1  0  0  0  0  0999 V2000
   -3.3201   -2.7765    1.0839 H   0  0  0  0  0  0  0  0  0  0  0  0
   -3.2013   -1.7964    0.6135 C   0  0  0  0  0  0  0  0  0  0  0  0
   -3.9536   -1.1172    1.0218 H   0  0  0  0  0  0  0  0  0  0  0  0
   -3.3603   -1.9017   -0.4623 H   0  0  0  0  0  0  0  0  0  0  0  0
   -1.8109   -1.2502    0.8822 C   0  0  0  0  0  0  0  0  0  0  0  0
   -1.0792   -1.8752    1.6234 O   0  0  0  0  0  0  0  0  0  0  0  0
   -1.4866   -0.0148    0.3596 N   0  0  0  0  0  0  0  0  0  0  0  0
   -2.2555    0.4400   -0.1346 H   0  0  0  0  0  0  0  0  0  0  0  0
   -0.2178    0.7474    0.2736 C   0  0  1  0  0  0  0  0  0  0  0  0
   -0.0275    1.2017    1.2515 H   0  0  0  0  0  0  0  0  0  0  0  0
    1.0729   -0.0178   -0.1468 C   0  0  0  0  0  0  0  0  0  0  0  0
    0.9023   -0.4608   -1.1322 H   0  0  0  0  0  0  0  0  0  0  0  0
    1.9005    0.6903   -0.2350 H   0  0  0  0  0  0  0  0  0  0  0  0
    1.5685   -1.0921    0.7697 C   0  0  0  0  0  0  0  0  0  0  0  0
    2.2129   -0.7992    1.9651 N   0  0  0  0  0  0  0  0  0  0  0  0
    2.5708   -1.9538    2.4744 C   0  0  0  0  0  0  0  0  0  0  0  0
    3.0716   -2.0789    3.4301 H   0  0  0  0  0  0  0  0  0  0  0  0
    2.2385   -2.9820    1.6119 N   0  0  0  0  0  0  0  0  0  0  0  0
    2.3770   -3.9727    1.7977 H   0  0  0  0  0  0  0  0  0  0  0  0
    1.6213   -2.4336    0.5082 C   0  0  0  0  0  0  0  0  0  0  0  0
    1.2274   -2.9416   -0.3656 H   0  0  0  0  0  0  0  0  0  0  0  0
   -0.4562    1.8887   -0.7582 C   0  0  0  0  0  0  0  0  0  0  0  0
   -1.6027    2.2791   -0.9631 O   0  0  0  0  0  0  0  0  0  0  0  0
    0.5516    2.4178   -1.5494 N   0  0  0  0  0  0  0  0  0  0  0  0
    1.5017    2.1083   -1.3671 H   0  0  0  0  0  0  0  0  0  0  0  0
    0.3333    3.4538   -2.5522 C   0  0  0  0  0  0  0  0  0  0  0  0
   -0.0718    4.3588   -2.0873 H   0  0  0  0  0  0  0  0  0  0  0  0
    1.2775    3.7095   -3.0427 H   0  0  0  0  0  0  0  0  0  0  0  0
   -0.3688    3.1051   -3.3169 H   0  0  0  0  0  0  0  0  0  0  0  0
  1  2  1  0  0  0  0
  2  3  1  0  0  0  0
  2  4  1  0  0  0  0
  2  5  1  0  0  0  0
  5  6  2  0  0  0  0
  5  7  1  0  0  0  0
  7  8  1  0  0  0  0
  7  9  1  0  0  0  0
  9 10  1  0  0  0  0
  9 11  1  0  0  0  0
  9 22  1  0  0  0  0
 11 12  1  0  0  0  0
 11 13  1  0  0  0  0
 11 14  1  0  0  0  0
 14 15  1  0  0  0  0
 14 20  2  0  0  0  0
 15 16  2  0  0  0  0
 16 17  1  0  0  0  0
 16 18  1  0  0  0  0
 18 19  1  0  0  0  0
 18 20  1  0  0  0  0
 20 21  1  0  0  0  0
 22 23  2  0  0  0  0
 22 24  1  0  0  0  0
 24 25  1  0  0  0  0
 24 26  1  0  0  0  0
 26 27  1  0  0  0  0
 26 28  1  0  0  0  0
 26 29  1  0  0  0  0
M  END
$$$$

  -OEChem-01062216083D

 29 29  0     1  0  0  0  0  0999 V2000
   -3.3884   -2.7376    1.0757 H   0  0  0  0  0  0  0  0  0  0  0  0
   -3.2535   -1.7516    0.6218 C   0  0  0  0  0  0  0  0  0  0  0  0
   -3.9538   -1.0527    1.0858 H   0  0  0  0  0  0  0  0  0  0  0  0
   -3.4738   -1.8230   -0.4459 H   0  0  0  0  0  0  0  0  0  0  0  0
   -1.8287   -1.2698    0.8260 C   0  0  0  0  0  0  0  0  0  0  0  0
   -1.0781   -1.9602    1.4848 O   0  0  0  0  0  0  0  0  0  0  0  0
   -1.4862   -0.0324    0.3194 N   0  0  0  0  0  0  0  0  0  0  0  0
   -2.2692    0.4720   -0.0975 H   0  0  0  0  0  0  0  0  0  0  0  0
   -0.2099    0.7177    0.2411 C   0  0  1  0  0  0  0  0  0  0  0  0
   -0.0301    1.1700    1.2221 H   0  0  0  0  0  0  0  0  0  0  0  0
    1.0944   -0.0367   -0.1537 C   0  0  0  0  0  0  0  0  0  0  0  0
    0.9436   -0.4923   -1.1367 H   0  0  0  0  0  0  0  0  0  0  0  0
    1.9116    0.6854   -0.2363 H   0  0  0  0  0  0  0  0  0  0  0  0
    1.5866   -1.1002    0.7779 C   0  0  0  0  0  0  0  0  0  0  0  0
    2.2087   -0.7929    1.9814 N   0  0  0  0  0  0  0  0  0  0  0  0
    2.5813   -1.9390    2.4992 C   0  0  0  0  0  0  0  0  0  0  0  0
    3.0714   -2.0527    3.4618 H   0  0  0  0  0  0  0  0  0  0  0  0
    2.2803   -2.9752    1.6352 N   0  0  0  0  0  0  0  0  0  0  0  0
    2.4344   -3.9627    1.8257 H   0  0  0  0  0  0  0  0  0  0  0  0
    1.6708   -2.4410    0.5205 C   0  0  0  0  0  0  0  0  0  0  0  0
    1.3011   -2.9585   -0.3582 H   0  0  0  0  0  0  0  0  0  0  0  0
   -0.4470    1.8679   -0.7778 C   0  0  0  0  0  0  0  0  0  0  0  0
   -1.5435    2.4189   -0.7958 O   0  0  0  0  0  0  0  0  0  0  0  0
    0.4562    2.2029   -1.7749 N   0  0  0  0  0  0  0  0  0  0  0  0
    1.3580    1.7359   -1.7672 H   0  0  0  0  0  0  0  0  0  0  0  0
    0.2094    3.2343   -2.7759 C   0  0  0  0  0  0  0  0  0  0  0  0
    0.0136    4.1979   -2.2937 H   0  0  0  0  0  0  0  0  0  0  0  0
    1.0818    3.3457   -3.4269 H   0  0  0  0  0  0  0  0  0  0  0  0
   -0.6529    2.9679   -3.3961 H   0  0  0  0  0  0  0  0  0  0  0  0
  1  2  1  0  0  0  0
  2  3  1  0  0  0  0
  2  4  1  0  0  0  0
  2  5  1  0  0  0  0
  5  6  2  0  0  0  0
  5  7  1  0  0  0  0
  7  8  1  0  0  0  0
  7  9  1  0  0  0  0
  9 10  1  0  0  0  0
  9 11  1  0  0  0  0
  9 22  1  0  0  0  0
 11 12  1  0  0  0  0
 11 13  1  0  0  0  0
 11 14  1  0  0  0  0
 14 15  1  0  0  0  0
 14 20  2  0  0  0  0
 15 16  2  0  0  0  0
 16 17  1  0  0  0  0
 16 18  1  0  0  0  0
 18 19  1  0  0  0  0
 18 20  1  0  0  0  0
 20 21  1  0  0  0  0
 22 23  2  0  0  0  0
 22 24  1  0  0  0  0
 24 25  1  0  0  0  0
 24 26  1  0  0  0  0
 26 27  1  0  0  0  0
 26 28  1  0  0  0  0
 26 29  1  0  0  0  0
M  END
$$$$

  -OEChem-01062216083D

 29 29  0     1  0  0  0  0  0999 V2000
   -3.4599   -2.6935    1.1092 H   0  0  0  0  0  0  0  0  0  0  0  0
   -3.3079   -1.7144    0.6461 C   0  0  0  0  0  0  0  0  0  0  0  0
   -3.9412   -0.9840    1.1553 H   0  0  0  0  0  0  0  0  0  0  0  0
   -3.6023   -1.7725   -0.4044 H   0  0  0  0  0  0  0  0  0  0  0  0
   -1.8512   -1.3020    0.7548 C   0  0  0  0  0  0  0  0  0  0  0  0
   -1.0791   -2.0658    1.2959 O   0  0  0  0  0  0  0  0  0  0  0  0
   -1.4967   -0.0596    0.2689 N   0  0  0  0  0  0  0  0  0  0  0  0
   -2.2913    0.4886   -0.0591 H   0  0  0  0  0  0  0  0  0  0  0  0
   -0.2155    0.6823    0.2014 C   0  0  1  0  0  0  0  0  0  0  0  0
   -0.0501    1.1270    1.1886 H   0  0  0  0  0  0  0  0  0  0  0  0
    1.1055   -0.0535   -0.1667 C   0  0  0  0  0  0  0  0  0  0  0  0
    0.9735   -0.5251   -1.1445 H   0  0  0  0  0  0  0  0  0  0  0  0
    1.9084    0.6849   -0.2511 H   0  0  0  0  0  0  0  0  0  0  0  0
    1.5981   -1.1049    0.7802 C   0  0  0  0  0  0  0  0  0  0  0  0
    2.1941   -0.7779    1.9918 N   0  0  0  0  0  0  0  0  0  0  0  0
    2.5893   -1.9112    2.5207 C   0  0  0  0  0  0  0  0  0  0  0  0
    3.0688   -2.0072    3.4906 H   0  0  0  0  0  0  0  0  0  0  0  0
    2.3264   -2.9587    1.6585 N   0  0  0  0  0  0  0  0  0  0  0  0
    2.5063   -3.9408    1.8540 H   0  0  0  0  0  0  0  0  0  0  0  0
    1.7208   -2.4448    0.5322 C   0  0  0  0  0  0  0  0  0  0  0  0
    1.3774   -2.9754   -0.3495 H   0  0  0  0  0  0  0  0  0  0  0  0
   -0.4423    1.8468   -0.7966 C   0  0  0  0  0  0  0  0  0  0  0  0
   -1.4322    2.5548   -0.6487 O   0  0  0  0  0  0  0  0  0  0  0  0
    0.2976    2.0023   -1.9583 N   0  0  0  0  0  0  0  0  0  0  0  0
    1.0897    1.3819   -2.0963 H   0  0  0  0  0  0  0  0  0  0  0  0
    0.0286    3.0325   -2.9546 C   0  0  0  0  0  0  0  0  0  0  0  0
    0.0719    4.0275   -2.4991 H   0  0  0  0  0  0  0  0  0  0  0  0
    0.7729    2.9874   -3.7553 H   0  0  0  0  0  0  0  0  0  0  0  0
   -0.9634    2.8892   -3.3956 H   0  0  0  0  0  0  0  0  0  0  0  0
  1  2  1  0  0  0  0
  2  3  1  0  0  0  0
  2  4  1  0  0  0  0
  2  5  1  0  0  0  0
  5  6  2  0  0  0  0
  5  7  1  0  0  0  0
  7  8  1  0  0  0  0
  7  9  1  0  0  0  0
  9 10  1  0  0  0  0
  9 11  1  0  0  0  0
  9 22  1  0  0  0  0
 11 12  1  0  0  0  0
 11 13  1  0  0  0  0
 11 14  1  0  0  0  0
 14 15  1  0  0  0  0
 14 20  2  0  0  0  0
 15 16  2  0  0  0  0
 16 17  1  0  0  0  0
 16 18  1  0  0  0  0
 18 19  1  0  0  0  0
 18 20  1  0  0  0  0
 20 21  1  0  0  0  0
 22 23  2  0  0  0  0
 22 24  1  0  0  0  0
 24 25  1  0  0  0  0
 24 26  1  0  0  0  0
 26 27  1  0  0  0  0
 26 28  1  0  0  0  0
 26 29  1  0  0  0  0
M  END
$$$$

  -OEChem-01062216083D

 29 29  0     1  0  0  0  0  0999 V2000
   -3.4934   -2.6801    1.1449 H   0  0  0  0  0  0  0  0  0  0  0  0
   -3.3460   -1.6949    0.6932 C   0  0  0  0  0  0  0  0  0  0  0  0
   -3.9093   -0.9578    1.2706 H   0  0  0  0  0  0  0  0  0  0  0  0
   -3.7275   -1.7163   -0.3304 H   0  0  0  0  0  0  0  0  0  0  0  0
   -1.8718   -1.3338    0.6897 C   0  0  0  0  0  0  0  0  0  0  0  0
   -1.0807   -2.1592    1.0943 O   0  0  0  0  0  0  0  0  0  0  0  0
   -1.5165   -0.0856    0.2189 N   0  0  0  0  0  0  0  0  0  0  0  0
   -2.3200    0.4947   -0.0167 H   0  0  0  0  0  0  0  0  0  0  0  0
   -0.2323    0.6522    0.1634 C   0  0  1  0  0  0  0  0  0  0  0  0
   -0.0830    1.0892    1.1568 H   0  0  0  0  0  0  0  0  0  0  0  0
    1.1054   -0.0636   -0.1795 C   0  0  0  0  0  0  0  0  0  0  0  0
    0.9969   -0.5458   -1.1545 H   0  0  0  0  0  0  0  0  0  0  0  0
    1.8951    0.6896   -0.2624 H   0  0  0  0  0  0  0  0  0  0  0  0
    1.5983   -1.1040    0.7813 C   0  0  0  0  0  0  0  0  0  0  0  0
    2.1686   -0.7633    2.0022 N   0  0  0  0  0  0  0  0  0  0  0  0
    2.5855   -1.8860    2.5370 C   0  0  0  0  0  0  0  0  0  0  0  0
    3.0554   -1.9698    3.5127 H   0  0  0  0  0  0  0  0  0  0  0  0
    2.3591   -2.9398    1.6724 N   0  0  0  0  0  0  0  0  0  0  0  0
    2.5649   -3.9169    1.8679 H   0  0  0  0  0  0  0  0  0  0  0  0
    1.7595   -2.4404    0.5366 C   0  0  0  0  0  0  0  0  0  0  0  0
    1.4442   -2.9786   -0.3510 H   0  0  0  0  0  0  0  0  0  0  0  0
   -0.4430    1.8286   -0.8178 C   0  0  0  0  0  0  0  0  0  0  0  0
   -1.2722    2.6841   -0.5340 O   0  0  0  0  0  0  0  0  0  0  0  0
    0.0828    1.8272   -2.0995 N   0  0  0  0  0  0  0  0  0  0  0  0
    0.7138    1.0708   -2.3462 H   0  0  0  0  0  0  0  0  0  0  0  0
   -0.2007    2.8598   -3.0891 C   0  0  0  0  0  0  0  0  0  0  0  0
    0.0924    3.8447   -2.7104 H   0  0  0  0  0  0  0  0  0  0  0  0
    0.3579    2.6643   -4.0095 H   0  0  0  0  0  0  0  0  0  0  0  0
   -1.2688    2.8779   -3.3295 H   0  0  0  0  0  0  0  0  0  0  0  0
  1  2  1  0  0  0  0
  2  3  1  0  0  0  0
  2  4  1  0  0  0  0
  2  5  1  0  0  0  0
  5  6  2  0  0  0  0
  5  7  1  0  0  0  0
  7  8  1  0  0  0  0
  7  9  1  0  0  0  0
  9 10  1  0  0  0  0
  9 11  1  0  0  0  0
  9 22  1  0  0  0  0
 11 12  1  0  0  0  0
 11 13  1  0  0  0  0
 11 14  1  0  0  0  0
 14 15  1  0  0  0  0
 14 20  2  0  0  0  0
 15 16  2  0  0  0  0
 16 17  1  0  0  0  0
 16 18  1  0  0  0  0
 18 19  1  0  0  0  0
 18 20  1  0  0  0  0
 20 21  1  0  0  0  0
 22 23  2  0  0  0  0
 22 24  1  0  0  0  0
 24 25  1  0  0  0  0
 24 26  1  0  0  0  0
 26 27  1  0  0  0  0
 26 28  1  0  0  0  0
 26 29  1  0  0  0  0
M  END
$$$$

  -OEChem-01062216083D

 29 29  0     1  0  0  0  0  0999 V2000
   -3.4941   -2.6883    1.1718 H   0  0  0  0  0  0  0  0  0  0  0  0
   -3.3567   -1.6995    0.7247 C   0  0  0  0  0  0  0  0  0  0  0  0
   -3.9047   -0.9664    1.3217 H   0  0  0  0  0  0  0  0  0  0  0  0
   -3.7638   -1.7125   -0.2891 H   0  0  0  0  0  0  0  0  0  0  0  0
   -1.8825   -1.3402    0.6880 C   0  0  0  0  0  0  0  0  0  0  0  0
   -1.0832   -2.1697    1.0668 O   0  0  0  0  0  0  0  0  0  0  0  0
   -1.5357   -0.0921    0.2096 N   0  0  0  0  0  0  0  0  0  0  0  0
   -2.3448    0.4874   -0.0041 H   0  0  0  0  0  0  0  0  0  0  0  0
   -0.2522    0.6479    0.1570 C   0  0  1  0  0  0  0  0  0  0  0  0
   -0.1071    1.0849    1.1514 H   0  0  0  0  0  0  0  0  0  0  0  0
    1.0904   -0.0574   -0.1841 C   0  0  0  0  0  0  0  0  0  0  0  0
    0.9906   -0.5371   -1.1609 H   0  0  0  0  0  0  0  0  0  0  0  0
    1.8736    0.7028   -0.2640 H   0  0  0  0  0  0  0  0  0  0  0  0
    1.5891   -1.0970    0.7747 C   0  0  0  0  0  0  0  0  0  0  0  0
    2.1547   -0.7578    1.9981 N   0  0  0  0  0  0  0  0  0  0  0  0
    2.5844   -1.8788    2.5261 C   0  0  0  0  0  0  0  0  0  0  0  0
    3.0552   -1.9630    3.5012 H   0  0  0  0  0  0  0  0  0  0  0  0
    2.3695   -2.9301    1.6557 N   0  0  0  0  0  0  0  0  0  0  0  0
    2.5881   -3.9056    1.8445 H   0  0  0  0  0  0  0  0  0  0  0  0
    1.7643   -2.4304    0.5231 C   0  0  0  0  0  0  0  0  0  0  0  0
    1.4573   -2.9662   -0.3688 H   0  0  0  0  0  0  0  0  0  0  0  0
   -0.4489    1.8197   -0.8287 C   0  0  0  0  0  0  0  0  0  0  0  0
   -1.0523    2.8159   -0.4540 O   0  0  0  0  0  0  0  0  0  0  0  0
   -0.1798    1.6817   -2.1803 N   0  0  0  0  0  0  0  0  0  0  0  0
    0.2396    0.8092   -2.4872 H   0  0  0  0  0  0  0  0  0  0  0  0
   -0.4709    2.7121   -3.1701 C   0  0  0  0  0  0  0  0  0  0  0  0
    0.0435    3.6446   -2.9149 H   0  0  0  0  0  0  0  0  0  0  0  0
   -0.1325    2.3918   -4.1602 H   0  0  0  0  0  0  0  0  0  0  0  0
   -1.5477    2.9047   -3.2180 H   0  0  0  0  0  0  0  0  0  0  0  0
  1  2  1  0  0  0  0
  2  3  1  0  0  0  0
  2  4  1  0  0  0  0
  2  5  1  0  0  0  0
  5  6  2  0  0  0  0
  5  7  1  0  0  0  0
  7  8  1  0  0  0  0
  7  9  1  0  0  0  0
  9 10  1  0  0  0  0
  9 11  1  0  0  0  0
  9 22  1  0  0  0  0
 11 12  1  0  0  0  0
 11 13  1  0  0  0  0
 11 14  1  0  0  0  0
 14 15  1  0  0  0  0
 14 20  2  0  0  0  0
 15 16  2  0  0  0  0
 16 17  1  0  0  0  0
 16 18  1  0  0  0  0
 18 19  1  0  0  0  0
 18 20  1  0  0  0  0
 20 21  1  0  0  0  0
 22 23  2  0  0  0  0
 22 24  1  0  0  0  0
 24 25  1  0  0  0  0
 24 26  1  0  0  0  0
 26 27  1  0  0  0  0
 26 28  1  0  0  0  0
 26 29  1  0  0  0  0
M  END
$$$$

  -OEChem-01062216083D

 29 29  0     1  0  0  0  0  0999 V2000
   -3.4834   -2.7112    1.2046 H   0  0  0  0  0  0  0  0  0  0  0  0
   -3.3567   -1.7277    0.7429 C   0  0  0  0  0  0  0  0  0  0  0  0
   -3.9387   -0.9977    1.3109 H   0  0  0  0  0  0  0  0  0  0  0  0
   -3.7345   -1.7693   -0.2815 H   0  0  0  0  0  0  0  0  0  0  0  0
   -1.8906   -1.3341    0.7403 C   0  0  0  0  0  0  0  0  0  0  0  0
   -1.0855   -2.1304    1.1738 O   0  0  0  0  0  0  0  0  0  0  0  0
   -1.5583   -0.0903    0.2397 N   0  0  0  0  0  0  0  0  0  0  0  0
   -2.3736    0.4653   -0.0080 H   0  0  0  0  0  0  0  0  0  0  0  0
   -0.2793    0.6588    0.1755 C   0  0  1  0  0  0  0  0  0  0  0  0
   -0.1262    1.1020    1.1660 H   0  0  0  0  0  0  0  0  0  0  0  0
    1.0607   -0.0390   -0.1884 C   0  0  0  0  0  0  0  0  0  0  0  0
    0.9528   -0.5083   -1.1695 H   0  0  0  0  0  0  0  0  0  0  0  0
    1.8392    0.7258   -0.2715 H   0  0  0  0  0  0  0  0  0  0  0  0
    1.5763   -1.0828    0.7559 C   0  0  0  0  0  0  0  0  0  0  0  0
    2.1575   -0.7503    1.9737 N   0  0  0  0  0  0  0  0  0  0  0  0
    2.5947   -1.8735    2.4900 C   0  0  0  0  0  0  0  0  0  0  0  0
    3.0791   -1.9620    3.4580 H   0  0  0  0  0  0  0  0  0  0  0  0
    2.3677   -2.9203    1.6170 N   0  0  0  0  0  0  0  0  0  0  0  0
    2.5889   -3.8967    1.7983 H   0  0  0  0  0  0  0  0  0  0  0  0
    1.7459   -2.4154    0.4955 C   0  0  0  0  0  0  0  0  0  0  0  0
    1.4276   -2.9476   -0.3944 H   0  0  0  0  0  0  0  0  0  0  0  0
   -0.4746    1.8151   -0.8265 C   0  0  0  0  0  0  0  0  0  0  0  0
   -0.7779    2.9281   -0.4214 O   0  0  0  0  0  0  0  0  0  0  0  0
   -0.4981    1.5725   -2.1895 N   0  0  0  0  0  0  0  0  0  0  0  0
   -0.3006    0.6252   -2.4984 H   0  0  0  0  0  0  0  0  0  0  0  0
   -0.7527    2.6048   -3.1870 C   0  0  0  0  0  0  0  0  0  0  0  0
   -0.0145    3.4094   -3.1022 H   0  0  0  0  0  0  0  0  0  0  0  0
   -0.6876    2.1818   -4.1940 H   0  0  0  0  0  0  0  0  0  0  0  0
   -1.7535    3.0286   -3.0534 H   0  0  0  0  0  0  0  0  0  0  0  0
  1  2  1  0  0  0  0
  2  3  1  0  0  0  0
  2  4  1  0  0  0  0
  2  5  1  0  0  0  0
  5  6  2  0  0  0  0
  5  7  1  0  0  0  0
  7  8  1  0  0  0  0
  7  9  1  0  0  0  0
  9 10  1  0  0  0  0
  9 11  1  0  0  0  0
  9 22  1  0  0  0  0
 11 12  1  0  0  0  0
 11 13  1  0  0  0  0
 11 14  1  0  0  0  0
 14 15  1  0  0  0  0
 14 20  2  0  0  0  0
 15 16  2  0  0  0  0
 16 17  1  0  0  0  0
 16 18  1  0  0  0  0
 18 19  1  0  0  0  0
 18 20  1  0  0  0  0
 20 21  1  0  0  0  0
 22 23  2  0  0  0  0
 22 24  1  0  0  0  0
 24 25  1  0  0  0  0
 24 26  1  0  0  0  0
 26 27  1  0  0  0  0
 26 28  1  0  0  0  0
 26 29  1  0  0  0  0
M  END
$$$$

  -OEChem-01062216083D

 29 29  0     1  0  0  0  0  0999 V2000
   -3.4470   -2.7296    1.2725 H   0  0  0  0  0  0  0  0  0  0  0  0
   -3.3280   -1.7758    0.7501 C   0  0  0  0  0  0  0  0  0  0  0  0
   -3.9819   -1.0369    1.2197 H   0  0  0  0  0  0  0  0  0  0  0  0
   -3.6252   -1.9072   -0.2930 H   0  0  0  0  0  0  0  0  0  0  0  0
   -1.8841   -1.3134    0.8242 C   0  0  0  0  0  0  0  0  0  0  0  0
   -1.0805   -2.0381    1.3711 O   0  0  0  0  0  0  0  0  0  0  0  0
   -1.5747   -0.0748    0.2956 N   0  0  0  0  0  0  0  0  0  0  0  0
   -2.3927    0.4356   -0.0268 H   0  0  0  0  0  0  0  0  0  0  0  0
   -0.3044    0.6905    0.2188 C   0  0  1  0  0  0  0  0  0  0  0  0
   -0.1396    1.1429    1.2035 H   0  0  0  0  0  0  0  0  0  0  0  0
    1.0269   -0.0026   -0.1826 C   0  0  0  0  0  0  0  0  0  0  0  0
    0.8997   -0.4542   -1.1698 H   0  0  0  0  0  0  0  0  0  0  0  0
    1.8044    0.7633   -0.2692 H   0  0  0  0  0  0  0  0  0  0  0  0
    1.5610   -1.0594    0.7355 C   0  0  0  0  0  0  0  0  0  0  0  0
    2.1690   -0.7519    1.9463 N   0  0  0  0  0  0  0  0  0  0  0  0
    2.5946   -1.8892    2.4406 C   0  0  0  0  0  0  0  0  0  0  0  0
    3.0932   -1.9989    3.3992 H   0  0  0  0  0  0  0  0  0  0  0  0
    2.3347   -2.9207    1.5584 N   0  0  0  0  0  0  0  0  0  0  0  0
    2.5389   -3.9032    1.7257 H   0  0  0  0  0  0  0  0  0  0  0  0
    1.7017   -2.3912    0.4546 C   0  0  0  0  0  0  0  0  0  0  0  0
    1.3571   -2.9070   -0.4350 H   0  0  0  0  0  0  0  0  0  0  0  0
   -0.5071    1.8250   -0.8059 C   0  0  0  0  0  0  0  0  0  0  0  0
   -0.4866    2.9939   -0.4495 O   0  0  0  0  0  0  0  0  0  0  0  0
   -0.8295    1.5271   -2.1191 N   0  0  0  0  0  0  0  0  0  0  0  0
   -0.8185    0.5479   -2.3892 H   0  0  0  0  0  0  0  0  0  0  0  0
   -1.0454    2.5427   -3.1428 C   0  0  0  0  0  0  0  0  0  0  0  0
   -0.1346    3.1310   -3.2962 H   0  0  0  0  0  0  0  0  0  0  0  0
   -1.3175    2.0713   -4.0920 H   0  0  0  0  0  0  0  0  0  0  0  0
   -1.8556    3.2184   -2.8492 H   0  0  0  0  0  0  0  0  0  0  0  0
  1  2  1  0  0  0  0
  2  3  1  0  0  0  0
  2  4  1  0  0  0  0
  2  5  1  0  0  0  0
  5  6  2  0  0  0  0
  5  7  1  0  0  0  0
  7  8  1  0  0  0  0
  7  9  1  0  0  0  0
  9 10  1  0  0  0  0
  9 11  1  0  0  0  0
  9 22  1  0  0  0  0
 11 12  1  0  0  0  0
 11 13  1  0  0  0  0
 11 14  1  0  0  0  0
 14 15  1  0  0  0  0
 14 20  2  0  0  0  0
 15 16  2  0  0  0  0
 16 17  1  0  0  0  0
 16 18  1  0  0  0  0
 18 19  1  0  0  0  0
 18 20  1  0  0  0  0
 20 21  1  0  0  0  0
 22 23  2  0  0  0  0
 22 24  1  0  0  0  0
 24 25  1  0  0  0  0
 24 26  1  0  0  0  0
 26 27  1  0  0  0  0
 26 28  1  0  0  0  0
 26 29  1  0  0  0  0
M  END
$$$$

  -OEChem-01062216083D

 29 29  0     1  0  0  0  0  0999 V2000
   -3.4031   -2.7773    1.2920 H   0  0  0  0  0  0  0  0  0  0  0  0
   -3.3061   -1.8165    0.7779 C   0  0  0  0  0  0  0  0  0  0  0  0
   -3.9988   -1.1048    1.2340 H   0  0  0  0  0  0  0  0  0  0  0  0
   -3.5713   -1.9531   -0.2731 H   0  0  0  0  0  0  0  0  0  0  0  0
   -1.8824   -1.3024    0.8917 C   0  0  0  0  0  0  0  0  0  0  0  0
   -1.0786   -1.9773    1.4991 O   0  0  0  0  0  0  0  0  0  0  0  0
   -1.5953   -0.0663    0.3440 N   0  0  0  0  0  0  0  0  0  0  0  0
   -2.4181    0.4173   -0.0058 H   0  0  0  0  0  0  0  0  0  0  0  0
   -0.3339    0.7148    0.2568 C   0  0  1  0  0  0  0  0  0  0  0  0
   -0.1590    1.1724    1.2370 H   0  0  0  0  0  0  0  0  0  0  0  0
    0.9887    0.0235   -0.1751 C   0  0  0  0  0  0  0  0  0  0  0  0
    0.8424   -0.4151   -1.1658 H   0  0  0  0  0  0  0  0  0  0  0  0
    1.7664    0.7888   -0.2666 H   0  0  0  0  0  0  0  0  0  0  0  0
    1.5383   -1.0430    0.7219 C   0  0  0  0  0  0  0  0  0  0  0  0
    2.1698   -0.7529    1.9248 N   0  0  0  0  0  0  0  0  0  0  0  0
    2.5947   -1.8989    2.3990 C   0  0  0  0  0  0  0  0  0  0  0  0
    3.1083   -2.0230    3.3479 H   0  0  0  0  0  0  0  0  0  0  0  0
    2.3123   -2.9188    1.5098 N   0  0  0  0  0  0  0  0  0  0  0  0
    2.5157   -3.9040    1.6616 H   0  0  0  0  0  0  0  0  0  0  0  0
    1.6617   -2.3730    0.4244 C   0  0  0  0  0  0  0  0  0  0  0  0
    1.2966   -2.8762   -0.4640 H   0  0  0  0  0  0  0  0  0  0  0  0
   -0.5393    1.8375   -0.7813 C   0  0  0  0  0  0  0  0  0  0  0  0
   -0.2150    2.9883   -0.5288 O   0  0  0  0  0  0  0  0  0  0  0  0
   -1.1475    1.5571   -1.9941 N   0  0  0  0  0  0  0  0  0  0  0  0
   -1.3010    0.5775   -2.2146 H   0  0  0  0  0  0  0  0  0  0  0  0
   -1.3145    2.5500   -3.0489 C   0  0  0  0  0  0  0  0  0  0  0  0
   -0.3400    2.9199   -3.3848 H   0  0  0  0  0  0  0  0  0  0  0  0
   -1.8321    2.1087   -3.9061 H   0  0  0  0  0  0  0  0  0  0  0  0
   -1.9071    3.3972   -2.6880 H   0  0  0  0  0  0  0  0  0  0  0  0
  1  2  1  0  0  0  0
  2  3  1  0  0  0  0
  2  4  1  0  0  0  0
  2  5  1  0  0  0  0
  5  6  2  0  0  0  0
  5  7  1  0  0  0  0
  7  8  1  0  0  0  0
  7  9  1  0  0  0  0
  9 10  1  0  0  0  0
  9 11  1  0  0  0  0
  9 22  1  0  0  0  0
 11 12  1  0  0  0  0
 11 13  1  0  0  0  0
 11 14  1  0  0  0  0
 14 15  1  0  0  0  0
 14 20  2  0  0  0  0
 15 16  2  0  0  0  0
 16 17  1  0  0  0  0
 16 18  1  0  0  0  0
 18 19  1  0  0  0  0
 18 20  1  0  0  0  0
 20 21  1  0  0  0  0
 22 23  2  0  0  0  0
 22 24  1  0  0  0  0
 24 25  1  0  0  0  0
 24 26  1  0  0  0  0
 26 27  1  0  0  0  0
 26 28  1  0  0  0  0
 26 29  1  0  0  0  0
M  END
$$$$

  -OEChem-01062216083D

 29 29  0     1  0  0  0  0  0999 V2000
   -3.4060   -2.7940    1.3175 H   0  0  0  0  0  0  0  0  0  0  0  0
   -3.3142   -1.8316    0.8056 C   0  0  0  0  0  0  0  0  0  0  0  0
   -3.9970   -1.1195    1.2757 H   0  0  0  0  0  0  0  0  0  0  0  0
   -3.5970   -1.9632   -0.2414 H   0  0  0  0  0  0  0  0  0  0  0  0
   -1.8869   -1.3232    0.8984 C   0  0  0  0  0  0  0  0  0  0  0  0
   -1.0766   -2.0038    1.4898 O   0  0  0  0  0  0  0  0  0  0  0  0
   -1.6065   -0.0849    0.3516 N   0  0  0  0  0  0  0  0  0  0  0  0
   -2.4388    0.4095    0.0426 H   0  0  0  0  0  0  0  0  0  0  0  0
   -0.3500    0.7066    0.2625 C   0  0  1  0  0  0  0  0  0  0  0  0
   -0.1762    1.1632    1.2431 H   0  0  0  0  0  0  0  0  0  0  0  0
    0.9742    0.0185   -0.1709 C   0  0  0  0  0  0  0  0  0  0  0  0
    0.8250   -0.4201   -1.1613 H   0  0  0  0  0  0  0  0  0  0  0  0
    1.7505    0.7847   -0.2662 H   0  0  0  0  0  0  0  0  0  0  0  0
    1.5314   -1.0451    0.7252 C   0  0  0  0  0  0  0  0  0  0  0  0
    2.1658   -0.7506    1.9258 N   0  0  0  0  0  0  0  0  0  0  0  0
    2.6049   -1.8925    2.3965 C   0  0  0  0  0  0  0  0  0  0  0  0
    3.1258   -2.0119    3.3418 H   0  0  0  0  0  0  0  0  0  0  0  0
    2.3262   -2.9147    1.5090 N   0  0  0  0  0  0  0  0  0  0  0  0
    2.5408   -3.8978    1.6585 H   0  0  0  0  0  0  0  0  0  0  0  0
    1.6651   -2.3741    0.4269 C   0  0  0  0  0  0  0  0  0  0  0  0
    1.3015   -2.8796   -0.4609 H   0  0  0  0  0  0  0  0  0  0  0  0
   -0.5501    1.8350   -0.7740 C   0  0  0  0  0  0  0  0  0  0  0  0
    0.0056    2.9147   -0.6342 O   0  0  0  0  0  0  0  0  0  0  0  0
   -1.4103    1.6562   -1.8460 N   0  0  0  0  0  0  0  0  0  0  0  0
   -1.7126    0.7042   -2.0291 H   0  0  0  0  0  0  0  0  0  0  0  0
   -1.5871    2.6570   -2.8921 C   0  0  0  0  0  0  0  0  0  0  0  0
   -0.6452    2.8245   -3.4252 H   0  0  0  0  0  0  0  0  0  0  0  0
   -2.3398    2.3224   -3.6125 H   0  0  0  0  0  0  0  0  0  0  0  0
   -1.9217    3.6072   -2.4620 H   0  0  0  0  0  0  0  0  0  0  0  0
  1  2  1  0  0  0  0
  2  3  1  0  0  0  0
  2  4  1  0  0  0  0
  2  5  1  0  0  0  0
  5  6  2  0  0  0  0
  5  7  1  0  0  0  0
  7  8  1  0  0  0  0
  7  9  1  0  0  0  0
  9 10  1  0  0  0  0
  9 11  1  0  0  0  0
  9 22  1  0  0  0  0
 11 12  1  0  0  0  0
 11 13  1  0  0  0  0
 11 14  1  0  0  0  0
 14 15  1  0  0  0  0
 14 20  2  0  0  0  0
 15 16  2  0  0  0  0
 16 17  1  0  0  0  0
 16 18  1  0  0  0  0
 18 19  1  0  0  0  0
 18 20  1  0  0  0  0
 20 21  1  0  0  0  0
 22 23  2  0  0  0  0
 22 24  1  0  0  0  0
 24 25  1  0  0  0  0
 24 26  1  0  0  0  0
 26 27  1  0  0  0  0
 26 28  1  0  0  0  0
 26 29  1  0  0  0  0
M  END
$$$$

  -OEChem-01062216083D

 29 29  0     1  0  0  0  0  0999 V2000
   -3.4261   -2.8020    1.3344 H   0  0  0  0  0  0  0  0  0  0  0  0
   -3.3346   -1.8326    0.8359 C   0  0  0  0  0  0  0  0  0  0  0  0
   -3.9752   -1.1133    1.3518 H   0  0  0  0  0  0  0  0  0  0  0  0
   -3.6717   -1.9375   -0.1980 H   0  0  0  0  0  0  0  0  0  0  0  0
   -1.8919   -1.3610    0.8665 C   0  0  0  0  0  0  0  0  0  0  0  0
   -1.0714   -2.0801    1.3937 O   0  0  0  0  0  0  0  0  0  0  0  0
   -1.6113   -0.1176    0.3305 N   0  0  0  0  0  0  0  0  0  0  0  0
   -2.4522    0.4042    0.1018 H   0  0  0  0  0  0  0  0  0  0  0  0
   -0.3567    0.6808    0.2445 C   0  0  1  0  0  0  0  0  0  0  0  0
   -0.1923    1.1353    1.2275 H   0  0  0  0  0  0  0  0  0  0  0  0
    0.9773   -0.0029   -0.1713 C   0  0  0  0  0  0  0  0  0  0  0  0
    0.8384   -0.4494   -1.1595 H   0  0  0  0  0  0  0  0  0  0  0  0
    1.7529    0.7641   -0.2658 H   0  0  0  0  0  0  0  0  0  0  0  0
    1.5357   -1.0549    0.7383 C   0  0  0  0  0  0  0  0  0  0  0  0
    2.1584   -0.7469    1.9423 N   0  0  0  0  0  0  0  0  0  0  0  0
    2.6151   -1.8798    2.4184 C   0  0  0  0  0  0  0  0  0  0  0  0
    3.1331   -1.9879    3.3668 H   0  0  0  0  0  0  0  0  0  0  0  0
    2.3594   -2.9087    1.5321 N   0  0  0  0  0  0  0  0  0  0  0  0
    2.5916   -3.8874    1.6837 H   0  0  0  0  0  0  0  0  0  0  0  0
    1.6978   -2.3817    0.4441 C   0  0  0  0  0  0  0  0  0  0  0  0
    1.3518   -2.8942   -0.4468 H   0  0  0  0  0  0  0  0  0  0  0  0
   -0.5537    1.8222   -0.7839 C   0  0  0  0  0  0  0  0  0  0  0  0
    0.1704    2.8076   -0.7657 O   0  0  0  0  0  0  0  0  0  0  0  0
   -1.6159    1.7990   -1.6755 N   0  0  0  0  0  0  0  0  0  0  0  0
   -2.0602    0.8979   -1.8197 H   0  0  0  0  0  0  0  0  0  0  0  0
   -1.8265    2.8391   -2.6768 C   0  0  0  0  0  0  0  0  0  0  0  0
   -0.9852    2.8737   -3.3771 H   0  0  0  0  0  0  0  0  0  0  0  0
   -2.7419    2.6399   -3.2420 H   0  0  0  0  0  0  0  0  0  0  0  0
   -1.9259    3.8193   -2.1982 H   0  0  0  0  0  0  0  0  0  0  0  0
  1  2  1  0  0  0  0
  2  3  1  0  0  0  0
  2  4  1  0  0  0  0
  2  5  1  0  0  0  0
  5  6  2  0  0  0  0
  5  7  1  0  0  0  0
  7  8  1  0  0  0  0
  7  9  1  0  0  0  0
  9 10  1  0  0  0  0
  9 11  1  0  0  0  0
  9 22  1  0  0  0  0
 11 12  1  0  0  0  0
 11 13  1  0  0  0  0
 11 14  1  0  0  0  0
 14 15  1  0  0  0  0
 14 20  2  0  0  0  0
 15 16  2  0  0  0  0
 16 17  1  0  0  0  0
 16 18  1  0  0  0  0
 18 19  1  0  0  0  0
 18 20  1  0  0  0  0
 20 21  1  0  0  0  0
 22 23  2  0  0  0  0
 22 24  1  0  0  0  0
 24 25  1  0  0  0  0
 24 26  1  0  0  0  0
 26 27  1  0  0  0  0
 26 28  1  0  0  0  0
 26 29  1  0  0  0  0
M  END
$$$$

  -OEChem-01062216083D

 29 29  0     1  0  0  0  0  0999 V2000
   -2.7700   -3.0364    1.2719 H   0  0  0  0  0  0  0  0  0  0  0  0
   -2.8252   -2.1081    0.6959 C   0  0  0  0  0  0  0  0  0  0  0  0
   -3.8049   -1.6517    0.8568 H   0  0  0  0  0  0  0  0  0  0  0  0
   -2.7088   -2.3472   -0.3638 H   0  0  0  0  0  0  0  0  0  0  0  0
   -1.7307   -1.1555    1.1392 C   0  0  0  0  0  0  0  0  0  0  0  0
   -1.1171   -1.3975    2.1603 O   0  0  0  0  0  0  0  0  0  0  0  0
   -1.5889    0.0537    0.4881 N   0  0  0  0  0  0  0  0  0  0  0  0
   -2.2369    0.1217   -0.2880 H   0  0  0  0  0  0  0  0  0  0  0  0
   -0.3260    0.8097    0.2698 C   0  0  1  0  0  0  0  0  0  0  0  0
   -0.0465    1.2948    1.2116 H   0  0  0  0  0  0  0  0  0  0  0  0
    0.8889   -0.0293   -0.2330 C   0  0  0  0  0  0  0  0  0  0  0  0
    0.6163   -0.5011   -1.1808 H   0  0  0  0  0  0  0  0  0  0  0  0
    1.7329    0.6387   -0.4324 H   0  0  0  0  0  0  0  0  0  0  0  0
    1.4106   -1.0850    0.6926 C   0  0  0  0  0  0  0  0  0  0  0  0
    2.1676   -0.7884    1.8177 N   0  0  0  0  0  0  0  0  0  0  0  0
    2.4802   -1.9391    2.3610 C   0  0  0  0  0  0  0  0  0  0  0  0
    3.0508   -2.0548    3.2776 H   0  0  0  0  0  0  0  0  0  0  0  0
    1.9971   -2.9791    1.5884 N   0  0  0  0  0  0  0  0  0  0  0  0
    2.0969   -3.9675    1.8086 H   0  0  0  0  0  0  0  0  0  0  0  0
    1.3309   -2.4390    0.5087 C   0  0  0  0  0  0  0  0  0  0  0  0
    0.8357   -2.9585   -0.3042 H   0  0  0  0  0  0  0  0  0  0  0  0
   -0.5488    1.9128   -0.8046 C   0  0  0  0  0  0  0  0  0  0  0  0
    0.3819    2.5884   -1.2237 O   0  0  0  0  0  0  0  0  0  0  0  0
   -1.7882    2.0833   -1.4072 N   0  0  0  0  0  0  0  0  0  0  0  0
   -2.5878    1.7643   -0.8719 H   0  0  0  0  0  0  0  0  0  0  0  0
   -2.0275    3.1045   -2.4230 C   0  0  0  0  0  0  0  0  0  0  0  0
   -1.3694    2.9506   -3.2850 H   0  0  0  0  0  0  0  0  0  0  0  0
   -3.0639    3.0563   -2.7709 H   0  0  0  0  0  0  0  0  0  0  0  0
   -1.8438    4.1040   -2.0148 H   0  0  0  0  0  0  0  0  0  0  0  0
  1  2  1  0  0  0  0
  2  3  1  0  0  0  0
  2  4  1  0  0  0  0
  2  5  1  0  0  0  0
  5  6  2  0  0  0  0
  5  7  1  0  0  0  0
  7  8  1  0  0  0  0
  7  9  1  0  0  0  0
  9 10  1  0  0  0  0
  9 11  1  0  0  0  0
  9 22  1  0  0  0  0
 11 12  1  0  0  0  0
 11 13  1  0  0  0  0
 11 14  1  0  0  0  0
 14 15  1  0  0  0  0
 14 20  2  0  0  0  0
 15 16  2  0  0  0  0
 16 17  1  0  0  0  0
 16 18  1  0  0  0  0
 18 19  1  0  0  0  0
 18 20  1  0  0  0  0
 20 21  1  0  0  0  0
 22 23  2  0  0  0  0
 22 24  1  0  0  0  0
 24 25  1  0  0  0  0
 24 26  1  0  0  0  0
 26 27  1  0  0  0  0
 26 28  1  0  0  0  0
 26 29  1  0  0  0  0
M  END
$$$$

  -OEChem-01062216083D

 29 29  0     1  0  0  0  0  0999 V2000
   -2.8081   -3.0172    1.2127 H   0  0  0  0  0  0  0  0  0  0  0  0
   -2.8513   -2.0748    0.6593 C   0  0  0  0  0  0  0  0  0  0  0  0
   -3.8189   -1.6022    0.8442 H   0  0  0  0  0  0  0  0  0  0  0  0
   -2.7546   -2.2911   -0.4072 H   0  0  0  0  0  0  0  0  0  0  0  0
   -1.7308   -1.1558    1.1083 C   0  0  0  0  0  0  0  0  0  0  0  0
   -1.1172   -1.4255    2.1224 O   0  0  0  0  0  0  0  0  0  0  0  0
   -1.5652    0.0578    0.4721 N   0  0  0  0  0  0  0  0  0  0  0  0
   -2.2203    0.1610   -0.2966 H   0  0  0  0  0  0  0  0  0  0  0  0
   -0.2948    0.8010    0.2572 C   0  0  1  0  0  0  0  0  0  0  0  0
   -0.0156    1.2850    1.1993 H   0  0  0  0  0  0  0  0  0  0  0  0
    0.9222   -0.0401   -0.2350 C   0  0  0  0  0  0  0  0  0  0  0  0
    0.6581   -0.5130   -1.1849 H   0  0  0  0  0  0  0  0  0  0  0  0
    1.7684    0.6272   -0.4265 H   0  0  0  0  0  0  0  0  0  0  0  0
    1.4321   -1.0925    0.7000 C   0  0  0  0  0  0  0  0  0  0  0  0
    2.1794   -0.7924    1.8311 N   0  0  0  0  0  0  0  0  0  0  0  0
    2.4837   -1.9419    2.3820 C   0  0  0  0  0  0  0  0  0  0  0  0
    3.0448   -2.0549    3.3049 H   0  0  0  0  0  0  0  0  0  0  0  0
    2.0042   -2.9839    1.6094 N   0  0  0  0  0  0  0  0  0  0  0  0
    2.0943   -3.9715    1.8366 H   0  0  0  0  0  0  0  0  0  0  0  0
    1.3497   -2.4467    0.5214 C   0  0  0  0  0  0  0  0  0  0  0  0
    0.8589   -2.9675   -0.2935 H   0  0  0  0  0  0  0  0  0  0  0  0
   -0.5437    1.9078   -0.8084 C   0  0  0  0  0  0  0  0  0  0  0  0
    0.3652    2.4081   -1.4586 O   0  0  0  0  0  0  0  0  0  0  0  0
   -1.8434    2.2636   -1.1407 N   0  0  0  0  0  0  0  0  0  0  0  0
   -2.5470    2.0560   -0.4382 H   0  0  0  0  0  0  0  0  0  0  0  0
   -2.1480    3.3039   -2.1177 C   0  0  0  0  0  0  0  0  0  0  0  0
   -1.7242    3.0491   -3.0950 H   0  0  0  0  0  0  0  0  0  0  0  0
   -3.2311    3.4095   -2.2311 H   0  0  0  0  0  0  0  0  0  0  0  0
   -1.7365    4.2664   -1.7955 H   0  0  0  0  0  0  0  0  0  0  0  0
  1  2  1  0  0  0  0
  2  3  1  0  0  0  0
  2  4  1  0  0  0  0
  2  5  1  0  0  0  0
  5  6  2  0  0  0  0
  5  7  1  0  0  0  0
  7  8  1  0  0  0  0
  7  9  1  0  0  0  0
  9 10  1  0  0  0  0
  9 11  1  0  0  0  0
  9 22  1  0  0  0  0
 11 12  1  0  0  0  0
 11 13  1  0  0  0  0
 11 14  1  0  0  0  0
 14 15  1  0  0  0  0
 14 20  2  0  0  0  0
 15 16  2  0  0  0  0
 16 17  1  0  0  0  0
 16 18  1  0  0  0  0
 18 19  1  0  0  0  0
 18 20  1  0  0  0  0
 20 21  1  0  0  0  0
 22 23  2  0  0  0  0
 22 24  1  0  0  0  0
 24 25  1  0  0  0  0
 24 26  1  0  0  0  0
 26 27  1  0  0  0  0
 26 28  1  0  0  0  0
 26 29  1  0  0  0  0
M  END
$$$$

  -OEChem-01062216083D

 29 29  0     1  0  0  0  0  0999 V2000
   -2.8757   -2.9919    1.1787 H   0  0  0  0  0  0  0  0  0  0  0  0
   -2.9018   -2.0395    0.6416 C   0  0  0  0  0  0  0  0  0  0  0  0
   -3.8493   -1.5394    0.8565 H   0  0  0  0  0  0  0  0  0  0  0  0
   -2.8373   -2.2408   -0.4303 H   0  0  0  0  0  0  0  0  0  0  0  0
   -1.7420   -1.1639    1.0781 C   0  0  0  0  0  0  0  0  0  0  0  0
   -1.1147   -1.4701    2.0734 O   0  0  0  0  0  0  0  0  0  0  0  0
   -1.5538    0.0536    0.4562 N   0  0  0  0  0  0  0  0  0  0  0  0
   -2.2286    0.2034   -0.2887 H   0  0  0  0  0  0  0  0  0  0  0  0
   -0.2791    0.7896    0.2500 C   0  0  1  0  0  0  0  0  0  0  0  0
   -0.0057    1.2719    1.1945 H   0  0  0  0  0  0  0  0  0  0  0  0
    0.9462   -0.0453   -0.2300 C   0  0  0  0  0  0  0  0  0  0  0  0
    0.6925   -0.5218   -1.1810 H   0  0  0  0  0  0  0  0  0  0  0  0
    1.7880    0.6291   -0.4161 H   0  0  0  0  0  0  0  0  0  0  0  0
    1.4528   -1.0951    0.7092 C   0  0  0  0  0  0  0  0  0  0  0  0
    2.1882   -0.7907    1.8474 N   0  0  0  0  0  0  0  0  0  0  0  0
    2.4982   -1.9395    2.3974 C   0  0  0  0  0  0  0  0  0  0  0  0
    3.0529   -2.0513    3.3245 H   0  0  0  0  0  0  0  0  0  0  0  0
    2.0343   -2.9836    1.6187 N   0  0  0  0  0  0  0  0  0  0  0  0
    2.1304   -3.9709    1.8448 H   0  0  0  0  0  0  0  0  0  0  0  0
    1.3838   -2.4494    0.5268 C   0  0  0  0  0  0  0  0  0  0  0  0
    0.9043   -2.9717   -0.2938 H   0  0  0  0  0  0  0  0  0  0  0  0
   -0.5428    1.8994   -0.8069 C   0  0  0  0  0  0  0  0  0  0  0  0
    0.2804    2.2255   -1.6530 O   0  0  0  0  0  0  0  0  0  0  0  0
   -1.8098    2.4569   -0.8901 N   0  0  0  0  0  0  0  0  0  0  0  0
   -2.4088    2.3212   -0.0800 H   0  0  0  0  0  0  0  0  0  0  0  0
   -2.1491    3.5221   -1.8275 C   0  0  0  0  0  0  0  0  0  0  0  0
   -1.9836    3.1932   -2.8589 H   0  0  0  0  0  0  0  0  0  0  0  0
   -3.2026    3.7981   -1.7205 H   0  0  0  0  0  0  0  0  0  0  0  0
   -1.5365    4.4099   -1.6381 H   0  0  0  0  0  0  0  0  0  0  0  0
  1  2  1  0  0  0  0
  2  3  1  0  0  0  0
  2  4  1  0  0  0  0
  2  5  1  0  0  0  0
  5  6  2  0  0  0  0
  5  7  1  0  0  0  0
  7  8  1  0  0  0  0
  7  9  1  0  0  0  0
  9 10  1  0  0  0  0
  9 11  1  0  0  0  0
  9 22  1  0  0  0  0
 11 12  1  0  0  0  0
 11 13  1  0  0  0  0
 11 14  1  0  0  0  0
 14 15  1  0  0  0  0
 14 20  2  0  0  0  0
 15 16  2  0  0  0  0
 16 17  1  0  0  0  0
 16 18  1  0  0  0  0
 18 19  1  0  0  0  0
 18 20  1  0  0  0  0
 20 21  1  0  0  0  0
 22 23  2  0  0  0  0
 22 24  1  0  0  0  0
 24 25  1  0  0  0  0
 24 26  1  0  0  0  0
 26 27  1  0  0  0  0
 26 28  1  0  0  0  0
 26 29  1  0  0  0  0
M  END
$$$$

  -OEChem-01062216083D

 29 29  0     1  0  0  0  0  0999 V2000
   -2.9391   -2.9719    1.1593 H   0  0  0  0  0  0  0  0  0  0  0  0
   -2.9482   -2.0133    0.6330 C   0  0  0  0  0  0  0  0  0  0  0  0
   -3.8758   -1.4884    0.8736 H   0  0  0  0  0  0  0  0  0  0  0  0
   -2.9117   -2.2042   -0.4422 H   0  0  0  0  0  0  0  0  0  0  0  0
   -1.7550   -1.1761    1.0538 C   0  0  0  0  0  0  0  0  0  0  0  0
   -1.1129   -1.5156    2.0285 O   0  0  0  0  0  0  0  0  0  0  0  0
   -1.5512    0.0457    0.4455 N   0  0  0  0  0  0  0  0  0  0  0  0
   -2.2424    0.2340   -0.2757 H   0  0  0  0  0  0  0  0  0  0  0  0
   -0.2748    0.7792    0.2508 C   0  0  1  0  0  0  0  0  0  0  0  0
   -0.0077    1.2567    1.1993 H   0  0  0  0  0  0  0  0  0  0  0  0
    0.9608   -0.0430   -0.2223 C   0  0  0  0  0  0  0  0  0  0  0  0
    0.7158   -0.5218   -1.1747 H   0  0  0  0  0  0  0  0  0  0  0  0
    1.7943    0.6425   -0.4057 H   0  0  0  0  0  0  0  0  0  0  0  0
    1.4682   -1.0935    0.7159 C   0  0  0  0  0  0  0  0  0  0  0  0
    2.1913   -0.7865    1.8615 N   0  0  0  0  0  0  0  0  0  0  0  0
    2.5104   -1.9347    2.4076 C   0  0  0  0  0  0  0  0  0  0  0  0
    3.0591   -2.0453    3.3384 H   0  0  0  0  0  0  0  0  0  0  0  0
    2.0654   -2.9800    1.6194 N   0  0  0  0  0  0  0  0  0  0  0  0
    2.1713   -3.9675    1.8405 H   0  0  0  0  0  0  0  0  0  0  0  0
    1.4177   -2.4474    0.5252 C   0  0  0  0  0  0  0  0  0  0  0  0
    0.9513   -2.9709   -0.3023 H   0  0  0  0  0  0  0  0  0  0  0  0
   -0.5440    1.8928   -0.7965 C   0  0  0  0  0  0  0  0  0  0  0  0
    0.1408    2.0523   -1.7995 O   0  0  0  0  0  0  0  0  0  0  0  0
   -1.6940    2.6537   -0.6657 N   0  0  0  0  0  0  0  0  0  0  0  0
   -2.1840    2.5843    0.2226 H   0  0  0  0  0  0  0  0  0  0  0  0
   -2.0417    3.7424   -1.5722 C   0  0  0  0  0  0  0  0  0  0  0  0
   -2.1648    3.3674   -2.5938 H   0  0  0  0  0  0  0  0  0  0  0  0
   -2.9820    4.2076   -1.2607 H   0  0  0  0  0  0  0  0  0  0  0  0
   -1.2590    4.5084   -1.5699 H   0  0  0  0  0  0  0  0  0  0  0  0
  1  2  1  0  0  0  0
  2  3  1  0  0  0  0
  2  4  1  0  0  0  0
  2  5  1  0  0  0  0
  5  6  2  0  0  0  0
  5  7  1  0  0  0  0
  7  8  1  0  0  0  0
  7  9  1  0  0  0  0
  9 10  1  0  0  0  0
  9 11  1  0  0  0  0
  9 22  1  0  0  0  0
 11 12  1  0  0  0  0
 11 13  1  0  0  0  0
 11 14  1  0  0  0  0
 14 15  1  0  0  0  0
 14 20  2  0  0  0  0
 15 16  2  0  0  0  0
 16 17  1  0  0  0  0
 16 18  1  0  0  0  0
 18 19  1  0  0  0  0
 18 20  1  0  0  0  0
 20 21  1  0  0  0  0
 22 23  2  0  0  0  0
 22 24  1  0  0  0  0
 24 25  1  0  0  0  0
 24 26  1  0  0  0  0
 26 27  1  0  0  0  0
 26 28  1  0  0  0  0
 26 29  1  0  0  0  0
M  END
$$$$

  -OEChem-01062216083D

 29 29  0     1  0  0  0  0  0999 V2000
   -2.9690   -2.9642    1.1545 H   0  0  0  0  0  0  0  0  0  0  0  0
   -2.9681   -2.0051    0.6287 C   0  0  0  0  0  0  0  0  0  0  0  0
   -3.8889   -1.4694    0.8716 H   0  0  0  0  0  0  0  0  0  0  0  0
   -2.9362   -2.1955   -0.4469 H   0  0  0  0  0  0  0  0  0  0  0  0
   -1.7640   -1.1822    1.0475 C   0  0  0  0  0  0  0  0  0  0  0  0
   -1.1125   -1.5418    2.0088 O   0  0  0  0  0  0  0  0  0  0  0  0
   -1.5546    0.0438    0.4497 N   0  0  0  0  0  0  0  0  0  0  0  0
   -2.2518    0.2509   -0.2606 H   0  0  0  0  0  0  0  0  0  0  0  0
   -0.2785    0.7764    0.2636 C   0  0  1  0  0  0  0  0  0  0  0  0
   -0.0137    1.2459    1.2170 H   0  0  0  0  0  0  0  0  0  0  0  0
    0.9627   -0.0342   -0.2115 C   0  0  0  0  0  0  0  0  0  0  0  0
    0.7223   -0.5123   -1.1655 H   0  0  0  0  0  0  0  0  0  0  0  0
    1.7896    0.6594   -0.3932 H   0  0  0  0  0  0  0  0  0  0  0  0
    1.4733   -1.0892    0.7189 C   0  0  0  0  0  0  0  0  0  0  0  0
    2.1908   -0.7848    1.8688 N   0  0  0  0  0  0  0  0  0  0  0  0
    2.5159   -1.9352    2.4070 C   0  0  0  0  0  0  0  0  0  0  0  0
    3.0625   -2.0488    3.3384 H   0  0  0  0  0  0  0  0  0  0  0  0
    2.0805   -2.9778    1.6100 N   0  0  0  0  0  0  0  0  0  0  0  0
    2.1945   -3.9662    1.8227 H   0  0  0  0  0  0  0  0  0  0  0  0
    1.4318   -2.4417    0.5181 C   0  0  0  0  0  0  0  0  0  0  0  0
    0.9705   -2.9614   -0.3147 H   0  0  0  0  0  0  0  0  0  0  0  0
   -0.5442    1.8956   -0.7737 C   0  0  0  0  0  0  0  0  0  0  0  0
   -0.0572    1.8919   -1.8979 O   0  0  0  0  0  0  0  0  0  0  0  0
   -1.5010    2.8504   -0.4778 N   0  0  0  0  0  0  0  0  0  0  0  0
   -1.8604    2.8617    0.4735 H   0  0  0  0  0  0  0  0  0  0  0  0
   -1.8427    3.9498   -1.3730 C   0  0  0  0  0  0  0  0  0  0  0  0
   -2.2293    3.5655   -2.3227 H   0  0  0  0  0  0  0  0  0  0  0  0
   -2.6113    4.5825   -0.9190 H   0  0  0  0  0  0  0  0  0  0  0  0
   -0.9608    4.5669   -1.5752 H   0  0  0  0  0  0  0  0  0  0  0  0
  1  2  1  0  0  0  0
  2  3  1  0  0  0  0
  2  4  1  0  0  0  0
  2  5  1  0  0  0  0
  5  6  2  0  0  0  0
  5  7  1  0  0  0  0
  7  8  1  0  0  0  0
  7  9  1  0  0  0  0
  9 10  1  0  0  0  0
  9 11  1  0  0  0  0
  9 22  1  0  0  0  0
 11 12  1  0  0  0  0
 11 13  1  0  0  0  0
 11 14  1  0  0  0  0
 14 15  1  0  0  0  0
 14 20  2  0  0  0  0
 15 16  2  0  0  0  0
 16 17  1  0  0  0  0
 16 18  1  0  0  0  0
 18 19  1  0  0  0  0
 18 20  1  0  0  0  0
 20 21  1  0  0  0  0
 22 23  2  0  0  0  0
 22 24  1  0  0  0  0
 24 25  1  0  0  0  0
 24 26  1  0  0  0  0
 26 27  1  0  0  0  0
 26 28  1  0  0  0  0
 26 29  1  0  0  0  0
M  END
$$$$

  -OEChem-01062216083D

 29 29  0     1  0  0  0  0  0999 V2000
   -2.9716   -2.9565    1.1499 H   0  0  0  0  0  0  0  0  0  0  0  0
   -2.9610   -1.9997    0.6204 C   0  0  0  0  0  0  0  0  0  0  0  0
   -3.8845   -1.4614    0.8467 H   0  0  0  0  0  0  0  0  0  0  0  0
   -2.9130   -2.1943   -0.4538 H   0  0  0  0  0  0  0  0  0  0  0  0
   -1.7625   -1.1766    1.0536 C   0  0  0  0  0  0  0  0  0  0  0  0
   -1.1146   -1.5395    2.0166 O   0  0  0  0  0  0  0  0  0  0  0  0
   -1.5516    0.0518    0.4625 N   0  0  0  0  0  0  0  0  0  0  0  0
   -2.2403    0.2577   -0.2565 H   0  0  0  0  0  0  0  0  0  0  0  0
   -0.2754    0.7829    0.2861 C   0  0  1  0  0  0  0  0  0  0  0  0
   -0.0102    1.2409    1.2448 H   0  0  0  0  0  0  0  0  0  0  0  0
    0.9656   -0.0197   -0.1992 C   0  0  0  0  0  0  0  0  0  0  0  0
    0.7243   -0.4907   -1.1569 H   0  0  0  0  0  0  0  0  0  0  0  0
    1.7902    0.6777   -0.3766 H   0  0  0  0  0  0  0  0  0  0  0  0
    1.4742   -1.0857    0.7195 C   0  0  0  0  0  0  0  0  0  0  0  0
    2.1896   -0.7927    1.8736 N   0  0  0  0  0  0  0  0  0  0  0  0
    2.5100   -1.9486    2.4032 C   0  0  0  0  0  0  0  0  0  0  0  0
    3.0541   -2.0714    3.3352 H   0  0  0  0  0  0  0  0  0  0  0  0
    2.0733   -2.9834    1.5966 N   0  0  0  0  0  0  0  0  0  0  0  0
    2.1814   -3.9737    1.8029 H   0  0  0  0  0  0  0  0  0  0  0  0
    1.4284   -2.4364    0.5078 C   0  0  0  0  0  0  0  0  0  0  0  0
    0.9651   -2.9477   -0.3290 H   0  0  0  0  0  0  0  0  0  0  0  0
   -0.5312    1.9065   -0.7449 C   0  0  0  0  0  0  0  0  0  0  0  0
   -0.2912    1.7644   -1.9380 O   0  0  0  0  0  0  0  0  0  0  0  0
   -1.2365    3.0262   -0.3431 N   0  0  0  0  0  0  0  0  0  0  0  0
   -1.4427    3.1137    0.6488 H   0  0  0  0  0  0  0  0  0  0  0  0
   -1.5894    4.1222   -1.2376 C   0  0  0  0  0  0  0  0  0  0  0  0
   -2.2320    3.7647   -2.0490 H   0  0  0  0  0  0  0  0  0  0  0  0
   -2.1284    4.8996   -0.6876 H   0  0  0  0  0  0  0  0  0  0  0  0
   -0.6879    4.5674   -1.6715 H   0  0  0  0  0  0  0  0  0  0  0  0
  1  2  1  0  0  0  0
  2  3  1  0  0  0  0
  2  4  1  0  0  0  0
  2  5  1  0  0  0  0
  5  6  2  0  0  0  0
  5  7  1  0  0  0  0
  7  8  1  0  0  0  0
  7  9  1  0  0  0  0
  9 10  1  0  0  0  0
  9 11  1  0  0  0  0
  9 22  1  0  0  0  0
 11 12  1  0  0  0  0
 11 13  1  0  0  0  0
 11 14  1  0  0  0  0
 14 15  1  0  0  0  0
 14 20  2  0  0  0  0
 15 16  2  0  0  0  0
 16 17  1  0  0  0  0
 16 18  1  0  0  0  0
 18 19  1  0  0  0  0
 18 20  1  0  0  0  0
 20 21  1  0  0  0  0
 22 23  2  0  0  0  0
 22 24  1  0  0  0  0
 24 25  1  0  0  0  0
 24 26  1  0  0  0  0
 26 27  1  0  0  0  0
 26 28  1  0  0  0  0
 26 29  1  0  0  0  0
M  END
$$$$

  -OEChem-01062216083D

 29 29  0     1  0  0  0  0  0999 V2000
   -2.9650   -2.9409    1.1607 H   0  0  0  0  0  0  0  0  0  0  0  0
   -2.9410   -1.9934    0.6152 C   0  0  0  0  0  0  0  0  0  0  0  0
   -3.8696   -1.4513    0.8095 H   0  0  0  0  0  0  0  0  0  0  0  0
   -2.8664   -2.2059   -0.4540 H   0  0  0  0  0  0  0  0  0  0  0  0
   -1.7527   -1.1633    1.0629 C   0  0  0  0  0  0  0  0  0  0  0  0
   -1.1113   -1.5251    2.0312 O   0  0  0  0  0  0  0  0  0  0  0  0
   -1.5393    0.0659    0.4748 N   0  0  0  0  0  0  0  0  0  0  0  0
   -2.2121    0.2652   -0.2619 H   0  0  0  0  0  0  0  0  0  0  0  0
   -0.2620    0.7966    0.3145 C   0  0  1  0  0  0  0  0  0  0  0  0
   -0.0007    1.2452    1.2788 H   0  0  0  0  0  0  0  0  0  0  0  0
    0.9776    0.0005   -0.1820 C   0  0  0  0  0  0  0  0  0  0  0  0
    0.7382   -0.4538   -1.1480 H   0  0  0  0  0  0  0  0  0  0  0  0
    1.8047    0.6980   -0.3457 H   0  0  0  0  0  0  0  0  0  0  0  0
    1.4782   -1.0820    0.7213 C   0  0  0  0  0  0  0  0  0  0  0  0
    2.1897   -0.8114    1.8831 N   0  0  0  0  0  0  0  0  0  0  0  0
    2.4918   -1.9779    2.4001 C   0  0  0  0  0  0  0  0  0  0  0  0
    3.0269   -2.1196    3.3345 H   0  0  0  0  0  0  0  0  0  0  0  0
    2.0484   -2.9971    1.5774 N   0  0  0  0  0  0  0  0  0  0  0  0
    2.1371   -3.9911    1.7752 H   0  0  0  0  0  0  0  0  0  0  0  0
    1.4174   -2.4289    0.4916 C   0  0  0  0  0  0  0  0  0  0  0  0
    0.9501   -2.9239   -0.3530 H   0  0  0  0  0  0  0  0  0  0  0  0
   -0.5036    1.9200   -0.7167 C   0  0  0  0  0  0  0  0  0  0  0  0
   -0.5386    1.6780   -1.9176 O   0  0  0  0  0  0  0  0  0  0  0  0
   -0.9239    3.1623   -0.2785 N   0  0  0  0  0  0  0  0  0  0  0  0
   -0.9528    3.3185    0.7257 H   0  0  0  0  0  0  0  0  0  0  0  0
   -1.3045    4.2481   -1.1741 C   0  0  0  0  0  0  0  0  0  0  0  0
   -2.1659    3.9575   -1.7845 H   0  0  0  0  0  0  0  0  0  0  0  0
   -1.5745    5.1372   -0.5964 H   0  0  0  0  0  0  0  0  0  0  0  0
   -0.4731    4.5072   -1.8381 H   0  0  0  0  0  0  0  0  0  0  0  0
  1  2  1  0  0  0  0
  2  3  1  0  0  0  0
  2  4  1  0  0  0  0
  2  5  1  0  0  0  0
  5  6  2  0  0  0  0
  5  7  1  0  0  0  0
  7  8  1  0  0  0  0
  7  9  1  0  0  0  0
  9 10  1  0  0  0  0
  9 11  1  0  0  0  0
  9 22  1  0  0  0  0
 11 12  1  0  0  0  0
 11 13  1  0  0  0  0
 11 14  1  0  0  0  0
 14 15  1  0  0  0  0
 14 20  2  0  0  0  0
 15 16  2  0  0  0  0
 16 17  1  0  0  0  0
 16 18  1  0  0  0  0
 18 19  1  0  0  0  0
 18 20  1  0  0  0  0
 20 21  1  0  0  0  0
 22 23  2  0  0  0  0
 22 24  1  0  0  0  0
 24 25  1  0  0  0  0
 24 26  1  0  0  0  0
 26 27  1  0  0  0  0
 26 28  1  0  0  0  0
 26 29  1  0  0  0  0
M  END
$$$$

  -OEChem-01062216083D

 29 29  0     1  0  0  0  0  0999 V2000
   -2.9548   -2.9521    1.1561 H   0  0  0  0  0  0  0  0  0  0  0  0
   -2.9462   -1.9955    0.6263 C   0  0  0  0  0  0  0  0  0  0  0  0
   -3.8749   -1.4632    0.8453 H   0  0  0  0  0  0  0  0  0  0  0  0
   -2.8887   -2.1893   -0.4474 H   0  0  0  0  0  0  0  0  0  0  0  0
   -1.7562   -1.1647    1.0686 C   0  0  0  0  0  0  0  0  0  0  0  0
   -1.1116   -1.5255    2.0355 O   0  0  0  0  0  0  0  0  0  0  0  0
   -1.5428    0.0633    0.4780 N   0  0  0  0  0  0  0  0  0  0  0  0
   -2.2041    0.2574   -0.2711 H   0  0  0  0  0  0  0  0  0  0  0  0
   -0.2685    0.8003    0.3316 C   0  0  1  0  0  0  0  0  0  0  0  0
   -0.0181    1.2461    1.3000 H   0  0  0  0  0  0  0  0  0  0  0  0
    0.9755    0.0167   -0.1693 C   0  0  0  0  0  0  0  0  0  0  0  0
    0.7421   -0.4242   -1.1432 H   0  0  0  0  0  0  0  0  0  0  0  0
    1.8013    0.7190   -0.3185 H   0  0  0  0  0  0  0  0  0  0  0  0
    1.4763   -1.0744    0.7229 C   0  0  0  0  0  0  0  0  0  0  0  0
    2.1814   -0.8145    1.8908 N   0  0  0  0  0  0  0  0  0  0  0  0
    2.4837   -1.9859    2.3969 C   0  0  0  0  0  0  0  0  0  0  0  0
    3.0136   -2.1363    3.3331 H   0  0  0  0  0  0  0  0  0  0  0  0
    2.0482   -2.9971    1.5599 N   0  0  0  0  0  0  0  0  0  0  0  0
    2.1383   -3.9930    1.7470 H   0  0  0  0  0  0  0  0  0  0  0  0
    1.4202   -2.4188    0.4778 C   0  0  0  0  0  0  0  0  0  0  0  0
    0.9578   -2.9061   -0.3741 H   0  0  0  0  0  0  0  0  0  0  0  0
   -0.4966    1.9187   -0.7056 C   0  0  0  0  0  0  0  0  0  0  0  0
   -0.7713    1.6364   -1.8667 O   0  0  0  0  0  0  0  0  0  0  0  0
   -0.6206    3.2305   -0.2869 N   0  0  0  0  0  0  0  0  0  0  0  0
   -0.4556    3.4253    0.6972 H   0  0  0  0  0  0  0  0  0  0  0  0
   -0.9559    4.3344   -1.1779 C   0  0  0  0  0  0  0  0  0  0  0  0
   -1.9370    4.1734   -1.6369 H   0  0  0  0  0  0  0  0  0  0  0  0
   -0.9867    5.2746   -0.6189 H   0  0  0  0  0  0  0  0  0  0  0  0
   -0.2063    4.4282   -1.9706 H   0  0  0  0  0  0  0  0  0  0  0  0
  1  2  1  0  0  0  0
  2  3  1  0  0  0  0
  2  4  1  0  0  0  0
  2  5  1  0  0  0  0
  5  6  2  0  0  0  0
  5  7  1  0  0  0  0
  7  8  1  0  0  0  0
  7  9  1  0  0  0  0
  9 10  1  0  0  0  0
  9 11  1  0  0  0  0
  9 22  1  0  0  0  0
 11 12  1  0  0  0  0
 11 13  1  0  0  0  0
 11 14  1  0  0  0  0
 14 15  1  0  0  0  0
 14 20  2  0  0  0  0
 15 16  2  0  0  0  0
 16 17  1  0  0  0  0
 16 18  1  0  0  0  0
 18 19  1  0  0  0  0
 18 20  1  0  0  0  0
 20 21  1  0  0  0  0
 22 23  2  0  0  0  0
 22 24  1  0  0  0  0
 24 25  1  0  0  0  0
 24 26  1  0  0  0  0
 26 27  1  0  0  0  0
 26 28  1  0  0  0  0
 26 29  1  0  0  0  0
M  END
$$$$

  -OEChem-01062216083D

 29 29  0     1  0  0  0  0  0999 V2000
   -2.9823   -2.9396    1.1685 H   0  0  0  0  0  0  0  0  0  0  0  0
   -2.9553   -1.9914    0.6243 C   0  0  0  0  0  0  0  0  0  0  0  0
   -3.8808   -1.4452    0.8218 H   0  0  0  0  0  0  0  0  0  0  0  0
   -2.8856   -2.2025   -0.4455 H   0  0  0  0  0  0  0  0  0  0  0  0
   -1.7619   -1.1670    1.0695 C   0  0  0  0  0  0  0  0  0  0  0  0
   -1.1130   -1.5378    2.0299 O   0  0  0  0  0  0  0  0  0  0  0  0
   -1.5421    0.0596    0.4789 N   0  0  0  0  0  0  0  0  0  0  0  0
   -2.2010    0.2609   -0.2717 H   0  0  0  0  0  0  0  0  0  0  0  0
   -0.2707    0.8023    0.3407 C   0  0  1  0  0  0  0  0  0  0  0  0
   -0.0279    1.2475    1.3112 H   0  0  0  0  0  0  0  0  0  0  0  0
    0.9749    0.0265   -0.1629 C   0  0  0  0  0  0  0  0  0  0  0  0
    0.7410   -0.4077   -1.1399 H   0  0  0  0  0  0  0  0  0  0  0  0
    1.7998    0.7309   -0.3069 H   0  0  0  0  0  0  0  0  0  0  0  0
    1.4766   -1.0689    0.7230 C   0  0  0  0  0  0  0  0  0  0  0  0
    2.1783   -0.8093    1.8929 N   0  0  0  0  0  0  0  0  0  0  0  0
    2.4834   -1.9810    2.3963 C   0  0  0  0  0  0  0  0  0  0  0  0
    3.0124   -2.1318    3.3328 H   0  0  0  0  0  0  0  0  0  0  0  0
    2.0528   -2.9916    1.5561 N   0  0  0  0  0  0  0  0  0  0  0  0
    2.1456   -3.9878    1.7416 H   0  0  0  0  0  0  0  0  0  0  0  0
    1.4248   -2.4126    0.4740 C   0  0  0  0  0  0  0  0  0  0  0  0
    0.9641   -2.8993   -0.3789 H   0  0  0  0  0  0  0  0  0  0  0  0
   -0.4895    1.9174   -0.7007 C   0  0  0  0  0  0  0  0  0  0  0  0
   -0.9818    1.6446   -1.7906 O   0  0  0  0  0  0  0  0  0  0  0  0
   -0.3145    3.2430   -0.3493 N   0  0  0  0  0  0  0  0  0  0  0  0
    0.0409    3.4387    0.5831 H   0  0  0  0  0  0  0  0  0  0  0  0
   -0.6103    4.3577   -1.2410 C   0  0  0  0  0  0  0  0  0  0  0  0
   -1.6760    4.3753   -1.4921 H   0  0  0  0  0  0  0  0  0  0  0  0
   -0.3530    5.3057   -0.7587 H   0  0  0  0  0  0  0  0  0  0  0  0
   -0.0308    4.2728   -2.1664 H   0  0  0  0  0  0  0  0  0  0  0  0
  1  2  1  0  0  0  0
  2  3  1  0  0  0  0
  2  4  1  0  0  0  0
  2  5  1  0  0  0  0
  5  6  2  0  0  0  0
  5  7  1  0  0  0  0
  7  8  1  0  0  0  0
  7  9  1  0  0  0  0
  9 10  1  0  0  0  0
  9 11  1  0  0  0  0
  9 22  1  0  0  0  0
 11 12  1  0  0  0  0
 11 13  1  0  0  0  0
 11 14  1  0  0  0  0
 14 15  1  0  0  0  0
 14 20  2  0  0  0  0
 15 16  2  0  0  0  0
 16 17  1  0  0  0  0
 16 18  1  0  0  0  0
 18 19  1  0  0  0  0
 18 20  1  0  0  0  0
 20 21  1  0  0  0  0
 22 23  2  0  0  0  0
 22 24  1  0  0  0  0
 24 25  1  0  0  0  0
 24 26  1  0  0  0  0
 26 27  1  0  0  0  0
 26 28  1  0  0  0  0
 26 29  1  0  0  0  0
M  END
$$$$

  -OEChem-01062216083D

 29 29  0     1  0  0  0  0  0999 V2000
   -3.0038   -2.9388    1.1684 H   0  0  0  0  0  0  0  0  0  0  0  0
   -2.9777   -1.9857    0.6328 C   0  0  0  0  0  0  0  0  0  0  0  0
   -3.8951   -1.4336    0.8508 H   0  0  0  0  0  0  0  0  0  0  0  0
   -2.9265   -2.1867   -0.4399 H   0  0  0  0  0  0  0  0  0  0  0  0
   -1.7710   -1.1747    1.0661 C   0  0  0  0  0  0  0  0  0  0  0  0
   -1.1113   -1.5585    2.0139 O   0  0  0  0  0  0  0  0  0  0  0  0
   -1.5468    0.0505    0.4747 N   0  0  0  0  0  0  0  0  0  0  0  0
   -2.2136    0.2677   -0.2652 H   0  0  0  0  0  0  0  0  0  0  0  0
   -0.2807    0.8029    0.3421 C   0  0  1  0  0  0  0  0  0  0  0  0
   -0.0474    1.2521    1.3129 H   0  0  0  0  0  0  0  0  0  0  0  0
    0.9707    0.0358   -0.1597 C   0  0  0  0  0  0  0  0  0  0  0  0
    0.7413   -0.3954   -1.1391 H   0  0  0  0  0  0  0  0  0  0  0  0
    1.7929    0.7442   -0.2987 H   0  0  0  0  0  0  0  0  0  0  0  0
    1.4781   -1.0588    0.7237 C   0  0  0  0  0  0  0  0  0  0  0  0
    2.1760   -0.7980    1.8956 N   0  0  0  0  0  0  0  0  0  0  0  0
    2.4894   -1.9694    2.3952 C   0  0  0  0  0  0  0  0  0  0  0  0
    3.0175   -2.1197    3.3323 H   0  0  0  0  0  0  0  0  0  0  0  0
    2.0695   -2.9800    1.5495 N   0  0  0  0  0  0  0  0  0  0  0  0
    2.1700   -3.9762    1.7305 H   0  0  0  0  0  0  0  0  0  0  0  0
    1.4387   -2.4018    0.4688 C   0  0  0  0  0  0  0  0  0  0  0  0
    0.9839   -2.8892   -0.3871 H   0  0  0  0  0  0  0  0  0  0  0  0
   -0.4938    1.9146   -0.7046 C   0  0  0  0  0  0  0  0  0  0  0  0
   -1.1678    1.6899   -1.7050 O   0  0  0  0  0  0  0  0  0  0  0  0
   -0.0398    3.1976   -0.4624 N   0  0  0  0  0  0  0  0  0  0  0  0
    0.4830    3.3566    0.3951 H   0  0  0  0  0  0  0  0  0  0  0  0
   -0.2669    4.3164   -1.3685 C   0  0  0  0  0  0  0  0  0  0  0  0
   -1.3393    4.5091   -1.4782 H   0  0  0  0  0  0  0  0  0  0  0  0
    0.2087    5.2213   -0.9777 H   0  0  0  0  0  0  0  0  0  0  0  0
    0.1564    4.1025   -2.3555 H   0  0  0  0  0  0  0  0  0  0  0  0
  1  2  1  0  0  0  0
  2  3  1  0  0  0  0
  2  4  1  0  0  0  0
  2  5  1  0  0  0  0
  5  6  2  0  0  0  0
  5  7  1  0  0  0  0
  7  8  1  0  0  0  0
  7  9  1  0  0  0  0
  9 10  1  0  0  0  0
  9 11  1  0  0  0  0
  9 22  1  0  0  0  0
 11 12  1  0  0  0  0
 11 13  1  0  0  0  0
 11 14  1  0  0  0  0
 14 15  1  0  0  0  0
 14 20  2  0  0  0  0
 15 16  2  0  0  0  0
 16 17  1  0  0  0  0
 16 18  1  0  0  0  0
 18 19  1  0  0  0  0
 18 20  1  0  0  0  0
 20 21  1  0  0  0  0
 22 23  2  0  0  0  0
 22 24  1  0  0  0  0
 24 25  1  0  0  0  0
 24 26  1  0  0  0  0
 26 27  1  0  0  0  0
 26 28  1  0  0  0  0
 26 29  1  0  0  0  0
M  END
$$$$

  -OEChem-01062216083D

 29 29  0     1  0  0  0  0  0999 V2000
   -3.0310   -2.9318    1.1616 H   0  0  0  0  0  0  0  0  0  0  0  0
   -3.0022   -1.9721    0.6380 C   0  0  0  0  0  0  0  0  0  0  0  0
   -3.9058   -1.4087    0.8832 H   0  0  0  0  0  0  0  0  0  0  0  0
   -2.9784   -2.1595   -0.4381 H   0  0  0  0  0  0  0  0  0  0  0  0
   -1.7737   -1.1850    1.0539 C   0  0  0  0  0  0  0  0  0  0  0  0
   -1.1023   -1.5892    1.9846 O   0  0  0  0  0  0  0  0  0  0  0  0
   -1.5418    0.0401    0.4654 N   0  0  0  0  0  0  0  0  0  0  0  0
   -2.2246    0.2828   -0.2526 H   0  0  0  0  0  0  0  0  0  0  0  0
   -0.2809    0.8030    0.3363 C   0  0  1  0  0  0  0  0  0  0  0  0
   -0.0537    1.2558    1.3070 H   0  0  0  0  0  0  0  0  0  0  0  0
    0.9743    0.0389   -0.1628 C   0  0  0  0  0  0  0  0  0  0  0  0
    0.7463   -0.3935   -1.1419 H   0  0  0  0  0  0  0  0  0  0  0  0
    1.7959    0.7479   -0.3017 H   0  0  0  0  0  0  0  0  0  0  0  0
    1.4859   -1.0533    0.7210 C   0  0  0  0  0  0  0  0  0  0  0  0
    2.1823   -0.7868    1.8925 N   0  0  0  0  0  0  0  0  0  0  0  0
    2.4998   -1.9559    2.3947 C   0  0  0  0  0  0  0  0  0  0  0  0
    3.0269   -2.1024    3.3329 H   0  0  0  0  0  0  0  0  0  0  0  0
    2.0852   -2.9700    1.5507 N   0  0  0  0  0  0  0  0  0  0  0  0
    2.1852   -3.9654    1.7364 H   0  0  0  0  0  0  0  0  0  0  0  0
    1.4529   -2.3969    0.4682 C   0  0  0  0  0  0  0  0  0  0  0  0
    0.9983   -2.8881   -0.3857 H   0  0  0  0  0  0  0  0  0  0  0  0
   -0.4930    1.9147   -0.7134 C   0  0  0  0  0  0  0  0  0  0  0  0
   -1.3284    1.7700   -1.6014 O   0  0  0  0  0  0  0  0  0  0  0  0
    0.2053    3.1049   -0.6221 N   0  0  0  0  0  0  0  0  0  0  0  0
    0.8692    3.2029    0.1420 H   0  0  0  0  0  0  0  0  0  0  0  0
    0.0228    4.2170   -1.5464 C   0  0  0  0  0  0  0  0  0  0  0  0
   -1.0132    4.5711   -1.5203 H   0  0  0  0  0  0  0  0  0  0  0  0
    0.6790    5.0485   -1.2716 H   0  0  0  0  0  0  0  0  0  0  0  0
    0.2652    3.9089   -2.5689 H   0  0  0  0  0  0  0  0  0  0  0  0
  1  2  1  0  0  0  0
  2  3  1  0  0  0  0
  2  4  1  0  0  0  0
  2  5  1  0  0  0  0
  5  6  2  0  0  0  0
  5  7  1  0  0  0  0
  7  8  1  0  0  0  0
  7  9  1  0  0  0  0
  9 10  1  0  0  0  0
  9 11  1  0  0  0  0
  9 22  1  0  0  0  0
 11 12  1  0  0  0  0
 11 13  1  0  0  0  0
 11 14  1  0  0  0  0
 14 15  1  0  0  0  0
 14 20  2  0  0  0  0
 15 16  2  0  0  0  0
 16 17  1  0  0  0  0
 16 18  1  0  0  0  0
 18 19  1  0  0  0  0
 18 20  1  0  0  0  0
 20 21  1  0  0  0  0
 22 23  2  0  0  0  0
 22 24  1  0  0  0  0
 24 25  1  0  0  0  0
 24 26  1  0  0  0  0
 26 27  1  0  0  0  0
 26 28  1  0  0  0  0
 26 29  1  0  0  0  0
M  END
$$$$

  -OEChem-01062216083D

 29 29  0     1  0  0  0  0  0999 V2000
   -3.0857   -2.9078    1.1625 H   0  0  0  0  0  0  0  0  0  0  0  0
   -3.0392   -1.9494    0.6378 C   0  0  0  0  0  0  0  0  0  0  0  0
   -3.9210   -1.3603    0.9016 H   0  0  0  0  0  0  0  0  0  0  0  0
   -3.0432   -2.1374   -0.4386 H   0  0  0  0  0  0  0  0  0  0  0  0
   -1.7800   -1.1985    1.0292 C   0  0  0  0  0  0  0  0  0  0  0  0
   -1.0949   -1.6342    1.9351 O   0  0  0  0  0  0  0  0  0  0  0  0
   -1.5355    0.0283    0.4487 N   0  0  0  0  0  0  0  0  0  0  0  0
   -2.2379    0.3073   -0.2371 H   0  0  0  0  0  0  0  0  0  0  0  0
   -0.2793    0.8015    0.3281 C   0  0  1  0  0  0  0  0  0  0  0  0
   -0.0605    1.2576    1.2991 H   0  0  0  0  0  0  0  0  0  0  0  0
    0.9824    0.0365   -0.1603 C   0  0  0  0  0  0  0  0  0  0  0  0
    0.7593   -0.3988   -1.1389 H   0  0  0  0  0  0  0  0  0  0  0  0
    1.8068    0.7421   -0.2966 H   0  0  0  0  0  0  0  0  0  0  0  0
    1.4957   -1.0528    0.7262 C   0  0  0  0  0  0  0  0  0  0  0  0
    2.1868   -0.7806    1.8997 N   0  0  0  0  0  0  0  0  0  0  0  0
    2.5171   -1.9469    2.4003 C   0  0  0  0  0  0  0  0  0  0  0  0
    3.0440   -2.0893    3.3393 H   0  0  0  0  0  0  0  0  0  0  0  0
    2.1172   -2.9639    1.5528 N   0  0  0  0  0  0  0  0  0  0  0  0
    2.2279   -3.9585    1.7369 H   0  0  0  0  0  0  0  0  0  0  0  0
    1.4811   -2.3961    0.4697 C   0  0  0  0  0  0  0  0  0  0  0  0
    1.0363   -2.8909   -0.3871 H   0  0  0  0  0  0  0  0  0  0  0  0
   -0.4926    1.9159   -0.7232 C   0  0  0  0  0  0  0  0  0  0  0  0
   -1.4602    1.8757   -1.4785 O   0  0  0  0  0  0  0  0  0  0  0  0
    0.3950    2.9729   -0.8189 N   0  0  0  0  0  0  0  0  0  0  0  0
    1.1692    2.9963   -0.1601 H   0  0  0  0  0  0  0  0  0  0  0  0
    0.2448    4.0672   -1.7699 C   0  0  0  0  0  0  0  0  0  0  0  0
   -0.6892    4.6085   -1.5861 H   0  0  0  0  0  0  0  0  0  0  0  0
    1.0778    4.7703   -1.6715 H   0  0  0  0  0  0  0  0  0  0  0  0
    0.2353    3.6852   -2.7962 H   0  0  0  0  0  0  0  0  0  0  0  0
  1  2  1  0  0  0  0
  2  3  1  0  0  0  0
  2  4  1  0  0  0  0
  2  5  1  0  0  0  0
  5  6  2  0  0  0  0
  5  7  1  0  0  0  0
  7  8  1  0  0  0  0
  7  9  1  0  0  0  0
  9 10  1  0  0  0  0
  9 11  1  0  0  0  0
  9 22  1  0  0  0  0
 11 12  1  0  0  0  0
 11 13  1  0  0  0  0
 11 14  1  0  0  0  0
 14 15  1  0  0  0  0
 14 20  2  0  0  0  0
 15 16  2  0  0  0  0
 16 17  1  0  0  0  0
 16 18  1  0  0  0  0
 18 19  1  0  0  0  0
 18 20  1  0  0  0  0
 20 21  1  0  0  0  0
 22 23  2  0  0  0  0
 22 24  1  0  0  0  0
 24 25  1  0  0  0  0
 24 26  1  0  0  0  0
 26 27  1  0  0  0  0
 26 28  1  0  0  0  0
 26 29  1  0  0  0  0
M  END
$$$$
