
  -OEChem-02062319033D

 45 44  0     1  0  0  0  0  0999 V2000
   -2.2987    4.1032   -0.3022 C   0  0  0  0  0  0  0  0  0  0  0  0
   -1.8049    3.7117   -1.3532 O   0  0  0  0  0  0  0  0  0  0  0  0
   -3.0791    5.3755   -0.2846 C   0  0  0  0  0  0  0  0  0  0  0  0
   -2.4478    6.2532   -0.0717 H   0  0  0  0  0  0  0  0  0  0  0  0
   -3.5571    5.5891   -1.2541 H   0  0  0  0  0  0  0  0  0  0  0  0
   -3.8940    5.4184    0.4556 H   0  0  0  0  0  0  0  0  0  0  0  0
   -2.2137    3.4712    0.9275 N   0  0  0  0  0  0  0  0  0  0  0  0
   -1.5102    2.2327    1.1338 C   0  0  2  0  0  0  0  0  0  0  0  0
   -1.3539    1.5497   -0.2184 C   0  0  0  0  0  0  0  0  0  0  0  0
   -2.0852    1.7861   -1.1778 O   0  0  0  0  0  0  0  0  0  0  0  0
   -2.2477    1.3342    2.1145 C   0  0  0  0  0  0  0  0  0  0  0  0
   -2.6724    3.9052    1.7265 H   0  0  0  0  0  0  0  0  0  0  0  0
   -0.5220    2.4922    1.5290 H   0  0  0  0  0  0  0  0  0  0  0  0
   -3.2400    1.0636    1.7358 H   0  0  0  0  0  0  0  0  0  0  0  0
   -1.6970    0.4046    2.2923 H   0  0  0  0  0  0  0  0  0  0  0  0
   -2.3854    1.8384    3.0772 H   0  0  0  0  0  0  0  0  0  0  0  0
   -0.3283    0.6116   -0.2182 N   0  0  0  0  0  0  0  0  0  0  0  0
    0.0168   -0.1677   -1.3793 C   0  0  2  0  0  0  0  0  0  0  0  0
   -1.2097   -0.9793   -1.7766 C   0  0  0  0  0  0  0  0  0  0  0  0
   -1.5755   -1.1123   -2.9426 O   0  0  0  0  0  0  0  0  0  0  0  0
    1.2111   -1.0818   -1.1185 C   0  0  0  0  0  0  0  0  0  0  0  0
    2.4822   -0.2867   -0.9484 C   0  0  0  0  0  0  0  0  0  0  0  0
    2.6875    0.7971   -1.4792 O   0  0  0  0  0  0  0  0  0  0  0  0
    3.3858   -0.9123   -0.1541 O   0  0  0  0  0  0  0  0  0  0  0  0
    0.2325    0.4908    0.6223 H   0  0  0  0  0  0  0  0  0  0  0  0
    0.2406    0.5515   -2.1764 H   0  0  0  0  0  0  0  0  0  0  0  0
    1.0750   -1.6571   -0.1941 H   0  0  0  0  0  0  0  0  0  0  0  0
    1.3486   -1.8260   -1.9123 H   0  0  0  0  0  0  0  0  0  0  0  0
    4.2316   -0.4307   -0.0299 H   0  0  0  0  0  0  0  0  0  0  0  0
   -1.8190   -1.5760   -0.6816 N   0  0  0  0  0  0  0  0  0  0  0  0
   -2.9928   -2.4090   -0.8008 C   0  0  2  0  0  0  0  0  0  0  0  0
   -2.5961   -3.6769   -1.5455 C   0  0  0  0  0  0  0  0  0  0  0  0
   -1.6156   -3.7421   -2.2840 O   0  0  0  0  0  0  0  0  0  0  0  0
   -4.1157   -1.6823   -1.5245 C   0  0  0  0  0  0  0  0  0  0  0  0
   -1.4233   -1.4206    0.2409 H   0  0  0  0  0  0  0  0  0  0  0  0
   -3.3036   -2.6651    0.2179 H   0  0  0  0  0  0  0  0  0  0  0  0
   -3.8228   -1.4175   -2.5470 H   0  0  0  0  0  0  0  0  0  0  0  0
   -5.0143   -2.3048   -1.5889 H   0  0  0  0  0  0  0  0  0  0  0  0
   -4.3794   -0.7555   -1.0037 H   0  0  0  0  0  0  0  0  0  0  0  0
   -3.4902   -4.7146   -1.3223 N   0  0  0  0  0  0  0  0  0  0  0  0
   -3.3395   -6.0173   -1.9274 C   0  0  0  0  0  0  0  0  0  0  0  0
   -4.2650   -4.5772   -0.6799 H   0  0  0  0  0  0  0  0  0  0  0  0
   -3.9034   -6.0513   -2.8712 H   0  0  0  0  0  0  0  0  0  0  0  0
   -2.2749   -6.2066   -2.1295 H   0  0  0  0  0  0  0  0  0  0  0  0
   -3.7250   -6.7866   -1.2421 H   0  0  0  0  0  0  0  0  0  0  0  0
  1  3  1  0  0  0  0
  1  7  1  0  0  0  0
  1  2  2  0  0  0  0
 31 32  1  0  0  0  0
 32 40  1  0  0  0  0
 32 33  2  0  0  0  0
  8  9  1  0  0  0  0
  9 17  1  0  0  0  0
  9 10  2  0  0  0  0
 18 19  1  0  0  0  0
 19 30  1  0  0  0  0
 19 20  2  0  0  0  0
 21 22  1  0  0  0  0
 22 23  2  0  0  0  0
 22 24  1  0  0  0  0
 31 34  1  0  0  0  0
  8 11  1  0  0  0  0
 40 41  1  0  0  0  0
 18 21  1  0  0  0  0
 30 31  1  0  0  0  0
  7  8  1  0  0  0  0
 17 18  1  0  0  0  0
  3  4  1  0  0  0  0
  3  5  1  0  0  0  0
  3  6  1  0  0  0  0
 34 37  1  0  0  0  0
 34 38  1  0  0  0  0
 34 39  1  0  0  0  0
 11 14  1  0  0  0  0
 11 15  1  0  0  0  0
 11 16  1  0  0  0  0
 41 43  1  0  0  0  0
 41 44  1  0  0  0  0
 41 45  1  0  0  0  0
 21 27  1  0  0  0  0
 21 28  1  0  0  0  0
 31 36  1  0  0  0  0
  8 13  1  0  0  0  0
 18 26  1  0  0  0  0
 40 42  1  0  0  0  0
  7 12  1  0  0  0  0
 30 35  1  0  0  0  0
 17 25  1  0  0  0  0
 24 29  1  0  0  0  0
M  END
$$$$

  -OEChem-02062319033D

 45 44  0     1  0  0  0  0  0999 V2000
   -2.2987    4.1032   -0.3022 C   0  0  0  0  0  0  0  0  0  0  0  0
   -1.8049    3.7117   -1.3532 O   0  0  0  0  0  0  0  0  0  0  0  0
   -3.0791    5.3755   -0.2846 C   0  0  0  0  0  0  0  0  0  0  0  0
   -2.4478    6.2532   -0.0717 H   0  0  0  0  0  0  0  0  0  0  0  0
   -3.5571    5.5891   -1.2541 H   0  0  0  0  0  0  0  0  0  0  0  0
   -3.8940    5.4184    0.4556 H   0  0  0  0  0  0  0  0  0  0  0  0
   -2.2137    3.4712    0.9275 N   0  0  0  0  0  0  0  0  0  0  0  0
   -1.5102    2.2327    1.1338 C   0  0  2  0  0  0  0  0  0  0  0  0
   -1.3539    1.5497   -0.2184 C   0  0  0  0  0  0  0  0  0  0  0  0
   -2.0852    1.7861   -1.1778 O   0  0  0  0  0  0  0  0  0  0  0  0
   -2.2477    1.3342    2.1145 C   0  0  0  0  0  0  0  0  0  0  0  0
   -2.6724    3.9052    1.7265 H   0  0  0  0  0  0  0  0  0  0  0  0
   -0.5220    2.4922    1.5290 H   0  0  0  0  0  0  0  0  0  0  0  0
   -3.2400    1.0636    1.7358 H   0  0  0  0  0  0  0  0  0  0  0  0
   -1.6970    0.4046    2.2923 H   0  0  0  0  0  0  0  0  0  0  0  0
   -2.3854    1.8384    3.0772 H   0  0  0  0  0  0  0  0  0  0  0  0
   -0.3283    0.6116   -0.2182 N   0  0  0  0  0  0  0  0  0  0  0  0
    0.2276    0.0627   -1.4283 C   0  0  2  0  0  0  0  0  0  0  0  0
   -0.8968   -0.6372   -2.1813 C   0  0  0  0  0  0  0  0  0  0  0  0
   -1.0509   -0.5388   -3.3969 O   0  0  0  0  0  0  0  0  0  0  0  0
    1.3733   -0.9045   -1.1424 C   0  0  0  0  0  0  0  0  0  0  0  0
    2.5815   -0.1781   -0.6042 C   0  0  0  0  0  0  0  0  0  0  0  0
    2.8579    0.9834   -0.8740 O   0  0  0  0  0  0  0  0  0  0  0  0
    3.3429   -0.9591    0.2014 O   0  0  0  0  0  0  0  0  0  0  0  0
    0.0790    0.3230    0.6686 H   0  0  0  0  0  0  0  0  0  0  0  0
    0.5749    0.9170   -2.0218 H   0  0  0  0  0  0  0  0  0  0  0  0
    1.0876   -1.6434   -0.3831 H   0  0  0  0  0  0  0  0  0  0  0  0
    1.6600   -1.4856   -2.0272 H   0  0  0  0  0  0  0  0  0  0  0  0
    4.1456   -0.5245    0.5612 H   0  0  0  0  0  0  0  0  0  0  0  0
   -1.6776   -1.4217   -1.3440 N   0  0  0  0  0  0  0  0  0  0  0  0
   -2.7983   -2.1965   -1.8233 C   0  0  2  0  0  0  0  0  0  0  0  0
   -2.2561   -3.3054   -2.7154 C   0  0  0  0  0  0  0  0  0  0  0  0
   -1.1607   -3.2450   -3.2699 O   0  0  0  0  0  0  0  0  0  0  0  0
   -3.7897   -1.3262   -2.5797 C   0  0  0  0  0  0  0  0  0  0  0  0
   -1.4519   -1.4520   -0.3541 H   0  0  0  0  0  0  0  0  0  0  0  0
   -3.2778   -2.6373   -0.9425 H   0  0  0  0  0  0  0  0  0  0  0  0
   -3.3273   -0.8759   -3.4656 H   0  0  0  0  0  0  0  0  0  0  0  0
   -4.6526   -1.9096   -2.9177 H   0  0  0  0  0  0  0  0  0  0  0  0
   -4.1561   -0.5116   -1.9457 H   0  0  0  0  0  0  0  0  0  0  0  0
   -3.1577   -4.3514   -2.8542 N   0  0  0  0  0  0  0  0  0  0  0  0
   -2.8814   -5.5169   -3.6611 C   0  0  0  0  0  0  0  0  0  0  0  0
   -4.0349   -4.3261   -2.3428 H   0  0  0  0  0  0  0  0  0  0  0  0
   -3.2712   -5.3605   -4.6778 H   0  0  0  0  0  0  0  0  0  0  0  0
   -1.7948   -5.6821   -3.7066 H   0  0  0  0  0  0  0  0  0  0  0  0
   -3.3675   -6.3963   -3.2135 H   0  0  0  0  0  0  0  0  0  0  0  0
  1  3  1  0  0  0  0
  1  7  1  0  0  0  0
  1  2  2  0  0  0  0
 31 32  1  0  0  0  0
 32 40  1  0  0  0  0
 32 33  2  0  0  0  0
  8  9  1  0  0  0  0
  9 17  1  0  0  0  0
  9 10  2  0  0  0  0
 18 19  1  0  0  0  0
 19 30  1  0  0  0  0
 19 20  2  0  0  0  0
 21 22  1  0  0  0  0
 22 23  2  0  0  0  0
 22 24  1  0  0  0  0
 31 34  1  0  0  0  0
  8 11  1  0  0  0  0
 40 41  1  0  0  0  0
 18 21  1  0  0  0  0
 30 31  1  0  0  0  0
  7  8  1  0  0  0  0
 17 18  1  0  0  0  0
  3  4  1  0  0  0  0
  3  5  1  0  0  0  0
  3  6  1  0  0  0  0
 34 37  1  0  0  0  0
 34 38  1  0  0  0  0
 34 39  1  0  0  0  0
 11 14  1  0  0  0  0
 11 15  1  0  0  0  0
 11 16  1  0  0  0  0
 41 43  1  0  0  0  0
 41 44  1  0  0  0  0
 41 45  1  0  0  0  0
 21 27  1  0  0  0  0
 21 28  1  0  0  0  0
 31 36  1  0  0  0  0
  8 13  1  0  0  0  0
 18 26  1  0  0  0  0
 40 42  1  0  0  0  0
  7 12  1  0  0  0  0
 30 35  1  0  0  0  0
 17 25  1  0  0  0  0
 24 29  1  0  0  0  0
M  END
$$$$

  -OEChem-02062319033D

 45 44  0     1  0  0  0  0  0999 V2000
   -2.2987    4.1032   -0.3022 C   0  0  0  0  0  0  0  0  0  0  0  0
   -1.8049    3.7117   -1.3532 O   0  0  0  0  0  0  0  0  0  0  0  0
   -3.0791    5.3755   -0.2846 C   0  0  0  0  0  0  0  0  0  0  0  0
   -2.4478    6.2532   -0.0717 H   0  0  0  0  0  0  0  0  0  0  0  0
   -3.5571    5.5891   -1.2541 H   0  0  0  0  0  0  0  0  0  0  0  0
   -3.8940    5.4184    0.4556 H   0  0  0  0  0  0  0  0  0  0  0  0
   -2.2137    3.4712    0.9275 N   0  0  0  0  0  0  0  0  0  0  0  0
   -1.5102    2.2327    1.1338 C   0  0  2  0  0  0  0  0  0  0  0  0
   -1.3539    1.5497   -0.2184 C   0  0  0  0  0  0  0  0  0  0  0  0
   -2.0852    1.7861   -1.1778 O   0  0  0  0  0  0  0  0  0  0  0  0
   -2.2477    1.3342    2.1145 C   0  0  0  0  0  0  0  0  0  0  0  0
   -2.6724    3.9052    1.7265 H   0  0  0  0  0  0  0  0  0  0  0  0
   -0.5220    2.4922    1.5290 H   0  0  0  0  0  0  0  0  0  0  0  0
   -3.2400    1.0636    1.7358 H   0  0  0  0  0  0  0  0  0  0  0  0
   -1.6970    0.4046    2.2923 H   0  0  0  0  0  0  0  0  0  0  0  0
   -2.3854    1.8384    3.0772 H   0  0  0  0  0  0  0  0  0  0  0  0
   -0.3283    0.6116   -0.2182 N   0  0  0  0  0  0  0  0  0  0  0  0
    0.4397    0.2946   -1.3948 C   0  0  2  0  0  0  0  0  0  0  0  0
   -0.5238   -0.2295   -2.4522 C   0  0  0  0  0  0  0  0  0  0  0  0
   -0.4649    0.1018   -3.6346 O   0  0  0  0  0  0  0  0  0  0  0  0
    1.5341   -0.7286   -1.1032 C   0  0  0  0  0  0  0  0  0  0  0  0
    2.6172   -0.1390   -0.2336 C   0  0  0  0  0  0  0  0  0  0  0  0
    2.9166    1.0479   -0.2241 O   0  0  0  0  0  0  0  0  0  0  0  0
    3.2394   -1.0722    0.5284 O   0  0  0  0  0  0  0  0  0  0  0  0
   -0.0773    0.1521    0.6544 H   0  0  0  0  0  0  0  0  0  0  0  0
    0.8707    1.2405   -1.7443 H   0  0  0  0  0  0  0  0  0  0  0  0
    1.1328   -1.5940   -0.5608 H   0  0  0  0  0  0  0  0  0  0  0  0
    1.9808   -1.1348   -2.0188 H   0  0  0  0  0  0  0  0  0  0  0  0
    3.9594   -0.7280    1.0991 H   0  0  0  0  0  0  0  0  0  0  0  0
   -1.4254   -1.1461   -1.9297 N   0  0  0  0  0  0  0  0  0  0  0  0
   -2.4318   -1.7961   -2.7364 C   0  0  2  0  0  0  0  0  0  0  0  0
   -1.7233   -2.7232   -3.7152 C   0  0  0  0  0  0  0  0  0  0  0  0
   -0.5491   -2.5765   -4.0479 O   0  0  0  0  0  0  0  0  0  0  0  0
   -3.2905   -0.7806   -3.4740 C   0  0  0  0  0  0  0  0  0  0  0  0
   -1.3756   -1.3688   -0.9399 H   0  0  0  0  0  0  0  0  0  0  0  0
   -3.0502   -2.3888   -2.0535 H   0  0  0  0  0  0  0  0  0  0  0  0
   -2.6882   -0.1773   -4.1629 H   0  0  0  0  0  0  0  0  0  0  0  0
   -4.0710   -1.2740   -4.0626 H   0  0  0  0  0  0  0  0  0  0  0  0
   -3.7758   -0.0960   -2.7700 H   0  0  0  0  0  0  0  0  0  0  0  0
   -2.5688   -3.7079   -4.2065 N   0  0  0  0  0  0  0  0  0  0  0  0
   -2.1361   -4.7024   -5.1602 C   0  0  0  0  0  0  0  0  0  0  0  0
   -3.5222   -3.7660   -3.8609 H   0  0  0  0  0  0  0  0  0  0  0  0
   -2.3449   -4.3481   -6.1805 H   0  0  0  0  0  0  0  0  0  0  0  0
   -1.0556   -4.8742   -5.0459 H   0  0  0  0  0  0  0  0  0  0  0  0
   -2.6779   -5.6428   -4.9807 H   0  0  0  0  0  0  0  0  0  0  0  0
  1  3  1  0  0  0  0
  1  7  1  0  0  0  0
  1  2  2  0  0  0  0
 31 32  1  0  0  0  0
 32 40  1  0  0  0  0
 32 33  2  0  0  0  0
  8  9  1  0  0  0  0
  9 17  1  0  0  0  0
  9 10  2  0  0  0  0
 18 19  1  0  0  0  0
 19 30  1  0  0  0  0
 19 20  2  0  0  0  0
 21 22  1  0  0  0  0
 22 23  2  0  0  0  0
 22 24  1  0  0  0  0
 31 34  1  0  0  0  0
  8 11  1  0  0  0  0
 40 41  1  0  0  0  0
 18 21  1  0  0  0  0
 30 31  1  0  0  0  0
  7  8  1  0  0  0  0
 17 18  1  0  0  0  0
  3  4  1  0  0  0  0
  3  5  1  0  0  0  0
  3  6  1  0  0  0  0
 34 37  1  0  0  0  0
 34 38  1  0  0  0  0
 34 39  1  0  0  0  0
 11 14  1  0  0  0  0
 11 15  1  0  0  0  0
 11 16  1  0  0  0  0
 41 43  1  0  0  0  0
 41 44  1  0  0  0  0
 41 45  1  0  0  0  0
 21 27  1  0  0  0  0
 21 28  1  0  0  0  0
 31 36  1  0  0  0  0
  8 13  1  0  0  0  0
 18 26  1  0  0  0  0
 40 42  1  0  0  0  0
  7 12  1  0  0  0  0
 30 35  1  0  0  0  0
 17 25  1  0  0  0  0
 24 29  1  0  0  0  0
M  END
$$$$

  -OEChem-02062319033D

 45 44  0     1  0  0  0  0  0999 V2000
   -2.2987    4.1032   -0.3022 C   0  0  0  0  0  0  0  0  0  0  0  0
   -1.8049    3.7117   -1.3532 O   0  0  0  0  0  0  0  0  0  0  0  0
   -3.0791    5.3755   -0.2846 C   0  0  0  0  0  0  0  0  0  0  0  0
   -2.4478    6.2532   -0.0717 H   0  0  0  0  0  0  0  0  0  0  0  0
   -3.5571    5.5891   -1.2541 H   0  0  0  0  0  0  0  0  0  0  0  0
   -3.8940    5.4184    0.4556 H   0  0  0  0  0  0  0  0  0  0  0  0
   -2.2137    3.4712    0.9275 N   0  0  0  0  0  0  0  0  0  0  0  0
   -1.5102    2.2327    1.1338 C   0  0  2  0  0  0  0  0  0  0  0  0
   -1.3539    1.5497   -0.2184 C   0  0  0  0  0  0  0  0  0  0  0  0
   -2.0852    1.7861   -1.1778 O   0  0  0  0  0  0  0  0  0  0  0  0
   -2.2477    1.3342    2.1145 C   0  0  0  0  0  0  0  0  0  0  0  0
   -2.6724    3.9052    1.7265 H   0  0  0  0  0  0  0  0  0  0  0  0
   -0.5220    2.4922    1.5290 H   0  0  0  0  0  0  0  0  0  0  0  0
   -3.2400    1.0636    1.7358 H   0  0  0  0  0  0  0  0  0  0  0  0
   -1.6970    0.4046    2.2923 H   0  0  0  0  0  0  0  0  0  0  0  0
   -2.3854    1.8384    3.0772 H   0  0  0  0  0  0  0  0  0  0  0  0
   -0.3283    0.6116   -0.2182 N   0  0  0  0  0  0  0  0  0  0  0  0
    0.6387    0.5122   -1.2812 C   0  0  2  0  0  0  0  0  0  0  0  0
   -0.1162    0.2161   -2.5709 C   0  0  0  0  0  0  0  0  0  0  0  0
    0.1426    0.7661   -3.6394 O   0  0  0  0  0  0  0  0  0  0  0  0
    1.6826   -0.5662   -1.0037 C   0  0  0  0  0  0  0  0  0  0  0  0
    2.5869   -0.1720    0.1381 C   0  0  0  0  0  0  0  0  0  0  0  0
    2.8599    0.9860    0.4262 O   0  0  0  0  0  0  0  0  0  0  0  0
    3.0823   -1.2439    0.8046 O   0  0  0  0  0  0  0  0  0  0  0  0
   -0.2258   -0.0103    0.5807 H   0  0  0  0  0  0  0  0  0  0  0  0
    1.1080    1.5000   -1.3627 H   0  0  0  0  0  0  0  0  0  0  0  0
    1.2075   -1.5123   -0.7151 H   0  0  0  0  0  0  0  0  0  0  0  0
    2.2892   -0.7976   -1.8877 H   0  0  0  0  0  0  0  0  0  0  0  0
    3.6856   -1.0272    1.5474 H   0  0  0  0  0  0  0  0  0  0  0  0
   -1.0796   -0.7680   -2.3987 N   0  0  0  0  0  0  0  0  0  0  0  0
   -1.9183   -1.2349   -3.4778 C   0  0  2  0  0  0  0  0  0  0  0  0
   -1.0341   -1.9698   -4.4766 C   0  0  0  0  0  0  0  0  0  0  0  0
    0.1776   -1.7821   -4.5648 O   0  0  0  0  0  0  0  0  0  0  0  0
   -2.6522   -0.0828   -4.1464 C   0  0  0  0  0  0  0  0  0  0  0  0
   -1.1996   -1.1765   -1.4764 H   0  0  0  0  0  0  0  0  0  0  0  0
   -2.6363   -1.9365   -3.0395 H   0  0  0  0  0  0  0  0  0  0  0  0
   -1.9491    0.6307   -4.5914 H   0  0  0  0  0  0  0  0  0  0  0  0
   -3.3093   -0.4415   -4.9455 H   0  0  0  0  0  0  0  0  0  0  0  0
   -3.2645    0.4628   -3.4204 H   0  0  0  0  0  0  0  0  0  0  0  0
   -1.7639   -2.8281   -5.2869 N   0  0  0  0  0  0  0  0  0  0  0  0
   -1.1543   -3.6294   -6.3225 C   0  0  0  0  0  0  0  0  0  0  0  0
   -2.7619   -2.9350   -5.1308 H   0  0  0  0  0  0  0  0  0  0  0  0
   -1.1877   -3.0832   -7.2768 H   0  0  0  0  0  0  0  0  0  0  0  0
   -0.1077   -3.8381   -6.0561 H   0  0  0  0  0  0  0  0  0  0  0  0
   -1.7031   -4.5773   -6.4233 H   0  0  0  0  0  0  0  0  0  0  0  0
  1  3  1  0  0  0  0
  1  7  1  0  0  0  0
  1  2  2  0  0  0  0
 31 32  1  0  0  0  0
 32 40  1  0  0  0  0
 32 33  2  0  0  0  0
  8  9  1  0  0  0  0
  9 17  1  0  0  0  0
  9 10  2  0  0  0  0
 18 19  1  0  0  0  0
 19 30  1  0  0  0  0
 19 20  2  0  0  0  0
 21 22  1  0  0  0  0
 22 23  2  0  0  0  0
 22 24  1  0  0  0  0
 31 34  1  0  0  0  0
  8 11  1  0  0  0  0
 40 41  1  0  0  0  0
 18 21  1  0  0  0  0
 30 31  1  0  0  0  0
  7  8  1  0  0  0  0
 17 18  1  0  0  0  0
  3  4  1  0  0  0  0
  3  5  1  0  0  0  0
  3  6  1  0  0  0  0
 34 37  1  0  0  0  0
 34 38  1  0  0  0  0
 34 39  1  0  0  0  0
 11 14  1  0  0  0  0
 11 15  1  0  0  0  0
 11 16  1  0  0  0  0
 41 43  1  0  0  0  0
 41 44  1  0  0  0  0
 41 45  1  0  0  0  0
 21 27  1  0  0  0  0
 21 28  1  0  0  0  0
 31 36  1  0  0  0  0
  8 13  1  0  0  0  0
 18 26  1  0  0  0  0
 40 42  1  0  0  0  0
  7 12  1  0  0  0  0
 30 35  1  0  0  0  0
 17 25  1  0  0  0  0
 24 29  1  0  0  0  0
M  END
$$$$

  -OEChem-02062319033D

 45 44  0     1  0  0  0  0  0999 V2000
   -2.2987    4.1032   -0.3022 C   0  0  0  0  0  0  0  0  0  0  0  0
   -1.8049    3.7117   -1.3532 O   0  0  0  0  0  0  0  0  0  0  0  0
   -3.0791    5.3755   -0.2846 C   0  0  0  0  0  0  0  0  0  0  0  0
   -2.4478    6.2532   -0.0717 H   0  0  0  0  0  0  0  0  0  0  0  0
   -3.5571    5.5891   -1.2541 H   0  0  0  0  0  0  0  0  0  0  0  0
   -3.8940    5.4184    0.4556 H   0  0  0  0  0  0  0  0  0  0  0  0
   -2.2137    3.4712    0.9275 N   0  0  0  0  0  0  0  0  0  0  0  0
   -1.5102    2.2327    1.1338 C   0  0  2  0  0  0  0  0  0  0  0  0
   -1.3539    1.5497   -0.2184 C   0  0  0  0  0  0  0  0  0  0  0  0
   -2.0852    1.7861   -1.1778 O   0  0  0  0  0  0  0  0  0  0  0  0
   -2.2477    1.3342    2.1145 C   0  0  0  0  0  0  0  0  0  0  0  0
   -2.6724    3.9052    1.7265 H   0  0  0  0  0  0  0  0  0  0  0  0
   -0.5220    2.4922    1.5290 H   0  0  0  0  0  0  0  0  0  0  0  0
   -3.2400    1.0636    1.7358 H   0  0  0  0  0  0  0  0  0  0  0  0
   -1.6970    0.4046    2.2923 H   0  0  0  0  0  0  0  0  0  0  0  0
   -2.3854    1.8384    3.0772 H   0  0  0  0  0  0  0  0  0  0  0  0
   -0.3283    0.6116   -0.2182 N   0  0  0  0  0  0  0  0  0  0  0  0
    0.8110    0.7007   -1.0950 C   0  0  2  0  0  0  0  0  0  0  0  0
    0.2982    0.6692   -2.5292 C   0  0  0  0  0  0  0  0  0  0  0  0
    0.7303    1.4087   -3.4110 O   0  0  0  0  0  0  0  0  0  0  0  0
    1.8087   -0.4284   -0.8506 C   0  0  0  0  0  0  0  0  0  0  0  0
    2.4928   -0.2748    0.4855 C   0  0  0  0  0  0  0  0  0  0  0  0
    2.6915    0.8021    1.0327 O   0  0  0  0  0  0  0  0  0  0  0  0
    2.8823   -1.4626    1.0111 O   0  0  0  0  0  0  0  0  0  0  0  0
   -0.3563   -0.1530    0.4526 H   0  0  0  0  0  0  0  0  0  0  0  0
    1.2705    1.6778   -0.9032 H   0  0  0  0  0  0  0  0  0  0  0  0
    1.3066   -1.4040   -0.8356 H   0  0  0  0  0  0  0  0  0  0  0  0
    2.5642   -0.4969   -1.6427 H   0  0  0  0  0  0  0  0  0  0  0  0
    3.3428   -1.4020    1.8753 H   0  0  0  0  0  0  0  0  0  0  0  0
   -0.6635   -0.3132   -2.7191 N   0  0  0  0  0  0  0  0  0  0  0  0
   -1.2928   -0.5511   -3.9971 C   0  0  2  0  0  0  0  0  0  0  0  0
   -0.2354   -1.0966   -4.9478 C   0  0  0  0  0  0  0  0  0  0  0  0
    0.9697   -0.9161   -4.7855 O   0  0  0  0  0  0  0  0  0  0  0  0
   -1.9182    0.7196   -4.5511 C   0  0  0  0  0  0  0  0  0  0  0  0
   -0.9358   -0.8882   -1.9273 H   0  0  0  0  0  0  0  0  0  0  0  0
   -2.0644   -1.3113   -3.8332 H   0  0  0  0  0  0  0  0  0  0  0  0
   -1.1604    1.4930   -4.7219 H   0  0  0  0  0  0  0  0  0  0  0  0
   -2.4194    0.5314   -5.5063 H   0  0  0  0  0  0  0  0  0  0  0  0
   -2.6571    1.1269   -3.8526 H   0  0  0  0  0  0  0  0  0  0  0  0
   -0.7977   -1.7719   -6.0219 N   0  0  0  0  0  0  0  0  0  0  0  0
   -0.0031   -2.3708   -7.0688 C   0  0  0  0  0  0  0  0  0  0  0  0
   -1.8057   -1.8897   -6.0658 H   0  0  0  0  0  0  0  0  0  0  0  0
    0.1214   -1.6520   -7.8921 H   0  0  0  0  0  0  0  0  0  0  0  0
    0.9843   -2.6443   -6.6685 H   0  0  0  0  0  0  0  0  0  0  0  0
   -0.5096   -3.2727   -7.4431 H   0  0  0  0  0  0  0  0  0  0  0  0
  1  3  1  0  0  0  0
  1  7  1  0  0  0  0
  1  2  2  0  0  0  0
 31 32  1  0  0  0  0
 32 40  1  0  0  0  0
 32 33  2  0  0  0  0
  8  9  1  0  0  0  0
  9 17  1  0  0  0  0
  9 10  2  0  0  0  0
 18 19  1  0  0  0  0
 19 30  1  0  0  0  0
 19 20  2  0  0  0  0
 21 22  1  0  0  0  0
 22 23  2  0  0  0  0
 22 24  1  0  0  0  0
 31 34  1  0  0  0  0
  8 11  1  0  0  0  0
 40 41  1  0  0  0  0
 18 21  1  0  0  0  0
 30 31  1  0  0  0  0
  7  8  1  0  0  0  0
 17 18  1  0  0  0  0
  3  4  1  0  0  0  0
  3  5  1  0  0  0  0
  3  6  1  0  0  0  0
 34 37  1  0  0  0  0
 34 38  1  0  0  0  0
 34 39  1  0  0  0  0
 11 14  1  0  0  0  0
 11 15  1  0  0  0  0
 11 16  1  0  0  0  0
 41 43  1  0  0  0  0
 41 44  1  0  0  0  0
 41 45  1  0  0  0  0
 21 27  1  0  0  0  0
 21 28  1  0  0  0  0
 31 36  1  0  0  0  0
  8 13  1  0  0  0  0
 18 26  1  0  0  0  0
 40 42  1  0  0  0  0
  7 12  1  0  0  0  0
 30 35  1  0  0  0  0
 17 25  1  0  0  0  0
 24 29  1  0  0  0  0
M  END
$$$$

  -OEChem-02062319033D

 45 44  0     1  0  0  0  0  0999 V2000
   -2.2987    4.1032   -0.3022 C   0  0  0  0  0  0  0  0  0  0  0  0
   -1.8049    3.7117   -1.3532 O   0  0  0  0  0  0  0  0  0  0  0  0
   -3.0791    5.3755   -0.2846 C   0  0  0  0  0  0  0  0  0  0  0  0
   -2.4478    6.2532   -0.0717 H   0  0  0  0  0  0  0  0  0  0  0  0
   -3.5571    5.5891   -1.2541 H   0  0  0  0  0  0  0  0  0  0  0  0
   -3.8940    5.4184    0.4556 H   0  0  0  0  0  0  0  0  0  0  0  0
   -2.2137    3.4712    0.9275 N   0  0  0  0  0  0  0  0  0  0  0  0
   -1.5102    2.2327    1.1338 C   0  0  2  0  0  0  0  0  0  0  0  0
   -1.3539    1.5497   -0.2184 C   0  0  0  0  0  0  0  0  0  0  0  0
   -2.0852    1.7861   -1.1778 O   0  0  0  0  0  0  0  0  0  0  0  0
   -2.2477    1.3342    2.1145 C   0  0  0  0  0  0  0  0  0  0  0  0
   -2.6724    3.9052    1.7265 H   0  0  0  0  0  0  0  0  0  0  0  0
   -0.5220    2.4922    1.5290 H   0  0  0  0  0  0  0  0  0  0  0  0
   -3.2400    1.0636    1.7358 H   0  0  0  0  0  0  0  0  0  0  0  0
   -1.6970    0.4046    2.2923 H   0  0  0  0  0  0  0  0  0  0  0  0
   -2.3854    1.8384    3.0772 H   0  0  0  0  0  0  0  0  0  0  0  0
   -0.3283    0.6116   -0.2182 N   0  0  0  0  0  0  0  0  0  0  0  0
    0.9450    0.8473   -0.8491 C   0  0  2  0  0  0  0  0  0  0  0  0
    0.6911    1.0989   -2.3300 C   0  0  0  0  0  0  0  0  0  0  0  0
    1.2580    1.9858   -2.9651 O   0  0  0  0  0  0  0  0  0  0  0  0
    1.9037   -0.3244   -0.6544 C   0  0  0  0  0  0  0  0  0  0  0  0
    2.3412   -0.4405    0.7850 C   0  0  0  0  0  0  0  0  0  0  0  0
    2.4229    0.5085    1.5539 O   0  0  0  0  0  0  0  0  0  0  0  0
    2.6530   -1.7132    1.1339 O   0  0  0  0  0  0  0  0  0  0  0  0
   -0.4600   -0.2665    0.2788 H   0  0  0  0  0  0  0  0  0  0  0  0
    1.3472    1.7618   -0.3970 H   0  0  0  0  0  0  0  0  0  0  0  0
    1.4234   -1.2764   -0.9139 H   0  0  0  0  0  0  0  0  0  0  0  0
    2.7870   -0.2532   -1.3006 H   0  0  0  0  0  0  0  0  0  0  0  0
    2.9544   -1.8265    2.0607 H   0  0  0  0  0  0  0  0  0  0  0  0
   -0.2058    0.1873   -2.8691 N   0  0  0  0  0  0  0  0  0  0  0  0
   -0.5980    0.2085   -4.2589 C   0  0  2  0  0  0  0  0  0  0  0  0
    0.6184   -0.1632   -5.0966 C   0  0  0  0  0  0  0  0  0  0  0  0
    1.7733   -0.0374   -4.6949 O   0  0  0  0  0  0  0  0  0  0  0  0
   -1.1385    1.5721   -4.6606 C   0  0  0  0  0  0  0  0  0  0  0  0
   -0.6024   -0.5237   -2.2616 H   0  0  0  0  0  0  0  0  0  0  0  0
   -1.3733   -0.5558   -4.3805 H   0  0  0  0  0  0  0  0  0  0  0  0
   -0.3758    2.3509   -4.5455 H   0  0  0  0  0  0  0  0  0  0  0  0
   -1.4619    1.5783   -5.7067 H   0  0  0  0  0  0  0  0  0  0  0  0
   -1.9949    1.8509   -4.0372 H   0  0  0  0  0  0  0  0  0  0  0  0
    0.2639   -0.6113   -6.3614 N   0  0  0  0  0  0  0  0  0  0  0  0
    1.2392   -1.0126   -7.3482 C   0  0  0  0  0  0  0  0  0  0  0  0
   -0.7188   -0.7014   -6.6023 H   0  0  0  0  0  0  0  0  0  0  0  0
    1.4934   -0.1520   -7.9844 H   0  0  0  0  0  0  0  0  0  0  0  0
    2.1461   -1.3741   -6.8413 H   0  0  0  0  0  0  0  0  0  0  0  0
    0.8213   -1.8176   -7.9704 H   0  0  0  0  0  0  0  0  0  0  0  0
  1  3  1  0  0  0  0
  1  7  1  0  0  0  0
  1  2  2  0  0  0  0
 31 32  1  0  0  0  0
 32 40  1  0  0  0  0
 32 33  2  0  0  0  0
  8  9  1  0  0  0  0
  9 17  1  0  0  0  0
  9 10  2  0  0  0  0
 18 19  1  0  0  0  0
 19 30  1  0  0  0  0
 19 20  2  0  0  0  0
 21 22  1  0  0  0  0
 22 23  2  0  0  0  0
 22 24  1  0  0  0  0
 31 34  1  0  0  0  0
  8 11  1  0  0  0  0
 40 41  1  0  0  0  0
 18 21  1  0  0  0  0
 30 31  1  0  0  0  0
  7  8  1  0  0  0  0
 17 18  1  0  0  0  0
  3  4  1  0  0  0  0
  3  5  1  0  0  0  0
  3  6  1  0  0  0  0
 34 37  1  0  0  0  0
 34 38  1  0  0  0  0
 34 39  1  0  0  0  0
 11 14  1  0  0  0  0
 11 15  1  0  0  0  0
 11 16  1  0  0  0  0
 41 43  1  0  0  0  0
 41 44  1  0  0  0  0
 41 45  1  0  0  0  0
 21 27  1  0  0  0  0
 21 28  1  0  0  0  0
 31 36  1  0  0  0  0
  8 13  1  0  0  0  0
 18 26  1  0  0  0  0
 40 42  1  0  0  0  0
  7 12  1  0  0  0  0
 30 35  1  0  0  0  0
 17 25  1  0  0  0  0
 24 29  1  0  0  0  0
M  END
$$$$

  -OEChem-02062319033D

 45 44  0     1  0  0  0  0  0999 V2000
   -2.2987    4.1032   -0.3022 C   0  0  0  0  0  0  0  0  0  0  0  0
   -1.8049    3.7117   -1.3532 O   0  0  0  0  0  0  0  0  0  0  0  0
   -3.0791    5.3755   -0.2846 C   0  0  0  0  0  0  0  0  0  0  0  0
   -2.4478    6.2532   -0.0717 H   0  0  0  0  0  0  0  0  0  0  0  0
   -3.5571    5.5891   -1.2541 H   0  0  0  0  0  0  0  0  0  0  0  0
   -3.8940    5.4184    0.4556 H   0  0  0  0  0  0  0  0  0  0  0  0
   -2.2137    3.4712    0.9275 N   0  0  0  0  0  0  0  0  0  0  0  0
   -1.5102    2.2327    1.1338 C   0  0  2  0  0  0  0  0  0  0  0  0
   -1.3539    1.5497   -0.2184 C   0  0  0  0  0  0  0  0  0  0  0  0
   -2.0852    1.7861   -1.1778 O   0  0  0  0  0  0  0  0  0  0  0  0
   -2.2477    1.3342    2.1145 C   0  0  0  0  0  0  0  0  0  0  0  0
   -2.6724    3.9052    1.7265 H   0  0  0  0  0  0  0  0  0  0  0  0
   -0.5220    2.4922    1.5290 H   0  0  0  0  0  0  0  0  0  0  0  0
   -3.2400    1.0636    1.7358 H   0  0  0  0  0  0  0  0  0  0  0  0
   -1.6970    0.4046    2.2923 H   0  0  0  0  0  0  0  0  0  0  0  0
   -2.3854    1.8384    3.0772 H   0  0  0  0  0  0  0  0  0  0  0  0
   -0.3283    0.6116   -0.2182 N   0  0  0  0  0  0  0  0  0  0  0  0
    1.0314    0.9419   -0.5602 C   0  0  2  0  0  0  0  0  0  0  0  0
    1.0359    1.4760   -1.9869 C   0  0  0  0  0  0  0  0  0  0  0  0
    1.6898    2.4581   -2.3320 O   0  0  0  0  0  0  0  0  0  0  0  0
    1.9612   -0.2615   -0.4285 C   0  0  0  0  0  0  0  0  0  0  0  0
    2.1424   -0.6577    1.0162 C   0  0  0  0  0  0  0  0  0  0  0  0
    2.0724    0.1255    1.9544 O   0  0  0  0  0  0  0  0  0  0  0  0
    2.4102   -1.9787    1.1646 O   0  0  0  0  0  0  0  0  0  0  0  0
   -0.5298   -0.3429    0.0712 H   0  0  0  0  0  0  0  0  0  0  0  0
    1.3328    1.7463    0.1215 H   0  0  0  0  0  0  0  0  0  0  0  0
    1.5499   -1.1381   -0.9448 H   0  0  0  0  0  0  0  0  0  0  0  0
    2.9424   -0.0831   -0.8847 H   0  0  0  0  0  0  0  0  0  0  0  0
    2.5469   -2.2721    2.0908 H   0  0  0  0  0  0  0  0  0  0  0  0
    0.2626    0.6994   -2.8384 N   0  0  0  0  0  0  0  0  0  0  0  0
    0.1188    0.9923   -4.2454 C   0  0  2  0  0  0  0  0  0  0  0  0
    1.4690    0.7669   -4.9130 C   0  0  0  0  0  0  0  0  0  0  0  0
    2.5337    0.7941   -4.2992 O   0  0  0  0  0  0  0  0  0  0  0  0
   -0.3663    2.4164   -4.4673 C   0  0  0  0  0  0  0  0  0  0  0  0
   -0.2218   -0.1077   -2.4567 H   0  0  0  0  0  0  0  0  0  0  0  0
   -0.6101    0.2785   -4.6442 H   0  0  0  0  0  0  0  0  0  0  0  0
    0.3512    3.1459   -4.0742 H   0  0  0  0  0  0  0  0  0  0  0  0
   -0.5021    2.6278   -5.5331 H   0  0  0  0  0  0  0  0  0  0  0  0
   -1.3231    2.5855   -3.9615 H   0  0  0  0  0  0  0  0  0  0  0  0
    1.3485    0.5747   -6.2822 N   0  0  0  0  0  0  0  0  0  0  0  0
    2.4879    0.3528   -7.1416 C   0  0  0  0  0  0  0  0  0  0  0  0
    0.4248    0.5488   -6.7038 H   0  0  0  0  0  0  0  0  0  0  0  0
    2.8346    1.3147   -7.5474 H   0  0  0  0  0  0  0  0  0  0  0  0
    3.2983   -0.1142   -6.5626 H   0  0  0  0  0  0  0  0  0  0  0  0
    2.1989   -0.3114   -7.9694 H   0  0  0  0  0  0  0  0  0  0  0  0
  1  3  1  0  0  0  0
  1  7  1  0  0  0  0
  1  2  2  0  0  0  0
 31 32  1  0  0  0  0
 32 40  1  0  0  0  0
 32 33  2  0  0  0  0
  8  9  1  0  0  0  0
  9 17  1  0  0  0  0
  9 10  2  0  0  0  0
 18 19  1  0  0  0  0
 19 30  1  0  0  0  0
 19 20  2  0  0  0  0
 21 22  1  0  0  0  0
 22 23  2  0  0  0  0
 22 24  1  0  0  0  0
 31 34  1  0  0  0  0
  8 11  1  0  0  0  0
 40 41  1  0  0  0  0
 18 21  1  0  0  0  0
 30 31  1  0  0  0  0
  7  8  1  0  0  0  0
 17 18  1  0  0  0  0
  3  4  1  0  0  0  0
  3  5  1  0  0  0  0
  3  6  1  0  0  0  0
 34 37  1  0  0  0  0
 34 38  1  0  0  0  0
 34 39  1  0  0  0  0
 11 14  1  0  0  0  0
 11 15  1  0  0  0  0
 11 16  1  0  0  0  0
 41 43  1  0  0  0  0
 41 44  1  0  0  0  0
 41 45  1  0  0  0  0
 21 27  1  0  0  0  0
 21 28  1  0  0  0  0
 31 36  1  0  0  0  0
  8 13  1  0  0  0  0
 18 26  1  0  0  0  0
 40 42  1  0  0  0  0
  7 12  1  0  0  0  0
 30 35  1  0  0  0  0
 17 25  1  0  0  0  0
 24 29  1  0  0  0  0
M  END
$$$$

  -OEChem-02062319033D

 45 44  0     1  0  0  0  0  0999 V2000
   -2.2987    4.1032   -0.3022 C   0  0  0  0  0  0  0  0  0  0  0  0
   -1.8049    3.7117   -1.3532 O   0  0  0  0  0  0  0  0  0  0  0  0
   -3.0791    5.3755   -0.2846 C   0  0  0  0  0  0  0  0  0  0  0  0
   -2.4478    6.2532   -0.0717 H   0  0  0  0  0  0  0  0  0  0  0  0
   -3.5571    5.5891   -1.2541 H   0  0  0  0  0  0  0  0  0  0  0  0
   -3.8940    5.4184    0.4556 H   0  0  0  0  0  0  0  0  0  0  0  0
   -2.2137    3.4712    0.9275 N   0  0  0  0  0  0  0  0  0  0  0  0
   -1.5102    2.2327    1.1338 C   0  0  2  0  0  0  0  0  0  0  0  0
   -1.3539    1.5497   -0.2184 C   0  0  0  0  0  0  0  0  0  0  0  0
   -2.0852    1.7861   -1.1778 O   0  0  0  0  0  0  0  0  0  0  0  0
   -2.2477    1.3342    2.1145 C   0  0  0  0  0  0  0  0  0  0  0  0
   -2.6724    3.9052    1.7265 H   0  0  0  0  0  0  0  0  0  0  0  0
   -0.5220    2.4922    1.5290 H   0  0  0  0  0  0  0  0  0  0  0  0
   -3.2400    1.0636    1.7358 H   0  0  0  0  0  0  0  0  0  0  0  0
   -1.6970    0.4046    2.2923 H   0  0  0  0  0  0  0  0  0  0  0  0
   -2.3854    1.8384    3.0772 H   0  0  0  0  0  0  0  0  0  0  0  0
   -0.3283    0.6116   -0.2182 N   0  0  0  0  0  0  0  0  0  0  0  0
    1.0644    0.9781   -0.2480 C   0  0  2  0  0  0  0  0  0  0  0  0
    1.3090    1.7747   -1.5233 C   0  0  0  0  0  0  0  0  0  0  0  0
    1.9963    2.7935   -1.5548 O   0  0  0  0  0  0  0  0  0  0  0  0
    1.9772   -0.2439   -0.1881 C   0  0  0  0  0  0  0  0  0  0  0  0
    1.9101   -0.9117    1.1633 C   0  0  0  0  0  0  0  0  0  0  0  0
    1.6640   -0.3211    2.2069 O   0  0  0  0  0  0  0  0  0  0  0  0
    2.1702   -2.2411    1.1011 O   0  0  0  0  0  0  0  0  0  0  0  0
   -0.5610   -0.3770   -0.1562 H   0  0  0  0  0  0  0  0  0  0  0  0
    1.2284    1.6323    0.6168 H   0  0  0  0  0  0  0  0  0  0  0  0
    1.6774   -0.9986   -0.9261 H   0  0  0  0  0  0  0  0  0  0  0  0
    3.0199    0.0018   -0.4233 H   0  0  0  0  0  0  0  0  0  0  0  0
    2.1481   -2.7082    1.9636 H   0  0  0  0  0  0  0  0  0  0  0  0
    0.7096    1.1882   -2.6292 N   0  0  0  0  0  0  0  0  0  0  0  0
    0.8089    1.7469   -3.9573 C   0  0  2  0  0  0  0  0  0  0  0  0
    2.2585    1.6303   -4.4094 C   0  0  0  0  0  0  0  0  0  0  0  0
    3.1990    1.5218   -3.6254 O   0  0  0  0  0  0  0  0  0  0  0  0
    0.3458    3.1951   -3.9845 C   0  0  0  0  0  0  0  0  0  0  0  0
    0.1797    0.3314   -2.4992 H   0  0  0  0  0  0  0  0  0  0  0  0
    0.1730    1.1348   -4.6062 H   0  0  0  0  0  0  0  0  0  0  0  0
    0.9710    3.8239   -3.3401 H   0  0  0  0  0  0  0  0  0  0  0  0
    0.3946    3.6084   -4.9973 H   0  0  0  0  0  0  0  0  0  0  0  0
   -0.6874    3.2807   -3.6307 H   0  0  0  0  0  0  0  0  0  0  0  0
    2.3823    1.7052   -5.7897 N   0  0  0  0  0  0  0  0  0  0  0  0
    3.6579    1.6323   -6.4632 C   0  0  0  0  0  0  0  0  0  0  0  0
    1.5470    1.7760   -6.3633 H   0  0  0  0  0  0  0  0  0  0  0  0
    4.0537    2.6479   -6.6109 H   0  0  0  0  0  0  0  0  0  0  0  0
    4.3626    1.0497   -5.8516 H   0  0  0  0  0  0  0  0  0  0  0  0
    3.5293    1.1434   -7.4401 H   0  0  0  0  0  0  0  0  0  0  0  0
  1  3  1  0  0  0  0
  1  7  1  0  0  0  0
  1  2  2  0  0  0  0
 31 32  1  0  0  0  0
 32 40  1  0  0  0  0
 32 33  2  0  0  0  0
  8  9  1  0  0  0  0
  9 17  1  0  0  0  0
  9 10  2  0  0  0  0
 18 19  1  0  0  0  0
 19 30  1  0  0  0  0
 19 20  2  0  0  0  0
 21 22  1  0  0  0  0
 22 23  2  0  0  0  0
 22 24  1  0  0  0  0
 31 34  1  0  0  0  0
  8 11  1  0  0  0  0
 40 41  1  0  0  0  0
 18 21  1  0  0  0  0
 30 31  1  0  0  0  0
  7  8  1  0  0  0  0
 17 18  1  0  0  0  0
  3  4  1  0  0  0  0
  3  5  1  0  0  0  0
  3  6  1  0  0  0  0
 34 37  1  0  0  0  0
 34 38  1  0  0  0  0
 34 39  1  0  0  0  0
 11 14  1  0  0  0  0
 11 15  1  0  0  0  0
 11 16  1  0  0  0  0
 41 43  1  0  0  0  0
 41 44  1  0  0  0  0
 41 45  1  0  0  0  0
 21 27  1  0  0  0  0
 21 28  1  0  0  0  0
 31 36  1  0  0  0  0
  8 13  1  0  0  0  0
 18 26  1  0  0  0  0
 40 42  1  0  0  0  0
  7 12  1  0  0  0  0
 30 35  1  0  0  0  0
 17 25  1  0  0  0  0
 24 29  1  0  0  0  0
M  END
$$$$

  -OEChem-02062319033D

 45 44  0     1  0  0  0  0  0999 V2000
   -2.2987    4.1032   -0.3022 C   0  0  0  0  0  0  0  0  0  0  0  0
   -1.8049    3.7117   -1.3532 O   0  0  0  0  0  0  0  0  0  0  0  0
   -3.0791    5.3755   -0.2846 C   0  0  0  0  0  0  0  0  0  0  0  0
   -2.4478    6.2532   -0.0717 H   0  0  0  0  0  0  0  0  0  0  0  0
   -3.5571    5.5891   -1.2541 H   0  0  0  0  0  0  0  0  0  0  0  0
   -3.8940    5.4184    0.4556 H   0  0  0  0  0  0  0  0  0  0  0  0
   -2.2137    3.4712    0.9275 N   0  0  0  0  0  0  0  0  0  0  0  0
   -1.5102    2.2327    1.1338 C   0  0  2  0  0  0  0  0  0  0  0  0
   -1.3539    1.5497   -0.2184 C   0  0  0  0  0  0  0  0  0  0  0  0
   -2.0852    1.7861   -1.1778 O   0  0  0  0  0  0  0  0  0  0  0  0
   -2.2477    1.3342    2.1145 C   0  0  0  0  0  0  0  0  0  0  0  0
   -2.6724    3.9052    1.7265 H   0  0  0  0  0  0  0  0  0  0  0  0
   -0.5220    2.4922    1.5290 H   0  0  0  0  0  0  0  0  0  0  0  0
   -3.2400    1.0636    1.7358 H   0  0  0  0  0  0  0  0  0  0  0  0
   -1.6970    0.4046    2.2923 H   0  0  0  0  0  0  0  0  0  0  0  0
   -2.3854    1.8384    3.0772 H   0  0  0  0  0  0  0  0  0  0  0  0
   -0.3283    0.6116   -0.2182 N   0  0  0  0  0  0  0  0  0  0  0  0
    1.0418    0.9534    0.0663 C   0  0  2  0  0  0  0  0  0  0  0  0
    1.4917    1.9747   -0.9707 C   0  0  0  0  0  0  0  0  0  0  0  0
    2.1565    2.9689   -0.6865 O   0  0  0  0  0  0  0  0  0  0  0  0
    1.9508   -0.2728    0.0502 C   0  0  0  0  0  0  0  0  0  0  0  0
    1.6600   -1.1852    1.2163 C   0  0  0  0  0  0  0  0  0  0  0  0
    1.2253   -0.8006    2.2941 O   0  0  0  0  0  0  0  0  0  0  0  0
    1.9496   -2.4824    0.9478 O   0  0  0  0  0  0  0  0  0  0  0  0
   -0.5514   -0.3666   -0.3878 H   0  0  0  0  0  0  0  0  0  0  0  0
    1.0411    1.4275    1.0552 H   0  0  0  0  0  0  0  0  0  0  0  0
    1.7974   -0.8675   -0.8592 H   0  0  0  0  0  0  0  0  0  0  0  0
    3.0142   -0.0044    0.0520 H   0  0  0  0  0  0  0  0  0  0  0  0
    1.7850   -3.1052    1.6878 H   0  0  0  0  0  0  0  0  0  0  0  0
    1.1048    1.6204   -2.2556 N   0  0  0  0  0  0  0  0  0  0  0  0
    1.4250    2.4207   -3.4145 C   0  0  2  0  0  0  0  0  0  0  0  0
    2.9331    2.3682   -3.6202 C   0  0  0  0  0  0  0  0  0  0  0  0
    3.7239    2.0960   -2.7193 O   0  0  0  0  0  0  0  0  0  0  0  0
    0.9492    3.8551   -3.2450 C   0  0  0  0  0  0  0  0  0  0  0  0
    0.5751    0.7637   -2.3863 H   0  0  0  0  0  0  0  0  0  0  0  0
    0.9228    1.9547   -4.2692 H   0  0  0  0  0  0  0  0  0  0  0  0
    1.4415    4.3385   -2.3933 H   0  0  0  0  0  0  0  0  0  0  0  0
    1.1672    4.4534   -4.1358 H   0  0  0  0  0  0  0  0  0  0  0  0
   -0.1311    3.8890   -3.0674 H   0  0  0  0  0  0  0  0  0  0  0  0
    3.2948    2.7032   -4.9176 N   0  0  0  0  0  0  0  0  0  0  0  0
    4.6695    2.7387   -5.3591 C   0  0  0  0  0  0  0  0  0  0  0  0
    2.5714    2.8963   -5.6039 H   0  0  0  0  0  0  0  0  0  0  0  0
    5.0677    3.7570   -5.2387 H   0  0  0  0  0  0  0  0  0  0  0  0
    5.2663    2.0381   -4.7566 H   0  0  0  0  0  0  0  0  0  0  0  0
    4.7218    2.4476   -6.4186 H   0  0  0  0  0  0  0  0  0  0  0  0
  1  3  1  0  0  0  0
  1  7  1  0  0  0  0
  1  2  2  0  0  0  0
 31 32  1  0  0  0  0
 32 40  1  0  0  0  0
 32 33  2  0  0  0  0
  8  9  1  0  0  0  0
  9 17  1  0  0  0  0
  9 10  2  0  0  0  0
 18 19  1  0  0  0  0
 19 30  1  0  0  0  0
 19 20  2  0  0  0  0
 21 22  1  0  0  0  0
 22 23  2  0  0  0  0
 22 24  1  0  0  0  0
 31 34  1  0  0  0  0
  8 11  1  0  0  0  0
 40 41  1  0  0  0  0
 18 21  1  0  0  0  0
 30 31  1  0  0  0  0
  7  8  1  0  0  0  0
 17 18  1  0  0  0  0
  3  4  1  0  0  0  0
  3  5  1  0  0  0  0
  3  6  1  0  0  0  0
 34 37  1  0  0  0  0
 34 38  1  0  0  0  0
 34 39  1  0  0  0  0
 11 14  1  0  0  0  0
 11 15  1  0  0  0  0
 11 16  1  0  0  0  0
 41 43  1  0  0  0  0
 41 44  1  0  0  0  0
 41 45  1  0  0  0  0
 21 27  1  0  0  0  0
 21 28  1  0  0  0  0
 31 36  1  0  0  0  0
  8 13  1  0  0  0  0
 18 26  1  0  0  0  0
 40 42  1  0  0  0  0
  7 12  1  0  0  0  0
 30 35  1  0  0  0  0
 17 25  1  0  0  0  0
 24 29  1  0  0  0  0
M  END
$$$$

  -OEChem-02062319033D

 45 44  0     1  0  0  0  0  0999 V2000
   -2.2987    4.1032   -0.3022 C   0  0  0  0  0  0  0  0  0  0  0  0
   -1.8049    3.7117   -1.3532 O   0  0  0  0  0  0  0  0  0  0  0  0
   -3.0791    5.3755   -0.2846 C   0  0  0  0  0  0  0  0  0  0  0  0
   -2.4478    6.2532   -0.0717 H   0  0  0  0  0  0  0  0  0  0  0  0
   -3.5571    5.5891   -1.2541 H   0  0  0  0  0  0  0  0  0  0  0  0
   -3.8940    5.4184    0.4556 H   0  0  0  0  0  0  0  0  0  0  0  0
   -2.2137    3.4712    0.9275 N   0  0  0  0  0  0  0  0  0  0  0  0
   -1.5102    2.2327    1.1338 C   0  0  2  0  0  0  0  0  0  0  0  0
   -1.3539    1.5497   -0.2184 C   0  0  0  0  0  0  0  0  0  0  0  0
   -2.0852    1.7861   -1.1778 O   0  0  0  0  0  0  0  0  0  0  0  0
   -2.2477    1.3342    2.1145 C   0  0  0  0  0  0  0  0  0  0  0  0
   -2.6724    3.9052    1.7265 H   0  0  0  0  0  0  0  0  0  0  0  0
   -0.5220    2.4922    1.5290 H   0  0  0  0  0  0  0  0  0  0  0  0
   -3.2400    1.0636    1.7358 H   0  0  0  0  0  0  0  0  0  0  0  0
   -1.6970    0.4046    2.2923 H   0  0  0  0  0  0  0  0  0  0  0  0
   -2.3854    1.8384    3.0772 H   0  0  0  0  0  0  0  0  0  0  0  0
   -0.3283    0.6116   -0.2182 N   0  0  0  0  0  0  0  0  0  0  0  0
    0.9650    0.8695    0.3612 C   0  0  2  0  0  0  0  0  0  0  0  0
    1.5717    2.0623   -0.3668 C   0  0  0  0  0  0  0  0  0  0  0  0
    2.1597    2.9726    0.2137 O   0  0  0  0  0  0  0  0  0  0  0  0
    1.8836   -0.3462    0.2702 C   0  0  0  0  0  0  0  0  0  0  0  0
    1.4091   -1.4595    1.1715 C   0  0  0  0  0  0  0  0  0  0  0  0
    0.7865   -1.2806    2.2102 O   0  0  0  0  0  0  0  0  0  0  0  0
    1.7632   -2.6862    0.7150 O   0  0  0  0  0  0  0  0  0  0  0  0
   -0.5017   -0.3123   -0.6078 H   0  0  0  0  0  0  0  0  0  0  0  0
    0.7835    1.1460    1.4068 H   0  0  0  0  0  0  0  0  0  0  0  0
    1.9015   -0.7536   -0.7485 H   0  0  0  0  0  0  0  0  0  0  0  0
    2.9256   -0.1011    0.5090 H   0  0  0  0  0  0  0  0  0  0  0  0
    1.4826   -3.4361    1.2822 H   0  0  0  0  0  0  0  0  0  0  0  0
    1.4213    1.9666   -1.7432 N   0  0  0  0  0  0  0  0  0  0  0  0
    1.9253    2.9679   -2.6538 C   0  0  2  0  0  0  0  0  0  0  0  0
    3.4469    2.9302   -2.5991 C   0  0  0  0  0  0  0  0  0  0  0  0
    4.0727    2.4776   -1.6428 O   0  0  0  0  0  0  0  0  0  0  0  0
    1.4029    4.3514   -2.2993 C   0  0  0  0  0  0  0  0  0  0  0  0
    0.9372    1.1596   -2.1256 H   0  0  0  0  0  0  0  0  0  0  0  0
    1.5881    2.6823   -3.6562 H   0  0  0  0  0  0  0  0  0  0  0  0
    1.7305    4.6549   -1.2982 H   0  0  0  0  0  0  0  0  0  0  0  0
    1.7629    5.1050   -3.0074 H   0  0  0  0  0  0  0  0  0  0  0  0
    0.3077    4.3690   -2.3100 H   0  0  0  0  0  0  0  0  0  0  0  0
    4.0239    3.5006   -3.7251 N   0  0  0  0  0  0  0  0  0  0  0  0
    5.4537    3.5965   -3.9047 C   0  0  0  0  0  0  0  0  0  0  0  0
    3.4283    3.8335   -4.4776 H   0  0  0  0  0  0  0  0  0  0  0  0
    5.8074    4.5662   -3.5244 H   0  0  0  0  0  0  0  0  0  0  0  0
    5.9479    2.7838   -3.3522 H   0  0  0  0  0  0  0  0  0  0  0  0
    5.6952    3.5123   -4.9746 H   0  0  0  0  0  0  0  0  0  0  0  0
  1  3  1  0  0  0  0
  1  7  1  0  0  0  0
  1  2  2  0  0  0  0
 31 32  1  0  0  0  0
 32 40  1  0  0  0  0
 32 33  2  0  0  0  0
  8  9  1  0  0  0  0
  9 17  1  0  0  0  0
  9 10  2  0  0  0  0
 18 19  1  0  0  0  0
 19 30  1  0  0  0  0
 19 20  2  0  0  0  0
 21 22  1  0  0  0  0
 22 23  2  0  0  0  0
 22 24  1  0  0  0  0
 31 34  1  0  0  0  0
  8 11  1  0  0  0  0
 40 41  1  0  0  0  0
 18 21  1  0  0  0  0
 30 31  1  0  0  0  0
  7  8  1  0  0  0  0
 17 18  1  0  0  0  0
  3  4  1  0  0  0  0
  3  5  1  0  0  0  0
  3  6  1  0  0  0  0
 34 37  1  0  0  0  0
 34 38  1  0  0  0  0
 34 39  1  0  0  0  0
 11 14  1  0  0  0  0
 11 15  1  0  0  0  0
 11 16  1  0  0  0  0
 41 43  1  0  0  0  0
 41 44  1  0  0  0  0
 41 45  1  0  0  0  0
 21 27  1  0  0  0  0
 21 28  1  0  0  0  0
 31 36  1  0  0  0  0
  8 13  1  0  0  0  0
 18 26  1  0  0  0  0
 40 42  1  0  0  0  0
  7 12  1  0  0  0  0
 30 35  1  0  0  0  0
 17 25  1  0  0  0  0
 24 29  1  0  0  0  0
M  END
$$$$

  -OEChem-02062319033D

 45 44  0     1  0  0  0  0  0999 V2000
   -2.2987    4.1032   -0.3022 C   0  0  0  0  0  0  0  0  0  0  0  0
   -1.8049    3.7117   -1.3532 O   0  0  0  0  0  0  0  0  0  0  0  0
   -3.0791    5.3755   -0.2846 C   0  0  0  0  0  0  0  0  0  0  0  0
   -2.4478    6.2532   -0.0717 H   0  0  0  0  0  0  0  0  0  0  0  0
   -3.5571    5.5891   -1.2541 H   0  0  0  0  0  0  0  0  0  0  0  0
   -3.8940    5.4184    0.4556 H   0  0  0  0  0  0  0  0  0  0  0  0
   -2.2137    3.4712    0.9275 N   0  0  0  0  0  0  0  0  0  0  0  0
   -1.5102    2.2327    1.1338 C   0  0  2  0  0  0  0  0  0  0  0  0
   -1.3539    1.5497   -0.2184 C   0  0  0  0  0  0  0  0  0  0  0  0
   -2.0852    1.7861   -1.1778 O   0  0  0  0  0  0  0  0  0  0  0  0
   -2.2477    1.3342    2.1145 C   0  0  0  0  0  0  0  0  0  0  0  0
   -2.6724    3.9052    1.7265 H   0  0  0  0  0  0  0  0  0  0  0  0
   -0.5220    2.4922    1.5290 H   0  0  0  0  0  0  0  0  0  0  0  0
   -3.2400    1.0636    1.7358 H   0  0  0  0  0  0  0  0  0  0  0  0
   -1.6970    0.4046    2.2923 H   0  0  0  0  0  0  0  0  0  0  0  0
   -2.3854    1.8384    3.0772 H   0  0  0  0  0  0  0  0  0  0  0  0
   -0.3283    0.6116   -0.2182 N   0  0  0  0  0  0  0  0  0  0  0  0
    0.8394    0.7322    0.6166 C   0  0  2  0  0  0  0  0  0  0  0  0
    1.5435    2.0317    0.2472 C   0  0  0  0  0  0  0  0  0  0  0  0
    2.0054    2.8042    1.0845 O   0  0  0  0  0  0  0  0  0  0  0  0
    1.7803   -0.4591    0.4570 C   0  0  0  0  0  0  0  0  0  0  0  0
    1.1747   -1.7158    1.0321 C   0  0  0  0  0  0  0  0  0  0  0  0
    0.3772   -1.7281    1.9608 O   0  0  0  0  0  0  0  0  0  0  0  0
    1.6239   -2.8386    0.4187 O   0  0  0  0  0  0  0  0  0  0  0  0
   -0.4152   -0.2178   -0.8012 H   0  0  0  0  0  0  0  0  0  0  0  0
    0.4733    0.8070    1.6477 H   0  0  0  0  0  0  0  0  0  0  0  0
    1.9828   -0.6647   -0.6017 H   0  0  0  0  0  0  0  0  0  0  0  0
    2.7602   -0.2818    0.9165 H   0  0  0  0  0  0  0  0  0  0  0  0
    1.2613   -3.6781    0.7743 H   0  0  0  0  0  0  0  0  0  0  0  0
    1.6375    2.2031   -1.1268 N   0  0  0  0  0  0  0  0  0  0  0  0
    2.2757    3.3513   -1.7272 C   0  0  2  0  0  0  0  0  0  0  0  0
    3.7647    3.2780   -1.4158 C   0  0  0  0  0  0  0  0  0  0  0  0
    4.2215    2.6406   -0.4691 O   0  0  0  0  0  0  0  0  0  0  0  0
    1.6759    4.6502   -1.2117 C   0  0  0  0  0  0  0  0  0  0  0  0
    1.2414    1.4924   -1.7349 H   0  0  0  0  0  0  0  0  0  0  0  0
    2.1236    3.2681   -2.8088 H   0  0  0  0  0  0  0  0  0  0  0  0
    1.8184    4.7513   -0.1296 H   0  0  0  0  0  0  0  0  0  0  0  0
    2.1412    5.5190   -1.6889 H   0  0  0  0  0  0  0  0  0  0  0  0
    0.5993    4.6881   -1.4100 H   0  0  0  0  0  0  0  0  0  0  0  0
    4.5197    4.0432   -2.2936 N   0  0  0  0  0  0  0  0  0  0  0  0
    5.9571    4.1474   -2.1991 C   0  0  0  0  0  0  0  0  0  0  0  0
    4.0591    4.5237   -3.0609 H   0  0  0  0  0  0  0  0  0  0  0  0
    6.2223    5.0205   -1.5847 H   0  0  0  0  0  0  0  0  0  0  0  0
    6.3610    3.2359   -1.7343 H   0  0  0  0  0  0  0  0  0  0  0  0
    6.3832    4.2650   -3.2064 H   0  0  0  0  0  0  0  0  0  0  0  0
  1  3  1  0  0  0  0
  1  7  1  0  0  0  0
  1  2  2  0  0  0  0
 31 32  1  0  0  0  0
 32 40  1  0  0  0  0
 32 33  2  0  0  0  0
  8  9  1  0  0  0  0
  9 17  1  0  0  0  0
  9 10  2  0  0  0  0
 18 19  1  0  0  0  0
 19 30  1  0  0  0  0
 19 20  2  0  0  0  0
 21 22  1  0  0  0  0
 22 23  2  0  0  0  0
 22 24  1  0  0  0  0
 31 34  1  0  0  0  0
  8 11  1  0  0  0  0
 40 41  1  0  0  0  0
 18 21  1  0  0  0  0
 30 31  1  0  0  0  0
  7  8  1  0  0  0  0
 17 18  1  0  0  0  0
  3  4  1  0  0  0  0
  3  5  1  0  0  0  0
  3  6  1  0  0  0  0
 34 37  1  0  0  0  0
 34 38  1  0  0  0  0
 34 39  1  0  0  0  0
 11 14  1  0  0  0  0
 11 15  1  0  0  0  0
 11 16  1  0  0  0  0
 41 43  1  0  0  0  0
 41 44  1  0  0  0  0
 41 45  1  0  0  0  0
 21 27  1  0  0  0  0
 21 28  1  0  0  0  0
 31 36  1  0  0  0  0
  8 13  1  0  0  0  0
 18 26  1  0  0  0  0
 40 42  1  0  0  0  0
  7 12  1  0  0  0  0
 30 35  1  0  0  0  0
 17 25  1  0  0  0  0
 24 29  1  0  0  0  0
M  END
$$$$

  -OEChem-02062319033D

 45 44  0     1  0  0  0  0  0999 V2000
   -2.2987    4.1032   -0.3022 C   0  0  0  0  0  0  0  0  0  0  0  0
   -1.8049    3.7117   -1.3532 O   0  0  0  0  0  0  0  0  0  0  0  0
   -3.0791    5.3755   -0.2846 C   0  0  0  0  0  0  0  0  0  0  0  0
   -2.4478    6.2532   -0.0717 H   0  0  0  0  0  0  0  0  0  0  0  0
   -3.5571    5.5891   -1.2541 H   0  0  0  0  0  0  0  0  0  0  0  0
   -3.8940    5.4184    0.4556 H   0  0  0  0  0  0  0  0  0  0  0  0
   -2.2137    3.4712    0.9275 N   0  0  0  0  0  0  0  0  0  0  0  0
   -1.5102    2.2327    1.1338 C   0  0  2  0  0  0  0  0  0  0  0  0
   -1.3539    1.5497   -0.2184 C   0  0  0  0  0  0  0  0  0  0  0  0
   -2.0852    1.7861   -1.1778 O   0  0  0  0  0  0  0  0  0  0  0  0
   -2.2477    1.3342    2.1145 C   0  0  0  0  0  0  0  0  0  0  0  0
   -2.6724    3.9052    1.7265 H   0  0  0  0  0  0  0  0  0  0  0  0
   -0.5220    2.4922    1.5290 H   0  0  0  0  0  0  0  0  0  0  0  0
   -3.2400    1.0636    1.7358 H   0  0  0  0  0  0  0  0  0  0  0  0
   -1.6970    0.4046    2.2923 H   0  0  0  0  0  0  0  0  0  0  0  0
   -2.3854    1.8384    3.0772 H   0  0  0  0  0  0  0  0  0  0  0  0
   -0.3283    0.6116   -0.2182 N   0  0  0  0  0  0  0  0  0  0  0  0
    0.6734    0.5508    0.8152 C   0  0  2  0  0  0  0  0  0  0  0  0
    1.4090    1.8848    0.8295 C   0  0  0  0  0  0  0  0  0  0  0  0
    1.7044    2.4753    1.8665 O   0  0  0  0  0  0  0  0  0  0  0  0
    1.6478   -0.6038    0.5978 C   0  0  0  0  0  0  0  0  0  0  0  0
    0.9726   -1.9369    0.8076 C   0  0  0  0  0  0  0  0  0  0  0  0
    0.0255   -2.1128    1.5629 O   0  0  0  0  0  0  0  0  0  0  0  0
    1.5411   -2.9293    0.0791 O   0  0  0  0  0  0  0  0  0  0  0  0
   -0.2979   -0.0895   -0.9550 H   0  0  0  0  0  0  0  0  0  0  0  0
    0.1317    0.4334    1.7614 H   0  0  0  0  0  0  0  0  0  0  0  0
    2.0356   -0.6068   -0.4287 H   0  0  0  0  0  0  0  0  0  0  0  0
    2.5293   -0.5342    1.2467 H   0  0  0  0  0  0  0  0  0  0  0  0
    1.1363   -3.8150    0.1989 H   0  0  0  0  0  0  0  0  0  0  0  0
    1.7386    2.3139   -0.4486 N   0  0  0  0  0  0  0  0  0  0  0  0
    2.4522    3.5446   -0.6977 C   0  0  2  0  0  0  0  0  0  0  0  0
    3.8650    3.3880   -0.1508 C   0  0  0  0  0  0  0  0  0  0  0  0
    4.1602    2.5739    0.7216 O   0  0  0  0  0  0  0  0  0  0  0  0
    1.7496    4.7311   -0.0565 C   0  0  0  0  0  0  0  0  0  0  0  0
    1.4669    1.7391   -1.2408 H   0  0  0  0  0  0  0  0  0  0  0  0
    2.4929    3.6721   -1.7849 H   0  0  0  0  0  0  0  0  0  0  0  0
    1.6992    4.6213    1.0330 H   0  0  0  0  0  0  0  0  0  0  0  0
    2.2762    5.6671   -0.2702 H   0  0  0  0  0  0  0  0  0  0  0  0
    0.7237    4.8244   -0.4289 H   0  0  0  0  0  0  0  0  0  0  0  0
    4.7486    4.2939   -0.7207 N   0  0  0  0  0  0  0  0  0  0  0  0
    6.1454    4.3538   -0.3584 C   0  0  0  0  0  0  0  0  0  0  0  0
    4.4210    4.9198   -1.4505 H   0  0  0  0  0  0  0  0  0  0  0  0
    6.2843    5.0888    0.4481 H   0  0  0  0  0  0  0  0  0  0  0  0
    6.4773    3.3636   -0.0130 H   0  0  0  0  0  0  0  0  0  0  0  0
    6.7388    4.6544   -1.2345 H   0  0  0  0  0  0  0  0  0  0  0  0
  1  3  1  0  0  0  0
  1  7  1  0  0  0  0
  1  2  2  0  0  0  0
 31 32  1  0  0  0  0
 32 40  1  0  0  0  0
 32 33  2  0  0  0  0
  8  9  1  0  0  0  0
  9 17  1  0  0  0  0
  9 10  2  0  0  0  0
 18 19  1  0  0  0  0
 19 30  1  0  0  0  0
 19 20  2  0  0  0  0
 21 22  1  0  0  0  0
 22 23  2  0  0  0  0
 22 24  1  0  0  0  0
 31 34  1  0  0  0  0
  8 11  1  0  0  0  0
 40 41  1  0  0  0  0
 18 21  1  0  0  0  0
 30 31  1  0  0  0  0
  7  8  1  0  0  0  0
 17 18  1  0  0  0  0
  3  4  1  0  0  0  0
  3  5  1  0  0  0  0
  3  6  1  0  0  0  0
 34 37  1  0  0  0  0
 34 38  1  0  0  0  0
 34 39  1  0  0  0  0
 11 14  1  0  0  0  0
 11 15  1  0  0  0  0
 11 16  1  0  0  0  0
 41 43  1  0  0  0  0
 41 44  1  0  0  0  0
 41 45  1  0  0  0  0
 21 27  1  0  0  0  0
 21 28  1  0  0  0  0
 31 36  1  0  0  0  0
  8 13  1  0  0  0  0
 18 26  1  0  0  0  0
 40 42  1  0  0  0  0
  7 12  1  0  0  0  0
 30 35  1  0  0  0  0
 17 25  1  0  0  0  0
 24 29  1  0  0  0  0
M  END
$$$$

  -OEChem-02062319033D

 45 44  0     1  0  0  0  0  0999 V2000
   -2.2987    4.1032   -0.3022 C   0  0  0  0  0  0  0  0  0  0  0  0
   -1.8049    3.7117   -1.3532 O   0  0  0  0  0  0  0  0  0  0  0  0
   -3.0791    5.3755   -0.2846 C   0  0  0  0  0  0  0  0  0  0  0  0
   -2.4478    6.2532   -0.0717 H   0  0  0  0  0  0  0  0  0  0  0  0
   -3.5571    5.5891   -1.2541 H   0  0  0  0  0  0  0  0  0  0  0  0
   -3.8940    5.4184    0.4556 H   0  0  0  0  0  0  0  0  0  0  0  0
   -2.2137    3.4712    0.9275 N   0  0  0  0  0  0  0  0  0  0  0  0
   -1.5102    2.2327    1.1338 C   0  0  2  0  0  0  0  0  0  0  0  0
   -1.3539    1.5497   -0.2184 C   0  0  0  0  0  0  0  0  0  0  0  0
   -2.0852    1.7861   -1.1778 O   0  0  0  0  0  0  0  0  0  0  0  0
   -2.2477    1.3342    2.1145 C   0  0  0  0  0  0  0  0  0  0  0  0
   -2.6724    3.9052    1.7265 H   0  0  0  0  0  0  0  0  0  0  0  0
   -0.5220    2.4922    1.5290 H   0  0  0  0  0  0  0  0  0  0  0  0
   -3.2400    1.0636    1.7358 H   0  0  0  0  0  0  0  0  0  0  0  0
   -1.6970    0.4046    2.2923 H   0  0  0  0  0  0  0  0  0  0  0  0
   -2.3854    1.8384    3.0772 H   0  0  0  0  0  0  0  0  0  0  0  0
   -0.3283    0.6116   -0.2182 N   0  0  0  0  0  0  0  0  0  0  0  0
    0.4784    0.3376    0.9433 C   0  0  2  0  0  0  0  0  0  0  0  0
    1.1774    1.6317    1.3404 C   0  0  0  0  0  0  0  0  0  0  0  0
    1.2770    2.0081    2.5064 O   0  0  0  0  0  0  0  0  0  0  0  0
    1.4953   -0.7706    0.6831 C   0  0  0  0  0  0  0  0  0  0  0  0
    0.8166   -2.1075    0.5131 C   0  0  0  0  0  0  0  0  0  0  0  0
   -0.2447   -2.4084    1.0437 O   0  0  0  0  0  0  0  0  0  0  0  0
    1.5204   -2.9520   -0.2808 O   0  0  0  0  0  0  0  0  0  0  0  0
   -0.1577    0.0637   -1.0585 H   0  0  0  0  0  0  0  0  0  0  0  0
   -0.2182    0.0508    1.7403 H   0  0  0  0  0  0  0  0  0  0  0  0
    2.0564   -0.5840   -0.2413 H   0  0  0  0  0  0  0  0  0  0  0  0
    2.2486   -0.8411    1.4771 H   0  0  0  0  0  0  0  0  0  0  0  0
    1.1160   -3.8373   -0.4049 H   0  0  0  0  0  0  0  0  0  0  0  0
    1.7178    2.2913    0.2454 N   0  0  0  0  0  0  0  0  0  0  0  0
    2.4429    3.5347    0.3645 C   0  0  2  0  0  0  0  0  0  0  0  0
    3.7409    3.2527    1.1096 C   0  0  0  0  0  0  0  0  0  0  0  0
    3.8929    2.2820    1.8484 O   0  0  0  0  0  0  0  0  0  0  0  0
    1.6190    4.5887    1.0877 C   0  0  0  0  0  0  0  0  0  0  0  0
    1.5985    1.8832   -0.6770 H   0  0  0  0  0  0  0  0  0  0  0  0
    2.6707    3.8668   -0.6542 H   0  0  0  0  0  0  0  0  0  0  0  0
    1.3810    4.2736    2.1102 H   0  0  0  0  0  0  0  0  0  0  0  0
    2.1589    5.5391    1.1520 H   0  0  0  0  0  0  0  0  0  0  0  0
    0.6725    4.7687    0.5666 H   0  0  0  0  0  0  0  0  0  0  0  0
    4.6949    4.2356    0.8865 N   0  0  0  0  0  0  0  0  0  0  0  0
    6.0058    4.2016    1.4919 C   0  0  0  0  0  0  0  0  0  0  0  0
    4.4892    4.9949    0.2438 H   0  0  0  0  0  0  0  0  0  0  0  0
    5.9891    4.7666    2.4356 H   0  0  0  0  0  0  0  0  0  0  0  0
    6.2890    3.1582    1.6944 H   0  0  0  0  0  0  0  0  0  0  0  0
    6.7378    4.6539    0.8067 H   0  0  0  0  0  0  0  0  0  0  0  0
  1  3  1  0  0  0  0
  1  7  1  0  0  0  0
  1  2  2  0  0  0  0
 31 32  1  0  0  0  0
 32 40  1  0  0  0  0
 32 33  2  0  0  0  0
  8  9  1  0  0  0  0
  9 17  1  0  0  0  0
  9 10  2  0  0  0  0
 18 19  1  0  0  0  0
 19 30  1  0  0  0  0
 19 20  2  0  0  0  0
 21 22  1  0  0  0  0
 22 23  2  0  0  0  0
 22 24  1  0  0  0  0
 31 34  1  0  0  0  0
  8 11  1  0  0  0  0
 40 41  1  0  0  0  0
 18 21  1  0  0  0  0
 30 31  1  0  0  0  0
  7  8  1  0  0  0  0
 17 18  1  0  0  0  0
  3  4  1  0  0  0  0
  3  5  1  0  0  0  0
  3  6  1  0  0  0  0
 34 37  1  0  0  0  0
 34 38  1  0  0  0  0
 34 39  1  0  0  0  0
 11 14  1  0  0  0  0
 11 15  1  0  0  0  0
 11 16  1  0  0  0  0
 41 43  1  0  0  0  0
 41 44  1  0  0  0  0
 41 45  1  0  0  0  0
 21 27  1  0  0  0  0
 21 28  1  0  0  0  0
 31 36  1  0  0  0  0
  8 13  1  0  0  0  0
 18 26  1  0  0  0  0
 40 42  1  0  0  0  0
  7 12  1  0  0  0  0
 30 35  1  0  0  0  0
 17 25  1  0  0  0  0
 24 29  1  0  0  0  0
M  END
$$$$

  -OEChem-02062319033D

 45 44  0     1  0  0  0  0  0999 V2000
   -2.2987    4.1032   -0.3022 C   0  0  0  0  0  0  0  0  0  0  0  0
   -1.8049    3.7117   -1.3532 O   0  0  0  0  0  0  0  0  0  0  0  0
   -3.0791    5.3755   -0.2846 C   0  0  0  0  0  0  0  0  0  0  0  0
   -2.4478    6.2532   -0.0717 H   0  0  0  0  0  0  0  0  0  0  0  0
   -3.5571    5.5891   -1.2541 H   0  0  0  0  0  0  0  0  0  0  0  0
   -3.8940    5.4184    0.4556 H   0  0  0  0  0  0  0  0  0  0  0  0
   -2.2137    3.4712    0.9275 N   0  0  0  0  0  0  0  0  0  0  0  0
   -1.5102    2.2327    1.1338 C   0  0  2  0  0  0  0  0  0  0  0  0
   -1.3539    1.5497   -0.2184 C   0  0  0  0  0  0  0  0  0  0  0  0
   -2.0852    1.7861   -1.1778 O   0  0  0  0  0  0  0  0  0  0  0  0
   -2.2477    1.3342    2.1145 C   0  0  0  0  0  0  0  0  0  0  0  0
   -2.6724    3.9052    1.7265 H   0  0  0  0  0  0  0  0  0  0  0  0
   -0.5220    2.4922    1.5290 H   0  0  0  0  0  0  0  0  0  0  0  0
   -3.2400    1.0636    1.7358 H   0  0  0  0  0  0  0  0  0  0  0  0
   -1.6970    0.4046    2.2923 H   0  0  0  0  0  0  0  0  0  0  0  0
   -2.3854    1.8384    3.0772 H   0  0  0  0  0  0  0  0  0  0  0  0
   -0.3283    0.6116   -0.2182 N   0  0  0  0  0  0  0  0  0  0  0  0
    0.2677    0.1072    0.9923 C   0  0  2  0  0  0  0  0  0  0  0  0
    0.8645    1.2896    1.7451 C   0  0  0  0  0  0  0  0  0  0  0  0
    0.7524    1.4347    2.9607 O   0  0  0  0  0  0  0  0  0  0  0  0
    1.3331   -0.9479    0.7069 C   0  0  0  0  0  0  0  0  0  0  0  0
    0.7174   -2.2161    0.1689 C   0  0  0  0  0  0  0  0  0  0  0  0
   -0.4151   -2.5948    0.4385 O   0  0  0  0  0  0  0  0  0  0  0  0
    1.5633   -2.9052   -0.6363 O   0  0  0  0  0  0  0  0  0  0  0  0
   -0.0043    0.2315   -1.1047 H   0  0  0  0  0  0  0  0  0  0  0  0
   -0.5525   -0.3147    1.5857 H   0  0  0  0  0  0  0  0  0  0  0  0
    2.0438   -0.5978   -0.0523 H   0  0  0  0  0  0  0  0  0  0  0  0
    1.9372   -1.1815    1.5920 H   0  0  0  0  0  0  0  0  0  0  0  0
    1.2020   -3.7435   -0.9959 H   0  0  0  0  0  0  0  0  0  0  0  0
    1.5765    2.1370    0.9078 N   0  0  0  0  0  0  0  0  0  0  0  0
    2.2484    3.3223    1.3870 C   0  0  2  0  0  0  0  0  0  0  0  0
    3.4009    2.8812    2.2796 C   0  0  0  0  0  0  0  0  0  0  0  0
    3.4380    1.7849    2.8344 O   0  0  0  0  0  0  0  0  0  0  0  0
    1.2930    4.2325    2.1429 C   0  0  0  0  0  0  0  0  0  0  0  0
    1.6271    1.9146   -0.0820 H   0  0  0  0  0  0  0  0  0  0  0  0
    2.6449    3.8390    0.5062 H   0  0  0  0  0  0  0  0  0  0  0  0
    0.8854    3.7320    3.0289 H   0  0  0  0  0  0  0  0  0  0  0  0
    1.7971    5.1440    2.4808 H   0  0  0  0  0  0  0  0  0  0  0  0
    0.4491    4.5247    1.5086 H   0  0  0  0  0  0  0  0  0  0  0  0
    4.3623    3.8724    2.4184 N   0  0  0  0  0  0  0  0  0  0  0  0
    5.5477    3.7012    3.2257 C   0  0  0  0  0  0  0  0  0  0  0  0
    4.2592    4.7438    1.9067 H   0  0  0  0  0  0  0  0  0  0  0  0
    5.3569    4.0758    4.2422 H   0  0  0  0  0  0  0  0  0  0  0  0
    5.8089    2.6337    3.2715 H   0  0  0  0  0  0  0  0  0  0  0  0
    6.3804    4.2636    2.7781 H   0  0  0  0  0  0  0  0  0  0  0  0
  1  3  1  0  0  0  0
  1  7  1  0  0  0  0
  1  2  2  0  0  0  0
 31 32  1  0  0  0  0
 32 40  1  0  0  0  0
 32 33  2  0  0  0  0
  8  9  1  0  0  0  0
  9 17  1  0  0  0  0
  9 10  2  0  0  0  0
 18 19  1  0  0  0  0
 19 30  1  0  0  0  0
 19 20  2  0  0  0  0
 21 22  1  0  0  0  0
 22 23  2  0  0  0  0
 22 24  1  0  0  0  0
 31 34  1  0  0  0  0
  8 11  1  0  0  0  0
 40 41  1  0  0  0  0
 18 21  1  0  0  0  0
 30 31  1  0  0  0  0
  7  8  1  0  0  0  0
 17 18  1  0  0  0  0
  3  4  1  0  0  0  0
  3  5  1  0  0  0  0
  3  6  1  0  0  0  0
 34 37  1  0  0  0  0
 34 38  1  0  0  0  0
 34 39  1  0  0  0  0
 11 14  1  0  0  0  0
 11 15  1  0  0  0  0
 11 16  1  0  0  0  0
 41 43  1  0  0  0  0
 41 44  1  0  0  0  0
 41 45  1  0  0  0  0
 21 27  1  0  0  0  0
 21 28  1  0  0  0  0
 31 36  1  0  0  0  0
  8 13  1  0  0  0  0
 18 26  1  0  0  0  0
 40 42  1  0  0  0  0
  7 12  1  0  0  0  0
 30 35  1  0  0  0  0
 17 25  1  0  0  0  0
 24 29  1  0  0  0  0
M  END
$$$$

  -OEChem-02062319033D

 45 44  0     1  0  0  0  0  0999 V2000
   -2.2987    4.1032   -0.3022 C   0  0  0  0  0  0  0  0  0  0  0  0
   -1.8049    3.7117   -1.3532 O   0  0  0  0  0  0  0  0  0  0  0  0
   -3.0791    5.3755   -0.2846 C   0  0  0  0  0  0  0  0  0  0  0  0
   -2.4478    6.2532   -0.0717 H   0  0  0  0  0  0  0  0  0  0  0  0
   -3.5571    5.5891   -1.2541 H   0  0  0  0  0  0  0  0  0  0  0  0
   -3.8940    5.4184    0.4556 H   0  0  0  0  0  0  0  0  0  0  0  0
   -2.2137    3.4712    0.9275 N   0  0  0  0  0  0  0  0  0  0  0  0
   -1.5102    2.2327    1.1338 C   0  0  2  0  0  0  0  0  0  0  0  0
   -1.3539    1.5497   -0.2184 C   0  0  0  0  0  0  0  0  0  0  0  0
   -2.0852    1.7861   -1.1778 O   0  0  0  0  0  0  0  0  0  0  0  0
   -2.2477    1.3342    2.1145 C   0  0  0  0  0  0  0  0  0  0  0  0
   -2.6724    3.9052    1.7265 H   0  0  0  0  0  0  0  0  0  0  0  0
   -0.5220    2.4922    1.5290 H   0  0  0  0  0  0  0  0  0  0  0  0
   -3.2400    1.0636    1.7358 H   0  0  0  0  0  0  0  0  0  0  0  0
   -1.6970    0.4046    2.2923 H   0  0  0  0  0  0  0  0  0  0  0  0
   -2.3854    1.8384    3.0772 H   0  0  0  0  0  0  0  0  0  0  0  0
   -0.3283    0.6116   -0.2182 N   0  0  0  0  0  0  0  0  0  0  0  0
    0.0556   -0.1247    0.9588 C   0  0  2  0  0  0  0  0  0  0  0  0
    0.4915    0.8819    2.0160 C   0  0  0  0  0  0  0  0  0  0  0  0
    0.1664    0.7940    3.1983 O   0  0  0  0  0  0  0  0  0  0  0  0
    1.1723   -1.1238    0.6678 C   0  0  0  0  0  0  0  0  0  0  0  0
    0.6817   -2.2552   -0.2017 C   0  0  0  0  0  0  0  0  0  0  0  0
   -0.4738   -2.6592   -0.2114 O   0  0  0  0  0  0  0  0  0  0  0  0
    1.6668   -2.7921   -0.9633 O   0  0  0  0  0  0  0  0  0  0  0  0
    0.1520    0.4023   -1.0905 H   0  0  0  0  0  0  0  0  0  0  0  0
   -0.8483   -0.6382    1.3081 H   0  0  0  0  0  0  0  0  0  0  0  0
    1.9986   -0.6472    0.1254 H   0  0  0  0  0  0  0  0  0  0  0  0
    1.6164   -1.5323    1.5836 H   0  0  0  0  0  0  0  0  0  0  0  0
    1.3882   -3.5401   -1.5339 H   0  0  0  0  0  0  0  0  0  0  0  0
    1.3243    1.8614    1.4935 N   0  0  0  0  0  0  0  0  0  0  0  0
    1.8819    2.9218    2.3001 C   0  0  2  0  0  0  0  0  0  0  0  0
    2.8681    2.2990    3.2793 C   0  0  0  0  0  0  0  0  0  0  0  0
    2.8264    1.1164    3.6123 O   0  0  0  0  0  0  0  0  0  0  0  0
    0.7938    3.6870    3.0372 C   0  0  0  0  0  0  0  0  0  0  0  0
    1.5508    1.8313    0.5038 H   0  0  0  0  0  0  0  0  0  0  0  0
    2.4173    3.5904    1.6172 H   0  0  0  0  0  0  0  0  0  0  0  0
    0.2463    3.0334    3.7262 H   0  0  0  0  0  0  0  0  0  0  0  0
    1.2156    4.5084    3.6257 H   0  0  0  0  0  0  0  0  0  0  0  0
    0.0689    4.1092    2.3329 H   0  0  0  0  0  0  0  0  0  0  0  0
    3.7735    3.2290    3.7707 N   0  0  0  0  0  0  0  0  0  0  0  0
    4.8023    2.8867    4.7248 C   0  0  0  0  0  0  0  0  0  0  0  0
    3.7465    4.1837    3.4248 H   0  0  0  0  0  0  0  0  0  0  0  0
    4.4306    3.0634    5.7449 H   0  0  0  0  0  0  0  0  0  0  0  0
    5.0697    1.8258    4.6108 H   0  0  0  0  0  0  0  0  0  0  0  0
    5.6907    3.5101    4.5453 H   0  0  0  0  0  0  0  0  0  0  0  0
  1  3  1  0  0  0  0
  1  7  1  0  0  0  0
  1  2  2  0  0  0  0
 31 32  1  0  0  0  0
 32 40  1  0  0  0  0
 32 33  2  0  0  0  0
  8  9  1  0  0  0  0
  9 17  1  0  0  0  0
  9 10  2  0  0  0  0
 18 19  1  0  0  0  0
 19 30  1  0  0  0  0
 19 20  2  0  0  0  0
 21 22  1  0  0  0  0
 22 23  2  0  0  0  0
 22 24  1  0  0  0  0
 31 34  1  0  0  0  0
  8 11  1  0  0  0  0
 40 41  1  0  0  0  0
 18 21  1  0  0  0  0
 30 31  1  0  0  0  0
  7  8  1  0  0  0  0
 17 18  1  0  0  0  0
  3  4  1  0  0  0  0
  3  5  1  0  0  0  0
  3  6  1  0  0  0  0
 34 37  1  0  0  0  0
 34 38  1  0  0  0  0
 34 39  1  0  0  0  0
 11 14  1  0  0  0  0
 11 15  1  0  0  0  0
 11 16  1  0  0  0  0
 41 43  1  0  0  0  0
 41 44  1  0  0  0  0
 41 45  1  0  0  0  0
 21 27  1  0  0  0  0
 21 28  1  0  0  0  0
 31 36  1  0  0  0  0
  8 13  1  0  0  0  0
 18 26  1  0  0  0  0
 40 42  1  0  0  0  0
  7 12  1  0  0  0  0
 30 35  1  0  0  0  0
 17 25  1  0  0  0  0
 24 29  1  0  0  0  0
M  END
$$$$

  -OEChem-02062319033D

 45 44  0     1  0  0  0  0  0999 V2000
   -2.2987    4.1032   -0.3022 C   0  0  0  0  0  0  0  0  0  0  0  0
   -1.8049    3.7117   -1.3532 O   0  0  0  0  0  0  0  0  0  0  0  0
   -3.0791    5.3755   -0.2846 C   0  0  0  0  0  0  0  0  0  0  0  0
   -2.4478    6.2532   -0.0717 H   0  0  0  0  0  0  0  0  0  0  0  0
   -3.5571    5.5891   -1.2541 H   0  0  0  0  0  0  0  0  0  0  0  0
   -3.8940    5.4184    0.4556 H   0  0  0  0  0  0  0  0  0  0  0  0
   -2.2137    3.4712    0.9275 N   0  0  0  0  0  0  0  0  0  0  0  0
   -1.5102    2.2327    1.1338 C   0  0  2  0  0  0  0  0  0  0  0  0
   -1.3539    1.5497   -0.2184 C   0  0  0  0  0  0  0  0  0  0  0  0
   -2.0852    1.7861   -1.1778 O   0  0  0  0  0  0  0  0  0  0  0  0
   -2.2477    1.3342    2.1145 C   0  0  0  0  0  0  0  0  0  0  0  0
   -2.6724    3.9052    1.7265 H   0  0  0  0  0  0  0  0  0  0  0  0
   -0.5220    2.4922    1.5290 H   0  0  0  0  0  0  0  0  0  0  0  0
   -3.2400    1.0636    1.7358 H   0  0  0  0  0  0  0  0  0  0  0  0
   -1.6970    0.4046    2.2923 H   0  0  0  0  0  0  0  0  0  0  0  0
   -2.3854    1.8384    3.0772 H   0  0  0  0  0  0  0  0  0  0  0  0
   -0.3283    0.6116   -0.2182 N   0  0  0  0  0  0  0  0  0  0  0  0
   -0.1435   -0.3423    0.8451 C   0  0  2  0  0  0  0  0  0  0  0  0
    0.0839    0.4363    2.1347 C   0  0  0  0  0  0  0  0  0  0  0  0
   -0.4412    0.1297    3.2032 O   0  0  0  0  0  0  0  0  0  0  0  0
    1.0238   -1.2862    0.5683 C   0  0  0  0  0  0  0  0  0  0  0  0
    0.7119   -2.2223   -0.5734 C   0  0  0  0  0  0  0  0  0  0  0  0
   -0.4171   -2.5974   -0.8617 O   0  0  0  0  0  0  0  0  0  0  0  0
    1.8239   -2.6204   -1.2395 O   0  0  0  0  0  0  0  0  0  0  0  0
    0.3005    0.5647   -1.0168 H   0  0  0  0  0  0  0  0  0  0  0  0
   -1.0855   -0.8977    0.9266 H   0  0  0  0  0  0  0  0  0  0  0  0
    1.9239   -0.7288    0.2798 H   0  0  0  0  0  0  0  0  0  0  0  0
    1.3080   -1.8695    1.4524 H   0  0  0  0  0  0  0  0  0  0  0  0
    1.6620   -3.2408   -1.9821 H   0  0  0  0  0  0  0  0  0  0  0  0
    0.9784    1.4834    1.9625 N   0  0  0  0  0  0  0  0  0  0  0  0
    1.3684    2.3606    3.0415 C   0  0  2  0  0  0  0  0  0  0  0  0
    2.1789    1.5456    4.0407 C   0  0  0  0  0  0  0  0  0  0  0  0
    2.0998    0.3221    4.1293 O   0  0  0  0  0  0  0  0  0  0  0  0
    0.1554    2.9892    3.7096 C   0  0  0  0  0  0  0  0  0  0  0  0
    1.3748    1.6390    1.0404 H   0  0  0  0  0  0  0  0  0  0  0  0
    2.0034    3.1382    2.6032 H   0  0  0  0  0  0  0  0  0  0  0  0
   -0.4928    2.2255    4.1547 H   0  0  0  0  0  0  0  0  0  0  0  0
    0.4539    3.6758    4.5086 H   0  0  0  0  0  0  0  0  0  0  0  0
   -0.4424    3.5503    2.9833 H   0  0  0  0  0  0  0  0  0  0  0  0
    2.9686    2.3492    4.8511 N   0  0  0  0  0  0  0  0  0  0  0  0
    3.8206    1.8136    5.8871 C   0  0  0  0  0  0  0  0  0  0  0  0
    2.9862    3.3527    4.6947 H   0  0  0  0  0  0  0  0  0  0  0  0
    3.2734    1.7985    6.8412 H   0  0  0  0  0  0  0  0  0  0  0  0
    4.1218    0.7897    5.6210 H   0  0  0  0  0  0  0  0  0  0  0  0
    4.7159    2.4447    5.9880 H   0  0  0  0  0  0  0  0  0  0  0  0
  1  3  1  0  0  0  0
  1  7  1  0  0  0  0
  1  2  2  0  0  0  0
 31 32  1  0  0  0  0
 32 40  1  0  0  0  0
 32 33  2  0  0  0  0
  8  9  1  0  0  0  0
  9 17  1  0  0  0  0
  9 10  2  0  0  0  0
 18 19  1  0  0  0  0
 19 30  1  0  0  0  0
 19 20  2  0  0  0  0
 21 22  1  0  0  0  0
 22 23  2  0  0  0  0
 22 24  1  0  0  0  0
 31 34  1  0  0  0  0
  8 11  1  0  0  0  0
 40 41  1  0  0  0  0
 18 21  1  0  0  0  0
 30 31  1  0  0  0  0
  7  8  1  0  0  0  0
 17 18  1  0  0  0  0
  3  4  1  0  0  0  0
  3  5  1  0  0  0  0
  3  6  1  0  0  0  0
 34 37  1  0  0  0  0
 34 38  1  0  0  0  0
 34 39  1  0  0  0  0
 11 14  1  0  0  0  0
 11 15  1  0  0  0  0
 11 16  1  0  0  0  0
 41 43  1  0  0  0  0
 41 44  1  0  0  0  0
 41 45  1  0  0  0  0
 21 27  1  0  0  0  0
 21 28  1  0  0  0  0
 31 36  1  0  0  0  0
  8 13  1  0  0  0  0
 18 26  1  0  0  0  0
 40 42  1  0  0  0  0
  7 12  1  0  0  0  0
 30 35  1  0  0  0  0
 17 25  1  0  0  0  0
 24 29  1  0  0  0  0
M  END
$$$$

  -OEChem-02062319033D

 45 44  0     1  0  0  0  0  0999 V2000
   -2.2987    4.1032   -0.3022 C   0  0  0  0  0  0  0  0  0  0  0  0
   -1.8049    3.7117   -1.3532 O   0  0  0  0  0  0  0  0  0  0  0  0
   -3.0791    5.3755   -0.2846 C   0  0  0  0  0  0  0  0  0  0  0  0
   -2.4478    6.2532   -0.0717 H   0  0  0  0  0  0  0  0  0  0  0  0
   -3.5571    5.5891   -1.2541 H   0  0  0  0  0  0  0  0  0  0  0  0
   -3.8940    5.4184    0.4556 H   0  0  0  0  0  0  0  0  0  0  0  0
   -2.2137    3.4712    0.9275 N   0  0  0  0  0  0  0  0  0  0  0  0
   -1.5102    2.2327    1.1338 C   0  0  2  0  0  0  0  0  0  0  0  0
   -1.3539    1.5497   -0.2184 C   0  0  0  0  0  0  0  0  0  0  0  0
   -2.0852    1.7861   -1.1778 O   0  0  0  0  0  0  0  0  0  0  0  0
   -2.2477    1.3342    2.1145 C   0  0  0  0  0  0  0  0  0  0  0  0
   -2.6724    3.9052    1.7265 H   0  0  0  0  0  0  0  0  0  0  0  0
   -0.5220    2.4922    1.5290 H   0  0  0  0  0  0  0  0  0  0  0  0
   -3.2400    1.0636    1.7358 H   0  0  0  0  0  0  0  0  0  0  0  0
   -1.6970    0.4046    2.2923 H   0  0  0  0  0  0  0  0  0  0  0  0
   -2.3854    1.8384    3.0772 H   0  0  0  0  0  0  0  0  0  0  0  0
   -0.3283    0.6116   -0.2182 N   0  0  0  0  0  0  0  0  0  0  0  0
   -0.3158   -0.5308    0.6590 C   0  0  2  0  0  0  0  0  0  0  0  0
   -0.3305   -0.0168    2.0930 C   0  0  0  0  0  0  0  0  0  0  0  0
   -1.0288   -0.5129    2.9748 O   0  0  0  0  0  0  0  0  0  0  0  0
    0.8977   -1.4240    0.4152 C   0  0  0  0  0  0  0  0  0  0  0  0
    0.8060   -2.1194   -0.9208 C   0  0  0  0  0  0  0  0  0  0  0  0
   -0.2487   -2.4134   -1.4682 O   0  0  0  0  0  0  0  0  0  0  0  0
    2.0239   -2.4018   -1.4460 O   0  0  0  0  0  0  0  0  0  0  0  0
    0.4311    0.7075   -0.8888 H   0  0  0  0  0  0  0  0  0  0  0  0
   -1.2481   -1.0755    0.4671 H   0  0  0  0  0  0  0  0  0  0  0  0
    1.8248   -0.8371    0.4002 H   0  0  0  0  0  0  0  0  0  0  0  0
    1.0330   -2.1703    1.2075 H   0  0  0  0  0  0  0  0  0  0  0  0
    2.0048   -2.8661   -2.3101 H   0  0  0  0  0  0  0  0  0  0  0  0
    0.5624    1.0286    2.2830 N   0  0  0  0  0  0  0  0  0  0  0  0
    0.7429    1.6769    3.5609 C   0  0  2  0  0  0  0  0  0  0  0  0
    1.3801    0.6724    4.5119 C   0  0  0  0  0  0  0  0  0  0  0  0
    1.3077   -0.5440    4.3500 O   0  0  0  0  0  0  0  0  0  0  0  0
   -0.5786    2.1867    4.1143 C   0  0  0  0  0  0  0  0  0  0  0  0
    1.1110    1.3508    1.4912 H   0  0  0  0  0  0  0  0  0  0  0  0
    1.4315    2.5130    3.3968 H   0  0  0  0  0  0  0  0  0  0  0  0
   -1.2815    1.3631    4.2851 H   0  0  0  0  0  0  0  0  0  0  0  0
   -0.4360    2.7030    5.0694 H   0  0  0  0  0  0  0  0  0  0  0  0
   -1.0499    2.8863    3.4155 H   0  0  0  0  0  0  0  0  0  0  0  0
    2.0024    1.2930    5.5861 N   0  0  0  0  0  0  0  0  0  0  0  0
    2.6694    0.5551    6.6333 C   0  0  0  0  0  0  0  0  0  0  0  0
    2.0300    2.3074    5.6297 H   0  0  0  0  0  0  0  0  0  0  0  0
    1.9643    0.3673    7.4565 H   0  0  0  0  0  0  0  0  0  0  0  0
    3.0298   -0.4042    6.2334 H   0  0  0  0  0  0  0  0  0  0  0  0
    3.5224    1.1400    7.0077 H   0  0  0  0  0  0  0  0  0  0  0  0
  1  3  1  0  0  0  0
  1  7  1  0  0  0  0
  1  2  2  0  0  0  0
 31 32  1  0  0  0  0
 32 40  1  0  0  0  0
 32 33  2  0  0  0  0
  8  9  1  0  0  0  0
  9 17  1  0  0  0  0
  9 10  2  0  0  0  0
 18 19  1  0  0  0  0
 19 30  1  0  0  0  0
 19 20  2  0  0  0  0
 21 22  1  0  0  0  0
 22 23  2  0  0  0  0
 22 24  1  0  0  0  0
 31 34  1  0  0  0  0
  8 11  1  0  0  0  0
 40 41  1  0  0  0  0
 18 21  1  0  0  0  0
 30 31  1  0  0  0  0
  7  8  1  0  0  0  0
 17 18  1  0  0  0  0
  3  4  1  0  0  0  0
  3  5  1  0  0  0  0
  3  6  1  0  0  0  0
 34 37  1  0  0  0  0
 34 38  1  0  0  0  0
 34 39  1  0  0  0  0
 11 14  1  0  0  0  0
 11 15  1  0  0  0  0
 11 16  1  0  0  0  0
 41 43  1  0  0  0  0
 41 44  1  0  0  0  0
 41 45  1  0  0  0  0
 21 27  1  0  0  0  0
 21 28  1  0  0  0  0
 31 36  1  0  0  0  0
  8 13  1  0  0  0  0
 18 26  1  0  0  0  0
 40 42  1  0  0  0  0
  7 12  1  0  0  0  0
 30 35  1  0  0  0  0
 17 25  1  0  0  0  0
 24 29  1  0  0  0  0
M  END
$$$$

  -OEChem-02062319033D

 45 44  0     1  0  0  0  0  0999 V2000
   -2.2987    4.1032   -0.3022 C   0  0  0  0  0  0  0  0  0  0  0  0
   -1.8049    3.7117   -1.3532 O   0  0  0  0  0  0  0  0  0  0  0  0
   -3.0791    5.3755   -0.2846 C   0  0  0  0  0  0  0  0  0  0  0  0
   -2.4478    6.2532   -0.0717 H   0  0  0  0  0  0  0  0  0  0  0  0
   -3.5571    5.5891   -1.2541 H   0  0  0  0  0  0  0  0  0  0  0  0
   -3.8940    5.4184    0.4556 H   0  0  0  0  0  0  0  0  0  0  0  0
   -2.2137    3.4712    0.9275 N   0  0  0  0  0  0  0  0  0  0  0  0
   -1.5102    2.2327    1.1338 C   0  0  2  0  0  0  0  0  0  0  0  0
   -1.3539    1.5497   -0.2184 C   0  0  0  0  0  0  0  0  0  0  0  0
   -2.0852    1.7861   -1.1778 O   0  0  0  0  0  0  0  0  0  0  0  0
   -2.2477    1.3342    2.1145 C   0  0  0  0  0  0  0  0  0  0  0  0
   -2.6724    3.9052    1.7265 H   0  0  0  0  0  0  0  0  0  0  0  0
   -0.5220    2.4922    1.5290 H   0  0  0  0  0  0  0  0  0  0  0  0
   -3.2400    1.0636    1.7358 H   0  0  0  0  0  0  0  0  0  0  0  0
   -1.6970    0.4046    2.2923 H   0  0  0  0  0  0  0  0  0  0  0  0
   -2.3854    1.8384    3.0772 H   0  0  0  0  0  0  0  0  0  0  0  0
   -0.3283    0.6116   -0.2182 N   0  0  0  0  0  0  0  0  0  0  0  0
   -0.4498   -0.6774    0.4131 C   0  0  2  0  0  0  0  0  0  0  0  0
   -0.7234   -0.4466    1.8939 C   0  0  0  0  0  0  0  0  0  0  0  0
   -1.5565   -1.0900    2.5289 O   0  0  0  0  0  0  0  0  0  0  0  0
    0.8027   -1.5280    0.2190 C   0  0  0  0  0  0  0  0  0  0  0  0
    0.9577   -1.9538   -1.2203 C   0  0  0  0  0  0  0  0  0  0  0  0
    0.0199   -2.1199   -1.9894 O   0  0  0  0  0  0  0  0  0  0  0  0
    2.2532   -2.1512   -1.5688 O   0  0  0  0  0  0  0  0  0  0  0  0
    0.5348    0.8209   -0.7150 H   0  0  0  0  0  0  0  0  0  0  0  0
   -1.3248   -1.1595   -0.0392 H   0  0  0  0  0  0  0  0  0  0  0  0
    1.7080   -0.9648    0.4786 H   0  0  0  0  0  0  0  0  0  0  0  0
    0.8102   -2.4140    0.8654 H   0  0  0  0  0  0  0  0  0  0  0  0
    2.3932   -2.4415   -2.4955 H   0  0  0  0  0  0  0  0  0  0  0  0
    0.1046    0.5281    2.4329 N   0  0  0  0  0  0  0  0  0  0  0  0
    0.0481    0.9172    3.8227 C   0  0  2  0  0  0  0  0  0  0  0  0
    0.5264   -0.2610    4.6608 C   0  0  0  0  0  0  0  0  0  0  0  0
    0.5040   -1.4227    4.2594 O   0  0  0  0  0  0  0  0  0  0  0  0
   -1.3583    1.3343    4.2238 C   0  0  0  0  0  0  0  0  0  0  0  0
    0.7776    0.9863    1.8255 H   0  0  0  0  0  0  0  0  0  0  0  0
    0.7404    1.7575    3.9442 H   0  0  0  0  0  0  0  0  0  0  0  0
   -2.0660    0.5052    4.1087 H   0  0  0  0  0  0  0  0  0  0  0  0
   -1.3935    1.6561    5.2698 H   0  0  0  0  0  0  0  0  0  0  0  0
   -1.7121    2.1623    3.6001 H   0  0  0  0  0  0  0  0  0  0  0  0
    0.9408    0.1323    5.9256 N   0  0  0  0  0  0  0  0  0  0  0  0
    1.4271   -0.8032    6.9127 C   0  0  0  0  0  0  0  0  0  0  0  0
    0.9430    1.1192    6.1663 H   0  0  0  0  0  0  0  0  0  0  0  0
    0.5923   -1.1328    7.5488 H   0  0  0  0  0  0  0  0  0  0  0  0
    1.8681   -1.6743    6.4061 H   0  0  0  0  0  0  0  0  0  0  0  0
    2.1916   -0.3150    7.5350 H   0  0  0  0  0  0  0  0  0  0  0  0
  1  3  1  0  0  0  0
  1  7  1  0  0  0  0
  1  2  2  0  0  0  0
 31 32  1  0  0  0  0
 32 40  1  0  0  0  0
 32 33  2  0  0  0  0
  8  9  1  0  0  0  0
  9 17  1  0  0  0  0
  9 10  2  0  0  0  0
 18 19  1  0  0  0  0
 19 30  1  0  0  0  0
 19 20  2  0  0  0  0
 21 22  1  0  0  0  0
 22 23  2  0  0  0  0
 22 24  1  0  0  0  0
 31 34  1  0  0  0  0
  8 11  1  0  0  0  0
 40 41  1  0  0  0  0
 18 21  1  0  0  0  0
 30 31  1  0  0  0  0
  7  8  1  0  0  0  0
 17 18  1  0  0  0  0
  3  4  1  0  0  0  0
  3  5  1  0  0  0  0
  3  6  1  0  0  0  0
 34 37  1  0  0  0  0
 34 38  1  0  0  0  0
 34 39  1  0  0  0  0
 11 14  1  0  0  0  0
 11 15  1  0  0  0  0
 11 16  1  0  0  0  0
 41 43  1  0  0  0  0
 41 44  1  0  0  0  0
 41 45  1  0  0  0  0
 21 27  1  0  0  0  0
 21 28  1  0  0  0  0
 31 36  1  0  0  0  0
  8 13  1  0  0  0  0
 18 26  1  0  0  0  0
 40 42  1  0  0  0  0
  7 12  1  0  0  0  0
 30 35  1  0  0  0  0
 17 25  1  0  0  0  0
 24 29  1  0  0  0  0
M  END
$$$$

  -OEChem-02062319033D

 45 44  0     1  0  0  0  0  0999 V2000
   -2.2987    4.1032   -0.3022 C   0  0  0  0  0  0  0  0  0  0  0  0
   -1.8049    3.7117   -1.3532 O   0  0  0  0  0  0  0  0  0  0  0  0
   -3.0791    5.3755   -0.2846 C   0  0  0  0  0  0  0  0  0  0  0  0
   -2.4478    6.2532   -0.0717 H   0  0  0  0  0  0  0  0  0  0  0  0
   -3.5571    5.5891   -1.2541 H   0  0  0  0  0  0  0  0  0  0  0  0
   -3.8940    5.4184    0.4556 H   0  0  0  0  0  0  0  0  0  0  0  0
   -2.2137    3.4712    0.9275 N   0  0  0  0  0  0  0  0  0  0  0  0
   -1.5102    2.2327    1.1338 C   0  0  2  0  0  0  0  0  0  0  0  0
   -1.3539    1.5497   -0.2184 C   0  0  0  0  0  0  0  0  0  0  0  0
   -2.0852    1.7861   -1.1778 O   0  0  0  0  0  0  0  0  0  0  0  0
   -2.2477    1.3342    2.1145 C   0  0  0  0  0  0  0  0  0  0  0  0
   -2.6724    3.9052    1.7265 H   0  0  0  0  0  0  0  0  0  0  0  0
   -0.5220    2.4922    1.5290 H   0  0  0  0  0  0  0  0  0  0  0  0
   -3.2400    1.0636    1.7358 H   0  0  0  0  0  0  0  0  0  0  0  0
   -1.6970    0.4046    2.2923 H   0  0  0  0  0  0  0  0  0  0  0  0
   -2.3854    1.8384    3.0772 H   0  0  0  0  0  0  0  0  0  0  0  0
   -0.3283    0.6116   -0.2182 N   0  0  0  0  0  0  0  0  0  0  0  0
   -0.5362   -0.7720    0.1242 C   0  0  2  0  0  0  0  0  0  0  0  0
   -1.0682   -0.8236    1.5508 C   0  0  0  0  0  0  0  0  0  0  0  0
   -1.9883   -1.5623    1.8958 O   0  0  0  0  0  0  0  0  0  0  0  0
    0.7452   -1.5909   -0.0070 C   0  0  0  0  0  0  0  0  0  0  0  0
    1.1564   -1.7365   -1.4515 C   0  0  0  0  0  0  0  0  0  0  0  0
    0.3704   -1.7368   -2.3899 O   0  0  0  0  0  0  0  0  0  0  0  0
    2.4960   -1.8856   -1.5995 O   0  0  0  0  0  0  0  0  0  0  0  0
    0.6046    0.8973   -0.5073 H   0  0  0  0  0  0  0  0  0  0  0  0
   -1.3104   -1.1440   -0.5576 H   0  0  0  0  0  0  0  0  0  0  0  0
    1.5815   -1.1031    0.5094 H   0  0  0  0  0  0  0  0  0  0  0  0
    0.6548   -2.5840    0.4495 H   0  0  0  0  0  0  0  0  0  0  0  0
    2.8007   -1.9959   -2.5256 H   0  0  0  0  0  0  0  0  0  0  0  0
   -0.3638    0.0160    2.4023 N   0  0  0  0  0  0  0  0  0  0  0  0
   -0.6687    0.1334    3.8091 C   0  0  2  0  0  0  0  0  0  0  0  0
   -0.3242   -1.1911    4.4772 C   0  0  0  0  0  0  0  0  0  0  0  0
   -0.2563   -2.2542    3.8637 O   0  0  0  0  0  0  0  0  0  0  0  0
   -2.1305    0.4899    4.0305 C   0  0  0  0  0  0  0  0  0  0  0  0
    0.3971    0.5703    2.0206 H   0  0  0  0  0  0  0  0  0  0  0  0
   -0.0228    0.9232    4.2079 H   0  0  0  0  0  0  0  0  0  0  0  0
   -2.7930   -0.2898    3.6374 H   0  0  0  0  0  0  0  0  0  0  0  0
   -2.3534    0.6066    5.0962 H   0  0  0  0  0  0  0  0  0  0  0  0
   -2.3839    1.4277    3.5244 H   0  0  0  0  0  0  0  0  0  0  0  0
   -0.1438   -1.0536    5.8464 N   0  0  0  0  0  0  0  0  0  0  0  0
    0.1784   -2.1686    6.7061 C   0  0  0  0  0  0  0  0  0  0  0  0
   -0.2005   -0.1311    6.2677 H   0  0  0  0  0  0  0  0  0  0  0  0
   -0.7489   -2.5994    7.1118 H   0  0  0  0  0  0  0  0  0  0  0  0
    0.7158   -2.9343    6.1275 H   0  0  0  0  0  0  0  0  0  0  0  0
    0.8140   -1.8213    7.5340 H   0  0  0  0  0  0  0  0  0  0  0  0
  1  3  1  0  0  0  0
  1  7  1  0  0  0  0
  1  2  2  0  0  0  0
 31 32  1  0  0  0  0
 32 40  1  0  0  0  0
 32 33  2  0  0  0  0
  8  9  1  0  0  0  0
  9 17  1  0  0  0  0
  9 10  2  0  0  0  0
 18 19  1  0  0  0  0
 19 30  1  0  0  0  0
 19 20  2  0  0  0  0
 21 22  1  0  0  0  0
 22 23  2  0  0  0  0
 22 24  1  0  0  0  0
 31 34  1  0  0  0  0
  8 11  1  0  0  0  0
 40 41  1  0  0  0  0
 18 21  1  0  0  0  0
 30 31  1  0  0  0  0
  7  8  1  0  0  0  0
 17 18  1  0  0  0  0
  3  4  1  0  0  0  0
  3  5  1  0  0  0  0
  3  6  1  0  0  0  0
 34 37  1  0  0  0  0
 34 38  1  0  0  0  0
 34 39  1  0  0  0  0
 11 14  1  0  0  0  0
 11 15  1  0  0  0  0
 11 16  1  0  0  0  0
 41 43  1  0  0  0  0
 41 44  1  0  0  0  0
 41 45  1  0  0  0  0
 21 27  1  0  0  0  0
 21 28  1  0  0  0  0
 31 36  1  0  0  0  0
  8 13  1  0  0  0  0
 18 26  1  0  0  0  0
 40 42  1  0  0  0  0
  7 12  1  0  0  0  0
 30 35  1  0  0  0  0
 17 25  1  0  0  0  0
 24 29  1  0  0  0  0
M  END
$$$$

  -OEChem-02062319033D

 45 44  0     1  0  0  0  0  0999 V2000
   -2.2987    4.1032   -0.3022 C   0  0  0  0  0  0  0  0  0  0  0  0
   -1.8049    3.7117   -1.3532 O   0  0  0  0  0  0  0  0  0  0  0  0
   -3.0791    5.3755   -0.2846 C   0  0  0  0  0  0  0  0  0  0  0  0
   -2.4478    6.2532   -0.0717 H   0  0  0  0  0  0  0  0  0  0  0  0
   -3.5571    5.5891   -1.2541 H   0  0  0  0  0  0  0  0  0  0  0  0
   -3.8940    5.4184    0.4556 H   0  0  0  0  0  0  0  0  0  0  0  0
   -2.2137    3.4712    0.9275 N   0  0  0  0  0  0  0  0  0  0  0  0
   -1.5102    2.2327    1.1338 C   0  0  2  0  0  0  0  0  0  0  0  0
   -1.3539    1.5497   -0.2184 C   0  0  0  0  0  0  0  0  0  0  0  0
   -2.0852    1.7861   -1.1778 O   0  0  0  0  0  0  0  0  0  0  0  0
   -2.2477    1.3342    2.1145 C   0  0  0  0  0  0  0  0  0  0  0  0
   -2.6724    3.9052    1.7265 H   0  0  0  0  0  0  0  0  0  0  0  0
   -0.5220    2.4922    1.5290 H   0  0  0  0  0  0  0  0  0  0  0  0
   -3.2400    1.0636    1.7358 H   0  0  0  0  0  0  0  0  0  0  0  0
   -1.6970    0.4046    2.2923 H   0  0  0  0  0  0  0  0  0  0  0  0
   -2.3854    1.8384    3.0772 H   0  0  0  0  0  0  0  0  0  0  0  0
   -0.3283    0.6116   -0.2182 N   0  0  0  0  0  0  0  0  0  0  0  0
   -0.5692   -0.8082   -0.1881 C   0  0  2  0  0  0  0  0  0  0  0  0
   -1.3413   -1.1223    1.0871 C   0  0  0  0  0  0  0  0  0  0  0  0
   -2.2948   -1.8976    1.1186 O   0  0  0  0  0  0  0  0  0  0  0  0
    0.7292   -1.6085   -0.2473 C   0  0  0  0  0  0  0  0  0  0  0  0
    1.3888   -1.4825   -1.5986 C   0  0  0  0  0  0  0  0  0  0  0  0
    0.7788   -1.2902   -2.6424 O   0  0  0  0  0  0  0  0  0  0  0  0
    2.7360   -1.6232   -1.5360 O   0  0  0  0  0  0  0  0  0  0  0  0
    0.6358    0.9315   -0.2799 H   0  0  0  0  0  0  0  0  0  0  0  0
   -1.2060   -1.0300   -1.0529 H   0  0  0  0  0  0  0  0  0  0  0  0
    1.4540   -1.2425    0.4908 H   0  0  0  0  0  0  0  0  0  0  0  0
    0.5773   -2.6689   -0.0119 H   0  0  0  0  0  0  0  0  0  0  0  0
    3.1995   -1.5598   -2.3984 H   0  0  0  0  0  0  0  0  0  0  0  0
   -0.8108   -0.4729    2.1930 N   0  0  0  0  0  0  0  0  0  0  0  0
   -1.3588   -0.6211    3.5211 C   0  0  2  0  0  0  0  0  0  0  0  0
   -1.1137   -2.0545    3.9736 C   0  0  0  0  0  0  0  0  0  0  0  0
   -0.9217   -2.9818    3.1898 O   0  0  0  0  0  0  0  0  0  0  0  0
   -2.8425   -0.2888    3.5477 C   0  0  0  0  0  0  0  0  0  0  0  0
   -0.0045    0.1312    2.0631 H   0  0  0  0  0  0  0  0  0  0  0  0
   -0.8059    0.0669    4.1699 H   0  0  0  0  0  0  0  0  0  0  0  0
   -3.4129   -0.9677    2.9033 H   0  0  0  0  0  0  0  0  0  0  0  0
   -3.2501   -0.3740    4.5604 H   0  0  0  0  0  0  0  0  0  0  0  0
   -3.0196    0.7325    3.1936 H   0  0  0  0  0  0  0  0  0  0  0  0
   -1.1777   -2.1841    5.3539 N   0  0  0  0  0  0  0  0  0  0  0  0
   -0.9917   -3.4480    6.0277 C   0  0  0  0  0  0  0  0  0  0  0  0
   -1.3227   -1.3583    5.9272 H   0  0  0  0  0  0  0  0  0  0  0  0
   -1.9681   -3.9327    6.1753 H   0  0  0  0  0  0  0  0  0  0  0  0
   -0.3484   -4.0981    5.4164 H   0  0  0  0  0  0  0  0  0  0  0  0
   -0.5164   -3.2761    7.0047 H   0  0  0  0  0  0  0  0  0  0  0  0
  1  3  1  0  0  0  0
  1  7  1  0  0  0  0
  1  2  2  0  0  0  0
 31 32  1  0  0  0  0
 32 40  1  0  0  0  0
 32 33  2  0  0  0  0
  8  9  1  0  0  0  0
  9 17  1  0  0  0  0
  9 10  2  0  0  0  0
 18 19  1  0  0  0  0
 19 30  1  0  0  0  0
 19 20  2  0  0  0  0
 21 22  1  0  0  0  0
 22 23  2  0  0  0  0
 22 24  1  0  0  0  0
 31 34  1  0  0  0  0
  8 11  1  0  0  0  0
 40 41  1  0  0  0  0
 18 21  1  0  0  0  0
 30 31  1  0  0  0  0
  7  8  1  0  0  0  0
 17 18  1  0  0  0  0
  3  4  1  0  0  0  0
  3  5  1  0  0  0  0
  3  6  1  0  0  0  0
 34 37  1  0  0  0  0
 34 38  1  0  0  0  0
 34 39  1  0  0  0  0
 11 14  1  0  0  0  0
 11 15  1  0  0  0  0
 11 16  1  0  0  0  0
 41 43  1  0  0  0  0
 41 44  1  0  0  0  0
 41 45  1  0  0  0  0
 21 27  1  0  0  0  0
 21 28  1  0  0  0  0
 31 36  1  0  0  0  0
  8 13  1  0  0  0  0
 18 26  1  0  0  0  0
 40 42  1  0  0  0  0
  7 12  1  0  0  0  0
 30 35  1  0  0  0  0
 17 25  1  0  0  0  0
 24 29  1  0  0  0  0
M  END
$$$$

  -OEChem-02062319033D

 45 44  0     1  0  0  0  0  0999 V2000
   -2.2987    4.1032   -0.3022 C   0  0  0  0  0  0  0  0  0  0  0  0
   -1.8049    3.7117   -1.3532 O   0  0  0  0  0  0  0  0  0  0  0  0
   -3.0791    5.3755   -0.2846 C   0  0  0  0  0  0  0  0  0  0  0  0
   -2.4478    6.2532   -0.0717 H   0  0  0  0  0  0  0  0  0  0  0  0
   -3.5571    5.5891   -1.2541 H   0  0  0  0  0  0  0  0  0  0  0  0
   -3.8940    5.4184    0.4556 H   0  0  0  0  0  0  0  0  0  0  0  0
   -2.2137    3.4712    0.9275 N   0  0  0  0  0  0  0  0  0  0  0  0
   -1.5102    2.2327    1.1338 C   0  0  2  0  0  0  0  0  0  0  0  0
   -1.3539    1.5497   -0.2184 C   0  0  0  0  0  0  0  0  0  0  0  0
   -2.0852    1.7861   -1.1778 O   0  0  0  0  0  0  0  0  0  0  0  0
   -2.2477    1.3342    2.1145 C   0  0  0  0  0  0  0  0  0  0  0  0
   -2.6724    3.9052    1.7265 H   0  0  0  0  0  0  0  0  0  0  0  0
   -0.5220    2.4922    1.5290 H   0  0  0  0  0  0  0  0  0  0  0  0
   -3.2400    1.0636    1.7358 H   0  0  0  0  0  0  0  0  0  0  0  0
   -1.6970    0.4046    2.2923 H   0  0  0  0  0  0  0  0  0  0  0  0
   -2.3854    1.8384    3.0772 H   0  0  0  0  0  0  0  0  0  0  0  0
   -0.3283    0.6116   -0.2182 N   0  0  0  0  0  0  0  0  0  0  0  0
   -0.5466   -0.7835   -0.5023 C   0  0  2  0  0  0  0  0  0  0  0  0
   -1.5240   -1.3223    0.5346 C   0  0  0  0  0  0  0  0  0  0  0  0
   -2.4551   -2.0731    0.2503 O   0  0  0  0  0  0  0  0  0  0  0  0
    0.7556   -1.5797   -0.4856 C   0  0  0  0  0  0  0  0  0  0  0  0
    1.6389   -1.2090   -1.6516 C   0  0  0  0  0  0  0  0  0  0  0  0
    1.2175   -0.8107   -2.7296 O   0  0  0  0  0  0  0  0  0  0  0  0
    2.9566   -1.3819   -1.3827 O   0  0  0  0  0  0  0  0  0  0  0  0
    0.6261    0.9210   -0.0484 H   0  0  0  0  0  0  0  0  0  0  0  0
   -1.0186   -0.8252   -1.4913 H   0  0  0  0  0  0  0  0  0  0  0  0
    1.3341   -1.3737    0.4238 H   0  0  0  0  0  0  0  0  0  0  0  0
    0.5830   -2.6627   -0.4872 H   0  0  0  0  0  0  0  0  0  0  0  0
    3.5626   -1.1628   -2.1226 H   0  0  0  0  0  0  0  0  0  0  0  0
   -1.2060   -0.9051    1.8194 N   0  0  0  0  0  0  0  0  0  0  0  0
   -1.9749   -1.2949    2.9782 C   0  0  2  0  0  0  0  0  0  0  0  0
   -1.7883   -2.7923    3.1844 C   0  0  0  0  0  0  0  0  0  0  0  0
   -1.4466   -3.5560    2.2838 O   0  0  0  0  0  0  0  0  0  0  0  0
   -3.4460   -0.9488    2.8082 C   0  0  0  0  0  0  0  0  0  0  0  0
   -0.3999   -0.3011    1.9502 H   0  0  0  0  0  0  0  0  0  0  0  0
   -1.5557   -0.7530    3.8329 H   0  0  0  0  0  0  0  0  0  0  0  0
   -3.8834   -1.4824    1.9565 H   0  0  0  0  0  0  0  0  0  0  0  0
   -4.0227   -1.2190    3.6990 H   0  0  0  0  0  0  0  0  0  0  0  0
   -3.5758    0.1242    2.6304 H   0  0  0  0  0  0  0  0  0  0  0  0
   -2.0902   -3.1821    4.4817 N   0  0  0  0  0  0  0  0  0  0  0  0
   -2.0032   -4.5544    4.9237 C   0  0  0  0  0  0  0  0  0  0  0  0
   -2.3472   -2.4786    5.1679 H   0  0  0  0  0  0  0  0  0  0  0  0
   -2.9820   -5.0417    4.8031 H   0  0  0  0  0  0  0  0  0  0  0  0
   -1.2522   -5.0865    4.3214 H   0  0  0  0  0  0  0  0  0  0  0  0
   -1.7090   -4.5803    5.9833 H   0  0  0  0  0  0  0  0  0  0  0  0
  1  3  1  0  0  0  0
  1  7  1  0  0  0  0
  1  2  2  0  0  0  0
 31 32  1  0  0  0  0
 32 40  1  0  0  0  0
 32 33  2  0  0  0  0
  8  9  1  0  0  0  0
  9 17  1  0  0  0  0
  9 10  2  0  0  0  0
 18 19  1  0  0  0  0
 19 30  1  0  0  0  0
 19 20  2  0  0  0  0
 21 22  1  0  0  0  0
 22 23  2  0  0  0  0
 22 24  1  0  0  0  0
 31 34  1  0  0  0  0
  8 11  1  0  0  0  0
 40 41  1  0  0  0  0
 18 21  1  0  0  0  0
 30 31  1  0  0  0  0
  7  8  1  0  0  0  0
 17 18  1  0  0  0  0
  3  4  1  0  0  0  0
  3  5  1  0  0  0  0
  3  6  1  0  0  0  0
 34 37  1  0  0  0  0
 34 38  1  0  0  0  0
 34 39  1  0  0  0  0
 11 14  1  0  0  0  0
 11 15  1  0  0  0  0
 11 16  1  0  0  0  0
 41 43  1  0  0  0  0
 41 44  1  0  0  0  0
 41 45  1  0  0  0  0
 21 27  1  0  0  0  0
 21 28  1  0  0  0  0
 31 36  1  0  0  0  0
  8 13  1  0  0  0  0
 18 26  1  0  0  0  0
 40 42  1  0  0  0  0
  7 12  1  0  0  0  0
 30 35  1  0  0  0  0
 17 25  1  0  0  0  0
 24 29  1  0  0  0  0
M  END
$$$$

  -OEChem-02062319033D

 45 44  0     1  0  0  0  0  0999 V2000
   -2.2987    4.1032   -0.3022 C   0  0  0  0  0  0  0  0  0  0  0  0
   -1.8049    3.7117   -1.3532 O   0  0  0  0  0  0  0  0  0  0  0  0
   -3.0791    5.3755   -0.2846 C   0  0  0  0  0  0  0  0  0  0  0  0
   -2.4478    6.2532   -0.0717 H   0  0  0  0  0  0  0  0  0  0  0  0
   -3.5571    5.5891   -1.2541 H   0  0  0  0  0  0  0  0  0  0  0  0
   -3.8940    5.4184    0.4556 H   0  0  0  0  0  0  0  0  0  0  0  0
   -2.2137    3.4712    0.9275 N   0  0  0  0  0  0  0  0  0  0  0  0
   -1.5102    2.2327    1.1338 C   0  0  2  0  0  0  0  0  0  0  0  0
   -1.3539    1.5497   -0.2184 C   0  0  0  0  0  0  0  0  0  0  0  0
   -2.0852    1.7861   -1.1778 O   0  0  0  0  0  0  0  0  0  0  0  0
   -2.2477    1.3342    2.1145 C   0  0  0  0  0  0  0  0  0  0  0  0
   -2.6724    3.9052    1.7265 H   0  0  0  0  0  0  0  0  0  0  0  0
   -0.5220    2.4922    1.5290 H   0  0  0  0  0  0  0  0  0  0  0  0
   -3.2400    1.0636    1.7358 H   0  0  0  0  0  0  0  0  0  0  0  0
   -1.6970    0.4046    2.2923 H   0  0  0  0  0  0  0  0  0  0  0  0
   -2.3854    1.8384    3.0772 H   0  0  0  0  0  0  0  0  0  0  0  0
   -0.3283    0.6116   -0.2182 N   0  0  0  0  0  0  0  0  0  0  0  0
   -0.4698   -0.6996   -0.7972 C   0  0  2  0  0  0  0  0  0  0  0  0
   -1.6041   -1.4100   -0.0693 C   0  0  0  0  0  0  0  0  0  0  0  0
   -2.4582   -2.0767   -0.6499 O   0  0  0  0  0  0  0  0  0  0  0  0
    0.8228   -1.5063   -0.7057 C   0  0  0  0  0  0  0  0  0  0  0  0
    1.8897   -0.9348   -1.6068 C   0  0  0  0  0  0  0  0  0  0  0  0
    1.6563   -0.3308   -2.6457 O   0  0  0  0  0  0  0  0  0  0  0  0
    3.1430   -1.1781   -1.1499 O   0  0  0  0  0  0  0  0  0  0  0  0
    0.5764    0.8667    0.1717 H   0  0  0  0  0  0  0  0  0  0  0  0
   -0.7611   -0.5437   -1.8429 H   0  0  0  0  0  0  0  0  0  0  0  0
    1.2299   -1.4876    0.3132 H   0  0  0  0  0  0  0  0  0  0  0  0
    0.6716   -2.5660   -0.9442 H   0  0  0  0  0  0  0  0  0  0  0  0
    3.8650   -0.8320   -1.7169 H   0  0  0  0  0  0  0  0  0  0  0  0
   -1.5225   -1.2512    1.3070 N   0  0  0  0  0  0  0  0  0  0  0  0
   -2.4752   -1.8422    2.2175 C   0  0  2  0  0  0  0  0  0  0  0  0
   -2.3021   -3.3543    2.1633 C   0  0  0  0  0  0  0  0  0  0  0  0
   -1.7953   -3.9376    1.2072 O   0  0  0  0  0  0  0  0  0  0  0  0
   -3.8996   -1.4451    1.8625 C   0  0  0  0  0  0  0  0  0  0  0  0
   -0.7619   -0.6971    1.6895 H   0  0  0  0  0  0  0  0  0  0  0  0
   -2.2210   -1.4806    3.2199 H   0  0  0  0  0  0  0  0  0  0  0  0
   -4.1724   -1.7987    0.8615 H   0  0  0  0  0  0  0  0  0  0  0  0
   -4.6184   -1.8706    2.5705 H   0  0  0  0  0  0  0  0  0  0  0  0
   -4.0147   -0.3559    1.8729 H   0  0  0  0  0  0  0  0  0  0  0  0
   -2.8192   -3.9796    3.2893 N   0  0  0  0  0  0  0  0  0  0  0  0
   -2.7874   -5.4122    3.4693 C   0  0  0  0  0  0  0  0  0  0  0  0
   -3.2040   -3.4158    4.0415 H   0  0  0  0  0  0  0  0  0  0  0  0
   -3.7217   -5.8509    3.0888 H   0  0  0  0  0  0  0  0  0  0  0  0
   -1.9338   -5.8322    2.9171 H   0  0  0  0  0  0  0  0  0  0  0  0
   -2.6824   -5.6450    4.5392 H   0  0  0  0  0  0  0  0  0  0  0  0
  1  3  1  0  0  0  0
  1  7  1  0  0  0  0
  1  2  2  0  0  0  0
 31 32  1  0  0  0  0
 32 40  1  0  0  0  0
 32 33  2  0  0  0  0
  8  9  1  0  0  0  0
  9 17  1  0  0  0  0
  9 10  2  0  0  0  0
 18 19  1  0  0  0  0
 19 30  1  0  0  0  0
 19 20  2  0  0  0  0
 21 22  1  0  0  0  0
 22 23  2  0  0  0  0
 22 24  1  0  0  0  0
 31 34  1  0  0  0  0
  8 11  1  0  0  0  0
 40 41  1  0  0  0  0
 18 21  1  0  0  0  0
 30 31  1  0  0  0  0
  7  8  1  0  0  0  0
 17 18  1  0  0  0  0
  3  4  1  0  0  0  0
  3  5  1  0  0  0  0
  3  6  1  0  0  0  0
 34 37  1  0  0  0  0
 34 38  1  0  0  0  0
 34 39  1  0  0  0  0
 11 14  1  0  0  0  0
 11 15  1  0  0  0  0
 11 16  1  0  0  0  0
 41 43  1  0  0  0  0
 41 44  1  0  0  0  0
 41 45  1  0  0  0  0
 21 27  1  0  0  0  0
 21 28  1  0  0  0  0
 31 36  1  0  0  0  0
  8 13  1  0  0  0  0
 18 26  1  0  0  0  0
 40 42  1  0  0  0  0
  7 12  1  0  0  0  0
 30 35  1  0  0  0  0
 17 25  1  0  0  0  0
 24 29  1  0  0  0  0
M  END
$$$$

  -OEChem-02062319033D

 45 44  0     1  0  0  0  0  0999 V2000
   -2.2987    4.1032   -0.3022 C   0  0  0  0  0  0  0  0  0  0  0  0
   -1.8049    3.7117   -1.3532 O   0  0  0  0  0  0  0  0  0  0  0  0
   -3.0791    5.3755   -0.2846 C   0  0  0  0  0  0  0  0  0  0  0  0
   -2.4478    6.2532   -0.0717 H   0  0  0  0  0  0  0  0  0  0  0  0
   -3.5571    5.5891   -1.2541 H   0  0  0  0  0  0  0  0  0  0  0  0
   -3.8940    5.4184    0.4556 H   0  0  0  0  0  0  0  0  0  0  0  0
   -2.2137    3.4712    0.9275 N   0  0  0  0  0  0  0  0  0  0  0  0
   -1.5102    2.2327    1.1338 C   0  0  2  0  0  0  0  0  0  0  0  0
   -1.3539    1.5497   -0.2184 C   0  0  0  0  0  0  0  0  0  0  0  0
   -2.0852    1.7861   -1.1778 O   0  0  0  0  0  0  0  0  0  0  0  0
   -2.2477    1.3342    2.1145 C   0  0  0  0  0  0  0  0  0  0  0  0
   -2.6724    3.9052    1.7265 H   0  0  0  0  0  0  0  0  0  0  0  0
   -0.5220    2.4922    1.5290 H   0  0  0  0  0  0  0  0  0  0  0  0
   -3.2400    1.0636    1.7358 H   0  0  0  0  0  0  0  0  0  0  0  0
   -1.6970    0.4046    2.2923 H   0  0  0  0  0  0  0  0  0  0  0  0
   -2.3854    1.8384    3.0772 H   0  0  0  0  0  0  0  0  0  0  0  0
   -0.3283    0.6116   -0.2182 N   0  0  0  0  0  0  0  0  0  0  0  0
   -0.3442   -0.5623   -1.0527 C   0  0  2  0  0  0  0  0  0  0  0  0
   -1.5758   -1.3793   -0.6833 C   0  0  0  0  0  0  0  0  0  0  0  0
   -2.3040   -1.9084   -1.5207 O   0  0  0  0  0  0  0  0  0  0  0  0
    0.9261   -1.3933   -0.8925 C   0  0  0  0  0  0  0  0  0  0  0  0
    2.1242   -0.6784   -1.4674 C   0  0  0  0  0  0  0  0  0  0  0  0
    2.0656    0.1168   -2.3963 O   0  0  0  0  0  0  0  0  0  0  0  0
    3.2823   -1.0257   -0.8536 O   0  0  0  0  0  0  0  0  0  0  0  0
    0.4899    0.7722    0.3651 H   0  0  0  0  0  0  0  0  0  0  0  0
   -0.4509   -0.2047   -2.0838 H   0  0  0  0  0  0  0  0  0  0  0  0
    1.1487   -1.5765    0.1663 H   0  0  0  0  0  0  0  0  0  0  0  0
    0.8370   -2.3853   -1.3517 H   0  0  0  0  0  0  0  0  0  0  0  0
    4.0863   -0.5899   -1.2091 H   0  0  0  0  0  0  0  0  0  0  0  0
   -1.7386   -1.4878    0.6907 N   0  0  0  0  0  0  0  0  0  0  0  0
   -2.8256   -2.2255    1.2909 C   0  0  2  0  0  0  0  0  0  0  0  0
   -2.6199   -3.7022    0.9799 C   0  0  0  0  0  0  0  0  0  0  0  0
   -1.9441   -4.1006    0.0336 O   0  0  0  0  0  0  0  0  0  0  0  0
   -4.1726   -1.7439    0.7749 C   0  0  0  0  0  0  0  0  0  0  0  0
   -1.0661   -1.0298    1.2988 H   0  0  0  0  0  0  0  0  0  0  0  0
   -2.7565   -2.0664    2.3725 H   0  0  0  0  0  0  0  0  0  0  0  0
   -4.2603   -1.8952   -0.3072 H   0  0  0  0  0  0  0  0  0  0  0  0
   -4.9966   -2.2846    1.2521 H   0  0  0  0  0  0  0  0  0  0  0  0
   -4.3062   -0.6749    0.9729 H   0  0  0  0  0  0  0  0  0  0  0  0
   -3.3150   -4.5221    1.8578 N   0  0  0  0  0  0  0  0  0  0  0  0
   -3.2908   -5.9631    1.7636 C   0  0  0  0  0  0  0  0  0  0  0  0
   -3.8349   -4.1060    2.6248 H   0  0  0  0  0  0  0  0  0  0  0  0
   -4.1366   -6.3052    1.1491 H   0  0  0  0  0  0  0  0  0  0  0  0
   -2.3468   -6.2843    1.2992 H   0  0  0  0  0  0  0  0  0  0  0  0
   -3.3703   -6.3977    2.7710 H   0  0  0  0  0  0  0  0  0  0  0  0
  1  3  1  0  0  0  0
  1  7  1  0  0  0  0
  1  2  2  0  0  0  0
 31 32  1  0  0  0  0
 32 40  1  0  0  0  0
 32 33  2  0  0  0  0
  8  9  1  0  0  0  0
  9 17  1  0  0  0  0
  9 10  2  0  0  0  0
 18 19  1  0  0  0  0
 19 30  1  0  0  0  0
 19 20  2  0  0  0  0
 21 22  1  0  0  0  0
 22 23  2  0  0  0  0
 22 24  1  0  0  0  0
 31 34  1  0  0  0  0
  8 11  1  0  0  0  0
 40 41  1  0  0  0  0
 18 21  1  0  0  0  0
 30 31  1  0  0  0  0
  7  8  1  0  0  0  0
 17 18  1  0  0  0  0
  3  4  1  0  0  0  0
  3  5  1  0  0  0  0
  3  6  1  0  0  0  0
 34 37  1  0  0  0  0
 34 38  1  0  0  0  0
 34 39  1  0  0  0  0
 11 14  1  0  0  0  0
 11 15  1  0  0  0  0
 11 16  1  0  0  0  0
 41 43  1  0  0  0  0
 41 44  1  0  0  0  0
 41 45  1  0  0  0  0
 21 27  1  0  0  0  0
 21 28  1  0  0  0  0
 31 36  1  0  0  0  0
  8 13  1  0  0  0  0
 18 26  1  0  0  0  0
 40 42  1  0  0  0  0
  7 12  1  0  0  0  0
 30 35  1  0  0  0  0
 17 25  1  0  0  0  0
 24 29  1  0  0  0  0
M  END
$$$$

  -OEChem-02062319033D

 45 44  0     1  0  0  0  0  0999 V2000
   -2.2987    4.1032   -0.3022 C   0  0  0  0  0  0  0  0  0  0  0  0
   -1.8049    3.7117   -1.3532 O   0  0  0  0  0  0  0  0  0  0  0  0
   -3.0791    5.3755   -0.2846 C   0  0  0  0  0  0  0  0  0  0  0  0
   -2.4478    6.2532   -0.0717 H   0  0  0  0  0  0  0  0  0  0  0  0
   -3.5571    5.5891   -1.2541 H   0  0  0  0  0  0  0  0  0  0  0  0
   -3.8940    5.4184    0.4556 H   0  0  0  0  0  0  0  0  0  0  0  0
   -2.2137    3.4712    0.9275 N   0  0  0  0  0  0  0  0  0  0  0  0
   -1.5102    2.2327    1.1338 C   0  0  2  0  0  0  0  0  0  0  0  0
   -1.3539    1.5497   -0.2184 C   0  0  0  0  0  0  0  0  0  0  0  0
   -2.0852    1.7861   -1.1778 O   0  0  0  0  0  0  0  0  0  0  0  0
   -2.2477    1.3342    2.1145 C   0  0  0  0  0  0  0  0  0  0  0  0
   -2.6724    3.9052    1.7265 H   0  0  0  0  0  0  0  0  0  0  0  0
   -0.5220    2.4922    1.5290 H   0  0  0  0  0  0  0  0  0  0  0  0
   -3.2400    1.0636    1.7358 H   0  0  0  0  0  0  0  0  0  0  0  0
   -1.6970    0.4046    2.2923 H   0  0  0  0  0  0  0  0  0  0  0  0
   -2.3854    1.8384    3.0772 H   0  0  0  0  0  0  0  0  0  0  0  0
   -0.3283    0.6116   -0.2182 N   0  0  0  0  0  0  0  0  0  0  0  0
   -0.1782   -0.3809   -1.2512 C   0  0  2  0  0  0  0  0  0  0  0  0
   -1.4413   -1.2324   -1.2656 C   0  0  0  0  0  0  0  0  0  0  0  0
   -2.0029   -1.5794   -2.3027 O   0  0  0  0  0  0  0  0  0  0  0  0
    1.0586   -1.2486   -1.0333 C   0  0  0  0  0  0  0  0  0  0  0  0
    2.3263   -0.4573   -1.2428 C   0  0  0  0  0  0  0  0  0  0  0  0
    2.4173    0.5014   -1.9984 O   0  0  0  0  0  0  0  0  0  0  0  0
    3.3651   -0.9350   -0.5140 O   0  0  0  0  0  0  0  0  0  0  0  0
    0.3726    0.6440    0.5188 H   0  0  0  0  0  0  0  0  0  0  0  0
   -0.1092    0.1689   -2.1976 H   0  0  0  0  0  0  0  0  0  0  0  0
    1.0958   -1.6343   -0.0067 H   0  0  0  0  0  0  0  0  0  0  0  0
    1.0679   -2.1329   -1.6819 H   0  0  0  0  0  0  0  0  0  0  0  0
    4.2113   -0.4530   -0.6337 H   0  0  0  0  0  0  0  0  0  0  0  0
   -1.8398   -1.5985    0.0124 N   0  0  0  0  0  0  0  0  0  0  0  0
   -3.0021   -2.4188    0.2614 C   0  0  2  0  0  0  0  0  0  0  0  0
   -2.7202   -3.8122   -0.2851 C   0  0  0  0  0  0  0  0  0  0  0  0
   -1.8828   -4.0339   -1.1572 O   0  0  0  0  0  0  0  0  0  0  0  0
   -4.2463   -1.8248   -0.3803 C   0  0  0  0  0  0  0  0  0  0  0  0
   -1.2917   -1.2766    0.8047 H   0  0  0  0  0  0  0  0  0  0  0  0
   -3.1258   -2.4704    1.3486 H   0  0  0  0  0  0  0  0  0  0  0  0
   -4.1411   -1.7651   -1.4697 H   0  0  0  0  0  0  0  0  0  0  0  0
   -5.1317   -2.4327   -0.1666 H   0  0  0  0  0  0  0  0  0  0  0  0
   -4.4307   -0.8112   -0.0082 H   0  0  0  0  0  0  0  0  0  0  0  0
   -3.5439   -4.7728    0.2849 N   0  0  0  0  0  0  0  0  0  0  0  0
   -3.4791   -6.1695   -0.0771 C   0  0  0  0  0  0  0  0  0  0  0  0
   -4.1967   -4.5021    1.0145 H   0  0  0  0  0  0  0  0  0  0  0  0
   -4.1986   -6.3735   -0.8837 H   0  0  0  0  0  0  0  0  0  0  0  0
   -2.4632   -6.4120   -0.4221 H   0  0  0  0  0  0  0  0  0  0  0  0
   -3.7259   -6.7871    0.7991 H   0  0  0  0  0  0  0  0  0  0  0  0
  1  3  1  0  0  0  0
  1  7  1  0  0  0  0
  1  2  2  0  0  0  0
 31 32  1  0  0  0  0
 32 40  1  0  0  0  0
 32 33  2  0  0  0  0
  8  9  1  0  0  0  0
  9 17  1  0  0  0  0
  9 10  2  0  0  0  0
 18 19  1  0  0  0  0
 19 30  1  0  0  0  0
 19 20  2  0  0  0  0
 21 22  1  0  0  0  0
 22 23  2  0  0  0  0
 22 24  1  0  0  0  0
 31 34  1  0  0  0  0
  8 11  1  0  0  0  0
 40 41  1  0  0  0  0
 18 21  1  0  0  0  0
 30 31  1  0  0  0  0
  7  8  1  0  0  0  0
 17 18  1  0  0  0  0
  3  4  1  0  0  0  0
  3  5  1  0  0  0  0
  3  6  1  0  0  0  0
 34 37  1  0  0  0  0
 34 38  1  0  0  0  0
 34 39  1  0  0  0  0
 11 14  1  0  0  0  0
 11 15  1  0  0  0  0
 11 16  1  0  0  0  0
 41 43  1  0  0  0  0
 41 44  1  0  0  0  0
 41 45  1  0  0  0  0
 21 27  1  0  0  0  0
 21 28  1  0  0  0  0
 31 36  1  0  0  0  0
  8 13  1  0  0  0  0
 18 26  1  0  0  0  0
 40 42  1  0  0  0  0
  7 12  1  0  0  0  0
 30 35  1  0  0  0  0
 17 25  1  0  0  0  0
 24 29  1  0  0  0  0
M  END
$$$$
