
  -OEChem-02062319043D

 45 44  0     1  0  0  0  0  0999 V2000
   -0.3751    5.2706    1.2142 C   0  0  0  0  0  0  0  0  0  0  0  0
    0.5557    5.5515    1.9520 O   0  0  0  0  0  0  0  0  0  0  0  0
   -1.2560    6.3672    0.6457 C   0  0  0  0  0  0  0  0  0  0  0  0
   -0.9092    7.3460    0.9894 H   0  0  0  0  0  0  0  0  0  0  0  0
   -1.2213    6.3450   -0.4464 H   0  0  0  0  0  0  0  0  0  0  0  0
   -2.2884    6.2241    0.9741 H   0  0  0  0  0  0  0  0  0  0  0  0
   -0.6190    3.9542    0.8844 N   0  0  0  0  0  0  0  0  0  0  0  0
    0.2661    2.8368    1.2396 C   0  0  2  0  0  0  0  0  0  0  0  0
    0.2946    1.7608    0.1343 C   0  0  0  0  0  0  0  0  0  0  0  0
   -0.5641    1.7501   -0.7388 O   0  0  0  0  0  0  0  0  0  0  0  0
   -0.2174    2.2414    2.5651 C   0  0  0  0  0  0  0  0  0  0  0  0
   -1.3199    3.7771    0.1654 H   0  0  0  0  0  0  0  0  0  0  0  0
    1.2923    3.2010    1.3622 H   0  0  0  0  0  0  0  0  0  0  0  0
   -1.2331    1.8469    2.4605 H   0  0  0  0  0  0  0  0  0  0  0  0
    0.4428    1.4302    2.8863 H   0  0  0  0  0  0  0  0  0  0  0  0
   -0.2206    3.0096    3.3451 H   0  0  0  0  0  0  0  0  0  0  0  0
    1.2337    0.7449    0.1670 N   0  0  0  0  0  0  0  0  0  0  0  0
    1.3397   -0.3246   -0.8437 C   0  0  2  0  0  0  0  0  0  0  0  0
    0.0747   -1.1951   -0.9783 C   0  0  0  0  0  0  0  0  0  0  0  0
   -0.1958   -1.6774   -2.0697 O   0  0  0  0  0  0  0  0  0  0  0  0
    2.5412   -1.2285   -0.5103 C   0  0  0  0  0  0  0  0  0  0  0  0
    3.8485   -0.4515   -0.4588 C   0  0  0  0  0  0  0  0  0  0  0  0
    4.0577    0.2506    0.5170 O   0  0  0  0  0  0  0  0  0  0  0  0
    4.7000   -0.5569   -1.5006 O   0  0  0  0  0  0  0  0  0  0  0  0
    2.0252    0.8780    0.8003 H   0  0  0  0  0  0  0  0  0  0  0  0
    1.5057    0.1386   -1.8242 H   0  0  0  0  0  0  0  0  0  0  0  0
    2.3878   -1.7252    0.4515 H   0  0  0  0  0  0  0  0  0  0  0  0
    2.6315   -2.0084   -1.2727 H   0  0  0  0  0  0  0  0  0  0  0  0
    5.4564    0.0098   -1.2820 H   0  0  0  0  0  0  0  0  0  0  0  0
   -0.5665   -1.6482    0.1635 N   0  0  0  0  0  0  0  0  0  0  0  0
   -1.7465   -2.5346    0.2298 C   0  0  2  0  0  0  0  0  0  0  0  0
   -1.4782   -4.0010   -0.1808 C   0  0  0  0  0  0  0  0  0  0  0  0
   -1.7280   -4.9010    0.6105 O   0  0  0  0  0  0  0  0  0  0  0  0
   -2.9218   -1.9431   -0.5616 C   0  0  0  0  0  0  0  0  0  0  0  0
   -0.2659   -1.2082    1.0279 H   0  0  0  0  0  0  0  0  0  0  0  0
   -2.0585   -2.5714    1.2786 H   0  0  0  0  0  0  0  0  0  0  0  0
   -2.7271   -1.9628   -1.6379 H   0  0  0  0  0  0  0  0  0  0  0  0
   -3.8316   -2.5205   -0.3699 H   0  0  0  0  0  0  0  0  0  0  0  0
   -3.0992   -0.9063   -0.2602 H   0  0  0  0  0  0  0  0  0  0  0  0
   -0.9431   -4.3163   -1.4135 N   0  0  0  0  0  0  0  0  0  0  0  0
   -0.6097   -5.6681   -1.8404 C   0  0  0  0  0  0  0  0  0  0  0  0
   -0.6914   -3.5227   -2.0097 H   0  0  0  0  0  0  0  0  0  0  0  0
   -0.2424   -5.6578   -2.8712 H   0  0  0  0  0  0  0  0  0  0  0  0
    0.1695   -6.0910   -1.1980 H   0  0  0  0  0  0  0  0  0  0  0  0
   -1.4931   -6.3136   -1.7958 H   0  0  0  0  0  0  0  0  0  0  0  0
  1  2  2  0  0  0  0
  1  3  1  0  0  0  0
  1  7  1  0  0  0  0
  3  4  1  0  0  0  0
  3  5  1  0  0  0  0
  3  6  1  0  0  0  0
  7  8  1  0  0  0  0
  7 12  1  0  0  0  0
  8  9  1  0  0  0  0
  8 11  1  0  0  0  0
  8 13  1  0  0  0  0
  9 10  2  0  0  0  0
  9 17  1  0  0  0  0
 11 14  1  0  0  0  0
 11 15  1  0  0  0  0
 11 16  1  0  0  0  0
 17 18  1  0  0  0  0
 17 25  1  0  0  0  0
 18 19  1  0  0  0  0
 18 21  1  0  0  0  0
 18 26  1  0  0  0  0
 19 20  2  0  0  0  0
 19 30  1  0  0  0  0
 21 22  1  0  0  0  0
 21 27  1  0  0  0  0
 21 28  1  0  0  0  0
 22 23  2  0  0  0  0
 22 24  1  0  0  0  0
 24 29  1  0  0  0  0
 30 31  1  0  0  0  0
 30 35  1  0  0  0  0
 31 32  1  0  0  0  0
 31 34  1  0  0  0  0
 31 36  1  0  0  0  0
 32 33  2  0  0  0  0
 32 40  1  0  0  0  0
 34 37  1  0  0  0  0
 34 38  1  0  0  0  0
 34 39  1  0  0  0  0
 40 41  1  0  0  0  0
 40 42  1  0  0  0  0
 41 43  1  0  0  0  0
 41 44  1  0  0  0  0
 41 45  1  0  0  0  0
M  END
$$$$

  -OEChem-02062319043D

 45 44  0     1  0  0  0  0  0999 V2000
   -0.3872    5.2608    1.3688 C   0  0  0  0  0  0  0  0  0  0  0  0
    0.5098    5.5046    2.1599 O   0  0  0  0  0  0  0  0  0  0  0  0
   -1.2400    6.3849    0.8112 C   0  0  0  0  0  0  0  0  0  0  0  0
   -0.9310    7.3417    1.2415 H   0  0  0  0  0  0  0  0  0  0  0  0
   -1.1280    6.4346   -0.2747 H   0  0  0  0  0  0  0  0  0  0  0  0
   -2.2912    6.2125    1.0548 H   0  0  0  0  0  0  0  0  0  0  0  0
   -0.6164    3.9618    0.9672 N   0  0  0  0  0  0  0  0  0  0  0  0
    0.2512    2.8267    1.3088 C   0  0  2  0  0  0  0  0  0  0  0  0
    0.2775    1.7713    0.1834 C   0  0  0  0  0  0  0  0  0  0  0  0
   -0.5242    1.8342   -0.7402 O   0  0  0  0  0  0  0  0  0  0  0  0
   -0.2506    2.2104    2.6183 C   0  0  0  0  0  0  0  0  0  0  0  0
   -1.2841    3.8197    0.2098 H   0  0  0  0  0  0  0  0  0  0  0  0
    1.2798    3.1775    1.4485 H   0  0  0  0  0  0  0  0  0  0  0  0
   -1.2713    1.8332    2.4987 H   0  0  0  0  0  0  0  0  0  0  0  0
    0.3952    1.3827    2.9265 H   0  0  0  0  0  0  0  0  0  0  0  0
   -0.2486    2.9613    3.4152 H   0  0  0  0  0  0  0  0  0  0  0  0
    1.2309    0.7680    0.1854 N   0  0  0  0  0  0  0  0  0  0  0  0
    1.5380   -0.0796   -0.9831 C   0  0  2  0  0  0  0  0  0  0  0  0
    0.3465   -0.9062   -1.5070 C   0  0  0  0  0  0  0  0  0  0  0  0
    0.2881   -1.1627   -2.7019 O   0  0  0  0  0  0  0  0  0  0  0  0
    2.6987   -1.0287   -0.6330 C   0  0  0  0  0  0  0  0  0  0  0  0
    3.9716   -0.2744   -0.2761 C   0  0  0  0  0  0  0  0  0  0  0  0
    4.0041    0.3282    0.7844 O   0  0  0  0  0  0  0  0  0  0  0  0
    4.9932   -0.2899   -1.1575 O   0  0  0  0  0  0  0  0  0  0  0  0
    1.9662    0.8613    0.8900 H   0  0  0  0  0  0  0  0  0  0  0  0
    1.8492    0.5689   -1.8111 H   0  0  0  0  0  0  0  0  0  0  0  0
    2.4227   -1.6736    0.2054 H   0  0  0  0  0  0  0  0  0  0  0  0
    2.9103   -1.6747   -1.4907 H   0  0  0  0  0  0  0  0  0  0  0  0
    5.6981    0.2420   -0.7558 H   0  0  0  0  0  0  0  0  0  0  0  0
   -0.4631   -1.5790   -0.6064 N   0  0  0  0  0  0  0  0  0  0  0  0
   -1.6202   -2.4416   -0.9223 C   0  0  2  0  0  0  0  0  0  0  0  0
   -1.2604   -3.7997   -1.5678 C   0  0  0  0  0  0  0  0  0  0  0  0
   -1.6450   -4.8360   -1.0417 O   0  0  0  0  0  0  0  0  0  0  0  0
   -2.6534   -1.6841   -1.7685 C   0  0  0  0  0  0  0  0  0  0  0  0
   -0.3443   -1.2988    0.3625 H   0  0  0  0  0  0  0  0  0  0  0  0
   -2.1056   -2.6827    0.0289 H   0  0  0  0  0  0  0  0  0  0  0  0
   -2.2757   -1.4893   -2.7766 H   0  0  0  0  0  0  0  0  0  0  0  0
   -3.5710   -2.2742   -1.8573 H   0  0  0  0  0  0  0  0  0  0  0  0
   -2.9010   -0.7266   -1.2996 H   0  0  0  0  0  0  0  0  0  0  0  0
   -0.5036   -3.8695   -2.7199 N   0  0  0  0  0  0  0  0  0  0  0  0
   -0.0978   -5.1125   -3.3604 C   0  0  0  0  0  0  0  0  0  0  0  0
   -0.1642   -2.9767   -3.0892 H   0  0  0  0  0  0  0  0  0  0  0  0
    0.4725   -4.8984   -4.2695 H   0  0  0  0  0  0  0  0  0  0  0  0
    0.5315   -5.7032   -2.6866 H   0  0  0  0  0  0  0  0  0  0  0  0
   -0.9760   -5.7058   -3.6353 H   0  0  0  0  0  0  0  0  0  0  0  0
  1  2  2  0  0  0  0
  1  3  1  0  0  0  0
  1  7  1  0  0  0  0
  3  4  1  0  0  0  0
  3  5  1  0  0  0  0
  3  6  1  0  0  0  0
  7  8  1  0  0  0  0
  7 12  1  0  0  0  0
  8  9  1  0  0  0  0
  8 11  1  0  0  0  0
  8 13  1  0  0  0  0
  9 10  2  0  0  0  0
  9 17  1  0  0  0  0
 11 14  1  0  0  0  0
 11 15  1  0  0  0  0
 11 16  1  0  0  0  0
 17 18  1  0  0  0  0
 17 25  1  0  0  0  0
 18 19  1  0  0  0  0
 18 21  1  0  0  0  0
 18 26  1  0  0  0  0
 19 20  2  0  0  0  0
 19 30  1  0  0  0  0
 21 22  1  0  0  0  0
 21 27  1  0  0  0  0
 21 28  1  0  0  0  0
 22 23  2  0  0  0  0
 22 24  1  0  0  0  0
 24 29  1  0  0  0  0
 30 31  1  0  0  0  0
 30 35  1  0  0  0  0
 31 32  1  0  0  0  0
 31 34  1  0  0  0  0
 31 36  1  0  0  0  0
 32 33  2  0  0  0  0
 32 40  1  0  0  0  0
 34 37  1  0  0  0  0
 34 38  1  0  0  0  0
 34 39  1  0  0  0  0
 40 41  1  0  0  0  0
 40 42  1  0  0  0  0
 41 43  1  0  0  0  0
 41 44  1  0  0  0  0
 41 45  1  0  0  0  0
M  END
$$$$

  -OEChem-02062319043D

 45 44  0     1  0  0  0  0  0999 V2000
   -0.3892    5.2291    1.4810 C   0  0  0  0  0  0  0  0  0  0  0  0
    0.5019    5.4432    2.2872 O   0  0  0  0  0  0  0  0  0  0  0  0
   -1.2123    6.3785    0.9299 C   0  0  0  0  0  0  0  0  0  0  0  0
   -0.8602    7.3272    1.3445 H   0  0  0  0  0  0  0  0  0  0  0  0
   -1.1213    6.4150   -0.1584 H   0  0  0  0  0  0  0  0  0  0  0  0
   -2.2636    6.2465    1.1967 H   0  0  0  0  0  0  0  0  0  0  0  0
   -0.6392    3.9404    1.0589 N   0  0  0  0  0  0  0  0  0  0  0  0
    0.2065    2.7856    1.3914 C   0  0  2  0  0  0  0  0  0  0  0  0
    0.2385    1.7521    0.2454 C   0  0  0  0  0  0  0  0  0  0  0  0
   -0.5144    1.8755   -0.7125 O   0  0  0  0  0  0  0  0  0  0  0  0
   -0.3244    2.1503    2.6799 C   0  0  0  0  0  0  0  0  0  0  0  0
   -1.2907    3.8250    0.2831 H   0  0  0  0  0  0  0  0  0  0  0  0
    1.2374    3.1192    1.5556 H   0  0  0  0  0  0  0  0  0  0  0  0
   -1.3521    1.8000    2.5407 H   0  0  0  0  0  0  0  0  0  0  0  0
    0.2980    1.3005    2.9758 H   0  0  0  0  0  0  0  0  0  0  0  0
   -0.3134    2.8822    3.4939 H   0  0  0  0  0  0  0  0  0  0  0  0
    1.2185    0.7744    0.2161 N   0  0  0  0  0  0  0  0  0  0  0  0
    1.7419    0.1843   -1.0324 C   0  0  2  0  0  0  0  0  0  0  0  0
    0.6890   -0.5272   -1.9063 C   0  0  0  0  0  0  0  0  0  0  0  0
    0.8390   -0.5303   -3.1209 O   0  0  0  0  0  0  0  0  0  0  0  0
    2.8693   -0.8088   -0.6913 C   0  0  0  0  0  0  0  0  0  0  0  0
    4.0645   -0.1310   -0.0344 C   0  0  0  0  0  0  0  0  0  0  0  0
    3.9113    0.3713    1.0673 O   0  0  0  0  0  0  0  0  0  0  0  0
    5.2322   -0.1044   -0.7103 O   0  0  0  0  0  0  0  0  0  0  0  0
    1.8836    0.8193    0.9919 H   0  0  0  0  0  0  0  0  0  0  0  0
    2.1559    0.9902   -1.6507 H   0  0  0  0  0  0  0  0  0  0  0  0
    2.4968   -1.5918   -0.0257 H   0  0  0  0  0  0  0  0  0  0  0  0
    3.2136   -1.2936   -1.6102 H   0  0  0  0  0  0  0  0  0  0  0  0
    5.8586    0.3662   -0.1384 H   0  0  0  0  0  0  0  0  0  0  0  0
   -0.2275   -1.3771   -1.3097 N   0  0  0  0  0  0  0  0  0  0  0  0
   -1.2912   -2.1484   -1.9841 C   0  0  2  0  0  0  0  0  0  0  0  0
   -0.7901   -3.3371   -2.8360 C   0  0  0  0  0  0  0  0  0  0  0  0
   -1.1932   -4.4662   -2.5883 O   0  0  0  0  0  0  0  0  0  0  0  0
   -2.2009   -1.2239   -2.8060 C   0  0  0  0  0  0  0  0  0  0  0  0
   -0.2958   -1.2801   -0.3009 H   0  0  0  0  0  0  0  0  0  0  0  0
   -1.9130   -2.5870   -1.1970 H   0  0  0  0  0  0  0  0  0  0  0  0
   -1.6753   -0.8194   -3.6759 H   0  0  0  0  0  0  0  0  0  0  0  0
   -3.0744   -1.7783   -3.1633 H   0  0  0  0  0  0  0  0  0  0  0  0
   -2.5484   -0.3877   -2.1913 H   0  0  0  0  0  0  0  0  0  0  0  0
    0.1127   -3.1528   -3.8638 N   0  0  0  0  0  0  0  0  0  0  0  0
    0.6728   -4.2320   -4.6647 C   0  0  0  0  0  0  0  0  0  0  0  0
    0.4802   -2.2030   -3.9706 H   0  0  0  0  0  0  0  0  0  0  0  0
    1.3025   -3.8225   -5.4604 H   0  0  0  0  0  0  0  0  0  0  0  0
    1.2844   -4.8924   -4.0417 H   0  0  0  0  0  0  0  0  0  0  0  0
   -0.1261   -4.8214   -5.1269 H   0  0  0  0  0  0  0  0  0  0  0  0
  1  2  2  0  0  0  0
  1  3  1  0  0  0  0
  1  7  1  0  0  0  0
  3  4  1  0  0  0  0
  3  5  1  0  0  0  0
  3  6  1  0  0  0  0
  7  8  1  0  0  0  0
  7 12  1  0  0  0  0
  8  9  1  0  0  0  0
  8 11  1  0  0  0  0
  8 13  1  0  0  0  0
  9 10  2  0  0  0  0
  9 17  1  0  0  0  0
 11 14  1  0  0  0  0
 11 15  1  0  0  0  0
 11 16  1  0  0  0  0
 17 18  1  0  0  0  0
 17 25  1  0  0  0  0
 18 19  1  0  0  0  0
 18 21  1  0  0  0  0
 18 26  1  0  0  0  0
 19 20  2  0  0  0  0
 19 30  1  0  0  0  0
 21 22  1  0  0  0  0
 21 27  1  0  0  0  0
 21 28  1  0  0  0  0
 22 23  2  0  0  0  0
 22 24  1  0  0  0  0
 24 29  1  0  0  0  0
 30 31  1  0  0  0  0
 30 35  1  0  0  0  0
 31 32  1  0  0  0  0
 31 34  1  0  0  0  0
 31 36  1  0  0  0  0
 32 33  2  0  0  0  0
 32 40  1  0  0  0  0
 34 37  1  0  0  0  0
 34 38  1  0  0  0  0
 34 39  1  0  0  0  0
 40 41  1  0  0  0  0
 40 42  1  0  0  0  0
 41 43  1  0  0  0  0
 41 44  1  0  0  0  0
 41 45  1  0  0  0  0
M  END
$$$$

  -OEChem-02062319043D

 45 44  0     1  0  0  0  0  0999 V2000
   -0.3873    5.1688    1.5539 C   0  0  0  0  0  0  0  0  0  0  0  0
    0.5071    5.3636    2.3614 O   0  0  0  0  0  0  0  0  0  0  0  0
   -1.1748    6.3363    0.9907 C   0  0  0  0  0  0  0  0  0  0  0  0
   -0.7793    7.2793    1.3782 H   0  0  0  0  0  0  0  0  0  0  0  0
   -1.1003    6.3458   -0.0995 H   0  0  0  0  0  0  0  0  0  0  0  0
   -2.2259    6.2502    1.2768 H   0  0  0  0  0  0  0  0  0  0  0  0
   -0.6730    3.8855    1.1383 N   0  0  0  0  0  0  0  0  0  0  0  0
    0.1478    2.7121    1.4677 C   0  0  2  0  0  0  0  0  0  0  0  0
    0.1934    1.6993    0.3035 C   0  0  0  0  0  0  0  0  0  0  0  0
   -0.5301    1.8591   -0.6716 O   0  0  0  0  0  0  0  0  0  0  0  0
   -0.4228    2.0616    2.7306 C   0  0  0  0  0  0  0  0  0  0  0  0
   -1.3199    3.7871    0.3565 H   0  0  0  0  0  0  0  0  0  0  0  0
    1.1797    3.0251    1.6631 H   0  0  0  0  0  0  0  0  0  0  0  0
   -1.4528    1.7317    2.5613 H   0  0  0  0  0  0  0  0  0  0  0  0
    0.1791    1.1960    3.0235 H   0  0  0  0  0  0  0  0  0  0  0  0
   -0.4187    2.7782    3.5585 H   0  0  0  0  0  0  0  0  0  0  0  0
    1.2105    0.7620    0.2448 N   0  0  0  0  0  0  0  0  0  0  0  0
    1.9421    0.4565   -1.0012 C   0  0  2  0  0  0  0  0  0  0  0  0
    1.0739   -0.0725   -2.1608 C   0  0  0  0  0  0  0  0  0  0  0  0
    1.4090    0.1878   -3.3089 O   0  0  0  0  0  0  0  0  0  0  0  0
    3.0588   -0.5615   -0.6958 C   0  0  0  0  0  0  0  0  0  0  0  0
    4.1312   -0.0029    0.2332 C   0  0  0  0  0  0  0  0  0  0  0  0
    3.7964    0.4040    1.3343 O   0  0  0  0  0  0  0  0  0  0  0  0
    5.4038    0.0251   -0.2142 O   0  0  0  0  0  0  0  0  0  0  0  0
    1.7936    0.7441    1.0853 H   0  0  0  0  0  0  0  0  0  0  0  0
    2.4012    1.3819   -1.3690 H   0  0  0  0  0  0  0  0  0  0  0  0
    2.6356   -1.4634   -0.2457 H   0  0  0  0  0  0  0  0  0  0  0  0
    3.5420   -0.8571   -1.6327 H   0  0  0  0  0  0  0  0  0  0  0  0
    5.9287    0.4112    0.5046 H   0  0  0  0  0  0  0  0  0  0  0  0
    0.1218   -1.0454   -1.9073 N   0  0  0  0  0  0  0  0  0  0  0  0
   -0.7971   -1.6611   -2.8866 C   0  0  2  0  0  0  0  0  0  0  0  0
   -0.1317   -2.6348   -3.8866 C   0  0  0  0  0  0  0  0  0  0  0  0
   -0.5760   -3.7693   -4.0065 O   0  0  0  0  0  0  0  0  0  0  0  0
   -1.6114   -0.5872   -3.6216 C   0  0  0  0  0  0  0  0  0  0  0  0
   -0.1243   -1.1376   -0.9257 H   0  0  0  0  0  0  0  0  0  0  0  0
   -1.5104   -2.2637   -2.3149 H   0  0  0  0  0  0  0  0  0  0  0  0
   -0.9797   -0.0053   -4.2991 H   0  0  0  0  0  0  0  0  0  0  0  0
   -2.4044   -1.0561   -4.2127 H   0  0  0  0  0  0  0  0  0  0  0  0
   -2.0732    0.0976   -2.9035 H   0  0  0  0  0  0  0  0  0  0  0  0
    0.9566   -2.2555   -4.6462 N   0  0  0  0  0  0  0  0  0  0  0  0
    1.6449   -3.1282   -5.5868 C   0  0  0  0  0  0  0  0  0  0  0  0
    1.3076   -1.3072   -4.4862 H   0  0  0  0  0  0  0  0  0  0  0  0
    2.4328   -2.5748   -6.1067 H   0  0  0  0  0  0  0  0  0  0  0  0
    2.1016   -3.9725   -5.0603 H   0  0  0  0  0  0  0  0  0  0  0  0
    0.9450   -3.5149   -6.3349 H   0  0  0  0  0  0  0  0  0  0  0  0
  1  2  2  0  0  0  0
  1  3  1  0  0  0  0
  1  7  1  0  0  0  0
  3  4  1  0  0  0  0
  3  5  1  0  0  0  0
  3  6  1  0  0  0  0
  7  8  1  0  0  0  0
  7 12  1  0  0  0  0
  8  9  1  0  0  0  0
  8 11  1  0  0  0  0
  8 13  1  0  0  0  0
  9 10  2  0  0  0  0
  9 17  1  0  0  0  0
 11 14  1  0  0  0  0
 11 15  1  0  0  0  0
 11 16  1  0  0  0  0
 17 18  1  0  0  0  0
 17 25  1  0  0  0  0
 18 19  1  0  0  0  0
 18 21  1  0  0  0  0
 18 26  1  0  0  0  0
 19 20  2  0  0  0  0
 19 30  1  0  0  0  0
 21 22  1  0  0  0  0
 21 27  1  0  0  0  0
 21 28  1  0  0  0  0
 22 23  2  0  0  0  0
 22 24  1  0  0  0  0
 24 29  1  0  0  0  0
 30 31  1  0  0  0  0
 30 35  1  0  0  0  0
 31 32  1  0  0  0  0
 31 34  1  0  0  0  0
 31 36  1  0  0  0  0
 32 33  2  0  0  0  0
 32 40  1  0  0  0  0
 34 37  1  0  0  0  0
 34 38  1  0  0  0  0
 34 39  1  0  0  0  0
 40 41  1  0  0  0  0
 40 42  1  0  0  0  0
 41 43  1  0  0  0  0
 41 44  1  0  0  0  0
 41 45  1  0  0  0  0
M  END
$$$$

  -OEChem-02062319043D

 45 44  0     1  0  0  0  0  0999 V2000
   -0.4491    5.1039    1.6212 C   0  0  0  0  0  0  0  0  0  0  0  0
    0.4055    5.2869    2.4732 O   0  0  0  0  0  0  0  0  0  0  0  0
   -1.2168    6.2777    1.0438 C   0  0  0  0  0  0  0  0  0  0  0  0
   -0.9171    7.2050    1.5399 H   0  0  0  0  0  0  0  0  0  0  0  0
   -1.0107    6.3673   -0.0255 H   0  0  0  0  0  0  0  0  0  0  0  0
   -2.2894    6.1309    1.1897 H   0  0  0  0  0  0  0  0  0  0  0  0
   -0.7024    3.8287    1.1623 N   0  0  0  0  0  0  0  0  0  0  0  0
    0.1124    2.6541    1.5016 C   0  0  2  0  0  0  0  0  0  0  0  0
    0.1786    1.6455    0.3347 C   0  0  0  0  0  0  0  0  0  0  0  0
   -0.5182    1.8188   -0.6576 O   0  0  0  0  0  0  0  0  0  0  0  0
   -0.4792    1.9939    2.7498 C   0  0  0  0  0  0  0  0  0  0  0  0
   -1.3173    3.7422    0.3537 H   0  0  0  0  0  0  0  0  0  0  0  0
    1.1402    2.9686    1.7175 H   0  0  0  0  0  0  0  0  0  0  0  0
   -1.5035    1.6586    2.5582 H   0  0  0  0  0  0  0  0  0  0  0  0
    0.1220    1.1302    3.0501 H   0  0  0  0  0  0  0  0  0  0  0  0
   -0.4957    2.7057    3.5815 H   0  0  0  0  0  0  0  0  0  0  0  0
    1.2300    0.7483    0.2659 N   0  0  0  0  0  0  0  0  0  0  0  0
    2.1473    0.7194   -0.8914 C   0  0  2  0  0  0  0  0  0  0  0  0
    1.4848    0.4265   -2.2531 C   0  0  0  0  0  0  0  0  0  0  0  0
    1.9715    0.9262   -3.2587 O   0  0  0  0  0  0  0  0  0  0  0  0
    3.2539   -0.3243   -0.6345 C   0  0  0  0  0  0  0  0  0  0  0  0
    4.1859    0.0403    0.5179 C   0  0  0  0  0  0  0  0  0  0  0  0
    3.7055    0.4434    1.5654 O   0  0  0  0  0  0  0  0  0  0  0  0
    5.5123   -0.1078    0.3185 O   0  0  0  0  0  0  0  0  0  0  0  0
    1.7217    0.6592    1.1585 H   0  0  0  0  0  0  0  0  0  0  0  0
    2.6125    1.7078   -0.9907 H   0  0  0  0  0  0  0  0  0  0  0  0
    2.8086   -1.3015   -0.4308 H   0  0  0  0  0  0  0  0  0  0  0  0
    3.8644   -0.4235   -1.5375 H   0  0  0  0  0  0  0  0  0  0  0  0
    5.9367    0.1670    1.1463 H   0  0  0  0  0  0  0  0  0  0  0  0
    0.5549   -0.5945   -2.3488 N   0  0  0  0  0  0  0  0  0  0  0  0
   -0.1706   -1.0233   -3.5618 C   0  0  2  0  0  0  0  0  0  0  0  0
    0.6903   -1.7584   -4.6149 C   0  0  0  0  0  0  0  0  0  0  0  0
    0.3151   -2.8395   -5.0499 O   0  0  0  0  0  0  0  0  0  0  0  0
   -0.9253    0.1552   -4.1930 C   0  0  0  0  0  0  0  0  0  0  0  0
    0.1547   -0.8683   -1.4552 H   0  0  0  0  0  0  0  0  0  0  0  0
   -0.9252   -1.7476   -3.2383 H   0  0  0  0  0  0  0  0  0  0  0  0
   -0.2335    0.8829   -4.6268 H   0  0  0  0  0  0  0  0  0  0  0  0
   -1.5847   -0.2047   -4.9888 H   0  0  0  0  0  0  0  0  0  0  0  0
   -1.5362    0.6629   -3.4401 H   0  0  0  0  0  0  0  0  0  0  0  0
    1.8735   -1.2212   -5.0804 N   0  0  0  0  0  0  0  0  0  0  0  0
    2.7222   -1.8488   -6.0830 C   0  0  0  0  0  0  0  0  0  0  0  0
    2.1412   -0.3148   -4.6870 H   0  0  0  0  0  0  0  0  0  0  0  0
    3.6001   -1.2251   -6.2768 H   0  0  0  0  0  0  0  0  0  0  0  0
    3.0635   -2.8294   -5.7361 H   0  0  0  0  0  0  0  0  0  0  0  0
    2.1746   -1.9770   -7.0223 H   0  0  0  0  0  0  0  0  0  0  0  0
  1  2  2  0  0  0  0
  1  3  1  0  0  0  0
  1  7  1  0  0  0  0
  3  4  1  0  0  0  0
  3  5  1  0  0  0  0
  3  6  1  0  0  0  0
  7  8  1  0  0  0  0
  7 12  1  0  0  0  0
  8  9  1  0  0  0  0
  8 11  1  0  0  0  0
  8 13  1  0  0  0  0
  9 10  2  0  0  0  0
  9 17  1  0  0  0  0
 11 14  1  0  0  0  0
 11 15  1  0  0  0  0
 11 16  1  0  0  0  0
 17 18  1  0  0  0  0
 17 25  1  0  0  0  0
 18 19  1  0  0  0  0
 18 21  1  0  0  0  0
 18 26  1  0  0  0  0
 19 20  2  0  0  0  0
 19 30  1  0  0  0  0
 21 22  1  0  0  0  0
 21 27  1  0  0  0  0
 21 28  1  0  0  0  0
 22 23  2  0  0  0  0
 22 24  1  0  0  0  0
 24 29  1  0  0  0  0
 30 31  1  0  0  0  0
 30 35  1  0  0  0  0
 31 32  1  0  0  0  0
 31 34  1  0  0  0  0
 31 36  1  0  0  0  0
 32 33  2  0  0  0  0
 32 40  1  0  0  0  0
 34 37  1  0  0  0  0
 34 38  1  0  0  0  0
 34 39  1  0  0  0  0
 40 41  1  0  0  0  0
 40 42  1  0  0  0  0
 41 43  1  0  0  0  0
 41 44  1  0  0  0  0
 41 45  1  0  0  0  0
M  END
$$$$

  -OEChem-02062319043D

 45 44  0     1  0  0  0  0  0999 V2000
   -0.2030    4.6800    0.5673 C   0  0  0  0  0  0  0  0  0  0  0  0
    0.9532    4.6719    0.1760 O   0  0  0  0  0  0  0  0  0  0  0  0
   -1.1745    5.7319    0.0672 C   0  0  0  0  0  0  0  0  0  0  0  0
   -0.6716    6.4061   -0.6320 H   0  0  0  0  0  0  0  0  0  0  0  0
   -2.0113    5.2530   -0.4470 H   0  0  0  0  0  0  0  0  0  0  0  0
   -1.5569    6.3169    0.9070 H   0  0  0  0  0  0  0  0  0  0  0  0
   -0.6337    3.6941    1.4315 N   0  0  0  0  0  0  0  0  0  0  0  0
    0.2046    2.5347    1.7628 C   0  0  2  0  0  0  0  0  0  0  0  0
    0.3208    1.5561    0.5757 C   0  0  0  0  0  0  0  0  0  0  0  0
   -0.6803    1.1290    0.0160 O   0  0  0  0  0  0  0  0  0  0  0  0
   -0.3971    1.8449    2.9897 C   0  0  0  0  0  0  0  0  0  0  0  0
   -1.6375    3.6145    1.5658 H   0  0  0  0  0  0  0  0  0  0  0  0
    1.2154    2.8732    2.0186 H   0  0  0  0  0  0  0  0  0  0  0  0
   -1.4046    1.4771    2.7705 H   0  0  0  0  0  0  0  0  0  0  0  0
    0.2256    0.9963    3.2895 H   0  0  0  0  0  0  0  0  0  0  0  0
   -0.4536    2.5446    3.8292 H   0  0  0  0  0  0  0  0  0  0  0  0
    1.3781    0.6879    0.4700 N   0  0  0  0  0  0  0  0  0  0  0  0
    2.4121    1.0241   -0.5234 C   0  0  2  0  0  0  0  0  0  0  0  0
    1.8893    1.1139   -1.9737 C   0  0  0  0  0  0  0  0  0  0  0  0
    2.4657    1.8590   -2.7525 O   0  0  0  0  0  0  0  0  0  0  0  0
    3.5490   -0.0104   -0.4453 C   0  0  0  0  0  0  0  0  0  0  0  0
    4.2271   -0.0524    0.9187 C   0  0  0  0  0  0  0  0  0  0  0  0
    4.4576    0.9896    1.5056 O   0  0  0  0  0  0  0  0  0  0  0  0
    4.5371   -1.2676    1.4180 O   0  0  0  0  0  0  0  0  0  0  0  0
    1.0242   -0.2590    0.3668 H   0  0  0  0  0  0  0  0  0  0  0  0
    2.8222    2.0146   -0.2830 H   0  0  0  0  0  0  0  0  0  0  0  0
    3.1616   -1.0059   -0.6771 H   0  0  0  0  0  0  0  0  0  0  0  0
    4.3116    0.2292   -1.1921 H   0  0  0  0  0  0  0  0  0  0  0  0
    4.9632   -1.0890    2.2708 H   0  0  0  0  0  0  0  0  0  0  0  0
    1.0312    0.1388   -2.4581 N   0  0  0  0  0  0  0  0  0  0  0  0
    0.5086    0.0290   -3.8364 C   0  0  2  0  0  0  0  0  0  0  0  0
    1.5411   -0.4161   -4.8980 C   0  0  0  0  0  0  0  0  0  0  0  0
    1.2550   -1.3214   -5.6710 O   0  0  0  0  0  0  0  0  0  0  0  0
   -0.1974    1.3231   -4.2651 C   0  0  0  0  0  0  0  0  0  0  0  0
    0.4838   -0.3255   -1.7378 H   0  0  0  0  0  0  0  0  0  0  0  0
   -0.2540   -0.7565   -3.8199 H   0  0  0  0  0  0  0  0  0  0  0  0
    0.5197    2.1350   -4.4187 H   0  0  0  0  0  0  0  0  0  0  0  0
   -0.7348    1.1618   -5.2049 H   0  0  0  0  0  0  0  0  0  0  0  0
   -0.9181    1.6339   -3.5026 H   0  0  0  0  0  0  0  0  0  0  0  0
    2.7778    0.1885   -4.9991 N   0  0  0  0  0  0  0  0  0  0  0  0
    3.7677   -0.1381   -6.0153 C   0  0  0  0  0  0  0  0  0  0  0  0
    2.9469    0.9729   -4.3632 H   0  0  0  0  0  0  0  0  0  0  0  0
    4.6719    0.4595   -5.8653 H   0  0  0  0  0  0  0  0  0  0  0  0
    4.0399   -1.1971   -5.9588 H   0  0  0  0  0  0  0  0  0  0  0  0
    3.3734    0.0724   -7.0148 H   0  0  0  0  0  0  0  0  0  0  0  0
  1  2  2  0  0  0  0
  1  3  1  0  0  0  0
  1  7  1  0  0  0  0
  3  4  1  0  0  0  0
  3  5  1  0  0  0  0
  3  6  1  0  0  0  0
  7  8  1  0  0  0  0
  7 12  1  0  0  0  0
  8  9  1  0  0  0  0
  8 11  1  0  0  0  0
  8 13  1  0  0  0  0
  9 10  2  0  0  0  0
  9 17  1  0  0  0  0
 11 14  1  0  0  0  0
 11 15  1  0  0  0  0
 11 16  1  0  0  0  0
 17 18  1  0  0  0  0
 17 25  1  0  0  0  0
 18 19  1  0  0  0  0
 18 21  1  0  0  0  0
 18 26  1  0  0  0  0
 19 20  2  0  0  0  0
 19 30  1  0  0  0  0
 21 22  1  0  0  0  0
 21 27  1  0  0  0  0
 21 28  1  0  0  0  0
 22 23  2  0  0  0  0
 22 24  1  0  0  0  0
 24 29  1  0  0  0  0
 30 31  1  0  0  0  0
 30 35  1  0  0  0  0
 31 32  1  0  0  0  0
 31 34  1  0  0  0  0
 31 36  1  0  0  0  0
 32 33  2  0  0  0  0
 32 40  1  0  0  0  0
 34 37  1  0  0  0  0
 34 38  1  0  0  0  0
 34 39  1  0  0  0  0
 40 41  1  0  0  0  0
 40 42  1  0  0  0  0
 41 43  1  0  0  0  0
 41 44  1  0  0  0  0
 41 45  1  0  0  0  0
M  END
$$$$

  -OEChem-02062319043D

 45 44  0     1  0  0  0  0  0999 V2000
    0.0989    4.5755    0.5525 C   0  0  0  0  0  0  0  0  0  0  0  0
    1.2985    4.4503    0.3673 O   0  0  0  0  0  0  0  0  0  0  0  0
   -0.6624    5.7199   -0.0887 C   0  0  0  0  0  0  0  0  0  0  0  0
    0.0248    6.3644   -0.6442 H   0  0  0  0  0  0  0  0  0  0  0  0
   -1.4130    5.3283   -0.7796 H   0  0  0  0  0  0  0  0  0  0  0  0
   -1.1589    6.3161    0.6808 H   0  0  0  0  0  0  0  0  0  0  0  0
   -0.5696    3.6325    1.3057 N   0  0  0  0  0  0  0  0  0  0  0  0
    0.0830    2.3985    1.7604 C   0  0  2  0  0  0  0  0  0  0  0  0
    0.2891    1.4089    0.5957 C   0  0  0  0  0  0  0  0  0  0  0  0
   -0.6567    0.9628   -0.0386 O   0  0  0  0  0  0  0  0  0  0  0  0
   -0.7761    1.7820    2.8671 C   0  0  0  0  0  0  0  0  0  0  0  0
   -1.5847    3.6582    1.2757 H   0  0  0  0  0  0  0  0  0  0  0  0
    1.0670    2.6343    2.1825 H   0  0  0  0  0  0  0  0  0  0  0  0
   -1.7691    1.5211    2.4867 H   0  0  0  0  0  0  0  0  0  0  0  0
   -0.3017    0.8738    3.2521 H   0  0  0  0  0  0  0  0  0  0  0  0
   -0.8926    2.4882    3.6948 H   0  0  0  0  0  0  0  0  0  0  0  0
    1.4001    0.6087    0.5132 N   0  0  0  0  0  0  0  0  0  0  0  0
    2.5631    1.1567   -0.2056 C   0  0  2  0  0  0  0  0  0  0  0  0
    2.2643    1.5044   -1.6802 C   0  0  0  0  0  0  0  0  0  0  0  0
    2.8871    2.4134   -2.2078 O   0  0  0  0  0  0  0  0  0  0  0  0
    3.7345    0.1628   -0.1192 C   0  0  0  0  0  0  0  0  0  0  0  0
    4.1910   -0.1038    1.3111 C   0  0  0  0  0  0  0  0  0  0  0  0
    4.2033    0.8078    2.1192 O   0  0  0  0  0  0  0  0  0  0  0  0
    4.5624   -1.3657    1.6142 O   0  0  0  0  0  0  0  0  0  0  0  0
    1.1273   -0.3190    0.2010 H   0  0  0  0  0  0  0  0  0  0  0  0
    2.8681    2.0974    0.2733 H   0  0  0  0  0  0  0  0  0  0  0  0
    3.4506   -0.7862   -0.5810 H   0  0  0  0  0  0  0  0  0  0  0  0
    4.5891    0.5585   -0.6754 H   0  0  0  0  0  0  0  0  0  0  0  0
    4.8264   -1.3340    2.5470 H   0  0  0  0  0  0  0  0  0  0  0  0
    1.5500    0.6139   -2.4671 N   0  0  0  0  0  0  0  0  0  0  0  0
    1.1931    0.7886   -3.8911 C   0  0  2  0  0  0  0  0  0  0  0  0
    2.3642    0.6478   -4.8910 C   0  0  0  0  0  0  0  0  0  0  0  0
    2.2310   -0.0756   -5.8697 O   0  0  0  0  0  0  0  0  0  0  0  0
    0.4391    2.1082   -4.1107 C   0  0  0  0  0  0  0  0  0  0  0  0
    0.9775   -0.0422   -1.9427 H   0  0  0  0  0  0  0  0  0  0  0  0
    0.4959   -0.0184   -4.1402 H   0  0  0  0  0  0  0  0  0  0  0  0
    1.0988    2.9704   -3.9754 H   0  0  0  0  0  0  0  0  0  0  0  0
    0.0373    2.1445   -5.1281 H   0  0  0  0  0  0  0  0  0  0  0  0
   -0.3941    2.1922   -3.4061 H   0  0  0  0  0  0  0  0  0  0  0  0
    3.5523    1.3277   -4.7152 N   0  0  0  0  0  0  0  0  0  0  0  0
    4.6686    1.2776   -5.6485 C   0  0  0  0  0  0  0  0  0  0  0  0
    3.6005    1.9480   -3.9018 H   0  0  0  0  0  0  0  0  0  0  0  0
    5.4983    1.8864   -5.2770 H   0  0  0  0  0  0  0  0  0  0  0  0
    5.0222    0.2483   -5.7674 H   0  0  0  0  0  0  0  0  0  0  0  0
    4.3657    1.6626   -6.6278 H   0  0  0  0  0  0  0  0  0  0  0  0
  1  2  2  0  0  0  0
  1  3  1  0  0  0  0
  1  7  1  0  0  0  0
  3  4  1  0  0  0  0
  3  5  1  0  0  0  0
  3  6  1  0  0  0  0
  7  8  1  0  0  0  0
  7 12  1  0  0  0  0
  8  9  1  0  0  0  0
  8 11  1  0  0  0  0
  8 13  1  0  0  0  0
  9 10  2  0  0  0  0
  9 17  1  0  0  0  0
 11 14  1  0  0  0  0
 11 15  1  0  0  0  0
 11 16  1  0  0  0  0
 17 18  1  0  0  0  0
 17 25  1  0  0  0  0
 18 19  1  0  0  0  0
 18 21  1  0  0  0  0
 18 26  1  0  0  0  0
 19 20  2  0  0  0  0
 19 30  1  0  0  0  0
 21 22  1  0  0  0  0
 21 27  1  0  0  0  0
 21 28  1  0  0  0  0
 22 23  2  0  0  0  0
 22 24  1  0  0  0  0
 24 29  1  0  0  0  0
 30 31  1  0  0  0  0
 30 35  1  0  0  0  0
 31 32  1  0  0  0  0
 31 34  1  0  0  0  0
 31 36  1  0  0  0  0
 32 33  2  0  0  0  0
 32 40  1  0  0  0  0
 34 37  1  0  0  0  0
 34 38  1  0  0  0  0
 34 39  1  0  0  0  0
 40 41  1  0  0  0  0
 40 42  1  0  0  0  0
 41 43  1  0  0  0  0
 41 44  1  0  0  0  0
 41 45  1  0  0  0  0
M  END
$$$$

  -OEChem-02062319043D

 45 44  0     1  0  0  0  0  0999 V2000
   -0.4608    4.7170    0.5874 C   0  0  0  0  0  0  0  0  0  0  0  0
    0.6540    4.8169    0.1002 O   0  0  0  0  0  0  0  0  0  0  0  0
   -1.5659    5.6705    0.1748 C   0  0  0  0  0  0  0  0  0  0  0  0
   -1.1679    6.4421   -0.4902 H   0  0  0  0  0  0  0  0  0  0  0  0
   -2.3533    5.1243   -0.3504 H   0  0  0  0  0  0  0  0  0  0  0  0
   -1.9920    6.1533    1.0575 H   0  0  0  0  0  0  0  0  0  0  0  0
   -0.7230    3.7019    1.4843 N   0  0  0  0  0  0  0  0  0  0  0  0
    0.2428    2.6240    1.7352 C   0  0  2  0  0  0  0  0  0  0  0  0
    0.3450    1.6477    0.5428 C   0  0  0  0  0  0  0  0  0  0  0  0
   -0.6454    1.3101   -0.0897 O   0  0  0  0  0  0  0  0  0  0  0  0
   -0.1876    1.8857    3.0046 C   0  0  0  0  0  0  0  0  0  0  0  0
   -1.7023    3.5193    1.6828 H   0  0  0  0  0  0  0  0  0  0  0  0
    1.2340    3.0570    1.9087 H   0  0  0  0  0  0  0  0  0  0  0  0
   -1.1685    1.4202    2.8656 H   0  0  0  0  0  0  0  0  0  0  0  0
    0.5372    1.1032    3.2522 H   0  0  0  0  0  0  0  0  0  0  0  0
   -0.2446    2.5808    3.8481 H   0  0  0  0  0  0  0  0  0  0  0  0
    1.3654    0.7373    0.4250 N   0  0  0  0  0  0  0  0  0  0  0  0
    2.7019    1.2082    0.0294 C   0  0  2  0  0  0  0  0  0  0  0  0
    2.7266    1.8978   -1.3494 C   0  0  0  0  0  0  0  0  0  0  0  0
    3.5710    2.7583   -1.5476 O   0  0  0  0  0  0  0  0  0  0  0  0
    3.6849    0.0242    0.0490 C   0  0  0  0  0  0  0  0  0  0  0  0
    3.8730   -0.5826    1.4357 C   0  0  0  0  0  0  0  0  0  0  0  0
    3.8084    0.1319    2.4210 O   0  0  0  0  0  0  0  0  0  0  0  0
    4.1061   -1.9106    1.4985 O   0  0  0  0  0  0  0  0  0  0  0  0
    1.0365   -0.0893   -0.0671 H   0  0  0  0  0  0  0  0  0  0  0  0
    3.0483    1.9589    0.7512 H   0  0  0  0  0  0  0  0  0  0  0  0
    3.3386   -0.7563   -0.6333 H   0  0  0  0  0  0  0  0  0  0  0  0
    4.6647    0.3587   -0.3036 H   0  0  0  0  0  0  0  0  0  0  0  0
    4.2092   -2.1077    2.4425 H   0  0  0  0  0  0  0  0  0  0  0  0
    2.0505    1.3282   -2.4169 N   0  0  0  0  0  0  0  0  0  0  0  0
    2.0190    1.8266   -3.8082 C   0  0  2  0  0  0  0  0  0  0  0  0
    3.3319    1.6281   -4.6001 C   0  0  0  0  0  0  0  0  0  0  0  0
    3.2981    1.0743   -5.6914 O   0  0  0  0  0  0  0  0  0  0  0  0
    1.5575    3.2904   -3.8621 C   0  0  0  0  0  0  0  0  0  0  0  0
    1.3228    0.6673   -2.1588 H   0  0  0  0  0  0  0  0  0  0  0  0
    1.2622    1.2374   -4.3362 H   0  0  0  0  0  0  0  0  0  0  0  0
    2.3190    3.9633   -3.4565 H   0  0  0  0  0  0  0  0  0  0  0  0
    1.3624    3.5833   -4.8986 H   0  0  0  0  0  0  0  0  0  0  0  0
    0.6364    3.4213   -3.2857 H   0  0  0  0  0  0  0  0  0  0  0  0
    4.5461    2.0479   -4.0956 N   0  0  0  0  0  0  0  0  0  0  0  0
    5.8198    1.8889   -4.7826 C   0  0  0  0  0  0  0  0  0  0  0  0
    4.5186    2.5074   -3.1809 H   0  0  0  0  0  0  0  0  0  0  0  0
    6.6325    2.2798   -4.1627 H   0  0  0  0  0  0  0  0  0  0  0  0
    6.0166    0.8308   -4.9845 H   0  0  0  0  0  0  0  0  0  0  0  0
    5.8138    2.4350   -5.7316 H   0  0  0  0  0  0  0  0  0  0  0  0
  1  2  2  0  0  0  0
  1  3  1  0  0  0  0
  1  7  1  0  0  0  0
  3  4  1  0  0  0  0
  3  5  1  0  0  0  0
  3  6  1  0  0  0  0
  7  8  1  0  0  0  0
  7 12  1  0  0  0  0
  8  9  1  0  0  0  0
  8 11  1  0  0  0  0
  8 13  1  0  0  0  0
  9 10  2  0  0  0  0
  9 17  1  0  0  0  0
 11 14  1  0  0  0  0
 11 15  1  0  0  0  0
 11 16  1  0  0  0  0
 17 18  1  0  0  0  0
 17 25  1  0  0  0  0
 18 19  1  0  0  0  0
 18 21  1  0  0  0  0
 18 26  1  0  0  0  0
 19 20  2  0  0  0  0
 19 30  1  0  0  0  0
 21 22  1  0  0  0  0
 21 27  1  0  0  0  0
 21 28  1  0  0  0  0
 22 23  2  0  0  0  0
 22 24  1  0  0  0  0
 24 29  1  0  0  0  0
 30 31  1  0  0  0  0
 30 35  1  0  0  0  0
 31 32  1  0  0  0  0
 31 34  1  0  0  0  0
 31 36  1  0  0  0  0
 32 33  2  0  0  0  0
 32 40  1  0  0  0  0
 34 37  1  0  0  0  0
 34 38  1  0  0  0  0
 34 39  1  0  0  0  0
 40 41  1  0  0  0  0
 40 42  1  0  0  0  0
 41 43  1  0  0  0  0
 41 44  1  0  0  0  0
 41 45  1  0  0  0  0
M  END
$$$$

  -OEChem-02062319043D

 45 44  0     1  0  0  0  0  0999 V2000
   -0.5371    4.7046    0.5546 C   0  0  0  0  0  0  0  0  0  0  0  0
    0.5550    4.8120    0.0189 O   0  0  0  0  0  0  0  0  0  0  0  0
   -1.6784    5.6209    0.1571 C   0  0  0  0  0  0  0  0  0  0  0  0
   -1.3327    6.3598   -0.5712 H   0  0  0  0  0  0  0  0  0  0  0  0
   -2.4871    5.0370   -0.2896 H   0  0  0  0  0  0  0  0  0  0  0  0
   -2.0588    6.1459    1.0366 H   0  0  0  0  0  0  0  0  0  0  0  0
   -0.7431    3.7168    1.4960 N   0  0  0  0  0  0  0  0  0  0  0  0
    0.2520    2.6636    1.7383 C   0  0  2  0  0  0  0  0  0  0  0  0
    0.3535    1.6743    0.5545 C   0  0  0  0  0  0  0  0  0  0  0  0
   -0.6281    1.3732   -0.1086 O   0  0  0  0  0  0  0  0  0  0  0  0
   -0.1303    1.9290    3.0253 C   0  0  0  0  0  0  0  0  0  0  0  0
   -1.7107    3.5220    1.7354 H   0  0  0  0  0  0  0  0  0  0  0  0
    1.2336    3.1274    1.8835 H   0  0  0  0  0  0  0  0  0  0  0  0
   -1.1022    1.4376    2.9148 H   0  0  0  0  0  0  0  0  0  0  0  0
    0.6191    1.1672    3.2641 H   0  0  0  0  0  0  0  0  0  0  0  0
   -0.1854    2.6320    3.8622 H   0  0  0  0  0  0  0  0  0  0  0  0
    1.3674    0.7547    0.4320 N   0  0  0  0  0  0  0  0  0  0  0  0
    2.7702    1.1913    0.3533 C   0  0  2  0  0  0  0  0  0  0  0  0
    3.0612    2.1137   -0.8462 C   0  0  0  0  0  0  0  0  0  0  0  0
    3.9239    2.9693   -0.7165 O   0  0  0  0  0  0  0  0  0  0  0  0
    3.6847   -0.0451    0.3021 C   0  0  0  0  0  0  0  0  0  0  0  0
    3.6086   -0.8958    1.5651 C   0  0  0  0  0  0  0  0  0  0  0  0
    3.4949   -0.3509    2.6493 O   0  0  0  0  0  0  0  0  0  0  0  0
    3.6683   -2.2354    1.4113 O   0  0  0  0  0  0  0  0  0  0  0  0
    1.0932   -0.0054   -0.1856 H   0  0  0  0  0  0  0  0  0  0  0  0
    3.0213    1.7674    1.2525 H   0  0  0  0  0  0  0  0  0  0  0  0
    3.4237   -0.6656   -0.5593 H   0  0  0  0  0  0  0  0  0  0  0  0
    4.7235    0.2738    0.1768 H   0  0  0  0  0  0  0  0  0  0  0  0
    3.6137   -2.5991    2.3088 H   0  0  0  0  0  0  0  0  0  0  0  0
    2.5607    1.8023   -2.1001 N   0  0  0  0  0  0  0  0  0  0  0  0
    2.7379    2.5927   -3.3361 C   0  0  2  0  0  0  0  0  0  0  0  0
    4.1619    2.5507   -3.9371 C   0  0  0  0  0  0  0  0  0  0  0  0
    4.3159    2.1738   -5.0917 O   0  0  0  0  0  0  0  0  0  0  0  0
    2.2611    4.0391   -3.1362 C   0  0  0  0  0  0  0  0  0  0  0  0
    1.8130    1.1144   -2.1070 H   0  0  0  0  0  0  0  0  0  0  0  0
    2.0835    2.1472   -4.0926 H   0  0  0  0  0  0  0  0  0  0  0  0
    2.9201    4.5872   -2.4564 H   0  0  0  0  0  0  0  0  0  0  0  0
    2.2483    4.5655   -4.0955 H   0  0  0  0  0  0  0  0  0  0  0  0
    1.2487    4.0523   -2.7205 H   0  0  0  0  0  0  0  0  0  0  0  0
    5.2683    2.9089   -3.1935 N   0  0  0  0  0  0  0  0  0  0  0  0
    6.6393    2.8391   -3.6788 C   0  0  0  0  0  0  0  0  0  0  0  0
    5.0902    3.1616   -2.2174 H   0  0  0  0  0  0  0  0  0  0  0  0
    7.3280    3.2158   -2.9165 H   0  0  0  0  0  0  0  0  0  0  0  0
    6.9104    1.8042   -3.9116 H   0  0  0  0  0  0  0  0  0  0  0  0
    6.7576    3.4473   -4.5817 H   0  0  0  0  0  0  0  0  0  0  0  0
  1  2  2  0  0  0  0
  1  3  1  0  0  0  0
  1  7  1  0  0  0  0
  3  4  1  0  0  0  0
  3  5  1  0  0  0  0
  3  6  1  0  0  0  0
  7  8  1  0  0  0  0
  7 12  1  0  0  0  0
  8  9  1  0  0  0  0
  8 11  1  0  0  0  0
  8 13  1  0  0  0  0
  9 10  2  0  0  0  0
  9 17  1  0  0  0  0
 11 14  1  0  0  0  0
 11 15  1  0  0  0  0
 11 16  1  0  0  0  0
 17 18  1  0  0  0  0
 17 25  1  0  0  0  0
 18 19  1  0  0  0  0
 18 21  1  0  0  0  0
 18 26  1  0  0  0  0
 19 20  2  0  0  0  0
 19 30  1  0  0  0  0
 21 22  1  0  0  0  0
 21 27  1  0  0  0  0
 21 28  1  0  0  0  0
 22 23  2  0  0  0  0
 22 24  1  0  0  0  0
 24 29  1  0  0  0  0
 30 31  1  0  0  0  0
 30 35  1  0  0  0  0
 31 32  1  0  0  0  0
 31 34  1  0  0  0  0
 31 36  1  0  0  0  0
 32 33  2  0  0  0  0
 32 40  1  0  0  0  0
 34 37  1  0  0  0  0
 34 38  1  0  0  0  0
 34 39  1  0  0  0  0
 40 41  1  0  0  0  0
 40 42  1  0  0  0  0
 41 43  1  0  0  0  0
 41 44  1  0  0  0  0
 41 45  1  0  0  0  0
M  END
$$$$

  -OEChem-02062319043D

 45 44  0     1  0  0  0  0  0999 V2000
   -0.6648    4.7306    0.6563 C   0  0  0  0  0  0  0  0  0  0  0  0
    0.4423    4.9500    0.1904 O   0  0  0  0  0  0  0  0  0  0  0  0
   -1.8477    5.5882    0.2493 C   0  0  0  0  0  0  0  0  0  0  0  0
   -1.5217    6.3832   -0.4273 H   0  0  0  0  0  0  0  0  0  0  0  0
   -2.5941    4.9753   -0.2619 H   0  0  0  0  0  0  0  0  0  0  0  0
   -2.3011    6.0430    1.1333 H   0  0  0  0  0  0  0  0  0  0  0  0
   -0.8464    3.6733    1.5240 N   0  0  0  0  0  0  0  0  0  0  0  0
    0.2029    2.6706    1.7528 C   0  0  2  0  0  0  0  0  0  0  0  0
    0.3313    1.6762    0.5743 C   0  0  0  0  0  0  0  0  0  0  0  0
   -0.6225    1.3990   -0.1377 O   0  0  0  0  0  0  0  0  0  0  0  0
   -0.1253    1.9296    3.0511 C   0  0  0  0  0  0  0  0  0  0  0  0
   -1.8092    3.3968    1.6925 H   0  0  0  0  0  0  0  0  0  0  0  0
    1.1641    3.1801    1.8814 H   0  0  0  0  0  0  0  0  0  0  0  0
   -1.0784    1.3989    2.9608 H   0  0  0  0  0  0  0  0  0  0  0  0
    0.6577    1.2000    3.2827 H   0  0  0  0  0  0  0  0  0  0  0  0
   -0.1947    2.6358    3.8842 H   0  0  0  0  0  0  0  0  0  0  0  0
    1.3738    0.7878    0.4431 N   0  0  0  0  0  0  0  0  0  0  0  0
    2.7738    1.1824    0.6636 C   0  0  2  0  0  0  0  0  0  0  0  0
    3.2548    2.3019   -0.2797 C   0  0  0  0  0  0  0  0  0  0  0  0
    4.0577    3.1147    0.1535 O   0  0  0  0  0  0  0  0  0  0  0  0
    3.6763   -0.0540    0.5126 C   0  0  0  0  0  0  0  0  0  0  0  0
    3.3922   -1.1178    1.5660 C   0  0  0  0  0  0  0  0  0  0  0  0
    3.2420   -0.7787    2.7266 O   0  0  0  0  0  0  0  0  0  0  0  0
    3.3102   -2.3994    1.1501 O   0  0  0  0  0  0  0  0  0  0  0  0
    1.1863    0.0816   -0.2651 H   0  0  0  0  0  0  0  0  0  0  0  0
    2.8861    1.5660    1.6851 H   0  0  0  0  0  0  0  0  0  0  0  0
    3.5474   -0.4927   -0.4804 H   0  0  0  0  0  0  0  0  0  0  0  0
    4.7247    0.2430    0.6091 H   0  0  0  0  0  0  0  0  0  0  0  0
    3.1333   -2.9177    1.9508 H   0  0  0  0  0  0  0  0  0  0  0  0
    2.9570    2.2473   -1.6318 N   0  0  0  0  0  0  0  0  0  0  0  0
    3.3778    3.2107   -2.6702 C   0  0  2  0  0  0  0  0  0  0  0  0
    4.8925    3.2038   -2.9827 C   0  0  0  0  0  0  0  0  0  0  0  0
    5.2721    2.9234   -4.1124 O   0  0  0  0  0  0  0  0  0  0  0  0
    2.8840    4.6270   -2.3431 C   0  0  0  0  0  0  0  0  0  0  0  0
    2.2467    1.5707   -1.8964 H   0  0  0  0  0  0  0  0  0  0  0  0
    2.8823    2.9126   -3.6001 H   0  0  0  0  0  0  0  0  0  0  0  0
    3.3709    5.0242   -1.4477 H   0  0  0  0  0  0  0  0  0  0  0  0
    3.1002    5.3018   -3.1771 H   0  0  0  0  0  0  0  0  0  0  0  0
    1.8028    4.6218   -2.1762 H   0  0  0  0  0  0  0  0  0  0  0  0
    5.8292    3.4849   -2.0084 N   0  0  0  0  0  0  0  0  0  0  0  0
    7.2688    3.4260   -2.2190 C   0  0  0  0  0  0  0  0  0  0  0  0
    5.4635    3.6109   -1.0604 H   0  0  0  0  0  0  0  0  0  0  0  0
    7.7950    3.7384   -1.3118 H   0  0  0  0  0  0  0  0  0  0  0  0
    7.5786    2.4057   -2.4675 H   0  0  0  0  0  0  0  0  0  0  0  0
    7.5641    4.0933   -3.0354 H   0  0  0  0  0  0  0  0  0  0  0  0
  1  2  2  0  0  0  0
  1  3  1  0  0  0  0
  1  7  1  0  0  0  0
  3  4  1  0  0  0  0
  3  5  1  0  0  0  0
  3  6  1  0  0  0  0
  7  8  1  0  0  0  0
  7 12  1  0  0  0  0
  8  9  1  0  0  0  0
  8 11  1  0  0  0  0
  8 13  1  0  0  0  0
  9 10  2  0  0  0  0
  9 17  1  0  0  0  0
 11 14  1  0  0  0  0
 11 15  1  0  0  0  0
 11 16  1  0  0  0  0
 17 18  1  0  0  0  0
 17 25  1  0  0  0  0
 18 19  1  0  0  0  0
 18 21  1  0  0  0  0
 18 26  1  0  0  0  0
 19 20  2  0  0  0  0
 19 30  1  0  0  0  0
 21 22  1  0  0  0  0
 21 27  1  0  0  0  0
 21 28  1  0  0  0  0
 22 23  2  0  0  0  0
 22 24  1  0  0  0  0
 24 29  1  0  0  0  0
 30 31  1  0  0  0  0
 30 35  1  0  0  0  0
 31 32  1  0  0  0  0
 31 34  1  0  0  0  0
 31 36  1  0  0  0  0
 32 33  2  0  0  0  0
 32 40  1  0  0  0  0
 34 37  1  0  0  0  0
 34 38  1  0  0  0  0
 34 39  1  0  0  0  0
 40 41  1  0  0  0  0
 40 42  1  0  0  0  0
 41 43  1  0  0  0  0
 41 44  1  0  0  0  0
 41 45  1  0  0  0  0
M  END
$$$$

  -OEChem-02062319043D

 45 44  0     1  0  0  0  0  0999 V2000
   -0.8152    4.7063    0.7244 C   0  0  0  0  0  0  0  0  0  0  0  0
    0.3109    5.0365    0.3892 O   0  0  0  0  0  0  0  0  0  0  0  0
   -2.0154    5.5092    0.2605 C   0  0  0  0  0  0  0  0  0  0  0  0
   -1.6900    6.3473   -0.3622 H   0  0  0  0  0  0  0  0  0  0  0  0
   -2.6845    4.8744   -0.3257 H   0  0  0  0  0  0  0  0  0  0  0  0
   -2.5589    5.9015    1.1235 H   0  0  0  0  0  0  0  0  0  0  0  0
   -0.9992    3.5805    1.4993 N   0  0  0  0  0  0  0  0  0  0  0  0
    0.0882    2.6299    1.7686 C   0  0  2  0  0  0  0  0  0  0  0  0
    0.2993    1.6353    0.6017 C   0  0  0  0  0  0  0  0  0  0  0  0
   -0.6033    1.3544   -0.1724 O   0  0  0  0  0  0  0  0  0  0  0  0
   -0.2641    1.8789    3.0551 C   0  0  0  0  0  0  0  0  0  0  0  0
   -1.9515    3.2300    1.5494 H   0  0  0  0  0  0  0  0  0  0  0  0
    1.0217    3.1785    1.9342 H   0  0  0  0  0  0  0  0  0  0  0  0
   -1.1955    1.3176    2.9292 H   0  0  0  0  0  0  0  0  0  0  0  0
    0.5311    1.1750    3.3200 H   0  0  0  0  0  0  0  0  0  0  0  0
   -0.3889    2.5835    3.8833 H   0  0  0  0  0  0  0  0  0  0  0  0
    1.4000    0.8164    0.4788 N   0  0  0  0  0  0  0  0  0  0  0  0
    2.7415    1.1489    0.9833 C   0  0  2  0  0  0  0  0  0  0  0  0
    3.3383    2.4297    0.3687 C   0  0  0  0  0  0  0  0  0  0  0  0
    4.0424    3.1358    1.0748 O   0  0  0  0  0  0  0  0  0  0  0  0
    3.6835   -0.0388    0.7279 C   0  0  0  0  0  0  0  0  0  0  0  0
    3.2464   -1.2827    1.4883 C   0  0  0  0  0  0  0  0  0  0  0  0
    3.0939   -1.2097    2.6943 O   0  0  0  0  0  0  0  0  0  0  0  0
    3.0213   -2.4069    0.7760 O   0  0  0  0  0  0  0  0  0  0  0  0
    1.3140    0.1401   -0.2773 H   0  0  0  0  0  0  0  0  0  0  0  0
    2.6879    1.3170    2.0659 H   0  0  0  0  0  0  0  0  0  0  0  0
    3.7241   -0.2665   -0.3407 H   0  0  0  0  0  0  0  0  0  0  0  0
    4.6970    0.2172    1.0506 H   0  0  0  0  0  0  0  0  0  0  0  0
    2.7561   -3.0746    1.4281 H   0  0  0  0  0  0  0  0  0  0  0  0
    3.2514    2.6464   -0.9967 N   0  0  0  0  0  0  0  0  0  0  0  0
    3.8848    3.7360   -1.7681 C   0  0  2  0  0  0  0  0  0  0  0  0
    5.4284    3.6699   -1.8193 C   0  0  0  0  0  0  0  0  0  0  0  0
    5.9906    3.5420   -2.8991 O   0  0  0  0  0  0  0  0  0  0  0  0
    3.4075    5.1125   -1.2873 C   0  0  0  0  0  0  0  0  0  0  0  0
    2.6190    2.0312   -1.5010 H   0  0  0  0  0  0  0  0  0  0  0  0
    3.5472    3.6317   -2.8044 H   0  0  0  0  0  0  0  0  0  0  0  0
    3.7310    5.3149   -0.2624 H   0  0  0  0  0  0  0  0  0  0  0  0
    3.8114    5.8973   -1.9344 H   0  0  0  0  0  0  0  0  0  0  0  0
    2.3161    5.1667   -1.3237 H   0  0  0  0  0  0  0  0  0  0  0  0
    6.1867    3.7265   -0.6672 N   0  0  0  0  0  0  0  0  0  0  0  0
    7.6386    3.6220   -0.6374 C   0  0  0  0  0  0  0  0  0  0  0  0
    5.6639    3.7372    0.2130 H   0  0  0  0  0  0  0  0  0  0  0  0
    8.0008    3.7115    0.3911 H   0  0  0  0  0  0  0  0  0  0  0  0
    7.9625    2.6554   -1.0368 H   0  0  0  0  0  0  0  0  0  0  0  0
    8.0914    4.4208   -1.2338 H   0  0  0  0  0  0  0  0  0  0  0  0
  1  2  2  0  0  0  0
  1  3  1  0  0  0  0
  1  7  1  0  0  0  0
  3  4  1  0  0  0  0
  3  5  1  0  0  0  0
  3  6  1  0  0  0  0
  7  8  1  0  0  0  0
  7 12  1  0  0  0  0
  8  9  1  0  0  0  0
  8 11  1  0  0  0  0
  8 13  1  0  0  0  0
  9 10  2  0  0  0  0
  9 17  1  0  0  0  0
 11 14  1  0  0  0  0
 11 15  1  0  0  0  0
 11 16  1  0  0  0  0
 17 18  1  0  0  0  0
 17 25  1  0  0  0  0
 18 19  1  0  0  0  0
 18 21  1  0  0  0  0
 18 26  1  0  0  0  0
 19 20  2  0  0  0  0
 19 30  1  0  0  0  0
 21 22  1  0  0  0  0
 21 27  1  0  0  0  0
 21 28  1  0  0  0  0
 22 23  2  0  0  0  0
 22 24  1  0  0  0  0
 24 29  1  0  0  0  0
 30 31  1  0  0  0  0
 30 35  1  0  0  0  0
 31 32  1  0  0  0  0
 31 34  1  0  0  0  0
 31 36  1  0  0  0  0
 32 33  2  0  0  0  0
 32 40  1  0  0  0  0
 34 37  1  0  0  0  0
 34 38  1  0  0  0  0
 34 39  1  0  0  0  0
 40 41  1  0  0  0  0
 40 42  1  0  0  0  0
 41 43  1  0  0  0  0
 41 44  1  0  0  0  0
 41 45  1  0  0  0  0
M  END
$$$$

  -OEChem-02062319043D

 45 44  0     1  0  0  0  0  0999 V2000
   -0.9357    4.5608    0.5654 C   0  0  0  0  0  0  0  0  0  0  0  0
    0.2025    4.8459    0.2283 O   0  0  0  0  0  0  0  0  0  0  0  0
   -2.1151    5.3186   -0.0133 C   0  0  0  0  0  0  0  0  0  0  0  0
   -1.7636    6.1738   -0.5975 H   0  0  0  0  0  0  0  0  0  0  0  0
   -2.6954    4.6609   -0.6652 H   0  0  0  0  0  0  0  0  0  0  0  0
   -2.7575    5.6835    0.7918 H   0  0  0  0  0  0  0  0  0  0  0  0
   -1.1496    3.5157    1.4401 N   0  0  0  0  0  0  0  0  0  0  0  0
   -0.0733    2.5853    1.8083 C   0  0  2  0  0  0  0  0  0  0  0  0
    0.2586    1.5998    0.6606 C   0  0  0  0  0  0  0  0  0  0  0  0
   -0.5841    1.2806   -0.1646 O   0  0  0  0  0  0  0  0  0  0  0  0
   -0.5259    1.8264    3.0581 C   0  0  0  0  0  0  0  0  0  0  0  0
   -2.1046    3.1729    1.4891 H   0  0  0  0  0  0  0  0  0  0  0  0
    0.8271    3.1563    2.0567 H   0  0  0  0  0  0  0  0  0  0  0  0
   -1.4279    1.2427    2.8475 H   0  0  0  0  0  0  0  0  0  0  0  0
    0.2575    1.1421    3.3977 H   0  0  0  0  0  0  0  0  0  0  0  0
   -0.7442    2.5283    3.8693 H   0  0  0  0  0  0  0  0  0  0  0  0
    1.4214    0.8662    0.5627 N   0  0  0  0  0  0  0  0  0  0  0  0
    2.6648    1.0863    1.3180 C   0  0  2  0  0  0  0  0  0  0  0  0
    3.3083    2.4697    1.1049 C   0  0  0  0  0  0  0  0  0  0  0  0
    3.9006    2.9773    2.0459 O   0  0  0  0  0  0  0  0  0  0  0  0
    3.6782   -0.0029    0.9335 C   0  0  0  0  0  0  0  0  0  0  0  0
    3.1574   -1.3870    1.2827 C   0  0  0  0  0  0  0  0  0  0  0  0
    3.1876   -1.7429    2.4459 O   0  0  0  0  0  0  0  0  0  0  0  0
    2.6415   -2.1360    0.2845 O   0  0  0  0  0  0  0  0  0  0  0  0
    1.4124    0.1766   -0.1881 H   0  0  0  0  0  0  0  0  0  0  0  0
    2.4537    0.9954    2.3902 H   0  0  0  0  0  0  0  0  0  0  0  0
    3.8973    0.0400   -0.1369 H   0  0  0  0  0  0  0  0  0  0  0  0
    4.6182    0.1583    1.4704 H   0  0  0  0  0  0  0  0  0  0  0  0
    2.3616   -2.9646    0.7051 H   0  0  0  0  0  0  0  0  0  0  0  0
    3.4198    2.9953   -0.1707 N   0  0  0  0  0  0  0  0  0  0  0  0
    4.2083    4.1755   -0.5827 C   0  0  2  0  0  0  0  0  0  0  0  0
    5.7360    3.9718   -0.4735 C   0  0  0  0  0  0  0  0  0  0  0  0
    6.4298    4.0419   -1.4794 O   0  0  0  0  0  0  0  0  0  0  0  0
    3.7709    5.4461    0.1598 C   0  0  0  0  0  0  0  0  0  0  0  0
    2.8679    2.5326   -0.8887 H   0  0  0  0  0  0  0  0  0  0  0  0
    3.9988    4.3454   -1.6440 H   0  0  0  0  0  0  0  0  0  0  0  0
    4.0114    5.3927    1.2251 H   0  0  0  0  0  0  0  0  0  0  0  0
    4.2804    6.3187   -0.2603 H   0  0  0  0  0  0  0  0  0  0  0  0
    2.6935    5.5955    0.0542 H   0  0  0  0  0  0  0  0  0  0  0  0
    6.3287    3.6628    0.7349 N   0  0  0  0  0  0  0  0  0  0  0  0
    7.7455    3.3687    0.8956 C   0  0  0  0  0  0  0  0  0  0  0  0
    5.6930    3.5309    1.5262 H   0  0  0  0  0  0  0  0  0  0  0  0
    7.9760    3.1829    1.9490 H   0  0  0  0  0  0  0  0  0  0  0  0
    8.0183    2.4797    0.3178 H   0  0  0  0  0  0  0  0  0  0  0  0
    8.3529    4.2131    0.5533 H   0  0  0  0  0  0  0  0  0  0  0  0
  1  2  2  0  0  0  0
  1  3  1  0  0  0  0
  1  7  1  0  0  0  0
  3  4  1  0  0  0  0
  3  5  1  0  0  0  0
  3  6  1  0  0  0  0
  7  8  1  0  0  0  0
  7 12  1  0  0  0  0
  8  9  1  0  0  0  0
  8 11  1  0  0  0  0
  8 13  1  0  0  0  0
  9 10  2  0  0  0  0
  9 17  1  0  0  0  0
 11 14  1  0  0  0  0
 11 15  1  0  0  0  0
 11 16  1  0  0  0  0
 17 18  1  0  0  0  0
 17 25  1  0  0  0  0
 18 19  1  0  0  0  0
 18 21  1  0  0  0  0
 18 26  1  0  0  0  0
 19 20  2  0  0  0  0
 19 30  1  0  0  0  0
 21 22  1  0  0  0  0
 21 27  1  0  0  0  0
 21 28  1  0  0  0  0
 22 23  2  0  0  0  0
 22 24  1  0  0  0  0
 24 29  1  0  0  0  0
 30 31  1  0  0  0  0
 30 35  1  0  0  0  0
 31 32  1  0  0  0  0
 31 34  1  0  0  0  0
 31 36  1  0  0  0  0
 32 33  2  0  0  0  0
 32 40  1  0  0  0  0
 34 37  1  0  0  0  0
 34 38  1  0  0  0  0
 34 39  1  0  0  0  0
 40 41  1  0  0  0  0
 40 42  1  0  0  0  0
 41 43  1  0  0  0  0
 41 44  1  0  0  0  0
 41 45  1  0  0  0  0
M  END
$$$$

  -OEChem-02062319043D

 45 44  0     1  0  0  0  0  0999 V2000
   -0.7140    4.4705    0.4144 C   0  0  0  0  0  0  0  0  0  0  0  0
    0.4723    4.5675    0.1358 O   0  0  0  0  0  0  0  0  0  0  0  0
   -1.7385    5.3294   -0.3018 C   0  0  0  0  0  0  0  0  0  0  0  0
   -1.2389    6.0166   -0.9905 H   0  0  0  0  0  0  0  0  0  0  0  0
   -2.4221    4.6956   -0.8723 H   0  0  0  0  0  0  0  0  0  0  0  0
   -2.3107    5.9127    0.4236 H   0  0  0  0  0  0  0  0  0  0  0  0
   -1.1244    3.5400    1.3486 N   0  0  0  0  0  0  0  0  0  0  0  0
   -0.2070    2.5074    1.8498 C   0  0  2  0  0  0  0  0  0  0  0  0
    0.1778    1.4986    0.7387 C   0  0  0  0  0  0  0  0  0  0  0  0
   -0.6255    1.1818   -0.1261 O   0  0  0  0  0  0  0  0  0  0  0  0
   -0.8845    1.7869    3.0168 C   0  0  0  0  0  0  0  0  0  0  0  0
   -2.1192    3.3344    1.3593 H   0  0  0  0  0  0  0  0  0  0  0  0
    0.6951    2.9974    2.2247 H   0  0  0  0  0  0  0  0  0  0  0  0
   -1.7966    1.2832    2.6807 H   0  0  0  0  0  0  0  0  0  0  0  0
   -0.2117    1.0372    3.4442 H   0  0  0  0  0  0  0  0  0  0  0  0
   -1.1475    2.5015    3.8032 H   0  0  0  0  0  0  0  0  0  0  0  0
    1.3626    0.7978    0.6658 N   0  0  0  0  0  0  0  0  0  0  0  0
    2.4954    0.8499    1.6039 C   0  0  2  0  0  0  0  0  0  0  0  0
    3.1489    2.2348    1.7689 C   0  0  0  0  0  0  0  0  0  0  0  0
    3.6016    2.5231    2.8672 O   0  0  0  0  0  0  0  0  0  0  0  0
    3.5652   -0.1491    1.1361 C   0  0  0  0  0  0  0  0  0  0  0  0
    3.0225   -1.5683    1.1277 C   0  0  0  0  0  0  0  0  0  0  0  0
    3.0977   -2.2271    2.1473 O   0  0  0  0  0  0  0  0  0  0  0  0
    2.4378   -2.0102   -0.0072 O   0  0  0  0  0  0  0  0  0  0  0  0
    1.3757    0.0965   -0.0757 H   0  0  0  0  0  0  0  0  0  0  0  0
    2.1473    0.5424    2.5975 H   0  0  0  0  0  0  0  0  0  0  0  0
    3.9130    0.1076    0.1317 H   0  0  0  0  0  0  0  0  0  0  0  0
    4.4297   -0.1094    1.8064 H   0  0  0  0  0  0  0  0  0  0  0  0
    2.1553   -2.9187    0.1865 H   0  0  0  0  0  0  0  0  0  0  0  0
    3.4262    3.0183    0.6629 N   0  0  0  0  0  0  0  0  0  0  0  0
    4.2071    4.2732    0.6343 C   0  0  2  0  0  0  0  0  0  0  0  0
    5.7188    4.0778    0.8900 C   0  0  0  0  0  0  0  0  0  0  0  0
    6.5331    4.5194    0.0901 O   0  0  0  0  0  0  0  0  0  0  0  0
    3.6338    5.3335    1.5867 C   0  0  0  0  0  0  0  0  0  0  0  0
    2.9251    2.7686   -0.1876 H   0  0  0  0  0  0  0  0  0  0  0  0
    4.1175    4.6785   -0.3791 H   0  0  0  0  0  0  0  0  0  0  0  0
    3.7867    5.0565    2.6334 H   0  0  0  0  0  0  0  0  0  0  0  0
    4.1282    6.2945    1.4145 H   0  0  0  0  0  0  0  0  0  0  0  0
    2.5626    5.4643    1.4150 H   0  0  0  0  0  0  0  0  0  0  0  0
    6.1703    3.4040    2.0080 N   0  0  0  0  0  0  0  0  0  0  0  0
    7.5758    3.2154    2.3392 C   0  0  0  0  0  0  0  0  0  0  0  0
    5.4497    3.0732    2.6549 H   0  0  0  0  0  0  0  0  0  0  0  0
    7.6708    2.6234    3.2545 H   0  0  0  0  0  0  0  0  0  0  0  0
    8.0932    2.6876    1.5313 H   0  0  0  0  0  0  0  0  0  0  0  0
    8.0641    4.1822    2.4994 H   0  0  0  0  0  0  0  0  0  0  0  0
  1  2  2  0  0  0  0
  1  3  1  0  0  0  0
  1  7  1  0  0  0  0
  3  4  1  0  0  0  0
  3  5  1  0  0  0  0
  3  6  1  0  0  0  0
  7  8  1  0  0  0  0
  7 12  1  0  0  0  0
  8  9  1  0  0  0  0
  8 11  1  0  0  0  0
  8 13  1  0  0  0  0
  9 10  2  0  0  0  0
  9 17  1  0  0  0  0
 11 14  1  0  0  0  0
 11 15  1  0  0  0  0
 11 16  1  0  0  0  0
 17 18  1  0  0  0  0
 17 25  1  0  0  0  0
 18 19  1  0  0  0  0
 18 21  1  0  0  0  0
 18 26  1  0  0  0  0
 19 20  2  0  0  0  0
 19 30  1  0  0  0  0
 21 22  1  0  0  0  0
 21 27  1  0  0  0  0
 21 28  1  0  0  0  0
 22 23  2  0  0  0  0
 22 24  1  0  0  0  0
 24 29  1  0  0  0  0
 30 31  1  0  0  0  0
 30 35  1  0  0  0  0
 31 32  1  0  0  0  0
 31 34  1  0  0  0  0
 31 36  1  0  0  0  0
 32 33  2  0  0  0  0
 32 40  1  0  0  0  0
 34 37  1  0  0  0  0
 34 38  1  0  0  0  0
 34 39  1  0  0  0  0
 40 41  1  0  0  0  0
 40 42  1  0  0  0  0
 41 43  1  0  0  0  0
 41 44  1  0  0  0  0
 41 45  1  0  0  0  0
M  END
$$$$

  -OEChem-02062319043D

 45 44  0     1  0  0  0  0  0999 V2000
   -0.4124    4.4766    0.4696 C   0  0  0  0  0  0  0  0  0  0  0  0
    0.7935    4.3623    0.2972 O   0  0  0  0  0  0  0  0  0  0  0  0
   -1.1991    5.5150   -0.3068 C   0  0  0  0  0  0  0  0  0  0  0  0
   -0.5272    6.1056   -0.9358 H   0  0  0  0  0  0  0  0  0  0  0  0
   -1.9363    5.0224   -0.9456 H   0  0  0  0  0  0  0  0  0  0  0  0
   -1.7148    6.1865    0.3836 H   0  0  0  0  0  0  0  0  0  0  0  0
   -1.0653    3.6299    1.3444 N   0  0  0  0  0  0  0  0  0  0  0  0
   -0.3961    2.4534    1.9166 C   0  0  2  0  0  0  0  0  0  0  0  0
   -0.0221    1.4257    0.8182 C   0  0  0  0  0  0  0  0  0  0  0  0
   -0.8049    1.1809   -0.0878 O   0  0  0  0  0  0  0  0  0  0  0  0
   -1.3284    1.8140    2.9471 C   0  0  0  0  0  0  0  0  0  0  0  0
   -2.0782    3.6074    1.2668 H   0  0  0  0  0  0  0  0  0  0  0  0
    0.5014    2.7903    2.4360 H   0  0  0  0  0  0  0  0  0  0  0  0
   -2.2505    1.4665    2.4698 H   0  0  0  0  0  0  0  0  0  0  0  0
   -0.8388    0.9572    3.4209 H   0  0  0  0  0  0  0  0  0  0  0  0
   -1.5877    2.5376    3.7262 H   0  0  0  0  0  0  0  0  0  0  0  0
    1.1630    0.7276    0.7130 N   0  0  0  0  0  0  0  0  0  0  0  0
    2.2005    0.5575    1.7457 C   0  0  2  0  0  0  0  0  0  0  0  0
    2.8449    1.8573    2.2639 C   0  0  0  0  0  0  0  0  0  0  0  0
    3.1829    1.8959    3.4384 O   0  0  0  0  0  0  0  0  0  0  0  0
    3.3229   -0.3422    1.1849 C   0  0  0  0  0  0  0  0  0  0  0  0
    2.9117   -1.7866    0.9147 C   0  0  0  0  0  0  0  0  0  0  0  0
    1.8197   -2.1879    1.2761 O   0  0  0  0  0  0  0  0  0  0  0  0
    3.8061   -2.5614    0.2672 O   0  0  0  0  0  0  0  0  0  0  0  0
    1.1160    0.0228   -0.0208 H   0  0  0  0  0  0  0  0  0  0  0  0
    1.7519    0.0623    2.6156 H   0  0  0  0  0  0  0  0  0  0  0  0
    3.7069    0.0882    0.2560 H   0  0  0  0  0  0  0  0  0  0  0  0
    4.1507   -0.3727    1.8997 H   0  0  0  0  0  0  0  0  0  0  0  0
    3.3846   -3.4314    0.1872 H   0  0  0  0  0  0  0  0  0  0  0  0
    3.2372    2.8521    1.3863 N   0  0  0  0  0  0  0  0  0  0  0  0
    3.9462    4.1052    1.7249 C   0  0  2  0  0  0  0  0  0  0  0  0
    5.4225    3.9212    2.1444 C   0  0  0  0  0  0  0  0  0  0  0  0
    6.2801    4.6628    1.6831 O   0  0  0  0  0  0  0  0  0  0  0  0
    3.1891    4.9248    2.7805 C   0  0  0  0  0  0  0  0  0  0  0  0
    2.7596    2.8385    0.4843 H   0  0  0  0  0  0  0  0  0  0  0  0
    3.9654    4.7075    0.8104 H   0  0  0  0  0  0  0  0  0  0  0  0
    3.2262    4.4425    3.7612 H   0  0  0  0  0  0  0  0  0  0  0  0
    3.6397    5.9181    2.8728 H   0  0  0  0  0  0  0  0  0  0  0  0
    2.1418    5.0489    2.4922 H   0  0  0  0  0  0  0  0  0  0  0  0
    5.7920    2.9537    3.0581 N   0  0  0  0  0  0  0  0  0  0  0  0
    7.1411    2.8079    3.5865 C   0  0  0  0  0  0  0  0  0  0  0  0
    5.0238    2.4362    3.4923 H   0  0  0  0  0  0  0  0  0  0  0  0
    7.1999    1.9263    4.2316 H   0  0  0  0  0  0  0  0  0  0  0  0
    7.8619    2.6866    2.7713 H   0  0  0  0  0  0  0  0  0  0  0  0
    7.4183    3.6890    4.1742 H   0  0  0  0  0  0  0  0  0  0  0  0
  1  2  2  0  0  0  0
  1  3  1  0  0  0  0
  1  7  1  0  0  0  0
  3  4  1  0  0  0  0
  3  5  1  0  0  0  0
  3  6  1  0  0  0  0
  7  8  1  0  0  0  0
  7 12  1  0  0  0  0
  8  9  1  0  0  0  0
  8 11  1  0  0  0  0
  8 13  1  0  0  0  0
  9 10  2  0  0  0  0
  9 17  1  0  0  0  0
 11 14  1  0  0  0  0
 11 15  1  0  0  0  0
 11 16  1  0  0  0  0
 17 18  1  0  0  0  0
 17 25  1  0  0  0  0
 18 19  1  0  0  0  0
 18 21  1  0  0  0  0
 18 26  1  0  0  0  0
 19 20  2  0  0  0  0
 19 30  1  0  0  0  0
 21 22  1  0  0  0  0
 21 27  1  0  0  0  0
 21 28  1  0  0  0  0
 22 23  2  0  0  0  0
 22 24  1  0  0  0  0
 24 29  1  0  0  0  0
 30 31  1  0  0  0  0
 30 35  1  0  0  0  0
 31 32  1  0  0  0  0
 31 34  1  0  0  0  0
 31 36  1  0  0  0  0
 32 33  2  0  0  0  0
 32 40  1  0  0  0  0
 34 37  1  0  0  0  0
 34 38  1  0  0  0  0
 34 39  1  0  0  0  0
 40 41  1  0  0  0  0
 40 42  1  0  0  0  0
 41 43  1  0  0  0  0
 41 44  1  0  0  0  0
 41 45  1  0  0  0  0
M  END
$$$$

  -OEChem-02062319043D

 45 44  0     1  0  0  0  0  0999 V2000
   -0.1867    4.4010    0.5993 C   0  0  0  0  0  0  0  0  0  0  0  0
    1.0147    4.1708    0.5883 O   0  0  0  0  0  0  0  0  0  0  0  0
   -0.7480    5.5513   -0.2134 C   0  0  0  0  0  0  0  0  0  0  0  0
    0.0641    6.1019   -0.6967 H   0  0  0  0  0  0  0  0  0  0  0  0
   -1.4217    5.1695   -0.9845 H   0  0  0  0  0  0  0  0  0  0  0  0
   -1.2984    6.2355    0.4369 H   0  0  0  0  0  0  0  0  0  0  0  0
   -1.0354    3.5913    1.3284 N   0  0  0  0  0  0  0  0  0  0  0  0
   -0.5770    2.3274    1.9221 C   0  0  2  0  0  0  0  0  0  0  0  0
   -0.1811    1.3038    0.8273 C   0  0  0  0  0  0  0  0  0  0  0  0
   -0.9274    1.1198   -0.1227 O   0  0  0  0  0  0  0  0  0  0  0  0
   -1.7019    1.7660    2.7940 C   0  0  0  0  0  0  0  0  0  0  0  0
   -2.0254    3.6820    1.1171 H   0  0  0  0  0  0  0  0  0  0  0  0
    0.2717    2.5378    2.5712 H   0  0  0  0  0  0  0  0  0  0  0  0
   -2.5889    1.5511    2.1890 H   0  0  0  0  0  0  0  0  0  0  0  0
   -1.3795    0.8388    3.2783 H   0  0  0  0  0  0  0  0  0  0  0  0
   -1.9747    2.4850    3.5727 H   0  0  0  0  0  0  0  0  0  0  0  0
    1.0292    0.6526    0.6965 N   0  0  0  0  0  0  0  0  0  0  0  0
    1.9597    0.2745    1.7764 C   0  0  2  0  0  0  0  0  0  0  0  0
    2.5176    1.4274    2.6332 C   0  0  0  0  0  0  0  0  0  0  0  0
    2.6954    1.2202    3.8252 O   0  0  0  0  0  0  0  0  0  0  0  0
    3.1620   -0.4750    1.1596 C   0  0  0  0  0  0  0  0  0  0  0  0
    2.8375   -1.8466    0.5738 C   0  0  0  0  0  0  0  0  0  0  0  0
    1.6779   -2.1979    0.4468 O   0  0  0  0  0  0  0  0  0  0  0  0
    3.8853   -2.6162    0.2137 O   0  0  0  0  0  0  0  0  0  0  0  0
    1.0010    0.0177   -0.1016 H   0  0  0  0  0  0  0  0  0  0  0  0
    1.4370   -0.4022    2.4632 H   0  0  0  0  0  0  0  0  0  0  0  0
    3.6142    0.1377    0.3750 H   0  0  0  0  0  0  0  0  0  0  0  0
    3.9207   -0.6302    1.9330 H   0  0  0  0  0  0  0  0  0  0  0  0
    3.4971   -3.4363   -0.1295 H   0  0  0  0  0  0  0  0  0  0  0  0
    2.9783    2.5920    2.0447 N   0  0  0  0  0  0  0  0  0  0  0  0
    3.5690    3.7597    2.7320 C   0  0  2  0  0  0  0  0  0  0  0  0
    4.9720    3.5262    3.3376 C   0  0  0  0  0  0  0  0  0  0  0  0
    5.8554    4.3528    3.1512 O   0  0  0  0  0  0  0  0  0  0  0  0
    2.6111    4.3356    3.7847 C   0  0  0  0  0  0  0  0  0  0  0  0
    2.5967    2.7783    1.1136 H   0  0  0  0  0  0  0  0  0  0  0  0
    3.7007    4.5330    1.9678 H   0  0  0  0  0  0  0  0  0  0  0  0
    2.4911    3.6526    4.6303 H   0  0  0  0  0  0  0  0  0  0  0  0
    3.0033    5.2835    4.1660 H   0  0  0  0  0  0  0  0  0  0  0  0
    1.6283    4.5235    3.3433 H   0  0  0  0  0  0  0  0  0  0  0  0
    5.2461    2.4175    4.1135 N   0  0  0  0  0  0  0  0  0  0  0  0
    6.5207    2.1814    4.7763 C   0  0  0  0  0  0  0  0  0  0  0  0
    4.4571    1.7939    4.3000 H   0  0  0  0  0  0  0  0  0  0  0  0
    6.4930    1.2311    5.3177 H   0  0  0  0  0  0  0  0  0  0  0  0
    7.3320    2.1379    4.0422 H   0  0  0  0  0  0  0  0  0  0  0  0
    6.7344    2.9823    5.4917 H   0  0  0  0  0  0  0  0  0  0  0  0
  1  2  2  0  0  0  0
  1  3  1  0  0  0  0
  1  7  1  0  0  0  0
  3  4  1  0  0  0  0
  3  5  1  0  0  0  0
  3  6  1  0  0  0  0
  7  8  1  0  0  0  0
  7 12  1  0  0  0  0
  8  9  1  0  0  0  0
  8 11  1  0  0  0  0
  8 13  1  0  0  0  0
  9 10  2  0  0  0  0
  9 17  1  0  0  0  0
 11 14  1  0  0  0  0
 11 15  1  0  0  0  0
 11 16  1  0  0  0  0
 17 18  1  0  0  0  0
 17 25  1  0  0  0  0
 18 19  1  0  0  0  0
 18 21  1  0  0  0  0
 18 26  1  0  0  0  0
 19 20  2  0  0  0  0
 19 30  1  0  0  0  0
 21 22  1  0  0  0  0
 21 27  1  0  0  0  0
 21 28  1  0  0  0  0
 22 23  2  0  0  0  0
 22 24  1  0  0  0  0
 24 29  1  0  0  0  0
 30 31  1  0  0  0  0
 30 35  1  0  0  0  0
 31 32  1  0  0  0  0
 31 34  1  0  0  0  0
 31 36  1  0  0  0  0
 32 33  2  0  0  0  0
 32 40  1  0  0  0  0
 34 37  1  0  0  0  0
 34 38  1  0  0  0  0
 34 39  1  0  0  0  0
 40 41  1  0  0  0  0
 40 42  1  0  0  0  0
 41 43  1  0  0  0  0
 41 44  1  0  0  0  0
 41 45  1  0  0  0  0
M  END
$$$$

  -OEChem-02062319043D

 45 44  0     1  0  0  0  0  0999 V2000
   -0.0201    4.3181    0.7267 C   0  0  0  0  0  0  0  0  0  0  0  0
    1.1483    4.0005    0.9010 O   0  0  0  0  0  0  0  0  0  0  0  0
   -0.3616    5.5384   -0.1059 C   0  0  0  0  0  0  0  0  0  0  0  0
    0.5530    6.0542   -0.4114 H   0  0  0  0  0  0  0  0  0  0  0  0
   -0.9113    5.2367   -1.0010 H   0  0  0  0  0  0  0  0  0  0  0  0
   -0.9768    6.2287    0.4763 H   0  0  0  0  0  0  0  0  0  0  0  0
   -1.0303    3.5431    1.2603 N   0  0  0  0  0  0  0  0  0  0  0  0
   -0.7686    2.2251    1.8549 C   0  0  2  0  0  0  0  0  0  0  0  0
   -0.3391    1.1965    0.7785 C   0  0  0  0  0  0  0  0  0  0  0  0
   -1.0275    1.0649   -0.2222 O   0  0  0  0  0  0  0  0  0  0  0  0
   -2.0399    1.7566    2.5653 C   0  0  0  0  0  0  0  0  0  0  0  0
   -1.9629    3.7173    0.8958 H   0  0  0  0  0  0  0  0  0  0  0  0
    0.0066    2.3282    2.6105 H   0  0  0  0  0  0  0  0  0  0  0  0
   -2.8672    1.6596    1.8547 H   0  0  0  0  0  0  0  0  0  0  0  0
   -1.8731    0.7835    3.0381 H   0  0  0  0  0  0  0  0  0  0  0  0
   -2.3273    2.4725    3.3416 H   0  0  0  0  0  0  0  0  0  0  0  0
    0.8982    0.5955    0.6558 N   0  0  0  0  0  0  0  0  0  0  0  0
    1.6952    0.0148    1.7531 C   0  0  2  0  0  0  0  0  0  0  0  0
    2.1099    0.9681    2.8902 C   0  0  0  0  0  0  0  0  0  0  0  0
    2.1146    0.5339    4.0329 O   0  0  0  0  0  0  0  0  0  0  0  0
    2.9851   -0.5947    1.1596 C   0  0  0  0  0  0  0  0  0  0  0  0
    2.7720   -1.8242    0.2804 C   0  0  0  0  0  0  0  0  0  0  0  0
    1.6519   -2.1140   -0.1012 O   0  0  0  0  0  0  0  0  0  0  0  0
    3.8687   -2.5416   -0.0393 O   0  0  0  0  0  0  0  0  0  0  0  0
    0.9270    0.0606   -0.2134 H   0  0  0  0  0  0  0  0  0  0  0  0
    1.1091   -0.7872    2.2185 H   0  0  0  0  0  0  0  0  0  0  0  0
    3.5147    0.1616    0.5738 H   0  0  0  0  0  0  0  0  0  0  0  0
    3.6452   -0.8976    1.9781 H   0  0  0  0  0  0  0  0  0  0  0  0
    3.5479   -3.2713   -0.5922 H   0  0  0  0  0  0  0  0  0  0  0  0
    2.6121    2.2284    2.6146 N   0  0  0  0  0  0  0  0  0  0  0  0
    3.0723    3.2399    3.5895 C   0  0  2  0  0  0  0  0  0  0  0  0
    4.3724    2.8867    4.3479 C   0  0  0  0  0  0  0  0  0  0  0  0
    5.2250    3.7490    4.5148 O   0  0  0  0  0  0  0  0  0  0  0  0
    1.9561    3.6202    4.5719 C   0  0  0  0  0  0  0  0  0  0  0  0
    2.3945    2.5853    1.6785 H   0  0  0  0  0  0  0  0  0  0  0  0
    3.3049    4.1407    3.0115 H   0  0  0  0  0  0  0  0  0  0  0  0
    1.6992    2.7819    5.2254 H   0  0  0  0  0  0  0  0  0  0  0  0
    2.2808    4.4549    5.2011 H   0  0  0  0  0  0  0  0  0  0  0  0
    1.0599    3.9305    4.0272 H   0  0  0  0  0  0  0  0  0  0  0  0
    4.5828    1.6278    4.8748 N   0  0  0  0  0  0  0  0  0  0  0  0
    5.7410    1.2658    5.6796 C   0  0  0  0  0  0  0  0  0  0  0  0
    3.7964    0.9775    4.8062 H   0  0  0  0  0  0  0  0  0  0  0  0
    5.7043    0.2027    5.9358 H   0  0  0  0  0  0  0  0  0  0  0  0
    6.6667    1.4556    5.1265 H   0  0  0  0  0  0  0  0  0  0  0  0
    5.7590    1.8468    6.6073 H   0  0  0  0  0  0  0  0  0  0  0  0
  1  2  2  0  0  0  0
  1  3  1  0  0  0  0
  1  7  1  0  0  0  0
  3  4  1  0  0  0  0
  3  5  1  0  0  0  0
  3  6  1  0  0  0  0
  7  8  1  0  0  0  0
  7 12  1  0  0  0  0
  8  9  1  0  0  0  0
  8 11  1  0  0  0  0
  8 13  1  0  0  0  0
  9 10  2  0  0  0  0
  9 17  1  0  0  0  0
 11 14  1  0  0  0  0
 11 15  1  0  0  0  0
 11 16  1  0  0  0  0
 17 18  1  0  0  0  0
 17 25  1  0  0  0  0
 18 19  1  0  0  0  0
 18 21  1  0  0  0  0
 18 26  1  0  0  0  0
 19 20  2  0  0  0  0
 19 30  1  0  0  0  0
 21 22  1  0  0  0  0
 21 27  1  0  0  0  0
 21 28  1  0  0  0  0
 22 23  2  0  0  0  0
 22 24  1  0  0  0  0
 24 29  1  0  0  0  0
 30 31  1  0  0  0  0
 30 35  1  0  0  0  0
 31 32  1  0  0  0  0
 31 34  1  0  0  0  0
 31 36  1  0  0  0  0
 32 33  2  0  0  0  0
 32 40  1  0  0  0  0
 34 37  1  0  0  0  0
 34 38  1  0  0  0  0
 34 39  1  0  0  0  0
 40 41  1  0  0  0  0
 40 42  1  0  0  0  0
 41 43  1  0  0  0  0
 41 44  1  0  0  0  0
 41 45  1  0  0  0  0
M  END
$$$$

  -OEChem-02062319043D

 45 44  0     1  0  0  0  0  0999 V2000
    0.1311    4.2105    0.8793 C   0  0  0  0  0  0  0  0  0  0  0  0
    1.2194    3.7860    1.2414 O   0  0  0  0  0  0  0  0  0  0  0  0
    0.0387    5.5091    0.1012 C   0  0  0  0  0  0  0  0  0  0  0  0
    1.0361    5.9317   -0.0493 H   0  0  0  0  0  0  0  0  0  0  0  0
   -0.4169    5.3273   -0.8754 H   0  0  0  0  0  0  0  0  0  0  0  0
   -0.5697    6.2312    0.6512 H   0  0  0  0  0  0  0  0  0  0  0  0
   -1.0143    3.4930    1.1582 N   0  0  0  0  0  0  0  0  0  0  0  0
   -0.9830    2.1348    1.7181 C   0  0  2  0  0  0  0  0  0  0  0  0
   -0.5149    1.0975    0.6678 C   0  0  0  0  0  0  0  0  0  0  0  0
   -1.1447    0.9972   -0.3742 O   0  0  0  0  0  0  0  0  0  0  0  0
   -2.3899    1.7994    2.2200 C   0  0  0  0  0  0  0  0  0  0  0  0
   -1.8523    3.7753    0.6566 H   0  0  0  0  0  0  0  0  0  0  0  0
   -0.3213    2.1153    2.5806 H   0  0  0  0  0  0  0  0  0  0  0  0
   -2.4051    0.7995    2.6647 H   0  0  0  0  0  0  0  0  0  0  0  0
   -3.1113    1.8233    1.3967 H   0  0  0  0  0  0  0  0  0  0  0  0
   -2.7042    2.5206    2.9807 H   0  0  0  0  0  0  0  0  0  0  0  0
    0.7510    0.5555    0.5683 N   0  0  0  0  0  0  0  0  0  0  0  0
    1.4132   -0.2216    1.6337 C   0  0  2  0  0  0  0  0  0  0  0  0
    1.6455    0.4862    2.9834 C   0  0  0  0  0  0  0  0  0  0  0  0
    1.4965   -0.1613    4.0095 O   0  0  0  0  0  0  0  0  0  0  0  0
    2.7897   -0.6907    1.1117 C   0  0  0  0  0  0  0  0  0  0  0  0
    2.7372   -1.7298   -0.0054 C   0  0  0  0  0  0  0  0  0  0  0  0
    1.6931   -1.9364   -0.5987 O   0  0  0  0  0  0  0  0  0  0  0  0
    3.8861   -2.3790   -0.2857 O   0  0  0  0  0  0  0  0  0  0  0  0
    0.8514    0.1358   -0.3576 H   0  0  0  0  0  0  0  0  0  0  0  0
    0.7984   -1.1042    1.8495 H   0  0  0  0  0  0  0  0  0  0  0  0
    3.3608    0.1707    0.7550 H   0  0  0  0  0  0  0  0  0  0  0  0
    3.3515   -1.1380    1.9375 H   0  0  0  0  0  0  0  0  0  0  0  0
    3.6685   -2.9874   -1.0092 H   0  0  0  0  0  0  0  0  0  0  0  0
    2.1429    1.7774    3.0353 N   0  0  0  0  0  0  0  0  0  0  0  0
    2.4653    2.5715    4.2396 C   0  0  2  0  0  0  0  0  0  0  0  0
    3.6684    2.0584    5.0642 C   0  0  0  0  0  0  0  0  0  0  0  0
    4.5238    2.8493    5.4400 O   0  0  0  0  0  0  0  0  0  0  0  0
    1.2340    2.7579    5.1365 C   0  0  0  0  0  0  0  0  0  0  0  0
    2.1049    2.2987    2.1521 H   0  0  0  0  0  0  0  0  0  0  0  0
    2.7529    3.5672    3.8848 H   0  0  0  0  0  0  0  0  0  0  0  0
    0.9129    1.8079    5.5731 H   0  0  0  0  0  0  0  0  0  0  0  0
    1.4694    3.4463    5.9545 H   0  0  0  0  0  0  0  0  0  0  0  0
    0.4048    3.1798    4.5618 H   0  0  0  0  0  0  0  0  0  0  0  0
    3.7851    0.7285    5.4167 N   0  0  0  0  0  0  0  0  0  0  0  0
    4.8628    0.1921    6.2356 C   0  0  0  0  0  0  0  0  0  0  0  0
    3.0134    0.1188    5.1351 H   0  0  0  0  0  0  0  0  0  0  0  0
    4.7301   -0.8851    6.3738 H   0  0  0  0  0  0  0  0  0  0  0  0
    5.8307    0.3626    5.7529 H   0  0  0  0  0  0  0  0  0  0  0  0
    4.8696    0.6699    7.2207 H   0  0  0  0  0  0  0  0  0  0  0  0
  1  2  2  0  0  0  0
  1  3  1  0  0  0  0
  1  7  1  0  0  0  0
  3  4  1  0  0  0  0
  3  5  1  0  0  0  0
  3  6  1  0  0  0  0
  7  8  1  0  0  0  0
  7 12  1  0  0  0  0
  8  9  1  0  0  0  0
  8 11  1  0  0  0  0
  8 13  1  0  0  0  0
  9 10  2  0  0  0  0
  9 17  1  0  0  0  0
 11 14  1  0  0  0  0
 11 15  1  0  0  0  0
 11 16  1  0  0  0  0
 17 18  1  0  0  0  0
 17 25  1  0  0  0  0
 18 19  1  0  0  0  0
 18 21  1  0  0  0  0
 18 26  1  0  0  0  0
 19 20  2  0  0  0  0
 19 30  1  0  0  0  0
 21 22  1  0  0  0  0
 21 27  1  0  0  0  0
 21 28  1  0  0  0  0
 22 23  2  0  0  0  0
 22 24  1  0  0  0  0
 24 29  1  0  0  0  0
 30 31  1  0  0  0  0
 30 35  1  0  0  0  0
 31 32  1  0  0  0  0
 31 34  1  0  0  0  0
 31 36  1  0  0  0  0
 32 33  2  0  0  0  0
 32 40  1  0  0  0  0
 34 37  1  0  0  0  0
 34 38  1  0  0  0  0
 34 39  1  0  0  0  0
 40 41  1  0  0  0  0
 40 42  1  0  0  0  0
 41 43  1  0  0  0  0
 41 44  1  0  0  0  0
 41 45  1  0  0  0  0
M  END
$$$$

  -OEChem-02062319043D

 45 44  0     1  0  0  0  0  0999 V2000
    0.1525    4.0371    1.0557 C   0  0  0  0  0  0  0  0  0  0  0  0
    1.1294    3.5381    1.5961 O   0  0  0  0  0  0  0  0  0  0  0  0
    0.2790    5.3559    0.3172 C   0  0  0  0  0  0  0  0  0  0  0  0
    1.3002    5.7386    0.4000 H   0  0  0  0  0  0  0  0  0  0  0  0
    0.0403    5.2164   -0.7401 H   0  0  0  0  0  0  0  0  0  0  0  0
   -0.4073    6.0909    0.7449 H   0  0  0  0  0  0  0  0  0  0  0  0
   -1.0619    3.3832    1.0908 N   0  0  0  0  0  0  0  0  0  0  0  0
   -1.2205    2.0133    1.5984 C   0  0  2  0  0  0  0  0  0  0  0  0
   -0.7278    0.9700    0.5662 C   0  0  0  0  0  0  0  0  0  0  0  0
   -1.3349    0.8612   -0.4878 O   0  0  0  0  0  0  0  0  0  0  0  0
   -2.7006    1.8081    1.9344 C   0  0  0  0  0  0  0  0  0  0  0  0
   -1.7821    3.7385    0.4671 H   0  0  0  0  0  0  0  0  0  0  0  0
   -0.6651    1.8969    2.5266 H   0  0  0  0  0  0  0  0  0  0  0  0
   -3.0228    2.5338    2.6875 H   0  0  0  0  0  0  0  0  0  0  0  0
   -2.8624    0.8017    2.3332 H   0  0  0  0  0  0  0  0  0  0  0  0
   -3.3233    1.9317    1.0422 H   0  0  0  0  0  0  0  0  0  0  0  0
    0.5720    0.5188    0.4663 N   0  0  0  0  0  0  0  0  0  0  0  0
    1.1566   -0.4306    1.4312 C   0  0  2  0  0  0  0  0  0  0  0  0
    1.2128    0.0119    2.9072 C   0  0  0  0  0  0  0  0  0  0  0  0
    0.9756   -0.8206    3.7705 O   0  0  0  0  0  0  0  0  0  0  0  0
    2.6033   -0.7437    0.9874 C   0  0  0  0  0  0  0  0  0  0  0  0
    2.7270   -1.5149   -0.3243 C   0  0  0  0  0  0  0  0  0  0  0  0
    1.7580   -1.6416   -1.0521 O   0  0  0  0  0  0  0  0  0  0  0  0
    3.9417   -2.0238   -0.6175 O   0  0  0  0  0  0  0  0  0  0  0  0
    0.7299    0.2287   -0.5009 H   0  0  0  0  0  0  0  0  0  0  0  0
    0.5691   -1.3568    1.4052 H   0  0  0  0  0  0  0  0  0  0  0  0
    3.1672    0.1884    0.8920 H   0  0  0  0  0  0  0  0  0  0  0  0
    3.0914   -1.3457    1.7599 H   0  0  0  0  0  0  0  0  0  0  0  0
    3.8349   -2.4702   -1.4720 H   0  0  0  0  0  0  0  0  0  0  0  0
    1.6393    1.2810    3.2586 N   0  0  0  0  0  0  0  0  0  0  0  0
    1.8086    1.8320    4.6193 C   0  0  2  0  0  0  0  0  0  0  0  0
    2.9431    1.1901    5.4513 C   0  0  0  0  0  0  0  0  0  0  0  0
    3.7357    1.9082    6.0467 O   0  0  0  0  0  0  0  0  0  0  0  0
    0.4888    1.8138    5.4026 C   0  0  0  0  0  0  0  0  0  0  0  0
    1.7263    1.9501    2.4847 H   0  0  0  0  0  0  0  0  0  0  0  0
    2.0905    2.8830    4.4946 H   0  0  0  0  0  0  0  0  0  0  0  0
    0.1670    0.7905    5.6162 H   0  0  0  0  0  0  0  0  0  0  0  0
   -0.2985    2.3190    4.8366 H   0  0  0  0  0  0  0  0  0  0  0  0
    0.6151    2.3363    6.3561 H   0  0  0  0  0  0  0  0  0  0  0  0
    3.0627   -0.1806    5.5687 N   0  0  0  0  0  0  0  0  0  0  0  0
    4.0684   -0.8474    6.3834 C   0  0  0  0  0  0  0  0  0  0  0  0
    2.3429   -0.7367    5.1006 H   0  0  0  0  0  0  0  0  0  0  0  0
    3.9732   -0.5464    7.4318 H   0  0  0  0  0  0  0  0  0  0  0  0
    3.9439   -1.9329    6.3222 H   0  0  0  0  0  0  0  0  0  0  0  0
    5.0742   -0.5936    6.0329 H   0  0  0  0  0  0  0  0  0  0  0  0
  1  2  2  0  0  0  0
  1  3  1  0  0  0  0
  1  7  1  0  0  0  0
  3  4  1  0  0  0  0
  3  5  1  0  0  0  0
  3  6  1  0  0  0  0
  7  8  1  0  0  0  0
  7 12  1  0  0  0  0
  8  9  1  0  0  0  0
  8 11  1  0  0  0  0
  8 13  1  0  0  0  0
  9 10  2  0  0  0  0
  9 17  1  0  0  0  0
 11 14  1  0  0  0  0
 11 15  1  0  0  0  0
 11 16  1  0  0  0  0
 17 18  1  0  0  0  0
 17 25  1  0  0  0  0
 18 19  1  0  0  0  0
 18 21  1  0  0  0  0
 18 26  1  0  0  0  0
 19 20  2  0  0  0  0
 19 30  1  0  0  0  0
 21 22  1  0  0  0  0
 21 27  1  0  0  0  0
 21 28  1  0  0  0  0
 22 23  2  0  0  0  0
 22 24  1  0  0  0  0
 24 29  1  0  0  0  0
 30 31  1  0  0  0  0
 30 35  1  0  0  0  0
 31 32  1  0  0  0  0
 31 34  1  0  0  0  0
 31 36  1  0  0  0  0
 32 33  2  0  0  0  0
 32 40  1  0  0  0  0
 34 37  1  0  0  0  0
 34 38  1  0  0  0  0
 34 39  1  0  0  0  0
 40 41  1  0  0  0  0
 40 42  1  0  0  0  0
 41 43  1  0  0  0  0
 41 44  1  0  0  0  0
 41 45  1  0  0  0  0
M  END
$$$$

  -OEChem-02062319043D

 45 44  0     1  0  0  0  0  0999 V2000
    0.4358    3.5170    1.3647 C   0  0  0  0  0  0  0  0  0  0  0  0
    1.0108    3.1553    0.3545 O   0  0  0  0  0  0  0  0  0  0  0  0
    0.9861    4.6740    2.1762 C   0  0  0  0  0  0  0  0  0  0  0  0
    1.3262    4.3226    3.1535 H   0  0  0  0  0  0  0  0  0  0  0  0
    1.8312    5.1320    1.6540 H   0  0  0  0  0  0  0  0  0  0  0  0
    0.2121    5.4323    2.3190 H   0  0  0  0  0  0  0  0  0  0  0  0
   -0.6330    2.7872    1.8464 N   0  0  0  0  0  0  0  0  0  0  0  0
   -1.4958    1.8780    1.0574 C   0  0  2  0  0  0  0  0  0  0  0  0
   -0.8629    0.7974    0.1331 C   0  0  0  0  0  0  0  0  0  0  0  0
   -1.6258   -0.0759   -0.2517 O   0  0  0  0  0  0  0  0  0  0  0  0
   -2.4267    2.7680    0.2225 C   0  0  0  0  0  0  0  0  0  0  0  0
   -1.0461    3.1607    2.6973 H   0  0  0  0  0  0  0  0  0  0  0  0
   -2.1067    1.3161    1.7721 H   0  0  0  0  0  0  0  0  0  0  0  0
   -3.1821    2.1593   -0.2855 H   0  0  0  0  0  0  0  0  0  0  0  0
   -2.9445    3.4905    0.8607 H   0  0  0  0  0  0  0  0  0  0  0  0
   -1.8583    3.3148   -0.5371 H   0  0  0  0  0  0  0  0  0  0  0  0
    0.4666    0.4143    0.1579 N   0  0  0  0  0  0  0  0  0  0  0  0
    0.9160   -0.6961    1.0214 C   0  0  2  0  0  0  0  0  0  0  0  0
    0.6847   -0.5161    2.5324 C   0  0  0  0  0  0  0  0  0  0  0  0
    0.3642   -1.4752    3.2178 O   0  0  0  0  0  0  0  0  0  0  0  0
    2.4129   -0.9398    0.7690 C   0  0  0  0  0  0  0  0  0  0  0  0
    2.6750   -1.3896   -0.6598 C   0  0  0  0  0  0  0  0  0  0  0  0
    2.4255   -2.5428   -0.9586 O   0  0  0  0  0  0  0  0  0  0  0  0
    3.1880   -0.4891   -1.5258 O   0  0  0  0  0  0  0  0  0  0  0  0
    1.0759    1.2362    0.1633 H   0  0  0  0  0  0  0  0  0  0  0  0
    0.3636   -1.5999    0.7306 H   0  0  0  0  0  0  0  0  0  0  0  0
    2.9864   -0.0312    0.9684 H   0  0  0  0  0  0  0  0  0  0  0  0
    2.7793   -1.7204    1.4426 H   0  0  0  0  0  0  0  0  0  0  0  0
    3.2464   -0.9596   -2.3718 H   0  0  0  0  0  0  0  0  0  0  0  0
    0.9945    0.6897    3.1357 N   0  0  0  0  0  0  0  0  0  0  0  0
    0.8979    1.0263    4.5707 C   0  0  2  0  0  0  0  0  0  0  0  0
    1.9249    0.3044    5.4719 C   0  0  0  0  0  0  0  0  0  0  0  0
    2.6407    0.9715    6.2066 O   0  0  0  0  0  0  0  0  0  0  0  0
   -0.5311    0.8242    5.0955 C   0  0  0  0  0  0  0  0  0  0  0  0
    1.2993    1.4212    2.4996 H   0  0  0  0  0  0  0  0  0  0  0  0
    1.1211    2.0940    4.6625 H   0  0  0  0  0  0  0  0  0  0  0  0
   -0.7914   -0.2374    5.1406 H   0  0  0  0  0  0  0  0  0  0  0  0
   -1.2524    1.3309    4.4484 H   0  0  0  0  0  0  0  0  0  0  0  0
   -0.6205    1.2376    6.1051 H   0  0  0  0  0  0  0  0  0  0  0  0
    2.0552   -1.0694    5.4570 N   0  0  0  0  0  0  0  0  0  0  0  0
    3.0102   -1.8106    6.2684 C   0  0  0  0  0  0  0  0  0  0  0  0
    1.4471   -1.5753    4.8066 H   0  0  0  0  0  0  0  0  0  0  0  0
    2.8892   -2.8858    6.1039 H   0  0  0  0  0  0  0  0  0  0  0  0
    4.0355   -1.5324    6.0039 H   0  0  0  0  0  0  0  0  0  0  0  0
    2.8510   -1.6046    7.3318 H   0  0  0  0  0  0  0  0  0  0  0  0
  1  2  2  0  0  0  0
  1  3  1  0  0  0  0
  1  7  1  0  0  0  0
  3  4  1  0  0  0  0
  3  5  1  0  0  0  0
  3  6  1  0  0  0  0
  7  8  1  0  0  0  0
  7 12  1  0  0  0  0
  8  9  1  0  0  0  0
  8 11  1  0  0  0  0
  8 13  1  0  0  0  0
  9 10  2  0  0  0  0
  9 17  1  0  0  0  0
 11 14  1  0  0  0  0
 11 15  1  0  0  0  0
 11 16  1  0  0  0  0
 17 18  1  0  0  0  0
 17 25  1  0  0  0  0
 18 19  1  0  0  0  0
 18 21  1  0  0  0  0
 18 26  1  0  0  0  0
 19 20  2  0  0  0  0
 19 30  1  0  0  0  0
 21 22  1  0  0  0  0
 21 27  1  0  0  0  0
 21 28  1  0  0  0  0
 22 23  2  0  0  0  0
 22 24  1  0  0  0  0
 24 29  1  0  0  0  0
 30 31  1  0  0  0  0
 30 35  1  0  0  0  0
 31 32  1  0  0  0  0
 31 34  1  0  0  0  0
 31 36  1  0  0  0  0
 32 33  2  0  0  0  0
 32 40  1  0  0  0  0
 34 37  1  0  0  0  0
 34 38  1  0  0  0  0
 34 39  1  0  0  0  0
 40 41  1  0  0  0  0
 40 42  1  0  0  0  0
 41 43  1  0  0  0  0
 41 44  1  0  0  0  0
 41 45  1  0  0  0  0
M  END
$$$$

  -OEChem-02062319043D

 45 44  0     1  0  0  0  0  0999 V2000
    0.6664    3.5719    1.3557 C   0  0  0  0  0  0  0  0  0  0  0  0
    1.3030    2.6158    1.7764 O   0  0  0  0  0  0  0  0  0  0  0  0
    1.3277    4.9268    1.1919 C   0  0  0  0  0  0  0  0  0  0  0  0
    2.3884    4.8631    1.4514 H   0  0  0  0  0  0  0  0  0  0  0  0
    1.2409    5.2644    0.1561 H   0  0  0  0  0  0  0  0  0  0  0  0
    0.8487    5.6585    1.8476 H   0  0  0  0  0  0  0  0  0  0  0  0
   -0.6488    3.3881    0.9812 N   0  0  0  0  0  0  0  0  0  0  0  0
   -1.4151    2.1478    1.1962 C   0  0  2  0  0  0  0  0  0  0  0  0
   -1.0652    1.0316    0.1764 C   0  0  0  0  0  0  0  0  0  0  0  0
   -1.9424    0.2820   -0.2261 O   0  0  0  0  0  0  0  0  0  0  0  0
   -2.9005    2.5316    1.1655 C   0  0  0  0  0  0  0  0  0  0  0  0
   -1.1436    4.2013    0.6226 H   0  0  0  0  0  0  0  0  0  0  0  0
   -1.2004    1.7582    2.1948 H   0  0  0  0  0  0  0  0  0  0  0  0
   -3.5230    1.6654    1.4133 H   0  0  0  0  0  0  0  0  0  0  0  0
   -3.1863    2.8880    0.1707 H   0  0  0  0  0  0  0  0  0  0  0  0
   -3.1084    3.3200    1.8952 H   0  0  0  0  0  0  0  0  0  0  0  0
    0.2338    0.5617    0.0984 N   0  0  0  0  0  0  0  0  0  0  0  0
    0.5654   -0.7603    0.6613 C   0  0  2  0  0  0  0  0  0  0  0  0
    0.2952   -0.8993    2.1733 C   0  0  0  0  0  0  0  0  0  0  0  0
   -0.1432   -1.9541    2.6079 O   0  0  0  0  0  0  0  0  0  0  0  0
    2.0492   -1.0524    0.3864 C   0  0  0  0  0  0  0  0  0  0  0  0
    2.3398   -1.1243   -1.1045 C   0  0  0  0  0  0  0  0  0  0  0  0
    2.1013   -2.1636   -1.6910 O   0  0  0  0  0  0  0  0  0  0  0  0
    2.8600   -0.0319   -1.7068 O   0  0  0  0  0  0  0  0  0  0  0  0
    0.9013    1.2867    0.3675 H   0  0  0  0  0  0  0  0  0  0  0  0
   -0.0429   -1.5235    0.1576 H   0  0  0  0  0  0  0  0  0  0  0  0
    2.6789   -0.2804    0.8362 H   0  0  0  0  0  0  0  0  0  0  0  0
    2.3258   -2.0106    0.8367 H   0  0  0  0  0  0  0  0  0  0  0  0
    2.9526   -0.2841   -2.6387 H   0  0  0  0  0  0  0  0  0  0  0  0
    0.6800    0.1035    3.0499 N   0  0  0  0  0  0  0  0  0  0  0  0
    0.5225    0.1226    4.5188 C   0  0  2  0  0  0  0  0  0  0  0  0
    1.4037   -0.8894    5.2862 C   0  0  0  0  0  0  0  0  0  0  0  0
    2.0605   -0.5063    6.2456 O   0  0  0  0  0  0  0  0  0  0  0  0
   -0.9512   -0.0259    4.9226 C   0  0  0  0  0  0  0  0  0  0  0  0
    1.0863    0.9394    2.6198 H   0  0  0  0  0  0  0  0  0  0  0  0
    0.8470    1.1130    4.8548 H   0  0  0  0  0  0  0  0  0  0  0  0
   -1.3267   -1.0276    4.6940 H   0  0  0  0  0  0  0  0  0  0  0  0
   -1.0617    0.1405    5.9987 H   0  0  0  0  0  0  0  0  0  0  0  0
   -1.5682    0.7065    4.3947 H   0  0  0  0  0  0  0  0  0  0  0  0
    1.4469   -2.2219    4.9289 N   0  0  0  0  0  0  0  0  0  0  0  0
    2.2087   -3.2361    5.6434 C   0  0  0  0  0  0  0  0  0  0  0  0
    0.8493   -2.4983    4.1448 H   0  0  0  0  0  0  0  0  0  0  0  0
    2.0694   -4.2136    5.1717 H   0  0  0  0  0  0  0  0  0  0  0  0
    3.2763   -2.9934    5.6293 H   0  0  0  0  0  0  0  0  0  0  0  0
    1.8751   -3.3030    6.6842 H   0  0  0  0  0  0  0  0  0  0  0  0
  1  2  2  0  0  0  0
  1  3  1  0  0  0  0
  1  7  1  0  0  0  0
  3  4  1  0  0  0  0
  3  5  1  0  0  0  0
  3  6  1  0  0  0  0
  7  8  1  0  0  0  0
  7 12  1  0  0  0  0
  8  9  1  0  0  0  0
  8 11  1  0  0  0  0
  8 13  1  0  0  0  0
  9 10  2  0  0  0  0
  9 17  1  0  0  0  0
 11 14  1  0  0  0  0
 11 15  1  0  0  0  0
 11 16  1  0  0  0  0
 17 18  1  0  0  0  0
 17 25  1  0  0  0  0
 18 19  1  0  0  0  0
 18 21  1  0  0  0  0
 18 26  1  0  0  0  0
 19 20  2  0  0  0  0
 19 30  1  0  0  0  0
 21 22  1  0  0  0  0
 21 27  1  0  0  0  0
 21 28  1  0  0  0  0
 22 23  2  0  0  0  0
 22 24  1  0  0  0  0
 24 29  1  0  0  0  0
 30 31  1  0  0  0  0
 30 35  1  0  0  0  0
 31 32  1  0  0  0  0
 31 34  1  0  0  0  0
 31 36  1  0  0  0  0
 32 33  2  0  0  0  0
 32 40  1  0  0  0  0
 34 37  1  0  0  0  0
 34 38  1  0  0  0  0
 34 39  1  0  0  0  0
 40 41  1  0  0  0  0
 40 42  1  0  0  0  0
 41 43  1  0  0  0  0
 41 44  1  0  0  0  0
 41 45  1  0  0  0  0
M  END
$$$$

  -OEChem-02062319043D

 45 44  0     1  0  0  0  0  0999 V2000
    0.7804    3.3403    1.5284 C   0  0  0  0  0  0  0  0  0  0  0  0
    1.1987    2.2617    1.9250 O   0  0  0  0  0  0  0  0  0  0  0  0
    1.6935    4.5501    1.4792 C   0  0  0  0  0  0  0  0  0  0  0  0
    2.6482    4.3219    1.9621 H   0  0  0  0  0  0  0  0  0  0  0  0
    1.8831    4.8340    0.4408 H   0  0  0  0  0  0  0  0  0  0  0  0
    1.2302    5.3913    2.0010 H   0  0  0  0  0  0  0  0  0  0  0  0
   -0.5146    3.4212    1.0578 N   0  0  0  0  0  0  0  0  0  0  0  0
   -1.5216    2.3529    1.2001 C   0  0  2  0  0  0  0  0  0  0  0  0
   -1.3685    1.2056    0.1688 C   0  0  0  0  0  0  0  0  0  0  0  0
   -2.3427    0.5485   -0.1667 O   0  0  0  0  0  0  0  0  0  0  0  0
   -2.8989    3.0240    1.1200 C   0  0  0  0  0  0  0  0  0  0  0  0
   -0.8263    4.3310    0.7265 H   0  0  0  0  0  0  0  0  0  0  0  0
   -1.4293    1.9007    2.1936 H   0  0  0  0  0  0  0  0  0  0  0  0
   -3.0647    3.4451    0.1232 H   0  0  0  0  0  0  0  0  0  0  0  0
   -3.6907    2.2951    1.3226 H   0  0  0  0  0  0  0  0  0  0  0  0
   -2.9791    3.8265    1.8597 H   0  0  0  0  0  0  0  0  0  0  0  0
   -0.1166    0.6607   -0.0507 N   0  0  0  0  0  0  0  0  0  0  0  0
    0.1201   -0.7721    0.1941 C   0  0  2  0  0  0  0  0  0  0  0  0
   -0.1464   -1.1858    1.6551 C   0  0  0  0  0  0  0  0  0  0  0  0
   -0.6256   -2.2858    1.8899 O   0  0  0  0  0  0  0  0  0  0  0  0
    1.5728   -1.1092   -0.1730 C   0  0  0  0  0  0  0  0  0  0  0  0
    1.8475   -0.8690   -1.6486 C   0  0  0  0  0  0  0  0  0  0  0  0
    1.5383   -1.7360   -2.4447 O   0  0  0  0  0  0  0  0  0  0  0  0
    2.4297    0.2971   -2.0067 O   0  0  0  0  0  0  0  0  0  0  0  0
    0.6270    1.2703    0.2924 H   0  0  0  0  0  0  0  0  0  0  0  0
   -0.5536   -1.3639   -0.4395 H   0  0  0  0  0  0  0  0  0  0  0  0
    2.2648   -0.5067    0.4216 H   0  0  0  0  0  0  0  0  0  0  0  0
    1.7723   -2.1618    0.0495 H   0  0  0  0  0  0  0  0  0  0  0  0
    2.5066    0.2464   -2.9722 H   0  0  0  0  0  0  0  0  0  0  0  0
    0.3323   -0.4004    2.6932 N   0  0  0  0  0  0  0  0  0  0  0  0
    0.2022   -0.6518    4.1424 C   0  0  2  0  0  0  0  0  0  0  0  0
    1.0338   -1.8396    4.6792 C   0  0  0  0  0  0  0  0  0  0  0  0
    1.7025   -1.6935    5.6943 O   0  0  0  0  0  0  0  0  0  0  0  0
   -1.2720   -0.7873    4.5468 C   0  0  0  0  0  0  0  0  0  0  0  0
    0.7782    0.4793    2.4179 H   0  0  0  0  0  0  0  0  0  0  0  0
    0.5917    0.2369    4.6499 H   0  0  0  0  0  0  0  0  0  0  0  0
   -1.7076   -1.7107    4.1540 H   0  0  0  0  0  0  0  0  0  0  0  0
   -1.3602   -0.8069    5.6374 H   0  0  0  0  0  0  0  0  0  0  0  0
   -1.8505    0.0599    4.1673 H   0  0  0  0  0  0  0  0  0  0  0  0
    1.0266   -3.0677    4.0488 N   0  0  0  0  0  0  0  0  0  0  0  0
    1.7341   -4.2422    4.5377 C   0  0  0  0  0  0  0  0  0  0  0  0
    0.4004   -3.1555    3.2435 H   0  0  0  0  0  0  0  0  0  0  0  0
    1.5923   -5.0801    3.8485 H   0  0  0  0  0  0  0  0  0  0  0  0
    2.8069   -4.0376    4.6173 H   0  0  0  0  0  0  0  0  0  0  0  0
    1.3561   -4.5346    5.5228 H   0  0  0  0  0  0  0  0  0  0  0  0
  1  2  2  0  0  0  0
  1  3  1  0  0  0  0
  1  7  1  0  0  0  0
  3  4  1  0  0  0  0
  3  5  1  0  0  0  0
  3  6  1  0  0  0  0
  7  8  1  0  0  0  0
  7 12  1  0  0  0  0
  8  9  1  0  0  0  0
  8 11  1  0  0  0  0
  8 13  1  0  0  0  0
  9 10  2  0  0  0  0
  9 17  1  0  0  0  0
 11 14  1  0  0  0  0
 11 15  1  0  0  0  0
 11 16  1  0  0  0  0
 17 18  1  0  0  0  0
 17 25  1  0  0  0  0
 18 19  1  0  0  0  0
 18 21  1  0  0  0  0
 18 26  1  0  0  0  0
 19 20  2  0  0  0  0
 19 30  1  0  0  0  0
 21 22  1  0  0  0  0
 21 27  1  0  0  0  0
 21 28  1  0  0  0  0
 22 23  2  0  0  0  0
 22 24  1  0  0  0  0
 24 29  1  0  0  0  0
 30 31  1  0  0  0  0
 30 35  1  0  0  0  0
 31 32  1  0  0  0  0
 31 34  1  0  0  0  0
 31 36  1  0  0  0  0
 32 33  2  0  0  0  0
 32 40  1  0  0  0  0
 34 37  1  0  0  0  0
 34 38  1  0  0  0  0
 34 39  1  0  0  0  0
 40 41  1  0  0  0  0
 40 42  1  0  0  0  0
 41 43  1  0  0  0  0
 41 44  1  0  0  0  0
 41 45  1  0  0  0  0
M  END
$$$$

  -OEChem-02062319043D

 45 44  0     1  0  0  0  0  0999 V2000
   -0.4076    5.1831    0.8273 C   0  0  0  0  0  0  0  0  0  0  0  0
    0.5878    5.5691    1.4193 O   0  0  0  0  0  0  0  0  0  0  0  0
   -1.3858    6.1849    0.2434 C   0  0  0  0  0  0  0  0  0  0  0  0
   -1.0361    7.2047    0.4280 H   0  0  0  0  0  0  0  0  0  0  0  0
   -1.4759    6.0346   -0.8352 H   0  0  0  0  0  0  0  0  0  0  0  0
   -2.3683    6.0603    0.7051 H   0  0  0  0  0  0  0  0  0  0  0  0
   -0.6355    3.8310    0.6807 N   0  0  0  0  0  0  0  0  0  0  0  0
    0.3171    2.7830    1.0711 C   0  0  2  0  0  0  0  0  0  0  0  0
    0.3405    1.6316    0.0405 C   0  0  0  0  0  0  0  0  0  0  0  0
   -0.6519    1.4389   -0.6502 O   0  0  0  0  0  0  0  0  0  0  0  0
   -0.0742    2.2970    2.4696 C   0  0  0  0  0  0  0  0  0  0  0  0
   -1.4122    3.5497    0.0827 H   0  0  0  0  0  0  0  0  0  0  0  0
    1.3303    3.1977    1.1089 H   0  0  0  0  0  0  0  0  0  0  0  0
   -1.0490    1.7995    2.4438 H   0  0  0  0  0  0  0  0  0  0  0  0
    0.6720    1.5988    2.8570 H   0  0  0  0  0  0  0  0  0  0  0  0
   -0.1352    3.1446    3.1600 H   0  0  0  0  0  0  0  0  0  0  0  0
    1.2599    0.6010    0.1482 N   0  0  0  0  0  0  0  0  0  0  0  0
    0.8878   -0.8179   -0.0283 C   0  0  2  0  0  0  0  0  0  0  0  0
   -0.1738   -1.3384    0.9610 C   0  0  0  0  0  0  0  0  0  0  0  0
   -0.9612   -2.1960    0.5892 O   0  0  0  0  0  0  0  0  0  0  0  0
    2.1442   -1.6975    0.0880 C   0  0  0  0  0  0  0  0  0  0  0  0
    3.2144   -1.2972   -0.9146 C   0  0  0  0  0  0  0  0  0  0  0  0
    3.2500   -1.8632   -1.9901 O   0  0  0  0  0  0  0  0  0  0  0  0
    4.0818   -0.3251   -0.5532 O   0  0  0  0  0  0  0  0  0  0  0  0
    2.0955    0.8039    0.6932 H   0  0  0  0  0  0  0  0  0  0  0  0
    0.4682   -0.9422   -1.0355 H   0  0  0  0  0  0  0  0  0  0  0  0
    2.5643   -1.6326    1.0947 H   0  0  0  0  0  0  0  0  0  0  0  0
    1.8740   -2.7433   -0.0905 H   0  0  0  0  0  0  0  0  0  0  0  0
    4.6755   -0.2277   -1.3156 H   0  0  0  0  0  0  0  0  0  0  0  0
   -0.0723   -1.0330    2.3095 N   0  0  0  0  0  0  0  0  0  0  0  0
   -0.8976   -1.5720    3.4101 C   0  0  2  0  0  0  0  0  0  0  0  0
   -0.6506   -3.0675    3.7107 C   0  0  0  0  0  0  0  0  0  0  0  0
   -0.2472   -3.3964    4.8180 O   0  0  0  0  0  0  0  0  0  0  0  0
   -2.3902   -1.2905    3.1834 C   0  0  0  0  0  0  0  0  0  0  0  0
    0.6764   -0.3971    2.5619 H   0  0  0  0  0  0  0  0  0  0  0  0
   -0.6116   -1.0314    4.3182 H   0  0  0  0  0  0  0  0  0  0  0  0
   -2.7867   -1.8789    2.3507 H   0  0  0  0  0  0  0  0  0  0  0  0
   -2.9596   -1.5487    4.0818 H   0  0  0  0  0  0  0  0  0  0  0  0
   -2.5496   -0.2304    2.9661 H   0  0  0  0  0  0  0  0  0  0  0  0
   -0.8327   -4.0331    2.7414 N   0  0  0  0  0  0  0  0  0  0  0  0
   -0.5544   -5.4493    2.9367 C   0  0  0  0  0  0  0  0  0  0  0  0
   -1.0875   -3.6934    1.8094 H   0  0  0  0  0  0  0  0  0  0  0  0
   -0.7965   -6.0097    2.0284 H   0  0  0  0  0  0  0  0  0  0  0  0
    0.5045   -5.6036    3.1676 H   0  0  0  0  0  0  0  0  0  0  0  0
   -1.1571   -5.8474    3.7597 H   0  0  0  0  0  0  0  0  0  0  0  0
  1  2  2  0  0  0  0
  1  3  1  0  0  0  0
  1  7  1  0  0  0  0
  3  4  1  0  0  0  0
  3  5  1  0  0  0  0
  3  6  1  0  0  0  0
  7  8  1  0  0  0  0
  7 12  1  0  0  0  0
  8  9  1  0  0  0  0
  8 11  1  0  0  0  0
  8 13  1  0  0  0  0
  9 10  2  0  0  0  0
  9 17  1  0  0  0  0
 11 14  1  0  0  0  0
 11 15  1  0  0  0  0
 11 16  1  0  0  0  0
 17 18  1  0  0  0  0
 17 25  1  0  0  0  0
 18 19  1  0  0  0  0
 18 21  1  0  0  0  0
 18 26  1  0  0  0  0
 19 20  2  0  0  0  0
 19 30  1  0  0  0  0
 21 22  1  0  0  0  0
 21 27  1  0  0  0  0
 21 28  1  0  0  0  0
 22 23  2  0  0  0  0
 22 24  1  0  0  0  0
 24 29  1  0  0  0  0
 30 31  1  0  0  0  0
 30 35  1  0  0  0  0
 31 32  1  0  0  0  0
 31 34  1  0  0  0  0
 31 36  1  0  0  0  0
 32 33  2  0  0  0  0
 32 40  1  0  0  0  0
 34 37  1  0  0  0  0
 34 38  1  0  0  0  0
 34 39  1  0  0  0  0
 40 41  1  0  0  0  0
 40 42  1  0  0  0  0
 41 43  1  0  0  0  0
 41 44  1  0  0  0  0
 41 45  1  0  0  0  0
M  END
$$$$

  -OEChem-02062319043D

 45 44  0     1  0  0  0  0  0999 V2000
   -0.3409    5.1968    0.9916 C   0  0  0  0  0  0  0  0  0  0  0  0
    0.6413    5.5156    1.6428 O   0  0  0  0  0  0  0  0  0  0  0  0
   -1.2808    6.2598    0.4547 C   0  0  0  0  0  0  0  0  0  0  0  0
   -0.9360    7.2539    0.7535 H   0  0  0  0  0  0  0  0  0  0  0  0
   -1.3148    6.2118   -0.6367 H   0  0  0  0  0  0  0  0  0  0  0  0
   -2.2871    6.1027    0.8510 H   0  0  0  0  0  0  0  0  0  0  0  0
   -0.5935    3.8649    0.7395 N   0  0  0  0  0  0  0  0  0  0  0  0
    0.3123    2.7663    1.1000 C   0  0  2  0  0  0  0  0  0  0  0  0
    0.3141    1.6571    0.0277 C   0  0  0  0  0  0  0  0  0  0  0  0
   -0.6538    1.5303   -0.7108 O   0  0  0  0  0  0  0  0  0  0  0  0
   -0.1321    2.2132    2.4581 C   0  0  0  0  0  0  0  0  0  0  0  0
   -1.3582    3.6454    0.1016 H   0  0  0  0  0  0  0  0  0  0  0  0
    1.3385    3.1414    1.1811 H   0  0  0  0  0  0  0  0  0  0  0  0
   -1.1440    1.8001    2.3912 H   0  0  0  0  0  0  0  0  0  0  0  0
    0.5472    1.4252    2.7952 H   0  0  0  0  0  0  0  0  0  0  0  0
   -0.1306    3.0104    3.2087 H   0  0  0  0  0  0  0  0  0  0  0  0
    1.2397    0.6294    0.0849 N   0  0  0  0  0  0  0  0  0  0  0  0
    0.9810   -0.7296   -0.4284 C   0  0  2  0  0  0  0  0  0  0  0  0
   -0.2104   -1.4312    0.2525 C   0  0  0  0  0  0  0  0  0  0  0  0
   -0.8857   -2.2194   -0.3932 O   0  0  0  0  0  0  0  0  0  0  0  0
    2.2382   -1.5991   -0.2576 C   0  0  0  0  0  0  0  0  0  0  0  0
    3.4480   -0.9924   -0.9502 C   0  0  0  0  0  0  0  0  0  0  0  0
    3.7403   -1.3802   -2.0648 O   0  0  0  0  0  0  0  0  0  0  0  0
    4.1441   -0.0436   -0.2832 O   0  0  0  0  0  0  0  0  0  0  0  0
    2.0653    0.7812    0.6627 H   0  0  0  0  0  0  0  0  0  0  0  0
    0.7427   -0.6610   -1.4978 H   0  0  0  0  0  0  0  0  0  0  0  0
    2.4696   -1.7295    0.8025 H   0  0  0  0  0  0  0  0  0  0  0  0
    2.0545   -2.5924   -0.6800 H   0  0  0  0  0  0  0  0  0  0  0  0
    4.8710    0.1957   -0.8819 H   0  0  0  0  0  0  0  0  0  0  0  0
   -0.3382   -1.3741    1.6319 N   0  0  0  0  0  0  0  0  0  0  0  0
   -1.3446   -2.0649    2.4638 C   0  0  2  0  0  0  0  0  0  0  0  0
   -1.1615   -3.5975    2.5502 C   0  0  0  0  0  0  0  0  0  0  0  0
   -1.0234   -4.1226    3.6469 O   0  0  0  0  0  0  0  0  0  0  0  0
   -2.7704   -1.7009    2.0266 C   0  0  0  0  0  0  0  0  0  0  0  0
    0.3091   -0.7532    2.1058 H   0  0  0  0  0  0  0  0  0  0  0  0
   -1.2238   -1.6904    3.4856 H   0  0  0  0  0  0  0  0  0  0  0  0
   -3.0098   -2.1314    1.0500 H   0  0  0  0  0  0  0  0  0  0  0  0
   -3.4936   -2.0847    2.7528 H   0  0  0  0  0  0  0  0  0  0  0  0
   -2.8841   -0.6145    1.9643 H   0  0  0  0  0  0  0  0  0  0  0  0
   -1.1159   -4.3813    1.4152 N   0  0  0  0  0  0  0  0  0  0  0  0
   -0.8912   -5.8198    1.4238 C   0  0  0  0  0  0  0  0  0  0  0  0
   -1.1747   -3.8849    0.5216 H   0  0  0  0  0  0  0  0  0  0  0  0
   -0.9316   -6.2137    0.4039 H   0  0  0  0  0  0  0  0  0  0  0  0
    0.0917   -6.0513    1.8467 H   0  0  0  0  0  0  0  0  0  0  0  0
   -1.6593   -6.3237    2.0195 H   0  0  0  0  0  0  0  0  0  0  0  0
  1  2  2  0  0  0  0
  1  3  1  0  0  0  0
  1  7  1  0  0  0  0
  3  4  1  0  0  0  0
  3  5  1  0  0  0  0
  3  6  1  0  0  0  0
  7  8  1  0  0  0  0
  7 12  1  0  0  0  0
  8  9  1  0  0  0  0
  8 11  1  0  0  0  0
  8 13  1  0  0  0  0
  9 10  2  0  0  0  0
  9 17  1  0  0  0  0
 11 14  1  0  0  0  0
 11 15  1  0  0  0  0
 11 16  1  0  0  0  0
 17 18  1  0  0  0  0
 17 25  1  0  0  0  0
 18 19  1  0  0  0  0
 18 21  1  0  0  0  0
 18 26  1  0  0  0  0
 19 20  2  0  0  0  0
 19 30  1  0  0  0  0
 21 22  1  0  0  0  0
 21 27  1  0  0  0  0
 21 28  1  0  0  0  0
 22 23  2  0  0  0  0
 22 24  1  0  0  0  0
 24 29  1  0  0  0  0
 30 31  1  0  0  0  0
 30 35  1  0  0  0  0
 31 32  1  0  0  0  0
 31 34  1  0  0  0  0
 31 36  1  0  0  0  0
 32 33  2  0  0  0  0
 32 40  1  0  0  0  0
 34 37  1  0  0  0  0
 34 38  1  0  0  0  0
 34 39  1  0  0  0  0
 40 41  1  0  0  0  0
 40 42  1  0  0  0  0
 41 43  1  0  0  0  0
 41 44  1  0  0  0  0
 41 45  1  0  0  0  0
M  END
$$$$

  -OEChem-02062319043D

 45 44  0     1  0  0  0  0  0999 V2000
   -0.3765    5.2672    1.0923 C   0  0  0  0  0  0  0  0  0  0  0  0
    0.5503    5.5705    1.8264 O   0  0  0  0  0  0  0  0  0  0  0  0
   -1.2827    6.3413    0.5210 C   0  0  0  0  0  0  0  0  0  0  0  0
   -0.9548    7.3290    0.8571 H   0  0  0  0  0  0  0  0  0  0  0  0
   -1.2534    6.3136   -0.5710 H   0  0  0  0  0  0  0  0  0  0  0  0
   -2.3104    6.1790    0.8549 H   0  0  0  0  0  0  0  0  0  0  0  0
   -0.5963    3.9433    0.7763 N   0  0  0  0  0  0  0  0  0  0  0  0
    0.2944    2.8399    1.1600 C   0  0  2  0  0  0  0  0  0  0  0  0
    0.3254    1.7383    0.0806 C   0  0  0  0  0  0  0  0  0  0  0  0
   -0.5728    1.6697   -0.7490 O   0  0  0  0  0  0  0  0  0  0  0  0
   -0.1912    2.2759    2.4989 C   0  0  0  0  0  0  0  0  0  0  0  0
   -1.3042    3.7420    0.0706 H   0  0  0  0  0  0  0  0  0  0  0  0
    1.3189    3.2116    1.2751 H   0  0  0  0  0  0  0  0  0  0  0  0
   -1.2073    1.8799    2.4020 H   0  0  0  0  0  0  0  0  0  0  0  0
    0.4676    1.4722    2.8405 H   0  0  0  0  0  0  0  0  0  0  0  0
   -0.1951    3.0625    3.2606 H   0  0  0  0  0  0  0  0  0  0  0  0
    1.2393    0.7024    0.1562 N   0  0  0  0  0  0  0  0  0  0  0  0
    1.1505   -0.5424   -0.6294 C   0  0  2  0  0  0  0  0  0  0  0  0
   -0.1365   -1.3502   -0.3734 C   0  0  0  0  0  0  0  0  0  0  0  0
   -0.6032   -2.0219   -1.2830 O   0  0  0  0  0  0  0  0  0  0  0  0
    2.3690   -1.4333   -0.3274 C   0  0  0  0  0  0  0  0  0  0  0  0
    3.6830   -0.7143   -0.5891 C   0  0  0  0  0  0  0  0  0  0  0  0
    4.0880    0.0601    0.2620 O   0  0  0  0  0  0  0  0  0  0  0  0
    4.3241   -0.9493   -1.7527 O   0  0  0  0  0  0  0  0  0  0  0  0
    2.0547    0.8407    0.7558 H   0  0  0  0  0  0  0  0  0  0  0  0
    1.1558   -0.2839   -1.6956 H   0  0  0  0  0  0  0  0  0  0  0  0
    2.3504   -1.7637    0.7147 H   0  0  0  0  0  0  0  0  0  0  0  0
    2.3299   -2.3274   -0.9571 H   0  0  0  0  0  0  0  0  0  0  0  0
    5.1234   -0.4005   -1.7281 H   0  0  0  0  0  0  0  0  0  0  0  0
   -0.5729   -1.5382    0.9288 N   0  0  0  0  0  0  0  0  0  0  0  0
   -1.6863   -2.3960    1.3823 C   0  0  2  0  0  0  0  0  0  0  0  0
   -1.4199   -3.9118    1.2363 C   0  0  0  0  0  0  0  0  0  0  0  0
   -1.4242   -4.6209    2.2338 O   0  0  0  0  0  0  0  0  0  0  0  0
   -3.0057   -1.9964    0.7068 C   0  0  0  0  0  0  0  0  0  0  0  0
   -0.0956   -0.9822    1.6314 H   0  0  0  0  0  0  0  0  0  0  0  0
   -1.8146   -2.2150    2.4546 H   0  0  0  0  0  0  0  0  0  0  0  0
   -2.9978   -2.2406   -0.3595 H   0  0  0  0  0  0  0  0  0  0  0  0
   -3.8407   -2.5299    1.1723 H   0  0  0  0  0  0  0  0  0  0  0  0
   -3.1779   -0.9213    0.8149 H   0  0  0  0  0  0  0  0  0  0  0  0
   -1.1403   -4.4738    0.0068 N   0  0  0  0  0  0  0  0  0  0  0  0
   -0.7920   -5.8735   -0.1929 C   0  0  0  0  0  0  0  0  0  0  0  0
   -1.0497   -3.8172   -0.7739 H   0  0  0  0  0  0  0  0  0  0  0  0
   -0.6897   -6.0868   -1.2613 H   0  0  0  0  0  0  0  0  0  0  0  0
    0.1571   -6.1059    0.3008 H   0  0  0  0  0  0  0  0  0  0  0  0
   -1.5720   -6.5250    0.2147 H   0  0  0  0  0  0  0  0  0  0  0  0
  1  2  2  0  0  0  0
  1  3  1  0  0  0  0
  1  7  1  0  0  0  0
  3  4  1  0  0  0  0
  3  5  1  0  0  0  0
  3  6  1  0  0  0  0
  7  8  1  0  0  0  0
  7 12  1  0  0  0  0
  8  9  1  0  0  0  0
  8 11  1  0  0  0  0
  8 13  1  0  0  0  0
  9 10  2  0  0  0  0
  9 17  1  0  0  0  0
 11 14  1  0  0  0  0
 11 15  1  0  0  0  0
 11 16  1  0  0  0  0
 17 18  1  0  0  0  0
 17 25  1  0  0  0  0
 18 19  1  0  0  0  0
 18 21  1  0  0  0  0
 18 26  1  0  0  0  0
 19 20  2  0  0  0  0
 19 30  1  0  0  0  0
 21 22  1  0  0  0  0
 21 27  1  0  0  0  0
 21 28  1  0  0  0  0
 22 23  2  0  0  0  0
 22 24  1  0  0  0  0
 24 29  1  0  0  0  0
 30 31  1  0  0  0  0
 30 35  1  0  0  0  0
 31 32  1  0  0  0  0
 31 34  1  0  0  0  0
 31 36  1  0  0  0  0
 32 33  2  0  0  0  0
 32 40  1  0  0  0  0
 34 37  1  0  0  0  0
 34 38  1  0  0  0  0
 34 39  1  0  0  0  0
 40 41  1  0  0  0  0
 40 42  1  0  0  0  0
 41 43  1  0  0  0  0
 41 44  1  0  0  0  0
 41 45  1  0  0  0  0
M  END
$$$$
