default_name
  -OEChem-01062215323D

 33 33  0     1  0  0  0  0  0999 V2000
   -4.0702   -3.8485    1.4554 H   0  0  0  0  0  0  0  0  0  0  0  0
   -4.0012   -2.9605    0.8284 C   0  0  0  0  0  0  0  0  0  0  0  0
   -4.7652   -2.2435    1.1234 H   0  0  0  0  0  0  0  0  0  0  0  0
   -4.1352   -3.2385   -0.2156 H   0  0  0  0  0  0  0  0  0  0  0  0
   -2.6362   -2.3395    1.0094 C   0  0  0  0  0  0  0  0  0  0  0  0
   -1.8292   -2.8395    1.7814 O   0  0  0  0  0  0  0  0  0  0  0  0
   -2.3832   -1.2445    0.2964 N   0  0  0  0  0  0  0  0  0  0  0  0
   -3.1102   -0.8685   -0.2946 H   0  0  0  0  0  0  0  0  0  0  0  0
   -1.1292   -0.4875    0.3524 C   0  0  1  0  0  0  0  0  0  0  0  0
   -0.9984   -0.1076    1.3663 H   0  0  0  0  0  0  0  0  0  0  0  0
    0.0478   -1.4247    0.0315 C   0  0  0  0  0  0  0  0  0  0  0  0
   -0.1442   -1.9217   -0.9202 H   0  0  0  0  0  0  0  0  0  0  0  0
    0.9528   -0.8269   -0.0889 H   0  0  0  0  0  0  0  0  0  0  0  0
    0.2877   -2.4931    1.0806 C   0  0  0  0  0  0  0  0  0  0  0  0
    1.0016   -2.1876    2.2568 C   0  0  0  0  0  0  0  0  0  0  0  0
    1.4042   -1.1939    2.4029 H   0  0  0  0  0  0  0  0  0  0  0  0
    1.1867   -3.1725    3.2465 C   0  0  0  0  0  0  0  0  0  0  0  0
    1.7353   -2.9355    4.1452 H   0  0  0  0  0  0  0  0  0  0  0  0
    0.6526   -4.4662    3.0606 C   0  0  0  0  0  0  0  0  0  0  0  0
    0.8232   -5.4221    4.0105 O   0  0  0  0  0  0  0  0  0  0  0  0
    1.3989   -5.1293    4.7181 H   0  0  0  0  0  0  0  0  0  0  0  0
   -0.0657   -4.7687    1.8853 C   0  0  0  0  0  0  0  0  0  0  0  0
   -0.4655   -5.7628    1.7527 H   0  0  0  0  0  0  0  0  0  0  0  0
   -0.2452   -3.7835    0.8958 C   0  0  0  0  0  0  0  0  0  0  0  0
   -0.7892   -4.0193   -0.0111 H   0  0  0  0  0  0  0  0  0  0  0  0
   -1.1726    0.7205   -0.5982 C   0  0  0  0  0  0  0  0  0  0  0  0
   -2.1754    0.9377   -1.2790 O   0  0  0  0  0  0  0  0  0  0  0  0
   -0.0875    1.5035   -0.6481 N   0  0  0  0  0  0  0  0  0  0  0  0
    0.7149    1.2238   -0.1029 H   0  0  0  0  0  0  0  0  0  0  0  0
    0.0373    2.6865   -1.4965 C   0  0  0  0  0  0  0  0  0  0  0  0
   -0.8288    3.3357   -1.3569 H   0  0  0  0  0  0  0  0  0  0  0  0
    0.9442    3.2375   -1.2421 H   0  0  0  0  0  0  0  0  0  0  0  0
    0.0815    2.3838   -2.5447 H   0  0  0  0  0  0  0  0  0  0  0  0
  5  6  2  0  0  0  0
  5  7  1  0  0  0  0
  2  3  1  0  0  0  0
  2  4  1  0  0  0  0
  2  5  1  0  0  0  0
  1  2  1  0  0  0  0
 26 27  2  0  0  0  0
 26 28  1  0  0  0  0
 24 25  1  0  0  0  0
 22 23  1  0  0  0  0
 22 24  2  0  0  0  0
 20 21  1  0  0  0  0
 19 20  1  0  0  0  0
 19 22  1  0  0  0  0
 17 18  1  0  0  0  0
 17 19  2  0  0  0  0
 15 16  1  0  0  0  0
 15 17  1  0  0  0  0
 14 15  2  0  0  0  0
 14 24  1  0  0  0  0
 11 12  1  0  0  0  0
 11 13  1  0  0  0  0
 11 14  1  0  0  0  0
  9 10  1  0  0  0  0
  9 11  1  0  0  0  0
  9 26  1  0  0  0  0
  7  8  1  0  0  0  0
  7  9  1  0  0  0  0
 30 31  1  0  0  0  0
 30 32  1  0  0  0  0
 30 33  1  0  0  0  0
 28 29  1  0  0  0  0
 28 30  1  0  0  0  0
M  END
$$$$
default_name
  -OEChem-01062215323D

 33 33  0     1  0  0  0  0  0999 V2000
   -4.0702   -3.8485    1.4554 H   0  0  0  0  0  0  0  0  0  0  0  0
   -4.0012   -2.9605    0.8284 C   0  0  0  0  0  0  0  0  0  0  0  0
   -4.7652   -2.2435    1.1234 H   0  0  0  0  0  0  0  0  0  0  0  0
   -4.1352   -3.2385   -0.2156 H   0  0  0  0  0  0  0  0  0  0  0  0
   -2.6362   -2.3395    1.0094 C   0  0  0  0  0  0  0  0  0  0  0  0
   -1.8292   -2.8395    1.7814 O   0  0  0  0  0  0  0  0  0  0  0  0
   -2.3832   -1.2445    0.2964 N   0  0  0  0  0  0  0  0  0  0  0  0
   -3.1102   -0.8685   -0.2946 H   0  0  0  0  0  0  0  0  0  0  0  0
   -1.1292   -0.4875    0.3524 C   0  0  1  0  0  0  0  0  0  0  0  0
   -0.9984   -0.1076    1.3663 H   0  0  0  0  0  0  0  0  0  0  0  0
    0.0478   -1.4247    0.0315 C   0  0  0  0  0  0  0  0  0  0  0  0
   -0.1442   -1.9217   -0.9202 H   0  0  0  0  0  0  0  0  0  0  0  0
    0.9528   -0.8269   -0.0889 H   0  0  0  0  0  0  0  0  0  0  0  0
    0.2877   -2.4931    1.0806 C   0  0  0  0  0  0  0  0  0  0  0  0
    1.0016   -2.1876    2.2568 C   0  0  0  0  0  0  0  0  0  0  0  0
    1.4042   -1.1939    2.4029 H   0  0  0  0  0  0  0  0  0  0  0  0
    1.1867   -3.1725    3.2465 C   0  0  0  0  0  0  0  0  0  0  0  0
    1.7353   -2.9355    4.1452 H   0  0  0  0  0  0  0  0  0  0  0  0
    0.6526   -4.4662    3.0606 C   0  0  0  0  0  0  0  0  0  0  0  0
    0.8232   -5.4221    4.0105 O   0  0  0  0  0  0  0  0  0  0  0  0
    1.3989   -5.1293    4.7181 H   0  0  0  0  0  0  0  0  0  0  0  0
   -0.0657   -4.7687    1.8853 C   0  0  0  0  0  0  0  0  0  0  0  0
   -0.4655   -5.7628    1.7527 H   0  0  0  0  0  0  0  0  0  0  0  0
   -0.2452   -3.7835    0.8958 C   0  0  0  0  0  0  0  0  0  0  0  0
   -0.7892   -4.0193   -0.0111 H   0  0  0  0  0  0  0  0  0  0  0  0
   -1.1726    0.7205   -0.5982 C   0  0  0  0  0  0  0  0  0  0  0  0
   -2.2455    1.1024   -1.0666 O   0  0  0  0  0  0  0  0  0  0  0  0
   -0.0100    1.3194   -0.8857 N   0  0  0  0  0  0  0  0  0  0  0  0
    0.8318    0.9092   -0.5079 H   0  0  0  0  0  0  0  0  0  0  0  0
    0.1260    2.4747   -1.7697 C   0  0  0  0  0  0  0  0  0  0  0  0
   -0.5788    3.2534   -1.4731 H   0  0  0  0  0  0  0  0  0  0  0  0
    1.1417    2.8703   -1.7177 H   0  0  0  0  0  0  0  0  0  0  0  0
   -0.0933    2.1785   -2.7976 H   0  0  0  0  0  0  0  0  0  0  0  0
  5  6  2  0  0  0  0
  5  7  1  0  0  0  0
  2  3  1  0  0  0  0
  2  4  1  0  0  0  0
  2  5  1  0  0  0  0
  1  2  1  0  0  0  0
 26 27  2  0  0  0  0
 26 28  1  0  0  0  0
 24 25  1  0  0  0  0
 22 23  1  0  0  0  0
 22 24  2  0  0  0  0
 20 21  1  0  0  0  0
 19 20  1  0  0  0  0
 19 22  1  0  0  0  0
 17 18  1  0  0  0  0
 17 19  2  0  0  0  0
 15 16  1  0  0  0  0
 15 17  1  0  0  0  0
 14 15  2  0  0  0  0
 14 24  1  0  0  0  0
 11 12  1  0  0  0  0
 11 13  1  0  0  0  0
 11 14  1  0  0  0  0
  9 10  1  0  0  0  0
  9 11  1  0  0  0  0
  9 26  1  0  0  0  0
  7  8  1  0  0  0  0
  7  9  1  0  0  0  0
 30 31  1  0  0  0  0
 30 32  1  0  0  0  0
 30 33  1  0  0  0  0
 28 29  1  0  0  0  0
 28 30  1  0  0  0  0
M  END
$$$$
default_name
  -OEChem-01062215323D

 33 33  0     1  0  0  0  0  0999 V2000
   -4.0702   -3.8485    1.4554 H   0  0  0  0  0  0  0  0  0  0  0  0
   -4.0012   -2.9605    0.8284 C   0  0  0  0  0  0  0  0  0  0  0  0
   -4.7652   -2.2435    1.1234 H   0  0  0  0  0  0  0  0  0  0  0  0
   -4.1352   -3.2385   -0.2156 H   0  0  0  0  0  0  0  0  0  0  0  0
   -2.6362   -2.3395    1.0094 C   0  0  0  0  0  0  0  0  0  0  0  0
   -1.8292   -2.8395    1.7814 O   0  0  0  0  0  0  0  0  0  0  0  0
   -2.3832   -1.2445    0.2964 N   0  0  0  0  0  0  0  0  0  0  0  0
   -3.1102   -0.8685   -0.2946 H   0  0  0  0  0  0  0  0  0  0  0  0
   -1.1292   -0.4875    0.3524 C   0  0  1  0  0  0  0  0  0  0  0  0
   -0.9984   -0.1076    1.3663 H   0  0  0  0  0  0  0  0  0  0  0  0
    0.0478   -1.4247    0.0315 C   0  0  0  0  0  0  0  0  0  0  0  0
   -0.1442   -1.9217   -0.9202 H   0  0  0  0  0  0  0  0  0  0  0  0
    0.9528   -0.8269   -0.0889 H   0  0  0  0  0  0  0  0  0  0  0  0
    0.2877   -2.4931    1.0806 C   0  0  0  0  0  0  0  0  0  0  0  0
    1.0016   -2.1876    2.2568 C   0  0  0  0  0  0  0  0  0  0  0  0
    1.4042   -1.1939    2.4029 H   0  0  0  0  0  0  0  0  0  0  0  0
    1.1867   -3.1725    3.2465 C   0  0  0  0  0  0  0  0  0  0  0  0
    1.7353   -2.9355    4.1452 H   0  0  0  0  0  0  0  0  0  0  0  0
    0.6526   -4.4662    3.0606 C   0  0  0  0  0  0  0  0  0  0  0  0
    0.8232   -5.4221    4.0105 O   0  0  0  0  0  0  0  0  0  0  0  0
    1.3989   -5.1293    4.7181 H   0  0  0  0  0  0  0  0  0  0  0  0
   -0.0657   -4.7687    1.8853 C   0  0  0  0  0  0  0  0  0  0  0  0
   -0.4655   -5.7628    1.7527 H   0  0  0  0  0  0  0  0  0  0  0  0
   -0.2452   -3.7835    0.8958 C   0  0  0  0  0  0  0  0  0  0  0  0
   -0.7892   -4.0193   -0.0111 H   0  0  0  0  0  0  0  0  0  0  0  0
   -1.1726    0.7205   -0.5982 C   0  0  0  0  0  0  0  0  0  0  0  0
   -2.2436    1.2742   -0.8484 O   0  0  0  0  0  0  0  0  0  0  0  0
   -0.0128    1.1273   -1.1296 N   0  0  0  0  0  0  0  0  0  0  0  0
    0.8120    0.5837   -0.9207 H   0  0  0  0  0  0  0  0  0  0  0  0
    0.1223    2.2539   -2.0502 C   0  0  0  0  0  0  0  0  0  0  0  0
   -0.3741    3.1329   -1.6354 H   0  0  0  0  0  0  0  0  0  0  0  0
    1.1770    2.4806   -2.2145 H   0  0  0  0  0  0  0  0  0  0  0  0
   -0.3463    2.0063   -3.0049 H   0  0  0  0  0  0  0  0  0  0  0  0
  5  6  2  0  0  0  0
  5  7  1  0  0  0  0
  2  3  1  0  0  0  0
  2  4  1  0  0  0  0
  2  5  1  0  0  0  0
  1  2  1  0  0  0  0
 26 27  2  0  0  0  0
 26 28  1  0  0  0  0
 24 25  1  0  0  0  0
 22 23  1  0  0  0  0
 22 24  2  0  0  0  0
 20 21  1  0  0  0  0
 19 20  1  0  0  0  0
 19 22  1  0  0  0  0
 17 18  1  0  0  0  0
 17 19  2  0  0  0  0
 15 16  1  0  0  0  0
 15 17  1  0  0  0  0
 14 15  2  0  0  0  0
 14 24  1  0  0  0  0
 11 12  1  0  0  0  0
 11 13  1  0  0  0  0
 11 14  1  0  0  0  0
  9 10  1  0  0  0  0
  9 11  1  0  0  0  0
  9 26  1  0  0  0  0
  7  8  1  0  0  0  0
  7  9  1  0  0  0  0
 30 31  1  0  0  0  0
 30 32  1  0  0  0  0
 30 33  1  0  0  0  0
 28 29  1  0  0  0  0
 28 30  1  0  0  0  0
M  END
$$$$
default_name
  -OEChem-01062215323D

 33 33  0     1  0  0  0  0  0999 V2000
   -4.0702   -3.8485    1.4554 H   0  0  0  0  0  0  0  0  0  0  0  0
   -4.0012   -2.9605    0.8284 C   0  0  0  0  0  0  0  0  0  0  0  0
   -4.7652   -2.2435    1.1234 H   0  0  0  0  0  0  0  0  0  0  0  0
   -4.1352   -3.2385   -0.2156 H   0  0  0  0  0  0  0  0  0  0  0  0
   -2.6362   -2.3395    1.0094 C   0  0  0  0  0  0  0  0  0  0  0  0
   -1.8292   -2.8395    1.7814 O   0  0  0  0  0  0  0  0  0  0  0  0
   -2.3832   -1.2445    0.2964 N   0  0  0  0  0  0  0  0  0  0  0  0
   -3.1102   -0.8685   -0.2946 H   0  0  0  0  0  0  0  0  0  0  0  0
   -1.1292   -0.4875    0.3524 C   0  0  1  0  0  0  0  0  0  0  0  0
   -0.9984   -0.1076    1.3663 H   0  0  0  0  0  0  0  0  0  0  0  0
    0.0478   -1.4247    0.0315 C   0  0  0  0  0  0  0  0  0  0  0  0
   -0.1442   -1.9217   -0.9202 H   0  0  0  0  0  0  0  0  0  0  0  0
    0.9528   -0.8269   -0.0889 H   0  0  0  0  0  0  0  0  0  0  0  0
    0.2877   -2.4931    1.0806 C   0  0  0  0  0  0  0  0  0  0  0  0
    1.0016   -2.1876    2.2568 C   0  0  0  0  0  0  0  0  0  0  0  0
    1.4042   -1.1939    2.4029 H   0  0  0  0  0  0  0  0  0  0  0  0
    1.1867   -3.1725    3.2465 C   0  0  0  0  0  0  0  0  0  0  0  0
    1.7353   -2.9355    4.1452 H   0  0  0  0  0  0  0  0  0  0  0  0
    0.6526   -4.4662    3.0606 C   0  0  0  0  0  0  0  0  0  0  0  0
    0.8232   -5.4221    4.0105 O   0  0  0  0  0  0  0  0  0  0  0  0
    1.3989   -5.1293    4.7181 H   0  0  0  0  0  0  0  0  0  0  0  0
   -0.0657   -4.7687    1.8853 C   0  0  0  0  0  0  0  0  0  0  0  0
   -0.4655   -5.7628    1.7527 H   0  0  0  0  0  0  0  0  0  0  0  0
   -0.2452   -3.7835    0.8958 C   0  0  0  0  0  0  0  0  0  0  0  0
   -0.7892   -4.0193   -0.0111 H   0  0  0  0  0  0  0  0  0  0  0  0
   -1.1726    0.7205   -0.5982 C   0  0  0  0  0  0  0  0  0  0  0  0
   -2.1700    1.4415   -0.6392 O   0  0  0  0  0  0  0  0  0  0  0  0
   -0.0959    0.9405   -1.3633 N   0  0  0  0  0  0  0  0  0  0  0  0
    0.6569    0.2694   -1.3129 H   0  0  0  0  0  0  0  0  0  0  0  0
    0.0263    2.0391   -2.3187 C   0  0  0  0  0  0  0  0  0  0  0  0
   -0.2286    2.9827   -1.8330 H   0  0  0  0  0  0  0  0  0  0  0  0
    1.0477    2.0948   -2.6988 H   0  0  0  0  0  0  0  0  0  0  0  0
   -0.6605    1.8789   -3.1524 H   0  0  0  0  0  0  0  0  0  0  0  0
  5  6  2  0  0  0  0
  5  7  1  0  0  0  0
  2  3  1  0  0  0  0
  2  4  1  0  0  0  0
  2  5  1  0  0  0  0
  1  2  1  0  0  0  0
 26 27  2  0  0  0  0
 26 28  1  0  0  0  0
 24 25  1  0  0  0  0
 22 23  1  0  0  0  0
 22 24  2  0  0  0  0
 20 21  1  0  0  0  0
 19 20  1  0  0  0  0
 19 22  1  0  0  0  0
 17 18  1  0  0  0  0
 17 19  2  0  0  0  0
 15 16  1  0  0  0  0
 15 17  1  0  0  0  0
 14 15  2  0  0  0  0
 14 24  1  0  0  0  0
 11 12  1  0  0  0  0
 11 13  1  0  0  0  0
 11 14  1  0  0  0  0
  9 10  1  0  0  0  0
  9 11  1  0  0  0  0
  9 26  1  0  0  0  0
  7  8  1  0  0  0  0
  7  9  1  0  0  0  0
 30 31  1  0  0  0  0
 30 32  1  0  0  0  0
 30 33  1  0  0  0  0
 28 29  1  0  0  0  0
 28 30  1  0  0  0  0
M  END
$$$$
default_name
  -OEChem-01062215323D

 33 33  0     1  0  0  0  0  0999 V2000
   -4.0702   -3.8485    1.4554 H   0  0  0  0  0  0  0  0  0  0  0  0
   -4.0012   -2.9605    0.8284 C   0  0  0  0  0  0  0  0  0  0  0  0
   -4.7652   -2.2435    1.1234 H   0  0  0  0  0  0  0  0  0  0  0  0
   -4.1352   -3.2385   -0.2156 H   0  0  0  0  0  0  0  0  0  0  0  0
   -2.6362   -2.3395    1.0094 C   0  0  0  0  0  0  0  0  0  0  0  0
   -1.8292   -2.8395    1.7814 O   0  0  0  0  0  0  0  0  0  0  0  0
   -2.3832   -1.2445    0.2964 N   0  0  0  0  0  0  0  0  0  0  0  0
   -3.1102   -0.8685   -0.2946 H   0  0  0  0  0  0  0  0  0  0  0  0
   -1.1292   -0.4875    0.3524 C   0  0  1  0  0  0  0  0  0  0  0  0
   -0.9984   -0.1076    1.3663 H   0  0  0  0  0  0  0  0  0  0  0  0
    0.0478   -1.4247    0.0315 C   0  0  0  0  0  0  0  0  0  0  0  0
   -0.1442   -1.9217   -0.9202 H   0  0  0  0  0  0  0  0  0  0  0  0
    0.9528   -0.8269   -0.0889 H   0  0  0  0  0  0  0  0  0  0  0  0
    0.2877   -2.4931    1.0806 C   0  0  0  0  0  0  0  0  0  0  0  0
    1.0016   -2.1876    2.2568 C   0  0  0  0  0  0  0  0  0  0  0  0
    1.4042   -1.1939    2.4029 H   0  0  0  0  0  0  0  0  0  0  0  0
    1.1867   -3.1725    3.2465 C   0  0  0  0  0  0  0  0  0  0  0  0
    1.7353   -2.9355    4.1452 H   0  0  0  0  0  0  0  0  0  0  0  0
    0.6526   -4.4662    3.0606 C   0  0  0  0  0  0  0  0  0  0  0  0
    0.8232   -5.4221    4.0105 O   0  0  0  0  0  0  0  0  0  0  0  0
    1.3989   -5.1293    4.7181 H   0  0  0  0  0  0  0  0  0  0  0  0
   -0.0657   -4.7687    1.8853 C   0  0  0  0  0  0  0  0  0  0  0  0
   -0.4655   -5.7628    1.7527 H   0  0  0  0  0  0  0  0  0  0  0  0
   -0.2452   -3.7835    0.8958 C   0  0  0  0  0  0  0  0  0  0  0  0
   -0.7892   -4.0193   -0.0111 H   0  0  0  0  0  0  0  0  0  0  0  0
   -1.1726    0.7205   -0.5982 C   0  0  0  0  0  0  0  0  0  0  0  0
   -2.0296    1.5928   -0.4534 O   0  0  0  0  0  0  0  0  0  0  0  0
   -0.2535    0.7716   -1.5707 N   0  0  0  0  0  0  0  0  0  0  0  0
    0.3770   -0.0122   -1.6580 H   0  0  0  0  0  0  0  0  0  0  0  0
   -0.1554    1.8451   -2.5569 C   0  0  0  0  0  0  0  0  0  0  0  0
   -0.1523    2.8128   -2.0524 H   0  0  0  0  0  0  0  0  0  0  0  0
    0.7626    1.7394   -3.1374 H   0  0  0  0  0  0  0  0  0  0  0  0
   -1.0142    1.8051   -3.2301 H   0  0  0  0  0  0  0  0  0  0  0  0
  5  6  2  0  0  0  0
  5  7  1  0  0  0  0
  2  3  1  0  0  0  0
  2  4  1  0  0  0  0
  2  5  1  0  0  0  0
  1  2  1  0  0  0  0
 26 27  2  0  0  0  0
 26 28  1  0  0  0  0
 24 25  1  0  0  0  0
 22 23  1  0  0  0  0
 22 24  2  0  0  0  0
 20 21  1  0  0  0  0
 19 20  1  0  0  0  0
 19 22  1  0  0  0  0
 17 18  1  0  0  0  0
 17 19  2  0  0  0  0
 15 16  1  0  0  0  0
 15 17  1  0  0  0  0
 14 15  2  0  0  0  0
 14 24  1  0  0  0  0
 11 12  1  0  0  0  0
 11 13  1  0  0  0  0
 11 14  1  0  0  0  0
  9 10  1  0  0  0  0
  9 11  1  0  0  0  0
  9 26  1  0  0  0  0
  7  8  1  0  0  0  0
  7  9  1  0  0  0  0
 30 31  1  0  0  0  0
 30 32  1  0  0  0  0
 30 33  1  0  0  0  0
 28 29  1  0  0  0  0
 28 30  1  0  0  0  0
M  END
$$$$
default_name
  -OEChem-01062215323D

 33 33  0     1  0  0  0  0  0999 V2000
   -4.0702   -3.8485    1.4554 H   0  0  0  0  0  0  0  0  0  0  0  0
   -4.0012   -2.9605    0.8284 C   0  0  0  0  0  0  0  0  0  0  0  0
   -4.7652   -2.2435    1.1234 H   0  0  0  0  0  0  0  0  0  0  0  0
   -4.1352   -3.2385   -0.2156 H   0  0  0  0  0  0  0  0  0  0  0  0
   -2.6362   -2.3395    1.0094 C   0  0  0  0  0  0  0  0  0  0  0  0
   -1.8292   -2.8395    1.7814 O   0  0  0  0  0  0  0  0  0  0  0  0
   -2.3832   -1.2445    0.2964 N   0  0  0  0  0  0  0  0  0  0  0  0
   -3.1102   -0.8685   -0.2946 H   0  0  0  0  0  0  0  0  0  0  0  0
   -1.1292   -0.4875    0.3524 C   0  0  1  0  0  0  0  0  0  0  0  0
   -0.9984   -0.1076    1.3663 H   0  0  0  0  0  0  0  0  0  0  0  0
    0.0478   -1.4247    0.0315 C   0  0  0  0  0  0  0  0  0  0  0  0
   -0.1442   -1.9217   -0.9202 H   0  0  0  0  0  0  0  0  0  0  0  0
    0.9528   -0.8269   -0.0889 H   0  0  0  0  0  0  0  0  0  0  0  0
    0.2877   -2.4931    1.0806 C   0  0  0  0  0  0  0  0  0  0  0  0
    1.0016   -2.1876    2.2568 C   0  0  0  0  0  0  0  0  0  0  0  0
    1.4042   -1.1939    2.4029 H   0  0  0  0  0  0  0  0  0  0  0  0
    1.1867   -3.1725    3.2465 C   0  0  0  0  0  0  0  0  0  0  0  0
    1.7353   -2.9355    4.1452 H   0  0  0  0  0  0  0  0  0  0  0  0
    0.6526   -4.4662    3.0606 C   0  0  0  0  0  0  0  0  0  0  0  0
    0.8232   -5.4221    4.0105 O   0  0  0  0  0  0  0  0  0  0  0  0
    1.3989   -5.1293    4.7181 H   0  0  0  0  0  0  0  0  0  0  0  0
   -0.0657   -4.7687    1.8853 C   0  0  0  0  0  0  0  0  0  0  0  0
   -0.4655   -5.7628    1.7527 H   0  0  0  0  0  0  0  0  0  0  0  0
   -0.2452   -3.7835    0.8958 C   0  0  0  0  0  0  0  0  0  0  0  0
   -0.7892   -4.0193   -0.0111 H   0  0  0  0  0  0  0  0  0  0  0  0
   -1.1726    0.7205   -0.5982 C   0  0  0  0  0  0  0  0  0  0  0  0
   -1.8320    1.7178   -0.3035 O   0  0  0  0  0  0  0  0  0  0  0  0
   -0.4750    0.6322   -1.7377 N   0  0  0  0  0  0  0  0  0  0  0  0
   -0.0085   -0.2419   -1.9324 H   0  0  0  0  0  0  0  0  0  0  0  0
   -0.4103    1.6850   -2.7488 C   0  0  0  0  0  0  0  0  0  0  0  0
   -0.1504    2.6349   -2.2785 H   0  0  0  0  0  0  0  0  0  0  0  0
    0.3412    1.4385   -3.5006 H   0  0  0  0  0  0  0  0  0  0  0  0
   -1.3836    1.7898   -3.2327 H   0  0  0  0  0  0  0  0  0  0  0  0
  5  6  2  0  0  0  0
  5  7  1  0  0  0  0
  2  3  1  0  0  0  0
  2  4  1  0  0  0  0
  2  5  1  0  0  0  0
  1  2  1  0  0  0  0
 26 27  2  0  0  0  0
 26 28  1  0  0  0  0
 24 25  1  0  0  0  0
 22 23  1  0  0  0  0
 22 24  2  0  0  0  0
 20 21  1  0  0  0  0
 19 20  1  0  0  0  0
 19 22  1  0  0  0  0
 17 18  1  0  0  0  0
 17 19  2  0  0  0  0
 15 16  1  0  0  0  0
 15 17  1  0  0  0  0
 14 15  2  0  0  0  0
 14 24  1  0  0  0  0
 11 12  1  0  0  0  0
 11 13  1  0  0  0  0
 11 14  1  0  0  0  0
  9 10  1  0  0  0  0
  9 11  1  0  0  0  0
  9 26  1  0  0  0  0
  7  8  1  0  0  0  0
  7  9  1  0  0  0  0
 30 31  1  0  0  0  0
 30 32  1  0  0  0  0
 30 33  1  0  0  0  0
 28 29  1  0  0  0  0
 28 30  1  0  0  0  0
M  END
$$$$
default_name
  -OEChem-01062215323D

 33 33  0     1  0  0  0  0  0999 V2000
   -4.0702   -3.8485    1.4554 H   0  0  0  0  0  0  0  0  0  0  0  0
   -4.0012   -2.9605    0.8284 C   0  0  0  0  0  0  0  0  0  0  0  0
   -4.7652   -2.2435    1.1234 H   0  0  0  0  0  0  0  0  0  0  0  0
   -4.1352   -3.2385   -0.2156 H   0  0  0  0  0  0  0  0  0  0  0  0
   -2.6362   -2.3395    1.0094 C   0  0  0  0  0  0  0  0  0  0  0  0
   -1.8292   -2.8395    1.7814 O   0  0  0  0  0  0  0  0  0  0  0  0
   -2.3832   -1.2445    0.2964 N   0  0  0  0  0  0  0  0  0  0  0  0
   -3.1102   -0.8685   -0.2946 H   0  0  0  0  0  0  0  0  0  0  0  0
   -1.1292   -0.4875    0.3524 C   0  0  1  0  0  0  0  0  0  0  0  0
   -0.9984   -0.1076    1.3663 H   0  0  0  0  0  0  0  0  0  0  0  0
    0.0478   -1.4247    0.0315 C   0  0  0  0  0  0  0  0  0  0  0  0
   -0.1442   -1.9217   -0.9202 H   0  0  0  0  0  0  0  0  0  0  0  0
    0.9528   -0.8269   -0.0889 H   0  0  0  0  0  0  0  0  0  0  0  0
    0.2877   -2.4931    1.0806 C   0  0  0  0  0  0  0  0  0  0  0  0
    1.0016   -2.1876    2.2568 C   0  0  0  0  0  0  0  0  0  0  0  0
    1.4042   -1.1939    2.4029 H   0  0  0  0  0  0  0  0  0  0  0  0
    1.1867   -3.1725    3.2465 C   0  0  0  0  0  0  0  0  0  0  0  0
    1.7353   -2.9355    4.1452 H   0  0  0  0  0  0  0  0  0  0  0  0
    0.6526   -4.4662    3.0606 C   0  0  0  0  0  0  0  0  0  0  0  0
    0.8232   -5.4221    4.0105 O   0  0  0  0  0  0  0  0  0  0  0  0
    1.3989   -5.1293    4.7181 H   0  0  0  0  0  0  0  0  0  0  0  0
   -0.0657   -4.7687    1.8853 C   0  0  0  0  0  0  0  0  0  0  0  0
   -0.4655   -5.7628    1.7527 H   0  0  0  0  0  0  0  0  0  0  0  0
   -0.2452   -3.7835    0.8958 C   0  0  0  0  0  0  0  0  0  0  0  0
   -0.7892   -4.0193   -0.0111 H   0  0  0  0  0  0  0  0  0  0  0  0
   -1.1726    0.7205   -0.5982 C   0  0  0  0  0  0  0  0  0  0  0  0
   -1.5907    1.8080   -0.1998 O   0  0  0  0  0  0  0  0  0  0  0  0
   -0.7452    0.5317   -1.8531 N   0  0  0  0  0  0  0  0  0  0  0  0
   -0.4734   -0.4042   -2.1173 H   0  0  0  0  0  0  0  0  0  0  0  0
   -0.7212    1.5697   -2.8810 C   0  0  0  0  0  0  0  0  0  0  0  0
   -0.2229    2.4611   -2.4960 H   0  0  0  0  0  0  0  0  0  0  0  0
   -0.1878    1.2126   -3.7635 H   0  0  0  0  0  0  0  0  0  0  0  0
   -1.7433    1.8341   -3.1599 H   0  0  0  0  0  0  0  0  0  0  0  0
  5  6  2  0  0  0  0
  5  7  1  0  0  0  0
  2  3  1  0  0  0  0
  2  4  1  0  0  0  0
  2  5  1  0  0  0  0
  1  2  1  0  0  0  0
 26 27  2  0  0  0  0
 26 28  1  0  0  0  0
 24 25  1  0  0  0  0
 22 23  1  0  0  0  0
 22 24  2  0  0  0  0
 20 21  1  0  0  0  0
 19 20  1  0  0  0  0
 19 22  1  0  0  0  0
 17 18  1  0  0  0  0
 17 19  2  0  0  0  0
 15 16  1  0  0  0  0
 15 17  1  0  0  0  0
 14 15  2  0  0  0  0
 14 24  1  0  0  0  0
 11 12  1  0  0  0  0
 11 13  1  0  0  0  0
 11 14  1  0  0  0  0
  9 10  1  0  0  0  0
  9 11  1  0  0  0  0
  9 26  1  0  0  0  0
  7  8  1  0  0  0  0
  7  9  1  0  0  0  0
 30 31  1  0  0  0  0
 30 32  1  0  0  0  0
 30 33  1  0  0  0  0
 28 29  1  0  0  0  0
 28 30  1  0  0  0  0
M  END
$$$$
default_name
  -OEChem-01062215323D

 33 33  0     1  0  0  0  0  0999 V2000
   -4.0702   -3.8485    1.4554 H   0  0  0  0  0  0  0  0  0  0  0  0
   -4.0012   -2.9605    0.8284 C   0  0  0  0  0  0  0  0  0  0  0  0
   -4.7652   -2.2435    1.1234 H   0  0  0  0  0  0  0  0  0  0  0  0
   -4.1352   -3.2385   -0.2156 H   0  0  0  0  0  0  0  0  0  0  0  0
   -2.6362   -2.3395    1.0094 C   0  0  0  0  0  0  0  0  0  0  0  0
   -1.8292   -2.8395    1.7814 O   0  0  0  0  0  0  0  0  0  0  0  0
   -2.3832   -1.2445    0.2964 N   0  0  0  0  0  0  0  0  0  0  0  0
   -3.1102   -0.8685   -0.2946 H   0  0  0  0  0  0  0  0  0  0  0  0
   -1.1292   -0.4875    0.3524 C   0  0  1  0  0  0  0  0  0  0  0  0
   -0.9984   -0.1076    1.3663 H   0  0  0  0  0  0  0  0  0  0  0  0
    0.0478   -1.4247    0.0315 C   0  0  0  0  0  0  0  0  0  0  0  0
   -0.1442   -1.9217   -0.9202 H   0  0  0  0  0  0  0  0  0  0  0  0
    0.9528   -0.8269   -0.0889 H   0  0  0  0  0  0  0  0  0  0  0  0
    0.2877   -2.4931    1.0806 C   0  0  0  0  0  0  0  0  0  0  0  0
    1.0016   -2.1876    2.2568 C   0  0  0  0  0  0  0  0  0  0  0  0
    1.4042   -1.1939    2.4029 H   0  0  0  0  0  0  0  0  0  0  0  0
    1.1867   -3.1725    3.2465 C   0  0  0  0  0  0  0  0  0  0  0  0
    1.7353   -2.9355    4.1452 H   0  0  0  0  0  0  0  0  0  0  0  0
    0.6526   -4.4662    3.0606 C   0  0  0  0  0  0  0  0  0  0  0  0
    0.8232   -5.4221    4.0105 O   0  0  0  0  0  0  0  0  0  0  0  0
    1.3989   -5.1293    4.7181 H   0  0  0  0  0  0  0  0  0  0  0  0
   -0.0657   -4.7687    1.8853 C   0  0  0  0  0  0  0  0  0  0  0  0
   -0.4655   -5.7628    1.7527 H   0  0  0  0  0  0  0  0  0  0  0  0
   -0.2452   -3.7835    0.8958 C   0  0  0  0  0  0  0  0  0  0  0  0
   -0.7892   -4.0193   -0.0111 H   0  0  0  0  0  0  0  0  0  0  0  0
   -1.1726    0.7205   -0.5982 C   0  0  0  0  0  0  0  0  0  0  0  0
   -1.3220    1.8574   -0.1494 O   0  0  0  0  0  0  0  0  0  0  0  0
   -1.0457    0.4770   -1.9088 N   0  0  0  0  0  0  0  0  0  0  0  0
   -0.9861   -0.4879   -2.2003 H   0  0  0  0  0  0  0  0  0  0  0  0
   -1.0668    1.5072   -2.9447 C   0  0  0  0  0  0  0  0  0  0  0  0
   -0.3651    2.3033   -2.6901 H   0  0  0  0  0  0  0  0  0  0  0  0
   -0.7884    1.0771   -3.9082 H   0  0  0  0  0  0  0  0  0  0  0  0
   -2.0689    1.9350   -3.0169 H   0  0  0  0  0  0  0  0  0  0  0  0
  5  6  2  0  0  0  0
  5  7  1  0  0  0  0
  2  3  1  0  0  0  0
  2  4  1  0  0  0  0
  2  5  1  0  0  0  0
  1  2  1  0  0  0  0
 26 27  2  0  0  0  0
 26 28  1  0  0  0  0
 24 25  1  0  0  0  0
 22 23  1  0  0  0  0
 22 24  2  0  0  0  0
 20 21  1  0  0  0  0
 19 20  1  0  0  0  0
 19 22  1  0  0  0  0
 17 18  1  0  0  0  0
 17 19  2  0  0  0  0
 15 16  1  0  0  0  0
 15 17  1  0  0  0  0
 14 15  2  0  0  0  0
 14 24  1  0  0  0  0
 11 12  1  0  0  0  0
 11 13  1  0  0  0  0
 11 14  1  0  0  0  0
  9 10  1  0  0  0  0
  9 11  1  0  0  0  0
  9 26  1  0  0  0  0
  7  8  1  0  0  0  0
  7  9  1  0  0  0  0
 30 31  1  0  0  0  0
 30 32  1  0  0  0  0
 30 33  1  0  0  0  0
 28 29  1  0  0  0  0
 28 30  1  0  0  0  0
M  END
$$$$
default_name
  -OEChem-01062215323D

 33 33  0     1  0  0  0  0  0999 V2000
   -4.0702   -3.8485    1.4554 H   0  0  0  0  0  0  0  0  0  0  0  0
   -4.0012   -2.9605    0.8284 C   0  0  0  0  0  0  0  0  0  0  0  0
   -4.7652   -2.2435    1.1234 H   0  0  0  0  0  0  0  0  0  0  0  0
   -4.1352   -3.2385   -0.2156 H   0  0  0  0  0  0  0  0  0  0  0  0
   -2.6362   -2.3395    1.0094 C   0  0  0  0  0  0  0  0  0  0  0  0
   -1.8292   -2.8395    1.7814 O   0  0  0  0  0  0  0  0  0  0  0  0
   -2.3832   -1.2445    0.2964 N   0  0  0  0  0  0  0  0  0  0  0  0
   -3.1102   -0.8685   -0.2946 H   0  0  0  0  0  0  0  0  0  0  0  0
   -1.1292   -0.4875    0.3524 C   0  0  1  0  0  0  0  0  0  0  0  0
   -0.9984   -0.1076    1.3663 H   0  0  0  0  0  0  0  0  0  0  0  0
    0.0478   -1.4247    0.0315 C   0  0  0  0  0  0  0  0  0  0  0  0
   -0.1442   -1.9217   -0.9202 H   0  0  0  0  0  0  0  0  0  0  0  0
    0.9528   -0.8269   -0.0889 H   0  0  0  0  0  0  0  0  0  0  0  0
    0.2877   -2.4931    1.0806 C   0  0  0  0  0  0  0  0  0  0  0  0
    1.0016   -2.1876    2.2568 C   0  0  0  0  0  0  0  0  0  0  0  0
    1.4042   -1.1939    2.4029 H   0  0  0  0  0  0  0  0  0  0  0  0
    1.1867   -3.1725    3.2465 C   0  0  0  0  0  0  0  0  0  0  0  0
    1.7353   -2.9355    4.1452 H   0  0  0  0  0  0  0  0  0  0  0  0
    0.6526   -4.4662    3.0606 C   0  0  0  0  0  0  0  0  0  0  0  0
    0.8232   -5.4221    4.0105 O   0  0  0  0  0  0  0  0  0  0  0  0
    1.3989   -5.1293    4.7181 H   0  0  0  0  0  0  0  0  0  0  0  0
   -0.0657   -4.7687    1.8853 C   0  0  0  0  0  0  0  0  0  0  0  0
   -0.4655   -5.7628    1.7527 H   0  0  0  0  0  0  0  0  0  0  0  0
   -0.2452   -3.7835    0.8958 C   0  0  0  0  0  0  0  0  0  0  0  0
   -0.7892   -4.0193   -0.0111 H   0  0  0  0  0  0  0  0  0  0  0  0
   -1.1726    0.7205   -0.5982 C   0  0  0  0  0  0  0  0  0  0  0  0
   -1.0444    1.8624   -0.1557 O   0  0  0  0  0  0  0  0  0  0  0  0
   -1.3560    0.4719   -1.9011 N   0  0  0  0  0  0  0  0  0  0  0  0
   -1.5115   -0.4873   -2.1755 H   0  0  0  0  0  0  0  0  0  0  0  0
   -1.4236    1.5016   -2.9355 C   0  0  0  0  0  0  0  0  0  0  0  0
   -0.5671    2.1721   -2.8475 H   0  0  0  0  0  0  0  0  0  0  0  0
   -1.4196    1.0413   -3.9249 H   0  0  0  0  0  0  0  0  0  0  0  0
   -2.3382    2.0855   -2.8132 H   0  0  0  0  0  0  0  0  0  0  0  0
  5  6  2  0  0  0  0
  5  7  1  0  0  0  0
  2  3  1  0  0  0  0
  2  4  1  0  0  0  0
  2  5  1  0  0  0  0
  1  2  1  0  0  0  0
 26 27  2  0  0  0  0
 26 28  1  0  0  0  0
 24 25  1  0  0  0  0
 22 23  1  0  0  0  0
 22 24  2  0  0  0  0
 20 21  1  0  0  0  0
 19 20  1  0  0  0  0
 19 22  1  0  0  0  0
 17 18  1  0  0  0  0
 17 19  2  0  0  0  0
 15 16  1  0  0  0  0
 15 17  1  0  0  0  0
 14 15  2  0  0  0  0
 14 24  1  0  0  0  0
 11 12  1  0  0  0  0
 11 13  1  0  0  0  0
 11 14  1  0  0  0  0
  9 10  1  0  0  0  0
  9 11  1  0  0  0  0
  9 26  1  0  0  0  0
  7  8  1  0  0  0  0
  7  9  1  0  0  0  0
 30 31  1  0  0  0  0
 30 32  1  0  0  0  0
 30 33  1  0  0  0  0
 28 29  1  0  0  0  0
 28 30  1  0  0  0  0
M  END
$$$$
default_name
  -OEChem-01062215323D

 33 33  0     1  0  0  0  0  0999 V2000
   -4.0702   -3.8485    1.4554 H   0  0  0  0  0  0  0  0  0  0  0  0
   -4.0012   -2.9605    0.8284 C   0  0  0  0  0  0  0  0  0  0  0  0
   -4.7652   -2.2435    1.1234 H   0  0  0  0  0  0  0  0  0  0  0  0
   -4.1352   -3.2385   -0.2156 H   0  0  0  0  0  0  0  0  0  0  0  0
   -2.6362   -2.3395    1.0094 C   0  0  0  0  0  0  0  0  0  0  0  0
   -1.8292   -2.8395    1.7814 O   0  0  0  0  0  0  0  0  0  0  0  0
   -2.3832   -1.2445    0.2964 N   0  0  0  0  0  0  0  0  0  0  0  0
   -3.1102   -0.8685   -0.2946 H   0  0  0  0  0  0  0  0  0  0  0  0
   -1.1292   -0.4875    0.3524 C   0  0  1  0  0  0  0  0  0  0  0  0
   -0.9984   -0.1076    1.3663 H   0  0  0  0  0  0  0  0  0  0  0  0
    0.0478   -1.4247    0.0315 C   0  0  0  0  0  0  0  0  0  0  0  0
   -0.1442   -1.9217   -0.9202 H   0  0  0  0  0  0  0  0  0  0  0  0
    0.9528   -0.8269   -0.0889 H   0  0  0  0  0  0  0  0  0  0  0  0
    0.2877   -2.4931    1.0806 C   0  0  0  0  0  0  0  0  0  0  0  0
    1.0016   -2.1876    2.2568 C   0  0  0  0  0  0  0  0  0  0  0  0
    1.4042   -1.1939    2.4029 H   0  0  0  0  0  0  0  0  0  0  0  0
    1.1867   -3.1725    3.2465 C   0  0  0  0  0  0  0  0  0  0  0  0
    1.7353   -2.9355    4.1452 H   0  0  0  0  0  0  0  0  0  0  0  0
    0.6526   -4.4662    3.0606 C   0  0  0  0  0  0  0  0  0  0  0  0
    0.8232   -5.4221    4.0105 O   0  0  0  0  0  0  0  0  0  0  0  0
    1.3989   -5.1293    4.7181 H   0  0  0  0  0  0  0  0  0  0  0  0
   -0.0657   -4.7687    1.8853 C   0  0  0  0  0  0  0  0  0  0  0  0
   -0.4655   -5.7628    1.7527 H   0  0  0  0  0  0  0  0  0  0  0  0
   -0.2452   -3.7835    0.8958 C   0  0  0  0  0  0  0  0  0  0  0  0
   -0.7892   -4.0193   -0.0111 H   0  0  0  0  0  0  0  0  0  0  0  0
   -1.1726    0.7205   -0.5982 C   0  0  0  0  0  0  0  0  0  0  0  0
   -0.7767    1.8228   -0.2182 O   0  0  0  0  0  0  0  0  0  0  0  0
   -1.6550    0.5167   -1.8306 N   0  0  0  0  0  0  0  0  0  0  0  0
   -2.0139   -0.4025   -2.0448 H   0  0  0  0  0  0  0  0  0  0  0  0
   -1.7673    1.5533   -2.8541 C   0  0  0  0  0  0  0  0  0  0  0  0
   -0.8152    2.0766   -2.9575 H   0  0  0  0  0  0  0  0  0  0  0  0
   -2.0385    1.1075   -3.8125 H   0  0  0  0  0  0  0  0  0  0  0  0
   -2.5328    2.2756   -2.5629 H   0  0  0  0  0  0  0  0  0  0  0  0
  5  6  2  0  0  0  0
  5  7  1  0  0  0  0
  2  3  1  0  0  0  0
  2  4  1  0  0  0  0
  2  5  1  0  0  0  0
  1  2  1  0  0  0  0
 26 27  2  0  0  0  0
 26 28  1  0  0  0  0
 24 25  1  0  0  0  0
 22 23  1  0  0  0  0
 22 24  2  0  0  0  0
 20 21  1  0  0  0  0
 19 20  1  0  0  0  0
 19 22  1  0  0  0  0
 17 18  1  0  0  0  0
 17 19  2  0  0  0  0
 15 16  1  0  0  0  0
 15 17  1  0  0  0  0
 14 15  2  0  0  0  0
 14 24  1  0  0  0  0
 11 12  1  0  0  0  0
 11 13  1  0  0  0  0
 11 14  1  0  0  0  0
  9 10  1  0  0  0  0
  9 11  1  0  0  0  0
  9 26  1  0  0  0  0
  7  8  1  0  0  0  0
  7  9  1  0  0  0  0
 30 31  1  0  0  0  0
 30 32  1  0  0  0  0
 30 33  1  0  0  0  0
 28 29  1  0  0  0  0
 28 30  1  0  0  0  0
M  END
$$$$
default_name
  -OEChem-01062215323D

 33 33  0     1  0  0  0  0  0999 V2000
   -4.0702   -3.8485    1.4554 H   0  0  0  0  0  0  0  0  0  0  0  0
   -4.0012   -2.9605    0.8284 C   0  0  0  0  0  0  0  0  0  0  0  0
   -4.7652   -2.2435    1.1234 H   0  0  0  0  0  0  0  0  0  0  0  0
   -4.1352   -3.2385   -0.2156 H   0  0  0  0  0  0  0  0  0  0  0  0
   -2.6362   -2.3395    1.0094 C   0  0  0  0  0  0  0  0  0  0  0  0
   -1.8292   -2.8395    1.7814 O   0  0  0  0  0  0  0  0  0  0  0  0
   -2.3832   -1.2445    0.2964 N   0  0  0  0  0  0  0  0  0  0  0  0
   -3.1102   -0.8685   -0.2946 H   0  0  0  0  0  0  0  0  0  0  0  0
   -1.1292   -0.4875    0.3524 C   0  0  1  0  0  0  0  0  0  0  0  0
   -0.9984   -0.1076    1.3663 H   0  0  0  0  0  0  0  0  0  0  0  0
    0.0478   -1.4247    0.0315 C   0  0  0  0  0  0  0  0  0  0  0  0
   -0.1442   -1.9217   -0.9202 H   0  0  0  0  0  0  0  0  0  0  0  0
    0.9528   -0.8269   -0.0889 H   0  0  0  0  0  0  0  0  0  0  0  0
    0.2877   -2.4931    1.0806 C   0  0  0  0  0  0  0  0  0  0  0  0
    1.0016   -2.1876    2.2568 C   0  0  0  0  0  0  0  0  0  0  0  0
    1.4042   -1.1939    2.4029 H   0  0  0  0  0  0  0  0  0  0  0  0
    1.1867   -3.1725    3.2465 C   0  0  0  0  0  0  0  0  0  0  0  0
    1.7353   -2.9355    4.1452 H   0  0  0  0  0  0  0  0  0  0  0  0
    0.6526   -4.4662    3.0606 C   0  0  0  0  0  0  0  0  0  0  0  0
    0.8232   -5.4221    4.0105 O   0  0  0  0  0  0  0  0  0  0  0  0
    1.3989   -5.1293    4.7181 H   0  0  0  0  0  0  0  0  0  0  0  0
   -0.0657   -4.7687    1.8853 C   0  0  0  0  0  0  0  0  0  0  0  0
   -0.4655   -5.7628    1.7527 H   0  0  0  0  0  0  0  0  0  0  0  0
   -0.2452   -3.7835    0.8958 C   0  0  0  0  0  0  0  0  0  0  0  0
   -0.7892   -4.0193   -0.0111 H   0  0  0  0  0  0  0  0  0  0  0  0
   -1.1726    0.7205   -0.5982 C   0  0  0  0  0  0  0  0  0  0  0  0
   -0.5371    1.7412   -0.3328 O   0  0  0  0  0  0  0  0  0  0  0  0
   -1.9224    0.6083   -1.7020 N   0  0  0  0  0  0  0  0  0  0  0  0
   -2.4591   -0.2392   -1.8170 H   0  0  0  0  0  0  0  0  0  0  0  0
   -2.0744    1.6589   -2.7059 C   0  0  0  0  0  0  0  0  0  0  0  0
   -1.0925    2.0233   -3.0127 H   0  0  0  0  0  0  0  0  0  0  0  0
   -2.6028    1.2714   -3.5785 H   0  0  0  0  0  0  0  0  0  0  0  0
   -2.6395    2.4921   -2.2829 H   0  0  0  0  0  0  0  0  0  0  0  0
  5  6  2  0  0  0  0
  5  7  1  0  0  0  0
  2  3  1  0  0  0  0
  2  4  1  0  0  0  0
  2  5  1  0  0  0  0
  1  2  1  0  0  0  0
 26 27  2  0  0  0  0
 26 28  1  0  0  0  0
 24 25  1  0  0  0  0
 22 23  1  0  0  0  0
 22 24  2  0  0  0  0
 20 21  1  0  0  0  0
 19 20  1  0  0  0  0
 19 22  1  0  0  0  0
 17 18  1  0  0  0  0
 17 19  2  0  0  0  0
 15 16  1  0  0  0  0
 15 17  1  0  0  0  0
 14 15  2  0  0  0  0
 14 24  1  0  0  0  0
 11 12  1  0  0  0  0
 11 13  1  0  0  0  0
 11 14  1  0  0  0  0
  9 10  1  0  0  0  0
  9 11  1  0  0  0  0
  9 26  1  0  0  0  0
  7  8  1  0  0  0  0
  7  9  1  0  0  0  0
 30 31  1  0  0  0  0
 30 32  1  0  0  0  0
 30 33  1  0  0  0  0
 28 29  1  0  0  0  0
 28 30  1  0  0  0  0
M  END
$$$$
default_name
  -OEChem-01062215323D

 33 33  0     1  0  0  0  0  0999 V2000
   -4.0702   -3.8485    1.4554 H   0  0  0  0  0  0  0  0  0  0  0  0
   -4.0012   -2.9605    0.8284 C   0  0  0  0  0  0  0  0  0  0  0  0
   -4.7652   -2.2435    1.1234 H   0  0  0  0  0  0  0  0  0  0  0  0
   -4.1352   -3.2385   -0.2156 H   0  0  0  0  0  0  0  0  0  0  0  0
   -2.6362   -2.3395    1.0094 C   0  0  0  0  0  0  0  0  0  0  0  0
   -1.8292   -2.8395    1.7814 O   0  0  0  0  0  0  0  0  0  0  0  0
   -2.3832   -1.2445    0.2964 N   0  0  0  0  0  0  0  0  0  0  0  0
   -3.1102   -0.8685   -0.2946 H   0  0  0  0  0  0  0  0  0  0  0  0
   -1.1292   -0.4875    0.3524 C   0  0  1  0  0  0  0  0  0  0  0  0
   -0.9984   -0.1076    1.3663 H   0  0  0  0  0  0  0  0  0  0  0  0
    0.0478   -1.4247    0.0315 C   0  0  0  0  0  0  0  0  0  0  0  0
   -0.1442   -1.9217   -0.9202 H   0  0  0  0  0  0  0  0  0  0  0  0
    0.9528   -0.8269   -0.0889 H   0  0  0  0  0  0  0  0  0  0  0  0
    0.2877   -2.4931    1.0806 C   0  0  0  0  0  0  0  0  0  0  0  0
    1.0016   -2.1876    2.2568 C   0  0  0  0  0  0  0  0  0  0  0  0
    1.4042   -1.1939    2.4029 H   0  0  0  0  0  0  0  0  0  0  0  0
    1.1867   -3.1725    3.2465 C   0  0  0  0  0  0  0  0  0  0  0  0
    1.7353   -2.9355    4.1452 H   0  0  0  0  0  0  0  0  0  0  0  0
    0.6526   -4.4662    3.0606 C   0  0  0  0  0  0  0  0  0  0  0  0
    0.8232   -5.4221    4.0105 O   0  0  0  0  0  0  0  0  0  0  0  0
    1.3989   -5.1293    4.7181 H   0  0  0  0  0  0  0  0  0  0  0  0
   -0.0657   -4.7687    1.8853 C   0  0  0  0  0  0  0  0  0  0  0  0
   -0.4655   -5.7628    1.7527 H   0  0  0  0  0  0  0  0  0  0  0  0
   -0.2452   -3.7835    0.8958 C   0  0  0  0  0  0  0  0  0  0  0  0
   -0.7892   -4.0193   -0.0111 H   0  0  0  0  0  0  0  0  0  0  0  0
   -1.1726    0.7205   -0.5982 C   0  0  0  0  0  0  0  0  0  0  0  0
   -0.3421    1.6233   -0.4916 O   0  0  0  0  0  0  0  0  0  0  0  0
   -2.1398    0.7404   -1.5241 N   0  0  0  0  0  0  0  0  0  0  0  0
   -2.8166   -0.0086   -1.5077 H   0  0  0  0  0  0  0  0  0  0  0  0
   -2.3241    1.8111   -2.5011 C   0  0  0  0  0  0  0  0  0  0  0  0
   -1.3801    2.0157   -3.0092 H   0  0  0  0  0  0  0  0  0  0  0  0
   -3.0741    1.5216   -3.2390 H   0  0  0  0  0  0  0  0  0  0  0  0
   -2.6509    2.7203   -1.9923 H   0  0  0  0  0  0  0  0  0  0  0  0
  5  6  2  0  0  0  0
  5  7  1  0  0  0  0
  2  3  1  0  0  0  0
  2  4  1  0  0  0  0
  2  5  1  0  0  0  0
  1  2  1  0  0  0  0
 26 27  2  0  0  0  0
 26 28  1  0  0  0  0
 24 25  1  0  0  0  0
 22 23  1  0  0  0  0
 22 24  2  0  0  0  0
 20 21  1  0  0  0  0
 19 20  1  0  0  0  0
 19 22  1  0  0  0  0
 17 18  1  0  0  0  0
 17 19  2  0  0  0  0
 15 16  1  0  0  0  0
 15 17  1  0  0  0  0
 14 15  2  0  0  0  0
 14 24  1  0  0  0  0
 11 12  1  0  0  0  0
 11 13  1  0  0  0  0
 11 14  1  0  0  0  0
  9 10  1  0  0  0  0
  9 11  1  0  0  0  0
  9 26  1  0  0  0  0
  7  8  1  0  0  0  0
  7  9  1  0  0  0  0
 30 31  1  0  0  0  0
 30 32  1  0  0  0  0
 30 33  1  0  0  0  0
 28 29  1  0  0  0  0
 28 30  1  0  0  0  0
M  END
$$$$
default_name
  -OEChem-01062215323D

 33 33  0     1  0  0  0  0  0999 V2000
   -4.0702   -3.8485    1.4554 H   0  0  0  0  0  0  0  0  0  0  0  0
   -4.0012   -2.9605    0.8284 C   0  0  0  0  0  0  0  0  0  0  0  0
   -4.7652   -2.2435    1.1234 H   0  0  0  0  0  0  0  0  0  0  0  0
   -4.1352   -3.2385   -0.2156 H   0  0  0  0  0  0  0  0  0  0  0  0
   -2.6362   -2.3395    1.0094 C   0  0  0  0  0  0  0  0  0  0  0  0
   -1.8292   -2.8395    1.7814 O   0  0  0  0  0  0  0  0  0  0  0  0
   -2.3832   -1.2445    0.2964 N   0  0  0  0  0  0  0  0  0  0  0  0
   -3.1102   -0.8685   -0.2946 H   0  0  0  0  0  0  0  0  0  0  0  0
   -1.1292   -0.4875    0.3524 C   0  0  1  0  0  0  0  0  0  0  0  0
   -0.9984   -0.1076    1.3663 H   0  0  0  0  0  0  0  0  0  0  0  0
    0.0478   -1.4247    0.0315 C   0  0  0  0  0  0  0  0  0  0  0  0
   -0.1442   -1.9217   -0.9202 H   0  0  0  0  0  0  0  0  0  0  0  0
    0.9528   -0.8269   -0.0889 H   0  0  0  0  0  0  0  0  0  0  0  0
    0.2877   -2.4931    1.0806 C   0  0  0  0  0  0  0  0  0  0  0  0
    1.0016   -2.1876    2.2568 C   0  0  0  0  0  0  0  0  0  0  0  0
    1.4042   -1.1939    2.4029 H   0  0  0  0  0  0  0  0  0  0  0  0
    1.1867   -3.1725    3.2465 C   0  0  0  0  0  0  0  0  0  0  0  0
    1.7353   -2.9355    4.1452 H   0  0  0  0  0  0  0  0  0  0  0  0
    0.6526   -4.4662    3.0606 C   0  0  0  0  0  0  0  0  0  0  0  0
    0.8232   -5.4221    4.0105 O   0  0  0  0  0  0  0  0  0  0  0  0
    1.3989   -5.1293    4.7181 H   0  0  0  0  0  0  0  0  0  0  0  0
   -0.0657   -4.7687    1.8853 C   0  0  0  0  0  0  0  0  0  0  0  0
   -0.4655   -5.7628    1.7527 H   0  0  0  0  0  0  0  0  0  0  0  0
   -0.2452   -3.7835    0.8958 C   0  0  0  0  0  0  0  0  0  0  0  0
   -0.7892   -4.0193   -0.0111 H   0  0  0  0  0  0  0  0  0  0  0  0
   -1.1726    0.7205   -0.5982 C   0  0  0  0  0  0  0  0  0  0  0  0
   -0.2049    1.4770   -0.6837 O   0  0  0  0  0  0  0  0  0  0  0  0
   -2.2925    0.9042   -1.3091 N   0  0  0  0  0  0  0  0  0  0  0  0
   -3.0622    0.2736   -1.1379 H   0  0  0  0  0  0  0  0  0  0  0  0
   -2.4992    1.9995   -2.2537 C   0  0  0  0  0  0  0  0  0  0  0  0
   -1.6584    2.0544   -2.9473 H   0  0  0  0  0  0  0  0  0  0  0  0
   -3.4202    1.8412   -2.8170 H   0  0  0  0  0  0  0  0  0  0  0  0
   -2.5664    2.9447   -1.7110 H   0  0  0  0  0  0  0  0  0  0  0  0
  5  6  2  0  0  0  0
  5  7  1  0  0  0  0
  2  3  1  0  0  0  0
  2  4  1  0  0  0  0
  2  5  1  0  0  0  0
  1  2  1  0  0  0  0
 26 27  2  0  0  0  0
 26 28  1  0  0  0  0
 24 25  1  0  0  0  0
 22 23  1  0  0  0  0
 22 24  2  0  0  0  0
 20 21  1  0  0  0  0
 19 20  1  0  0  0  0
 19 22  1  0  0  0  0
 17 18  1  0  0  0  0
 17 19  2  0  0  0  0
 15 16  1  0  0  0  0
 15 17  1  0  0  0  0
 14 15  2  0  0  0  0
 14 24  1  0  0  0  0
 11 12  1  0  0  0  0
 11 13  1  0  0  0  0
 11 14  1  0  0  0  0
  9 10  1  0  0  0  0
  9 11  1  0  0  0  0
  9 26  1  0  0  0  0
  7  8  1  0  0  0  0
  7  9  1  0  0  0  0
 30 31  1  0  0  0  0
 30 32  1  0  0  0  0
 30 33  1  0  0  0  0
 28 29  1  0  0  0  0
 28 30  1  0  0  0  0
M  END
$$$$
default_name
  -OEChem-01062215323D

 33 33  0     1  0  0  0  0  0999 V2000
   -4.0702   -3.8485    1.4554 H   0  0  0  0  0  0  0  0  0  0  0  0
   -4.0012   -2.9605    0.8284 C   0  0  0  0  0  0  0  0  0  0  0  0
   -4.7652   -2.2435    1.1234 H   0  0  0  0  0  0  0  0  0  0  0  0
   -4.1352   -3.2385   -0.2156 H   0  0  0  0  0  0  0  0  0  0  0  0
   -2.6362   -2.3395    1.0094 C   0  0  0  0  0  0  0  0  0  0  0  0
   -1.8292   -2.8395    1.7814 O   0  0  0  0  0  0  0  0  0  0  0  0
   -2.3832   -1.2445    0.2964 N   0  0  0  0  0  0  0  0  0  0  0  0
   -3.1102   -0.8685   -0.2946 H   0  0  0  0  0  0  0  0  0  0  0  0
   -1.1292   -0.4875    0.3524 C   0  0  1  0  0  0  0  0  0  0  0  0
   -0.9984   -0.1076    1.3663 H   0  0  0  0  0  0  0  0  0  0  0  0
    0.0478   -1.4247    0.0315 C   0  0  0  0  0  0  0  0  0  0  0  0
   -0.1442   -1.9217   -0.9202 H   0  0  0  0  0  0  0  0  0  0  0  0
    0.9528   -0.8269   -0.0889 H   0  0  0  0  0  0  0  0  0  0  0  0
    0.2877   -2.4931    1.0806 C   0  0  0  0  0  0  0  0  0  0  0  0
    1.0016   -2.1876    2.2568 C   0  0  0  0  0  0  0  0  0  0  0  0
    1.4042   -1.1939    2.4029 H   0  0  0  0  0  0  0  0  0  0  0  0
    1.1867   -3.1725    3.2465 C   0  0  0  0  0  0  0  0  0  0  0  0
    1.7353   -2.9355    4.1452 H   0  0  0  0  0  0  0  0  0  0  0  0
    0.6526   -4.4662    3.0606 C   0  0  0  0  0  0  0  0  0  0  0  0
    0.8232   -5.4221    4.0105 O   0  0  0  0  0  0  0  0  0  0  0  0
    1.3989   -5.1293    4.7181 H   0  0  0  0  0  0  0  0  0  0  0  0
   -0.0657   -4.7687    1.8853 C   0  0  0  0  0  0  0  0  0  0  0  0
   -0.4655   -5.7628    1.7527 H   0  0  0  0  0  0  0  0  0  0  0  0
   -0.2452   -3.7835    0.8958 C   0  0  0  0  0  0  0  0  0  0  0  0
   -0.7892   -4.0193   -0.0111 H   0  0  0  0  0  0  0  0  0  0  0  0
   -1.1726    0.7205   -0.5982 C   0  0  0  0  0  0  0  0  0  0  0  0
   -0.1348    1.3124   -0.8961 O   0  0  0  0  0  0  0  0  0  0  0  0
   -2.3700    1.0884   -1.0715 N   0  0  0  0  0  0  0  0  0  0  0  0
   -3.1791    0.5881   -0.7328 H   0  0  0  0  0  0  0  0  0  0  0  0
   -2.5879    2.2114   -1.9804 C   0  0  0  0  0  0  0  0  0  0  0  0
   -1.9084    2.1368   -2.8312 H   0  0  0  0  0  0  0  0  0  0  0  0
   -3.6177    2.2084   -2.3414 H   0  0  0  0  0  0  0  0  0  0  0  0
   -2.3917    3.1501   -1.4581 H   0  0  0  0  0  0  0  0  0  0  0  0
  5  6  2  0  0  0  0
  5  7  1  0  0  0  0
  2  3  1  0  0  0  0
  2  4  1  0  0  0  0
  2  5  1  0  0  0  0
  1  2  1  0  0  0  0
 26 27  2  0  0  0  0
 26 28  1  0  0  0  0
 24 25  1  0  0  0  0
 22 23  1  0  0  0  0
 22 24  2  0  0  0  0
 20 21  1  0  0  0  0
 19 20  1  0  0  0  0
 19 22  1  0  0  0  0
 17 18  1  0  0  0  0
 17 19  2  0  0  0  0
 15 16  1  0  0  0  0
 15 17  1  0  0  0  0
 14 15  2  0  0  0  0
 14 24  1  0  0  0  0
 11 12  1  0  0  0  0
 11 13  1  0  0  0  0
 11 14  1  0  0  0  0
  9 10  1  0  0  0  0
  9 11  1  0  0  0  0
  9 26  1  0  0  0  0
  7  8  1  0  0  0  0
  7  9  1  0  0  0  0
 30 31  1  0  0  0  0
 30 32  1  0  0  0  0
 30 33  1  0  0  0  0
 28 29  1  0  0  0  0
 28 30  1  0  0  0  0
M  END
$$$$
default_name
  -OEChem-01062215323D

 33 33  0     1  0  0  0  0  0999 V2000
   -4.0702   -3.8485    1.4554 H   0  0  0  0  0  0  0  0  0  0  0  0
   -4.0012   -2.9605    0.8284 C   0  0  0  0  0  0  0  0  0  0  0  0
   -4.7652   -2.2435    1.1234 H   0  0  0  0  0  0  0  0  0  0  0  0
   -4.1352   -3.2385   -0.2156 H   0  0  0  0  0  0  0  0  0  0  0  0
   -2.6362   -2.3395    1.0094 C   0  0  0  0  0  0  0  0  0  0  0  0
   -1.8292   -2.8395    1.7814 O   0  0  0  0  0  0  0  0  0  0  0  0
   -2.3832   -1.2445    0.2964 N   0  0  0  0  0  0  0  0  0  0  0  0
   -3.1102   -0.8685   -0.2946 H   0  0  0  0  0  0  0  0  0  0  0  0
   -1.1292   -0.4875    0.3524 C   0  0  1  0  0  0  0  0  0  0  0  0
   -0.9984   -0.1076    1.3663 H   0  0  0  0  0  0  0  0  0  0  0  0
    0.0478   -1.4247    0.0315 C   0  0  0  0  0  0  0  0  0  0  0  0
   -0.1442   -1.9217   -0.9202 H   0  0  0  0  0  0  0  0  0  0  0  0
    0.9528   -0.8269   -0.0889 H   0  0  0  0  0  0  0  0  0  0  0  0
    0.2877   -2.4931    1.0806 C   0  0  0  0  0  0  0  0  0  0  0  0
    1.0016   -2.1876    2.2568 C   0  0  0  0  0  0  0  0  0  0  0  0
    1.4042   -1.1939    2.4029 H   0  0  0  0  0  0  0  0  0  0  0  0
    1.1867   -3.1725    3.2465 C   0  0  0  0  0  0  0  0  0  0  0  0
    1.7353   -2.9355    4.1452 H   0  0  0  0  0  0  0  0  0  0  0  0
    0.6526   -4.4662    3.0606 C   0  0  0  0  0  0  0  0  0  0  0  0
    0.8232   -5.4221    4.0105 O   0  0  0  0  0  0  0  0  0  0  0  0
    1.3989   -5.1293    4.7181 H   0  0  0  0  0  0  0  0  0  0  0  0
   -0.0657   -4.7687    1.8853 C   0  0  0  0  0  0  0  0  0  0  0  0
   -0.4655   -5.7628    1.7527 H   0  0  0  0  0  0  0  0  0  0  0  0
   -0.2452   -3.7835    0.8958 C   0  0  0  0  0  0  0  0  0  0  0  0
   -0.7892   -4.0193   -0.0111 H   0  0  0  0  0  0  0  0  0  0  0  0
   -1.1726    0.7205   -0.5982 C   0  0  0  0  0  0  0  0  0  0  0  0
   -0.1366    1.1406   -1.1144 O   0  0  0  0  0  0  0  0  0  0  0  0
   -2.3672    1.2805   -0.8275 N   0  0  0  0  0  0  0  0  0  0  0  0
   -3.1593    0.9136   -0.3201 H   0  0  0  0  0  0  0  0  0  0  0  0
   -2.5842    2.4322   -1.7000 C   0  0  0  0  0  0  0  0  0  0  0  0
   -2.1131    2.2573   -2.6688 H   0  0  0  0  0  0  0  0  0  0  0  0
   -3.6529    2.5981   -1.8446 H   0  0  0  0  0  0  0  0  0  0  0  0
   -2.1386    3.3223   -1.2508 H   0  0  0  0  0  0  0  0  0  0  0  0
  5  6  2  0  0  0  0
  5  7  1  0  0  0  0
  2  3  1  0  0  0  0
  2  4  1  0  0  0  0
  2  5  1  0  0  0  0
  1  2  1  0  0  0  0
 26 27  2  0  0  0  0
 26 28  1  0  0  0  0
 24 25  1  0  0  0  0
 22 23  1  0  0  0  0
 22 24  2  0  0  0  0
 20 21  1  0  0  0  0
 19 20  1  0  0  0  0
 19 22  1  0  0  0  0
 17 18  1  0  0  0  0
 17 19  2  0  0  0  0
 15 16  1  0  0  0  0
 15 17  1  0  0  0  0
 14 15  2  0  0  0  0
 14 24  1  0  0  0  0
 11 12  1  0  0  0  0
 11 13  1  0  0  0  0
 11 14  1  0  0  0  0
  9 10  1  0  0  0  0
  9 11  1  0  0  0  0
  9 26  1  0  0  0  0
  7  8  1  0  0  0  0
  7  9  1  0  0  0  0
 30 31  1  0  0  0  0
 30 32  1  0  0  0  0
 30 33  1  0  0  0  0
 28 29  1  0  0  0  0
 28 30  1  0  0  0  0
M  END
$$$$
default_name
  -OEChem-01062215323D

 33 33  0     1  0  0  0  0  0999 V2000
   -4.0702   -3.8485    1.4554 H   0  0  0  0  0  0  0  0  0  0  0  0
   -4.0012   -2.9605    0.8284 C   0  0  0  0  0  0  0  0  0  0  0  0
   -4.7652   -2.2435    1.1234 H   0  0  0  0  0  0  0  0  0  0  0  0
   -4.1352   -3.2385   -0.2156 H   0  0  0  0  0  0  0  0  0  0  0  0
   -2.6362   -2.3395    1.0094 C   0  0  0  0  0  0  0  0  0  0  0  0
   -1.8292   -2.8395    1.7814 O   0  0  0  0  0  0  0  0  0  0  0  0
   -2.3832   -1.2445    0.2964 N   0  0  0  0  0  0  0  0  0  0  0  0
   -3.1102   -0.8685   -0.2946 H   0  0  0  0  0  0  0  0  0  0  0  0
   -1.1292   -0.4875    0.3524 C   0  0  1  0  0  0  0  0  0  0  0  0
   -0.9984   -0.1076    1.3663 H   0  0  0  0  0  0  0  0  0  0  0  0
    0.0478   -1.4247    0.0315 C   0  0  0  0  0  0  0  0  0  0  0  0
   -0.1442   -1.9217   -0.9202 H   0  0  0  0  0  0  0  0  0  0  0  0
    0.9528   -0.8269   -0.0889 H   0  0  0  0  0  0  0  0  0  0  0  0
    0.2877   -2.4931    1.0806 C   0  0  0  0  0  0  0  0  0  0  0  0
    1.0016   -2.1876    2.2568 C   0  0  0  0  0  0  0  0  0  0  0  0
    1.4042   -1.1939    2.4029 H   0  0  0  0  0  0  0  0  0  0  0  0
    1.1867   -3.1725    3.2465 C   0  0  0  0  0  0  0  0  0  0  0  0
    1.7353   -2.9355    4.1452 H   0  0  0  0  0  0  0  0  0  0  0  0
    0.6526   -4.4662    3.0606 C   0  0  0  0  0  0  0  0  0  0  0  0
    0.8232   -5.4221    4.0105 O   0  0  0  0  0  0  0  0  0  0  0  0
    1.3989   -5.1293    4.7181 H   0  0  0  0  0  0  0  0  0  0  0  0
   -0.0657   -4.7687    1.8853 C   0  0  0  0  0  0  0  0  0  0  0  0
   -0.4655   -5.7628    1.7527 H   0  0  0  0  0  0  0  0  0  0  0  0
   -0.2452   -3.7835    0.8958 C   0  0  0  0  0  0  0  0  0  0  0  0
   -0.7892   -4.0193   -0.0111 H   0  0  0  0  0  0  0  0  0  0  0  0
   -1.1726    0.7205   -0.5982 C   0  0  0  0  0  0  0  0  0  0  0  0
   -0.2103    0.9733   -1.3235 O   0  0  0  0  0  0  0  0  0  0  0  0
   -2.2841    1.4673   -0.5939 N   0  0  0  0  0  0  0  0  0  0  0  0
   -3.0042    1.2279    0.0722 H   0  0  0  0  0  0  0  0  0  0  0  0
   -2.4882    2.6470   -1.4314 C   0  0  0  0  0  0  0  0  0  0  0  0
   -2.2586    2.4075   -2.4712 H   0  0  0  0  0  0  0  0  0  0  0  0
   -3.5236    2.9839   -1.3603 H   0  0  0  0  0  0  0  0  0  0  0  0
   -1.8245    3.4496   -1.1033 H   0  0  0  0  0  0  0  0  0  0  0  0
  5  6  2  0  0  0  0
  5  7  1  0  0  0  0
  2  3  1  0  0  0  0
  2  4  1  0  0  0  0
  2  5  1  0  0  0  0
  1  2  1  0  0  0  0
 26 27  2  0  0  0  0
 26 28  1  0  0  0  0
 24 25  1  0  0  0  0
 22 23  1  0  0  0  0
 22 24  2  0  0  0  0
 20 21  1  0  0  0  0
 19 20  1  0  0  0  0
 19 22  1  0  0  0  0
 17 18  1  0  0  0  0
 17 19  2  0  0  0  0
 15 16  1  0  0  0  0
 15 17  1  0  0  0  0
 14 15  2  0  0  0  0
 14 24  1  0  0  0  0
 11 12  1  0  0  0  0
 11 13  1  0  0  0  0
 11 14  1  0  0  0  0
  9 10  1  0  0  0  0
  9 11  1  0  0  0  0
  9 26  1  0  0  0  0
  7  8  1  0  0  0  0
  7  9  1  0  0  0  0
 30 31  1  0  0  0  0
 30 32  1  0  0  0  0
 30 33  1  0  0  0  0
 28 29  1  0  0  0  0
 28 30  1  0  0  0  0
M  END
$$$$
default_name
  -OEChem-01062215323D

 33 33  0     1  0  0  0  0  0999 V2000
   -4.0702   -3.8485    1.4554 H   0  0  0  0  0  0  0  0  0  0  0  0
   -4.0012   -2.9605    0.8284 C   0  0  0  0  0  0  0  0  0  0  0  0
   -4.7652   -2.2435    1.1234 H   0  0  0  0  0  0  0  0  0  0  0  0
   -4.1352   -3.2385   -0.2156 H   0  0  0  0  0  0  0  0  0  0  0  0
   -2.6362   -2.3395    1.0094 C   0  0  0  0  0  0  0  0  0  0  0  0
   -1.8292   -2.8395    1.7814 O   0  0  0  0  0  0  0  0  0  0  0  0
   -2.3832   -1.2445    0.2964 N   0  0  0  0  0  0  0  0  0  0  0  0
   -3.1102   -0.8685   -0.2946 H   0  0  0  0  0  0  0  0  0  0  0  0
   -1.1292   -0.4875    0.3524 C   0  0  1  0  0  0  0  0  0  0  0  0
   -0.9984   -0.1076    1.3663 H   0  0  0  0  0  0  0  0  0  0  0  0
    0.0478   -1.4247    0.0315 C   0  0  0  0  0  0  0  0  0  0  0  0
   -0.1442   -1.9217   -0.9202 H   0  0  0  0  0  0  0  0  0  0  0  0
    0.9528   -0.8269   -0.0889 H   0  0  0  0  0  0  0  0  0  0  0  0
    0.2877   -2.4931    1.0806 C   0  0  0  0  0  0  0  0  0  0  0  0
    1.0016   -2.1876    2.2568 C   0  0  0  0  0  0  0  0  0  0  0  0
    1.4042   -1.1939    2.4029 H   0  0  0  0  0  0  0  0  0  0  0  0
    1.1867   -3.1725    3.2465 C   0  0  0  0  0  0  0  0  0  0  0  0
    1.7353   -2.9355    4.1452 H   0  0  0  0  0  0  0  0  0  0  0  0
    0.6526   -4.4662    3.0606 C   0  0  0  0  0  0  0  0  0  0  0  0
    0.8232   -5.4221    4.0105 O   0  0  0  0  0  0  0  0  0  0  0  0
    1.3989   -5.1293    4.7181 H   0  0  0  0  0  0  0  0  0  0  0  0
   -0.0657   -4.7687    1.8853 C   0  0  0  0  0  0  0  0  0  0  0  0
   -0.4655   -5.7628    1.7527 H   0  0  0  0  0  0  0  0  0  0  0  0
   -0.2452   -3.7835    0.8958 C   0  0  0  0  0  0  0  0  0  0  0  0
   -0.7892   -4.0193   -0.0111 H   0  0  0  0  0  0  0  0  0  0  0  0
   -1.1726    0.7205   -0.5982 C   0  0  0  0  0  0  0  0  0  0  0  0
   -0.3507    0.8220   -1.5094 O   0  0  0  0  0  0  0  0  0  0  0  0
   -2.1265    1.6362   -0.3865 N   0  0  0  0  0  0  0  0  0  0  0  0
   -2.7244    1.5095    0.4172 H   0  0  0  0  0  0  0  0  0  0  0  0
   -2.3065    2.8410   -1.1932 C   0  0  0  0  0  0  0  0  0  0  0  0
   -2.3349    2.5774   -2.2519 H   0  0  0  0  0  0  0  0  0  0  0  0
   -3.2386    3.3393   -0.9217 H   0  0  0  0  0  0  0  0  0  0  0  0
   -1.4707    3.5235   -1.0256 H   0  0  0  0  0  0  0  0  0  0  0  0
  5  6  2  0  0  0  0
  5  7  1  0  0  0  0
  2  3  1  0  0  0  0
  2  4  1  0  0  0  0
  2  5  1  0  0  0  0
  1  2  1  0  0  0  0
 26 27  2  0  0  0  0
 26 28  1  0  0  0  0
 24 25  1  0  0  0  0
 22 23  1  0  0  0  0
 22 24  2  0  0  0  0
 20 21  1  0  0  0  0
 19 20  1  0  0  0  0
 19 22  1  0  0  0  0
 17 18  1  0  0  0  0
 17 19  2  0  0  0  0
 15 16  1  0  0  0  0
 15 17  1  0  0  0  0
 14 15  2  0  0  0  0
 14 24  1  0  0  0  0
 11 12  1  0  0  0  0
 11 13  1  0  0  0  0
 11 14  1  0  0  0  0
  9 10  1  0  0  0  0
  9 11  1  0  0  0  0
  9 26  1  0  0  0  0
  7  8  1  0  0  0  0
  7  9  1  0  0  0  0
 30 31  1  0  0  0  0
 30 32  1  0  0  0  0
 30 33  1  0  0  0  0
 28 29  1  0  0  0  0
 28 30  1  0  0  0  0
M  END
$$$$
default_name
  -OEChem-01062215323D

 33 33  0     1  0  0  0  0  0999 V2000
   -4.0702   -3.8485    1.4554 H   0  0  0  0  0  0  0  0  0  0  0  0
   -4.0012   -2.9605    0.8284 C   0  0  0  0  0  0  0  0  0  0  0  0
   -4.7652   -2.2435    1.1234 H   0  0  0  0  0  0  0  0  0  0  0  0
   -4.1352   -3.2385   -0.2156 H   0  0  0  0  0  0  0  0  0  0  0  0
   -2.6362   -2.3395    1.0094 C   0  0  0  0  0  0  0  0  0  0  0  0
   -1.8292   -2.8395    1.7814 O   0  0  0  0  0  0  0  0  0  0  0  0
   -2.3832   -1.2445    0.2964 N   0  0  0  0  0  0  0  0  0  0  0  0
   -3.1102   -0.8685   -0.2946 H   0  0  0  0  0  0  0  0  0  0  0  0
   -1.1292   -0.4875    0.3524 C   0  0  1  0  0  0  0  0  0  0  0  0
   -0.9984   -0.1076    1.3663 H   0  0  0  0  0  0  0  0  0  0  0  0
    0.0478   -1.4247    0.0315 C   0  0  0  0  0  0  0  0  0  0  0  0
   -0.1442   -1.9217   -0.9202 H   0  0  0  0  0  0  0  0  0  0  0  0
    0.9528   -0.8269   -0.0889 H   0  0  0  0  0  0  0  0  0  0  0  0
    0.2877   -2.4931    1.0806 C   0  0  0  0  0  0  0  0  0  0  0  0
    1.0016   -2.1876    2.2568 C   0  0  0  0  0  0  0  0  0  0  0  0
    1.4042   -1.1939    2.4029 H   0  0  0  0  0  0  0  0  0  0  0  0
    1.1867   -3.1725    3.2465 C   0  0  0  0  0  0  0  0  0  0  0  0
    1.7353   -2.9355    4.1452 H   0  0  0  0  0  0  0  0  0  0  0  0
    0.6526   -4.4662    3.0606 C   0  0  0  0  0  0  0  0  0  0  0  0
    0.8232   -5.4221    4.0105 O   0  0  0  0  0  0  0  0  0  0  0  0
    1.3989   -5.1293    4.7181 H   0  0  0  0  0  0  0  0  0  0  0  0
   -0.0657   -4.7687    1.8853 C   0  0  0  0  0  0  0  0  0  0  0  0
   -0.4655   -5.7628    1.7527 H   0  0  0  0  0  0  0  0  0  0  0  0
   -0.2452   -3.7835    0.8958 C   0  0  0  0  0  0  0  0  0  0  0  0
   -0.7892   -4.0193   -0.0111 H   0  0  0  0  0  0  0  0  0  0  0  0
   -1.1726    0.7205   -0.5982 C   0  0  0  0  0  0  0  0  0  0  0  0
   -0.5483    0.6970   -1.6592 O   0  0  0  0  0  0  0  0  0  0  0  0
   -1.9050    1.7756   -0.2194 N   0  0  0  0  0  0  0  0  0  0  0  0
   -2.3388    1.7393    0.6916 H   0  0  0  0  0  0  0  0  0  0  0  0
   -2.0516    3.0011   -1.0014 C   0  0  0  0  0  0  0  0  0  0  0  0
   -2.3368    2.7553   -2.0257 H   0  0  0  0  0  0  0  0  0  0  0  0
   -2.8172    3.6402   -0.5585 H   0  0  0  0  0  0  0  0  0  0  0  0
   -1.1014    3.5388   -1.0231 H   0  0  0  0  0  0  0  0  0  0  0  0
  5  6  2  0  0  0  0
  5  7  1  0  0  0  0
  2  3  1  0  0  0  0
  2  4  1  0  0  0  0
  2  5  1  0  0  0  0
  1  2  1  0  0  0  0
 26 27  2  0  0  0  0
 26 28  1  0  0  0  0
 24 25  1  0  0  0  0
 22 23  1  0  0  0  0
 22 24  2  0  0  0  0
 20 21  1  0  0  0  0
 19 20  1  0  0  0  0
 19 22  1  0  0  0  0
 17 18  1  0  0  0  0
 17 19  2  0  0  0  0
 15 16  1  0  0  0  0
 15 17  1  0  0  0  0
 14 15  2  0  0  0  0
 14 24  1  0  0  0  0
 11 12  1  0  0  0  0
 11 13  1  0  0  0  0
 11 14  1  0  0  0  0
  9 10  1  0  0  0  0
  9 11  1  0  0  0  0
  9 26  1  0  0  0  0
  7  8  1  0  0  0  0
  7  9  1  0  0  0  0
 30 31  1  0  0  0  0
 30 32  1  0  0  0  0
 30 33  1  0  0  0  0
 28 29  1  0  0  0  0
 28 30  1  0  0  0  0
M  END
$$$$
default_name
  -OEChem-01062215323D

 33 33  0     1  0  0  0  0  0999 V2000
   -4.0702   -3.8485    1.4554 H   0  0  0  0  0  0  0  0  0  0  0  0
   -4.0012   -2.9605    0.8284 C   0  0  0  0  0  0  0  0  0  0  0  0
   -4.7652   -2.2435    1.1234 H   0  0  0  0  0  0  0  0  0  0  0  0
   -4.1352   -3.2385   -0.2156 H   0  0  0  0  0  0  0  0  0  0  0  0
   -2.6362   -2.3395    1.0094 C   0  0  0  0  0  0  0  0  0  0  0  0
   -1.8292   -2.8395    1.7814 O   0  0  0  0  0  0  0  0  0  0  0  0
   -2.3832   -1.2445    0.2964 N   0  0  0  0  0  0  0  0  0  0  0  0
   -3.1102   -0.8685   -0.2946 H   0  0  0  0  0  0  0  0  0  0  0  0
   -1.1292   -0.4875    0.3524 C   0  0  1  0  0  0  0  0  0  0  0  0
   -0.9984   -0.1076    1.3663 H   0  0  0  0  0  0  0  0  0  0  0  0
    0.0478   -1.4247    0.0315 C   0  0  0  0  0  0  0  0  0  0  0  0
   -0.1442   -1.9217   -0.9202 H   0  0  0  0  0  0  0  0  0  0  0  0
    0.9528   -0.8269   -0.0889 H   0  0  0  0  0  0  0  0  0  0  0  0
    0.2877   -2.4931    1.0806 C   0  0  0  0  0  0  0  0  0  0  0  0
    1.0016   -2.1876    2.2568 C   0  0  0  0  0  0  0  0  0  0  0  0
    1.4042   -1.1939    2.4029 H   0  0  0  0  0  0  0  0  0  0  0  0
    1.1867   -3.1725    3.2465 C   0  0  0  0  0  0  0  0  0  0  0  0
    1.7353   -2.9355    4.1452 H   0  0  0  0  0  0  0  0  0  0  0  0
    0.6526   -4.4662    3.0606 C   0  0  0  0  0  0  0  0  0  0  0  0
    0.8232   -5.4221    4.0105 O   0  0  0  0  0  0  0  0  0  0  0  0
    1.3989   -5.1293    4.7181 H   0  0  0  0  0  0  0  0  0  0  0  0
   -0.0657   -4.7687    1.8853 C   0  0  0  0  0  0  0  0  0  0  0  0
   -0.4655   -5.7628    1.7527 H   0  0  0  0  0  0  0  0  0  0  0  0
   -0.2452   -3.7835    0.8958 C   0  0  0  0  0  0  0  0  0  0  0  0
   -0.7892   -4.0193   -0.0111 H   0  0  0  0  0  0  0  0  0  0  0  0
   -1.1726    0.7205   -0.5982 C   0  0  0  0  0  0  0  0  0  0  0  0
   -0.7896    0.6067   -1.7629 O   0  0  0  0  0  0  0  0  0  0  0  0
   -1.6348    1.8761   -0.1041 N   0  0  0  0  0  0  0  0  0  0  0  0
   -1.8739    1.9015    0.8766 H   0  0  0  0  0  0  0  0  0  0  0  0
   -1.7407    3.1164   -0.8691 C   0  0  0  0  0  0  0  0  0  0  0  0
   -2.2642    2.9291   -1.8082 H   0  0  0  0  0  0  0  0  0  0  0  0
   -2.2882    3.8661   -0.2956 H   0  0  0  0  0  0  0  0  0  0  0  0
   -0.7417    3.4945   -1.0958 H   0  0  0  0  0  0  0  0  0  0  0  0
  5  6  2  0  0  0  0
  5  7  1  0  0  0  0
  2  3  1  0  0  0  0
  2  4  1  0  0  0  0
  2  5  1  0  0  0  0
  1  2  1  0  0  0  0
 26 27  2  0  0  0  0
 26 28  1  0  0  0  0
 24 25  1  0  0  0  0
 22 23  1  0  0  0  0
 22 24  2  0  0  0  0
 20 21  1  0  0  0  0
 19 20  1  0  0  0  0
 19 22  1  0  0  0  0
 17 18  1  0  0  0  0
 17 19  2  0  0  0  0
 15 16  1  0  0  0  0
 15 17  1  0  0  0  0
 14 15  2  0  0  0  0
 14 24  1  0  0  0  0
 11 12  1  0  0  0  0
 11 13  1  0  0  0  0
 11 14  1  0  0  0  0
  9 10  1  0  0  0  0
  9 11  1  0  0  0  0
  9 26  1  0  0  0  0
  7  8  1  0  0  0  0
  7  9  1  0  0  0  0
 30 31  1  0  0  0  0
 30 32  1  0  0  0  0
 30 33  1  0  0  0  0
 28 29  1  0  0  0  0
 28 30  1  0  0  0  0
M  END
$$$$
default_name
  -OEChem-01062215323D

 33 33  0     1  0  0  0  0  0999 V2000
   -4.0702   -3.8485    1.4554 H   0  0  0  0  0  0  0  0  0  0  0  0
   -4.0012   -2.9605    0.8284 C   0  0  0  0  0  0  0  0  0  0  0  0
   -4.7652   -2.2435    1.1234 H   0  0  0  0  0  0  0  0  0  0  0  0
   -4.1352   -3.2385   -0.2156 H   0  0  0  0  0  0  0  0  0  0  0  0
   -2.6362   -2.3395    1.0094 C   0  0  0  0  0  0  0  0  0  0  0  0
   -1.8292   -2.8395    1.7814 O   0  0  0  0  0  0  0  0  0  0  0  0
   -2.3832   -1.2445    0.2964 N   0  0  0  0  0  0  0  0  0  0  0  0
   -3.1102   -0.8685   -0.2946 H   0  0  0  0  0  0  0  0  0  0  0  0
   -1.1292   -0.4875    0.3524 C   0  0  1  0  0  0  0  0  0  0  0  0
   -0.9984   -0.1076    1.3663 H   0  0  0  0  0  0  0  0  0  0  0  0
    0.0478   -1.4247    0.0315 C   0  0  0  0  0  0  0  0  0  0  0  0
   -0.1442   -1.9217   -0.9202 H   0  0  0  0  0  0  0  0  0  0  0  0
    0.9528   -0.8269   -0.0889 H   0  0  0  0  0  0  0  0  0  0  0  0
    0.2877   -2.4931    1.0806 C   0  0  0  0  0  0  0  0  0  0  0  0
    1.0016   -2.1876    2.2568 C   0  0  0  0  0  0  0  0  0  0  0  0
    1.4042   -1.1939    2.4029 H   0  0  0  0  0  0  0  0  0  0  0  0
    1.1867   -3.1725    3.2465 C   0  0  0  0  0  0  0  0  0  0  0  0
    1.7353   -2.9355    4.1452 H   0  0  0  0  0  0  0  0  0  0  0  0
    0.6526   -4.4662    3.0606 C   0  0  0  0  0  0  0  0  0  0  0  0
    0.8232   -5.4221    4.0105 O   0  0  0  0  0  0  0  0  0  0  0  0
    1.3989   -5.1293    4.7181 H   0  0  0  0  0  0  0  0  0  0  0  0
   -0.0657   -4.7687    1.8853 C   0  0  0  0  0  0  0  0  0  0  0  0
   -0.4655   -5.7628    1.7527 H   0  0  0  0  0  0  0  0  0  0  0  0
   -0.2452   -3.7835    0.8958 C   0  0  0  0  0  0  0  0  0  0  0  0
   -0.7892   -4.0193   -0.0111 H   0  0  0  0  0  0  0  0  0  0  0  0
   -1.1726    0.7205   -0.5982 C   0  0  0  0  0  0  0  0  0  0  0  0
   -1.0583    0.5574   -1.8133 O   0  0  0  0  0  0  0  0  0  0  0  0
   -1.3343    1.9307   -0.0484 N   0  0  0  0  0  0  0  0  0  0  0  0
   -1.3612    1.9852    0.9595 H   0  0  0  0  0  0  0  0  0  0  0  0
   -1.3951    3.1789   -0.8054 C   0  0  0  0  0  0  0  0  0  0  0  0
   -2.1221    3.0869   -1.6141 H   0  0  0  0  0  0  0  0  0  0  0  0
   -1.6876    4.0016   -0.1509 H   0  0  0  0  0  0  0  0  0  0  0  0
   -0.4161    3.3936   -1.2388 H   0  0  0  0  0  0  0  0  0  0  0  0
  5  6  2  0  0  0  0
  5  7  1  0  0  0  0
  2  3  1  0  0  0  0
  2  4  1  0  0  0  0
  2  5  1  0  0  0  0
  1  2  1  0  0  0  0
 26 27  2  0  0  0  0
 26 28  1  0  0  0  0
 24 25  1  0  0  0  0
 22 23  1  0  0  0  0
 22 24  2  0  0  0  0
 20 21  1  0  0  0  0
 19 20  1  0  0  0  0
 19 22  1  0  0  0  0
 17 18  1  0  0  0  0
 17 19  2  0  0  0  0
 15 16  1  0  0  0  0
 15 17  1  0  0  0  0
 14 15  2  0  0  0  0
 14 24  1  0  0  0  0
 11 12  1  0  0  0  0
 11 13  1  0  0  0  0
 11 14  1  0  0  0  0
  9 10  1  0  0  0  0
  9 11  1  0  0  0  0
  9 26  1  0  0  0  0
  7  8  1  0  0  0  0
  7  9  1  0  0  0  0
 30 31  1  0  0  0  0
 30 32  1  0  0  0  0
 30 33  1  0  0  0  0
 28 29  1  0  0  0  0
 28 30  1  0  0  0  0
M  END
$$$$
default_name
  -OEChem-01062215323D

 33 33  0     1  0  0  0  0  0999 V2000
   -4.0702   -3.8485    1.4554 H   0  0  0  0  0  0  0  0  0  0  0  0
   -4.0012   -2.9605    0.8284 C   0  0  0  0  0  0  0  0  0  0  0  0
   -4.7652   -2.2435    1.1234 H   0  0  0  0  0  0  0  0  0  0  0  0
   -4.1352   -3.2385   -0.2156 H   0  0  0  0  0  0  0  0  0  0  0  0
   -2.6362   -2.3395    1.0094 C   0  0  0  0  0  0  0  0  0  0  0  0
   -1.8292   -2.8395    1.7814 O   0  0  0  0  0  0  0  0  0  0  0  0
   -2.3832   -1.2445    0.2964 N   0  0  0  0  0  0  0  0  0  0  0  0
   -3.1102   -0.8685   -0.2946 H   0  0  0  0  0  0  0  0  0  0  0  0
   -1.1292   -0.4875    0.3524 C   0  0  1  0  0  0  0  0  0  0  0  0
   -0.9984   -0.1076    1.3663 H   0  0  0  0  0  0  0  0  0  0  0  0
    0.0478   -1.4247    0.0315 C   0  0  0  0  0  0  0  0  0  0  0  0
   -0.1442   -1.9217   -0.9202 H   0  0  0  0  0  0  0  0  0  0  0  0
    0.9528   -0.8269   -0.0889 H   0  0  0  0  0  0  0  0  0  0  0  0
    0.2877   -2.4931    1.0806 C   0  0  0  0  0  0  0  0  0  0  0  0
    1.0016   -2.1876    2.2568 C   0  0  0  0  0  0  0  0  0  0  0  0
    1.4042   -1.1939    2.4029 H   0  0  0  0  0  0  0  0  0  0  0  0
    1.1867   -3.1725    3.2465 C   0  0  0  0  0  0  0  0  0  0  0  0
    1.7353   -2.9355    4.1452 H   0  0  0  0  0  0  0  0  0  0  0  0
    0.6526   -4.4662    3.0606 C   0  0  0  0  0  0  0  0  0  0  0  0
    0.8232   -5.4221    4.0105 O   0  0  0  0  0  0  0  0  0  0  0  0
    1.3989   -5.1293    4.7181 H   0  0  0  0  0  0  0  0  0  0  0  0
   -0.0657   -4.7687    1.8853 C   0  0  0  0  0  0  0  0  0  0  0  0
   -0.4655   -5.7628    1.7527 H   0  0  0  0  0  0  0  0  0  0  0  0
   -0.2452   -3.7835    0.8958 C   0  0  0  0  0  0  0  0  0  0  0  0
   -0.7892   -4.0193   -0.0111 H   0  0  0  0  0  0  0  0  0  0  0  0
   -1.1726    0.7205   -0.5982 C   0  0  0  0  0  0  0  0  0  0  0  0
   -1.3359    0.5524   -1.8070 O   0  0  0  0  0  0  0  0  0  0  0  0
   -1.0240    1.9358   -0.0560 N   0  0  0  0  0  0  0  0  0  0  0  0
   -0.8358    1.9846    0.9348 H   0  0  0  0  0  0  0  0  0  0  0  0
   -1.0383    3.1845   -0.8146 C   0  0  0  0  0  0  0  0  0  0  0  0
   -1.9201    3.2180   -1.4567 H   0  0  0  0  0  0  0  0  0  0  0  0
   -1.0564    4.0374   -0.1342 H   0  0  0  0  0  0  0  0  0  0  0  0
   -0.1468    3.2430   -1.4425 H   0  0  0  0  0  0  0  0  0  0  0  0
  5  6  2  0  0  0  0
  5  7  1  0  0  0  0
  2  3  1  0  0  0  0
  2  4  1  0  0  0  0
  2  5  1  0  0  0  0
  1  2  1  0  0  0  0
 26 27  2  0  0  0  0
 26 28  1  0  0  0  0
 24 25  1  0  0  0  0
 22 23  1  0  0  0  0
 22 24  2  0  0  0  0
 20 21  1  0  0  0  0
 19 20  1  0  0  0  0
 19 22  1  0  0  0  0
 17 18  1  0  0  0  0
 17 19  2  0  0  0  0
 15 16  1  0  0  0  0
 15 17  1  0  0  0  0
 14 15  2  0  0  0  0
 14 24  1  0  0  0  0
 11 12  1  0  0  0  0
 11 13  1  0  0  0  0
 11 14  1  0  0  0  0
  9 10  1  0  0  0  0
  9 11  1  0  0  0  0
  9 26  1  0  0  0  0
  7  8  1  0  0  0  0
  7  9  1  0  0  0  0
 30 31  1  0  0  0  0
 30 32  1  0  0  0  0
 30 33  1  0  0  0  0
 28 29  1  0  0  0  0
 28 30  1  0  0  0  0
M  END
$$$$
default_name
  -OEChem-01062215323D

 33 33  0     1  0  0  0  0  0999 V2000
   -4.0702   -3.8485    1.4554 H   0  0  0  0  0  0  0  0  0  0  0  0
   -4.0012   -2.9605    0.8284 C   0  0  0  0  0  0  0  0  0  0  0  0
   -4.7652   -2.2435    1.1234 H   0  0  0  0  0  0  0  0  0  0  0  0
   -4.1352   -3.2385   -0.2156 H   0  0  0  0  0  0  0  0  0  0  0  0
   -2.6362   -2.3395    1.0094 C   0  0  0  0  0  0  0  0  0  0  0  0
   -1.8292   -2.8395    1.7814 O   0  0  0  0  0  0  0  0  0  0  0  0
   -2.3832   -1.2445    0.2964 N   0  0  0  0  0  0  0  0  0  0  0  0
   -3.1102   -0.8685   -0.2946 H   0  0  0  0  0  0  0  0  0  0  0  0
   -1.1292   -0.4875    0.3524 C   0  0  1  0  0  0  0  0  0  0  0  0
   -0.9984   -0.1076    1.3663 H   0  0  0  0  0  0  0  0  0  0  0  0
    0.0478   -1.4247    0.0315 C   0  0  0  0  0  0  0  0  0  0  0  0
   -0.1442   -1.9217   -0.9202 H   0  0  0  0  0  0  0  0  0  0  0  0
    0.9528   -0.8269   -0.0889 H   0  0  0  0  0  0  0  0  0  0  0  0
    0.2877   -2.4931    1.0806 C   0  0  0  0  0  0  0  0  0  0  0  0
    1.0016   -2.1876    2.2568 C   0  0  0  0  0  0  0  0  0  0  0  0
    1.4042   -1.1939    2.4029 H   0  0  0  0  0  0  0  0  0  0  0  0
    1.1867   -3.1725    3.2465 C   0  0  0  0  0  0  0  0  0  0  0  0
    1.7353   -2.9355    4.1452 H   0  0  0  0  0  0  0  0  0  0  0  0
    0.6526   -4.4662    3.0606 C   0  0  0  0  0  0  0  0  0  0  0  0
    0.8232   -5.4221    4.0105 O   0  0  0  0  0  0  0  0  0  0  0  0
    1.3989   -5.1293    4.7181 H   0  0  0  0  0  0  0  0  0  0  0  0
   -0.0657   -4.7687    1.8853 C   0  0  0  0  0  0  0  0  0  0  0  0
   -0.4655   -5.7628    1.7527 H   0  0  0  0  0  0  0  0  0  0  0  0
   -0.2452   -3.7835    0.8958 C   0  0  0  0  0  0  0  0  0  0  0  0
   -0.7892   -4.0193   -0.0111 H   0  0  0  0  0  0  0  0  0  0  0  0
   -1.1726    0.7205   -0.5982 C   0  0  0  0  0  0  0  0  0  0  0  0
   -1.6036    0.5920   -1.7445 O   0  0  0  0  0  0  0  0  0  0  0  0
   -0.7250    1.8911   -0.1266 N   0  0  0  0  0  0  0  0  0  0  0  0
   -0.3334    1.8998    0.8041 H   0  0  0  0  0  0  0  0  0  0  0  0
   -0.6946    3.1328   -0.8960 C   0  0  0  0  0  0  0  0  0  0  0  0
   -1.6720    3.3135   -1.3467 H   0  0  0  0  0  0  0  0  0  0  0  0
   -0.4375    3.9712   -0.2466 H   0  0  0  0  0  0  0  0  0  0  0  0
    0.0478    3.0530   -1.6928 H   0  0  0  0  0  0  0  0  0  0  0  0
  5  6  2  0  0  0  0
  5  7  1  0  0  0  0
  2  3  1  0  0  0  0
  2  4  1  0  0  0  0
  2  5  1  0  0  0  0
  1  2  1  0  0  0  0
 26 27  2  0  0  0  0
 26 28  1  0  0  0  0
 24 25  1  0  0  0  0
 22 23  1  0  0  0  0
 22 24  2  0  0  0  0
 20 21  1  0  0  0  0
 19 20  1  0  0  0  0
 19 22  1  0  0  0  0
 17 18  1  0  0  0  0
 17 19  2  0  0  0  0
 15 16  1  0  0  0  0
 15 17  1  0  0  0  0
 14 15  2  0  0  0  0
 14 24  1  0  0  0  0
 11 12  1  0  0  0  0
 11 13  1  0  0  0  0
 11 14  1  0  0  0  0
  9 10  1  0  0  0  0
  9 11  1  0  0  0  0
  9 26  1  0  0  0  0
  7  8  1  0  0  0  0
  7  9  1  0  0  0  0
 30 31  1  0  0  0  0
 30 32  1  0  0  0  0
 30 33  1  0  0  0  0
 28 29  1  0  0  0  0
 28 30  1  0  0  0  0
M  END
$$$$
default_name
  -OEChem-01062215323D

 33 33  0     1  0  0  0  0  0999 V2000
   -4.0702   -3.8485    1.4554 H   0  0  0  0  0  0  0  0  0  0  0  0
   -4.0012   -2.9605    0.8284 C   0  0  0  0  0  0  0  0  0  0  0  0
   -4.7652   -2.2435    1.1234 H   0  0  0  0  0  0  0  0  0  0  0  0
   -4.1352   -3.2385   -0.2156 H   0  0  0  0  0  0  0  0  0  0  0  0
   -2.6362   -2.3395    1.0094 C   0  0  0  0  0  0  0  0  0  0  0  0
   -1.8292   -2.8395    1.7814 O   0  0  0  0  0  0  0  0  0  0  0  0
   -2.3832   -1.2445    0.2964 N   0  0  0  0  0  0  0  0  0  0  0  0
   -3.1102   -0.8685   -0.2946 H   0  0  0  0  0  0  0  0  0  0  0  0
   -1.1292   -0.4875    0.3524 C   0  0  1  0  0  0  0  0  0  0  0  0
   -0.9984   -0.1076    1.3663 H   0  0  0  0  0  0  0  0  0  0  0  0
    0.0478   -1.4247    0.0315 C   0  0  0  0  0  0  0  0  0  0  0  0
   -0.1442   -1.9217   -0.9202 H   0  0  0  0  0  0  0  0  0  0  0  0
    0.9528   -0.8269   -0.0889 H   0  0  0  0  0  0  0  0  0  0  0  0
    0.2877   -2.4931    1.0806 C   0  0  0  0  0  0  0  0  0  0  0  0
    1.0016   -2.1876    2.2568 C   0  0  0  0  0  0  0  0  0  0  0  0
    1.4042   -1.1939    2.4029 H   0  0  0  0  0  0  0  0  0  0  0  0
    1.1867   -3.1725    3.2465 C   0  0  0  0  0  0  0  0  0  0  0  0
    1.7353   -2.9355    4.1452 H   0  0  0  0  0  0  0  0  0  0  0  0
    0.6526   -4.4662    3.0606 C   0  0  0  0  0  0  0  0  0  0  0  0
    0.8232   -5.4221    4.0105 O   0  0  0  0  0  0  0  0  0  0  0  0
    1.3989   -5.1293    4.7181 H   0  0  0  0  0  0  0  0  0  0  0  0
   -0.0657   -4.7687    1.8853 C   0  0  0  0  0  0  0  0  0  0  0  0
   -0.4655   -5.7628    1.7527 H   0  0  0  0  0  0  0  0  0  0  0  0
   -0.2452   -3.7835    0.8958 C   0  0  0  0  0  0  0  0  0  0  0  0
   -0.7892   -4.0193   -0.0111 H   0  0  0  0  0  0  0  0  0  0  0  0
   -1.1726    0.7205   -0.5982 C   0  0  0  0  0  0  0  0  0  0  0  0
   -1.8431    0.6735   -1.6299 O   0  0  0  0  0  0  0  0  0  0  0  0
   -0.4577    1.7995   -0.2552 N   0  0  0  0  0  0  0  0  0  0  0  0
    0.1118    1.7366    0.5763 H   0  0  0  0  0  0  0  0  0  0  0  0
   -0.3875    3.0272   -1.0442 C   0  0  0  0  0  0  0  0  0  0  0  0
   -1.3947    3.3669   -1.2915 H   0  0  0  0  0  0  0  0  0  0  0  0
    0.1268    3.8073   -0.4806 H   0  0  0  0  0  0  0  0  0  0  0  0
    0.1545    2.8365   -1.9728 H   0  0  0  0  0  0  0  0  0  0  0  0
  5  6  2  0  0  0  0
  5  7  1  0  0  0  0
  2  3  1  0  0  0  0
  2  4  1  0  0  0  0
  2  5  1  0  0  0  0
  1  2  1  0  0  0  0
 26 27  2  0  0  0  0
 26 28  1  0  0  0  0
 24 25  1  0  0  0  0
 22 23  1  0  0  0  0
 22 24  2  0  0  0  0
 20 21  1  0  0  0  0
 19 20  1  0  0  0  0
 19 22  1  0  0  0  0
 17 18  1  0  0  0  0
 17 19  2  0  0  0  0
 15 16  1  0  0  0  0
 15 17  1  0  0  0  0
 14 15  2  0  0  0  0
 14 24  1  0  0  0  0
 11 12  1  0  0  0  0
 11 13  1  0  0  0  0
 11 14  1  0  0  0  0
  9 10  1  0  0  0  0
  9 11  1  0  0  0  0
  9 26  1  0  0  0  0
  7  8  1  0  0  0  0
  7  9  1  0  0  0  0
 30 31  1  0  0  0  0
 30 32  1  0  0  0  0
 30 33  1  0  0  0  0
 28 29  1  0  0  0  0
 28 30  1  0  0  0  0
M  END
$$$$
default_name
  -OEChem-01062215323D

 33 33  0     1  0  0  0  0  0999 V2000
   -4.0702   -3.8485    1.4554 H   0  0  0  0  0  0  0  0  0  0  0  0
   -4.0012   -2.9605    0.8284 C   0  0  0  0  0  0  0  0  0  0  0  0
   -4.7652   -2.2435    1.1234 H   0  0  0  0  0  0  0  0  0  0  0  0
   -4.1352   -3.2385   -0.2156 H   0  0  0  0  0  0  0  0  0  0  0  0
   -2.6362   -2.3395    1.0094 C   0  0  0  0  0  0  0  0  0  0  0  0
   -1.8292   -2.8395    1.7814 O   0  0  0  0  0  0  0  0  0  0  0  0
   -2.3832   -1.2445    0.2964 N   0  0  0  0  0  0  0  0  0  0  0  0
   -3.1102   -0.8685   -0.2946 H   0  0  0  0  0  0  0  0  0  0  0  0
   -1.1292   -0.4875    0.3524 C   0  0  1  0  0  0  0  0  0  0  0  0
   -0.9984   -0.1076    1.3663 H   0  0  0  0  0  0  0  0  0  0  0  0
    0.0478   -1.4247    0.0315 C   0  0  0  0  0  0  0  0  0  0  0  0
   -0.1442   -1.9217   -0.9202 H   0  0  0  0  0  0  0  0  0  0  0  0
    0.9528   -0.8269   -0.0889 H   0  0  0  0  0  0  0  0  0  0  0  0
    0.2877   -2.4931    1.0806 C   0  0  0  0  0  0  0  0  0  0  0  0
    1.0016   -2.1876    2.2568 C   0  0  0  0  0  0  0  0  0  0  0  0
    1.4042   -1.1939    2.4029 H   0  0  0  0  0  0  0  0  0  0  0  0
    1.1867   -3.1725    3.2465 C   0  0  0  0  0  0  0  0  0  0  0  0
    1.7353   -2.9355    4.1452 H   0  0  0  0  0  0  0  0  0  0  0  0
    0.6526   -4.4662    3.0606 C   0  0  0  0  0  0  0  0  0  0  0  0
    0.8232   -5.4221    4.0105 O   0  0  0  0  0  0  0  0  0  0  0  0
    1.3989   -5.1293    4.7181 H   0  0  0  0  0  0  0  0  0  0  0  0
   -0.0657   -4.7687    1.8853 C   0  0  0  0  0  0  0  0  0  0  0  0
   -0.4655   -5.7628    1.7527 H   0  0  0  0  0  0  0  0  0  0  0  0
   -0.2452   -3.7835    0.8958 C   0  0  0  0  0  0  0  0  0  0  0  0
   -0.7892   -4.0193   -0.0111 H   0  0  0  0  0  0  0  0  0  0  0  0
   -1.1726    0.7205   -0.5982 C   0  0  0  0  0  0  0  0  0  0  0  0
   -2.0381    0.7915   -1.4712 O   0  0  0  0  0  0  0  0  0  0  0  0
   -0.2402    1.6673   -0.4331 N   0  0  0  0  0  0  0  0  0  0  0  0
    0.4693    1.5060    0.2669 H   0  0  0  0  0  0  0  0  0  0  0  0
   -0.1378    2.8750   -1.2490 C   0  0  0  0  0  0  0  0  0  0  0  0
   -1.1071    3.3745   -1.2950 H   0  0  0  0  0  0  0  0  0  0  0  0
    0.5981    3.5571   -0.8201 H   0  0  0  0  0  0  0  0  0  0  0  0
    0.1660    2.6082   -2.2634 H   0  0  0  0  0  0  0  0  0  0  0  0
  5  6  2  0  0  0  0
  5  7  1  0  0  0  0
  2  3  1  0  0  0  0
  2  4  1  0  0  0  0
  2  5  1  0  0  0  0
  1  2  1  0  0  0  0
 26 27  2  0  0  0  0
 26 28  1  0  0  0  0
 24 25  1  0  0  0  0
 22 23  1  0  0  0  0
 22 24  2  0  0  0  0
 20 21  1  0  0  0  0
 19 20  1  0  0  0  0
 19 22  1  0  0  0  0
 17 18  1  0  0  0  0
 17 19  2  0  0  0  0
 15 16  1  0  0  0  0
 15 17  1  0  0  0  0
 14 15  2  0  0  0  0
 14 24  1  0  0  0  0
 11 12  1  0  0  0  0
 11 13  1  0  0  0  0
 11 14  1  0  0  0  0
  9 10  1  0  0  0  0
  9 11  1  0  0  0  0
  9 26  1  0  0  0  0
  7  8  1  0  0  0  0
  7  9  1  0  0  0  0
 30 31  1  0  0  0  0
 30 32  1  0  0  0  0
 30 33  1  0  0  0  0
 28 29  1  0  0  0  0
 28 30  1  0  0  0  0
M  END
$$$$
default_name
  -OEChem-01062215323D

 33 33  0     1  0  0  0  0  0999 V2000
   -4.0702   -3.8485    1.4554 H   0  0  0  0  0  0  0  0  0  0  0  0
   -4.0012   -2.9605    0.8284 C   0  0  0  0  0  0  0  0  0  0  0  0
   -4.7652   -2.2435    1.1234 H   0  0  0  0  0  0  0  0  0  0  0  0
   -4.1352   -3.2385   -0.2156 H   0  0  0  0  0  0  0  0  0  0  0  0
   -2.6362   -2.3395    1.0094 C   0  0  0  0  0  0  0  0  0  0  0  0
   -1.8292   -2.8395    1.7814 O   0  0  0  0  0  0  0  0  0  0  0  0
   -2.3832   -1.2445    0.2964 N   0  0  0  0  0  0  0  0  0  0  0  0
   -3.1102   -0.8685   -0.2946 H   0  0  0  0  0  0  0  0  0  0  0  0
   -1.1292   -0.4875    0.3524 C   0  0  1  0  0  0  0  0  0  0  0  0
   -0.8610   -0.3377    1.3988 H   0  0  0  0  0  0  0  0  0  0  0  0
   -0.0110   -1.3010   -0.3217 C   0  0  0  0  0  0  0  0  0  0  0  0
   -0.3322   -1.5804   -1.3260 H   0  0  0  0  0  0  0  0  0  0  0  0
    0.8726   -0.6691   -0.4252 H   0  0  0  0  0  0  0  0  0  0  0  0
    0.3625   -2.5684    0.4226 C   0  0  0  0  0  0  0  0  0  0  0  0
    1.2300   -2.5124    1.5320 C   0  0  0  0  0  0  0  0  0  0  0  0
    1.6538   -1.5657    1.8405 H   0  0  0  0  0  0  0  0  0  0  0  0
    1.5418   -3.6865    2.2448 C   0  0  0  0  0  0  0  0  0  0  0  0
    2.2076   -3.6402    3.0928 H   0  0  0  0  0  0  0  0  0  0  0  0
    0.9808   -4.9202    1.8487 C   0  0  0  0  0  0  0  0  0  0  0  0
    1.2729   -6.0576    2.5313 O   0  0  0  0  0  0  0  0  0  0  0  0
    1.9402   -5.9140    3.2036 H   0  0  0  0  0  0  0  0  0  0  0  0
    0.1091   -4.9736    0.7413 C   0  0  0  0  0  0  0  0  0  0  0  0
   -0.3101   -5.9235    0.4455 H   0  0  0  0  0  0  0  0  0  0  0  0
   -0.1970   -3.7990    0.0281 C   0  0  0  0  0  0  0  0  0  0  0  0
   -0.8595   -3.8423   -0.8282 H   0  0  0  0  0  0  0  0  0  0  0  0
   -1.2941    0.8991   -0.2919 C   0  0  0  0  0  0  0  0  0  0  0  0
   -2.3783    1.2362   -0.7683 O   0  0  0  0  0  0  0  0  0  0  0  0
   -0.2216    1.7006   -0.3100 N   0  0  0  0  0  0  0  0  0  0  0  0
    0.6455    1.3275    0.0482 H   0  0  0  0  0  0  0  0  0  0  0  0
   -0.2061    3.0445   -0.8833 C   0  0  0  0  0  0  0  0  0  0  0  0
   -1.0422    3.6250   -0.4895 H   0  0  0  0  0  0  0  0  0  0  0  0
    0.7296    3.5481   -0.6354 H   0  0  0  0  0  0  0  0  0  0  0  0
   -0.3052    2.9818   -1.9689 H   0  0  0  0  0  0  0  0  0  0  0  0
  5  6  2  0  0  0  0
  5  7  1  0  0  0  0
  2  3  1  0  0  0  0
  2  4  1  0  0  0  0
  2  5  1  0  0  0  0
  1  2  1  0  0  0  0
 26 27  2  0  0  0  0
 26 28  1  0  0  0  0
 24 25  1  0  0  0  0
 22 23  1  0  0  0  0
 22 24  2  0  0  0  0
 20 21  1  0  0  0  0
 19 20  1  0  0  0  0
 19 22  1  0  0  0  0
 17 18  1  0  0  0  0
 17 19  2  0  0  0  0
 15 16  1  0  0  0  0
 15 17  1  0  0  0  0
 14 15  2  0  0  0  0
 14 24  1  0  0  0  0
 11 12  1  0  0  0  0
 11 13  1  0  0  0  0
 11 14  1  0  0  0  0
  9 10  1  0  0  0  0
  9 11  1  0  0  0  0
  9 26  1  0  0  0  0
  7  8  1  0  0  0  0
  7  9  1  0  0  0  0
 30 31  1  0  0  0  0
 30 32  1  0  0  0  0
 30 33  1  0  0  0  0
 28 29  1  0  0  0  0
 28 30  1  0  0  0  0
M  END
$$$$
default_name
  -OEChem-01062215323D

 33 33  0     1  0  0  0  0  0999 V2000
   -4.0702   -3.8485    1.4554 H   0  0  0  0  0  0  0  0  0  0  0  0
   -4.0012   -2.9605    0.8284 C   0  0  0  0  0  0  0  0  0  0  0  0
   -4.7652   -2.2435    1.1234 H   0  0  0  0  0  0  0  0  0  0  0  0
   -4.1352   -3.2385   -0.2156 H   0  0  0  0  0  0  0  0  0  0  0  0
   -2.6362   -2.3395    1.0094 C   0  0  0  0  0  0  0  0  0  0  0  0
   -1.8292   -2.8395    1.7814 O   0  0  0  0  0  0  0  0  0  0  0  0
   -2.3832   -1.2445    0.2964 N   0  0  0  0  0  0  0  0  0  0  0  0
   -3.1102   -0.8685   -0.2946 H   0  0  0  0  0  0  0  0  0  0  0  0
   -1.1292   -0.4875    0.3524 C   0  0  1  0  0  0  0  0  0  0  0  0
   -0.8610   -0.3377    1.3988 H   0  0  0  0  0  0  0  0  0  0  0  0
   -0.0110   -1.3010   -0.3217 C   0  0  0  0  0  0  0  0  0  0  0  0
   -0.3322   -1.5804   -1.3260 H   0  0  0  0  0  0  0  0  0  0  0  0
    0.8726   -0.6691   -0.4252 H   0  0  0  0  0  0  0  0  0  0  0  0
    0.3625   -2.5684    0.4226 C   0  0  0  0  0  0  0  0  0  0  0  0
    1.2300   -2.5124    1.5320 C   0  0  0  0  0  0  0  0  0  0  0  0
    1.6538   -1.5657    1.8405 H   0  0  0  0  0  0  0  0  0  0  0  0
    1.5418   -3.6865    2.2448 C   0  0  0  0  0  0  0  0  0  0  0  0
    2.2076   -3.6402    3.0928 H   0  0  0  0  0  0  0  0  0  0  0  0
    0.9808   -4.9202    1.8487 C   0  0  0  0  0  0  0  0  0  0  0  0
    1.2729   -6.0576    2.5313 O   0  0  0  0  0  0  0  0  0  0  0  0
    1.9402   -5.9140    3.2036 H   0  0  0  0  0  0  0  0  0  0  0  0
    0.1091   -4.9736    0.7413 C   0  0  0  0  0  0  0  0  0  0  0  0
   -0.3101   -5.9235    0.4455 H   0  0  0  0  0  0  0  0  0  0  0  0
   -0.1970   -3.7990    0.0281 C   0  0  0  0  0  0  0  0  0  0  0  0
   -0.8595   -3.8423   -0.8282 H   0  0  0  0  0  0  0  0  0  0  0  0
   -1.2941    0.8991   -0.2919 C   0  0  0  0  0  0  0  0  0  0  0  0
   -2.4183    1.3481   -0.5173 O   0  0  0  0  0  0  0  0  0  0  0  0
   -0.1777    1.5754   -0.5907 N   0  0  0  0  0  0  0  0  0  0  0  0
    0.7051    1.1131   -0.4284 H   0  0  0  0  0  0  0  0  0  0  0  0
   -0.1561    2.9004   -1.2061 C   0  0  0  0  0  0  0  0  0  0  0  0
   -0.8105    3.5766   -0.6531 H   0  0  0  0  0  0  0  0  0  0  0  0
    0.8593    3.3000   -1.2025 H   0  0  0  0  0  0  0  0  0  0  0  0
   -0.5135    2.8331   -2.2357 H   0  0  0  0  0  0  0  0  0  0  0  0
  5  6  2  0  0  0  0
  5  7  1  0  0  0  0
  2  3  1  0  0  0  0
  2  4  1  0  0  0  0
  2  5  1  0  0  0  0
  1  2  1  0  0  0  0
 26 27  2  0  0  0  0
 26 28  1  0  0  0  0
 24 25  1  0  0  0  0
 22 23  1  0  0  0  0
 22 24  2  0  0  0  0
 20 21  1  0  0  0  0
 19 20  1  0  0  0  0
 19 22  1  0  0  0  0
 17 18  1  0  0  0  0
 17 19  2  0  0  0  0
 15 16  1  0  0  0  0
 15 17  1  0  0  0  0
 14 15  2  0  0  0  0
 14 24  1  0  0  0  0
 11 12  1  0  0  0  0
 11 13  1  0  0  0  0
 11 14  1  0  0  0  0
  9 10  1  0  0  0  0
  9 11  1  0  0  0  0
  9 26  1  0  0  0  0
  7  8  1  0  0  0  0
  7  9  1  0  0  0  0
 30 31  1  0  0  0  0
 30 32  1  0  0  0  0
 30 33  1  0  0  0  0
 28 29  1  0  0  0  0
 28 30  1  0  0  0  0
M  END
$$$$
default_name
  -OEChem-01062215323D

 33 33  0     1  0  0  0  0  0999 V2000
   -4.0702   -3.8485    1.4554 H   0  0  0  0  0  0  0  0  0  0  0  0
   -4.0012   -2.9605    0.8284 C   0  0  0  0  0  0  0  0  0  0  0  0
   -4.7652   -2.2435    1.1234 H   0  0  0  0  0  0  0  0  0  0  0  0
   -4.1352   -3.2385   -0.2156 H   0  0  0  0  0  0  0  0  0  0  0  0
   -2.6362   -2.3395    1.0094 C   0  0  0  0  0  0  0  0  0  0  0  0
   -1.8292   -2.8395    1.7814 O   0  0  0  0  0  0  0  0  0  0  0  0
   -2.3832   -1.2445    0.2964 N   0  0  0  0  0  0  0  0  0  0  0  0
   -3.1102   -0.8685   -0.2946 H   0  0  0  0  0  0  0  0  0  0  0  0
   -1.1292   -0.4875    0.3524 C   0  0  1  0  0  0  0  0  0  0  0  0
   -0.8610   -0.3377    1.3988 H   0  0  0  0  0  0  0  0  0  0  0  0
   -0.0110   -1.3010   -0.3217 C   0  0  0  0  0  0  0  0  0  0  0  0
   -0.3322   -1.5804   -1.3260 H   0  0  0  0  0  0  0  0  0  0  0  0
    0.8726   -0.6691   -0.4252 H   0  0  0  0  0  0  0  0  0  0  0  0
    0.3625   -2.5684    0.4226 C   0  0  0  0  0  0  0  0  0  0  0  0
    1.2300   -2.5124    1.5320 C   0  0  0  0  0  0  0  0  0  0  0  0
    1.6538   -1.5657    1.8405 H   0  0  0  0  0  0  0  0  0  0  0  0
    1.5418   -3.6865    2.2448 C   0  0  0  0  0  0  0  0  0  0  0  0
    2.2076   -3.6402    3.0928 H   0  0  0  0  0  0  0  0  0  0  0  0
    0.9808   -4.9202    1.8487 C   0  0  0  0  0  0  0  0  0  0  0  0
    1.2729   -6.0576    2.5313 O   0  0  0  0  0  0  0  0  0  0  0  0
    1.9402   -5.9140    3.2036 H   0  0  0  0  0  0  0  0  0  0  0  0
    0.1091   -4.9736    0.7413 C   0  0  0  0  0  0  0  0  0  0  0  0
   -0.3101   -5.9235    0.4455 H   0  0  0  0  0  0  0  0  0  0  0  0
   -0.1970   -3.7990    0.0281 C   0  0  0  0  0  0  0  0  0  0  0  0
   -0.8595   -3.8423   -0.8282 H   0  0  0  0  0  0  0  0  0  0  0  0
   -1.2941    0.8991   -0.2919 C   0  0  0  0  0  0  0  0  0  0  0  0
   -2.3862    1.4674   -0.2686 O   0  0  0  0  0  0  0  0  0  0  0  0
   -0.2144    1.4419   -0.8686 N   0  0  0  0  0  0  0  0  0  0  0  0
    0.6282    0.8864   -0.8968 H   0  0  0  0  0  0  0  0  0  0  0  0
   -0.1988    2.7469   -1.5255 C   0  0  0  0  0  0  0  0  0  0  0  0
   -0.6302    3.5001   -0.8639 H   0  0  0  0  0  0  0  0  0  0  0  0
    0.8253    3.0306   -1.7737 H   0  0  0  0  0  0  0  0  0  0  0  0
   -0.7931    2.7046   -2.4406 H   0  0  0  0  0  0  0  0  0  0  0  0
  5  6  2  0  0  0  0
  5  7  1  0  0  0  0
  2  3  1  0  0  0  0
  2  4  1  0  0  0  0
  2  5  1  0  0  0  0
  1  2  1  0  0  0  0
 26 27  2  0  0  0  0
 26 28  1  0  0  0  0
 24 25  1  0  0  0  0
 22 23  1  0  0  0  0
 22 24  2  0  0  0  0
 20 21  1  0  0  0  0
 19 20  1  0  0  0  0
 19 22  1  0  0  0  0
 17 18  1  0  0  0  0
 17 19  2  0  0  0  0
 15 16  1  0  0  0  0
 15 17  1  0  0  0  0
 14 15  2  0  0  0  0
 14 24  1  0  0  0  0
 11 12  1  0  0  0  0
 11 13  1  0  0  0  0
 11 14  1  0  0  0  0
  9 10  1  0  0  0  0
  9 11  1  0  0  0  0
  9 26  1  0  0  0  0
  7  8  1  0  0  0  0
  7  9  1  0  0  0  0
 30 31  1  0  0  0  0
 30 32  1  0  0  0  0
 30 33  1  0  0  0  0
 28 29  1  0  0  0  0
 28 30  1  0  0  0  0
M  END
$$$$
default_name
  -OEChem-01062215323D

 33 33  0     1  0  0  0  0  0999 V2000
   -4.0702   -3.8485    1.4554 H   0  0  0  0  0  0  0  0  0  0  0  0
   -4.0012   -2.9605    0.8284 C   0  0  0  0  0  0  0  0  0  0  0  0
   -4.7652   -2.2435    1.1234 H   0  0  0  0  0  0  0  0  0  0  0  0
   -4.1352   -3.2385   -0.2156 H   0  0  0  0  0  0  0  0  0  0  0  0
   -2.6362   -2.3395    1.0094 C   0  0  0  0  0  0  0  0  0  0  0  0
   -1.8292   -2.8395    1.7814 O   0  0  0  0  0  0  0  0  0  0  0  0
   -2.3832   -1.2445    0.2964 N   0  0  0  0  0  0  0  0  0  0  0  0
   -3.1102   -0.8685   -0.2946 H   0  0  0  0  0  0  0  0  0  0  0  0
   -1.1292   -0.4875    0.3524 C   0  0  1  0  0  0  0  0  0  0  0  0
   -0.8610   -0.3377    1.3988 H   0  0  0  0  0  0  0  0  0  0  0  0
   -0.0110   -1.3010   -0.3217 C   0  0  0  0  0  0  0  0  0  0  0  0
   -0.3322   -1.5804   -1.3260 H   0  0  0  0  0  0  0  0  0  0  0  0
    0.8726   -0.6691   -0.4252 H   0  0  0  0  0  0  0  0  0  0  0  0
    0.3625   -2.5684    0.4226 C   0  0  0  0  0  0  0  0  0  0  0  0
    1.2300   -2.5124    1.5320 C   0  0  0  0  0  0  0  0  0  0  0  0
    1.6538   -1.5657    1.8405 H   0  0  0  0  0  0  0  0  0  0  0  0
    1.5418   -3.6865    2.2448 C   0  0  0  0  0  0  0  0  0  0  0  0
    2.2076   -3.6402    3.0928 H   0  0  0  0  0  0  0  0  0  0  0  0
    0.9808   -4.9202    1.8487 C   0  0  0  0  0  0  0  0  0  0  0  0
    1.2729   -6.0576    2.5313 O   0  0  0  0  0  0  0  0  0  0  0  0
    1.9402   -5.9140    3.2036 H   0  0  0  0  0  0  0  0  0  0  0  0
    0.1091   -4.9736    0.7413 C   0  0  0  0  0  0  0  0  0  0  0  0
   -0.3101   -5.9235    0.4455 H   0  0  0  0  0  0  0  0  0  0  0  0
   -0.1970   -3.7990    0.0281 C   0  0  0  0  0  0  0  0  0  0  0  0
   -0.8595   -3.8423   -0.8282 H   0  0  0  0  0  0  0  0  0  0  0  0
   -1.2941    0.8991   -0.2919 C   0  0  0  0  0  0  0  0  0  0  0  0
   -2.2842    1.5862   -0.0391 O   0  0  0  0  0  0  0  0  0  0  0  0
   -0.3292    1.3093   -1.1247 N   0  0  0  0  0  0  0  0  0  0  0  0
    0.4200    0.6627   -1.3249 H   0  0  0  0  0  0  0  0  0  0  0  0
   -0.3312    2.5944   -1.8198 C   0  0  0  0  0  0  0  0  0  0  0  0
   -0.5134    3.4008   -1.1074 H   0  0  0  0  0  0  0  0  0  0  0  0
    0.6299    2.7581   -2.3100 H   0  0  0  0  0  0  0  0  0  0  0  0
   -1.1249    2.6051   -2.5697 H   0  0  0  0  0  0  0  0  0  0  0  0
  5  6  2  0  0  0  0
  5  7  1  0  0  0  0
  2  3  1  0  0  0  0
  2  4  1  0  0  0  0
  2  5  1  0  0  0  0
  1  2  1  0  0  0  0
 26 27  2  0  0  0  0
 26 28  1  0  0  0  0
 24 25  1  0  0  0  0
 22 23  1  0  0  0  0
 22 24  2  0  0  0  0
 20 21  1  0  0  0  0
 19 20  1  0  0  0  0
 19 22  1  0  0  0  0
 17 18  1  0  0  0  0
 17 19  2  0  0  0  0
 15 16  1  0  0  0  0
 15 17  1  0  0  0  0
 14 15  2  0  0  0  0
 14 24  1  0  0  0  0
 11 12  1  0  0  0  0
 11 13  1  0  0  0  0
 11 14  1  0  0  0  0
  9 10  1  0  0  0  0
  9 11  1  0  0  0  0
  9 26  1  0  0  0  0
  7  8  1  0  0  0  0
  7  9  1  0  0  0  0
 30 31  1  0  0  0  0
 30 32  1  0  0  0  0
 30 33  1  0  0  0  0
 28 29  1  0  0  0  0
 28 30  1  0  0  0  0
M  END
$$$$
default_name
  -OEChem-01062215323D

 33 33  0     1  0  0  0  0  0999 V2000
   -4.0702   -3.8485    1.4554 H   0  0  0  0  0  0  0  0  0  0  0  0
   -4.0012   -2.9605    0.8284 C   0  0  0  0  0  0  0  0  0  0  0  0
   -4.7652   -2.2435    1.1234 H   0  0  0  0  0  0  0  0  0  0  0  0
   -4.1352   -3.2385   -0.2156 H   0  0  0  0  0  0  0  0  0  0  0  0
   -2.6362   -2.3395    1.0094 C   0  0  0  0  0  0  0  0  0  0  0  0
   -1.8292   -2.8395    1.7814 O   0  0  0  0  0  0  0  0  0  0  0  0
   -2.3832   -1.2445    0.2964 N   0  0  0  0  0  0  0  0  0  0  0  0
   -3.1102   -0.8685   -0.2946 H   0  0  0  0  0  0  0  0  0  0  0  0
   -1.1292   -0.4875    0.3524 C   0  0  1  0  0  0  0  0  0  0  0  0
   -0.8610   -0.3377    1.3988 H   0  0  0  0  0  0  0  0  0  0  0  0
   -0.0110   -1.3010   -0.3217 C   0  0  0  0  0  0  0  0  0  0  0  0
   -0.3322   -1.5804   -1.3260 H   0  0  0  0  0  0  0  0  0  0  0  0
    0.8726   -0.6691   -0.4252 H   0  0  0  0  0  0  0  0  0  0  0  0
    0.3625   -2.5684    0.4226 C   0  0  0  0  0  0  0  0  0  0  0  0
    1.2300   -2.5124    1.5320 C   0  0  0  0  0  0  0  0  0  0  0  0
    1.6538   -1.5657    1.8405 H   0  0  0  0  0  0  0  0  0  0  0  0
    1.5418   -3.6865    2.2448 C   0  0  0  0  0  0  0  0  0  0  0  0
    2.2076   -3.6402    3.0928 H   0  0  0  0  0  0  0  0  0  0  0  0
    0.9808   -4.9202    1.8487 C   0  0  0  0  0  0  0  0  0  0  0  0
    1.2729   -6.0576    2.5313 O   0  0  0  0  0  0  0  0  0  0  0  0
    1.9402   -5.9140    3.2036 H   0  0  0  0  0  0  0  0  0  0  0  0
    0.1091   -4.9736    0.7413 C   0  0  0  0  0  0  0  0  0  0  0  0
   -0.3101   -5.9235    0.4455 H   0  0  0  0  0  0  0  0  0  0  0  0
   -0.1970   -3.7990    0.0281 C   0  0  0  0  0  0  0  0  0  0  0  0
   -0.8595   -3.8423   -0.8282 H   0  0  0  0  0  0  0  0  0  0  0  0
   -1.2941    0.8991   -0.2919 C   0  0  0  0  0  0  0  0  0  0  0  0
   -2.1192    1.6962    0.1554 O   0  0  0  0  0  0  0  0  0  0  0  0
   -0.5142    1.1865   -1.3417 N   0  0  0  0  0  0  0  0  0  0  0  0
    0.0948    0.4573   -1.6837 H   0  0  0  0  0  0  0  0  0  0  0  0
   -0.5443    2.4533   -2.0690 C   0  0  0  0  0  0  0  0  0  0  0  0
   -0.4683    3.2855   -1.3671 H   0  0  0  0  0  0  0  0  0  0  0  0
    0.2865    2.5013   -2.7749 H   0  0  0  0  0  0  0  0  0  0  0  0
   -1.4863    2.5415   -2.6143 H   0  0  0  0  0  0  0  0  0  0  0  0
  5  6  2  0  0  0  0
  5  7  1  0  0  0  0
  2  3  1  0  0  0  0
  2  4  1  0  0  0  0
  2  5  1  0  0  0  0
  1  2  1  0  0  0  0
 26 27  2  0  0  0  0
 26 28  1  0  0  0  0
 24 25  1  0  0  0  0
 22 23  1  0  0  0  0
 22 24  2  0  0  0  0
 20 21  1  0  0  0  0
 19 20  1  0  0  0  0
 19 22  1  0  0  0  0
 17 18  1  0  0  0  0
 17 19  2  0  0  0  0
 15 16  1  0  0  0  0
 15 17  1  0  0  0  0
 14 15  2  0  0  0  0
 14 24  1  0  0  0  0
 11 12  1  0  0  0  0
 11 13  1  0  0  0  0
 11 14  1  0  0  0  0
  9 10  1  0  0  0  0
  9 11  1  0  0  0  0
  9 26  1  0  0  0  0
  7  8  1  0  0  0  0
  7  9  1  0  0  0  0
 30 31  1  0  0  0  0
 30 32  1  0  0  0  0
 30 33  1  0  0  0  0
 28 29  1  0  0  0  0
 28 30  1  0  0  0  0
M  END
$$$$
default_name
  -OEChem-01062215323D

 33 33  0     1  0  0  0  0  0999 V2000
   -4.0702   -3.8485    1.4554 H   0  0  0  0  0  0  0  0  0  0  0  0
   -4.0012   -2.9605    0.8284 C   0  0  0  0  0  0  0  0  0  0  0  0
   -4.7652   -2.2435    1.1234 H   0  0  0  0  0  0  0  0  0  0  0  0
   -4.1352   -3.2385   -0.2156 H   0  0  0  0  0  0  0  0  0  0  0  0
   -2.6362   -2.3395    1.0094 C   0  0  0  0  0  0  0  0  0  0  0  0
   -1.8292   -2.8395    1.7814 O   0  0  0  0  0  0  0  0  0  0  0  0
   -2.3832   -1.2445    0.2964 N   0  0  0  0  0  0  0  0  0  0  0  0
   -3.1102   -0.8685   -0.2946 H   0  0  0  0  0  0  0  0  0  0  0  0
   -1.1292   -0.4875    0.3524 C   0  0  1  0  0  0  0  0  0  0  0  0
   -0.8610   -0.3377    1.3988 H   0  0  0  0  0  0  0  0  0  0  0  0
   -0.0110   -1.3010   -0.3217 C   0  0  0  0  0  0  0  0  0  0  0  0
   -0.3322   -1.5804   -1.3260 H   0  0  0  0  0  0  0  0  0  0  0  0
    0.8726   -0.6691   -0.4252 H   0  0  0  0  0  0  0  0  0  0  0  0
    0.3625   -2.5684    0.4226 C   0  0  0  0  0  0  0  0  0  0  0  0
    1.2300   -2.5124    1.5320 C   0  0  0  0  0  0  0  0  0  0  0  0
    1.6538   -1.5657    1.8405 H   0  0  0  0  0  0  0  0  0  0  0  0
    1.5418   -3.6865    2.2448 C   0  0  0  0  0  0  0  0  0  0  0  0
    2.2076   -3.6402    3.0928 H   0  0  0  0  0  0  0  0  0  0  0  0
    0.9808   -4.9202    1.8487 C   0  0  0  0  0  0  0  0  0  0  0  0
    1.2729   -6.0576    2.5313 O   0  0  0  0  0  0  0  0  0  0  0  0
    1.9402   -5.9140    3.2036 H   0  0  0  0  0  0  0  0  0  0  0  0
    0.1091   -4.9736    0.7413 C   0  0  0  0  0  0  0  0  0  0  0  0
   -0.3101   -5.9235    0.4455 H   0  0  0  0  0  0  0  0  0  0  0  0
   -0.1970   -3.7990    0.0281 C   0  0  0  0  0  0  0  0  0  0  0  0
   -0.8595   -3.8423   -0.8282 H   0  0  0  0  0  0  0  0  0  0  0  0
   -1.2941    0.8991   -0.2919 C   0  0  0  0  0  0  0  0  0  0  0  0
   -1.9026    1.7899    0.3017 O   0  0  0  0  0  0  0  0  0  0  0  0
   -0.7569    1.0819   -1.5047 N   0  0  0  0  0  0  0  0  0  0  0  0
   -0.3254    0.2842   -1.9487 H   0  0  0  0  0  0  0  0  0  0  0  0
   -0.8236    2.3332   -2.2561 C   0  0  0  0  0  0  0  0  0  0  0  0
   -0.4977    3.1621   -1.6253 H   0  0  0  0  0  0  0  0  0  0  0  0
   -0.1816    2.2775   -3.1366 H   0  0  0  0  0  0  0  0  0  0  0  0
   -1.8527    2.5179   -2.5712 H   0  0  0  0  0  0  0  0  0  0  0  0
  5  6  2  0  0  0  0
  5  7  1  0  0  0  0
  2  3  1  0  0  0  0
  2  4  1  0  0  0  0
  2  5  1  0  0  0  0
  1  2  1  0  0  0  0
 26 27  2  0  0  0  0
 26 28  1  0  0  0  0
 24 25  1  0  0  0  0
 22 23  1  0  0  0  0
 22 24  2  0  0  0  0
 20 21  1  0  0  0  0
 19 20  1  0  0  0  0
 19 22  1  0  0  0  0
 17 18  1  0  0  0  0
 17 19  2  0  0  0  0
 15 16  1  0  0  0  0
 15 17  1  0  0  0  0
 14 15  2  0  0  0  0
 14 24  1  0  0  0  0
 11 12  1  0  0  0  0
 11 13  1  0  0  0  0
 11 14  1  0  0  0  0
  9 10  1  0  0  0  0
  9 11  1  0  0  0  0
  9 26  1  0  0  0  0
  7  8  1  0  0  0  0
  7  9  1  0  0  0  0
 30 31  1  0  0  0  0
 30 32  1  0  0  0  0
 30 33  1  0  0  0  0
 28 29  1  0  0  0  0
 28 30  1  0  0  0  0
M  END
$$$$
default_name
  -OEChem-01062215323D

 33 33  0     1  0  0  0  0  0999 V2000
   -4.0702   -3.8485    1.4554 H   0  0  0  0  0  0  0  0  0  0  0  0
   -4.0012   -2.9605    0.8284 C   0  0  0  0  0  0  0  0  0  0  0  0
   -4.7652   -2.2435    1.1234 H   0  0  0  0  0  0  0  0  0  0  0  0
   -4.1352   -3.2385   -0.2156 H   0  0  0  0  0  0  0  0  0  0  0  0
   -2.6362   -2.3395    1.0094 C   0  0  0  0  0  0  0  0  0  0  0  0
   -1.8292   -2.8395    1.7814 O   0  0  0  0  0  0  0  0  0  0  0  0
   -2.3832   -1.2445    0.2964 N   0  0  0  0  0  0  0  0  0  0  0  0
   -3.1102   -0.8685   -0.2946 H   0  0  0  0  0  0  0  0  0  0  0  0
   -1.1292   -0.4875    0.3524 C   0  0  1  0  0  0  0  0  0  0  0  0
   -0.8610   -0.3377    1.3988 H   0  0  0  0  0  0  0  0  0  0  0  0
   -0.0110   -1.3010   -0.3217 C   0  0  0  0  0  0  0  0  0  0  0  0
   -0.3322   -1.5804   -1.3260 H   0  0  0  0  0  0  0  0  0  0  0  0
    0.8726   -0.6691   -0.4252 H   0  0  0  0  0  0  0  0  0  0  0  0
    0.3625   -2.5684    0.4226 C   0  0  0  0  0  0  0  0  0  0  0  0
    1.2300   -2.5124    1.5320 C   0  0  0  0  0  0  0  0  0  0  0  0
    1.6538   -1.5657    1.8405 H   0  0  0  0  0  0  0  0  0  0  0  0
    1.5418   -3.6865    2.2448 C   0  0  0  0  0  0  0  0  0  0  0  0
    2.2076   -3.6402    3.0928 H   0  0  0  0  0  0  0  0  0  0  0  0
    0.9808   -4.9202    1.8487 C   0  0  0  0  0  0  0  0  0  0  0  0
    1.2729   -6.0576    2.5313 O   0  0  0  0  0  0  0  0  0  0  0  0
    1.9402   -5.9140    3.2036 H   0  0  0  0  0  0  0  0  0  0  0  0
    0.1091   -4.9736    0.7413 C   0  0  0  0  0  0  0  0  0  0  0  0
   -0.3101   -5.9235    0.4455 H   0  0  0  0  0  0  0  0  0  0  0  0
   -0.1970   -3.7990    0.0281 C   0  0  0  0  0  0  0  0  0  0  0  0
   -0.8595   -3.8423   -0.8282 H   0  0  0  0  0  0  0  0  0  0  0  0
   -1.2941    0.8991   -0.2919 C   0  0  0  0  0  0  0  0  0  0  0  0
   -1.6490    1.8611    0.3899 O   0  0  0  0  0  0  0  0  0  0  0  0
   -1.0407    1.0026   -1.6026 N   0  0  0  0  0  0  0  0  0  0  0  0
   -0.8118    0.1553   -2.1017 H   0  0  0  0  0  0  0  0  0  0  0  0
   -1.1501    2.2422   -2.3682 C   0  0  0  0  0  0  0  0  0  0  0  0
   -0.5999    3.0388   -1.8644 H   0  0  0  0  0  0  0  0  0  0  0  0
   -0.7424    2.1021   -3.3707 H   0  0  0  0  0  0  0  0  0  0  0  0
   -2.1991    2.5361   -2.4435 H   0  0  0  0  0  0  0  0  0  0  0  0
  5  6  2  0  0  0  0
  5  7  1  0  0  0  0
  2  3  1  0  0  0  0
  2  4  1  0  0  0  0
  2  5  1  0  0  0  0
  1  2  1  0  0  0  0
 26 27  2  0  0  0  0
 26 28  1  0  0  0  0
 24 25  1  0  0  0  0
 22 23  1  0  0  0  0
 22 24  2  0  0  0  0
 20 21  1  0  0  0  0
 19 20  1  0  0  0  0
 19 22  1  0  0  0  0
 17 18  1  0  0  0  0
 17 19  2  0  0  0  0
 15 16  1  0  0  0  0
 15 17  1  0  0  0  0
 14 15  2  0  0  0  0
 14 24  1  0  0  0  0
 11 12  1  0  0  0  0
 11 13  1  0  0  0  0
 11 14  1  0  0  0  0
  9 10  1  0  0  0  0
  9 11  1  0  0  0  0
  9 26  1  0  0  0  0
  7  8  1  0  0  0  0
  7  9  1  0  0  0  0
 30 31  1  0  0  0  0
 30 32  1  0  0  0  0
 30 33  1  0  0  0  0
 28 29  1  0  0  0  0
 28 30  1  0  0  0  0
M  END
$$$$
default_name
  -OEChem-01062215323D

 33 33  0     1  0  0  0  0  0999 V2000
   -4.0702   -3.8485    1.4554 H   0  0  0  0  0  0  0  0  0  0  0  0
   -4.0012   -2.9605    0.8284 C   0  0  0  0  0  0  0  0  0  0  0  0
   -4.7652   -2.2435    1.1234 H   0  0  0  0  0  0  0  0  0  0  0  0
   -4.1352   -3.2385   -0.2156 H   0  0  0  0  0  0  0  0  0  0  0  0
   -2.6362   -2.3395    1.0094 C   0  0  0  0  0  0  0  0  0  0  0  0
   -1.8292   -2.8395    1.7814 O   0  0  0  0  0  0  0  0  0  0  0  0
   -2.3832   -1.2445    0.2964 N   0  0  0  0  0  0  0  0  0  0  0  0
   -3.1102   -0.8685   -0.2946 H   0  0  0  0  0  0  0  0  0  0  0  0
   -1.1292   -0.4875    0.3524 C   0  0  1  0  0  0  0  0  0  0  0  0
   -0.8610   -0.3377    1.3988 H   0  0  0  0  0  0  0  0  0  0  0  0
   -0.0110   -1.3010   -0.3217 C   0  0  0  0  0  0  0  0  0  0  0  0
   -0.3322   -1.5804   -1.3260 H   0  0  0  0  0  0  0  0  0  0  0  0
    0.8726   -0.6691   -0.4252 H   0  0  0  0  0  0  0  0  0  0  0  0
    0.3625   -2.5684    0.4226 C   0  0  0  0  0  0  0  0  0  0  0  0
    1.2300   -2.5124    1.5320 C   0  0  0  0  0  0  0  0  0  0  0  0
    1.6538   -1.5657    1.8405 H   0  0  0  0  0  0  0  0  0  0  0  0
    1.5418   -3.6865    2.2448 C   0  0  0  0  0  0  0  0  0  0  0  0
    2.2076   -3.6402    3.0928 H   0  0  0  0  0  0  0  0  0  0  0  0
    0.9808   -4.9202    1.8487 C   0  0  0  0  0  0  0  0  0  0  0  0
    1.2729   -6.0576    2.5313 O   0  0  0  0  0  0  0  0  0  0  0  0
    1.9402   -5.9140    3.2036 H   0  0  0  0  0  0  0  0  0  0  0  0
    0.1091   -4.9736    0.7413 C   0  0  0  0  0  0  0  0  0  0  0  0
   -0.3101   -5.9235    0.4455 H   0  0  0  0  0  0  0  0  0  0  0  0
   -0.1970   -3.7990    0.0281 C   0  0  0  0  0  0  0  0  0  0  0  0
   -0.8595   -3.8423   -0.8282 H   0  0  0  0  0  0  0  0  0  0  0  0
   -1.2941    0.8991   -0.2919 C   0  0  0  0  0  0  0  0  0  0  0  0
   -1.3758    1.9047    0.4140 O   0  0  0  0  0  0  0  0  0  0  0  0
   -1.3462    0.9542   -1.6287 N   0  0  0  0  0  0  0  0  0  0  0  0
   -1.3314    0.0792   -2.1325 H   0  0  0  0  0  0  0  0  0  0  0  0
   -1.5015    2.1867   -2.3978 C   0  0  0  0  0  0  0  0  0  0  0  0
   -0.7677    2.9242   -2.0681 H   0  0  0  0  0  0  0  0  0  0  0  0
   -1.3577    1.9870   -3.4609 H   0  0  0  0  0  0  0  0  0  0  0  0
   -2.5019    2.5947   -2.2397 H   0  0  0  0  0  0  0  0  0  0  0  0
  5  6  2  0  0  0  0
  5  7  1  0  0  0  0
  2  3  1  0  0  0  0
  2  4  1  0  0  0  0
  2  5  1  0  0  0  0
  1  2  1  0  0  0  0
 26 27  2  0  0  0  0
 26 28  1  0  0  0  0
 24 25  1  0  0  0  0
 22 23  1  0  0  0  0
 22 24  2  0  0  0  0
 20 21  1  0  0  0  0
 19 20  1  0  0  0  0
 19 22  1  0  0  0  0
 17 18  1  0  0  0  0
 17 19  2  0  0  0  0
 15 16  1  0  0  0  0
 15 17  1  0  0  0  0
 14 15  2  0  0  0  0
 14 24  1  0  0  0  0
 11 12  1  0  0  0  0
 11 13  1  0  0  0  0
 11 14  1  0  0  0  0
  9 10  1  0  0  0  0
  9 11  1  0  0  0  0
  9 26  1  0  0  0  0
  7  8  1  0  0  0  0
  7  9  1  0  0  0  0
 30 31  1  0  0  0  0
 30 32  1  0  0  0  0
 30 33  1  0  0  0  0
 28 29  1  0  0  0  0
 28 30  1  0  0  0  0
M  END
$$$$
default_name
  -OEChem-01062215323D

 33 33  0     1  0  0  0  0  0999 V2000
   -4.0702   -3.8485    1.4554 H   0  0  0  0  0  0  0  0  0  0  0  0
   -4.0012   -2.9605    0.8284 C   0  0  0  0  0  0  0  0  0  0  0  0
   -4.7652   -2.2435    1.1234 H   0  0  0  0  0  0  0  0  0  0  0  0
   -4.1352   -3.2385   -0.2156 H   0  0  0  0  0  0  0  0  0  0  0  0
   -2.6362   -2.3395    1.0094 C   0  0  0  0  0  0  0  0  0  0  0  0
   -1.8292   -2.8395    1.7814 O   0  0  0  0  0  0  0  0  0  0  0  0
   -2.3832   -1.2445    0.2964 N   0  0  0  0  0  0  0  0  0  0  0  0
   -3.1102   -0.8685   -0.2946 H   0  0  0  0  0  0  0  0  0  0  0  0
   -1.1292   -0.4875    0.3524 C   0  0  1  0  0  0  0  0  0  0  0  0
   -0.8610   -0.3377    1.3988 H   0  0  0  0  0  0  0  0  0  0  0  0
   -0.0110   -1.3010   -0.3217 C   0  0  0  0  0  0  0  0  0  0  0  0
   -0.3322   -1.5804   -1.3260 H   0  0  0  0  0  0  0  0  0  0  0  0
    0.8726   -0.6691   -0.4252 H   0  0  0  0  0  0  0  0  0  0  0  0
    0.3625   -2.5684    0.4226 C   0  0  0  0  0  0  0  0  0  0  0  0
    1.2300   -2.5124    1.5320 C   0  0  0  0  0  0  0  0  0  0  0  0
    1.6538   -1.5657    1.8405 H   0  0  0  0  0  0  0  0  0  0  0  0
    1.5418   -3.6865    2.2448 C   0  0  0  0  0  0  0  0  0  0  0  0
    2.2076   -3.6402    3.0928 H   0  0  0  0  0  0  0  0  0  0  0  0
    0.9808   -4.9202    1.8487 C   0  0  0  0  0  0  0  0  0  0  0  0
    1.2729   -6.0576    2.5313 O   0  0  0  0  0  0  0  0  0  0  0  0
    1.9402   -5.9140    3.2036 H   0  0  0  0  0  0  0  0  0  0  0  0
    0.1091   -4.9736    0.7413 C   0  0  0  0  0  0  0  0  0  0  0  0
   -0.3101   -5.9235    0.4455 H   0  0  0  0  0  0  0  0  0  0  0  0
   -0.1970   -3.7990    0.0281 C   0  0  0  0  0  0  0  0  0  0  0  0
   -0.8595   -3.8423   -0.8282 H   0  0  0  0  0  0  0  0  0  0  0  0
   -1.2941    0.8991   -0.2919 C   0  0  0  0  0  0  0  0  0  0  0  0
   -1.1015    1.9180    0.3722 O   0  0  0  0  0  0  0  0  0  0  0  0
   -1.6527    0.9397   -1.5813 N   0  0  0  0  0  0  0  0  0  0  0  0
   -1.8487    0.0612   -2.0388 H   0  0  0  0  0  0  0  0  0  0  0  0
   -1.8538    2.1703   -2.3429 C   0  0  0  0  0  0  0  0  0  0  0  0
   -0.9897    2.8261   -2.2225 H   0  0  0  0  0  0  0  0  0  0  0  0
   -1.9856    1.9400   -3.4014 H   0  0  0  0  0  0  0  0  0  0  0  0
   -2.7405    2.6899   -1.9739 H   0  0  0  0  0  0  0  0  0  0  0  0
  5  6  2  0  0  0  0
  5  7  1  0  0  0  0
  2  3  1  0  0  0  0
  2  4  1  0  0  0  0
  2  5  1  0  0  0  0
  1  2  1  0  0  0  0
 26 27  2  0  0  0  0
 26 28  1  0  0  0  0
 24 25  1  0  0  0  0
 22 23  1  0  0  0  0
 22 24  2  0  0  0  0
 20 21  1  0  0  0  0
 19 20  1  0  0  0  0
 19 22  1  0  0  0  0
 17 18  1  0  0  0  0
 17 19  2  0  0  0  0
 15 16  1  0  0  0  0
 15 17  1  0  0  0  0
 14 15  2  0  0  0  0
 14 24  1  0  0  0  0
 11 12  1  0  0  0  0
 11 13  1  0  0  0  0
 11 14  1  0  0  0  0
  9 10  1  0  0  0  0
  9 11  1  0  0  0  0
  9 26  1  0  0  0  0
  7  8  1  0  0  0  0
  7  9  1  0  0  0  0
 30 31  1  0  0  0  0
 30 32  1  0  0  0  0
 30 33  1  0  0  0  0
 28 29  1  0  0  0  0
 28 30  1  0  0  0  0
M  END
$$$$
default_name
  -OEChem-01062215323D

 33 33  0     1  0  0  0  0  0999 V2000
   -4.0702   -3.8485    1.4554 H   0  0  0  0  0  0  0  0  0  0  0  0
   -4.0012   -2.9605    0.8284 C   0  0  0  0  0  0  0  0  0  0  0  0
   -4.7652   -2.2435    1.1234 H   0  0  0  0  0  0  0  0  0  0  0  0
   -4.1352   -3.2385   -0.2156 H   0  0  0  0  0  0  0  0  0  0  0  0
   -2.6362   -2.3395    1.0094 C   0  0  0  0  0  0  0  0  0  0  0  0
   -1.8292   -2.8395    1.7814 O   0  0  0  0  0  0  0  0  0  0  0  0
   -2.3832   -1.2445    0.2964 N   0  0  0  0  0  0  0  0  0  0  0  0
   -3.1102   -0.8685   -0.2946 H   0  0  0  0  0  0  0  0  0  0  0  0
   -1.1292   -0.4875    0.3524 C   0  0  1  0  0  0  0  0  0  0  0  0
   -0.8610   -0.3377    1.3988 H   0  0  0  0  0  0  0  0  0  0  0  0
   -0.0110   -1.3010   -0.3217 C   0  0  0  0  0  0  0  0  0  0  0  0
   -0.3322   -1.5804   -1.3260 H   0  0  0  0  0  0  0  0  0  0  0  0
    0.8726   -0.6691   -0.4252 H   0  0  0  0  0  0  0  0  0  0  0  0
    0.3625   -2.5684    0.4226 C   0  0  0  0  0  0  0  0  0  0  0  0
    1.2300   -2.5124    1.5320 C   0  0  0  0  0  0  0  0  0  0  0  0
    1.6538   -1.5657    1.8405 H   0  0  0  0  0  0  0  0  0  0  0  0
    1.5418   -3.6865    2.2448 C   0  0  0  0  0  0  0  0  0  0  0  0
    2.2076   -3.6402    3.0928 H   0  0  0  0  0  0  0  0  0  0  0  0
    0.9808   -4.9202    1.8487 C   0  0  0  0  0  0  0  0  0  0  0  0
    1.2729   -6.0576    2.5313 O   0  0  0  0  0  0  0  0  0  0  0  0
    1.9402   -5.9140    3.2036 H   0  0  0  0  0  0  0  0  0  0  0  0
    0.1091   -4.9736    0.7413 C   0  0  0  0  0  0  0  0  0  0  0  0
   -0.3101   -5.9235    0.4455 H   0  0  0  0  0  0  0  0  0  0  0  0
   -0.1970   -3.7990    0.0281 C   0  0  0  0  0  0  0  0  0  0  0  0
   -0.8595   -3.8423   -0.8282 H   0  0  0  0  0  0  0  0  0  0  0  0
   -1.2941    0.8991   -0.2919 C   0  0  0  0  0  0  0  0  0  0  0  0
   -0.8449    1.8998    0.2675 O   0  0  0  0  0  0  0  0  0  0  0  0
   -1.9392    0.9604   -1.4636 N   0  0  0  0  0  0  0  0  0  0  0  0
   -2.3285    0.1025   -1.8271 H   0  0  0  0  0  0  0  0  0  0  0  0
   -2.1831    2.1942   -2.2072 C   0  0  0  0  0  0  0  0  0  0  0  0
   -1.2509    2.7511   -2.3171 H   0  0  0  0  0  0  0  0  0  0  0  0
   -2.5832    1.9644   -3.1960 H   0  0  0  0  0  0  0  0  0  0  0  0
   -2.8986    2.8150   -1.6640 H   0  0  0  0  0  0  0  0  0  0  0  0
  5  6  2  0  0  0  0
  5  7  1  0  0  0  0
  2  3  1  0  0  0  0
  2  4  1  0  0  0  0
  2  5  1  0  0  0  0
  1  2  1  0  0  0  0
 26 27  2  0  0  0  0
 26 28  1  0  0  0  0
 24 25  1  0  0  0  0
 22 23  1  0  0  0  0
 22 24  2  0  0  0  0
 20 21  1  0  0  0  0
 19 20  1  0  0  0  0
 19 22  1  0  0  0  0
 17 18  1  0  0  0  0
 17 19  2  0  0  0  0
 15 16  1  0  0  0  0
 15 17  1  0  0  0  0
 14 15  2  0  0  0  0
 14 24  1  0  0  0  0
 11 12  1  0  0  0  0
 11 13  1  0  0  0  0
 11 14  1  0  0  0  0
  9 10  1  0  0  0  0
  9 11  1  0  0  0  0
  9 26  1  0  0  0  0
  7  8  1  0  0  0  0
  7  9  1  0  0  0  0
 30 31  1  0  0  0  0
 30 32  1  0  0  0  0
 30 33  1  0  0  0  0
 28 29  1  0  0  0  0
 28 30  1  0  0  0  0
M  END
$$$$
default_name
  -OEChem-01062215323D

 33 33  0     1  0  0  0  0  0999 V2000
   -4.0702   -3.8485    1.4554 H   0  0  0  0  0  0  0  0  0  0  0  0
   -4.0012   -2.9605    0.8284 C   0  0  0  0  0  0  0  0  0  0  0  0
   -4.7652   -2.2435    1.1234 H   0  0  0  0  0  0  0  0  0  0  0  0
   -4.1352   -3.2385   -0.2156 H   0  0  0  0  0  0  0  0  0  0  0  0
   -2.6362   -2.3395    1.0094 C   0  0  0  0  0  0  0  0  0  0  0  0
   -1.8292   -2.8395    1.7814 O   0  0  0  0  0  0  0  0  0  0  0  0
   -2.3832   -1.2445    0.2964 N   0  0  0  0  0  0  0  0  0  0  0  0
   -3.1102   -0.8685   -0.2946 H   0  0  0  0  0  0  0  0  0  0  0  0
   -1.1292   -0.4875    0.3524 C   0  0  1  0  0  0  0  0  0  0  0  0
   -0.8610   -0.3377    1.3988 H   0  0  0  0  0  0  0  0  0  0  0  0
   -0.0110   -1.3010   -0.3217 C   0  0  0  0  0  0  0  0  0  0  0  0
   -0.3322   -1.5804   -1.3260 H   0  0  0  0  0  0  0  0  0  0  0  0
    0.8726   -0.6691   -0.4252 H   0  0  0  0  0  0  0  0  0  0  0  0
    0.3625   -2.5684    0.4226 C   0  0  0  0  0  0  0  0  0  0  0  0
    1.2300   -2.5124    1.5320 C   0  0  0  0  0  0  0  0  0  0  0  0
    1.6538   -1.5657    1.8405 H   0  0  0  0  0  0  0  0  0  0  0  0
    1.5418   -3.6865    2.2448 C   0  0  0  0  0  0  0  0  0  0  0  0
    2.2076   -3.6402    3.0928 H   0  0  0  0  0  0  0  0  0  0  0  0
    0.9808   -4.9202    1.8487 C   0  0  0  0  0  0  0  0  0  0  0  0
    1.2729   -6.0576    2.5313 O   0  0  0  0  0  0  0  0  0  0  0  0
    1.9402   -5.9140    3.2036 H   0  0  0  0  0  0  0  0  0  0  0  0
    0.1091   -4.9736    0.7413 C   0  0  0  0  0  0  0  0  0  0  0  0
   -0.3101   -5.9235    0.4455 H   0  0  0  0  0  0  0  0  0  0  0  0
   -0.1970   -3.7990    0.0281 C   0  0  0  0  0  0  0  0  0  0  0  0
   -0.8595   -3.8423   -0.8282 H   0  0  0  0  0  0  0  0  0  0  0  0
   -1.2941    0.8991   -0.2919 C   0  0  0  0  0  0  0  0  0  0  0  0
   -0.6234    1.8516    0.1070 O   0  0  0  0  0  0  0  0  0  0  0  0
   -2.1863    1.0146   -1.2836 N   0  0  0  0  0  0  0  0  0  0  0  0
   -2.7380    0.2003   -1.5118 H   0  0  0  0  0  0  0  0  0  0  0  0
   -2.4669    2.2568   -1.9999 C   0  0  0  0  0  0  0  0  0  0  0  0
   -1.5334    2.7043   -2.3455 H   0  0  0  0  0  0  0  0  0  0  0  0
   -3.1100    2.0584   -2.8588 H   0  0  0  0  0  0  0  0  0  0  0  0
   -2.9654    2.9617   -1.3313 H   0  0  0  0  0  0  0  0  0  0  0  0
  5  6  2  0  0  0  0
  5  7  1  0  0  0  0
  2  3  1  0  0  0  0
  2  4  1  0  0  0  0
  2  5  1  0  0  0  0
  1  2  1  0  0  0  0
 26 27  2  0  0  0  0
 26 28  1  0  0  0  0
 24 25  1  0  0  0  0
 22 23  1  0  0  0  0
 22 24  2  0  0  0  0
 20 21  1  0  0  0  0
 19 20  1  0  0  0  0
 19 22  1  0  0  0  0
 17 18  1  0  0  0  0
 17 19  2  0  0  0  0
 15 16  1  0  0  0  0
 15 17  1  0  0  0  0
 14 15  2  0  0  0  0
 14 24  1  0  0  0  0
 11 12  1  0  0  0  0
 11 13  1  0  0  0  0
 11 14  1  0  0  0  0
  9 10  1  0  0  0  0
  9 11  1  0  0  0  0
  9 26  1  0  0  0  0
  7  8  1  0  0  0  0
  7  9  1  0  0  0  0
 30 31  1  0  0  0  0
 30 32  1  0  0  0  0
 30 33  1  0  0  0  0
 28 29  1  0  0  0  0
 28 30  1  0  0  0  0
M  END
$$$$
default_name
  -OEChem-01062215323D

 33 33  0     1  0  0  0  0  0999 V2000
   -4.0702   -3.8485    1.4554 H   0  0  0  0  0  0  0  0  0  0  0  0
   -4.0012   -2.9605    0.8284 C   0  0  0  0  0  0  0  0  0  0  0  0
   -4.7652   -2.2435    1.1234 H   0  0  0  0  0  0  0  0  0  0  0  0
   -4.1352   -3.2385   -0.2156 H   0  0  0  0  0  0  0  0  0  0  0  0
   -2.6362   -2.3395    1.0094 C   0  0  0  0  0  0  0  0  0  0  0  0
   -1.8292   -2.8395    1.7814 O   0  0  0  0  0  0  0  0  0  0  0  0
   -2.3832   -1.2445    0.2964 N   0  0  0  0  0  0  0  0  0  0  0  0
   -3.1102   -0.8685   -0.2946 H   0  0  0  0  0  0  0  0  0  0  0  0
   -1.1292   -0.4875    0.3524 C   0  0  1  0  0  0  0  0  0  0  0  0
   -0.8610   -0.3377    1.3988 H   0  0  0  0  0  0  0  0  0  0  0  0
   -0.0110   -1.3010   -0.3217 C   0  0  0  0  0  0  0  0  0  0  0  0
   -0.3322   -1.5804   -1.3260 H   0  0  0  0  0  0  0  0  0  0  0  0
    0.8726   -0.6691   -0.4252 H   0  0  0  0  0  0  0  0  0  0  0  0
    0.3625   -2.5684    0.4226 C   0  0  0  0  0  0  0  0  0  0  0  0
    1.2300   -2.5124    1.5320 C   0  0  0  0  0  0  0  0  0  0  0  0
    1.6538   -1.5657    1.8405 H   0  0  0  0  0  0  0  0  0  0  0  0
    1.5418   -3.6865    2.2448 C   0  0  0  0  0  0  0  0  0  0  0  0
    2.2076   -3.6402    3.0928 H   0  0  0  0  0  0  0  0  0  0  0  0
    0.9808   -4.9202    1.8487 C   0  0  0  0  0  0  0  0  0  0  0  0
    1.2729   -6.0576    2.5313 O   0  0  0  0  0  0  0  0  0  0  0  0
    1.9402   -5.9140    3.2036 H   0  0  0  0  0  0  0  0  0  0  0  0
    0.1091   -4.9736    0.7413 C   0  0  0  0  0  0  0  0  0  0  0  0
   -0.3101   -5.9235    0.4455 H   0  0  0  0  0  0  0  0  0  0  0  0
   -0.1970   -3.7990    0.0281 C   0  0  0  0  0  0  0  0  0  0  0  0
   -0.8595   -3.8423   -0.8282 H   0  0  0  0  0  0  0  0  0  0  0  0
   -1.2941    0.8991   -0.2919 C   0  0  0  0  0  0  0  0  0  0  0  0
   -0.4522    1.7765   -0.0984 O   0  0  0  0  0  0  0  0  0  0  0  0
   -2.3771    1.0988   -1.0536 N   0  0  0  0  0  0  0  0  0  0  0  0
   -3.0494    0.3479   -1.1144 H   0  0  0  0  0  0  0  0  0  0  0  0
   -2.6858    2.3537   -1.7352 C   0  0  0  0  0  0  0  0  0  0  0  0
   -1.8179    2.6890   -2.3056 H   0  0  0  0  0  0  0  0  0  0  0  0
   -3.5299    2.2157   -2.4128 H   0  0  0  0  0  0  0  0  0  0  0  0
   -2.9365    3.1198   -0.9985 H   0  0  0  0  0  0  0  0  0  0  0  0
  5  6  2  0  0  0  0
  5  7  1  0  0  0  0
  2  3  1  0  0  0  0
  2  4  1  0  0  0  0
  2  5  1  0  0  0  0
  1  2  1  0  0  0  0
 26 27  2  0  0  0  0
 26 28  1  0  0  0  0
 24 25  1  0  0  0  0
 22 23  1  0  0  0  0
 22 24  2  0  0  0  0
 20 21  1  0  0  0  0
 19 20  1  0  0  0  0
 19 22  1  0  0  0  0
 17 18  1  0  0  0  0
 17 19  2  0  0  0  0
 15 16  1  0  0  0  0
 15 17  1  0  0  0  0
 14 15  2  0  0  0  0
 14 24  1  0  0  0  0
 11 12  1  0  0  0  0
 11 13  1  0  0  0  0
 11 14  1  0  0  0  0
  9 10  1  0  0  0  0
  9 11  1  0  0  0  0
  9 26  1  0  0  0  0
  7  8  1  0  0  0  0
  7  9  1  0  0  0  0
 30 31  1  0  0  0  0
 30 32  1  0  0  0  0
 30 33  1  0  0  0  0
 28 29  1  0  0  0  0
 28 30  1  0  0  0  0
M  END
$$$$
default_name
  -OEChem-01062215323D

 33 33  0     1  0  0  0  0  0999 V2000
   -4.0702   -3.8485    1.4554 H   0  0  0  0  0  0  0  0  0  0  0  0
   -4.0012   -2.9605    0.8284 C   0  0  0  0  0  0  0  0  0  0  0  0
   -4.7652   -2.2435    1.1234 H   0  0  0  0  0  0  0  0  0  0  0  0
   -4.1352   -3.2385   -0.2156 H   0  0  0  0  0  0  0  0  0  0  0  0
   -2.6362   -2.3395    1.0094 C   0  0  0  0  0  0  0  0  0  0  0  0
   -1.8292   -2.8395    1.7814 O   0  0  0  0  0  0  0  0  0  0  0  0
   -2.3832   -1.2445    0.2964 N   0  0  0  0  0  0  0  0  0  0  0  0
   -3.1102   -0.8685   -0.2946 H   0  0  0  0  0  0  0  0  0  0  0  0
   -1.1292   -0.4875    0.3524 C   0  0  1  0  0  0  0  0  0  0  0  0
   -0.8610   -0.3377    1.3988 H   0  0  0  0  0  0  0  0  0  0  0  0
   -0.0110   -1.3010   -0.3217 C   0  0  0  0  0  0  0  0  0  0  0  0
   -0.3322   -1.5804   -1.3260 H   0  0  0  0  0  0  0  0  0  0  0  0
    0.8726   -0.6691   -0.4252 H   0  0  0  0  0  0  0  0  0  0  0  0
    0.3625   -2.5684    0.4226 C   0  0  0  0  0  0  0  0  0  0  0  0
    1.2300   -2.5124    1.5320 C   0  0  0  0  0  0  0  0  0  0  0  0
    1.6538   -1.5657    1.8405 H   0  0  0  0  0  0  0  0  0  0  0  0
    1.5418   -3.6865    2.2448 C   0  0  0  0  0  0  0  0  0  0  0  0
    2.2076   -3.6402    3.0928 H   0  0  0  0  0  0  0  0  0  0  0  0
    0.9808   -4.9202    1.8487 C   0  0  0  0  0  0  0  0  0  0  0  0
    1.2729   -6.0576    2.5313 O   0  0  0  0  0  0  0  0  0  0  0  0
    1.9402   -5.9140    3.2036 H   0  0  0  0  0  0  0  0  0  0  0  0
    0.1091   -4.9736    0.7413 C   0  0  0  0  0  0  0  0  0  0  0  0
   -0.3101   -5.9235    0.4455 H   0  0  0  0  0  0  0  0  0  0  0  0
   -0.1970   -3.7990    0.0281 C   0  0  0  0  0  0  0  0  0  0  0  0
   -0.8595   -3.8423   -0.8282 H   0  0  0  0  0  0  0  0  0  0  0  0
   -1.2941    0.8991   -0.2919 C   0  0  0  0  0  0  0  0  0  0  0  0
   -0.3428    1.6797   -0.3347 O   0  0  0  0  0  0  0  0  0  0  0  0
   -2.4986    1.2072   -0.7893 N   0  0  0  0  0  0  0  0  0  0  0  0
   -3.2415    0.5353   -0.6620 H   0  0  0  0  0  0  0  0  0  0  0  0
   -2.8251    2.4785   -1.4311 C   0  0  0  0  0  0  0  0  0  0  0  0
   -2.0851    2.7061   -2.2003 H   0  0  0  0  0  0  0  0  0  0  0  0
   -3.8144    2.4255   -1.8884 H   0  0  0  0  0  0  0  0  0  0  0  0
   -2.8137    3.2786   -0.6881 H   0  0  0  0  0  0  0  0  0  0  0  0
  5  6  2  0  0  0  0
  5  7  1  0  0  0  0
  2  3  1  0  0  0  0
  2  4  1  0  0  0  0
  2  5  1  0  0  0  0
  1  2  1  0  0  0  0
 26 27  2  0  0  0  0
 26 28  1  0  0  0  0
 24 25  1  0  0  0  0
 22 23  1  0  0  0  0
 22 24  2  0  0  0  0
 20 21  1  0  0  0  0
 19 20  1  0  0  0  0
 19 22  1  0  0  0  0
 17 18  1  0  0  0  0
 17 19  2  0  0  0  0
 15 16  1  0  0  0  0
 15 17  1  0  0  0  0
 14 15  2  0  0  0  0
 14 24  1  0  0  0  0
 11 12  1  0  0  0  0
 11 13  1  0  0  0  0
 11 14  1  0  0  0  0
  9 10  1  0  0  0  0
  9 11  1  0  0  0  0
  9 26  1  0  0  0  0
  7  8  1  0  0  0  0
  7  9  1  0  0  0  0
 30 31  1  0  0  0  0
 30 32  1  0  0  0  0
 30 33  1  0  0  0  0
 28 29  1  0  0  0  0
 28 30  1  0  0  0  0
M  END
$$$$
default_name
  -OEChem-01062215323D

 33 33  0     1  0  0  0  0  0999 V2000
   -4.0702   -3.8485    1.4554 H   0  0  0  0  0  0  0  0  0  0  0  0
   -4.0012   -2.9605    0.8284 C   0  0  0  0  0  0  0  0  0  0  0  0
   -4.7652   -2.2435    1.1234 H   0  0  0  0  0  0  0  0  0  0  0  0
   -4.1352   -3.2385   -0.2156 H   0  0  0  0  0  0  0  0  0  0  0  0
   -2.6362   -2.3395    1.0094 C   0  0  0  0  0  0  0  0  0  0  0  0
   -1.8292   -2.8395    1.7814 O   0  0  0  0  0  0  0  0  0  0  0  0
   -2.3832   -1.2445    0.2964 N   0  0  0  0  0  0  0  0  0  0  0  0
   -3.1102   -0.8685   -0.2946 H   0  0  0  0  0  0  0  0  0  0  0  0
   -1.1292   -0.4875    0.3524 C   0  0  1  0  0  0  0  0  0  0  0  0
   -0.8610   -0.3377    1.3988 H   0  0  0  0  0  0  0  0  0  0  0  0
   -0.0110   -1.3010   -0.3217 C   0  0  0  0  0  0  0  0  0  0  0  0
   -0.3322   -1.5804   -1.3260 H   0  0  0  0  0  0  0  0  0  0  0  0
    0.8726   -0.6691   -0.4252 H   0  0  0  0  0  0  0  0  0  0  0  0
    0.3625   -2.5684    0.4226 C   0  0  0  0  0  0  0  0  0  0  0  0
    1.2300   -2.5124    1.5320 C   0  0  0  0  0  0  0  0  0  0  0  0
    1.6538   -1.5657    1.8405 H   0  0  0  0  0  0  0  0  0  0  0  0
    1.5418   -3.6865    2.2448 C   0  0  0  0  0  0  0  0  0  0  0  0
    2.2076   -3.6402    3.0928 H   0  0  0  0  0  0  0  0  0  0  0  0
    0.9808   -4.9202    1.8487 C   0  0  0  0  0  0  0  0  0  0  0  0
    1.2729   -6.0576    2.5313 O   0  0  0  0  0  0  0  0  0  0  0  0
    1.9402   -5.9140    3.2036 H   0  0  0  0  0  0  0  0  0  0  0  0
    0.1091   -4.9736    0.7413 C   0  0  0  0  0  0  0  0  0  0  0  0
   -0.3101   -5.9235    0.4455 H   0  0  0  0  0  0  0  0  0  0  0  0
   -0.1970   -3.7990    0.0281 C   0  0  0  0  0  0  0  0  0  0  0  0
   -0.8595   -3.8423   -0.8282 H   0  0  0  0  0  0  0  0  0  0  0  0
   -1.2941    0.8991   -0.2919 C   0  0  0  0  0  0  0  0  0  0  0  0
   -0.3029    1.5678   -0.5857 O   0  0  0  0  0  0  0  0  0  0  0  0
   -2.5425    1.3324   -0.5086 N   0  0  0  0  0  0  0  0  0  0  0  0
   -3.3011    0.7497   -0.1853 H   0  0  0  0  0  0  0  0  0  0  0  0
   -2.8751    2.6225   -1.1083 C   0  0  0  0  0  0  0  0  0  0  0  0
   -2.3168    2.7546   -2.0367 H   0  0  0  0  0  0  0  0  0  0  0  0
   -3.9441    2.6736   -1.3212 H   0  0  0  0  0  0  0  0  0  0  0  0
   -2.6054    3.4273   -0.4213 H   0  0  0  0  0  0  0  0  0  0  0  0
  5  6  2  0  0  0  0
  5  7  1  0  0  0  0
  2  3  1  0  0  0  0
  2  4  1  0  0  0  0
  2  5  1  0  0  0  0
  1  2  1  0  0  0  0
 26 27  2  0  0  0  0
 26 28  1  0  0  0  0
 24 25  1  0  0  0  0
 22 23  1  0  0  0  0
 22 24  2  0  0  0  0
 20 21  1  0  0  0  0
 19 20  1  0  0  0  0
 19 22  1  0  0  0  0
 17 18  1  0  0  0  0
 17 19  2  0  0  0  0
 15 16  1  0  0  0  0
 15 17  1  0  0  0  0
 14 15  2  0  0  0  0
 14 24  1  0  0  0  0
 11 12  1  0  0  0  0
 11 13  1  0  0  0  0
 11 14  1  0  0  0  0
  9 10  1  0  0  0  0
  9 11  1  0  0  0  0
  9 26  1  0  0  0  0
  7  8  1  0  0  0  0
  7  9  1  0  0  0  0
 30 31  1  0  0  0  0
 30 32  1  0  0  0  0
 30 33  1  0  0  0  0
 28 29  1  0  0  0  0
 28 30  1  0  0  0  0
M  END
$$$$
default_name
  -OEChem-01062215323D

 33 33  0     1  0  0  0  0  0999 V2000
   -4.0702   -3.8485    1.4554 H   0  0  0  0  0  0  0  0  0  0  0  0
   -4.0012   -2.9605    0.8284 C   0  0  0  0  0  0  0  0  0  0  0  0
   -4.7652   -2.2435    1.1234 H   0  0  0  0  0  0  0  0  0  0  0  0
   -4.1352   -3.2385   -0.2156 H   0  0  0  0  0  0  0  0  0  0  0  0
   -2.6362   -2.3395    1.0094 C   0  0  0  0  0  0  0  0  0  0  0  0
   -1.8292   -2.8395    1.7814 O   0  0  0  0  0  0  0  0  0  0  0  0
   -2.3832   -1.2445    0.2964 N   0  0  0  0  0  0  0  0  0  0  0  0
   -3.1102   -0.8685   -0.2946 H   0  0  0  0  0  0  0  0  0  0  0  0
   -1.1292   -0.4875    0.3524 C   0  0  1  0  0  0  0  0  0  0  0  0
   -0.8610   -0.3377    1.3988 H   0  0  0  0  0  0  0  0  0  0  0  0
   -0.0110   -1.3010   -0.3217 C   0  0  0  0  0  0  0  0  0  0  0  0
   -0.3322   -1.5804   -1.3260 H   0  0  0  0  0  0  0  0  0  0  0  0
    0.8726   -0.6691   -0.4252 H   0  0  0  0  0  0  0  0  0  0  0  0
    0.3625   -2.5684    0.4226 C   0  0  0  0  0  0  0  0  0  0  0  0
    1.2300   -2.5124    1.5320 C   0  0  0  0  0  0  0  0  0  0  0  0
    1.6538   -1.5657    1.8405 H   0  0  0  0  0  0  0  0  0  0  0  0
    1.5418   -3.6865    2.2448 C   0  0  0  0  0  0  0  0  0  0  0  0
    2.2076   -3.6402    3.0928 H   0  0  0  0  0  0  0  0  0  0  0  0
    0.9808   -4.9202    1.8487 C   0  0  0  0  0  0  0  0  0  0  0  0
    1.2729   -6.0576    2.5313 O   0  0  0  0  0  0  0  0  0  0  0  0
    1.9402   -5.9140    3.2036 H   0  0  0  0  0  0  0  0  0  0  0  0
    0.1091   -4.9736    0.7413 C   0  0  0  0  0  0  0  0  0  0  0  0
   -0.3101   -5.9235    0.4455 H   0  0  0  0  0  0  0  0  0  0  0  0
   -0.1970   -3.7990    0.0281 C   0  0  0  0  0  0  0  0  0  0  0  0
   -0.8595   -3.8423   -0.8282 H   0  0  0  0  0  0  0  0  0  0  0  0
   -1.2941    0.8991   -0.2919 C   0  0  0  0  0  0  0  0  0  0  0  0
   -0.3350    1.4484   -0.8344 O   0  0  0  0  0  0  0  0  0  0  0  0
   -2.5058    1.4659   -0.2307 N   0  0  0  0  0  0  0  0  0  0  0  0
   -3.2242    0.9764    0.2830 H   0  0  0  0  0  0  0  0  0  0  0  0
   -2.8324    2.7760   -0.7889 C   0  0  0  0  0  0  0  0  0  0  0  0
   -2.4971    2.8310   -1.8260 H   0  0  0  0  0  0  0  0  0  0  0  0
   -3.9100    2.9431   -0.7500 H   0  0  0  0  0  0  0  0  0  0  0  0
   -2.3258    3.5558   -0.2164 H   0  0  0  0  0  0  0  0  0  0  0  0
  5  6  2  0  0  0  0
  5  7  1  0  0  0  0
  2  3  1  0  0  0  0
  2  4  1  0  0  0  0
  2  5  1  0  0  0  0
  1  2  1  0  0  0  0
 26 27  2  0  0  0  0
 26 28  1  0  0  0  0
 24 25  1  0  0  0  0
 22 23  1  0  0  0  0
 22 24  2  0  0  0  0
 20 21  1  0  0  0  0
 19 20  1  0  0  0  0
 19 22  1  0  0  0  0
 17 18  1  0  0  0  0
 17 19  2  0  0  0  0
 15 16  1  0  0  0  0
 15 17  1  0  0  0  0
 14 15  2  0  0  0  0
 14 24  1  0  0  0  0
 11 12  1  0  0  0  0
 11 13  1  0  0  0  0
 11 14  1  0  0  0  0
  9 10  1  0  0  0  0
  9 11  1  0  0  0  0
  9 26  1  0  0  0  0
  7  8  1  0  0  0  0
  7  9  1  0  0  0  0
 30 31  1  0  0  0  0
 30 32  1  0  0  0  0
 30 33  1  0  0  0  0
 28 29  1  0  0  0  0
 28 30  1  0  0  0  0
M  END
$$$$
default_name
  -OEChem-01062215323D

 33 33  0     1  0  0  0  0  0999 V2000
   -4.0702   -3.8485    1.4554 H   0  0  0  0  0  0  0  0  0  0  0  0
   -4.0012   -2.9605    0.8284 C   0  0  0  0  0  0  0  0  0  0  0  0
   -4.7652   -2.2435    1.1234 H   0  0  0  0  0  0  0  0  0  0  0  0
   -4.1352   -3.2385   -0.2156 H   0  0  0  0  0  0  0  0  0  0  0  0
   -2.6362   -2.3395    1.0094 C   0  0  0  0  0  0  0  0  0  0  0  0
   -1.8292   -2.8395    1.7814 O   0  0  0  0  0  0  0  0  0  0  0  0
   -2.3832   -1.2445    0.2964 N   0  0  0  0  0  0  0  0  0  0  0  0
   -3.1102   -0.8685   -0.2946 H   0  0  0  0  0  0  0  0  0  0  0  0
   -1.1292   -0.4875    0.3524 C   0  0  1  0  0  0  0  0  0  0  0  0
   -0.8610   -0.3377    1.3988 H   0  0  0  0  0  0  0  0  0  0  0  0
   -0.0110   -1.3010   -0.3217 C   0  0  0  0  0  0  0  0  0  0  0  0
   -0.3322   -1.5804   -1.3260 H   0  0  0  0  0  0  0  0  0  0  0  0
    0.8726   -0.6691   -0.4252 H   0  0  0  0  0  0  0  0  0  0  0  0
    0.3625   -2.5684    0.4226 C   0  0  0  0  0  0  0  0  0  0  0  0
    1.2300   -2.5124    1.5320 C   0  0  0  0  0  0  0  0  0  0  0  0
    1.6538   -1.5657    1.8405 H   0  0  0  0  0  0  0  0  0  0  0  0
    1.5418   -3.6865    2.2448 C   0  0  0  0  0  0  0  0  0  0  0  0
    2.2076   -3.6402    3.0928 H   0  0  0  0  0  0  0  0  0  0  0  0
    0.9808   -4.9202    1.8487 C   0  0  0  0  0  0  0  0  0  0  0  0
    1.2729   -6.0576    2.5313 O   0  0  0  0  0  0  0  0  0  0  0  0
    1.9402   -5.9140    3.2036 H   0  0  0  0  0  0  0  0  0  0  0  0
    0.1091   -4.9736    0.7413 C   0  0  0  0  0  0  0  0  0  0  0  0
   -0.3101   -5.9235    0.4455 H   0  0  0  0  0  0  0  0  0  0  0  0
   -0.1970   -3.7990    0.0281 C   0  0  0  0  0  0  0  0  0  0  0  0
   -0.8595   -3.8423   -0.8282 H   0  0  0  0  0  0  0  0  0  0  0  0
   -1.2941    0.8991   -0.2919 C   0  0  0  0  0  0  0  0  0  0  0  0
   -0.4370    1.3297   -1.0639 O   0  0  0  0  0  0  0  0  0  0  0  0
   -2.3910    1.5985    0.0255 N   0  0  0  0  0  0  0  0  0  0  0  0
   -3.0160    1.2001    0.7112 H   0  0  0  0  0  0  0  0  0  0  0  0
   -2.7000    2.9285   -0.4945 C   0  0  0  0  0  0  0  0  0  0  0  0
   -2.6139    2.9303   -1.5825 H   0  0  0  0  0  0  0  0  0  0  0  0
   -3.7147    3.2155   -0.2137 H   0  0  0  0  0  0  0  0  0  0  0  0
   -1.9940    3.6552   -0.0872 H   0  0  0  0  0  0  0  0  0  0  0  0
  5  6  2  0  0  0  0
  5  7  1  0  0  0  0
  2  3  1  0  0  0  0
  2  4  1  0  0  0  0
  2  5  1  0  0  0  0
  1  2  1  0  0  0  0
 26 27  2  0  0  0  0
 26 28  1  0  0  0  0
 24 25  1  0  0  0  0
 22 23  1  0  0  0  0
 22 24  2  0  0  0  0
 20 21  1  0  0  0  0
 19 20  1  0  0  0  0
 19 22  1  0  0  0  0
 17 18  1  0  0  0  0
 17 19  2  0  0  0  0
 15 16  1  0  0  0  0
 15 17  1  0  0  0  0
 14 15  2  0  0  0  0
 14 24  1  0  0  0  0
 11 12  1  0  0  0  0
 11 13  1  0  0  0  0
 11 14  1  0  0  0  0
  9 10  1  0  0  0  0
  9 11  1  0  0  0  0
  9 26  1  0  0  0  0
  7  8  1  0  0  0  0
  7  9  1  0  0  0  0
 30 31  1  0  0  0  0
 30 32  1  0  0  0  0
 30 33  1  0  0  0  0
 28 29  1  0  0  0  0
 28 30  1  0  0  0  0
M  END
$$$$
default_name
  -OEChem-01062215323D

 33 33  0     1  0  0  0  0  0999 V2000
   -4.0702   -3.8485    1.4554 H   0  0  0  0  0  0  0  0  0  0  0  0
   -4.0012   -2.9605    0.8284 C   0  0  0  0  0  0  0  0  0  0  0  0
   -4.7652   -2.2435    1.1234 H   0  0  0  0  0  0  0  0  0  0  0  0
   -4.1352   -3.2385   -0.2156 H   0  0  0  0  0  0  0  0  0  0  0  0
   -2.6362   -2.3395    1.0094 C   0  0  0  0  0  0  0  0  0  0  0  0
   -1.8292   -2.8395    1.7814 O   0  0  0  0  0  0  0  0  0  0  0  0
   -2.3832   -1.2445    0.2964 N   0  0  0  0  0  0  0  0  0  0  0  0
   -3.1102   -0.8685   -0.2946 H   0  0  0  0  0  0  0  0  0  0  0  0
   -1.1292   -0.4875    0.3524 C   0  0  1  0  0  0  0  0  0  0  0  0
   -0.8610   -0.3377    1.3988 H   0  0  0  0  0  0  0  0  0  0  0  0
   -0.0110   -1.3010   -0.3217 C   0  0  0  0  0  0  0  0  0  0  0  0
   -0.3322   -1.5804   -1.3260 H   0  0  0  0  0  0  0  0  0  0  0  0
    0.8726   -0.6691   -0.4252 H   0  0  0  0  0  0  0  0  0  0  0  0
    0.3625   -2.5684    0.4226 C   0  0  0  0  0  0  0  0  0  0  0  0
    1.2300   -2.5124    1.5320 C   0  0  0  0  0  0  0  0  0  0  0  0
    1.6538   -1.5657    1.8405 H   0  0  0  0  0  0  0  0  0  0  0  0
    1.5418   -3.6865    2.2448 C   0  0  0  0  0  0  0  0  0  0  0  0
    2.2076   -3.6402    3.0928 H   0  0  0  0  0  0  0  0  0  0  0  0
    0.9808   -4.9202    1.8487 C   0  0  0  0  0  0  0  0  0  0  0  0
    1.2729   -6.0576    2.5313 O   0  0  0  0  0  0  0  0  0  0  0  0
    1.9402   -5.9140    3.2036 H   0  0  0  0  0  0  0  0  0  0  0  0
    0.1091   -4.9736    0.7413 C   0  0  0  0  0  0  0  0  0  0  0  0
   -0.3101   -5.9235    0.4455 H   0  0  0  0  0  0  0  0  0  0  0  0
   -0.1970   -3.7990    0.0281 C   0  0  0  0  0  0  0  0  0  0  0  0
   -0.8595   -3.8423   -0.8282 H   0  0  0  0  0  0  0  0  0  0  0  0
   -1.2941    0.8991   -0.2919 C   0  0  0  0  0  0  0  0  0  0  0  0
   -0.6019    1.2197   -1.2584 O   0  0  0  0  0  0  0  0  0  0  0  0
   -2.2060    1.7213    0.2425 N   0  0  0  0  0  0  0  0  0  0  0  0
   -2.6907    1.4055    1.0700 H   0  0  0  0  0  0  0  0  0  0  0  0
   -2.4869    3.0696   -0.2453 C   0  0  0  0  0  0  0  0  0  0  0  0
   -2.6590    3.0456   -1.3228 H   0  0  0  0  0  0  0  0  0  0  0  0
   -3.3713    3.4723    0.2511 H   0  0  0  0  0  0  0  0  0  0  0  0
   -1.6326    3.7189   -0.0427 H   0  0  0  0  0  0  0  0  0  0  0  0
  5  6  2  0  0  0  0
  5  7  1  0  0  0  0
  2  3  1  0  0  0  0
  2  4  1  0  0  0  0
  2  5  1  0  0  0  0
  1  2  1  0  0  0  0
 26 27  2  0  0  0  0
 26 28  1  0  0  0  0
 24 25  1  0  0  0  0
 22 23  1  0  0  0  0
 22 24  2  0  0  0  0
 20 21  1  0  0  0  0
 19 20  1  0  0  0  0
 19 22  1  0  0  0  0
 17 18  1  0  0  0  0
 17 19  2  0  0  0  0
 15 16  1  0  0  0  0
 15 17  1  0  0  0  0
 14 15  2  0  0  0  0
 14 24  1  0  0  0  0
 11 12  1  0  0  0  0
 11 13  1  0  0  0  0
 11 14  1  0  0  0  0
  9 10  1  0  0  0  0
  9 11  1  0  0  0  0
  9 26  1  0  0  0  0
  7  8  1  0  0  0  0
  7  9  1  0  0  0  0
 30 31  1  0  0  0  0
 30 32  1  0  0  0  0
 30 33  1  0  0  0  0
 28 29  1  0  0  0  0
 28 30  1  0  0  0  0
M  END
$$$$
default_name
  -OEChem-01062215323D

 33 33  0     1  0  0  0  0  0999 V2000
   -4.0702   -3.8485    1.4554 H   0  0  0  0  0  0  0  0  0  0  0  0
   -4.0012   -2.9605    0.8284 C   0  0  0  0  0  0  0  0  0  0  0  0
   -4.7652   -2.2435    1.1234 H   0  0  0  0  0  0  0  0  0  0  0  0
   -4.1352   -3.2385   -0.2156 H   0  0  0  0  0  0  0  0  0  0  0  0
   -2.6362   -2.3395    1.0094 C   0  0  0  0  0  0  0  0  0  0  0  0
   -1.8292   -2.8395    1.7814 O   0  0  0  0  0  0  0  0  0  0  0  0
   -2.3832   -1.2445    0.2964 N   0  0  0  0  0  0  0  0  0  0  0  0
   -3.1102   -0.8685   -0.2946 H   0  0  0  0  0  0  0  0  0  0  0  0
   -1.1292   -0.4875    0.3524 C   0  0  1  0  0  0  0  0  0  0  0  0
   -0.8610   -0.3377    1.3988 H   0  0  0  0  0  0  0  0  0  0  0  0
   -0.0110   -1.3010   -0.3217 C   0  0  0  0  0  0  0  0  0  0  0  0
   -0.3322   -1.5804   -1.3260 H   0  0  0  0  0  0  0  0  0  0  0  0
    0.8726   -0.6691   -0.4252 H   0  0  0  0  0  0  0  0  0  0  0  0
    0.3625   -2.5684    0.4226 C   0  0  0  0  0  0  0  0  0  0  0  0
    1.2300   -2.5124    1.5320 C   0  0  0  0  0  0  0  0  0  0  0  0
    1.6538   -1.5657    1.8405 H   0  0  0  0  0  0  0  0  0  0  0  0
    1.5418   -3.6865    2.2448 C   0  0  0  0  0  0  0  0  0  0  0  0
    2.2076   -3.6402    3.0928 H   0  0  0  0  0  0  0  0  0  0  0  0
    0.9808   -4.9202    1.8487 C   0  0  0  0  0  0  0  0  0  0  0  0
    1.2729   -6.0576    2.5313 O   0  0  0  0  0  0  0  0  0  0  0  0
    1.9402   -5.9140    3.2036 H   0  0  0  0  0  0  0  0  0  0  0  0
    0.1091   -4.9736    0.7413 C   0  0  0  0  0  0  0  0  0  0  0  0
   -0.3101   -5.9235    0.4455 H   0  0  0  0  0  0  0  0  0  0  0  0
   -0.1970   -3.7990    0.0281 C   0  0  0  0  0  0  0  0  0  0  0  0
   -0.8595   -3.8423   -0.8282 H   0  0  0  0  0  0  0  0  0  0  0  0
   -1.2941    0.8991   -0.2919 C   0  0  0  0  0  0  0  0  0  0  0  0
   -0.8186    1.1259   -1.4048 O   0  0  0  0  0  0  0  0  0  0  0  0
   -1.9633    1.8259    0.4054 N   0  0  0  0  0  0  0  0  0  0  0  0
   -2.2706    1.5786    1.3349 H   0  0  0  0  0  0  0  0  0  0  0  0
   -2.2076    3.1898   -0.0583 C   0  0  0  0  0  0  0  0  0  0  0  0
   -2.6295    3.1691   -1.0646 H   0  0  0  0  0  0  0  0  0  0  0  0
   -2.9032    3.6961    0.6129 H   0  0  0  0  0  0  0  0  0  0  0  0
   -1.2662    3.7425   -0.0858 H   0  0  0  0  0  0  0  0  0  0  0  0
  5  6  2  0  0  0  0
  5  7  1  0  0  0  0
  2  3  1  0  0  0  0
  2  4  1  0  0  0  0
  2  5  1  0  0  0  0
  1  2  1  0  0  0  0
 26 27  2  0  0  0  0
 26 28  1  0  0  0  0
 24 25  1  0  0  0  0
 22 23  1  0  0  0  0
 22 24  2  0  0  0  0
 20 21  1  0  0  0  0
 19 20  1  0  0  0  0
 19 22  1  0  0  0  0
 17 18  1  0  0  0  0
 17 19  2  0  0  0  0
 15 16  1  0  0  0  0
 15 17  1  0  0  0  0
 14 15  2  0  0  0  0
 14 24  1  0  0  0  0
 11 12  1  0  0  0  0
 11 13  1  0  0  0  0
 11 14  1  0  0  0  0
  9 10  1  0  0  0  0
  9 11  1  0  0  0  0
  9 26  1  0  0  0  0
  7  8  1  0  0  0  0
  7  9  1  0  0  0  0
 30 31  1  0  0  0  0
 30 32  1  0  0  0  0
 30 33  1  0  0  0  0
 28 29  1  0  0  0  0
 28 30  1  0  0  0  0
M  END
$$$$
default_name
  -OEChem-01062215323D

 33 33  0     1  0  0  0  0  0999 V2000
   -4.0702   -3.8485    1.4554 H   0  0  0  0  0  0  0  0  0  0  0  0
   -4.0012   -2.9605    0.8284 C   0  0  0  0  0  0  0  0  0  0  0  0
   -4.7652   -2.2435    1.1234 H   0  0  0  0  0  0  0  0  0  0  0  0
   -4.1352   -3.2385   -0.2156 H   0  0  0  0  0  0  0  0  0  0  0  0
   -2.6362   -2.3395    1.0094 C   0  0  0  0  0  0  0  0  0  0  0  0
   -1.8292   -2.8395    1.7814 O   0  0  0  0  0  0  0  0  0  0  0  0
   -2.3832   -1.2445    0.2964 N   0  0  0  0  0  0  0  0  0  0  0  0
   -3.1102   -0.8685   -0.2946 H   0  0  0  0  0  0  0  0  0  0  0  0
   -1.1292   -0.4875    0.3524 C   0  0  1  0  0  0  0  0  0  0  0  0
   -0.8610   -0.3377    1.3988 H   0  0  0  0  0  0  0  0  0  0  0  0
   -0.0110   -1.3010   -0.3217 C   0  0  0  0  0  0  0  0  0  0  0  0
   -0.3322   -1.5804   -1.3260 H   0  0  0  0  0  0  0  0  0  0  0  0
    0.8726   -0.6691   -0.4252 H   0  0  0  0  0  0  0  0  0  0  0  0
    0.3625   -2.5684    0.4226 C   0  0  0  0  0  0  0  0  0  0  0  0
    1.2300   -2.5124    1.5320 C   0  0  0  0  0  0  0  0  0  0  0  0
    1.6538   -1.5657    1.8405 H   0  0  0  0  0  0  0  0  0  0  0  0
    1.5418   -3.6865    2.2448 C   0  0  0  0  0  0  0  0  0  0  0  0
    2.2076   -3.6402    3.0928 H   0  0  0  0  0  0  0  0  0  0  0  0
    0.9808   -4.9202    1.8487 C   0  0  0  0  0  0  0  0  0  0  0  0
    1.2729   -6.0576    2.5313 O   0  0  0  0  0  0  0  0  0  0  0  0
    1.9402   -5.9140    3.2036 H   0  0  0  0  0  0  0  0  0  0  0  0
    0.1091   -4.9736    0.7413 C   0  0  0  0  0  0  0  0  0  0  0  0
   -0.3101   -5.9235    0.4455 H   0  0  0  0  0  0  0  0  0  0  0  0
   -0.1970   -3.7990    0.0281 C   0  0  0  0  0  0  0  0  0  0  0  0
   -0.8595   -3.8423   -0.8282 H   0  0  0  0  0  0  0  0  0  0  0  0
   -1.2941    0.8991   -0.2919 C   0  0  0  0  0  0  0  0  0  0  0  0
   -1.0722    1.0548   -1.4930 O   0  0  0  0  0  0  0  0  0  0  0  0
   -1.6795    1.9052    0.5033 N   0  0  0  0  0  0  0  0  0  0  0  0
   -1.7841    1.7076    1.4880 H   0  0  0  0  0  0  0  0  0  0  0  0
   -1.8811    3.2807    0.0539 C   0  0  0  0  0  0  0  0  0  0  0  0
   -2.5274    3.2923   -0.8255 H   0  0  0  0  0  0  0  0  0  0  0  0
   -2.3424    3.8715    0.8469 H   0  0  0  0  0  0  0  0  0  0  0  0
   -0.9198    3.7243   -0.2135 H   0  0  0  0  0  0  0  0  0  0  0  0
  5  6  2  0  0  0  0
  5  7  1  0  0  0  0
  2  3  1  0  0  0  0
  2  4  1  0  0  0  0
  2  5  1  0  0  0  0
  1  2  1  0  0  0  0
 26 27  2  0  0  0  0
 26 28  1  0  0  0  0
 24 25  1  0  0  0  0
 22 23  1  0  0  0  0
 22 24  2  0  0  0  0
 20 21  1  0  0  0  0
 19 20  1  0  0  0  0
 19 22  1  0  0  0  0
 17 18  1  0  0  0  0
 17 19  2  0  0  0  0
 15 16  1  0  0  0  0
 15 17  1  0  0  0  0
 14 15  2  0  0  0  0
 14 24  1  0  0  0  0
 11 12  1  0  0  0  0
 11 13  1  0  0  0  0
 11 14  1  0  0  0  0
  9 10  1  0  0  0  0
  9 11  1  0  0  0  0
  9 26  1  0  0  0  0
  7  8  1  0  0  0  0
  7  9  1  0  0  0  0
 30 31  1  0  0  0  0
 30 32  1  0  0  0  0
 30 33  1  0  0  0  0
 28 29  1  0  0  0  0
 28 30  1  0  0  0  0
M  END
$$$$
default_name
  -OEChem-01062215323D

 33 33  0     1  0  0  0  0  0999 V2000
   -4.0702   -3.8485    1.4554 H   0  0  0  0  0  0  0  0  0  0  0  0
   -4.0012   -2.9605    0.8284 C   0  0  0  0  0  0  0  0  0  0  0  0
   -4.7652   -2.2435    1.1234 H   0  0  0  0  0  0  0  0  0  0  0  0
   -4.1352   -3.2385   -0.2156 H   0  0  0  0  0  0  0  0  0  0  0  0
   -2.6362   -2.3395    1.0094 C   0  0  0  0  0  0  0  0  0  0  0  0
   -1.8292   -2.8395    1.7814 O   0  0  0  0  0  0  0  0  0  0  0  0
   -2.3832   -1.2445    0.2964 N   0  0  0  0  0  0  0  0  0  0  0  0
   -3.1102   -0.8685   -0.2946 H   0  0  0  0  0  0  0  0  0  0  0  0
   -1.1292   -0.4875    0.3524 C   0  0  1  0  0  0  0  0  0  0  0  0
   -0.8610   -0.3377    1.3988 H   0  0  0  0  0  0  0  0  0  0  0  0
   -0.0110   -1.3010   -0.3217 C   0  0  0  0  0  0  0  0  0  0  0  0
   -0.3322   -1.5804   -1.3260 H   0  0  0  0  0  0  0  0  0  0  0  0
    0.8726   -0.6691   -0.4252 H   0  0  0  0  0  0  0  0  0  0  0  0
    0.3625   -2.5684    0.4226 C   0  0  0  0  0  0  0  0  0  0  0  0
    1.2300   -2.5124    1.5320 C   0  0  0  0  0  0  0  0  0  0  0  0
    1.6538   -1.5657    1.8405 H   0  0  0  0  0  0  0  0  0  0  0  0
    1.5418   -3.6865    2.2448 C   0  0  0  0  0  0  0  0  0  0  0  0
    2.2076   -3.6402    3.0928 H   0  0  0  0  0  0  0  0  0  0  0  0
    0.9808   -4.9202    1.8487 C   0  0  0  0  0  0  0  0  0  0  0  0
    1.2729   -6.0576    2.5313 O   0  0  0  0  0  0  0  0  0  0  0  0
    1.9402   -5.9140    3.2036 H   0  0  0  0  0  0  0  0  0  0  0  0
    0.1091   -4.9736    0.7413 C   0  0  0  0  0  0  0  0  0  0  0  0
   -0.3101   -5.9235    0.4455 H   0  0  0  0  0  0  0  0  0  0  0  0
   -0.1970   -3.7990    0.0281 C   0  0  0  0  0  0  0  0  0  0  0  0
   -0.8595   -3.8423   -0.8282 H   0  0  0  0  0  0  0  0  0  0  0  0
   -1.2941    0.8991   -0.2919 C   0  0  0  0  0  0  0  0  0  0  0  0
   -1.3454    1.0111   -1.5170 O   0  0  0  0  0  0  0  0  0  0  0  0
   -1.3740    1.9536    0.5295 N   0  0  0  0  0  0  0  0  0  0  0  0
   -1.2645    1.7836    1.5187 H   0  0  0  0  0  0  0  0  0  0  0  0
   -1.5297    3.3362    0.0835 C   0  0  0  0  0  0  0  0  0  0  0  0
   -2.3596    3.4069   -0.6218 H   0  0  0  0  0  0  0  0  0  0  0  0
   -1.7271    3.9866    0.9372 H   0  0  0  0  0  0  0  0  0  0  0  0
   -0.6170    3.6657   -0.4173 H   0  0  0  0  0  0  0  0  0  0  0  0
  5  6  2  0  0  0  0
  5  7  1  0  0  0  0
  2  3  1  0  0  0  0
  2  4  1  0  0  0  0
  2  5  1  0  0  0  0
  1  2  1  0  0  0  0
 26 27  2  0  0  0  0
 26 28  1  0  0  0  0
 24 25  1  0  0  0  0
 22 23  1  0  0  0  0
 22 24  2  0  0  0  0
 20 21  1  0  0  0  0
 19 20  1  0  0  0  0
 19 22  1  0  0  0  0
 17 18  1  0  0  0  0
 17 19  2  0  0  0  0
 15 16  1  0  0  0  0
 15 17  1  0  0  0  0
 14 15  2  0  0  0  0
 14 24  1  0  0  0  0
 11 12  1  0  0  0  0
 11 13  1  0  0  0  0
 11 14  1  0  0  0  0
  9 10  1  0  0  0  0
  9 11  1  0  0  0  0
  9 26  1  0  0  0  0
  7  8  1  0  0  0  0
  7  9  1  0  0  0  0
 30 31  1  0  0  0  0
 30 32  1  0  0  0  0
 30 33  1  0  0  0  0
 28 29  1  0  0  0  0
 28 30  1  0  0  0  0
M  END
$$$$
default_name
  -OEChem-01062215323D

 33 33  0     1  0  0  0  0  0999 V2000
   -4.0702   -3.8485    1.4554 H   0  0  0  0  0  0  0  0  0  0  0  0
   -4.0012   -2.9605    0.8284 C   0  0  0  0  0  0  0  0  0  0  0  0
   -4.7652   -2.2435    1.1234 H   0  0  0  0  0  0  0  0  0  0  0  0
   -4.1352   -3.2385   -0.2156 H   0  0  0  0  0  0  0  0  0  0  0  0
   -2.6362   -2.3395    1.0094 C   0  0  0  0  0  0  0  0  0  0  0  0
   -1.8292   -2.8395    1.7814 O   0  0  0  0  0  0  0  0  0  0  0  0
   -2.3832   -1.2445    0.2964 N   0  0  0  0  0  0  0  0  0  0  0  0
   -3.1102   -0.8685   -0.2946 H   0  0  0  0  0  0  0  0  0  0  0  0
   -1.1292   -0.4875    0.3524 C   0  0  1  0  0  0  0  0  0  0  0  0
   -0.8610   -0.3377    1.3988 H   0  0  0  0  0  0  0  0  0  0  0  0
   -0.0110   -1.3010   -0.3217 C   0  0  0  0  0  0  0  0  0  0  0  0
   -0.3322   -1.5804   -1.3260 H   0  0  0  0  0  0  0  0  0  0  0  0
    0.8726   -0.6691   -0.4252 H   0  0  0  0  0  0  0  0  0  0  0  0
    0.3625   -2.5684    0.4226 C   0  0  0  0  0  0  0  0  0  0  0  0
    1.2300   -2.5124    1.5320 C   0  0  0  0  0  0  0  0  0  0  0  0
    1.6538   -1.5657    1.8405 H   0  0  0  0  0  0  0  0  0  0  0  0
    1.5418   -3.6865    2.2448 C   0  0  0  0  0  0  0  0  0  0  0  0
    2.2076   -3.6402    3.0928 H   0  0  0  0  0  0  0  0  0  0  0  0
    0.9808   -4.9202    1.8487 C   0  0  0  0  0  0  0  0  0  0  0  0
    1.2729   -6.0576    2.5313 O   0  0  0  0  0  0  0  0  0  0  0  0
    1.9402   -5.9140    3.2036 H   0  0  0  0  0  0  0  0  0  0  0  0
    0.1091   -4.9736    0.7413 C   0  0  0  0  0  0  0  0  0  0  0  0
   -0.3101   -5.9235    0.4455 H   0  0  0  0  0  0  0  0  0  0  0  0
   -0.1970   -3.7990    0.0281 C   0  0  0  0  0  0  0  0  0  0  0  0
   -0.8595   -3.8423   -0.8282 H   0  0  0  0  0  0  0  0  0  0  0  0
   -1.2941    0.8991   -0.2919 C   0  0  0  0  0  0  0  0  0  0  0  0
   -1.6197    0.9979   -1.4752 O   0  0  0  0  0  0  0  0  0  0  0  0
   -1.0675    1.9681    0.4821 N   0  0  0  0  0  0  0  0  0  0  0  0
   -0.7472    1.8016    1.4251 H   0  0  0  0  0  0  0  0  0  0  0  0
   -1.1774    3.3526    0.0286 C   0  0  0  0  0  0  0  0  0  0  0  0
   -2.1376    3.5051   -0.4674 H   0  0  0  0  0  0  0  0  0  0  0  0
   -1.0992    4.0336    0.8776 H   0  0  0  0  0  0  0  0  0  0  0  0
   -0.3784    3.5705   -0.6831 H   0  0  0  0  0  0  0  0  0  0  0  0
  5  6  2  0  0  0  0
  5  7  1  0  0  0  0
  2  3  1  0  0  0  0
  2  4  1  0  0  0  0
  2  5  1  0  0  0  0
  1  2  1  0  0  0  0
 26 27  2  0  0  0  0
 26 28  1  0  0  0  0
 24 25  1  0  0  0  0
 22 23  1  0  0  0  0
 22 24  2  0  0  0  0
 20 21  1  0  0  0  0
 19 20  1  0  0  0  0
 19 22  1  0  0  0  0
 17 18  1  0  0  0  0
 17 19  2  0  0  0  0
 15 16  1  0  0  0  0
 15 17  1  0  0  0  0
 14 15  2  0  0  0  0
 14 24  1  0  0  0  0
 11 12  1  0  0  0  0
 11 13  1  0  0  0  0
 11 14  1  0  0  0  0
  9 10  1  0  0  0  0
  9 11  1  0  0  0  0
  9 26  1  0  0  0  0
  7  8  1  0  0  0  0
  7  9  1  0  0  0  0
 30 31  1  0  0  0  0
 30 32  1  0  0  0  0
 30 33  1  0  0  0  0
 28 29  1  0  0  0  0
 28 30  1  0  0  0  0
M  END
$$$$
default_name
  -OEChem-01062215323D

 33 33  0     1  0  0  0  0  0999 V2000
   -4.0702   -3.8485    1.4554 H   0  0  0  0  0  0  0  0  0  0  0  0
   -4.0012   -2.9605    0.8284 C   0  0  0  0  0  0  0  0  0  0  0  0
   -4.7652   -2.2435    1.1234 H   0  0  0  0  0  0  0  0  0  0  0  0
   -4.1352   -3.2385   -0.2156 H   0  0  0  0  0  0  0  0  0  0  0  0
   -2.6362   -2.3395    1.0094 C   0  0  0  0  0  0  0  0  0  0  0  0
   -1.8292   -2.8395    1.7814 O   0  0  0  0  0  0  0  0  0  0  0  0
   -2.3832   -1.2445    0.2964 N   0  0  0  0  0  0  0  0  0  0  0  0
   -3.1102   -0.8685   -0.2946 H   0  0  0  0  0  0  0  0  0  0  0  0
   -1.1292   -0.4875    0.3524 C   0  0  1  0  0  0  0  0  0  0  0  0
   -0.8610   -0.3377    1.3988 H   0  0  0  0  0  0  0  0  0  0  0  0
   -0.0110   -1.3010   -0.3217 C   0  0  0  0  0  0  0  0  0  0  0  0
   -0.3322   -1.5804   -1.3260 H   0  0  0  0  0  0  0  0  0  0  0  0
    0.8726   -0.6691   -0.4252 H   0  0  0  0  0  0  0  0  0  0  0  0
    0.3625   -2.5684    0.4226 C   0  0  0  0  0  0  0  0  0  0  0  0
    1.2300   -2.5124    1.5320 C   0  0  0  0  0  0  0  0  0  0  0  0
    1.6538   -1.5657    1.8405 H   0  0  0  0  0  0  0  0  0  0  0  0
    1.5418   -3.6865    2.2448 C   0  0  0  0  0  0  0  0  0  0  0  0
    2.2076   -3.6402    3.0928 H   0  0  0  0  0  0  0  0  0  0  0  0
    0.9808   -4.9202    1.8487 C   0  0  0  0  0  0  0  0  0  0  0  0
    1.2729   -6.0576    2.5313 O   0  0  0  0  0  0  0  0  0  0  0  0
    1.9402   -5.9140    3.2036 H   0  0  0  0  0  0  0  0  0  0  0  0
    0.1091   -4.9736    0.7413 C   0  0  0  0  0  0  0  0  0  0  0  0
   -0.3101   -5.9235    0.4455 H   0  0  0  0  0  0  0  0  0  0  0  0
   -0.1970   -3.7990    0.0281 C   0  0  0  0  0  0  0  0  0  0  0  0
   -0.8595   -3.8423   -0.8282 H   0  0  0  0  0  0  0  0  0  0  0  0
   -1.2941    0.8991   -0.2919 C   0  0  0  0  0  0  0  0  0  0  0  0
   -1.8763    1.0161   -1.3705 O   0  0  0  0  0  0  0  0  0  0  0  0
   -0.7810    1.9475    0.3644 N   0  0  0  0  0  0  0  0  0  0  0  0
   -0.2674    1.7603    1.2134 H   0  0  0  0  0  0  0  0  0  0  0  0
   -0.8481    3.3287   -0.1072 C   0  0  0  0  0  0  0  0  0  0  0  0
   -1.8764    3.5801   -0.3728 H   0  0  0  0  0  0  0  0  0  0  0  0
   -0.5015    4.0093    0.6723 H   0  0  0  0  0  0  0  0  0  0  0  0
   -0.2203    3.4453   -0.9930 H   0  0  0  0  0  0  0  0  0  0  0  0
  5  6  2  0  0  0  0
  5  7  1  0  0  0  0
  2  3  1  0  0  0  0
  2  4  1  0  0  0  0
  2  5  1  0  0  0  0
  1  2  1  0  0  0  0
 26 27  2  0  0  0  0
 26 28  1  0  0  0  0
 24 25  1  0  0  0  0
 22 23  1  0  0  0  0
 22 24  2  0  0  0  0
 20 21  1  0  0  0  0
 19 20  1  0  0  0  0
 19 22  1  0  0  0  0
 17 18  1  0  0  0  0
 17 19  2  0  0  0  0
 15 16  1  0  0  0  0
 15 17  1  0  0  0  0
 14 15  2  0  0  0  0
 14 24  1  0  0  0  0
 11 12  1  0  0  0  0
 11 13  1  0  0  0  0
 11 14  1  0  0  0  0
  9 10  1  0  0  0  0
  9 11  1  0  0  0  0
  9 26  1  0  0  0  0
  7  8  1  0  0  0  0
  7  9  1  0  0  0  0
 30 31  1  0  0  0  0
 30 32  1  0  0  0  0
 30 33  1  0  0  0  0
 28 29  1  0  0  0  0
 28 30  1  0  0  0  0
M  END
$$$$
default_name
  -OEChem-01062215323D

 33 33  0     1  0  0  0  0  0999 V2000
   -4.0702   -3.8485    1.4554 H   0  0  0  0  0  0  0  0  0  0  0  0
   -4.0012   -2.9605    0.8284 C   0  0  0  0  0  0  0  0  0  0  0  0
   -4.7652   -2.2435    1.1234 H   0  0  0  0  0  0  0  0  0  0  0  0
   -4.1352   -3.2385   -0.2156 H   0  0  0  0  0  0  0  0  0  0  0  0
   -2.6362   -2.3395    1.0094 C   0  0  0  0  0  0  0  0  0  0  0  0
   -1.8292   -2.8395    1.7814 O   0  0  0  0  0  0  0  0  0  0  0  0
   -2.3832   -1.2445    0.2964 N   0  0  0  0  0  0  0  0  0  0  0  0
   -3.1102   -0.8685   -0.2946 H   0  0  0  0  0  0  0  0  0  0  0  0
   -1.1292   -0.4875    0.3524 C   0  0  1  0  0  0  0  0  0  0  0  0
   -0.8610   -0.3377    1.3988 H   0  0  0  0  0  0  0  0  0  0  0  0
   -0.0110   -1.3010   -0.3217 C   0  0  0  0  0  0  0  0  0  0  0  0
   -0.3322   -1.5804   -1.3260 H   0  0  0  0  0  0  0  0  0  0  0  0
    0.8726   -0.6691   -0.4252 H   0  0  0  0  0  0  0  0  0  0  0  0
    0.3625   -2.5684    0.4226 C   0  0  0  0  0  0  0  0  0  0  0  0
    1.2300   -2.5124    1.5320 C   0  0  0  0  0  0  0  0  0  0  0  0
    1.6538   -1.5657    1.8405 H   0  0  0  0  0  0  0  0  0  0  0  0
    1.5418   -3.6865    2.2448 C   0  0  0  0  0  0  0  0  0  0  0  0
    2.2076   -3.6402    3.0928 H   0  0  0  0  0  0  0  0  0  0  0  0
    0.9808   -4.9202    1.8487 C   0  0  0  0  0  0  0  0  0  0  0  0
    1.2729   -6.0576    2.5313 O   0  0  0  0  0  0  0  0  0  0  0  0
    1.9402   -5.9140    3.2036 H   0  0  0  0  0  0  0  0  0  0  0  0
    0.1091   -4.9736    0.7413 C   0  0  0  0  0  0  0  0  0  0  0  0
   -0.3101   -5.9235    0.4455 H   0  0  0  0  0  0  0  0  0  0  0  0
   -0.1970   -3.7990    0.0281 C   0  0  0  0  0  0  0  0  0  0  0  0
   -0.8595   -3.8423   -0.8282 H   0  0  0  0  0  0  0  0  0  0  0  0
   -1.2941    0.8991   -0.2919 C   0  0  0  0  0  0  0  0  0  0  0  0
   -2.0978    1.0643   -1.2100 O   0  0  0  0  0  0  0  0  0  0  0  0
   -0.5339    1.8932    0.1844 N   0  0  0  0  0  0  0  0  0  0  0  0
    0.1421    1.6625    0.8981 H   0  0  0  0  0  0  0  0  0  0  0  0
   -0.5643    3.2662   -0.3145 C   0  0  0  0  0  0  0  0  0  0  0  0
   -1.5939    3.6268   -0.3444 H   0  0  0  0  0  0  0  0  0  0  0  0
    0.0252    3.9152    0.3351 H   0  0  0  0  0  0  0  0  0  0  0  0
   -0.1534    3.2987   -1.3256 H   0  0  0  0  0  0  0  0  0  0  0  0
  5  6  2  0  0  0  0
  5  7  1  0  0  0  0
  2  3  1  0  0  0  0
  2  4  1  0  0  0  0
  2  5  1  0  0  0  0
  1  2  1  0  0  0  0
 26 27  2  0  0  0  0
 26 28  1  0  0  0  0
 24 25  1  0  0  0  0
 22 23  1  0  0  0  0
 22 24  2  0  0  0  0
 20 21  1  0  0  0  0
 19 20  1  0  0  0  0
 19 22  1  0  0  0  0
 17 18  1  0  0  0  0
 17 19  2  0  0  0  0
 15 16  1  0  0  0  0
 15 17  1  0  0  0  0
 14 15  2  0  0  0  0
 14 24  1  0  0  0  0
 11 12  1  0  0  0  0
 11 13  1  0  0  0  0
 11 14  1  0  0  0  0
  9 10  1  0  0  0  0
  9 11  1  0  0  0  0
  9 26  1  0  0  0  0
  7  8  1  0  0  0  0
  7  9  1  0  0  0  0
 30 31  1  0  0  0  0
 30 32  1  0  0  0  0
 30 33  1  0  0  0  0
 28 29  1  0  0  0  0
 28 30  1  0  0  0  0
M  END
$$$$
default_name
  -OEChem-01062215323D

 33 33  0     1  0  0  0  0  0999 V2000
   -4.0702   -3.8485    1.4554 H   0  0  0  0  0  0  0  0  0  0  0  0
   -4.0012   -2.9605    0.8284 C   0  0  0  0  0  0  0  0  0  0  0  0
   -4.7652   -2.2435    1.1234 H   0  0  0  0  0  0  0  0  0  0  0  0
   -4.1352   -3.2385   -0.2156 H   0  0  0  0  0  0  0  0  0  0  0  0
   -2.6362   -2.3395    1.0094 C   0  0  0  0  0  0  0  0  0  0  0  0
   -1.8292   -2.8395    1.7814 O   0  0  0  0  0  0  0  0  0  0  0  0
   -2.3832   -1.2445    0.2964 N   0  0  0  0  0  0  0  0  0  0  0  0
   -3.1102   -0.8685   -0.2946 H   0  0  0  0  0  0  0  0  0  0  0  0
   -1.1292   -0.4875    0.3524 C   0  0  1  0  0  0  0  0  0  0  0  0
   -0.8610   -0.3377    1.3988 H   0  0  0  0  0  0  0  0  0  0  0  0
   -0.0110   -1.3010   -0.3217 C   0  0  0  0  0  0  0  0  0  0  0  0
   -0.3322   -1.5804   -1.3260 H   0  0  0  0  0  0  0  0  0  0  0  0
    0.8726   -0.6691   -0.4252 H   0  0  0  0  0  0  0  0  0  0  0  0
    0.3625   -2.5684    0.4226 C   0  0  0  0  0  0  0  0  0  0  0  0
    1.2300   -2.5124    1.5320 C   0  0  0  0  0  0  0  0  0  0  0  0
    1.6538   -1.5657    1.8405 H   0  0  0  0  0  0  0  0  0  0  0  0
    1.5418   -3.6865    2.2448 C   0  0  0  0  0  0  0  0  0  0  0  0
    2.2076   -3.6402    3.0928 H   0  0  0  0  0  0  0  0  0  0  0  0
    0.9808   -4.9202    1.8487 C   0  0  0  0  0  0  0  0  0  0  0  0
    1.2729   -6.0576    2.5313 O   0  0  0  0  0  0  0  0  0  0  0  0
    1.9402   -5.9140    3.2036 H   0  0  0  0  0  0  0  0  0  0  0  0
    0.1091   -4.9736    0.7413 C   0  0  0  0  0  0  0  0  0  0  0  0
   -0.3101   -5.9235    0.4455 H   0  0  0  0  0  0  0  0  0  0  0  0
   -0.1970   -3.7990    0.0281 C   0  0  0  0  0  0  0  0  0  0  0  0
   -0.8595   -3.8423   -0.8282 H   0  0  0  0  0  0  0  0  0  0  0  0
   -1.2941    0.8991   -0.2919 C   0  0  0  0  0  0  0  0  0  0  0  0
   -2.2690    1.1394   -1.0046 O   0  0  0  0  0  0  0  0  0  0  0  0
   -0.3431    1.8090   -0.0456 N   0  0  0  0  0  0  0  0  0  0  0  0
    0.4535    1.5149    0.5007 H   0  0  0  0  0  0  0  0  0  0  0  0
   -0.3453    3.1692   -0.5792 C   0  0  0  0  0  0  0  0  0  0  0  0
   -1.3094    3.6422   -0.3842 H   0  0  0  0  0  0  0  0  0  0  0  0
    0.4452    3.7579   -0.1109 H   0  0  0  0  0  0  0  0  0  0  0  0
   -0.1824    3.1406   -1.6585 H   0  0  0  0  0  0  0  0  0  0  0  0
  5  6  2  0  0  0  0
  5  7  1  0  0  0  0
  2  3  1  0  0  0  0
  2  4  1  0  0  0  0
  2  5  1  0  0  0  0
  1  2  1  0  0  0  0
 26 27  2  0  0  0  0
 26 28  1  0  0  0  0
 24 25  1  0  0  0  0
 22 23  1  0  0  0  0
 22 24  2  0  0  0  0
 20 21  1  0  0  0  0
 19 20  1  0  0  0  0
 19 22  1  0  0  0  0
 17 18  1  0  0  0  0
 17 19  2  0  0  0  0
 15 16  1  0  0  0  0
 15 17  1  0  0  0  0
 14 15  2  0  0  0  0
 14 24  1  0  0  0  0
 11 12  1  0  0  0  0
 11 13  1  0  0  0  0
 11 14  1  0  0  0  0
  9 10  1  0  0  0  0
  9 11  1  0  0  0  0
  9 26  1  0  0  0  0
  7  8  1  0  0  0  0
  7  9  1  0  0  0  0
 30 31  1  0  0  0  0
 30 32  1  0  0  0  0
 30 33  1  0  0  0  0
 28 29  1  0  0  0  0
 28 30  1  0  0  0  0
M  END
$$$$
default_name
  -OEChem-01062215323D

 33 33  0     1  0  0  0  0  0999 V2000
   -4.0702   -3.8485    1.4554 H   0  0  0  0  0  0  0  0  0  0  0  0
   -4.0012   -2.9605    0.8284 C   0  0  0  0  0  0  0  0  0  0  0  0
   -4.7652   -2.2435    1.1234 H   0  0  0  0  0  0  0  0  0  0  0  0
   -4.1352   -3.2385   -0.2156 H   0  0  0  0  0  0  0  0  0  0  0  0
   -2.6362   -2.3395    1.0094 C   0  0  0  0  0  0  0  0  0  0  0  0
   -1.8292   -2.8395    1.7814 O   0  0  0  0  0  0  0  0  0  0  0  0
   -2.3832   -1.2445    0.2964 N   0  0  0  0  0  0  0  0  0  0  0  0
   -3.1102   -0.8685   -0.2946 H   0  0  0  0  0  0  0  0  0  0  0  0
   -1.1292   -0.4875    0.3524 C   0  0  1  0  0  0  0  0  0  0  0  0
   -0.7216   -0.5657    1.3610 H   0  0  0  0  0  0  0  0  0  0  0  0
   -0.1163   -1.1040   -0.6277 C   0  0  0  0  0  0  0  0  0  0  0  0
   -0.5713   -1.1627   -1.6173 H   0  0  0  0  0  0  0  0  0  0  0  0
    0.7486   -0.4429   -0.7044 H   0  0  0  0  0  0  0  0  0  0  0  0
    0.3476   -2.4947   -0.2396 C   0  0  0  0  0  0  0  0  0  0  0  0
    1.3569   -2.6633    0.7294 C   0  0  0  0  0  0  0  0  0  0  0  0
    1.8233   -1.7978    1.1815 H   0  0  0  0  0  0  0  0  0  0  0  0
    1.7559   -3.9577    1.1159 C   0  0  0  0  0  0  0  0  0  0  0  0
    2.5302   -4.0831    1.8571 H   0  0  0  0  0  0  0  0  0  0  0  0
    1.1403   -5.0871    0.5336 C   0  0  0  0  0  0  0  0  0  0  0  0
    1.5158   -6.3395    0.9017 O   0  0  0  0  0  0  0  0  0  0  0  0
    2.2684   -6.3312    1.4946 H   0  0  0  0  0  0  0  0  0  0  0  0
    0.1270   -4.9164   -0.4323 C   0  0  0  0  0  0  0  0  0  0  0  0
   -0.3331   -5.7878   -0.8735 H   0  0  0  0  0  0  0  0  0  0  0  0
   -0.2664   -3.6214   -0.8199 C   0  0  0  0  0  0  0  0  0  0  0  0
   -1.0384   -3.4911   -1.5688 H   0  0  0  0  0  0  0  0  0  0  0  0
   -1.3723    1.0026    0.0599 C   0  0  0  0  0  0  0  0  0  0  0  0
   -2.5091    1.4093   -0.1818 O   0  0  0  0  0  0  0  0  0  0  0  0
   -0.3079    1.8148    0.0782 N   0  0  0  0  0  0  0  0  0  0  0  0
    0.5977    1.3936    0.2264 H   0  0  0  0  0  0  0  0  0  0  0  0
   -0.3628    3.2520   -0.1792 C   0  0  0  0  0  0  0  0  0  0  0  0
   -1.1352    3.7103    0.4409 H   0  0  0  0  0  0  0  0  0  0  0  0
    0.6004    3.7117    0.0481 H   0  0  0  0  0  0  0  0  0  0  0  0
   -0.6077    3.4281   -1.2287 H   0  0  0  0  0  0  0  0  0  0  0  0
  5  6  2  0  0  0  0
  5  7  1  0  0  0  0
  2  3  1  0  0  0  0
  2  4  1  0  0  0  0
  2  5  1  0  0  0  0
  1  2  1  0  0  0  0
 26 27  2  0  0  0  0
 26 28  1  0  0  0  0
 24 25  1  0  0  0  0
 22 23  1  0  0  0  0
 22 24  2  0  0  0  0
 20 21  1  0  0  0  0
 19 20  1  0  0  0  0
 19 22  1  0  0  0  0
 17 18  1  0  0  0  0
 17 19  2  0  0  0  0
 15 16  1  0  0  0  0
 15 17  1  0  0  0  0
 14 15  2  0  0  0  0
 14 24  1  0  0  0  0
 11 12  1  0  0  0  0
 11 13  1  0  0  0  0
 11 14  1  0  0  0  0
  9 10  1  0  0  0  0
  9 11  1  0  0  0  0
  9 26  1  0  0  0  0
  7  8  1  0  0  0  0
  7  9  1  0  0  0  0
 30 31  1  0  0  0  0
 30 32  1  0  0  0  0
 30 33  1  0  0  0  0
 28 29  1  0  0  0  0
 28 30  1  0  0  0  0
M  END
$$$$
default_name
  -OEChem-01062215323D

 33 33  0     1  0  0  0  0  0999 V2000
   -4.0702   -3.8485    1.4554 H   0  0  0  0  0  0  0  0  0  0  0  0
   -4.0012   -2.9605    0.8284 C   0  0  0  0  0  0  0  0  0  0  0  0
   -4.7652   -2.2435    1.1234 H   0  0  0  0  0  0  0  0  0  0  0  0
   -4.1352   -3.2385   -0.2156 H   0  0  0  0  0  0  0  0  0  0  0  0
   -2.6362   -2.3395    1.0094 C   0  0  0  0  0  0  0  0  0  0  0  0
   -1.8292   -2.8395    1.7814 O   0  0  0  0  0  0  0  0  0  0  0  0
   -2.3832   -1.2445    0.2964 N   0  0  0  0  0  0  0  0  0  0  0  0
   -3.1102   -0.8685   -0.2946 H   0  0  0  0  0  0  0  0  0  0  0  0
   -1.1292   -0.4875    0.3524 C   0  0  1  0  0  0  0  0  0  0  0  0
   -0.7216   -0.5657    1.3610 H   0  0  0  0  0  0  0  0  0  0  0  0
   -0.1163   -1.1040   -0.6277 C   0  0  0  0  0  0  0  0  0  0  0  0
   -0.5713   -1.1627   -1.6173 H   0  0  0  0  0  0  0  0  0  0  0  0
    0.7486   -0.4429   -0.7044 H   0  0  0  0  0  0  0  0  0  0  0  0
    0.3476   -2.4947   -0.2396 C   0  0  0  0  0  0  0  0  0  0  0  0
    1.3569   -2.6633    0.7294 C   0  0  0  0  0  0  0  0  0  0  0  0
    1.8233   -1.7978    1.1815 H   0  0  0  0  0  0  0  0  0  0  0  0
    1.7559   -3.9577    1.1159 C   0  0  0  0  0  0  0  0  0  0  0  0
    2.5302   -4.0831    1.8571 H   0  0  0  0  0  0  0  0  0  0  0  0
    1.1403   -5.0871    0.5336 C   0  0  0  0  0  0  0  0  0  0  0  0
    1.5158   -6.3395    0.9017 O   0  0  0  0  0  0  0  0  0  0  0  0
    2.2684   -6.3312    1.4946 H   0  0  0  0  0  0  0  0  0  0  0  0
    0.1270   -4.9164   -0.4323 C   0  0  0  0  0  0  0  0  0  0  0  0
   -0.3331   -5.7878   -0.8735 H   0  0  0  0  0  0  0  0  0  0  0  0
   -0.2664   -3.6214   -0.8199 C   0  0  0  0  0  0  0  0  0  0  0  0
   -1.0384   -3.4911   -1.5688 H   0  0  0  0  0  0  0  0  0  0  0  0
   -1.3723    1.0026    0.0599 C   0  0  0  0  0  0  0  0  0  0  0  0
   -2.5143    1.4620    0.0908 O   0  0  0  0  0  0  0  0  0  0  0  0
   -0.3029    1.7558   -0.2266 N   0  0  0  0  0  0  0  0  0  0  0  0
    0.5914    1.2913   -0.2895 H   0  0  0  0  0  0  0  0  0  0  0  0
   -0.3576    3.1841   -0.5296 C   0  0  0  0  0  0  0  0  0  0  0  0
   -0.9279    3.7049    0.2414 H   0  0  0  0  0  0  0  0  0  0  0  0
    0.6511    3.5982   -0.5720 H   0  0  0  0  0  0  0  0  0  0  0  0
   -0.8508    3.3367   -1.4918 H   0  0  0  0  0  0  0  0  0  0  0  0
  5  6  2  0  0  0  0
  5  7  1  0  0  0  0
  2  3  1  0  0  0  0
  2  4  1  0  0  0  0
  2  5  1  0  0  0  0
  1  2  1  0  0  0  0
 26 27  2  0  0  0  0
 26 28  1  0  0  0  0
 24 25  1  0  0  0  0
 22 23  1  0  0  0  0
 22 24  2  0  0  0  0
 20 21  1  0  0  0  0
 19 20  1  0  0  0  0
 19 22  1  0  0  0  0
 17 18  1  0  0  0  0
 17 19  2  0  0  0  0
 15 16  1  0  0  0  0
 15 17  1  0  0  0  0
 14 15  2  0  0  0  0
 14 24  1  0  0  0  0
 11 12  1  0  0  0  0
 11 13  1  0  0  0  0
 11 14  1  0  0  0  0
  9 10  1  0  0  0  0
  9 11  1  0  0  0  0
  9 26  1  0  0  0  0
  7  8  1  0  0  0  0
  7  9  1  0  0  0  0
 30 31  1  0  0  0  0
 30 32  1  0  0  0  0
 30 33  1  0  0  0  0
 28 29  1  0  0  0  0
 28 30  1  0  0  0  0
M  END
$$$$
default_name
  -OEChem-01062215323D

 33 33  0     1  0  0  0  0  0999 V2000
   -4.0702   -3.8485    1.4554 H   0  0  0  0  0  0  0  0  0  0  0  0
   -4.0012   -2.9605    0.8284 C   0  0  0  0  0  0  0  0  0  0  0  0
   -4.7652   -2.2435    1.1234 H   0  0  0  0  0  0  0  0  0  0  0  0
   -4.1352   -3.2385   -0.2156 H   0  0  0  0  0  0  0  0  0  0  0  0
   -2.6362   -2.3395    1.0094 C   0  0  0  0  0  0  0  0  0  0  0  0
   -1.8292   -2.8395    1.7814 O   0  0  0  0  0  0  0  0  0  0  0  0
   -2.3832   -1.2445    0.2964 N   0  0  0  0  0  0  0  0  0  0  0  0
   -3.1102   -0.8685   -0.2946 H   0  0  0  0  0  0  0  0  0  0  0  0
   -1.1292   -0.4875    0.3524 C   0  0  1  0  0  0  0  0  0  0  0  0
   -0.7216   -0.5657    1.3610 H   0  0  0  0  0  0  0  0  0  0  0  0
   -0.1163   -1.1040   -0.6277 C   0  0  0  0  0  0  0  0  0  0  0  0
   -0.5713   -1.1627   -1.6173 H   0  0  0  0  0  0  0  0  0  0  0  0
    0.7486   -0.4429   -0.7044 H   0  0  0  0  0  0  0  0  0  0  0  0
    0.3476   -2.4947   -0.2396 C   0  0  0  0  0  0  0  0  0  0  0  0
    1.3569   -2.6633    0.7294 C   0  0  0  0  0  0  0  0  0  0  0  0
    1.8233   -1.7978    1.1815 H   0  0  0  0  0  0  0  0  0  0  0  0
    1.7559   -3.9577    1.1159 C   0  0  0  0  0  0  0  0  0  0  0  0
    2.5302   -4.0831    1.8571 H   0  0  0  0  0  0  0  0  0  0  0  0
    1.1403   -5.0871    0.5336 C   0  0  0  0  0  0  0  0  0  0  0  0
    1.5158   -6.3395    0.9017 O   0  0  0  0  0  0  0  0  0  0  0  0
    2.2684   -6.3312    1.4946 H   0  0  0  0  0  0  0  0  0  0  0  0
    0.1270   -4.9164   -0.4323 C   0  0  0  0  0  0  0  0  0  0  0  0
   -0.3331   -5.7878   -0.8735 H   0  0  0  0  0  0  0  0  0  0  0  0
   -0.2664   -3.6214   -0.8199 C   0  0  0  0  0  0  0  0  0  0  0  0
   -1.0384   -3.4911   -1.5688 H   0  0  0  0  0  0  0  0  0  0  0  0
   -1.3723    1.0026    0.0599 C   0  0  0  0  0  0  0  0  0  0  0  0
   -2.4483    1.5243    0.3533 O   0  0  0  0  0  0  0  0  0  0  0  0
   -0.3774    1.6861   -0.5198 N   0  0  0  0  0  0  0  0  0  0  0  0
    0.4509    1.1716   -0.7821 H   0  0  0  0  0  0  0  0  0  0  0  0
   -0.4437    3.1038   -0.8666 C   0  0  0  0  0  0  0  0  0  0  0  0
   -0.7780    3.6814   -0.0030 H   0  0  0  0  0  0  0  0  0  0  0  0
    0.5390    3.4607   -1.1791 H   0  0  0  0  0  0  0  0  0  0  0  0
   -1.1561    3.2498   -1.6812 H   0  0  0  0  0  0  0  0  0  0  0  0
  5  6  2  0  0  0  0
  5  7  1  0  0  0  0
  2  3  1  0  0  0  0
  2  4  1  0  0  0  0
  2  5  1  0  0  0  0
  1  2  1  0  0  0  0
 26 27  2  0  0  0  0
 26 28  1  0  0  0  0
 24 25  1  0  0  0  0
 22 23  1  0  0  0  0
 22 24  2  0  0  0  0
 20 21  1  0  0  0  0
 19 20  1  0  0  0  0
 19 22  1  0  0  0  0
 17 18  1  0  0  0  0
 17 19  2  0  0  0  0
 15 16  1  0  0  0  0
 15 17  1  0  0  0  0
 14 15  2  0  0  0  0
 14 24  1  0  0  0  0
 11 12  1  0  0  0  0
 11 13  1  0  0  0  0
 11 14  1  0  0  0  0
  9 10  1  0  0  0  0
  9 11  1  0  0  0  0
  9 26  1  0  0  0  0
  7  8  1  0  0  0  0
  7  9  1  0  0  0  0
 30 31  1  0  0  0  0
 30 32  1  0  0  0  0
 30 33  1  0  0  0  0
 28 29  1  0  0  0  0
 28 30  1  0  0  0  0
M  END
$$$$
default_name
  -OEChem-01062215323D

 33 33  0     1  0  0  0  0  0999 V2000
   -4.0702   -3.8485    1.4554 H   0  0  0  0  0  0  0  0  0  0  0  0
   -4.0012   -2.9605    0.8284 C   0  0  0  0  0  0  0  0  0  0  0  0
   -4.7652   -2.2435    1.1234 H   0  0  0  0  0  0  0  0  0  0  0  0
   -4.1352   -3.2385   -0.2156 H   0  0  0  0  0  0  0  0  0  0  0  0
   -2.6362   -2.3395    1.0094 C   0  0  0  0  0  0  0  0  0  0  0  0
   -1.8292   -2.8395    1.7814 O   0  0  0  0  0  0  0  0  0  0  0  0
   -2.3832   -1.2445    0.2964 N   0  0  0  0  0  0  0  0  0  0  0  0
   -3.1102   -0.8685   -0.2946 H   0  0  0  0  0  0  0  0  0  0  0  0
   -1.1292   -0.4875    0.3524 C   0  0  1  0  0  0  0  0  0  0  0  0
   -0.7216   -0.5657    1.3610 H   0  0  0  0  0  0  0  0  0  0  0  0
   -0.1163   -1.1040   -0.6277 C   0  0  0  0  0  0  0  0  0  0  0  0
   -0.5713   -1.1627   -1.6173 H   0  0  0  0  0  0  0  0  0  0  0  0
    0.7486   -0.4429   -0.7044 H   0  0  0  0  0  0  0  0  0  0  0  0
    0.3476   -2.4947   -0.2396 C   0  0  0  0  0  0  0  0  0  0  0  0
    1.3569   -2.6633    0.7294 C   0  0  0  0  0  0  0  0  0  0  0  0
    1.8233   -1.7978    1.1815 H   0  0  0  0  0  0  0  0  0  0  0  0
    1.7559   -3.9577    1.1159 C   0  0  0  0  0  0  0  0  0  0  0  0
    2.5302   -4.0831    1.8571 H   0  0  0  0  0  0  0  0  0  0  0  0
    1.1403   -5.0871    0.5336 C   0  0  0  0  0  0  0  0  0  0  0  0
    1.5158   -6.3395    0.9017 O   0  0  0  0  0  0  0  0  0  0  0  0
    2.2684   -6.3312    1.4946 H   0  0  0  0  0  0  0  0  0  0  0  0
    0.1270   -4.9164   -0.4323 C   0  0  0  0  0  0  0  0  0  0  0  0
   -0.3331   -5.7878   -0.8735 H   0  0  0  0  0  0  0  0  0  0  0  0
   -0.2664   -3.6214   -0.8199 C   0  0  0  0  0  0  0  0  0  0  0  0
   -1.0384   -3.4911   -1.5688 H   0  0  0  0  0  0  0  0  0  0  0  0
   -1.3723    1.0026    0.0599 C   0  0  0  0  0  0  0  0  0  0  0  0
   -2.3157    1.5920    0.5878 O   0  0  0  0  0  0  0  0  0  0  0  0
   -0.5263    1.6104   -0.7815 N   0  0  0  0  0  0  0  0  0  0  0  0
    0.1858    1.0428   -1.2178 H   0  0  0  0  0  0  0  0  0  0  0  0
   -0.6153    3.0168   -1.1673 C   0  0  0  0  0  0  0  0  0  0  0  0
   -0.6957    3.6413   -0.2758 H   0  0  0  0  0  0  0  0  0  0  0  0
    0.2718    3.3086   -1.7318 H   0  0  0  0  0  0  0  0  0  0  0  0
   -1.5028    3.1730   -1.7841 H   0  0  0  0  0  0  0  0  0  0  0  0
  5  6  2  0  0  0  0
  5  7  1  0  0  0  0
  2  3  1  0  0  0  0
  2  4  1  0  0  0  0
  2  5  1  0  0  0  0
  1  2  1  0  0  0  0
 26 27  2  0  0  0  0
 26 28  1  0  0  0  0
 24 25  1  0  0  0  0
 22 23  1  0  0  0  0
 22 24  2  0  0  0  0
 20 21  1  0  0  0  0
 19 20  1  0  0  0  0
 19 22  1  0  0  0  0
 17 18  1  0  0  0  0
 17 19  2  0  0  0  0
 15 16  1  0  0  0  0
 15 17  1  0  0  0  0
 14 15  2  0  0  0  0
 14 24  1  0  0  0  0
 11 12  1  0  0  0  0
 11 13  1  0  0  0  0
 11 14  1  0  0  0  0
  9 10  1  0  0  0  0
  9 11  1  0  0  0  0
  9 26  1  0  0  0  0
  7  8  1  0  0  0  0
  7  9  1  0  0  0  0
 30 31  1  0  0  0  0
 30 32  1  0  0  0  0
 30 33  1  0  0  0  0
 28 29  1  0  0  0  0
 28 30  1  0  0  0  0
M  END
$$$$
default_name
  -OEChem-01062215323D

 33 33  0     1  0  0  0  0  0999 V2000
   -4.0702   -3.8485    1.4554 H   0  0  0  0  0  0  0  0  0  0  0  0
   -4.0012   -2.9605    0.8284 C   0  0  0  0  0  0  0  0  0  0  0  0
   -4.7652   -2.2435    1.1234 H   0  0  0  0  0  0  0  0  0  0  0  0
   -4.1352   -3.2385   -0.2156 H   0  0  0  0  0  0  0  0  0  0  0  0
   -2.6362   -2.3395    1.0094 C   0  0  0  0  0  0  0  0  0  0  0  0
   -1.8292   -2.8395    1.7814 O   0  0  0  0  0  0  0  0  0  0  0  0
   -2.3832   -1.2445    0.2964 N   0  0  0  0  0  0  0  0  0  0  0  0
   -3.1102   -0.8685   -0.2946 H   0  0  0  0  0  0  0  0  0  0  0  0
   -1.1292   -0.4875    0.3524 C   0  0  1  0  0  0  0  0  0  0  0  0
   -0.7216   -0.5657    1.3610 H   0  0  0  0  0  0  0  0  0  0  0  0
   -0.1163   -1.1040   -0.6277 C   0  0  0  0  0  0  0  0  0  0  0  0
   -0.5713   -1.1627   -1.6173 H   0  0  0  0  0  0  0  0  0  0  0  0
    0.7486   -0.4429   -0.7044 H   0  0  0  0  0  0  0  0  0  0  0  0
    0.3476   -2.4947   -0.2396 C   0  0  0  0  0  0  0  0  0  0  0  0
    1.3569   -2.6633    0.7294 C   0  0  0  0  0  0  0  0  0  0  0  0
    1.8233   -1.7978    1.1815 H   0  0  0  0  0  0  0  0  0  0  0  0
    1.7559   -3.9577    1.1159 C   0  0  0  0  0  0  0  0  0  0  0  0
    2.5302   -4.0831    1.8571 H   0  0  0  0  0  0  0  0  0  0  0  0
    1.1403   -5.0871    0.5336 C   0  0  0  0  0  0  0  0  0  0  0  0
    1.5158   -6.3395    0.9017 O   0  0  0  0  0  0  0  0  0  0  0  0
    2.2684   -6.3312    1.4946 H   0  0  0  0  0  0  0  0  0  0  0  0
    0.1270   -4.9164   -0.4323 C   0  0  0  0  0  0  0  0  0  0  0  0
   -0.3331   -5.7878   -0.8735 H   0  0  0  0  0  0  0  0  0  0  0  0
   -0.2664   -3.6214   -0.8199 C   0  0  0  0  0  0  0  0  0  0  0  0
   -1.0384   -3.4911   -1.5688 H   0  0  0  0  0  0  0  0  0  0  0  0
   -1.3723    1.0026    0.0599 C   0  0  0  0  0  0  0  0  0  0  0  0
   -2.1255    1.6604    0.7783 O   0  0  0  0  0  0  0  0  0  0  0  0
   -0.7395    1.5339   -0.9938 N   0  0  0  0  0  0  0  0  0  0  0  0
   -0.1859    0.9137   -1.5668 H   0  0  0  0  0  0  0  0  0  0  0  0
   -0.8608    2.9289   -1.4111 C   0  0  0  0  0  0  0  0  0  0  0  0
   -0.6866    3.5873   -0.5583 H   0  0  0  0  0  0  0  0  0  0  0  0
   -0.1325    3.1522   -2.1924 H   0  0  0  0  0  0  0  0  0  0  0  0
   -1.8672    3.1118   -1.7933 H   0  0  0  0  0  0  0  0  0  0  0  0
  5  6  2  0  0  0  0
  5  7  1  0  0  0  0
  2  3  1  0  0  0  0
  2  4  1  0  0  0  0
  2  5  1  0  0  0  0
  1  2  1  0  0  0  0
 26 27  2  0  0  0  0
 26 28  1  0  0  0  0
 24 25  1  0  0  0  0
 22 23  1  0  0  0  0
 22 24  2  0  0  0  0
 20 21  1  0  0  0  0
 19 20  1  0  0  0  0
 19 22  1  0  0  0  0
 17 18  1  0  0  0  0
 17 19  2  0  0  0  0
 15 16  1  0  0  0  0
 15 17  1  0  0  0  0
 14 15  2  0  0  0  0
 14 24  1  0  0  0  0
 11 12  1  0  0  0  0
 11 13  1  0  0  0  0
 11 14  1  0  0  0  0
  9 10  1  0  0  0  0
  9 11  1  0  0  0  0
  9 26  1  0  0  0  0
  7  8  1  0  0  0  0
  7  9  1  0  0  0  0
 30 31  1  0  0  0  0
 30 32  1  0  0  0  0
 30 33  1  0  0  0  0
 28 29  1  0  0  0  0
 28 30  1  0  0  0  0
M  END
$$$$
default_name
  -OEChem-01062215323D

 33 33  0     1  0  0  0  0  0999 V2000
   -4.0702   -3.8485    1.4554 H   0  0  0  0  0  0  0  0  0  0  0  0
   -4.0012   -2.9605    0.8284 C   0  0  0  0  0  0  0  0  0  0  0  0
   -4.7652   -2.2435    1.1234 H   0  0  0  0  0  0  0  0  0  0  0  0
   -4.1352   -3.2385   -0.2156 H   0  0  0  0  0  0  0  0  0  0  0  0
   -2.6362   -2.3395    1.0094 C   0  0  0  0  0  0  0  0  0  0  0  0
   -1.8292   -2.8395    1.7814 O   0  0  0  0  0  0  0  0  0  0  0  0
   -2.3832   -1.2445    0.2964 N   0  0  0  0  0  0  0  0  0  0  0  0
   -3.1102   -0.8685   -0.2946 H   0  0  0  0  0  0  0  0  0  0  0  0
   -1.1292   -0.4875    0.3524 C   0  0  1  0  0  0  0  0  0  0  0  0
   -0.7216   -0.5657    1.3610 H   0  0  0  0  0  0  0  0  0  0  0  0
   -0.1163   -1.1040   -0.6277 C   0  0  0  0  0  0  0  0  0  0  0  0
   -0.5713   -1.1627   -1.6173 H   0  0  0  0  0  0  0  0  0  0  0  0
    0.7486   -0.4429   -0.7044 H   0  0  0  0  0  0  0  0  0  0  0  0
    0.3476   -2.4947   -0.2396 C   0  0  0  0  0  0  0  0  0  0  0  0
    1.3569   -2.6633    0.7294 C   0  0  0  0  0  0  0  0  0  0  0  0
    1.8233   -1.7978    1.1815 H   0  0  0  0  0  0  0  0  0  0  0  0
    1.7559   -3.9577    1.1159 C   0  0  0  0  0  0  0  0  0  0  0  0
    2.5302   -4.0831    1.8571 H   0  0  0  0  0  0  0  0  0  0  0  0
    1.1403   -5.0871    0.5336 C   0  0  0  0  0  0  0  0  0  0  0  0
    1.5158   -6.3395    0.9017 O   0  0  0  0  0  0  0  0  0  0  0  0
    2.2684   -6.3312    1.4946 H   0  0  0  0  0  0  0  0  0  0  0  0
    0.1270   -4.9164   -0.4323 C   0  0  0  0  0  0  0  0  0  0  0  0
   -0.3331   -5.7878   -0.8735 H   0  0  0  0  0  0  0  0  0  0  0  0
   -0.2664   -3.6214   -0.8199 C   0  0  0  0  0  0  0  0  0  0  0  0
   -1.0384   -3.4911   -1.5688 H   0  0  0  0  0  0  0  0  0  0  0  0
   -1.3723    1.0026    0.0599 C   0  0  0  0  0  0  0  0  0  0  0  0
   -1.8906    1.7249    0.9117 O   0  0  0  0  0  0  0  0  0  0  0  0
   -1.0025    1.4619   -1.1423 N   0  0  0  0  0  0  0  0  0  0  0  0
   -0.6389    0.7929   -1.8055 H   0  0  0  0  0  0  0  0  0  0  0  0
   -1.1634    2.8461   -1.5814 C   0  0  0  0  0  0  0  0  0  0  0  0
   -0.7512    3.5232   -0.8312 H   0  0  0  0  0  0  0  0  0  0  0  0
   -0.6462    3.0023   -2.5295 H   0  0  0  0  0  0  0  0  0  0  0  0
   -2.2246    3.0701   -1.7084 H   0  0  0  0  0  0  0  0  0  0  0  0
  5  6  2  0  0  0  0
  5  7  1  0  0  0  0
  2  3  1  0  0  0  0
  2  4  1  0  0  0  0
  2  5  1  0  0  0  0
  1  2  1  0  0  0  0
 26 27  2  0  0  0  0
 26 28  1  0  0  0  0
 24 25  1  0  0  0  0
 22 23  1  0  0  0  0
 22 24  2  0  0  0  0
 20 21  1  0  0  0  0
 19 20  1  0  0  0  0
 19 22  1  0  0  0  0
 17 18  1  0  0  0  0
 17 19  2  0  0  0  0
 15 16  1  0  0  0  0
 15 17  1  0  0  0  0
 14 15  2  0  0  0  0
 14 24  1  0  0  0  0
 11 12  1  0  0  0  0
 11 13  1  0  0  0  0
 11 14  1  0  0  0  0
  9 10  1  0  0  0  0
  9 11  1  0  0  0  0
  9 26  1  0  0  0  0
  7  8  1  0  0  0  0
  7  9  1  0  0  0  0
 30 31  1  0  0  0  0
 30 32  1  0  0  0  0
 30 33  1  0  0  0  0
 28 29  1  0  0  0  0
 28 30  1  0  0  0  0
M  END
$$$$
default_name
  -OEChem-01062215323D

 33 33  0     1  0  0  0  0  0999 V2000
   -4.0702   -3.8485    1.4554 H   0  0  0  0  0  0  0  0  0  0  0  0
   -4.0012   -2.9605    0.8284 C   0  0  0  0  0  0  0  0  0  0  0  0
   -4.7652   -2.2435    1.1234 H   0  0  0  0  0  0  0  0  0  0  0  0
   -4.1352   -3.2385   -0.2156 H   0  0  0  0  0  0  0  0  0  0  0  0
   -2.6362   -2.3395    1.0094 C   0  0  0  0  0  0  0  0  0  0  0  0
   -1.8292   -2.8395    1.7814 O   0  0  0  0  0  0  0  0  0  0  0  0
   -2.3832   -1.2445    0.2964 N   0  0  0  0  0  0  0  0  0  0  0  0
   -3.1102   -0.8685   -0.2946 H   0  0  0  0  0  0  0  0  0  0  0  0
   -1.1292   -0.4875    0.3524 C   0  0  1  0  0  0  0  0  0  0  0  0
   -0.7216   -0.5657    1.3610 H   0  0  0  0  0  0  0  0  0  0  0  0
   -0.1163   -1.1040   -0.6277 C   0  0  0  0  0  0  0  0  0  0  0  0
   -0.5713   -1.1627   -1.6173 H   0  0  0  0  0  0  0  0  0  0  0  0
    0.7486   -0.4429   -0.7044 H   0  0  0  0  0  0  0  0  0  0  0  0
    0.3476   -2.4947   -0.2396 C   0  0  0  0  0  0  0  0  0  0  0  0
    1.3569   -2.6633    0.7294 C   0  0  0  0  0  0  0  0  0  0  0  0
    1.8233   -1.7978    1.1815 H   0  0  0  0  0  0  0  0  0  0  0  0
    1.7559   -3.9577    1.1159 C   0  0  0  0  0  0  0  0  0  0  0  0
    2.5302   -4.0831    1.8571 H   0  0  0  0  0  0  0  0  0  0  0  0
    1.1403   -5.0871    0.5336 C   0  0  0  0  0  0  0  0  0  0  0  0
    1.5158   -6.3395    0.9017 O   0  0  0  0  0  0  0  0  0  0  0  0
    2.2684   -6.3312    1.4946 H   0  0  0  0  0  0  0  0  0  0  0  0
    0.1270   -4.9164   -0.4323 C   0  0  0  0  0  0  0  0  0  0  0  0
   -0.3331   -5.7878   -0.8735 H   0  0  0  0  0  0  0  0  0  0  0  0
   -0.2664   -3.6214   -0.8199 C   0  0  0  0  0  0  0  0  0  0  0  0
   -1.0384   -3.4911   -1.5688 H   0  0  0  0  0  0  0  0  0  0  0  0
   -1.3723    1.0026    0.0599 C   0  0  0  0  0  0  0  0  0  0  0  0
   -1.6271    1.7811    0.9791 O   0  0  0  0  0  0  0  0  0  0  0  0
   -1.2973    1.3992   -1.2169 N   0  0  0  0  0  0  0  0  0  0  0  0
   -1.1422    0.6889   -1.9175 H   0  0  0  0  0  0  0  0  0  0  0  0
   -1.5025    2.7741   -1.6667 C   0  0  0  0  0  0  0  0  0  0  0  0
   -0.8853    3.4533   -1.0760 H   0  0  0  0  0  0  0  0  0  0  0  0
   -1.2343    2.8689   -2.7201 H   0  0  0  0  0  0  0  0  0  0  0  0
   -2.5505    3.0510   -1.5350 H   0  0  0  0  0  0  0  0  0  0  0  0
  5  6  2  0  0  0  0
  5  7  1  0  0  0  0
  2  3  1  0  0  0  0
  2  4  1  0  0  0  0
  2  5  1  0  0  0  0
  1  2  1  0  0  0  0
 26 27  2  0  0  0  0
 26 28  1  0  0  0  0
 24 25  1  0  0  0  0
 22 23  1  0  0  0  0
 22 24  2  0  0  0  0
 20 21  1  0  0  0  0
 19 20  1  0  0  0  0
 19 22  1  0  0  0  0
 17 18  1  0  0  0  0
 17 19  2  0  0  0  0
 15 16  1  0  0  0  0
 15 17  1  0  0  0  0
 14 15  2  0  0  0  0
 14 24  1  0  0  0  0
 11 12  1  0  0  0  0
 11 13  1  0  0  0  0
 11 14  1  0  0  0  0
  9 10  1  0  0  0  0
  9 11  1  0  0  0  0
  9 26  1  0  0  0  0
  7  8  1  0  0  0  0
  7  9  1  0  0  0  0
 30 31  1  0  0  0  0
 30 32  1  0  0  0  0
 30 33  1  0  0  0  0
 28 29  1  0  0  0  0
 28 30  1  0  0  0  0
M  END
$$$$
default_name
  -OEChem-01062215323D

 33 33  0     1  0  0  0  0  0999 V2000
   -4.0702   -3.8485    1.4554 H   0  0  0  0  0  0  0  0  0  0  0  0
   -4.0012   -2.9605    0.8284 C   0  0  0  0  0  0  0  0  0  0  0  0
   -4.7652   -2.2435    1.1234 H   0  0  0  0  0  0  0  0  0  0  0  0
   -4.1352   -3.2385   -0.2156 H   0  0  0  0  0  0  0  0  0  0  0  0
   -2.6362   -2.3395    1.0094 C   0  0  0  0  0  0  0  0  0  0  0  0
   -1.8292   -2.8395    1.7814 O   0  0  0  0  0  0  0  0  0  0  0  0
   -2.3832   -1.2445    0.2964 N   0  0  0  0  0  0  0  0  0  0  0  0
   -3.1102   -0.8685   -0.2946 H   0  0  0  0  0  0  0  0  0  0  0  0
   -1.1292   -0.4875    0.3524 C   0  0  1  0  0  0  0  0  0  0  0  0
   -0.7216   -0.5657    1.3610 H   0  0  0  0  0  0  0  0  0  0  0  0
   -0.1163   -1.1040   -0.6277 C   0  0  0  0  0  0  0  0  0  0  0  0
   -0.5713   -1.1627   -1.6173 H   0  0  0  0  0  0  0  0  0  0  0  0
    0.7486   -0.4429   -0.7044 H   0  0  0  0  0  0  0  0  0  0  0  0
    0.3476   -2.4947   -0.2396 C   0  0  0  0  0  0  0  0  0  0  0  0
    1.3569   -2.6633    0.7294 C   0  0  0  0  0  0  0  0  0  0  0  0
    1.8233   -1.7978    1.1815 H   0  0  0  0  0  0  0  0  0  0  0  0
    1.7559   -3.9577    1.1159 C   0  0  0  0  0  0  0  0  0  0  0  0
    2.5302   -4.0831    1.8571 H   0  0  0  0  0  0  0  0  0  0  0  0
    1.1403   -5.0871    0.5336 C   0  0  0  0  0  0  0  0  0  0  0  0
    1.5158   -6.3395    0.9017 O   0  0  0  0  0  0  0  0  0  0  0  0
    2.2684   -6.3312    1.4946 H   0  0  0  0  0  0  0  0  0  0  0  0
    0.1270   -4.9164   -0.4323 C   0  0  0  0  0  0  0  0  0  0  0  0
   -0.3331   -5.7878   -0.8735 H   0  0  0  0  0  0  0  0  0  0  0  0
   -0.2664   -3.6214   -0.8199 C   0  0  0  0  0  0  0  0  0  0  0  0
   -1.0384   -3.4911   -1.5688 H   0  0  0  0  0  0  0  0  0  0  0  0
   -1.3723    1.0026    0.0599 C   0  0  0  0  0  0  0  0  0  0  0  0
   -1.3528    1.8252    0.9758 O   0  0  0  0  0  0  0  0  0  0  0  0
   -1.6038    1.3500   -1.2124 N   0  0  0  0  0  0  0  0  0  0  0  0
   -1.6615    0.6085   -1.8953 H   0  0  0  0  0  0  0  0  0  0  0  0
   -1.8549    2.7177   -1.6610 C   0  0  0  0  0  0  0  0  0  0  0  0
   -1.0796    3.3823   -1.2760 H   0  0  0  0  0  0  0  0  0  0  0  0
   -1.8567    2.7612   -2.7514 H   0  0  0  0  0  0  0  0  0  0  0  0
   -2.8228    3.0557   -1.2851 H   0  0  0  0  0  0  0  0  0  0  0  0
  5  6  2  0  0  0  0
  5  7  1  0  0  0  0
  2  3  1  0  0  0  0
  2  4  1  0  0  0  0
  2  5  1  0  0  0  0
  1  2  1  0  0  0  0
 26 27  2  0  0  0  0
 26 28  1  0  0  0  0
 24 25  1  0  0  0  0
 22 23  1  0  0  0  0
 22 24  2  0  0  0  0
 20 21  1  0  0  0  0
 19 20  1  0  0  0  0
 19 22  1  0  0  0  0
 17 18  1  0  0  0  0
 17 19  2  0  0  0  0
 15 16  1  0  0  0  0
 15 17  1  0  0  0  0
 14 15  2  0  0  0  0
 14 24  1  0  0  0  0
 11 12  1  0  0  0  0
 11 13  1  0  0  0  0
 11 14  1  0  0  0  0
  9 10  1  0  0  0  0
  9 11  1  0  0  0  0
  9 26  1  0  0  0  0
  7  8  1  0  0  0  0
  7  9  1  0  0  0  0
 30 31  1  0  0  0  0
 30 32  1  0  0  0  0
 30 33  1  0  0  0  0
 28 29  1  0  0  0  0
 28 30  1  0  0  0  0
M  END
$$$$
default_name
  -OEChem-01062215323D

 33 33  0     1  0  0  0  0  0999 V2000
   -4.0702   -3.8485    1.4554 H   0  0  0  0  0  0  0  0  0  0  0  0
   -4.0012   -2.9605    0.8284 C   0  0  0  0  0  0  0  0  0  0  0  0
   -4.7652   -2.2435    1.1234 H   0  0  0  0  0  0  0  0  0  0  0  0
   -4.1352   -3.2385   -0.2156 H   0  0  0  0  0  0  0  0  0  0  0  0
   -2.6362   -2.3395    1.0094 C   0  0  0  0  0  0  0  0  0  0  0  0
   -1.8292   -2.8395    1.7814 O   0  0  0  0  0  0  0  0  0  0  0  0
   -2.3832   -1.2445    0.2964 N   0  0  0  0  0  0  0  0  0  0  0  0
   -3.1102   -0.8685   -0.2946 H   0  0  0  0  0  0  0  0  0  0  0  0
   -1.1292   -0.4875    0.3524 C   0  0  1  0  0  0  0  0  0  0  0  0
   -0.7216   -0.5657    1.3610 H   0  0  0  0  0  0  0  0  0  0  0  0
   -0.1163   -1.1040   -0.6277 C   0  0  0  0  0  0  0  0  0  0  0  0
   -0.5713   -1.1627   -1.6173 H   0  0  0  0  0  0  0  0  0  0  0  0
    0.7486   -0.4429   -0.7044 H   0  0  0  0  0  0  0  0  0  0  0  0
    0.3476   -2.4947   -0.2396 C   0  0  0  0  0  0  0  0  0  0  0  0
    1.3569   -2.6633    0.7294 C   0  0  0  0  0  0  0  0  0  0  0  0
    1.8233   -1.7978    1.1815 H   0  0  0  0  0  0  0  0  0  0  0  0
    1.7559   -3.9577    1.1159 C   0  0  0  0  0  0  0  0  0  0  0  0
    2.5302   -4.0831    1.8571 H   0  0  0  0  0  0  0  0  0  0  0  0
    1.1403   -5.0871    0.5336 C   0  0  0  0  0  0  0  0  0  0  0  0
    1.5158   -6.3395    0.9017 O   0  0  0  0  0  0  0  0  0  0  0  0
    2.2684   -6.3312    1.4946 H   0  0  0  0  0  0  0  0  0  0  0  0
    0.1270   -4.9164   -0.4323 C   0  0  0  0  0  0  0  0  0  0  0  0
   -0.3331   -5.7878   -0.8735 H   0  0  0  0  0  0  0  0  0  0  0  0
   -0.2664   -3.6214   -0.8199 C   0  0  0  0  0  0  0  0  0  0  0  0
   -1.0384   -3.4911   -1.5688 H   0  0  0  0  0  0  0  0  0  0  0  0
   -1.3723    1.0026    0.0599 C   0  0  0  0  0  0  0  0  0  0  0  0
   -1.0866    1.8542    0.9021 O   0  0  0  0  0  0  0  0  0  0  0  0
   -1.9012    1.3179   -1.1292 N   0  0  0  0  0  0  0  0  0  0  0  0
   -2.1616    0.5574   -1.7402 H   0  0  0  0  0  0  0  0  0  0  0  0
   -2.1967    2.6808   -1.5649 C   0  0  0  0  0  0  0  0  0  0  0  0
   -1.3209    3.3151   -1.4175 H   0  0  0  0  0  0  0  0  0  0  0  0
   -2.4711    2.6866   -2.6210 H   0  0  0  0  0  0  0  0  0  0  0  0
   -3.0229    3.0838   -0.9755 H   0  0  0  0  0  0  0  0  0  0  0  0
  5  6  2  0  0  0  0
  5  7  1  0  0  0  0
  2  3  1  0  0  0  0
  2  4  1  0  0  0  0
  2  5  1  0  0  0  0
  1  2  1  0  0  0  0
 26 27  2  0  0  0  0
 26 28  1  0  0  0  0
 24 25  1  0  0  0  0
 22 23  1  0  0  0  0
 22 24  2  0  0  0  0
 20 21  1  0  0  0  0
 19 20  1  0  0  0  0
 19 22  1  0  0  0  0
 17 18  1  0  0  0  0
 17 19  2  0  0  0  0
 15 16  1  0  0  0  0
 15 17  1  0  0  0  0
 14 15  2  0  0  0  0
 14 24  1  0  0  0  0
 11 12  1  0  0  0  0
 11 13  1  0  0  0  0
 11 14  1  0  0  0  0
  9 10  1  0  0  0  0
  9 11  1  0  0  0  0
  9 26  1  0  0  0  0
  7  8  1  0  0  0  0
  7  9  1  0  0  0  0
 30 31  1  0  0  0  0
 30 32  1  0  0  0  0
 30 33  1  0  0  0  0
 28 29  1  0  0  0  0
 28 30  1  0  0  0  0
M  END
$$$$
default_name
  -OEChem-01062215323D

 33 33  0     1  0  0  0  0  0999 V2000
   -4.0702   -3.8485    1.4554 H   0  0  0  0  0  0  0  0  0  0  0  0
   -4.0012   -2.9605    0.8284 C   0  0  0  0  0  0  0  0  0  0  0  0
   -4.7652   -2.2435    1.1234 H   0  0  0  0  0  0  0  0  0  0  0  0
   -4.1352   -3.2385   -0.2156 H   0  0  0  0  0  0  0  0  0  0  0  0
   -2.6362   -2.3395    1.0094 C   0  0  0  0  0  0  0  0  0  0  0  0
   -1.8292   -2.8395    1.7814 O   0  0  0  0  0  0  0  0  0  0  0  0
   -2.3832   -1.2445    0.2964 N   0  0  0  0  0  0  0  0  0  0  0  0
   -3.1102   -0.8685   -0.2946 H   0  0  0  0  0  0  0  0  0  0  0  0
   -1.1292   -0.4875    0.3524 C   0  0  1  0  0  0  0  0  0  0  0  0
   -0.7216   -0.5657    1.3610 H   0  0  0  0  0  0  0  0  0  0  0  0
   -0.1163   -1.1040   -0.6277 C   0  0  0  0  0  0  0  0  0  0  0  0
   -0.5713   -1.1627   -1.6173 H   0  0  0  0  0  0  0  0  0  0  0  0
    0.7486   -0.4429   -0.7044 H   0  0  0  0  0  0  0  0  0  0  0  0
    0.3476   -2.4947   -0.2396 C   0  0  0  0  0  0  0  0  0  0  0  0
    1.3569   -2.6633    0.7294 C   0  0  0  0  0  0  0  0  0  0  0  0
    1.8233   -1.7978    1.1815 H   0  0  0  0  0  0  0  0  0  0  0  0
    1.7559   -3.9577    1.1159 C   0  0  0  0  0  0  0  0  0  0  0  0
    2.5302   -4.0831    1.8571 H   0  0  0  0  0  0  0  0  0  0  0  0
    1.1403   -5.0871    0.5336 C   0  0  0  0  0  0  0  0  0  0  0  0
    1.5158   -6.3395    0.9017 O   0  0  0  0  0  0  0  0  0  0  0  0
    2.2684   -6.3312    1.4946 H   0  0  0  0  0  0  0  0  0  0  0  0
    0.1270   -4.9164   -0.4323 C   0  0  0  0  0  0  0  0  0  0  0  0
   -0.3331   -5.7878   -0.8735 H   0  0  0  0  0  0  0  0  0  0  0  0
   -0.2664   -3.6214   -0.8199 C   0  0  0  0  0  0  0  0  0  0  0  0
   -1.0384   -3.4911   -1.5688 H   0  0  0  0  0  0  0  0  0  0  0  0
   -1.3723    1.0026    0.0599 C   0  0  0  0  0  0  0  0  0  0  0  0
   -0.8466    1.8660    0.7629 O   0  0  0  0  0  0  0  0  0  0  0  0
   -2.1691    1.3048   -0.9730 N   0  0  0  0  0  0  0  0  0  0  0  0
   -2.6082    0.5390   -1.4630 H   0  0  0  0  0  0  0  0  0  0  0  0
   -2.5046    2.6659   -1.3848 C   0  0  0  0  0  0  0  0  0  0  0  0
   -1.5928    3.2564   -1.4909 H   0  0  0  0  0  0  0  0  0  0  0  0
   -3.0355    2.6501   -2.3380 H   0  0  0  0  0  0  0  0  0  0  0  0
   -3.1371    3.1335   -0.6275 H   0  0  0  0  0  0  0  0  0  0  0  0
  5  6  2  0  0  0  0
  5  7  1  0  0  0  0
  2  3  1  0  0  0  0
  2  4  1  0  0  0  0
  2  5  1  0  0  0  0
  1  2  1  0  0  0  0
 26 27  2  0  0  0  0
 26 28  1  0  0  0  0
 24 25  1  0  0  0  0
 22 23  1  0  0  0  0
 22 24  2  0  0  0  0
 20 21  1  0  0  0  0
 19 20  1  0  0  0  0
 19 22  1  0  0  0  0
 17 18  1  0  0  0  0
 17 19  2  0  0  0  0
 15 16  1  0  0  0  0
 15 17  1  0  0  0  0
 14 15  2  0  0  0  0
 14 24  1  0  0  0  0
 11 12  1  0  0  0  0
 11 13  1  0  0  0  0
 11 14  1  0  0  0  0
  9 10  1  0  0  0  0
  9 11  1  0  0  0  0
  9 26  1  0  0  0  0
  7  8  1  0  0  0  0
  7  9  1  0  0  0  0
 30 31  1  0  0  0  0
 30 32  1  0  0  0  0
 30 33  1  0  0  0  0
 28 29  1  0  0  0  0
 28 30  1  0  0  0  0
M  END
$$$$
default_name
  -OEChem-01062215323D

 33 33  0     1  0  0  0  0  0999 V2000
   -4.0702   -3.8485    1.4554 H   0  0  0  0  0  0  0  0  0  0  0  0
   -4.0012   -2.9605    0.8284 C   0  0  0  0  0  0  0  0  0  0  0  0
   -4.7652   -2.2435    1.1234 H   0  0  0  0  0  0  0  0  0  0  0  0
   -4.1352   -3.2385   -0.2156 H   0  0  0  0  0  0  0  0  0  0  0  0
   -2.6362   -2.3395    1.0094 C   0  0  0  0  0  0  0  0  0  0  0  0
   -1.8292   -2.8395    1.7814 O   0  0  0  0  0  0  0  0  0  0  0  0
   -2.3832   -1.2445    0.2964 N   0  0  0  0  0  0  0  0  0  0  0  0
   -3.1102   -0.8685   -0.2946 H   0  0  0  0  0  0  0  0  0  0  0  0
   -1.1292   -0.4875    0.3524 C   0  0  1  0  0  0  0  0  0  0  0  0
   -0.7216   -0.5657    1.3610 H   0  0  0  0  0  0  0  0  0  0  0  0
   -0.1163   -1.1040   -0.6277 C   0  0  0  0  0  0  0  0  0  0  0  0
   -0.5713   -1.1627   -1.6173 H   0  0  0  0  0  0  0  0  0  0  0  0
    0.7486   -0.4429   -0.7044 H   0  0  0  0  0  0  0  0  0  0  0  0
    0.3476   -2.4947   -0.2396 C   0  0  0  0  0  0  0  0  0  0  0  0
    1.3569   -2.6633    0.7294 C   0  0  0  0  0  0  0  0  0  0  0  0
    1.8233   -1.7978    1.1815 H   0  0  0  0  0  0  0  0  0  0  0  0
    1.7559   -3.9577    1.1159 C   0  0  0  0  0  0  0  0  0  0  0  0
    2.5302   -4.0831    1.8571 H   0  0  0  0  0  0  0  0  0  0  0  0
    1.1403   -5.0871    0.5336 C   0  0  0  0  0  0  0  0  0  0  0  0
    1.5158   -6.3395    0.9017 O   0  0  0  0  0  0  0  0  0  0  0  0
    2.2684   -6.3312    1.4946 H   0  0  0  0  0  0  0  0  0  0  0  0
    0.1270   -4.9164   -0.4323 C   0  0  0  0  0  0  0  0  0  0  0  0
   -0.3331   -5.7878   -0.8735 H   0  0  0  0  0  0  0  0  0  0  0  0
   -0.2664   -3.6214   -0.8199 C   0  0  0  0  0  0  0  0  0  0  0  0
   -1.0384   -3.4911   -1.5688 H   0  0  0  0  0  0  0  0  0  0  0  0
   -1.3723    1.0026    0.0599 C   0  0  0  0  0  0  0  0  0  0  0  0
   -0.6490    1.8599    0.5678 O   0  0  0  0  0  0  0  0  0  0  0  0
   -2.3894    1.3118   -0.7543 N   0  0  0  0  0  0  0  0  0  0  0  0
   -2.9710    0.5545   -1.0824 H   0  0  0  0  0  0  0  0  0  0  0  0
   -2.7575    2.6741   -1.1331 C   0  0  0  0  0  0  0  0  0  0  0  0
   -1.8768    3.2100   -1.4913 H   0  0  0  0  0  0  0  0  0  0  0  0
   -3.5115    2.6542   -1.9216 H   0  0  0  0  0  0  0  0  0  0  0  0
   -3.1578    3.2014   -0.2647 H   0  0  0  0  0  0  0  0  0  0  0  0
  5  6  2  0  0  0  0
  5  7  1  0  0  0  0
  2  3  1  0  0  0  0
  2  4  1  0  0  0  0
  2  5  1  0  0  0  0
  1  2  1  0  0  0  0
 26 27  2  0  0  0  0
 26 28  1  0  0  0  0
 24 25  1  0  0  0  0
 22 23  1  0  0  0  0
 22 24  2  0  0  0  0
 20 21  1  0  0  0  0
 19 20  1  0  0  0  0
 19 22  1  0  0  0  0
 17 18  1  0  0  0  0
 17 19  2  0  0  0  0
 15 16  1  0  0  0  0
 15 17  1  0  0  0  0
 14 15  2  0  0  0  0
 14 24  1  0  0  0  0
 11 12  1  0  0  0  0
 11 13  1  0  0  0  0
 11 14  1  0  0  0  0
  9 10  1  0  0  0  0
  9 11  1  0  0  0  0
  9 26  1  0  0  0  0
  7  8  1  0  0  0  0
  7  9  1  0  0  0  0
 30 31  1  0  0  0  0
 30 32  1  0  0  0  0
 30 33  1  0  0  0  0
 28 29  1  0  0  0  0
 28 30  1  0  0  0  0
M  END
$$$$
default_name
  -OEChem-01062215323D

 33 33  0     1  0  0  0  0  0999 V2000
   -4.0702   -3.8485    1.4554 H   0  0  0  0  0  0  0  0  0  0  0  0
   -4.0012   -2.9605    0.8284 C   0  0  0  0  0  0  0  0  0  0  0  0
   -4.7652   -2.2435    1.1234 H   0  0  0  0  0  0  0  0  0  0  0  0
   -4.1352   -3.2385   -0.2156 H   0  0  0  0  0  0  0  0  0  0  0  0
   -2.6362   -2.3395    1.0094 C   0  0  0  0  0  0  0  0  0  0  0  0
   -1.8292   -2.8395    1.7814 O   0  0  0  0  0  0  0  0  0  0  0  0
   -2.3832   -1.2445    0.2964 N   0  0  0  0  0  0  0  0  0  0  0  0
   -3.1102   -0.8685   -0.2946 H   0  0  0  0  0  0  0  0  0  0  0  0
   -1.1292   -0.4875    0.3524 C   0  0  1  0  0  0  0  0  0  0  0  0
   -0.7216   -0.5657    1.3610 H   0  0  0  0  0  0  0  0  0  0  0  0
   -0.1163   -1.1040   -0.6277 C   0  0  0  0  0  0  0  0  0  0  0  0
   -0.5713   -1.1627   -1.6173 H   0  0  0  0  0  0  0  0  0  0  0  0
    0.7486   -0.4429   -0.7044 H   0  0  0  0  0  0  0  0  0  0  0  0
    0.3476   -2.4947   -0.2396 C   0  0  0  0  0  0  0  0  0  0  0  0
    1.3569   -2.6633    0.7294 C   0  0  0  0  0  0  0  0  0  0  0  0
    1.8233   -1.7978    1.1815 H   0  0  0  0  0  0  0  0  0  0  0  0
    1.7559   -3.9577    1.1159 C   0  0  0  0  0  0  0  0  0  0  0  0
    2.5302   -4.0831    1.8571 H   0  0  0  0  0  0  0  0  0  0  0  0
    1.1403   -5.0871    0.5336 C   0  0  0  0  0  0  0  0  0  0  0  0
    1.5158   -6.3395    0.9017 O   0  0  0  0  0  0  0  0  0  0  0  0
    2.2684   -6.3312    1.4946 H   0  0  0  0  0  0  0  0  0  0  0  0
    0.1270   -4.9164   -0.4323 C   0  0  0  0  0  0  0  0  0  0  0  0
   -0.3331   -5.7878   -0.8735 H   0  0  0  0  0  0  0  0  0  0  0  0
   -0.2664   -3.6214   -0.8199 C   0  0  0  0  0  0  0  0  0  0  0  0
   -1.0384   -3.4911   -1.5688 H   0  0  0  0  0  0  0  0  0  0  0  0
   -1.3723    1.0026    0.0599 C   0  0  0  0  0  0  0  0  0  0  0  0
   -0.5074    1.8363    0.3300 O   0  0  0  0  0  0  0  0  0  0  0  0
   -2.5470    1.3384   -0.4881 N   0  0  0  0  0  0  0  0  0  0  0  0
   -3.2253    0.6029   -0.6245 H   0  0  0  0  0  0  0  0  0  0  0  0
   -2.9383    2.7047   -0.8268 C   0  0  0  0  0  0  0  0  0  0  0  0
   -2.1534    3.1792   -1.4185 H   0  0  0  0  0  0  0  0  0  0  0  0
   -3.8667    2.6987   -1.4002 H   0  0  0  0  0  0  0  0  0  0  0  0
   -3.0834    3.2828    0.0882 H   0  0  0  0  0  0  0  0  0  0  0  0
  5  6  2  0  0  0  0
  5  7  1  0  0  0  0
  2  3  1  0  0  0  0
  2  4  1  0  0  0  0
  2  5  1  0  0  0  0
  1  2  1  0  0  0  0
 26 27  2  0  0  0  0
 26 28  1  0  0  0  0
 24 25  1  0  0  0  0
 22 23  1  0  0  0  0
 22 24  2  0  0  0  0
 20 21  1  0  0  0  0
 19 20  1  0  0  0  0
 19 22  1  0  0  0  0
 17 18  1  0  0  0  0
 17 19  2  0  0  0  0
 15 16  1  0  0  0  0
 15 17  1  0  0  0  0
 14 15  2  0  0  0  0
 14 24  1  0  0  0  0
 11 12  1  0  0  0  0
 11 13  1  0  0  0  0
 11 14  1  0  0  0  0
  9 10  1  0  0  0  0
  9 11  1  0  0  0  0
  9 26  1  0  0  0  0
  7  8  1  0  0  0  0
  7  9  1  0  0  0  0
 30 31  1  0  0  0  0
 30 32  1  0  0  0  0
 30 33  1  0  0  0  0
 28 29  1  0  0  0  0
 28 30  1  0  0  0  0
M  END
$$$$
default_name
  -OEChem-01062215323D

 33 33  0     1  0  0  0  0  0999 V2000
   -4.0702   -3.8485    1.4554 H   0  0  0  0  0  0  0  0  0  0  0  0
   -4.0012   -2.9605    0.8284 C   0  0  0  0  0  0  0  0  0  0  0  0
   -4.7652   -2.2435    1.1234 H   0  0  0  0  0  0  0  0  0  0  0  0
   -4.1352   -3.2385   -0.2156 H   0  0  0  0  0  0  0  0  0  0  0  0
   -2.6362   -2.3395    1.0094 C   0  0  0  0  0  0  0  0  0  0  0  0
   -1.8292   -2.8395    1.7814 O   0  0  0  0  0  0  0  0  0  0  0  0
   -2.3832   -1.2445    0.2964 N   0  0  0  0  0  0  0  0  0  0  0  0
   -3.1102   -0.8685   -0.2946 H   0  0  0  0  0  0  0  0  0  0  0  0
   -1.1292   -0.4875    0.3524 C   0  0  1  0  0  0  0  0  0  0  0  0
   -0.7216   -0.5657    1.3610 H   0  0  0  0  0  0  0  0  0  0  0  0
   -0.1163   -1.1040   -0.6277 C   0  0  0  0  0  0  0  0  0  0  0  0
   -0.5713   -1.1627   -1.6173 H   0  0  0  0  0  0  0  0  0  0  0  0
    0.7486   -0.4429   -0.7044 H   0  0  0  0  0  0  0  0  0  0  0  0
    0.3476   -2.4947   -0.2396 C   0  0  0  0  0  0  0  0  0  0  0  0
    1.3569   -2.6633    0.7294 C   0  0  0  0  0  0  0  0  0  0  0  0
    1.8233   -1.7978    1.1815 H   0  0  0  0  0  0  0  0  0  0  0  0
    1.7559   -3.9577    1.1159 C   0  0  0  0  0  0  0  0  0  0  0  0
    2.5302   -4.0831    1.8571 H   0  0  0  0  0  0  0  0  0  0  0  0
    1.1403   -5.0871    0.5336 C   0  0  0  0  0  0  0  0  0  0  0  0
    1.5158   -6.3395    0.9017 O   0  0  0  0  0  0  0  0  0  0  0  0
    2.2684   -6.3312    1.4946 H   0  0  0  0  0  0  0  0  0  0  0  0
    0.1270   -4.9164   -0.4323 C   0  0  0  0  0  0  0  0  0  0  0  0
   -0.3331   -5.7878   -0.8735 H   0  0  0  0  0  0  0  0  0  0  0  0
   -0.2664   -3.6214   -0.8199 C   0  0  0  0  0  0  0  0  0  0  0  0
   -1.0384   -3.4911   -1.5688 H   0  0  0  0  0  0  0  0  0  0  0  0
   -1.3723    1.0026    0.0599 C   0  0  0  0  0  0  0  0  0  0  0  0
   -0.4314    1.7968    0.0658 O   0  0  0  0  0  0  0  0  0  0  0  0
   -2.6312    1.3827   -0.1926 N   0  0  0  0  0  0  0  0  0  0  0  0
   -3.3536    0.6810   -0.1203 H   0  0  0  0  0  0  0  0  0  0  0  0
   -3.0346    2.7558   -0.4869 C   0  0  0  0  0  0  0  0  0  0  0  0
   -2.4039    3.1660   -1.2775 H   0  0  0  0  0  0  0  0  0  0  0  0
   -4.0768    2.7804   -0.8093 H   0  0  0  0  0  0  0  0  0  0  0  0
   -2.9190    3.3722    0.4070 H   0  0  0  0  0  0  0  0  0  0  0  0
  5  6  2  0  0  0  0
  5  7  1  0  0  0  0
  2  3  1  0  0  0  0
  2  4  1  0  0  0  0
  2  5  1  0  0  0  0
  1  2  1  0  0  0  0
 26 27  2  0  0  0  0
 26 28  1  0  0  0  0
 24 25  1  0  0  0  0
 22 23  1  0  0  0  0
 22 24  2  0  0  0  0
 20 21  1  0  0  0  0
 19 20  1  0  0  0  0
 19 22  1  0  0  0  0
 17 18  1  0  0  0  0
 17 19  2  0  0  0  0
 15 16  1  0  0  0  0
 15 17  1  0  0  0  0
 14 15  2  0  0  0  0
 14 24  1  0  0  0  0
 11 12  1  0  0  0  0
 11 13  1  0  0  0  0
 11 14  1  0  0  0  0
  9 10  1  0  0  0  0
  9 11  1  0  0  0  0
  9 26  1  0  0  0  0
  7  8  1  0  0  0  0
  7  9  1  0  0  0  0
 30 31  1  0  0  0  0
 30 32  1  0  0  0  0
 30 33  1  0  0  0  0
 28 29  1  0  0  0  0
 28 30  1  0  0  0  0
M  END
$$$$
default_name
  -OEChem-01062215323D

 33 33  0     1  0  0  0  0  0999 V2000
   -4.0702   -3.8485    1.4554 H   0  0  0  0  0  0  0  0  0  0  0  0
   -4.0012   -2.9605    0.8284 C   0  0  0  0  0  0  0  0  0  0  0  0
   -4.7652   -2.2435    1.1234 H   0  0  0  0  0  0  0  0  0  0  0  0
   -4.1352   -3.2385   -0.2156 H   0  0  0  0  0  0  0  0  0  0  0  0
   -2.6362   -2.3395    1.0094 C   0  0  0  0  0  0  0  0  0  0  0  0
   -1.8292   -2.8395    1.7814 O   0  0  0  0  0  0  0  0  0  0  0  0
   -2.3832   -1.2445    0.2964 N   0  0  0  0  0  0  0  0  0  0  0  0
   -3.1102   -0.8685   -0.2946 H   0  0  0  0  0  0  0  0  0  0  0  0
   -1.1292   -0.4875    0.3524 C   0  0  1  0  0  0  0  0  0  0  0  0
   -0.7216   -0.5657    1.3610 H   0  0  0  0  0  0  0  0  0  0  0  0
   -0.1163   -1.1040   -0.6277 C   0  0  0  0  0  0  0  0  0  0  0  0
   -0.5713   -1.1627   -1.6173 H   0  0  0  0  0  0  0  0  0  0  0  0
    0.7486   -0.4429   -0.7044 H   0  0  0  0  0  0  0  0  0  0  0  0
    0.3476   -2.4947   -0.2396 C   0  0  0  0  0  0  0  0  0  0  0  0
    1.3569   -2.6633    0.7294 C   0  0  0  0  0  0  0  0  0  0  0  0
    1.8233   -1.7978    1.1815 H   0  0  0  0  0  0  0  0  0  0  0  0
    1.7559   -3.9577    1.1159 C   0  0  0  0  0  0  0  0  0  0  0  0
    2.5302   -4.0831    1.8571 H   0  0  0  0  0  0  0  0  0  0  0  0
    1.1403   -5.0871    0.5336 C   0  0  0  0  0  0  0  0  0  0  0  0
    1.5158   -6.3395    0.9017 O   0  0  0  0  0  0  0  0  0  0  0  0
    2.2684   -6.3312    1.4946 H   0  0  0  0  0  0  0  0  0  0  0  0
    0.1270   -4.9164   -0.4323 C   0  0  0  0  0  0  0  0  0  0  0  0
   -0.3331   -5.7878   -0.8735 H   0  0  0  0  0  0  0  0  0  0  0  0
   -0.2664   -3.6214   -0.8199 C   0  0  0  0  0  0  0  0  0  0  0  0
   -1.0384   -3.4911   -1.5688 H   0  0  0  0  0  0  0  0  0  0  0  0
   -1.3723    1.0026    0.0599 C   0  0  0  0  0  0  0  0  0  0  0  0
   -0.4262    1.7442   -0.2069 O   0  0  0  0  0  0  0  0  0  0  0  0
   -2.6362    1.4417    0.1122 N   0  0  0  0  0  0  0  0  0  0  0  0
   -3.3473    0.7833    0.3956 H   0  0  0  0  0  0  0  0  0  0  0  0
   -3.0399    2.8237   -0.1365 C   0  0  0  0  0  0  0  0  0  0  0  0
   -2.6112    3.1713   -1.0780 H   0  0  0  0  0  0  0  0  0  0  0  0
   -4.1276    2.8939   -0.1892 H   0  0  0  0  0  0  0  0  0  0  0  0
   -2.6759    3.4635    0.6701 H   0  0  0  0  0  0  0  0  0  0  0  0
  5  6  2  0  0  0  0
  5  7  1  0  0  0  0
  2  3  1  0  0  0  0
  2  4  1  0  0  0  0
  2  5  1  0  0  0  0
  1  2  1  0  0  0  0
 26 27  2  0  0  0  0
 26 28  1  0  0  0  0
 24 25  1  0  0  0  0
 22 23  1  0  0  0  0
 22 24  2  0  0  0  0
 20 21  1  0  0  0  0
 19 20  1  0  0  0  0
 19 22  1  0  0  0  0
 17 18  1  0  0  0  0
 17 19  2  0  0  0  0
 15 16  1  0  0  0  0
 15 17  1  0  0  0  0
 14 15  2  0  0  0  0
 14 24  1  0  0  0  0
 11 12  1  0  0  0  0
 11 13  1  0  0  0  0
 11 14  1  0  0  0  0
  9 10  1  0  0  0  0
  9 11  1  0  0  0  0
  9 26  1  0  0  0  0
  7  8  1  0  0  0  0
  7  9  1  0  0  0  0
 30 31  1  0  0  0  0
 30 32  1  0  0  0  0
 30 33  1  0  0  0  0
 28 29  1  0  0  0  0
 28 30  1  0  0  0  0
M  END
$$$$
default_name
  -OEChem-01062215323D

 33 33  0     1  0  0  0  0  0999 V2000
   -4.0702   -3.8485    1.4554 H   0  0  0  0  0  0  0  0  0  0  0  0
   -4.0012   -2.9605    0.8284 C   0  0  0  0  0  0  0  0  0  0  0  0
   -4.7652   -2.2435    1.1234 H   0  0  0  0  0  0  0  0  0  0  0  0
   -4.1352   -3.2385   -0.2156 H   0  0  0  0  0  0  0  0  0  0  0  0
   -2.6362   -2.3395    1.0094 C   0  0  0  0  0  0  0  0  0  0  0  0
   -1.8292   -2.8395    1.7814 O   0  0  0  0  0  0  0  0  0  0  0  0
   -2.3832   -1.2445    0.2964 N   0  0  0  0  0  0  0  0  0  0  0  0
   -3.1102   -0.8685   -0.2946 H   0  0  0  0  0  0  0  0  0  0  0  0
   -1.1292   -0.4875    0.3524 C   0  0  1  0  0  0  0  0  0  0  0  0
   -0.7216   -0.5657    1.3610 H   0  0  0  0  0  0  0  0  0  0  0  0
   -0.1163   -1.1040   -0.6277 C   0  0  0  0  0  0  0  0  0  0  0  0
   -0.5713   -1.1627   -1.6173 H   0  0  0  0  0  0  0  0  0  0  0  0
    0.7486   -0.4429   -0.7044 H   0  0  0  0  0  0  0  0  0  0  0  0
    0.3476   -2.4947   -0.2396 C   0  0  0  0  0  0  0  0  0  0  0  0
    1.3569   -2.6633    0.7294 C   0  0  0  0  0  0  0  0  0  0  0  0
    1.8233   -1.7978    1.1815 H   0  0  0  0  0  0  0  0  0  0  0  0
    1.7559   -3.9577    1.1159 C   0  0  0  0  0  0  0  0  0  0  0  0
    2.5302   -4.0831    1.8571 H   0  0  0  0  0  0  0  0  0  0  0  0
    1.1403   -5.0871    0.5336 C   0  0  0  0  0  0  0  0  0  0  0  0
    1.5158   -6.3395    0.9017 O   0  0  0  0  0  0  0  0  0  0  0  0
    2.2684   -6.3312    1.4946 H   0  0  0  0  0  0  0  0  0  0  0  0
    0.1270   -4.9164   -0.4323 C   0  0  0  0  0  0  0  0  0  0  0  0
   -0.3331   -5.7878   -0.8735 H   0  0  0  0  0  0  0  0  0  0  0  0
   -0.2664   -3.6214   -0.8199 C   0  0  0  0  0  0  0  0  0  0  0  0
   -1.0384   -3.4911   -1.5688 H   0  0  0  0  0  0  0  0  0  0  0  0
   -1.3723    1.0026    0.0599 C   0  0  0  0  0  0  0  0  0  0  0  0
   -0.4922    1.6819   -0.4694 O   0  0  0  0  0  0  0  0  0  0  0  0
   -2.5617    1.5114    0.4054 N   0  0  0  0  0  0  0  0  0  0  0  0
   -3.2068    0.9029    0.8882 H   0  0  0  0  0  0  0  0  0  0  0  0
   -2.9538    2.9039    0.2005 C   0  0  0  0  0  0  0  0  0  0  0  0
   -2.7611    3.1949   -0.8336 H   0  0  0  0  0  0  0  0  0  0  0  0
   -4.0155    3.0314    0.4179 H   0  0  0  0  0  0  0  0  0  0  0  0
   -2.3706    3.5505    0.8595 H   0  0  0  0  0  0  0  0  0  0  0  0
  5  6  2  0  0  0  0
  5  7  1  0  0  0  0
  2  3  1  0  0  0  0
  2  4  1  0  0  0  0
  2  5  1  0  0  0  0
  1  2  1  0  0  0  0
 26 27  2  0  0  0  0
 26 28  1  0  0  0  0
 24 25  1  0  0  0  0
 22 23  1  0  0  0  0
 22 24  2  0  0  0  0
 20 21  1  0  0  0  0
 19 20  1  0  0  0  0
 19 22  1  0  0  0  0
 17 18  1  0  0  0  0
 17 19  2  0  0  0  0
 15 16  1  0  0  0  0
 15 17  1  0  0  0  0
 14 15  2  0  0  0  0
 14 24  1  0  0  0  0
 11 12  1  0  0  0  0
 11 13  1  0  0  0  0
 11 14  1  0  0  0  0
  9 10  1  0  0  0  0
  9 11  1  0  0  0  0
  9 26  1  0  0  0  0
  7  8  1  0  0  0  0
  7  9  1  0  0  0  0
 30 31  1  0  0  0  0
 30 32  1  0  0  0  0
 30 33  1  0  0  0  0
 28 29  1  0  0  0  0
 28 30  1  0  0  0  0
M  END
$$$$
default_name
  -OEChem-01062215323D

 33 33  0     1  0  0  0  0  0999 V2000
   -4.0702   -3.8485    1.4554 H   0  0  0  0  0  0  0  0  0  0  0  0
   -4.0012   -2.9605    0.8284 C   0  0  0  0  0  0  0  0  0  0  0  0
   -4.7652   -2.2435    1.1234 H   0  0  0  0  0  0  0  0  0  0  0  0
   -4.1352   -3.2385   -0.2156 H   0  0  0  0  0  0  0  0  0  0  0  0
   -2.6362   -2.3395    1.0094 C   0  0  0  0  0  0  0  0  0  0  0  0
   -1.8292   -2.8395    1.7814 O   0  0  0  0  0  0  0  0  0  0  0  0
   -2.3832   -1.2445    0.2964 N   0  0  0  0  0  0  0  0  0  0  0  0
   -3.1102   -0.8685   -0.2946 H   0  0  0  0  0  0  0  0  0  0  0  0
   -1.1292   -0.4875    0.3524 C   0  0  1  0  0  0  0  0  0  0  0  0
   -0.7216   -0.5657    1.3610 H   0  0  0  0  0  0  0  0  0  0  0  0
   -0.1163   -1.1040   -0.6277 C   0  0  0  0  0  0  0  0  0  0  0  0
   -0.5713   -1.1627   -1.6173 H   0  0  0  0  0  0  0  0  0  0  0  0
    0.7486   -0.4429   -0.7044 H   0  0  0  0  0  0  0  0  0  0  0  0
    0.3476   -2.4947   -0.2396 C   0  0  0  0  0  0  0  0  0  0  0  0
    1.3569   -2.6633    0.7294 C   0  0  0  0  0  0  0  0  0  0  0  0
    1.8233   -1.7978    1.1815 H   0  0  0  0  0  0  0  0  0  0  0  0
    1.7559   -3.9577    1.1159 C   0  0  0  0  0  0  0  0  0  0  0  0
    2.5302   -4.0831    1.8571 H   0  0  0  0  0  0  0  0  0  0  0  0
    1.1403   -5.0871    0.5336 C   0  0  0  0  0  0  0  0  0  0  0  0
    1.5158   -6.3395    0.9017 O   0  0  0  0  0  0  0  0  0  0  0  0
    2.2684   -6.3312    1.4946 H   0  0  0  0  0  0  0  0  0  0  0  0
    0.1270   -4.9164   -0.4323 C   0  0  0  0  0  0  0  0  0  0  0  0
   -0.3331   -5.7878   -0.8735 H   0  0  0  0  0  0  0  0  0  0  0  0
   -0.2664   -3.6214   -0.8199 C   0  0  0  0  0  0  0  0  0  0  0  0
   -1.0384   -3.4911   -1.5688 H   0  0  0  0  0  0  0  0  0  0  0  0
   -1.3723    1.0026    0.0599 C   0  0  0  0  0  0  0  0  0  0  0  0
   -0.6248    1.6142   -0.7039 O   0  0  0  0  0  0  0  0  0  0  0  0
   -2.4128    1.5871    0.6671 N   0  0  0  0  0  0  0  0  0  0  0  0
   -2.9417    1.0317    1.3239 H   0  0  0  0  0  0  0  0  0  0  0  0
   -2.7821    2.9909    0.5011 C   0  0  0  0  0  0  0  0  0  0  0  0
   -2.8434    3.2350   -0.5608 H   0  0  0  0  0  0  0  0  0  0  0  0
   -3.7482    3.1835    0.9706 H   0  0  0  0  0  0  0  0  0  0  0  0
   -2.0240    3.6272    0.9624 H   0  0  0  0  0  0  0  0  0  0  0  0
  5  6  2  0  0  0  0
  5  7  1  0  0  0  0
  2  3  1  0  0  0  0
  2  4  1  0  0  0  0
  2  5  1  0  0  0  0
  1  2  1  0  0  0  0
 26 27  2  0  0  0  0
 26 28  1  0  0  0  0
 24 25  1  0  0  0  0
 22 23  1  0  0  0  0
 22 24  2  0  0  0  0
 20 21  1  0  0  0  0
 19 20  1  0  0  0  0
 19 22  1  0  0  0  0
 17 18  1  0  0  0  0
 17 19  2  0  0  0  0
 15 16  1  0  0  0  0
 15 17  1  0  0  0  0
 14 15  2  0  0  0  0
 14 24  1  0  0  0  0
 11 12  1  0  0  0  0
 11 13  1  0  0  0  0
 11 14  1  0  0  0  0
  9 10  1  0  0  0  0
  9 11  1  0  0  0  0
  9 26  1  0  0  0  0
  7  8  1  0  0  0  0
  7  9  1  0  0  0  0
 30 31  1  0  0  0  0
 30 32  1  0  0  0  0
 30 33  1  0  0  0  0
 28 29  1  0  0  0  0
 28 30  1  0  0  0  0
M  END
$$$$
default_name
  -OEChem-01062215323D

 33 33  0     1  0  0  0  0  0999 V2000
   -4.0702   -3.8485    1.4554 H   0  0  0  0  0  0  0  0  0  0  0  0
   -4.0012   -2.9605    0.8284 C   0  0  0  0  0  0  0  0  0  0  0  0
   -4.7652   -2.2435    1.1234 H   0  0  0  0  0  0  0  0  0  0  0  0
   -4.1352   -3.2385   -0.2156 H   0  0  0  0  0  0  0  0  0  0  0  0
   -2.6362   -2.3395    1.0094 C   0  0  0  0  0  0  0  0  0  0  0  0
   -1.8292   -2.8395    1.7814 O   0  0  0  0  0  0  0  0  0  0  0  0
   -2.3832   -1.2445    0.2964 N   0  0  0  0  0  0  0  0  0  0  0  0
   -3.1102   -0.8685   -0.2946 H   0  0  0  0  0  0  0  0  0  0  0  0
   -1.1292   -0.4875    0.3524 C   0  0  1  0  0  0  0  0  0  0  0  0
   -0.7216   -0.5657    1.3610 H   0  0  0  0  0  0  0  0  0  0  0  0
   -0.1163   -1.1040   -0.6277 C   0  0  0  0  0  0  0  0  0  0  0  0
   -0.5713   -1.1627   -1.6173 H   0  0  0  0  0  0  0  0  0  0  0  0
    0.7486   -0.4429   -0.7044 H   0  0  0  0  0  0  0  0  0  0  0  0
    0.3476   -2.4947   -0.2396 C   0  0  0  0  0  0  0  0  0  0  0  0
    1.3569   -2.6633    0.7294 C   0  0  0  0  0  0  0  0  0  0  0  0
    1.8233   -1.7978    1.1815 H   0  0  0  0  0  0  0  0  0  0  0  0
    1.7559   -3.9577    1.1159 C   0  0  0  0  0  0  0  0  0  0  0  0
    2.5302   -4.0831    1.8571 H   0  0  0  0  0  0  0  0  0  0  0  0
    1.1403   -5.0871    0.5336 C   0  0  0  0  0  0  0  0  0  0  0  0
    1.5158   -6.3395    0.9017 O   0  0  0  0  0  0  0  0  0  0  0  0
    2.2684   -6.3312    1.4946 H   0  0  0  0  0  0  0  0  0  0  0  0
    0.1270   -4.9164   -0.4323 C   0  0  0  0  0  0  0  0  0  0  0  0
   -0.3331   -5.7878   -0.8735 H   0  0  0  0  0  0  0  0  0  0  0  0
   -0.2664   -3.6214   -0.8199 C   0  0  0  0  0  0  0  0  0  0  0  0
   -1.0384   -3.4911   -1.5688 H   0  0  0  0  0  0  0  0  0  0  0  0
   -1.3723    1.0026    0.0599 C   0  0  0  0  0  0  0  0  0  0  0  0
   -0.8150    1.5458   -0.8944 O   0  0  0  0  0  0  0  0  0  0  0  0
   -2.1995    1.6636    0.8795 N   0  0  0  0  0  0  0  0  0  0  0  0
   -2.5700    1.1609    1.6729 H   0  0  0  0  0  0  0  0  0  0  0  0
   -2.5367    3.0788    0.7449 C   0  0  0  0  0  0  0  0  0  0  0  0
   -2.8526    3.2889   -0.2784 H   0  0  0  0  0  0  0  0  0  0  0  0
   -3.3440    3.3398    1.4312 H   0  0  0  0  0  0  0  0  0  0  0  0
   -1.6595    3.6885    0.9716 H   0  0  0  0  0  0  0  0  0  0  0  0
  5  6  2  0  0  0  0
  5  7  1  0  0  0  0
  2  3  1  0  0  0  0
  2  4  1  0  0  0  0
  2  5  1  0  0  0  0
  1  2  1  0  0  0  0
 26 27  2  0  0  0  0
 26 28  1  0  0  0  0
 24 25  1  0  0  0  0
 22 23  1  0  0  0  0
 22 24  2  0  0  0  0
 20 21  1  0  0  0  0
 19 20  1  0  0  0  0
 19 22  1  0  0  0  0
 17 18  1  0  0  0  0
 17 19  2  0  0  0  0
 15 16  1  0  0  0  0
 15 17  1  0  0  0  0
 14 15  2  0  0  0  0
 14 24  1  0  0  0  0
 11 12  1  0  0  0  0
 11 13  1  0  0  0  0
 11 14  1  0  0  0  0
  9 10  1  0  0  0  0
  9 11  1  0  0  0  0
  9 26  1  0  0  0  0
  7  8  1  0  0  0  0
  7  9  1  0  0  0  0
 30 31  1  0  0  0  0
 30 32  1  0  0  0  0
 30 33  1  0  0  0  0
 28 29  1  0  0  0  0
 28 30  1  0  0  0  0
M  END
$$$$
default_name
  -OEChem-01062215323D

 33 33  0     1  0  0  0  0  0999 V2000
   -4.0702   -3.8485    1.4554 H   0  0  0  0  0  0  0  0  0  0  0  0
   -4.0012   -2.9605    0.8284 C   0  0  0  0  0  0  0  0  0  0  0  0
   -4.7652   -2.2435    1.1234 H   0  0  0  0  0  0  0  0  0  0  0  0
   -4.1352   -3.2385   -0.2156 H   0  0  0  0  0  0  0  0  0  0  0  0
   -2.6362   -2.3395    1.0094 C   0  0  0  0  0  0  0  0  0  0  0  0
   -1.8292   -2.8395    1.7814 O   0  0  0  0  0  0  0  0  0  0  0  0
   -2.3832   -1.2445    0.2964 N   0  0  0  0  0  0  0  0  0  0  0  0
   -3.1102   -0.8685   -0.2946 H   0  0  0  0  0  0  0  0  0  0  0  0
   -1.1292   -0.4875    0.3524 C   0  0  1  0  0  0  0  0  0  0  0  0
   -0.7216   -0.5657    1.3610 H   0  0  0  0  0  0  0  0  0  0  0  0
   -0.1163   -1.1040   -0.6277 C   0  0  0  0  0  0  0  0  0  0  0  0
   -0.5713   -1.1627   -1.6173 H   0  0  0  0  0  0  0  0  0  0  0  0
    0.7486   -0.4429   -0.7044 H   0  0  0  0  0  0  0  0  0  0  0  0
    0.3476   -2.4947   -0.2396 C   0  0  0  0  0  0  0  0  0  0  0  0
    1.3569   -2.6633    0.7294 C   0  0  0  0  0  0  0  0  0  0  0  0
    1.8233   -1.7978    1.1815 H   0  0  0  0  0  0  0  0  0  0  0  0
    1.7559   -3.9577    1.1159 C   0  0  0  0  0  0  0  0  0  0  0  0
    2.5302   -4.0831    1.8571 H   0  0  0  0  0  0  0  0  0  0  0  0
    1.1403   -5.0871    0.5336 C   0  0  0  0  0  0  0  0  0  0  0  0
    1.5158   -6.3395    0.9017 O   0  0  0  0  0  0  0  0  0  0  0  0
    2.2684   -6.3312    1.4946 H   0  0  0  0  0  0  0  0  0  0  0  0
    0.1270   -4.9164   -0.4323 C   0  0  0  0  0  0  0  0  0  0  0  0
   -0.3331   -5.7878   -0.8735 H   0  0  0  0  0  0  0  0  0  0  0  0
   -0.2664   -3.6214   -0.8199 C   0  0  0  0  0  0  0  0  0  0  0  0
   -1.0384   -3.4911   -1.5688 H   0  0  0  0  0  0  0  0  0  0  0  0
   -1.3723    1.0026    0.0599 C   0  0  0  0  0  0  0  0  0  0  0  0
   -1.0499    1.4813   -1.0278 O   0  0  0  0  0  0  0  0  0  0  0  0
   -1.9366    1.7356    1.0280 N   0  0  0  0  0  0  0  0  0  0  0  0
   -2.1170    1.2816    1.9116 H   0  0  0  0  0  0  0  0  0  0  0  0
   -2.2341    3.1616    0.9153 C   0  0  0  0  0  0  0  0  0  0  0  0
   -2.7879    3.3531   -0.0054 H   0  0  0  0  0  0  0  0  0  0  0  0
   -2.8303    3.4898    1.7683 H   0  0  0  0  0  0  0  0  0  0  0  0
   -1.3022    3.7301    0.8867 H   0  0  0  0  0  0  0  0  0  0  0  0
  5  6  2  0  0  0  0
  5  7  1  0  0  0  0
  2  3  1  0  0  0  0
  2  4  1  0  0  0  0
  2  5  1  0  0  0  0
  1  2  1  0  0  0  0
 26 27  2  0  0  0  0
 26 28  1  0  0  0  0
 24 25  1  0  0  0  0
 22 23  1  0  0  0  0
 22 24  2  0  0  0  0
 20 21  1  0  0  0  0
 19 20  1  0  0  0  0
 19 22  1  0  0  0  0
 17 18  1  0  0  0  0
 17 19  2  0  0  0  0
 15 16  1  0  0  0  0
 15 17  1  0  0  0  0
 14 15  2  0  0  0  0
 14 24  1  0  0  0  0
 11 12  1  0  0  0  0
 11 13  1  0  0  0  0
 11 14  1  0  0  0  0
  9 10  1  0  0  0  0
  9 11  1  0  0  0  0
  9 26  1  0  0  0  0
  7  8  1  0  0  0  0
  7  9  1  0  0  0  0
 30 31  1  0  0  0  0
 30 32  1  0  0  0  0
 30 33  1  0  0  0  0
 28 29  1  0  0  0  0
 28 30  1  0  0  0  0
M  END
$$$$
default_name
  -OEChem-01062215323D

 33 33  0     1  0  0  0  0  0999 V2000
   -4.0702   -3.8485    1.4554 H   0  0  0  0  0  0  0  0  0  0  0  0
   -4.0012   -2.9605    0.8284 C   0  0  0  0  0  0  0  0  0  0  0  0
   -4.7652   -2.2435    1.1234 H   0  0  0  0  0  0  0  0  0  0  0  0
   -4.1352   -3.2385   -0.2156 H   0  0  0  0  0  0  0  0  0  0  0  0
   -2.6362   -2.3395    1.0094 C   0  0  0  0  0  0  0  0  0  0  0  0
   -1.8292   -2.8395    1.7814 O   0  0  0  0  0  0  0  0  0  0  0  0
   -2.3832   -1.2445    0.2964 N   0  0  0  0  0  0  0  0  0  0  0  0
   -3.1102   -0.8685   -0.2946 H   0  0  0  0  0  0  0  0  0  0  0  0
   -1.1292   -0.4875    0.3524 C   0  0  1  0  0  0  0  0  0  0  0  0
   -0.7216   -0.5657    1.3610 H   0  0  0  0  0  0  0  0  0  0  0  0
   -0.1163   -1.1040   -0.6277 C   0  0  0  0  0  0  0  0  0  0  0  0
   -0.5713   -1.1627   -1.6173 H   0  0  0  0  0  0  0  0  0  0  0  0
    0.7486   -0.4429   -0.7044 H   0  0  0  0  0  0  0  0  0  0  0  0
    0.3476   -2.4947   -0.2396 C   0  0  0  0  0  0  0  0  0  0  0  0
    1.3569   -2.6633    0.7294 C   0  0  0  0  0  0  0  0  0  0  0  0
    1.8233   -1.7978    1.1815 H   0  0  0  0  0  0  0  0  0  0  0  0
    1.7559   -3.9577    1.1159 C   0  0  0  0  0  0  0  0  0  0  0  0
    2.5302   -4.0831    1.8571 H   0  0  0  0  0  0  0  0  0  0  0  0
    1.1403   -5.0871    0.5336 C   0  0  0  0  0  0  0  0  0  0  0  0
    1.5158   -6.3395    0.9017 O   0  0  0  0  0  0  0  0  0  0  0  0
    2.2684   -6.3312    1.4946 H   0  0  0  0  0  0  0  0  0  0  0  0
    0.1270   -4.9164   -0.4323 C   0  0  0  0  0  0  0  0  0  0  0  0
   -0.3331   -5.7878   -0.8735 H   0  0  0  0  0  0  0  0  0  0  0  0
   -0.2664   -3.6214   -0.8199 C   0  0  0  0  0  0  0  0  0  0  0  0
   -1.0384   -3.4911   -1.5688 H   0  0  0  0  0  0  0  0  0  0  0  0
   -1.3723    1.0026    0.0599 C   0  0  0  0  0  0  0  0  0  0  0  0
   -1.3134    1.4250   -1.0952 O   0  0  0  0  0  0  0  0  0  0  0  0
   -1.6418    1.7983    1.1025 N   0  0  0  0  0  0  0  0  0  0  0  0
   -1.6137    1.3857    2.0236 H   0  0  0  0  0  0  0  0  0  0  0  0
   -1.8950    3.2337    1.0005 C   0  0  0  0  0  0  0  0  0  0  0  0
   -2.6539    3.4230    0.2394 H   0  0  0  0  0  0  0  0  0  0  0  0
   -2.2422    3.6232    1.9589 H   0  0  0  0  0  0  0  0  0  0  0  0
   -0.9762    3.7492    0.7133 H   0  0  0  0  0  0  0  0  0  0  0  0
  5  6  2  0  0  0  0
  5  7  1  0  0  0  0
  2  3  1  0  0  0  0
  2  4  1  0  0  0  0
  2  5  1  0  0  0  0
  1  2  1  0  0  0  0
 26 27  2  0  0  0  0
 26 28  1  0  0  0  0
 24 25  1  0  0  0  0
 22 23  1  0  0  0  0
 22 24  2  0  0  0  0
 20 21  1  0  0  0  0
 19 20  1  0  0  0  0
 19 22  1  0  0  0  0
 17 18  1  0  0  0  0
 17 19  2  0  0  0  0
 15 16  1  0  0  0  0
 15 17  1  0  0  0  0
 14 15  2  0  0  0  0
 14 24  1  0  0  0  0
 11 12  1  0  0  0  0
 11 13  1  0  0  0  0
 11 14  1  0  0  0  0
  9 10  1  0  0  0  0
  9 11  1  0  0  0  0
  9 26  1  0  0  0  0
  7  8  1  0  0  0  0
  7  9  1  0  0  0  0
 30 31  1  0  0  0  0
 30 32  1  0  0  0  0
 30 33  1  0  0  0  0
 28 29  1  0  0  0  0
 28 30  1  0  0  0  0
M  END
$$$$
default_name
  -OEChem-01062215323D

 33 33  0     1  0  0  0  0  0999 V2000
   -4.0702   -3.8485    1.4554 H   0  0  0  0  0  0  0  0  0  0  0  0
   -4.0012   -2.9605    0.8284 C   0  0  0  0  0  0  0  0  0  0  0  0
   -4.7652   -2.2435    1.1234 H   0  0  0  0  0  0  0  0  0  0  0  0
   -4.1352   -3.2385   -0.2156 H   0  0  0  0  0  0  0  0  0  0  0  0
   -2.6362   -2.3395    1.0094 C   0  0  0  0  0  0  0  0  0  0  0  0
   -1.8292   -2.8395    1.7814 O   0  0  0  0  0  0  0  0  0  0  0  0
   -2.3832   -1.2445    0.2964 N   0  0  0  0  0  0  0  0  0  0  0  0
   -3.1102   -0.8685   -0.2946 H   0  0  0  0  0  0  0  0  0  0  0  0
   -1.1292   -0.4875    0.3524 C   0  0  1  0  0  0  0  0  0  0  0  0
   -0.7216   -0.5657    1.3610 H   0  0  0  0  0  0  0  0  0  0  0  0
   -0.1163   -1.1040   -0.6277 C   0  0  0  0  0  0  0  0  0  0  0  0
   -0.5713   -1.1627   -1.6173 H   0  0  0  0  0  0  0  0  0  0  0  0
    0.7486   -0.4429   -0.7044 H   0  0  0  0  0  0  0  0  0  0  0  0
    0.3476   -2.4947   -0.2396 C   0  0  0  0  0  0  0  0  0  0  0  0
    1.3569   -2.6633    0.7294 C   0  0  0  0  0  0  0  0  0  0  0  0
    1.8233   -1.7978    1.1815 H   0  0  0  0  0  0  0  0  0  0  0  0
    1.7559   -3.9577    1.1159 C   0  0  0  0  0  0  0  0  0  0  0  0
    2.5302   -4.0831    1.8571 H   0  0  0  0  0  0  0  0  0  0  0  0
    1.1403   -5.0871    0.5336 C   0  0  0  0  0  0  0  0  0  0  0  0
    1.5158   -6.3395    0.9017 O   0  0  0  0  0  0  0  0  0  0  0  0
    2.2684   -6.3312    1.4946 H   0  0  0  0  0  0  0  0  0  0  0  0
    0.1270   -4.9164   -0.4323 C   0  0  0  0  0  0  0  0  0  0  0  0
   -0.3331   -5.7878   -0.8735 H   0  0  0  0  0  0  0  0  0  0  0  0
   -0.2664   -3.6214   -0.8199 C   0  0  0  0  0  0  0  0  0  0  0  0
   -1.0384   -3.4911   -1.5688 H   0  0  0  0  0  0  0  0  0  0  0  0
   -1.3723    1.0026    0.0599 C   0  0  0  0  0  0  0  0  0  0  0  0
   -1.5876    1.3810   -1.0919 O   0  0  0  0  0  0  0  0  0  0  0  0
   -1.3353    1.8475    1.0980 N   0  0  0  0  0  0  0  0  0  0  0  0
   -1.0944    1.4661    2.0014 H   0  0  0  0  0  0  0  0  0  0  0  0
   -1.5426    3.2901    0.9949 C   0  0  0  0  0  0  0  0  0  0  0  0
   -2.4595    3.4940    0.4393 H   0  0  0  0  0  0  0  0  0  0  0  0
   -1.6197    3.7308    1.9902 H   0  0  0  0  0  0  0  0  0  0  0  0
   -0.7039    3.7446    0.4634 H   0  0  0  0  0  0  0  0  0  0  0  0
  5  6  2  0  0  0  0
  5  7  1  0  0  0  0
  2  3  1  0  0  0  0
  2  4  1  0  0  0  0
  2  5  1  0  0  0  0
  1  2  1  0  0  0  0
 26 27  2  0  0  0  0
 26 28  1  0  0  0  0
 24 25  1  0  0  0  0
 22 23  1  0  0  0  0
 22 24  2  0  0  0  0
 20 21  1  0  0  0  0
 19 20  1  0  0  0  0
 19 22  1  0  0  0  0
 17 18  1  0  0  0  0
 17 19  2  0  0  0  0
 15 16  1  0  0  0  0
 15 17  1  0  0  0  0
 14 15  2  0  0  0  0
 14 24  1  0  0  0  0
 11 12  1  0  0  0  0
 11 13  1  0  0  0  0
 11 14  1  0  0  0  0
  9 10  1  0  0  0  0
  9 11  1  0  0  0  0
  9 26  1  0  0  0  0
  7  8  1  0  0  0  0
  7  9  1  0  0  0  0
 30 31  1  0  0  0  0
 30 32  1  0  0  0  0
 30 33  1  0  0  0  0
 28 29  1  0  0  0  0
 28 30  1  0  0  0  0
M  END
$$$$
default_name
  -OEChem-01062215323D

 33 33  0     1  0  0  0  0  0999 V2000
   -4.0702   -3.8485    1.4554 H   0  0  0  0  0  0  0  0  0  0  0  0
   -4.0012   -2.9605    0.8284 C   0  0  0  0  0  0  0  0  0  0  0  0
   -4.7652   -2.2435    1.1234 H   0  0  0  0  0  0  0  0  0  0  0  0
   -4.1352   -3.2385   -0.2156 H   0  0  0  0  0  0  0  0  0  0  0  0
   -2.6362   -2.3395    1.0094 C   0  0  0  0  0  0  0  0  0  0  0  0
   -1.8292   -2.8395    1.7814 O   0  0  0  0  0  0  0  0  0  0  0  0
   -2.3832   -1.2445    0.2964 N   0  0  0  0  0  0  0  0  0  0  0  0
   -3.1102   -0.8685   -0.2946 H   0  0  0  0  0  0  0  0  0  0  0  0
   -1.1292   -0.4875    0.3524 C   0  0  1  0  0  0  0  0  0  0  0  0
   -0.7216   -0.5657    1.3610 H   0  0  0  0  0  0  0  0  0  0  0  0
   -0.1163   -1.1040   -0.6277 C   0  0  0  0  0  0  0  0  0  0  0  0
   -0.5713   -1.1627   -1.6173 H   0  0  0  0  0  0  0  0  0  0  0  0
    0.7486   -0.4429   -0.7044 H   0  0  0  0  0  0  0  0  0  0  0  0
    0.3476   -2.4947   -0.2396 C   0  0  0  0  0  0  0  0  0  0  0  0
    1.3569   -2.6633    0.7294 C   0  0  0  0  0  0  0  0  0  0  0  0
    1.8233   -1.7978    1.1815 H   0  0  0  0  0  0  0  0  0  0  0  0
    1.7559   -3.9577    1.1159 C   0  0  0  0  0  0  0  0  0  0  0  0
    2.5302   -4.0831    1.8571 H   0  0  0  0  0  0  0  0  0  0  0  0
    1.1403   -5.0871    0.5336 C   0  0  0  0  0  0  0  0  0  0  0  0
    1.5158   -6.3395    0.9017 O   0  0  0  0  0  0  0  0  0  0  0  0
    2.2684   -6.3312    1.4946 H   0  0  0  0  0  0  0  0  0  0  0  0
    0.1270   -4.9164   -0.4323 C   0  0  0  0  0  0  0  0  0  0  0  0
   -0.3331   -5.7878   -0.8735 H   0  0  0  0  0  0  0  0  0  0  0  0
   -0.2664   -3.6214   -0.8199 C   0  0  0  0  0  0  0  0  0  0  0  0
   -1.0384   -3.4911   -1.5688 H   0  0  0  0  0  0  0  0  0  0  0  0
   -1.3723    1.0026    0.0599 C   0  0  0  0  0  0  0  0  0  0  0  0
   -1.8538    1.3520   -1.0182 O   0  0  0  0  0  0  0  0  0  0  0  0
   -1.0379    1.8796    1.0148 N   0  0  0  0  0  0  0  0  0  0  0  0
   -0.5943    1.5172    1.8463 H   0  0  0  0  0  0  0  0  0  0  0  0
   -1.2008    3.3270    0.8988 C   0  0  0  0  0  0  0  0  0  0  0  0
   -2.2182    3.5611    0.5809 H   0  0  0  0  0  0  0  0  0  0  0  0
   -1.0054    3.8054    1.8598 H   0  0  0  0  0  0  0  0  0  0  0  0
   -0.5039    3.7164    0.1538 H   0  0  0  0  0  0  0  0  0  0  0  0
  5  6  2  0  0  0  0
  5  7  1  0  0  0  0
  2  3  1  0  0  0  0
  2  4  1  0  0  0  0
  2  5  1  0  0  0  0
  1  2  1  0  0  0  0
 26 27  2  0  0  0  0
 26 28  1  0  0  0  0
 24 25  1  0  0  0  0
 22 23  1  0  0  0  0
 22 24  2  0  0  0  0
 20 21  1  0  0  0  0
 19 20  1  0  0  0  0
 19 22  1  0  0  0  0
 17 18  1  0  0  0  0
 17 19  2  0  0  0  0
 15 16  1  0  0  0  0
 15 17  1  0  0  0  0
 14 15  2  0  0  0  0
 14 24  1  0  0  0  0
 11 12  1  0  0  0  0
 11 13  1  0  0  0  0
 11 14  1  0  0  0  0
  9 10  1  0  0  0  0
  9 11  1  0  0  0  0
  9 26  1  0  0  0  0
  7  8  1  0  0  0  0
  7  9  1  0  0  0  0
 30 31  1  0  0  0  0
 30 32  1  0  0  0  0
 30 33  1  0  0  0  0
 28 29  1  0  0  0  0
 28 30  1  0  0  0  0
M  END
$$$$
default_name
  -OEChem-01062215323D

 33 33  0     1  0  0  0  0  0999 V2000
   -4.0702   -3.8485    1.4554 H   0  0  0  0  0  0  0  0  0  0  0  0
   -4.0012   -2.9605    0.8284 C   0  0  0  0  0  0  0  0  0  0  0  0
   -4.7652   -2.2435    1.1234 H   0  0  0  0  0  0  0  0  0  0  0  0
   -4.1352   -3.2385   -0.2156 H   0  0  0  0  0  0  0  0  0  0  0  0
   -2.6362   -2.3395    1.0094 C   0  0  0  0  0  0  0  0  0  0  0  0
   -1.8292   -2.8395    1.7814 O   0  0  0  0  0  0  0  0  0  0  0  0
   -2.3832   -1.2445    0.2964 N   0  0  0  0  0  0  0  0  0  0  0  0
   -3.1102   -0.8685   -0.2946 H   0  0  0  0  0  0  0  0  0  0  0  0
   -1.1292   -0.4875    0.3524 C   0  0  1  0  0  0  0  0  0  0  0  0
   -0.7216   -0.5657    1.3610 H   0  0  0  0  0  0  0  0  0  0  0  0
   -0.1163   -1.1040   -0.6277 C   0  0  0  0  0  0  0  0  0  0  0  0
   -0.5713   -1.1627   -1.6173 H   0  0  0  0  0  0  0  0  0  0  0  0
    0.7486   -0.4429   -0.7044 H   0  0  0  0  0  0  0  0  0  0  0  0
    0.3476   -2.4947   -0.2396 C   0  0  0  0  0  0  0  0  0  0  0  0
    1.3569   -2.6633    0.7294 C   0  0  0  0  0  0  0  0  0  0  0  0
    1.8233   -1.7978    1.1815 H   0  0  0  0  0  0  0  0  0  0  0  0
    1.7559   -3.9577    1.1159 C   0  0  0  0  0  0  0  0  0  0  0  0
    2.5302   -4.0831    1.8571 H   0  0  0  0  0  0  0  0  0  0  0  0
    1.1403   -5.0871    0.5336 C   0  0  0  0  0  0  0  0  0  0  0  0
    1.5158   -6.3395    0.9017 O   0  0  0  0  0  0  0  0  0  0  0  0
    2.2684   -6.3312    1.4946 H   0  0  0  0  0  0  0  0  0  0  0  0
    0.1270   -4.9164   -0.4323 C   0  0  0  0  0  0  0  0  0  0  0  0
   -0.3331   -5.7878   -0.8735 H   0  0  0  0  0  0  0  0  0  0  0  0
   -0.2664   -3.6214   -0.8199 C   0  0  0  0  0  0  0  0  0  0  0  0
   -1.0384   -3.4911   -1.5688 H   0  0  0  0  0  0  0  0  0  0  0  0
   -1.3723    1.0026    0.0599 C   0  0  0  0  0  0  0  0  0  0  0  0
   -2.0939    1.3402   -0.8790 O   0  0  0  0  0  0  0  0  0  0  0  0
   -0.7699    1.8927    0.8586 N   0  0  0  0  0  0  0  0  0  0  0  0
   -0.1477    1.5356    1.5691 H   0  0  0  0  0  0  0  0  0  0  0  0
   -0.8929    3.3418    0.7187 C   0  0  0  0  0  0  0  0  0  0  0  0
   -1.9463    3.6199    0.6543 H   0  0  0  0  0  0  0  0  0  0  0  0
   -0.4409    3.8419    1.5768 H   0  0  0  0  0  0  0  0  0  0  0  0
   -0.3896    3.6667   -0.1942 H   0  0  0  0  0  0  0  0  0  0  0  0
  5  6  2  0  0  0  0
  5  7  1  0  0  0  0
  2  3  1  0  0  0  0
  2  4  1  0  0  0  0
  2  5  1  0  0  0  0
  1  2  1  0  0  0  0
 26 27  2  0  0  0  0
 26 28  1  0  0  0  0
 24 25  1  0  0  0  0
 22 23  1  0  0  0  0
 22 24  2  0  0  0  0
 20 21  1  0  0  0  0
 19 20  1  0  0  0  0
 19 22  1  0  0  0  0
 17 18  1  0  0  0  0
 17 19  2  0  0  0  0
 15 16  1  0  0  0  0
 15 17  1  0  0  0  0
 14 15  2  0  0  0  0
 14 24  1  0  0  0  0
 11 12  1  0  0  0  0
 11 13  1  0  0  0  0
 11 14  1  0  0  0  0
  9 10  1  0  0  0  0
  9 11  1  0  0  0  0
  9 26  1  0  0  0  0
  7  8  1  0  0  0  0
  7  9  1  0  0  0  0
 30 31  1  0  0  0  0
 30 32  1  0  0  0  0
 30 33  1  0  0  0  0
 28 29  1  0  0  0  0
 28 30  1  0  0  0  0
M  END
$$$$
default_name
  -OEChem-01062215323D

 33 33  0     1  0  0  0  0  0999 V2000
   -4.0702   -3.8485    1.4554 H   0  0  0  0  0  0  0  0  0  0  0  0
   -4.0012   -2.9605    0.8284 C   0  0  0  0  0  0  0  0  0  0  0  0
   -4.7652   -2.2435    1.1234 H   0  0  0  0  0  0  0  0  0  0  0  0
   -4.1352   -3.2385   -0.2156 H   0  0  0  0  0  0  0  0  0  0  0  0
   -2.6362   -2.3395    1.0094 C   0  0  0  0  0  0  0  0  0  0  0  0
   -1.8292   -2.8395    1.7814 O   0  0  0  0  0  0  0  0  0  0  0  0
   -2.3832   -1.2445    0.2964 N   0  0  0  0  0  0  0  0  0  0  0  0
   -3.1102   -0.8685   -0.2946 H   0  0  0  0  0  0  0  0  0  0  0  0
   -1.1292   -0.4875    0.3524 C   0  0  1  0  0  0  0  0  0  0  0  0
   -0.7216   -0.5657    1.3610 H   0  0  0  0  0  0  0  0  0  0  0  0
   -0.1163   -1.1040   -0.6277 C   0  0  0  0  0  0  0  0  0  0  0  0
   -0.5713   -1.1627   -1.6173 H   0  0  0  0  0  0  0  0  0  0  0  0
    0.7486   -0.4429   -0.7044 H   0  0  0  0  0  0  0  0  0  0  0  0
    0.3476   -2.4947   -0.2396 C   0  0  0  0  0  0  0  0  0  0  0  0
    1.3569   -2.6633    0.7294 C   0  0  0  0  0  0  0  0  0  0  0  0
    1.8233   -1.7978    1.1815 H   0  0  0  0  0  0  0  0  0  0  0  0
    1.7559   -3.9577    1.1159 C   0  0  0  0  0  0  0  0  0  0  0  0
    2.5302   -4.0831    1.8571 H   0  0  0  0  0  0  0  0  0  0  0  0
    1.1403   -5.0871    0.5336 C   0  0  0  0  0  0  0  0  0  0  0  0
    1.5158   -6.3395    0.9017 O   0  0  0  0  0  0  0  0  0  0  0  0
    2.2684   -6.3312    1.4946 H   0  0  0  0  0  0  0  0  0  0  0  0
    0.1270   -4.9164   -0.4323 C   0  0  0  0  0  0  0  0  0  0  0  0
   -0.3331   -5.7878   -0.8735 H   0  0  0  0  0  0  0  0  0  0  0  0
   -0.2664   -3.6214   -0.8199 C   0  0  0  0  0  0  0  0  0  0  0  0
   -1.0384   -3.4911   -1.5688 H   0  0  0  0  0  0  0  0  0  0  0  0
   -1.3723    1.0026    0.0599 C   0  0  0  0  0  0  0  0  0  0  0  0
   -2.2915    1.3463   -0.6838 O   0  0  0  0  0  0  0  0  0  0  0  0
   -0.5497    1.8857    0.6399 N   0  0  0  0  0  0  0  0  0  0  0  0
    0.2151    1.5201    1.1885 H   0  0  0  0  0  0  0  0  0  0  0  0
   -0.6400    3.3337    0.4670 C   0  0  0  0  0  0  0  0  0  0  0  0
   -1.6623    3.6663    0.6546 H   0  0  0  0  0  0  0  0  0  0  0  0
    0.0351    3.8378    1.1604 H   0  0  0  0  0  0  0  0  0  0  0  0
   -0.3690    3.5989   -0.5570 H   0  0  0  0  0  0  0  0  0  0  0  0
  5  6  2  0  0  0  0
  5  7  1  0  0  0  0
  2  3  1  0  0  0  0
  2  4  1  0  0  0  0
  2  5  1  0  0  0  0
  1  2  1  0  0  0  0
 26 27  2  0  0  0  0
 26 28  1  0  0  0  0
 24 25  1  0  0  0  0
 22 23  1  0  0  0  0
 22 24  2  0  0  0  0
 20 21  1  0  0  0  0
 19 20  1  0  0  0  0
 19 22  1  0  0  0  0
 17 18  1  0  0  0  0
 17 19  2  0  0  0  0
 15 16  1  0  0  0  0
 15 17  1  0  0  0  0
 14 15  2  0  0  0  0
 14 24  1  0  0  0  0
 11 12  1  0  0  0  0
 11 13  1  0  0  0  0
 11 14  1  0  0  0  0
  9 10  1  0  0  0  0
  9 11  1  0  0  0  0
  9 26  1  0  0  0  0
  7  8  1  0  0  0  0
  7  9  1  0  0  0  0
 30 31  1  0  0  0  0
 30 32  1  0  0  0  0
 30 33  1  0  0  0  0
 28 29  1  0  0  0  0
 28 30  1  0  0  0  0
M  END
$$$$
default_name
  -OEChem-01062215323D

 33 33  0     1  0  0  0  0  0999 V2000
   -4.0702   -3.8485    1.4554 H   0  0  0  0  0  0  0  0  0  0  0  0
   -4.0012   -2.9605    0.8284 C   0  0  0  0  0  0  0  0  0  0  0  0
   -4.7652   -2.2435    1.1234 H   0  0  0  0  0  0  0  0  0  0  0  0
   -4.1352   -3.2385   -0.2156 H   0  0  0  0  0  0  0  0  0  0  0  0
   -2.6362   -2.3395    1.0094 C   0  0  0  0  0  0  0  0  0  0  0  0
   -1.8292   -2.8395    1.7814 O   0  0  0  0  0  0  0  0  0  0  0  0
   -2.3832   -1.2445    0.2964 N   0  0  0  0  0  0  0  0  0  0  0  0
   -3.1102   -0.8685   -0.2946 H   0  0  0  0  0  0  0  0  0  0  0  0
   -1.1292   -0.4875    0.3524 C   0  0  1  0  0  0  0  0  0  0  0  0
   -0.7216   -0.5657    1.3610 H   0  0  0  0  0  0  0  0  0  0  0  0
   -0.1163   -1.1040   -0.6277 C   0  0  0  0  0  0  0  0  0  0  0  0
   -0.5713   -1.1627   -1.6173 H   0  0  0  0  0  0  0  0  0  0  0  0
    0.7486   -0.4429   -0.7044 H   0  0  0  0  0  0  0  0  0  0  0  0
    0.3476   -2.4947   -0.2396 C   0  0  0  0  0  0  0  0  0  0  0  0
    1.3569   -2.6633    0.7294 C   0  0  0  0  0  0  0  0  0  0  0  0
    1.8233   -1.7978    1.1815 H   0  0  0  0  0  0  0  0  0  0  0  0
    1.7559   -3.9577    1.1159 C   0  0  0  0  0  0  0  0  0  0  0  0
    2.5302   -4.0831    1.8571 H   0  0  0  0  0  0  0  0  0  0  0  0
    1.1403   -5.0871    0.5336 C   0  0  0  0  0  0  0  0  0  0  0  0
    1.5158   -6.3395    0.9017 O   0  0  0  0  0  0  0  0  0  0  0  0
    2.2684   -6.3312    1.4946 H   0  0  0  0  0  0  0  0  0  0  0  0
    0.1270   -4.9164   -0.4323 C   0  0  0  0  0  0  0  0  0  0  0  0
   -0.3331   -5.7878   -0.8735 H   0  0  0  0  0  0  0  0  0  0  0  0
   -0.2664   -3.6214   -0.8199 C   0  0  0  0  0  0  0  0  0  0  0  0
   -1.0384   -3.4911   -1.5688 H   0  0  0  0  0  0  0  0  0  0  0  0
   -1.3723    1.0026    0.0599 C   0  0  0  0  0  0  0  0  0  0  0  0
   -2.4331    1.3699   -0.4461 O   0  0  0  0  0  0  0  0  0  0  0  0
   -0.3921    1.8591    0.3737 N   0  0  0  0  0  0  0  0  0  0  0  0
    0.4694    1.4716    0.7305 H   0  0  0  0  0  0  0  0  0  0  0  0
   -0.4592    3.3030    0.1607 C   0  0  0  0  0  0  0  0  0  0  0  0
   -1.3857    3.6971    0.5818 H   0  0  0  0  0  0  0  0  0  0  0  0
    0.3903    3.7934    0.6390 H   0  0  0  0  0  0  0  0  0  0  0  0
   -0.4433    3.5175   -0.9099 H   0  0  0  0  0  0  0  0  0  0  0  0
  5  6  2  0  0  0  0
  5  7  1  0  0  0  0
  2  3  1  0  0  0  0
  2  4  1  0  0  0  0
  2  5  1  0  0  0  0
  1  2  1  0  0  0  0
 26 27  2  0  0  0  0
 26 28  1  0  0  0  0
 24 25  1  0  0  0  0
 22 23  1  0  0  0  0
 22 24  2  0  0  0  0
 20 21  1  0  0  0  0
 19 20  1  0  0  0  0
 19 22  1  0  0  0  0
 17 18  1  0  0  0  0
 17 19  2  0  0  0  0
 15 16  1  0  0  0  0
 15 17  1  0  0  0  0
 14 15  2  0  0  0  0
 14 24  1  0  0  0  0
 11 12  1  0  0  0  0
 11 13  1  0  0  0  0
 11 14  1  0  0  0  0
  9 10  1  0  0  0  0
  9 11  1  0  0  0  0
  9 26  1  0  0  0  0
  7  8  1  0  0  0  0
  7  9  1  0  0  0  0
 30 31  1  0  0  0  0
 30 32  1  0  0  0  0
 30 33  1  0  0  0  0
 28 29  1  0  0  0  0
 28 30  1  0  0  0  0
M  END
$$$$
default_name
  -OEChem-01062215323D

 33 33  0     1  0  0  0  0  0999 V2000
   -4.0702   -3.8485    1.4554 H   0  0  0  0  0  0  0  0  0  0  0  0
   -4.0012   -2.9605    0.8284 C   0  0  0  0  0  0  0  0  0  0  0  0
   -4.7652   -2.2435    1.1234 H   0  0  0  0  0  0  0  0  0  0  0  0
   -4.1352   -3.2385   -0.2156 H   0  0  0  0  0  0  0  0  0  0  0  0
   -2.6362   -2.3395    1.0094 C   0  0  0  0  0  0  0  0  0  0  0  0
   -1.8292   -2.8395    1.7814 O   0  0  0  0  0  0  0  0  0  0  0  0
   -2.3832   -1.2445    0.2964 N   0  0  0  0  0  0  0  0  0  0  0  0
   -3.1102   -0.8685   -0.2946 H   0  0  0  0  0  0  0  0  0  0  0  0
   -1.1292   -0.4875    0.3524 C   0  0  1  0  0  0  0  0  0  0  0  0
   -0.5898   -0.7762    1.2552 H   0  0  0  0  0  0  0  0  0  0  0  0
   -0.2608   -0.8470   -0.8656 C   0  0  0  0  0  0  0  0  0  0  0  0
   -0.8454   -0.6971   -1.7742 H   0  0  0  0  0  0  0  0  0  0  0  0
    0.5892   -0.1639   -0.9075 H   0  0  0  0  0  0  0  0  0  0  0  0
    0.2439   -2.2770   -0.8610 C   0  0  0  0  0  0  0  0  0  0  0  0
    1.3738   -2.6302   -0.0962 C   0  0  0  0  0  0  0  0  0  0  0  0
    1.9013   -1.8744    0.4709 H   0  0  0  0  0  0  0  0  0  0  0  0
    1.8145   -3.9675   -0.0632 C   0  0  0  0  0  0  0  0  0  0  0  0
    2.6809   -4.2341    0.5223 H   0  0  0  0  0  0  0  0  0  0  0  0
    1.1202   -4.9556   -0.7949 C   0  0  0  0  0  0  0  0  0  0  0  0
    1.5355   -6.2486   -0.7673 O   0  0  0  0  0  0  0  0  0  0  0  0
    2.3611   -6.3526   -0.2925 H   0  0  0  0  0  0  0  0  0  0  0  0
   -0.0131   -4.6012   -1.5558 C   0  0  0  0  0  0  0  0  0  0  0  0
   -0.5330   -5.3649   -2.1145 H   0  0  0  0  0  0  0  0  0  0  0  0
   -0.4484   -3.2628   -1.5904 C   0  0  0  0  0  0  0  0  0  0  0  0
   -1.3137   -2.9897   -2.1826 H   0  0  0  0  0  0  0  0  0  0  0  0
   -1.4018    1.0238    0.4329 C   0  0  0  0  0  0  0  0  0  0  0  0
   -2.5587    1.4455    0.4405 O   0  0  0  0  0  0  0  0  0  0  0  0
   -0.3405    1.8383    0.4899 N   0  0  0  0  0  0  0  0  0  0  0  0
    0.5747    1.4175    0.4196 H   0  0  0  0  0  0  0  0  0  0  0  0
   -0.4222    3.2950    0.5678 C   0  0  0  0  0  0  0  0  0  0  0  0
   -1.1015    3.5857    1.3709 H   0  0  0  0  0  0  0  0  0  0  0  0
    0.5653    3.7170    0.7617 H   0  0  0  0  0  0  0  0  0  0  0  0
   -0.8053    3.6922   -0.3744 H   0  0  0  0  0  0  0  0  0  0  0  0
  5  6  2  0  0  0  0
  5  7  1  0  0  0  0
  2  3  1  0  0  0  0
  2  4  1  0  0  0  0
  2  5  1  0  0  0  0
  1  2  1  0  0  0  0
 26 27  2  0  0  0  0
 26 28  1  0  0  0  0
 24 25  1  0  0  0  0
 22 23  1  0  0  0  0
 22 24  2  0  0  0  0
 20 21  1  0  0  0  0
 19 20  1  0  0  0  0
 19 22  1  0  0  0  0
 17 18  1  0  0  0  0
 17 19  2  0  0  0  0
 15 16  1  0  0  0  0
 15 17  1  0  0  0  0
 14 15  2  0  0  0  0
 14 24  1  0  0  0  0
 11 12  1  0  0  0  0
 11 13  1  0  0  0  0
 11 14  1  0  0  0  0
  9 10  1  0  0  0  0
  9 11  1  0  0  0  0
  9 26  1  0  0  0  0
  7  8  1  0  0  0  0
  7  9  1  0  0  0  0
 30 31  1  0  0  0  0
 30 32  1  0  0  0  0
 30 33  1  0  0  0  0
 28 29  1  0  0  0  0
 28 30  1  0  0  0  0
M  END
$$$$
default_name
  -OEChem-01062215323D

 33 33  0     1  0  0  0  0  0999 V2000
   -4.0702   -3.8485    1.4554 H   0  0  0  0  0  0  0  0  0  0  0  0
   -4.0012   -2.9605    0.8284 C   0  0  0  0  0  0  0  0  0  0  0  0
   -4.7652   -2.2435    1.1234 H   0  0  0  0  0  0  0  0  0  0  0  0
   -4.1352   -3.2385   -0.2156 H   0  0  0  0  0  0  0  0  0  0  0  0
   -2.6362   -2.3395    1.0094 C   0  0  0  0  0  0  0  0  0  0  0  0
   -1.8292   -2.8395    1.7814 O   0  0  0  0  0  0  0  0  0  0  0  0
   -2.3832   -1.2445    0.2964 N   0  0  0  0  0  0  0  0  0  0  0  0
   -3.1102   -0.8685   -0.2946 H   0  0  0  0  0  0  0  0  0  0  0  0
   -1.1292   -0.4875    0.3524 C   0  0  1  0  0  0  0  0  0  0  0  0
   -0.5898   -0.7762    1.2552 H   0  0  0  0  0  0  0  0  0  0  0  0
   -0.2608   -0.8470   -0.8656 C   0  0  0  0  0  0  0  0  0  0  0  0
   -0.8454   -0.6971   -1.7742 H   0  0  0  0  0  0  0  0  0  0  0  0
    0.5892   -0.1639   -0.9075 H   0  0  0  0  0  0  0  0  0  0  0  0
    0.2439   -2.2770   -0.8610 C   0  0  0  0  0  0  0  0  0  0  0  0
    1.3738   -2.6302   -0.0962 C   0  0  0  0  0  0  0  0  0  0  0  0
    1.9013   -1.8744    0.4709 H   0  0  0  0  0  0  0  0  0  0  0  0
    1.8145   -3.9675   -0.0632 C   0  0  0  0  0  0  0  0  0  0  0  0
    2.6809   -4.2341    0.5223 H   0  0  0  0  0  0  0  0  0  0  0  0
    1.1202   -4.9556   -0.7949 C   0  0  0  0  0  0  0  0  0  0  0  0
    1.5355   -6.2486   -0.7673 O   0  0  0  0  0  0  0  0  0  0  0  0
    2.3611   -6.3526   -0.2925 H   0  0  0  0  0  0  0  0  0  0  0  0
   -0.0131   -4.6012   -1.5558 C   0  0  0  0  0  0  0  0  0  0  0  0
   -0.5330   -5.3649   -2.1145 H   0  0  0  0  0  0  0  0  0  0  0  0
   -0.4484   -3.2628   -1.5904 C   0  0  0  0  0  0  0  0  0  0  0  0
   -1.3137   -2.9897   -2.1826 H   0  0  0  0  0  0  0  0  0  0  0  0
   -1.4018    1.0238    0.4329 C   0  0  0  0  0  0  0  0  0  0  0  0
   -2.5268    1.4365    0.7162 O   0  0  0  0  0  0  0  0  0  0  0  0
   -0.3769    1.8482    0.1818 N   0  0  0  0  0  0  0  0  0  0  0  0
    0.4984    1.4314   -0.1007 H   0  0  0  0  0  0  0  0  0  0  0  0
   -0.4645    3.3063    0.2135 C   0  0  0  0  0  0  0  0  0  0  0  0
   -0.9231    3.6297    1.1496 H   0  0  0  0  0  0  0  0  0  0  0  0
    0.5314    3.7446    0.1308 H   0  0  0  0  0  0  0  0  0  0  0  0
   -1.0821    3.6552   -0.6166 H   0  0  0  0  0  0  0  0  0  0  0  0
  5  6  2  0  0  0  0
  5  7  1  0  0  0  0
  2  3  1  0  0  0  0
  2  4  1  0  0  0  0
  2  5  1  0  0  0  0
  1  2  1  0  0  0  0
 26 27  2  0  0  0  0
 26 28  1  0  0  0  0
 24 25  1  0  0  0  0
 22 23  1  0  0  0  0
 22 24  2  0  0  0  0
 20 21  1  0  0  0  0
 19 20  1  0  0  0  0
 19 22  1  0  0  0  0
 17 18  1  0  0  0  0
 17 19  2  0  0  0  0
 15 16  1  0  0  0  0
 15 17  1  0  0  0  0
 14 15  2  0  0  0  0
 14 24  1  0  0  0  0
 11 12  1  0  0  0  0
 11 13  1  0  0  0  0
 11 14  1  0  0  0  0
  9 10  1  0  0  0  0
  9 11  1  0  0  0  0
  9 26  1  0  0  0  0
  7  8  1  0  0  0  0
  7  9  1  0  0  0  0
 30 31  1  0  0  0  0
 30 32  1  0  0  0  0
 30 33  1  0  0  0  0
 28 29  1  0  0  0  0
 28 30  1  0  0  0  0
M  END
$$$$
default_name
  -OEChem-01062215323D

 33 33  0     1  0  0  0  0  0999 V2000
   -4.0702   -3.8485    1.4554 H   0  0  0  0  0  0  0  0  0  0  0  0
   -4.0012   -2.9605    0.8284 C   0  0  0  0  0  0  0  0  0  0  0  0
   -4.7652   -2.2435    1.1234 H   0  0  0  0  0  0  0  0  0  0  0  0
   -4.1352   -3.2385   -0.2156 H   0  0  0  0  0  0  0  0  0  0  0  0
   -2.6362   -2.3395    1.0094 C   0  0  0  0  0  0  0  0  0  0  0  0
   -1.8292   -2.8395    1.7814 O   0  0  0  0  0  0  0  0  0  0  0  0
   -2.3832   -1.2445    0.2964 N   0  0  0  0  0  0  0  0  0  0  0  0
   -3.1102   -0.8685   -0.2946 H   0  0  0  0  0  0  0  0  0  0  0  0
   -1.1292   -0.4875    0.3524 C   0  0  1  0  0  0  0  0  0  0  0  0
   -0.5898   -0.7762    1.2552 H   0  0  0  0  0  0  0  0  0  0  0  0
   -0.2608   -0.8470   -0.8656 C   0  0  0  0  0  0  0  0  0  0  0  0
   -0.8454   -0.6971   -1.7742 H   0  0  0  0  0  0  0  0  0  0  0  0
    0.5892   -0.1639   -0.9075 H   0  0  0  0  0  0  0  0  0  0  0  0
    0.2439   -2.2770   -0.8610 C   0  0  0  0  0  0  0  0  0  0  0  0
    1.3738   -2.6302   -0.0962 C   0  0  0  0  0  0  0  0  0  0  0  0
    1.9013   -1.8744    0.4709 H   0  0  0  0  0  0  0  0  0  0  0  0
    1.8145   -3.9675   -0.0632 C   0  0  0  0  0  0  0  0  0  0  0  0
    2.6809   -4.2341    0.5223 H   0  0  0  0  0  0  0  0  0  0  0  0
    1.1202   -4.9556   -0.7949 C   0  0  0  0  0  0  0  0  0  0  0  0
    1.5355   -6.2486   -0.7673 O   0  0  0  0  0  0  0  0  0  0  0  0
    2.3611   -6.3526   -0.2925 H   0  0  0  0  0  0  0  0  0  0  0  0
   -0.0131   -4.6012   -1.5558 C   0  0  0  0  0  0  0  0  0  0  0  0
   -0.5330   -5.3649   -2.1145 H   0  0  0  0  0  0  0  0  0  0  0  0
   -0.4484   -3.2628   -1.5904 C   0  0  0  0  0  0  0  0  0  0  0  0
   -1.3137   -2.9897   -2.1826 H   0  0  0  0  0  0  0  0  0  0  0  0
   -1.4018    1.0238    0.4329 C   0  0  0  0  0  0  0  0  0  0  0  0
   -2.4257    1.4409    0.9749 O   0  0  0  0  0  0  0  0  0  0  0  0
   -0.4906    1.8430   -0.1071 N   0  0  0  0  0  0  0  0  0  0  0  0
    0.2921    1.4200   -0.5845 H   0  0  0  0  0  0  0  0  0  0  0  0
   -0.5957    3.3003   -0.1184 C   0  0  0  0  0  0  0  0  0  0  0  0
   -0.8076    3.6644    0.8883 H   0  0  0  0  0  0  0  0  0  0  0  0
    0.3378    3.7417   -0.4713 H   0  0  0  0  0  0  0  0  0  0  0  0
   -1.4106    3.6046   -0.7785 H   0  0  0  0  0  0  0  0  0  0  0  0
  5  6  2  0  0  0  0
  5  7  1  0  0  0  0
  2  3  1  0  0  0  0
  2  4  1  0  0  0  0
  2  5  1  0  0  0  0
  1  2  1  0  0  0  0
 26 27  2  0  0  0  0
 26 28  1  0  0  0  0
 24 25  1  0  0  0  0
 22 23  1  0  0  0  0
 22 24  2  0  0  0  0
 20 21  1  0  0  0  0
 19 20  1  0  0  0  0
 19 22  1  0  0  0  0
 17 18  1  0  0  0  0
 17 19  2  0  0  0  0
 15 16  1  0  0  0  0
 15 17  1  0  0  0  0
 14 15  2  0  0  0  0
 14 24  1  0  0  0  0
 11 12  1  0  0  0  0
 11 13  1  0  0  0  0
 11 14  1  0  0  0  0
  9 10  1  0  0  0  0
  9 11  1  0  0  0  0
  9 26  1  0  0  0  0
  7  8  1  0  0  0  0
  7  9  1  0  0  0  0
 30 31  1  0  0  0  0
 30 32  1  0  0  0  0
 30 33  1  0  0  0  0
 28 29  1  0  0  0  0
 28 30  1  0  0  0  0
M  END
$$$$
default_name
  -OEChem-01062215323D

 33 33  0     1  0  0  0  0  0999 V2000
   -4.0702   -3.8485    1.4554 H   0  0  0  0  0  0  0  0  0  0  0  0
   -4.0012   -2.9605    0.8284 C   0  0  0  0  0  0  0  0  0  0  0  0
   -4.7652   -2.2435    1.1234 H   0  0  0  0  0  0  0  0  0  0  0  0
   -4.1352   -3.2385   -0.2156 H   0  0  0  0  0  0  0  0  0  0  0  0
   -2.6362   -2.3395    1.0094 C   0  0  0  0  0  0  0  0  0  0  0  0
   -1.8292   -2.8395    1.7814 O   0  0  0  0  0  0  0  0  0  0  0  0
   -2.3832   -1.2445    0.2964 N   0  0  0  0  0  0  0  0  0  0  0  0
   -3.1102   -0.8685   -0.2946 H   0  0  0  0  0  0  0  0  0  0  0  0
   -1.1292   -0.4875    0.3524 C   0  0  1  0  0  0  0  0  0  0  0  0
   -0.5898   -0.7762    1.2552 H   0  0  0  0  0  0  0  0  0  0  0  0
   -0.2608   -0.8470   -0.8656 C   0  0  0  0  0  0  0  0  0  0  0  0
   -0.8454   -0.6971   -1.7742 H   0  0  0  0  0  0  0  0  0  0  0  0
    0.5892   -0.1639   -0.9075 H   0  0  0  0  0  0  0  0  0  0  0  0
    0.2439   -2.2770   -0.8610 C   0  0  0  0  0  0  0  0  0  0  0  0
    1.3738   -2.6302   -0.0962 C   0  0  0  0  0  0  0  0  0  0  0  0
    1.9013   -1.8744    0.4709 H   0  0  0  0  0  0  0  0  0  0  0  0
    1.8145   -3.9675   -0.0632 C   0  0  0  0  0  0  0  0  0  0  0  0
    2.6809   -4.2341    0.5223 H   0  0  0  0  0  0  0  0  0  0  0  0
    1.1202   -4.9556   -0.7949 C   0  0  0  0  0  0  0  0  0  0  0  0
    1.5355   -6.2486   -0.7673 O   0  0  0  0  0  0  0  0  0  0  0  0
    2.3611   -6.3526   -0.2925 H   0  0  0  0  0  0  0  0  0  0  0  0
   -0.0131   -4.6012   -1.5558 C   0  0  0  0  0  0  0  0  0  0  0  0
   -0.5330   -5.3649   -2.1145 H   0  0  0  0  0  0  0  0  0  0  0  0
   -0.4484   -3.2628   -1.5904 C   0  0  0  0  0  0  0  0  0  0  0  0
   -1.3137   -2.9897   -2.1826 H   0  0  0  0  0  0  0  0  0  0  0  0
   -1.4018    1.0238    0.4329 C   0  0  0  0  0  0  0  0  0  0  0  0
   -2.2624    1.4585    1.1989 O   0  0  0  0  0  0  0  0  0  0  0  0
   -0.6738    1.8233   -0.3569 N   0  0  0  0  0  0  0  0  0  0  0  0
   -0.0300    1.3840   -0.9988 H   0  0  0  0  0  0  0  0  0  0  0  0
   -0.8067    3.2775   -0.4054 C   0  0  0  0  0  0  0  0  0  0  0  0
   -0.7630    3.6876    0.6050 H   0  0  0  0  0  0  0  0  0  0  0  0
   -0.0023    3.7088   -1.0035 H   0  0  0  0  0  0  0  0  0  0  0  0
   -1.7684    3.5438   -0.8489 H   0  0  0  0  0  0  0  0  0  0  0  0
  5  6  2  0  0  0  0
  5  7  1  0  0  0  0
  2  3  1  0  0  0  0
  2  4  1  0  0  0  0
  2  5  1  0  0  0  0
  1  2  1  0  0  0  0
 26 27  2  0  0  0  0
 26 28  1  0  0  0  0
 24 25  1  0  0  0  0
 22 23  1  0  0  0  0
 22 24  2  0  0  0  0
 20 21  1  0  0  0  0
 19 20  1  0  0  0  0
 19 22  1  0  0  0  0
 17 18  1  0  0  0  0
 17 19  2  0  0  0  0
 15 16  1  0  0  0  0
 15 17  1  0  0  0  0
 14 15  2  0  0  0  0
 14 24  1  0  0  0  0
 11 12  1  0  0  0  0
 11 13  1  0  0  0  0
 11 14  1  0  0  0  0
  9 10  1  0  0  0  0
  9 11  1  0  0  0  0
  9 26  1  0  0  0  0
  7  8  1  0  0  0  0
  7  9  1  0  0  0  0
 30 31  1  0  0  0  0
 30 32  1  0  0  0  0
 30 33  1  0  0  0  0
 28 29  1  0  0  0  0
 28 30  1  0  0  0  0
M  END
$$$$
default_name
  -OEChem-01062215323D

 33 33  0     1  0  0  0  0  0999 V2000
   -4.0702   -3.8485    1.4554 H   0  0  0  0  0  0  0  0  0  0  0  0
   -4.0012   -2.9605    0.8284 C   0  0  0  0  0  0  0  0  0  0  0  0
   -4.7652   -2.2435    1.1234 H   0  0  0  0  0  0  0  0  0  0  0  0
   -4.1352   -3.2385   -0.2156 H   0  0  0  0  0  0  0  0  0  0  0  0
   -2.6362   -2.3395    1.0094 C   0  0  0  0  0  0  0  0  0  0  0  0
   -1.8292   -2.8395    1.7814 O   0  0  0  0  0  0  0  0  0  0  0  0
   -2.3832   -1.2445    0.2964 N   0  0  0  0  0  0  0  0  0  0  0  0
   -3.1102   -0.8685   -0.2946 H   0  0  0  0  0  0  0  0  0  0  0  0
   -1.1292   -0.4875    0.3524 C   0  0  1  0  0  0  0  0  0  0  0  0
   -0.5898   -0.7762    1.2552 H   0  0  0  0  0  0  0  0  0  0  0  0
   -0.2608   -0.8470   -0.8656 C   0  0  0  0  0  0  0  0  0  0  0  0
   -0.8454   -0.6971   -1.7742 H   0  0  0  0  0  0  0  0  0  0  0  0
    0.5892   -0.1639   -0.9075 H   0  0  0  0  0  0  0  0  0  0  0  0
    0.2439   -2.2770   -0.8610 C   0  0  0  0  0  0  0  0  0  0  0  0
    1.3738   -2.6302   -0.0962 C   0  0  0  0  0  0  0  0  0  0  0  0
    1.9013   -1.8744    0.4709 H   0  0  0  0  0  0  0  0  0  0  0  0
    1.8145   -3.9675   -0.0632 C   0  0  0  0  0  0  0  0  0  0  0  0
    2.6809   -4.2341    0.5223 H   0  0  0  0  0  0  0  0  0  0  0  0
    1.1202   -4.9556   -0.7949 C   0  0  0  0  0  0  0  0  0  0  0  0
    1.5355   -6.2486   -0.7673 O   0  0  0  0  0  0  0  0  0  0  0  0
    2.3611   -6.3526   -0.2925 H   0  0  0  0  0  0  0  0  0  0  0  0
   -0.0131   -4.6012   -1.5558 C   0  0  0  0  0  0  0  0  0  0  0  0
   -0.5330   -5.3649   -2.1145 H   0  0  0  0  0  0  0  0  0  0  0  0
   -0.4484   -3.2628   -1.5904 C   0  0  0  0  0  0  0  0  0  0  0  0
   -1.3137   -2.9897   -2.1826 H   0  0  0  0  0  0  0  0  0  0  0  0
   -1.4018    1.0238    0.4329 C   0  0  0  0  0  0  0  0  0  0  0  0
   -2.0479    1.4879    1.3728 O   0  0  0  0  0  0  0  0  0  0  0  0
   -0.9141    1.7903   -0.5508 N   0  0  0  0  0  0  0  0  0  0  0  0
   -0.4460    1.3259   -1.3154 H   0  0  0  0  0  0  0  0  0  0  0  0
   -1.0833    3.2395   -0.6279 C   0  0  0  0  0  0  0  0  0  0  0  0
   -0.7923    3.6976    0.3190 H   0  0  0  0  0  0  0  0  0  0  0  0
   -0.4658    3.6479   -1.4296 H   0  0  0  0  0  0  0  0  0  0  0  0
   -2.1310    3.4771   -0.8232 H   0  0  0  0  0  0  0  0  0  0  0  0
  5  6  2  0  0  0  0
  5  7  1  0  0  0  0
  2  3  1  0  0  0  0
  2  4  1  0  0  0  0
  2  5  1  0  0  0  0
  1  2  1  0  0  0  0
 26 27  2  0  0  0  0
 26 28  1  0  0  0  0
 24 25  1  0  0  0  0
 22 23  1  0  0  0  0
 22 24  2  0  0  0  0
 20 21  1  0  0  0  0
 19 20  1  0  0  0  0
 19 22  1  0  0  0  0
 17 18  1  0  0  0  0
 17 19  2  0  0  0  0
 15 16  1  0  0  0  0
 15 17  1  0  0  0  0
 14 15  2  0  0  0  0
 14 24  1  0  0  0  0
 11 12  1  0  0  0  0
 11 13  1  0  0  0  0
 11 14  1  0  0  0  0
  9 10  1  0  0  0  0
  9 11  1  0  0  0  0
  9 26  1  0  0  0  0
  7  8  1  0  0  0  0
  7  9  1  0  0  0  0
 30 31  1  0  0  0  0
 30 32  1  0  0  0  0
 30 33  1  0  0  0  0
 28 29  1  0  0  0  0
 28 30  1  0  0  0  0
M  END
$$$$
default_name
  -OEChem-01062215323D

 33 33  0     1  0  0  0  0  0999 V2000
   -4.0702   -3.8485    1.4554 H   0  0  0  0  0  0  0  0  0  0  0  0
   -4.0012   -2.9605    0.8284 C   0  0  0  0  0  0  0  0  0  0  0  0
   -4.7652   -2.2435    1.1234 H   0  0  0  0  0  0  0  0  0  0  0  0
   -4.1352   -3.2385   -0.2156 H   0  0  0  0  0  0  0  0  0  0  0  0
   -2.6362   -2.3395    1.0094 C   0  0  0  0  0  0  0  0  0  0  0  0
   -1.8292   -2.8395    1.7814 O   0  0  0  0  0  0  0  0  0  0  0  0
   -2.3832   -1.2445    0.2964 N   0  0  0  0  0  0  0  0  0  0  0  0
   -3.1102   -0.8685   -0.2946 H   0  0  0  0  0  0  0  0  0  0  0  0
   -1.1292   -0.4875    0.3524 C   0  0  1  0  0  0  0  0  0  0  0  0
   -0.5898   -0.7762    1.2552 H   0  0  0  0  0  0  0  0  0  0  0  0
   -0.2608   -0.8470   -0.8656 C   0  0  0  0  0  0  0  0  0  0  0  0
   -0.8454   -0.6971   -1.7742 H   0  0  0  0  0  0  0  0  0  0  0  0
    0.5892   -0.1639   -0.9075 H   0  0  0  0  0  0  0  0  0  0  0  0
    0.2439   -2.2770   -0.8610 C   0  0  0  0  0  0  0  0  0  0  0  0
    1.3738   -2.6302   -0.0962 C   0  0  0  0  0  0  0  0  0  0  0  0
    1.9013   -1.8744    0.4709 H   0  0  0  0  0  0  0  0  0  0  0  0
    1.8145   -3.9675   -0.0632 C   0  0  0  0  0  0  0  0  0  0  0  0
    2.6809   -4.2341    0.5223 H   0  0  0  0  0  0  0  0  0  0  0  0
    1.1202   -4.9556   -0.7949 C   0  0  0  0  0  0  0  0  0  0  0  0
    1.5355   -6.2486   -0.7673 O   0  0  0  0  0  0  0  0  0  0  0  0
    2.3611   -6.3526   -0.2925 H   0  0  0  0  0  0  0  0  0  0  0  0
   -0.0131   -4.6012   -1.5558 C   0  0  0  0  0  0  0  0  0  0  0  0
   -0.5330   -5.3649   -2.1145 H   0  0  0  0  0  0  0  0  0  0  0  0
   -0.4484   -3.2628   -1.5904 C   0  0  0  0  0  0  0  0  0  0  0  0
   -1.3137   -2.9897   -2.1826 H   0  0  0  0  0  0  0  0  0  0  0  0
   -1.4018    1.0238    0.4329 C   0  0  0  0  0  0  0  0  0  0  0  0
   -1.7968    1.5272    1.4850 O   0  0  0  0  0  0  0  0  0  0  0  0
   -1.1950    1.7463   -0.6754 N   0  0  0  0  0  0  0  0  0  0  0  0
   -0.9276    1.2495   -1.5127 H   0  0  0  0  0  0  0  0  0  0  0  0
   -1.4065    3.1888   -0.7707 C   0  0  0  0  0  0  0  0  0  0  0  0
   -0.8935    3.6937    0.0497 H   0  0  0  0  0  0  0  0  0  0  0  0
   -1.0210    3.5633   -1.7204 H   0  0  0  0  0  0  0  0  0  0  0  0
   -2.4739    3.4088   -0.7030 H   0  0  0  0  0  0  0  0  0  0  0  0
  5  6  2  0  0  0  0
  5  7  1  0  0  0  0
  2  3  1  0  0  0  0
  2  4  1  0  0  0  0
  2  5  1  0  0  0  0
  1  2  1  0  0  0  0
 26 27  2  0  0  0  0
 26 28  1  0  0  0  0
 24 25  1  0  0  0  0
 22 23  1  0  0  0  0
 22 24  2  0  0  0  0
 20 21  1  0  0  0  0
 19 20  1  0  0  0  0
 19 22  1  0  0  0  0
 17 18  1  0  0  0  0
 17 19  2  0  0  0  0
 15 16  1  0  0  0  0
 15 17  1  0  0  0  0
 14 15  2  0  0  0  0
 14 24  1  0  0  0  0
 11 12  1  0  0  0  0
 11 13  1  0  0  0  0
 11 14  1  0  0  0  0
  9 10  1  0  0  0  0
  9 11  1  0  0  0  0
  9 26  1  0  0  0  0
  7  8  1  0  0  0  0
  7  9  1  0  0  0  0
 30 31  1  0  0  0  0
 30 32  1  0  0  0  0
 30 33  1  0  0  0  0
 28 29  1  0  0  0  0
 28 30  1  0  0  0  0
M  END
$$$$
default_name
  -OEChem-01062215323D

 33 33  0     1  0  0  0  0  0999 V2000
   -4.0702   -3.8485    1.4554 H   0  0  0  0  0  0  0  0  0  0  0  0
   -4.0012   -2.9605    0.8284 C   0  0  0  0  0  0  0  0  0  0  0  0
   -4.7652   -2.2435    1.1234 H   0  0  0  0  0  0  0  0  0  0  0  0
   -4.1352   -3.2385   -0.2156 H   0  0  0  0  0  0  0  0  0  0  0  0
   -2.6362   -2.3395    1.0094 C   0  0  0  0  0  0  0  0  0  0  0  0
   -1.8292   -2.8395    1.7814 O   0  0  0  0  0  0  0  0  0  0  0  0
   -2.3832   -1.2445    0.2964 N   0  0  0  0  0  0  0  0  0  0  0  0
   -3.1102   -0.8685   -0.2946 H   0  0  0  0  0  0  0  0  0  0  0  0
   -1.1292   -0.4875    0.3524 C   0  0  1  0  0  0  0  0  0  0  0  0
   -0.5898   -0.7762    1.2552 H   0  0  0  0  0  0  0  0  0  0  0  0
   -0.2608   -0.8470   -0.8656 C   0  0  0  0  0  0  0  0  0  0  0  0
   -0.8454   -0.6971   -1.7742 H   0  0  0  0  0  0  0  0  0  0  0  0
    0.5892   -0.1639   -0.9075 H   0  0  0  0  0  0  0  0  0  0  0  0
    0.2439   -2.2770   -0.8610 C   0  0  0  0  0  0  0  0  0  0  0  0
    1.3738   -2.6302   -0.0962 C   0  0  0  0  0  0  0  0  0  0  0  0
    1.9013   -1.8744    0.4709 H   0  0  0  0  0  0  0  0  0  0  0  0
    1.8145   -3.9675   -0.0632 C   0  0  0  0  0  0  0  0  0  0  0  0
    2.6809   -4.2341    0.5223 H   0  0  0  0  0  0  0  0  0  0  0  0
    1.1202   -4.9556   -0.7949 C   0  0  0  0  0  0  0  0  0  0  0  0
    1.5355   -6.2486   -0.7673 O   0  0  0  0  0  0  0  0  0  0  0  0
    2.3611   -6.3526   -0.2925 H   0  0  0  0  0  0  0  0  0  0  0  0
   -0.0131   -4.6012   -1.5558 C   0  0  0  0  0  0  0  0  0  0  0  0
   -0.5330   -5.3649   -2.1145 H   0  0  0  0  0  0  0  0  0  0  0  0
   -0.4484   -3.2628   -1.5904 C   0  0  0  0  0  0  0  0  0  0  0  0
   -1.3137   -2.9897   -2.1826 H   0  0  0  0  0  0  0  0  0  0  0  0
   -1.4018    1.0238    0.4329 C   0  0  0  0  0  0  0  0  0  0  0  0
   -1.5263    1.5737    1.5276 O   0  0  0  0  0  0  0  0  0  0  0  0
   -1.4975    1.6942   -0.7222 N   0  0  0  0  0  0  0  0  0  0  0  0
   -1.4419    1.1602   -1.5774 H   0  0  0  0  0  0  0  0  0  0  0  0
   -1.7543    3.1290   -0.8242 C   0  0  0  0  0  0  0  0  0  0  0  0
   -1.0596    3.6762   -0.1845 H   0  0  0  0  0  0  0  0  0  0  0  0
   -1.6301    3.4607   -1.8563 H   0  0  0  0  0  0  0  0  0  0  0  0
   -2.7736    3.3438   -0.4966 H   0  0  0  0  0  0  0  0  0  0  0  0
  5  6  2  0  0  0  0
  5  7  1  0  0  0  0
  2  3  1  0  0  0  0
  2  4  1  0  0  0  0
  2  5  1  0  0  0  0
  1  2  1  0  0  0  0
 26 27  2  0  0  0  0
 26 28  1  0  0  0  0
 24 25  1  0  0  0  0
 22 23  1  0  0  0  0
 22 24  2  0  0  0  0
 20 21  1  0  0  0  0
 19 20  1  0  0  0  0
 19 22  1  0  0  0  0
 17 18  1  0  0  0  0
 17 19  2  0  0  0  0
 15 16  1  0  0  0  0
 15 17  1  0  0  0  0
 14 15  2  0  0  0  0
 14 24  1  0  0  0  0
 11 12  1  0  0  0  0
 11 13  1  0  0  0  0
 11 14  1  0  0  0  0
  9 10  1  0  0  0  0
  9 11  1  0  0  0  0
  9 26  1  0  0  0  0
  7  8  1  0  0  0  0
  7  9  1  0  0  0  0
 30 31  1  0  0  0  0
 30 32  1  0  0  0  0
 30 33  1  0  0  0  0
 28 29  1  0  0  0  0
 28 30  1  0  0  0  0
M  END
$$$$
default_name
  -OEChem-01062215323D

 33 33  0     1  0  0  0  0  0999 V2000
   -4.0702   -3.8485    1.4554 H   0  0  0  0  0  0  0  0  0  0  0  0
   -4.0012   -2.9605    0.8284 C   0  0  0  0  0  0  0  0  0  0  0  0
   -4.7652   -2.2435    1.1234 H   0  0  0  0  0  0  0  0  0  0  0  0
   -4.1352   -3.2385   -0.2156 H   0  0  0  0  0  0  0  0  0  0  0  0
   -2.6362   -2.3395    1.0094 C   0  0  0  0  0  0  0  0  0  0  0  0
   -1.8292   -2.8395    1.7814 O   0  0  0  0  0  0  0  0  0  0  0  0
   -2.3832   -1.2445    0.2964 N   0  0  0  0  0  0  0  0  0  0  0  0
   -3.1102   -0.8685   -0.2946 H   0  0  0  0  0  0  0  0  0  0  0  0
   -1.1292   -0.4875    0.3524 C   0  0  1  0  0  0  0  0  0  0  0  0
   -0.5898   -0.7762    1.2552 H   0  0  0  0  0  0  0  0  0  0  0  0
   -0.2608   -0.8470   -0.8656 C   0  0  0  0  0  0  0  0  0  0  0  0
   -0.8454   -0.6971   -1.7742 H   0  0  0  0  0  0  0  0  0  0  0  0
    0.5892   -0.1639   -0.9075 H   0  0  0  0  0  0  0  0  0  0  0  0
    0.2439   -2.2770   -0.8610 C   0  0  0  0  0  0  0  0  0  0  0  0
    1.3738   -2.6302   -0.0962 C   0  0  0  0  0  0  0  0  0  0  0  0
    1.9013   -1.8744    0.4709 H   0  0  0  0  0  0  0  0  0  0  0  0
    1.8145   -3.9675   -0.0632 C   0  0  0  0  0  0  0  0  0  0  0  0
    2.6809   -4.2341    0.5223 H   0  0  0  0  0  0  0  0  0  0  0  0
    1.1202   -4.9556   -0.7949 C   0  0  0  0  0  0  0  0  0  0  0  0
    1.5355   -6.2486   -0.7673 O   0  0  0  0  0  0  0  0  0  0  0  0
    2.3611   -6.3526   -0.2925 H   0  0  0  0  0  0  0  0  0  0  0  0
   -0.0131   -4.6012   -1.5558 C   0  0  0  0  0  0  0  0  0  0  0  0
   -0.5330   -5.3649   -2.1145 H   0  0  0  0  0  0  0  0  0  0  0  0
   -0.4484   -3.2628   -1.5904 C   0  0  0  0  0  0  0  0  0  0  0  0
   -1.3137   -2.9897   -2.1826 H   0  0  0  0  0  0  0  0  0  0  0  0
   -1.4018    1.0238    0.4329 C   0  0  0  0  0  0  0  0  0  0  0  0
   -1.2548    1.6242    1.4979 O   0  0  0  0  0  0  0  0  0  0  0  0
   -1.8009    1.6377   -0.6882 N   0  0  0  0  0  0  0  0  0  0  0  0
   -1.9539    1.0640   -1.5048 H   0  0  0  0  0  0  0  0  0  0  0  0
   -2.1031    3.0639   -0.7845 C   0  0  0  0  0  0  0  0  0  0  0  0
   -1.2795    3.6463   -0.3677 H   0  0  0  0  0  0  0  0  0  0  0  0
   -2.2516    3.3471   -1.8279 H   0  0  0  0  0  0  0  0  0  0  0  0
   -3.0097    3.2864   -0.2180 H   0  0  0  0  0  0  0  0  0  0  0  0
  5  6  2  0  0  0  0
  5  7  1  0  0  0  0
  2  3  1  0  0  0  0
  2  4  1  0  0  0  0
  2  5  1  0  0  0  0
  1  2  1  0  0  0  0
 26 27  2  0  0  0  0
 26 28  1  0  0  0  0
 24 25  1  0  0  0  0
 22 23  1  0  0  0  0
 22 24  2  0  0  0  0
 20 21  1  0  0  0  0
 19 20  1  0  0  0  0
 19 22  1  0  0  0  0
 17 18  1  0  0  0  0
 17 19  2  0  0  0  0
 15 16  1  0  0  0  0
 15 17  1  0  0  0  0
 14 15  2  0  0  0  0
 14 24  1  0  0  0  0
 11 12  1  0  0  0  0
 11 13  1  0  0  0  0
 11 14  1  0  0  0  0
  9 10  1  0  0  0  0
  9 11  1  0  0  0  0
  9 26  1  0  0  0  0
  7  8  1  0  0  0  0
  7  9  1  0  0  0  0
 30 31  1  0  0  0  0
 30 32  1  0  0  0  0
 30 33  1  0  0  0  0
 28 29  1  0  0  0  0
 28 30  1  0  0  0  0
M  END
$$$$
default_name
  -OEChem-01062215323D

 33 33  0     1  0  0  0  0  0999 V2000
   -4.0702   -3.8485    1.4554 H   0  0  0  0  0  0  0  0  0  0  0  0
   -4.0012   -2.9605    0.8284 C   0  0  0  0  0  0  0  0  0  0  0  0
   -4.7652   -2.2435    1.1234 H   0  0  0  0  0  0  0  0  0  0  0  0
   -4.1352   -3.2385   -0.2156 H   0  0  0  0  0  0  0  0  0  0  0  0
   -2.6362   -2.3395    1.0094 C   0  0  0  0  0  0  0  0  0  0  0  0
   -1.8292   -2.8395    1.7814 O   0  0  0  0  0  0  0  0  0  0  0  0
   -2.3832   -1.2445    0.2964 N   0  0  0  0  0  0  0  0  0  0  0  0
   -3.1102   -0.8685   -0.2946 H   0  0  0  0  0  0  0  0  0  0  0  0
   -1.1292   -0.4875    0.3524 C   0  0  1  0  0  0  0  0  0  0  0  0
   -0.5898   -0.7762    1.2552 H   0  0  0  0  0  0  0  0  0  0  0  0
   -0.2608   -0.8470   -0.8656 C   0  0  0  0  0  0  0  0  0  0  0  0
   -0.8454   -0.6971   -1.7742 H   0  0  0  0  0  0  0  0  0  0  0  0
    0.5892   -0.1639   -0.9075 H   0  0  0  0  0  0  0  0  0  0  0  0
    0.2439   -2.2770   -0.8610 C   0  0  0  0  0  0  0  0  0  0  0  0
    1.3738   -2.6302   -0.0962 C   0  0  0  0  0  0  0  0  0  0  0  0
    1.9013   -1.8744    0.4709 H   0  0  0  0  0  0  0  0  0  0  0  0
    1.8145   -3.9675   -0.0632 C   0  0  0  0  0  0  0  0  0  0  0  0
    2.6809   -4.2341    0.5223 H   0  0  0  0  0  0  0  0  0  0  0  0
    1.1202   -4.9556   -0.7949 C   0  0  0  0  0  0  0  0  0  0  0  0
    1.5355   -6.2486   -0.7673 O   0  0  0  0  0  0  0  0  0  0  0  0
    2.3611   -6.3526   -0.2925 H   0  0  0  0  0  0  0  0  0  0  0  0
   -0.0131   -4.6012   -1.5558 C   0  0  0  0  0  0  0  0  0  0  0  0
   -0.5330   -5.3649   -2.1145 H   0  0  0  0  0  0  0  0  0  0  0  0
   -0.4484   -3.2628   -1.5904 C   0  0  0  0  0  0  0  0  0  0  0  0
   -1.3137   -2.9897   -2.1826 H   0  0  0  0  0  0  0  0  0  0  0  0
   -1.4018    1.0238    0.4329 C   0  0  0  0  0  0  0  0  0  0  0  0
   -1.0008    1.6754    1.3978 O   0  0  0  0  0  0  0  0  0  0  0  0
   -2.0845    1.5806   -0.5755 N   0  0  0  0  0  0  0  0  0  0  0  0
   -2.4288    0.9675   -1.3002 H   0  0  0  0  0  0  0  0  0  0  0  0
   -2.4290    2.9982   -0.6546 C   0  0  0  0  0  0  0  0  0  0  0  0
   -1.5381    3.6060   -0.4874 H   0  0  0  0  0  0  0  0  0  0  0  0
   -2.8432    3.2302   -1.6371 H   0  0  0  0  0  0  0  0  0  0  0  0
   -3.1661    3.2405    0.1138 H   0  0  0  0  0  0  0  0  0  0  0  0
  5  6  2  0  0  0  0
  5  7  1  0  0  0  0
  2  3  1  0  0  0  0
  2  4  1  0  0  0  0
  2  5  1  0  0  0  0
  1  2  1  0  0  0  0
 26 27  2  0  0  0  0
 26 28  1  0  0  0  0
 24 25  1  0  0  0  0
 22 23  1  0  0  0  0
 22 24  2  0  0  0  0
 20 21  1  0  0  0  0
 19 20  1  0  0  0  0
 19 22  1  0  0  0  0
 17 18  1  0  0  0  0
 17 19  2  0  0  0  0
 15 16  1  0  0  0  0
 15 17  1  0  0  0  0
 14 15  2  0  0  0  0
 14 24  1  0  0  0  0
 11 12  1  0  0  0  0
 11 13  1  0  0  0  0
 11 14  1  0  0  0  0
  9 10  1  0  0  0  0
  9 11  1  0  0  0  0
  9 26  1  0  0  0  0
  7  8  1  0  0  0  0
  7  9  1  0  0  0  0
 30 31  1  0  0  0  0
 30 32  1  0  0  0  0
 30 33  1  0  0  0  0
 28 29  1  0  0  0  0
 28 30  1  0  0  0  0
M  END
$$$$
default_name
  -OEChem-01062215323D

 33 33  0     1  0  0  0  0  0999 V2000
   -4.0702   -3.8485    1.4554 H   0  0  0  0  0  0  0  0  0  0  0  0
   -4.0012   -2.9605    0.8284 C   0  0  0  0  0  0  0  0  0  0  0  0
   -4.7652   -2.2435    1.1234 H   0  0  0  0  0  0  0  0  0  0  0  0
   -4.1352   -3.2385   -0.2156 H   0  0  0  0  0  0  0  0  0  0  0  0
   -2.6362   -2.3395    1.0094 C   0  0  0  0  0  0  0  0  0  0  0  0
   -1.8292   -2.8395    1.7814 O   0  0  0  0  0  0  0  0  0  0  0  0
   -2.3832   -1.2445    0.2964 N   0  0  0  0  0  0  0  0  0  0  0  0
   -3.1102   -0.8685   -0.2946 H   0  0  0  0  0  0  0  0  0  0  0  0
   -1.1292   -0.4875    0.3524 C   0  0  1  0  0  0  0  0  0  0  0  0
   -0.5898   -0.7762    1.2552 H   0  0  0  0  0  0  0  0  0  0  0  0
   -0.2608   -0.8470   -0.8656 C   0  0  0  0  0  0  0  0  0  0  0  0
   -0.8454   -0.6971   -1.7742 H   0  0  0  0  0  0  0  0  0  0  0  0
    0.5892   -0.1639   -0.9075 H   0  0  0  0  0  0  0  0  0  0  0  0
    0.2439   -2.2770   -0.8610 C   0  0  0  0  0  0  0  0  0  0  0  0
    1.3738   -2.6302   -0.0962 C   0  0  0  0  0  0  0  0  0  0  0  0
    1.9013   -1.8744    0.4709 H   0  0  0  0  0  0  0  0  0  0  0  0
    1.8145   -3.9675   -0.0632 C   0  0  0  0  0  0  0  0  0  0  0  0
    2.6809   -4.2341    0.5223 H   0  0  0  0  0  0  0  0  0  0  0  0
    1.1202   -4.9556   -0.7949 C   0  0  0  0  0  0  0  0  0  0  0  0
    1.5355   -6.2486   -0.7673 O   0  0  0  0  0  0  0  0  0  0  0  0
    2.3611   -6.3526   -0.2925 H   0  0  0  0  0  0  0  0  0  0  0  0
   -0.0131   -4.6012   -1.5558 C   0  0  0  0  0  0  0  0  0  0  0  0
   -0.5330   -5.3649   -2.1145 H   0  0  0  0  0  0  0  0  0  0  0  0
   -0.4484   -3.2628   -1.5904 C   0  0  0  0  0  0  0  0  0  0  0  0
   -1.3137   -2.9897   -2.1826 H   0  0  0  0  0  0  0  0  0  0  0  0
   -1.4018    1.0238    0.4329 C   0  0  0  0  0  0  0  0  0  0  0  0
   -0.7817    1.7236    1.2341 O   0  0  0  0  0  0  0  0  0  0  0  0
   -2.3290    1.5267   -0.3920 N   0  0  0  0  0  0  0  0  0  0  0  0
   -2.8341    0.8772   -0.9772 H   0  0  0  0  0  0  0  0  0  0  0  0
   -2.7098    2.9363   -0.4431 C   0  0  0  0  0  0  0  0  0  0  0  0
   -1.8177    3.5582   -0.5353 H   0  0  0  0  0  0  0  0  0  0  0  0
   -3.3645    3.1181   -1.2970 H   0  0  0  0  0  0  0  0  0  0  0  0
   -3.2321    3.2092    0.4762 H   0  0  0  0  0  0  0  0  0  0  0  0
  5  6  2  0  0  0  0
  5  7  1  0  0  0  0
  2  3  1  0  0  0  0
  2  4  1  0  0  0  0
  2  5  1  0  0  0  0
  1  2  1  0  0  0  0
 26 27  2  0  0  0  0
 26 28  1  0  0  0  0
 24 25  1  0  0  0  0
 22 23  1  0  0  0  0
 22 24  2  0  0  0  0
 20 21  1  0  0  0  0
 19 20  1  0  0  0  0
 19 22  1  0  0  0  0
 17 18  1  0  0  0  0
 17 19  2  0  0  0  0
 15 16  1  0  0  0  0
 15 17  1  0  0  0  0
 14 15  2  0  0  0  0
 14 24  1  0  0  0  0
 11 12  1  0  0  0  0
 11 13  1  0  0  0  0
 11 14  1  0  0  0  0
  9 10  1  0  0  0  0
  9 11  1  0  0  0  0
  9 26  1  0  0  0  0
  7  8  1  0  0  0  0
  7  9  1  0  0  0  0
 30 31  1  0  0  0  0
 30 32  1  0  0  0  0
 30 33  1  0  0  0  0
 28 29  1  0  0  0  0
 28 30  1  0  0  0  0
M  END
$$$$
default_name
  -OEChem-01062215323D

 33 33  0     1  0  0  0  0  0999 V2000
   -4.0702   -3.8485    1.4554 H   0  0  0  0  0  0  0  0  0  0  0  0
   -4.0012   -2.9605    0.8284 C   0  0  0  0  0  0  0  0  0  0  0  0
   -4.7652   -2.2435    1.1234 H   0  0  0  0  0  0  0  0  0  0  0  0
   -4.1352   -3.2385   -0.2156 H   0  0  0  0  0  0  0  0  0  0  0  0
   -2.6362   -2.3395    1.0094 C   0  0  0  0  0  0  0  0  0  0  0  0
   -1.8292   -2.8395    1.7814 O   0  0  0  0  0  0  0  0  0  0  0  0
   -2.3832   -1.2445    0.2964 N   0  0  0  0  0  0  0  0  0  0  0  0
   -3.1102   -0.8685   -0.2946 H   0  0  0  0  0  0  0  0  0  0  0  0
   -1.1292   -0.4875    0.3524 C   0  0  1  0  0  0  0  0  0  0  0  0
   -0.5898   -0.7762    1.2552 H   0  0  0  0  0  0  0  0  0  0  0  0
   -0.2608   -0.8470   -0.8656 C   0  0  0  0  0  0  0  0  0  0  0  0
   -0.8454   -0.6971   -1.7742 H   0  0  0  0  0  0  0  0  0  0  0  0
    0.5892   -0.1639   -0.9075 H   0  0  0  0  0  0  0  0  0  0  0  0
    0.2439   -2.2770   -0.8610 C   0  0  0  0  0  0  0  0  0  0  0  0
    1.3738   -2.6302   -0.0962 C   0  0  0  0  0  0  0  0  0  0  0  0
    1.9013   -1.8744    0.4709 H   0  0  0  0  0  0  0  0  0  0  0  0
    1.8145   -3.9675   -0.0632 C   0  0  0  0  0  0  0  0  0  0  0  0
    2.6809   -4.2341    0.5223 H   0  0  0  0  0  0  0  0  0  0  0  0
    1.1202   -4.9556   -0.7949 C   0  0  0  0  0  0  0  0  0  0  0  0
    1.5355   -6.2486   -0.7673 O   0  0  0  0  0  0  0  0  0  0  0  0
    2.3611   -6.3526   -0.2925 H   0  0  0  0  0  0  0  0  0  0  0  0
   -0.0131   -4.6012   -1.5558 C   0  0  0  0  0  0  0  0  0  0  0  0
   -0.5330   -5.3649   -2.1145 H   0  0  0  0  0  0  0  0  0  0  0  0
   -0.4484   -3.2628   -1.5904 C   0  0  0  0  0  0  0  0  0  0  0  0
   -1.3137   -2.9897   -2.1826 H   0  0  0  0  0  0  0  0  0  0  0  0
   -1.4018    1.0238    0.4329 C   0  0  0  0  0  0  0  0  0  0  0  0
   -0.6122    1.7657    1.0181 O   0  0  0  0  0  0  0  0  0  0  0  0
   -2.5178    1.4797   -0.1500 N   0  0  0  0  0  0  0  0  0  0  0  0
   -3.1422    0.7993   -0.5581 H   0  0  0  0  0  0  0  0  0  0  0  0
   -2.9265    2.8824   -0.1646 C   0  0  0  0  0  0  0  0  0  0  0  0
   -2.0993    3.5059   -0.5083 H   0  0  0  0  0  0  0  0  0  0  0  0
   -3.7800    3.0183   -0.8308 H   0  0  0  0  0  0  0  0  0  0  0  0
   -3.2033    3.1948    0.8444 H   0  0  0  0  0  0  0  0  0  0  0  0
  5  6  2  0  0  0  0
  5  7  1  0  0  0  0
  2  3  1  0  0  0  0
  2  4  1  0  0  0  0
  2  5  1  0  0  0  0
  1  2  1  0  0  0  0
 26 27  2  0  0  0  0
 26 28  1  0  0  0  0
 24 25  1  0  0  0  0
 22 23  1  0  0  0  0
 22 24  2  0  0  0  0
 20 21  1  0  0  0  0
 19 20  1  0  0  0  0
 19 22  1  0  0  0  0
 17 18  1  0  0  0  0
 17 19  2  0  0  0  0
 15 16  1  0  0  0  0
 15 17  1  0  0  0  0
 14 15  2  0  0  0  0
 14 24  1  0  0  0  0
 11 12  1  0  0  0  0
 11 13  1  0  0  0  0
 11 14  1  0  0  0  0
  9 10  1  0  0  0  0
  9 11  1  0  0  0  0
  9 26  1  0  0  0  0
  7  8  1  0  0  0  0
  7  9  1  0  0  0  0
 30 31  1  0  0  0  0
 30 32  1  0  0  0  0
 30 33  1  0  0  0  0
 28 29  1  0  0  0  0
 28 30  1  0  0  0  0
M  END
$$$$
default_name
  -OEChem-01062215323D

 33 33  0     1  0  0  0  0  0999 V2000
   -4.0702   -3.8485    1.4554 H   0  0  0  0  0  0  0  0  0  0  0  0
   -4.0012   -2.9605    0.8284 C   0  0  0  0  0  0  0  0  0  0  0  0
   -4.7652   -2.2435    1.1234 H   0  0  0  0  0  0  0  0  0  0  0  0
   -4.1352   -3.2385   -0.2156 H   0  0  0  0  0  0  0  0  0  0  0  0
   -2.6362   -2.3395    1.0094 C   0  0  0  0  0  0  0  0  0  0  0  0
   -1.8292   -2.8395    1.7814 O   0  0  0  0  0  0  0  0  0  0  0  0
   -2.3832   -1.2445    0.2964 N   0  0  0  0  0  0  0  0  0  0  0  0
   -3.1102   -0.8685   -0.2946 H   0  0  0  0  0  0  0  0  0  0  0  0
   -1.1292   -0.4875    0.3524 C   0  0  1  0  0  0  0  0  0  0  0  0
   -0.5898   -0.7762    1.2552 H   0  0  0  0  0  0  0  0  0  0  0  0
   -0.2608   -0.8470   -0.8656 C   0  0  0  0  0  0  0  0  0  0  0  0
   -0.8454   -0.6971   -1.7742 H   0  0  0  0  0  0  0  0  0  0  0  0
    0.5892   -0.1639   -0.9075 H   0  0  0  0  0  0  0  0  0  0  0  0
    0.2439   -2.2770   -0.8610 C   0  0  0  0  0  0  0  0  0  0  0  0
    1.3738   -2.6302   -0.0962 C   0  0  0  0  0  0  0  0  0  0  0  0
    1.9013   -1.8744    0.4709 H   0  0  0  0  0  0  0  0  0  0  0  0
    1.8145   -3.9675   -0.0632 C   0  0  0  0  0  0  0  0  0  0  0  0
    2.6809   -4.2341    0.5223 H   0  0  0  0  0  0  0  0  0  0  0  0
    1.1202   -4.9556   -0.7949 C   0  0  0  0  0  0  0  0  0  0  0  0
    1.5355   -6.2486   -0.7673 O   0  0  0  0  0  0  0  0  0  0  0  0
    2.3611   -6.3526   -0.2925 H   0  0  0  0  0  0  0  0  0  0  0  0
   -0.0131   -4.6012   -1.5558 C   0  0  0  0  0  0  0  0  0  0  0  0
   -0.5330   -5.3649   -2.1145 H   0  0  0  0  0  0  0  0  0  0  0  0
   -0.4484   -3.2628   -1.5904 C   0  0  0  0  0  0  0  0  0  0  0  0
   -1.3137   -2.9897   -2.1826 H   0  0  0  0  0  0  0  0  0  0  0  0
   -1.4018    1.0238    0.4329 C   0  0  0  0  0  0  0  0  0  0  0  0
   -0.5041    1.7987    0.7644 O   0  0  0  0  0  0  0  0  0  0  0  0
   -2.6379    1.4429    0.1339 N   0  0  0  0  0  0  0  0  0  0  0  0
   -3.3321    0.7391   -0.0712 H   0  0  0  0  0  0  0  0  0  0  0  0
   -3.0642    2.8402    0.1620 C   0  0  0  0  0  0  0  0  0  0  0  0
   -2.3638    3.4529   -0.4082 H   0  0  0  0  0  0  0  0  0  0  0  0
   -4.0615    2.9376   -0.2701 H   0  0  0  0  0  0  0  0  0  0  0  0
   -3.0817    3.1982    1.1935 H   0  0  0  0  0  0  0  0  0  0  0  0
  5  6  2  0  0  0  0
  5  7  1  0  0  0  0
  2  3  1  0  0  0  0
  2  4  1  0  0  0  0
  2  5  1  0  0  0  0
  1  2  1  0  0  0  0
 26 27  2  0  0  0  0
 26 28  1  0  0  0  0
 24 25  1  0  0  0  0
 22 23  1  0  0  0  0
 22 24  2  0  0  0  0
 20 21  1  0  0  0  0
 19 20  1  0  0  0  0
 19 22  1  0  0  0  0
 17 18  1  0  0  0  0
 17 19  2  0  0  0  0
 15 16  1  0  0  0  0
 15 17  1  0  0  0  0
 14 15  2  0  0  0  0
 14 24  1  0  0  0  0
 11 12  1  0  0  0  0
 11 13  1  0  0  0  0
 11 14  1  0  0  0  0
  9 10  1  0  0  0  0
  9 11  1  0  0  0  0
  9 26  1  0  0  0  0
  7  8  1  0  0  0  0
  7  9  1  0  0  0  0
 30 31  1  0  0  0  0
 30 32  1  0  0  0  0
 30 33  1  0  0  0  0
 28 29  1  0  0  0  0
 28 30  1  0  0  0  0
M  END
$$$$
default_name
  -OEChem-01062215323D

 33 33  0     1  0  0  0  0  0999 V2000
   -4.0702   -3.8485    1.4554 H   0  0  0  0  0  0  0  0  0  0  0  0
   -4.0012   -2.9605    0.8284 C   0  0  0  0  0  0  0  0  0  0  0  0
   -4.7652   -2.2435    1.1234 H   0  0  0  0  0  0  0  0  0  0  0  0
   -4.1352   -3.2385   -0.2156 H   0  0  0  0  0  0  0  0  0  0  0  0
   -2.6362   -2.3395    1.0094 C   0  0  0  0  0  0  0  0  0  0  0  0
   -1.8292   -2.8395    1.7814 O   0  0  0  0  0  0  0  0  0  0  0  0
   -2.3832   -1.2445    0.2964 N   0  0  0  0  0  0  0  0  0  0  0  0
   -3.1102   -0.8685   -0.2946 H   0  0  0  0  0  0  0  0  0  0  0  0
   -1.1292   -0.4875    0.3524 C   0  0  1  0  0  0  0  0  0  0  0  0
   -0.5898   -0.7762    1.2552 H   0  0  0  0  0  0  0  0  0  0  0  0
   -0.2608   -0.8470   -0.8656 C   0  0  0  0  0  0  0  0  0  0  0  0
   -0.8454   -0.6971   -1.7742 H   0  0  0  0  0  0  0  0  0  0  0  0
    0.5892   -0.1639   -0.9075 H   0  0  0  0  0  0  0  0  0  0  0  0
    0.2439   -2.2770   -0.8610 C   0  0  0  0  0  0  0  0  0  0  0  0
    1.3738   -2.6302   -0.0962 C   0  0  0  0  0  0  0  0  0  0  0  0
    1.9013   -1.8744    0.4709 H   0  0  0  0  0  0  0  0  0  0  0  0
    1.8145   -3.9675   -0.0632 C   0  0  0  0  0  0  0  0  0  0  0  0
    2.6809   -4.2341    0.5223 H   0  0  0  0  0  0  0  0  0  0  0  0
    1.1202   -4.9556   -0.7949 C   0  0  0  0  0  0  0  0  0  0  0  0
    1.5355   -6.2486   -0.7673 O   0  0  0  0  0  0  0  0  0  0  0  0
    2.3611   -6.3526   -0.2925 H   0  0  0  0  0  0  0  0  0  0  0  0
   -0.0131   -4.6012   -1.5558 C   0  0  0  0  0  0  0  0  0  0  0  0
   -0.5330   -5.3649   -2.1145 H   0  0  0  0  0  0  0  0  0  0  0  0
   -0.4484   -3.2628   -1.5904 C   0  0  0  0  0  0  0  0  0  0  0  0
   -1.3137   -2.9897   -2.1826 H   0  0  0  0  0  0  0  0  0  0  0  0
   -1.4018    1.0238    0.4329 C   0  0  0  0  0  0  0  0  0  0  0  0
   -0.4646    1.8204    0.4903 O   0  0  0  0  0  0  0  0  0  0  0  0
   -2.6812    1.4188    0.4404 N   0  0  0  0  0  0  0  0  0  0  0  0
   -3.3910    0.7007    0.4501 H   0  0  0  0  0  0  0  0  0  0  0  0
   -3.1136    2.8125    0.5145 C   0  0  0  0  0  0  0  0  0  0  0  0
   -2.5931    3.4027   -0.2417 H   0  0  0  0  0  0  0  0  0  0  0  0
   -4.1896    2.8817    0.3467 H   0  0  0  0  0  0  0  0  0  0  0  0
   -2.8754    3.2190    1.4995 H   0  0  0  0  0  0  0  0  0  0  0  0
  5  6  2  0  0  0  0
  5  7  1  0  0  0  0
  2  3  1  0  0  0  0
  2  4  1  0  0  0  0
  2  5  1  0  0  0  0
  1  2  1  0  0  0  0
 26 27  2  0  0  0  0
 26 28  1  0  0  0  0
 24 25  1  0  0  0  0
 22 23  1  0  0  0  0
 22 24  2  0  0  0  0
 20 21  1  0  0  0  0
 19 20  1  0  0  0  0
 19 22  1  0  0  0  0
 17 18  1  0  0  0  0
 17 19  2  0  0  0  0
 15 16  1  0  0  0  0
 15 17  1  0  0  0  0
 14 15  2  0  0  0  0
 14 24  1  0  0  0  0
 11 12  1  0  0  0  0
 11 13  1  0  0  0  0
 11 14  1  0  0  0  0
  9 10  1  0  0  0  0
  9 11  1  0  0  0  0
  9 26  1  0  0  0  0
  7  8  1  0  0  0  0
  7  9  1  0  0  0  0
 30 31  1  0  0  0  0
 30 32  1  0  0  0  0
 30 33  1  0  0  0  0
 28 29  1  0  0  0  0
 28 30  1  0  0  0  0
M  END
$$$$
default_name
  -OEChem-01062215323D

 33 33  0     1  0  0  0  0  0999 V2000
   -4.0702   -3.8485    1.4554 H   0  0  0  0  0  0  0  0  0  0  0  0
   -4.0012   -2.9605    0.8284 C   0  0  0  0  0  0  0  0  0  0  0  0
   -4.7652   -2.2435    1.1234 H   0  0  0  0  0  0  0  0  0  0  0  0
   -4.1352   -3.2385   -0.2156 H   0  0  0  0  0  0  0  0  0  0  0  0
   -2.6362   -2.3395    1.0094 C   0  0  0  0  0  0  0  0  0  0  0  0
   -1.8292   -2.8395    1.7814 O   0  0  0  0  0  0  0  0  0  0  0  0
   -2.3832   -1.2445    0.2964 N   0  0  0  0  0  0  0  0  0  0  0  0
   -3.1102   -0.8685   -0.2946 H   0  0  0  0  0  0  0  0  0  0  0  0
   -1.1292   -0.4875    0.3524 C   0  0  1  0  0  0  0  0  0  0  0  0
   -0.5898   -0.7762    1.2552 H   0  0  0  0  0  0  0  0  0  0  0  0
   -0.2608   -0.8470   -0.8656 C   0  0  0  0  0  0  0  0  0  0  0  0
   -0.8454   -0.6971   -1.7742 H   0  0  0  0  0  0  0  0  0  0  0  0
    0.5892   -0.1639   -0.9075 H   0  0  0  0  0  0  0  0  0  0  0  0
    0.2439   -2.2770   -0.8610 C   0  0  0  0  0  0  0  0  0  0  0  0
    1.3738   -2.6302   -0.0962 C   0  0  0  0  0  0  0  0  0  0  0  0
    1.9013   -1.8744    0.4709 H   0  0  0  0  0  0  0  0  0  0  0  0
    1.8145   -3.9675   -0.0632 C   0  0  0  0  0  0  0  0  0  0  0  0
    2.6809   -4.2341    0.5223 H   0  0  0  0  0  0  0  0  0  0  0  0
    1.1202   -4.9556   -0.7949 C   0  0  0  0  0  0  0  0  0  0  0  0
    1.5355   -6.2486   -0.7673 O   0  0  0  0  0  0  0  0  0  0  0  0
    2.3611   -6.3526   -0.2925 H   0  0  0  0  0  0  0  0  0  0  0  0
   -0.0131   -4.6012   -1.5558 C   0  0  0  0  0  0  0  0  0  0  0  0
   -0.5330   -5.3649   -2.1145 H   0  0  0  0  0  0  0  0  0  0  0  0
   -0.4484   -3.2628   -1.5904 C   0  0  0  0  0  0  0  0  0  0  0  0
   -1.3137   -2.9897   -2.1826 H   0  0  0  0  0  0  0  0  0  0  0  0
   -1.4018    1.0238    0.4329 C   0  0  0  0  0  0  0  0  0  0  0  0
   -0.4965    1.8294    0.2146 O   0  0  0  0  0  0  0  0  0  0  0  0
   -2.6448    1.4089    0.7486 N   0  0  0  0  0  0  0  0  0  0  0  0
   -3.3147    0.6867    0.9703 H   0  0  0  0  0  0  0  0  0  0  0  0
   -3.0712    2.8012    0.8687 C   0  0  0  0  0  0  0  0  0  0  0  0
   -2.7715    3.3587   -0.0204 H   0  0  0  0  0  0  0  0  0  0  0  0
   -4.1557    2.8542    0.9776 H   0  0  0  0  0  0  0  0  0  0  0  0
   -2.5986    3.2561    1.7417 H   0  0  0  0  0  0  0  0  0  0  0  0
  5  6  2  0  0  0  0
  5  7  1  0  0  0  0
  2  3  1  0  0  0  0
  2  4  1  0  0  0  0
  2  5  1  0  0  0  0
  1  2  1  0  0  0  0
 26 27  2  0  0  0  0
 26 28  1  0  0  0  0
 24 25  1  0  0  0  0
 22 23  1  0  0  0  0
 22 24  2  0  0  0  0
 20 21  1  0  0  0  0
 19 20  1  0  0  0  0
 19 22  1  0  0  0  0
 17 18  1  0  0  0  0
 17 19  2  0  0  0  0
 15 16  1  0  0  0  0
 15 17  1  0  0  0  0
 14 15  2  0  0  0  0
 14 24  1  0  0  0  0
 11 12  1  0  0  0  0
 11 13  1  0  0  0  0
 11 14  1  0  0  0  0
  9 10  1  0  0  0  0
  9 11  1  0  0  0  0
  9 26  1  0  0  0  0
  7  8  1  0  0  0  0
  7  9  1  0  0  0  0
 30 31  1  0  0  0  0
 30 32  1  0  0  0  0
 30 33  1  0  0  0  0
 28 29  1  0  0  0  0
 28 30  1  0  0  0  0
M  END
$$$$
default_name
  -OEChem-01062215323D

 33 33  0     1  0  0  0  0  0999 V2000
   -4.0702   -3.8485    1.4554 H   0  0  0  0  0  0  0  0  0  0  0  0
   -4.0012   -2.9605    0.8284 C   0  0  0  0  0  0  0  0  0  0  0  0
   -4.7652   -2.2435    1.1234 H   0  0  0  0  0  0  0  0  0  0  0  0
   -4.1352   -3.2385   -0.2156 H   0  0  0  0  0  0  0  0  0  0  0  0
   -2.6362   -2.3395    1.0094 C   0  0  0  0  0  0  0  0  0  0  0  0
   -1.8292   -2.8395    1.7814 O   0  0  0  0  0  0  0  0  0  0  0  0
   -2.3832   -1.2445    0.2964 N   0  0  0  0  0  0  0  0  0  0  0  0
   -3.1102   -0.8685   -0.2946 H   0  0  0  0  0  0  0  0  0  0  0  0
   -1.1292   -0.4875    0.3524 C   0  0  1  0  0  0  0  0  0  0  0  0
   -0.5898   -0.7762    1.2552 H   0  0  0  0  0  0  0  0  0  0  0  0
   -0.2608   -0.8470   -0.8656 C   0  0  0  0  0  0  0  0  0  0  0  0
   -0.8454   -0.6971   -1.7742 H   0  0  0  0  0  0  0  0  0  0  0  0
    0.5892   -0.1639   -0.9075 H   0  0  0  0  0  0  0  0  0  0  0  0
    0.2439   -2.2770   -0.8610 C   0  0  0  0  0  0  0  0  0  0  0  0
    1.3738   -2.6302   -0.0962 C   0  0  0  0  0  0  0  0  0  0  0  0
    1.9013   -1.8744    0.4709 H   0  0  0  0  0  0  0  0  0  0  0  0
    1.8145   -3.9675   -0.0632 C   0  0  0  0  0  0  0  0  0  0  0  0
    2.6809   -4.2341    0.5223 H   0  0  0  0  0  0  0  0  0  0  0  0
    1.1202   -4.9556   -0.7949 C   0  0  0  0  0  0  0  0  0  0  0  0
    1.5355   -6.2486   -0.7673 O   0  0  0  0  0  0  0  0  0  0  0  0
    2.3611   -6.3526   -0.2925 H   0  0  0  0  0  0  0  0  0  0  0  0
   -0.0131   -4.6012   -1.5558 C   0  0  0  0  0  0  0  0  0  0  0  0
   -0.5330   -5.3649   -2.1145 H   0  0  0  0  0  0  0  0  0  0  0  0
   -0.4484   -3.2628   -1.5904 C   0  0  0  0  0  0  0  0  0  0  0  0
   -1.3137   -2.9897   -2.1826 H   0  0  0  0  0  0  0  0  0  0  0  0
   -1.4018    1.0238    0.4329 C   0  0  0  0  0  0  0  0  0  0  0  0
   -0.5976    1.8250   -0.0441 O   0  0  0  0  0  0  0  0  0  0  0  0
   -2.5311    1.4141    1.0374 N   0  0  0  0  0  0  0  0  0  0  0  0
   -3.1084    0.6981    1.4541 H   0  0  0  0  0  0  0  0  0  0  0  0
   -2.9401    2.8072    1.2007 C   0  0  0  0  0  0  0  0  0  0  0  0
   -2.8870    3.3240    0.2409 H   0  0  0  0  0  0  0  0  0  0  0  0
   -3.9621    2.8570    1.5797 H   0  0  0  0  0  0  0  0  0  0  0  0
   -2.2701    3.3067    1.9036 H   0  0  0  0  0  0  0  0  0  0  0  0
  5  6  2  0  0  0  0
  5  7  1  0  0  0  0
  2  3  1  0  0  0  0
  2  4  1  0  0  0  0
  2  5  1  0  0  0  0
  1  2  1  0  0  0  0
 26 27  2  0  0  0  0
 26 28  1  0  0  0  0
 24 25  1  0  0  0  0
 22 23  1  0  0  0  0
 22 24  2  0  0  0  0
 20 21  1  0  0  0  0
 19 20  1  0  0  0  0
 19 22  1  0  0  0  0
 17 18  1  0  0  0  0
 17 19  2  0  0  0  0
 15 16  1  0  0  0  0
 15 17  1  0  0  0  0
 14 15  2  0  0  0  0
 14 24  1  0  0  0  0
 11 12  1  0  0  0  0
 11 13  1  0  0  0  0
 11 14  1  0  0  0  0
  9 10  1  0  0  0  0
  9 11  1  0  0  0  0
  9 26  1  0  0  0  0
  7  8  1  0  0  0  0
  7  9  1  0  0  0  0
 30 31  1  0  0  0  0
 30 32  1  0  0  0  0
 30 33  1  0  0  0  0
 28 29  1  0  0  0  0
 28 30  1  0  0  0  0
M  END
$$$$
default_name
  -OEChem-01062215323D

 33 33  0     1  0  0  0  0  0999 V2000
   -4.0702   -3.8485    1.4554 H   0  0  0  0  0  0  0  0  0  0  0  0
   -4.0012   -2.9605    0.8284 C   0  0  0  0  0  0  0  0  0  0  0  0
   -4.7652   -2.2435    1.1234 H   0  0  0  0  0  0  0  0  0  0  0  0
   -4.1352   -3.2385   -0.2156 H   0  0  0  0  0  0  0  0  0  0  0  0
   -2.6362   -2.3395    1.0094 C   0  0  0  0  0  0  0  0  0  0  0  0
   -1.8292   -2.8395    1.7814 O   0  0  0  0  0  0  0  0  0  0  0  0
   -2.3832   -1.2445    0.2964 N   0  0  0  0  0  0  0  0  0  0  0  0
   -3.1102   -0.8685   -0.2946 H   0  0  0  0  0  0  0  0  0  0  0  0
   -1.1292   -0.4875    0.3524 C   0  0  1  0  0  0  0  0  0  0  0  0
   -0.5898   -0.7762    1.2552 H   0  0  0  0  0  0  0  0  0  0  0  0
   -0.2608   -0.8470   -0.8656 C   0  0  0  0  0  0  0  0  0  0  0  0
   -0.8454   -0.6971   -1.7742 H   0  0  0  0  0  0  0  0  0  0  0  0
    0.5892   -0.1639   -0.9075 H   0  0  0  0  0  0  0  0  0  0  0  0
    0.2439   -2.2770   -0.8610 C   0  0  0  0  0  0  0  0  0  0  0  0
    1.3738   -2.6302   -0.0962 C   0  0  0  0  0  0  0  0  0  0  0  0
    1.9013   -1.8744    0.4709 H   0  0  0  0  0  0  0  0  0  0  0  0
    1.8145   -3.9675   -0.0632 C   0  0  0  0  0  0  0  0  0  0  0  0
    2.6809   -4.2341    0.5223 H   0  0  0  0  0  0  0  0  0  0  0  0
    1.1202   -4.9556   -0.7949 C   0  0  0  0  0  0  0  0  0  0  0  0
    1.5355   -6.2486   -0.7673 O   0  0  0  0  0  0  0  0  0  0  0  0
    2.3611   -6.3526   -0.2925 H   0  0  0  0  0  0  0  0  0  0  0  0
   -0.0131   -4.6012   -1.5558 C   0  0  0  0  0  0  0  0  0  0  0  0
   -0.5330   -5.3649   -2.1145 H   0  0  0  0  0  0  0  0  0  0  0  0
   -0.4484   -3.2628   -1.5904 C   0  0  0  0  0  0  0  0  0  0  0  0
   -1.3137   -2.9897   -2.1826 H   0  0  0  0  0  0  0  0  0  0  0  0
   -1.4018    1.0238    0.4329 C   0  0  0  0  0  0  0  0  0  0  0  0
   -0.7609    1.8074   -0.2681 O   0  0  0  0  0  0  0  0  0  0  0  0
   -2.3479    1.4338    1.2873 N   0  0  0  0  0  0  0  0  0  0  0  0
   -2.7863    0.7341    1.8684 H   0  0  0  0  0  0  0  0  0  0  0  0
   -2.7290    2.8300    1.4877 C   0  0  0  0  0  0  0  0  0  0  0  0
   -2.9316    3.3008    0.5242 H   0  0  0  0  0  0  0  0  0  0  0  0
   -3.6220    2.8899    2.1119 H   0  0  0  0  0  0  0  0  0  0  0  0
   -1.9123    3.3674    1.9740 H   0  0  0  0  0  0  0  0  0  0  0  0
  5  6  2  0  0  0  0
  5  7  1  0  0  0  0
  2  3  1  0  0  0  0
  2  4  1  0  0  0  0
  2  5  1  0  0  0  0
  1  2  1  0  0  0  0
 26 27  2  0  0  0  0
 26 28  1  0  0  0  0
 24 25  1  0  0  0  0
 22 23  1  0  0  0  0
 22 24  2  0  0  0  0
 20 21  1  0  0  0  0
 19 20  1  0  0  0  0
 19 22  1  0  0  0  0
 17 18  1  0  0  0  0
 17 19  2  0  0  0  0
 15 16  1  0  0  0  0
 15 17  1  0  0  0  0
 14 15  2  0  0  0  0
 14 24  1  0  0  0  0
 11 12  1  0  0  0  0
 11 13  1  0  0  0  0
 11 14  1  0  0  0  0
  9 10  1  0  0  0  0
  9 11  1  0  0  0  0
  9 26  1  0  0  0  0
  7  8  1  0  0  0  0
  7  9  1  0  0  0  0
 30 31  1  0  0  0  0
 30 32  1  0  0  0  0
 30 33  1  0  0  0  0
 28 29  1  0  0  0  0
 28 30  1  0  0  0  0
M  END
$$$$
default_name
  -OEChem-01062215323D

 33 33  0     1  0  0  0  0  0999 V2000
   -4.0702   -3.8485    1.4554 H   0  0  0  0  0  0  0  0  0  0  0  0
   -4.0012   -2.9605    0.8284 C   0  0  0  0  0  0  0  0  0  0  0  0
   -4.7652   -2.2435    1.1234 H   0  0  0  0  0  0  0  0  0  0  0  0
   -4.1352   -3.2385   -0.2156 H   0  0  0  0  0  0  0  0  0  0  0  0
   -2.6362   -2.3395    1.0094 C   0  0  0  0  0  0  0  0  0  0  0  0
   -1.8292   -2.8395    1.7814 O   0  0  0  0  0  0  0  0  0  0  0  0
   -2.3832   -1.2445    0.2964 N   0  0  0  0  0  0  0  0  0  0  0  0
   -3.1102   -0.8685   -0.2946 H   0  0  0  0  0  0  0  0  0  0  0  0
   -1.1292   -0.4875    0.3524 C   0  0  1  0  0  0  0  0  0  0  0  0
   -0.5898   -0.7762    1.2552 H   0  0  0  0  0  0  0  0  0  0  0  0
   -0.2608   -0.8470   -0.8656 C   0  0  0  0  0  0  0  0  0  0  0  0
   -0.8454   -0.6971   -1.7742 H   0  0  0  0  0  0  0  0  0  0  0  0
    0.5892   -0.1639   -0.9075 H   0  0  0  0  0  0  0  0  0  0  0  0
    0.2439   -2.2770   -0.8610 C   0  0  0  0  0  0  0  0  0  0  0  0
    1.3738   -2.6302   -0.0962 C   0  0  0  0  0  0  0  0  0  0  0  0
    1.9013   -1.8744    0.4709 H   0  0  0  0  0  0  0  0  0  0  0  0
    1.8145   -3.9675   -0.0632 C   0  0  0  0  0  0  0  0  0  0  0  0
    2.6809   -4.2341    0.5223 H   0  0  0  0  0  0  0  0  0  0  0  0
    1.1202   -4.9556   -0.7949 C   0  0  0  0  0  0  0  0  0  0  0  0
    1.5355   -6.2486   -0.7673 O   0  0  0  0  0  0  0  0  0  0  0  0
    2.3611   -6.3526   -0.2925 H   0  0  0  0  0  0  0  0  0  0  0  0
   -0.0131   -4.6012   -1.5558 C   0  0  0  0  0  0  0  0  0  0  0  0
   -0.5330   -5.3649   -2.1145 H   0  0  0  0  0  0  0  0  0  0  0  0
   -0.4484   -3.2628   -1.5904 C   0  0  0  0  0  0  0  0  0  0  0  0
   -1.3137   -2.9897   -2.1826 H   0  0  0  0  0  0  0  0  0  0  0  0
   -1.4018    1.0238    0.4329 C   0  0  0  0  0  0  0  0  0  0  0  0
   -0.9754    1.7780   -0.4420 O   0  0  0  0  0  0  0  0  0  0  0  0
   -2.1076    1.4668    1.4811 N   0  0  0  0  0  0  0  0  0  0  0  0
   -2.3703    0.7923    2.1850 H   0  0  0  0  0  0  0  0  0  0  0  0
   -2.4525    2.8680    1.7102 C   0  0  0  0  0  0  0  0  0  0  0  0
   -2.9023    3.2908    0.8102 H   0  0  0  0  0  0  0  0  0  0  0  0
   -3.1586    2.9508    2.5380 H   0  0  0  0  0  0  0  0  0  0  0  0
   -1.5497    3.4342    1.9483 H   0  0  0  0  0  0  0  0  0  0  0  0
  5  6  2  0  0  0  0
  5  7  1  0  0  0  0
  2  3  1  0  0  0  0
  2  4  1  0  0  0  0
  2  5  1  0  0  0  0
  1  2  1  0  0  0  0
 26 27  2  0  0  0  0
 26 28  1  0  0  0  0
 24 25  1  0  0  0  0
 22 23  1  0  0  0  0
 22 24  2  0  0  0  0
 20 21  1  0  0  0  0
 19 20  1  0  0  0  0
 19 22  1  0  0  0  0
 17 18  1  0  0  0  0
 17 19  2  0  0  0  0
 15 16  1  0  0  0  0
 15 17  1  0  0  0  0
 14 15  2  0  0  0  0
 14 24  1  0  0  0  0
 11 12  1  0  0  0  0
 11 13  1  0  0  0  0
 11 14  1  0  0  0  0
  9 10  1  0  0  0  0
  9 11  1  0  0  0  0
  9 26  1  0  0  0  0
  7  8  1  0  0  0  0
  7  9  1  0  0  0  0
 30 31  1  0  0  0  0
 30 32  1  0  0  0  0
 30 33  1  0  0  0  0
 28 29  1  0  0  0  0
 28 30  1  0  0  0  0
M  END
$$$$
default_name
  -OEChem-01062215323D

 33 33  0     1  0  0  0  0  0999 V2000
   -4.0702   -3.8485    1.4554 H   0  0  0  0  0  0  0  0  0  0  0  0
   -4.0012   -2.9605    0.8284 C   0  0  0  0  0  0  0  0  0  0  0  0
   -4.7652   -2.2435    1.1234 H   0  0  0  0  0  0  0  0  0  0  0  0
   -4.1352   -3.2385   -0.2156 H   0  0  0  0  0  0  0  0  0  0  0  0
   -2.6362   -2.3395    1.0094 C   0  0  0  0  0  0  0  0  0  0  0  0
   -1.8292   -2.8395    1.7814 O   0  0  0  0  0  0  0  0  0  0  0  0
   -2.3832   -1.2445    0.2964 N   0  0  0  0  0  0  0  0  0  0  0  0
   -3.1102   -0.8685   -0.2946 H   0  0  0  0  0  0  0  0  0  0  0  0
   -1.1292   -0.4875    0.3524 C   0  0  1  0  0  0  0  0  0  0  0  0
   -0.5898   -0.7762    1.2552 H   0  0  0  0  0  0  0  0  0  0  0  0
   -0.2608   -0.8470   -0.8656 C   0  0  0  0  0  0  0  0  0  0  0  0
   -0.8454   -0.6971   -1.7742 H   0  0  0  0  0  0  0  0  0  0  0  0
    0.5892   -0.1639   -0.9075 H   0  0  0  0  0  0  0  0  0  0  0  0
    0.2439   -2.2770   -0.8610 C   0  0  0  0  0  0  0  0  0  0  0  0
    1.3738   -2.6302   -0.0962 C   0  0  0  0  0  0  0  0  0  0  0  0
    1.9013   -1.8744    0.4709 H   0  0  0  0  0  0  0  0  0  0  0  0
    1.8145   -3.9675   -0.0632 C   0  0  0  0  0  0  0  0  0  0  0  0
    2.6809   -4.2341    0.5223 H   0  0  0  0  0  0  0  0  0  0  0  0
    1.1202   -4.9556   -0.7949 C   0  0  0  0  0  0  0  0  0  0  0  0
    1.5355   -6.2486   -0.7673 O   0  0  0  0  0  0  0  0  0  0  0  0
    2.3611   -6.3526   -0.2925 H   0  0  0  0  0  0  0  0  0  0  0  0
   -0.0131   -4.6012   -1.5558 C   0  0  0  0  0  0  0  0  0  0  0  0
   -0.5330   -5.3649   -2.1145 H   0  0  0  0  0  0  0  0  0  0  0  0
   -0.4484   -3.2628   -1.5904 C   0  0  0  0  0  0  0  0  0  0  0  0
   -1.3137   -2.9897   -2.1826 H   0  0  0  0  0  0  0  0  0  0  0  0
   -1.4018    1.0238    0.4329 C   0  0  0  0  0  0  0  0  0  0  0  0
   -1.2265    1.7387   -0.5542 O   0  0  0  0  0  0  0  0  0  0  0  0
   -1.8267    1.5108    1.6057 N   0  0  0  0  0  0  0  0  0  0  0  0
   -1.8887    0.8686    2.3824 H   0  0  0  0  0  0  0  0  0  0  0  0
   -2.1293    2.9187    1.8530 C   0  0  0  0  0  0  0  0  0  0  0  0
   -2.8011    3.2947    1.0795 H   0  0  0  0  0  0  0  0  0  0  0  0
   -2.6034    3.0354    2.8289 H   0  0  0  0  0  0  0  0  0  0  0  0
   -1.2068    3.5025    1.8281 H   0  0  0  0  0  0  0  0  0  0  0  0
  5  6  2  0  0  0  0
  5  7  1  0  0  0  0
  2  3  1  0  0  0  0
  2  4  1  0  0  0  0
  2  5  1  0  0  0  0
  1  2  1  0  0  0  0
 26 27  2  0  0  0  0
 26 28  1  0  0  0  0
 24 25  1  0  0  0  0
 22 23  1  0  0  0  0
 22 24  2  0  0  0  0
 20 21  1  0  0  0  0
 19 20  1  0  0  0  0
 19 22  1  0  0  0  0
 17 18  1  0  0  0  0
 17 19  2  0  0  0  0
 15 16  1  0  0  0  0
 15 17  1  0  0  0  0
 14 15  2  0  0  0  0
 14 24  1  0  0  0  0
 11 12  1  0  0  0  0
 11 13  1  0  0  0  0
 11 14  1  0  0  0  0
  9 10  1  0  0  0  0
  9 11  1  0  0  0  0
  9 26  1  0  0  0  0
  7  8  1  0  0  0  0
  7  9  1  0  0  0  0
 30 31  1  0  0  0  0
 30 32  1  0  0  0  0
 30 33  1  0  0  0  0
 28 29  1  0  0  0  0
 28 30  1  0  0  0  0
M  END
$$$$
default_name
  -OEChem-01062215323D

 33 33  0     1  0  0  0  0  0999 V2000
   -4.0702   -3.8485    1.4554 H   0  0  0  0  0  0  0  0  0  0  0  0
   -4.0012   -2.9605    0.8284 C   0  0  0  0  0  0  0  0  0  0  0  0
   -4.7652   -2.2435    1.1234 H   0  0  0  0  0  0  0  0  0  0  0  0
   -4.1352   -3.2385   -0.2156 H   0  0  0  0  0  0  0  0  0  0  0  0
   -2.6362   -2.3395    1.0094 C   0  0  0  0  0  0  0  0  0  0  0  0
   -1.8292   -2.8395    1.7814 O   0  0  0  0  0  0  0  0  0  0  0  0
   -2.3832   -1.2445    0.2964 N   0  0  0  0  0  0  0  0  0  0  0  0
   -3.1102   -0.8685   -0.2946 H   0  0  0  0  0  0  0  0  0  0  0  0
   -1.1292   -0.4875    0.3524 C   0  0  1  0  0  0  0  0  0  0  0  0
   -0.5898   -0.7762    1.2552 H   0  0  0  0  0  0  0  0  0  0  0  0
   -0.2608   -0.8470   -0.8656 C   0  0  0  0  0  0  0  0  0  0  0  0
   -0.8454   -0.6971   -1.7742 H   0  0  0  0  0  0  0  0  0  0  0  0
    0.5892   -0.1639   -0.9075 H   0  0  0  0  0  0  0  0  0  0  0  0
    0.2439   -2.2770   -0.8610 C   0  0  0  0  0  0  0  0  0  0  0  0
    1.3738   -2.6302   -0.0962 C   0  0  0  0  0  0  0  0  0  0  0  0
    1.9013   -1.8744    0.4709 H   0  0  0  0  0  0  0  0  0  0  0  0
    1.8145   -3.9675   -0.0632 C   0  0  0  0  0  0  0  0  0  0  0  0
    2.6809   -4.2341    0.5223 H   0  0  0  0  0  0  0  0  0  0  0  0
    1.1202   -4.9556   -0.7949 C   0  0  0  0  0  0  0  0  0  0  0  0
    1.5355   -6.2486   -0.7673 O   0  0  0  0  0  0  0  0  0  0  0  0
    2.3611   -6.3526   -0.2925 H   0  0  0  0  0  0  0  0  0  0  0  0
   -0.0131   -4.6012   -1.5558 C   0  0  0  0  0  0  0  0  0  0  0  0
   -0.5330   -5.3649   -2.1145 H   0  0  0  0  0  0  0  0  0  0  0  0
   -0.4484   -3.2628   -1.5904 C   0  0  0  0  0  0  0  0  0  0  0  0
   -1.3137   -2.9897   -2.1826 H   0  0  0  0  0  0  0  0  0  0  0  0
   -1.4018    1.0238    0.4329 C   0  0  0  0  0  0  0  0  0  0  0  0
   -1.4970    1.6922   -0.5968 O   0  0  0  0  0  0  0  0  0  0  0  0
   -1.5242    1.5629    1.6526 N   0  0  0  0  0  0  0  0  0  0  0  0
   -1.3744    0.9579    2.4470 H   0  0  0  0  0  0  0  0  0  0  0  0
   -1.7814    2.9785    1.9064 C   0  0  0  0  0  0  0  0  0  0  0  0
   -2.6350    3.3122    1.3137 H   0  0  0  0  0  0  0  0  0  0  0  0
   -1.9942    3.1381    2.9647 H   0  0  0  0  0  0  0  0  0  0  0  0
   -0.9071    3.5675    1.6217 H   0  0  0  0  0  0  0  0  0  0  0  0
  5  6  2  0  0  0  0
  5  7  1  0  0  0  0
  2  3  1  0  0  0  0
  2  4  1  0  0  0  0
  2  5  1  0  0  0  0
  1  2  1  0  0  0  0
 26 27  2  0  0  0  0
 26 28  1  0  0  0  0
 24 25  1  0  0  0  0
 22 23  1  0  0  0  0
 22 24  2  0  0  0  0
 20 21  1  0  0  0  0
 19 20  1  0  0  0  0
 19 22  1  0  0  0  0
 17 18  1  0  0  0  0
 17 19  2  0  0  0  0
 15 16  1  0  0  0  0
 15 17  1  0  0  0  0
 14 15  2  0  0  0  0
 14 24  1  0  0  0  0
 11 12  1  0  0  0  0
 11 13  1  0  0  0  0
 11 14  1  0  0  0  0
  9 10  1  0  0  0  0
  9 11  1  0  0  0  0
  9 26  1  0  0  0  0
  7  8  1  0  0  0  0
  7  9  1  0  0  0  0
 30 31  1  0  0  0  0
 30 32  1  0  0  0  0
 30 33  1  0  0  0  0
 28 29  1  0  0  0  0
 28 30  1  0  0  0  0
M  END
$$$$
default_name
  -OEChem-01062215323D

 33 33  0     1  0  0  0  0  0999 V2000
   -4.0702   -3.8485    1.4554 H   0  0  0  0  0  0  0  0  0  0  0  0
   -4.0012   -2.9605    0.8284 C   0  0  0  0  0  0  0  0  0  0  0  0
   -4.7652   -2.2435    1.1234 H   0  0  0  0  0  0  0  0  0  0  0  0
   -4.1352   -3.2385   -0.2156 H   0  0  0  0  0  0  0  0  0  0  0  0
   -2.6362   -2.3395    1.0094 C   0  0  0  0  0  0  0  0  0  0  0  0
   -1.8292   -2.8395    1.7814 O   0  0  0  0  0  0  0  0  0  0  0  0
   -2.3832   -1.2445    0.2964 N   0  0  0  0  0  0  0  0  0  0  0  0
   -3.1102   -0.8685   -0.2946 H   0  0  0  0  0  0  0  0  0  0  0  0
   -1.1292   -0.4875    0.3524 C   0  0  1  0  0  0  0  0  0  0  0  0
   -0.5898   -0.7762    1.2552 H   0  0  0  0  0  0  0  0  0  0  0  0
   -0.2608   -0.8470   -0.8656 C   0  0  0  0  0  0  0  0  0  0  0  0
   -0.8454   -0.6971   -1.7742 H   0  0  0  0  0  0  0  0  0  0  0  0
    0.5892   -0.1639   -0.9075 H   0  0  0  0  0  0  0  0  0  0  0  0
    0.2439   -2.2770   -0.8610 C   0  0  0  0  0  0  0  0  0  0  0  0
    1.3738   -2.6302   -0.0962 C   0  0  0  0  0  0  0  0  0  0  0  0
    1.9013   -1.8744    0.4709 H   0  0  0  0  0  0  0  0  0  0  0  0
    1.8145   -3.9675   -0.0632 C   0  0  0  0  0  0  0  0  0  0  0  0
    2.6809   -4.2341    0.5223 H   0  0  0  0  0  0  0  0  0  0  0  0
    1.1202   -4.9556   -0.7949 C   0  0  0  0  0  0  0  0  0  0  0  0
    1.5355   -6.2486   -0.7673 O   0  0  0  0  0  0  0  0  0  0  0  0
    2.3611   -6.3526   -0.2925 H   0  0  0  0  0  0  0  0  0  0  0  0
   -0.0131   -4.6012   -1.5558 C   0  0  0  0  0  0  0  0  0  0  0  0
   -0.5330   -5.3649   -2.1145 H   0  0  0  0  0  0  0  0  0  0  0  0
   -0.4484   -3.2628   -1.5904 C   0  0  0  0  0  0  0  0  0  0  0  0
   -1.3137   -2.9897   -2.1826 H   0  0  0  0  0  0  0  0  0  0  0  0
   -1.4018    1.0238    0.4329 C   0  0  0  0  0  0  0  0  0  0  0  0
   -1.7684    1.6417   -0.5671 O   0  0  0  0  0  0  0  0  0  0  0  0
   -1.2208    1.6194    1.6185 N   0  0  0  0  0  0  0  0  0  0  0  0
   -0.8623    1.0541    2.3745 H   0  0  0  0  0  0  0  0  0  0  0  0
   -1.4327    3.0435    1.8668 C   0  0  0  0  0  0  0  0  0  0  0  0
   -2.4151    3.3421    1.4969 H   0  0  0  0  0  0  0  0  0  0  0  0
   -1.3727    3.2517    2.9363 H   0  0  0  0  0  0  0  0  0  0  0  0
   -0.6710    3.6249    1.3431 H   0  0  0  0  0  0  0  0  0  0  0  0
  5  6  2  0  0  0  0
  5  7  1  0  0  0  0
  2  3  1  0  0  0  0
  2  4  1  0  0  0  0
  2  5  1  0  0  0  0
  1  2  1  0  0  0  0
 26 27  2  0  0  0  0
 26 28  1  0  0  0  0
 24 25  1  0  0  0  0
 22 23  1  0  0  0  0
 22 24  2  0  0  0  0
 20 21  1  0  0  0  0
 19 20  1  0  0  0  0
 19 22  1  0  0  0  0
 17 18  1  0  0  0  0
 17 19  2  0  0  0  0
 15 16  1  0  0  0  0
 15 17  1  0  0  0  0
 14 15  2  0  0  0  0
 14 24  1  0  0  0  0
 11 12  1  0  0  0  0
 11 13  1  0  0  0  0
 11 14  1  0  0  0  0
  9 10  1  0  0  0  0
  9 11  1  0  0  0  0
  9 26  1  0  0  0  0
  7  8  1  0  0  0  0
  7  9  1  0  0  0  0
 30 31  1  0  0  0  0
 30 32  1  0  0  0  0
 30 33  1  0  0  0  0
 28 29  1  0  0  0  0
 28 30  1  0  0  0  0
M  END
$$$$
default_name
  -OEChem-01062215323D

 33 33  0     1  0  0  0  0  0999 V2000
   -4.0702   -3.8485    1.4554 H   0  0  0  0  0  0  0  0  0  0  0  0
   -4.0012   -2.9605    0.8284 C   0  0  0  0  0  0  0  0  0  0  0  0
   -4.7652   -2.2435    1.1234 H   0  0  0  0  0  0  0  0  0  0  0  0
   -4.1352   -3.2385   -0.2156 H   0  0  0  0  0  0  0  0  0  0  0  0
   -2.6362   -2.3395    1.0094 C   0  0  0  0  0  0  0  0  0  0  0  0
   -1.8292   -2.8395    1.7814 O   0  0  0  0  0  0  0  0  0  0  0  0
   -2.3832   -1.2445    0.2964 N   0  0  0  0  0  0  0  0  0  0  0  0
   -3.1102   -0.8685   -0.2946 H   0  0  0  0  0  0  0  0  0  0  0  0
   -1.1292   -0.4875    0.3524 C   0  0  1  0  0  0  0  0  0  0  0  0
   -0.5898   -0.7762    1.2552 H   0  0  0  0  0  0  0  0  0  0  0  0
   -0.2608   -0.8470   -0.8656 C   0  0  0  0  0  0  0  0  0  0  0  0
   -0.8454   -0.6971   -1.7742 H   0  0  0  0  0  0  0  0  0  0  0  0
    0.5892   -0.1639   -0.9075 H   0  0  0  0  0  0  0  0  0  0  0  0
    0.2439   -2.2770   -0.8610 C   0  0  0  0  0  0  0  0  0  0  0  0
    1.3738   -2.6302   -0.0962 C   0  0  0  0  0  0  0  0  0  0  0  0
    1.9013   -1.8744    0.4709 H   0  0  0  0  0  0  0  0  0  0  0  0
    1.8145   -3.9675   -0.0632 C   0  0  0  0  0  0  0  0  0  0  0  0
    2.6809   -4.2341    0.5223 H   0  0  0  0  0  0  0  0  0  0  0  0
    1.1202   -4.9556   -0.7949 C   0  0  0  0  0  0  0  0  0  0  0  0
    1.5355   -6.2486   -0.7673 O   0  0  0  0  0  0  0  0  0  0  0  0
    2.3611   -6.3526   -0.2925 H   0  0  0  0  0  0  0  0  0  0  0  0
   -0.0131   -4.6012   -1.5558 C   0  0  0  0  0  0  0  0  0  0  0  0
   -0.5330   -5.3649   -2.1145 H   0  0  0  0  0  0  0  0  0  0  0  0
   -0.4484   -3.2628   -1.5904 C   0  0  0  0  0  0  0  0  0  0  0  0
   -1.3137   -2.9897   -2.1826 H   0  0  0  0  0  0  0  0  0  0  0  0
   -1.4018    1.0238    0.4329 C   0  0  0  0  0  0  0  0  0  0  0  0
   -2.0224    1.5905   -0.4670 O   0  0  0  0  0  0  0  0  0  0  0  0
   -0.9372    1.6765    1.5059 N   0  0  0  0  0  0  0  0  0  0  0  0
   -0.3875    1.1507    2.1698 H   0  0  0  0  0  0  0  0  0  0  0  0
   -1.1068    3.1092    1.7368 C   0  0  0  0  0  0  0  0  0  0  0  0
   -2.1566    3.3824    1.6166 H   0  0  0  0  0  0  0  0  0  0  0  0
   -0.7811    3.3685    2.7455 H   0  0  0  0  0  0  0  0  0  0  0  0
   -0.5146    3.6708    1.0113 H   0  0  0  0  0  0  0  0  0  0  0  0
  5  6  2  0  0  0  0
  5  7  1  0  0  0  0
  2  3  1  0  0  0  0
  2  4  1  0  0  0  0
  2  5  1  0  0  0  0
  1  2  1  0  0  0  0
 26 27  2  0  0  0  0
 26 28  1  0  0  0  0
 24 25  1  0  0  0  0
 22 23  1  0  0  0  0
 22 24  2  0  0  0  0
 20 21  1  0  0  0  0
 19 20  1  0  0  0  0
 19 22  1  0  0  0  0
 17 18  1  0  0  0  0
 17 19  2  0  0  0  0
 15 16  1  0  0  0  0
 15 17  1  0  0  0  0
 14 15  2  0  0  0  0
 14 24  1  0  0  0  0
 11 12  1  0  0  0  0
 11 13  1  0  0  0  0
 11 14  1  0  0  0  0
  9 10  1  0  0  0  0
  9 11  1  0  0  0  0
  9 26  1  0  0  0  0
  7  8  1  0  0  0  0
  7  9  1  0  0  0  0
 30 31  1  0  0  0  0
 30 32  1  0  0  0  0
 30 33  1  0  0  0  0
 28 29  1  0  0  0  0
 28 30  1  0  0  0  0
M  END
$$$$
default_name
  -OEChem-01062215323D

 33 33  0     1  0  0  0  0  0999 V2000
   -4.0702   -3.8485    1.4554 H   0  0  0  0  0  0  0  0  0  0  0  0
   -4.0012   -2.9605    0.8284 C   0  0  0  0  0  0  0  0  0  0  0  0
   -4.7652   -2.2435    1.1234 H   0  0  0  0  0  0  0  0  0  0  0  0
   -4.1352   -3.2385   -0.2156 H   0  0  0  0  0  0  0  0  0  0  0  0
   -2.6362   -2.3395    1.0094 C   0  0  0  0  0  0  0  0  0  0  0  0
   -1.8292   -2.8395    1.7814 O   0  0  0  0  0  0  0  0  0  0  0  0
   -2.3832   -1.2445    0.2964 N   0  0  0  0  0  0  0  0  0  0  0  0
   -3.1102   -0.8685   -0.2946 H   0  0  0  0  0  0  0  0  0  0  0  0
   -1.1292   -0.4875    0.3524 C   0  0  1  0  0  0  0  0  0  0  0  0
   -0.5898   -0.7762    1.2552 H   0  0  0  0  0  0  0  0  0  0  0  0
   -0.2608   -0.8470   -0.8656 C   0  0  0  0  0  0  0  0  0  0  0  0
   -0.8454   -0.6971   -1.7742 H   0  0  0  0  0  0  0  0  0  0  0  0
    0.5892   -0.1639   -0.9075 H   0  0  0  0  0  0  0  0  0  0  0  0
    0.2439   -2.2770   -0.8610 C   0  0  0  0  0  0  0  0  0  0  0  0
    1.3738   -2.6302   -0.0962 C   0  0  0  0  0  0  0  0  0  0  0  0
    1.9013   -1.8744    0.4709 H   0  0  0  0  0  0  0  0  0  0  0  0
    1.8145   -3.9675   -0.0632 C   0  0  0  0  0  0  0  0  0  0  0  0
    2.6809   -4.2341    0.5223 H   0  0  0  0  0  0  0  0  0  0  0  0
    1.1202   -4.9556   -0.7949 C   0  0  0  0  0  0  0  0  0  0  0  0
    1.5355   -6.2486   -0.7673 O   0  0  0  0  0  0  0  0  0  0  0  0
    2.3611   -6.3526   -0.2925 H   0  0  0  0  0  0  0  0  0  0  0  0
   -0.0131   -4.6012   -1.5558 C   0  0  0  0  0  0  0  0  0  0  0  0
   -0.5330   -5.3649   -2.1145 H   0  0  0  0  0  0  0  0  0  0  0  0
   -0.4484   -3.2628   -1.5904 C   0  0  0  0  0  0  0  0  0  0  0  0
   -1.3137   -2.9897   -2.1826 H   0  0  0  0  0  0  0  0  0  0  0  0
   -1.4018    1.0238    0.4329 C   0  0  0  0  0  0  0  0  0  0  0  0
   -2.2416    1.5423   -0.3033 O   0  0  0  0  0  0  0  0  0  0  0  0
   -0.6927    1.7304    1.3223 N   0  0  0  0  0  0  0  0  0  0  0  0
    0.0178    1.2410    1.8469 H   0  0  0  0  0  0  0  0  0  0  0  0
   -0.8259    3.1712    1.5254 C   0  0  0  0  0  0  0  0  0  0  0  0
   -1.8769    3.4302    1.6645 H   0  0  0  0  0  0  0  0  0  0  0  0
   -0.2598    3.4806    2.4054 H   0  0  0  0  0  0  0  0  0  0  0  0
   -0.4486    3.7020    0.6489 H   0  0  0  0  0  0  0  0  0  0  0  0
  5  6  2  0  0  0  0
  5  7  1  0  0  0  0
  2  3  1  0  0  0  0
  2  4  1  0  0  0  0
  2  5  1  0  0  0  0
  1  2  1  0  0  0  0
 26 27  2  0  0  0  0
 26 28  1  0  0  0  0
 24 25  1  0  0  0  0
 22 23  1  0  0  0  0
 22 24  2  0  0  0  0
 20 21  1  0  0  0  0
 19 20  1  0  0  0  0
 19 22  1  0  0  0  0
 17 18  1  0  0  0  0
 17 19  2  0  0  0  0
 15 16  1  0  0  0  0
 15 17  1  0  0  0  0
 14 15  2  0  0  0  0
 14 24  1  0  0  0  0
 11 12  1  0  0  0  0
 11 13  1  0  0  0  0
 11 14  1  0  0  0  0
  9 10  1  0  0  0  0
  9 11  1  0  0  0  0
  9 26  1  0  0  0  0
  7  8  1  0  0  0  0
  7  9  1  0  0  0  0
 30 31  1  0  0  0  0
 30 32  1  0  0  0  0
 30 33  1  0  0  0  0
 28 29  1  0  0  0  0
 28 30  1  0  0  0  0
M  END
$$$$
default_name
  -OEChem-01062215323D

 33 33  0     1  0  0  0  0  0999 V2000
   -4.0702   -3.8485    1.4554 H   0  0  0  0  0  0  0  0  0  0  0  0
   -4.0012   -2.9605    0.8284 C   0  0  0  0  0  0  0  0  0  0  0  0
   -4.7652   -2.2435    1.1234 H   0  0  0  0  0  0  0  0  0  0  0  0
   -4.1352   -3.2385   -0.2156 H   0  0  0  0  0  0  0  0  0  0  0  0
   -2.6362   -2.3395    1.0094 C   0  0  0  0  0  0  0  0  0  0  0  0
   -1.8292   -2.8395    1.7814 O   0  0  0  0  0  0  0  0  0  0  0  0
   -2.3832   -1.2445    0.2964 N   0  0  0  0  0  0  0  0  0  0  0  0
   -3.1102   -0.8685   -0.2946 H   0  0  0  0  0  0  0  0  0  0  0  0
   -1.1292   -0.4875    0.3524 C   0  0  1  0  0  0  0  0  0  0  0  0
   -0.5898   -0.7762    1.2552 H   0  0  0  0  0  0  0  0  0  0  0  0
   -0.2608   -0.8470   -0.8656 C   0  0  0  0  0  0  0  0  0  0  0  0
   -0.8454   -0.6971   -1.7742 H   0  0  0  0  0  0  0  0  0  0  0  0
    0.5892   -0.1639   -0.9075 H   0  0  0  0  0  0  0  0  0  0  0  0
    0.2439   -2.2770   -0.8610 C   0  0  0  0  0  0  0  0  0  0  0  0
    1.3738   -2.6302   -0.0962 C   0  0  0  0  0  0  0  0  0  0  0  0
    1.9013   -1.8744    0.4709 H   0  0  0  0  0  0  0  0  0  0  0  0
    1.8145   -3.9675   -0.0632 C   0  0  0  0  0  0  0  0  0  0  0  0
    2.6809   -4.2341    0.5223 H   0  0  0  0  0  0  0  0  0  0  0  0
    1.1202   -4.9556   -0.7949 C   0  0  0  0  0  0  0  0  0  0  0  0
    1.5355   -6.2486   -0.7673 O   0  0  0  0  0  0  0  0  0  0  0  0
    2.3611   -6.3526   -0.2925 H   0  0  0  0  0  0  0  0  0  0  0  0
   -0.0131   -4.6012   -1.5558 C   0  0  0  0  0  0  0  0  0  0  0  0
   -0.5330   -5.3649   -2.1145 H   0  0  0  0  0  0  0  0  0  0  0  0
   -0.4484   -3.2628   -1.5904 C   0  0  0  0  0  0  0  0  0  0  0  0
   -1.3137   -2.9897   -2.1826 H   0  0  0  0  0  0  0  0  0  0  0  0
   -1.4018    1.0238    0.4329 C   0  0  0  0  0  0  0  0  0  0  0  0
   -2.4110    1.5002   -0.0873 O   0  0  0  0  0  0  0  0  0  0  0  0
   -0.5039    1.7774    1.0803 N   0  0  0  0  0  0  0  0  0  0  0  0
    0.3259    1.3189    1.4277 H   0  0  0  0  0  0  0  0  0  0  0  0
   -0.6092    3.2251    1.2468 C   0  0  0  0  0  0  0  0  0  0  0  0
   -1.5953    3.4825    1.6375 H   0  0  0  0  0  0  0  0  0  0  0  0
    0.1557    3.5804    1.9392 H   0  0  0  0  0  0  0  0  0  0  0  0
   -0.4774    3.7165    0.2807 H   0  0  0  0  0  0  0  0  0  0  0  0
  5  6  2  0  0  0  0
  5  7  1  0  0  0  0
  2  3  1  0  0  0  0
  2  4  1  0  0  0  0
  2  5  1  0  0  0  0
  1  2  1  0  0  0  0
 26 27  2  0  0  0  0
 26 28  1  0  0  0  0
 24 25  1  0  0  0  0
 22 23  1  0  0  0  0
 22 24  2  0  0  0  0
 20 21  1  0  0  0  0
 19 20  1  0  0  0  0
 19 22  1  0  0  0  0
 17 18  1  0  0  0  0
 17 19  2  0  0  0  0
 15 16  1  0  0  0  0
 15 17  1  0  0  0  0
 14 15  2  0  0  0  0
 14 24  1  0  0  0  0
 11 12  1  0  0  0  0
 11 13  1  0  0  0  0
 11 14  1  0  0  0  0
  9 10  1  0  0  0  0
  9 11  1  0  0  0  0
  9 26  1  0  0  0  0
  7  8  1  0  0  0  0
  7  9  1  0  0  0  0
 30 31  1  0  0  0  0
 30 32  1  0  0  0  0
 30 33  1  0  0  0  0
 28 29  1  0  0  0  0
 28 30  1  0  0  0  0
M  END
$$$$
default_name
  -OEChem-01062215323D

 33 33  0     1  0  0  0  0  0999 V2000
   -4.0702   -3.8485    1.4554 H   0  0  0  0  0  0  0  0  0  0  0  0
   -4.0012   -2.9605    0.8284 C   0  0  0  0  0  0  0  0  0  0  0  0
   -4.7652   -2.2435    1.1234 H   0  0  0  0  0  0  0  0  0  0  0  0
   -4.1352   -3.2385   -0.2156 H   0  0  0  0  0  0  0  0  0  0  0  0
   -2.6362   -2.3395    1.0094 C   0  0  0  0  0  0  0  0  0  0  0  0
   -1.8292   -2.8395    1.7814 O   0  0  0  0  0  0  0  0  0  0  0  0
   -2.3832   -1.2445    0.2964 N   0  0  0  0  0  0  0  0  0  0  0  0
   -3.1102   -0.8685   -0.2946 H   0  0  0  0  0  0  0  0  0  0  0  0
   -1.1292   -0.4875    0.3524 C   0  0  1  0  0  0  0  0  0  0  0  0
   -0.5898   -0.7762    1.2552 H   0  0  0  0  0  0  0  0  0  0  0  0
   -0.2608   -0.8470   -0.8656 C   0  0  0  0  0  0  0  0  0  0  0  0
   -0.8454   -0.6971   -1.7742 H   0  0  0  0  0  0  0  0  0  0  0  0
    0.5892   -0.1639   -0.9075 H   0  0  0  0  0  0  0  0  0  0  0  0
    0.2439   -2.2770   -0.8610 C   0  0  0  0  0  0  0  0  0  0  0  0
    1.3738   -2.6302   -0.0962 C   0  0  0  0  0  0  0  0  0  0  0  0
    1.9013   -1.8744    0.4709 H   0  0  0  0  0  0  0  0  0  0  0  0
    1.8145   -3.9675   -0.0632 C   0  0  0  0  0  0  0  0  0  0  0  0
    2.6809   -4.2341    0.5223 H   0  0  0  0  0  0  0  0  0  0  0  0
    1.1202   -4.9556   -0.7949 C   0  0  0  0  0  0  0  0  0  0  0  0
    1.5355   -6.2486   -0.7673 O   0  0  0  0  0  0  0  0  0  0  0  0
    2.3611   -6.3526   -0.2925 H   0  0  0  0  0  0  0  0  0  0  0  0
   -0.0131   -4.6012   -1.5558 C   0  0  0  0  0  0  0  0  0  0  0  0
   -0.5330   -5.3649   -2.1145 H   0  0  0  0  0  0  0  0  0  0  0  0
   -0.4484   -3.2628   -1.5904 C   0  0  0  0  0  0  0  0  0  0  0  0
   -1.3137   -2.9897   -2.1826 H   0  0  0  0  0  0  0  0  0  0  0  0
   -1.4018    1.0238    0.4329 C   0  0  0  0  0  0  0  0  0  0  0  0
   -2.5192    1.4672    0.1664 O   0  0  0  0  0  0  0  0  0  0  0  0
   -0.3838    1.8142    0.7964 N   0  0  0  0  0  0  0  0  0  0  0  0
    0.5158    1.3791    0.9409 H   0  0  0  0  0  0  0  0  0  0  0  0
   -0.4715    3.2673    0.9202 C   0  0  0  0  0  0  0  0  0  0  0  0
   -1.3308    3.5355    1.5374 H   0  0  0  0  0  0  0  0  0  0  0  0
    0.4371    3.6611    1.3786 H   0  0  0  0  0  0  0  0  0  0  0  0
   -0.5990    3.7131   -0.0684 H   0  0  0  0  0  0  0  0  0  0  0  0
  5  6  2  0  0  0  0
  5  7  1  0  0  0  0
  2  3  1  0  0  0  0
  2  4  1  0  0  0  0
  2  5  1  0  0  0  0
  1  2  1  0  0  0  0
 26 27  2  0  0  0  0
 26 28  1  0  0  0  0
 24 25  1  0  0  0  0
 22 23  1  0  0  0  0
 22 24  2  0  0  0  0
 20 21  1  0  0  0  0
 19 20  1  0  0  0  0
 19 22  1  0  0  0  0
 17 18  1  0  0  0  0
 17 19  2  0  0  0  0
 15 16  1  0  0  0  0
 15 17  1  0  0  0  0
 14 15  2  0  0  0  0
 14 24  1  0  0  0  0
 11 12  1  0  0  0  0
 11 13  1  0  0  0  0
 11 14  1  0  0  0  0
  9 10  1  0  0  0  0
  9 11  1  0  0  0  0
  9 26  1  0  0  0  0
  7  8  1  0  0  0  0
  7  9  1  0  0  0  0
 30 31  1  0  0  0  0
 30 32  1  0  0  0  0
 30 33  1  0  0  0  0
 28 29  1  0  0  0  0
 28 30  1  0  0  0  0
M  END
$$$$
default_name
  -OEChem-01062215323D

 33 33  0     1  0  0  0  0  0999 V2000
   -4.0702   -3.8485    1.4554 H   0  0  0  0  0  0  0  0  0  0  0  0
   -4.0012   -2.9605    0.8284 C   0  0  0  0  0  0  0  0  0  0  0  0
   -4.7652   -2.2435    1.1234 H   0  0  0  0  0  0  0  0  0  0  0  0
   -4.1352   -3.2385   -0.2156 H   0  0  0  0  0  0  0  0  0  0  0  0
   -2.6362   -2.3395    1.0094 C   0  0  0  0  0  0  0  0  0  0  0  0
   -1.8292   -2.8395    1.7814 O   0  0  0  0  0  0  0  0  0  0  0  0
   -2.3832   -1.2445    0.2964 N   0  0  0  0  0  0  0  0  0  0  0  0
   -3.1102   -0.8685   -0.2946 H   0  0  0  0  0  0  0  0  0  0  0  0
   -1.1292   -0.4875    0.3524 C   0  0  1  0  0  0  0  0  0  0  0  0
   -0.4746   -0.9548    1.0889 H   0  0  0  0  0  0  0  0  0  0  0  0
   -0.4348   -0.5475   -1.0191 C   0  0  0  0  0  0  0  0  0  0  0  0
   -1.1357   -0.2154   -1.7860 H   0  0  0  0  0  0  0  0  0  0  0  0
    0.4054    0.1489   -1.0205 H   0  0  0  0  0  0  0  0  0  0  0  0
    0.0586   -1.9302   -1.3992 C   0  0  0  0  0  0  0  0  0  0  0  0
    1.2794   -2.4152   -0.8885 C   0  0  0  0  0  0  0  0  0  0  0  0
    1.8825   -1.7903   -0.2428 H   0  0  0  0  0  0  0  0  0  0  0  0
    1.7136   -3.7154   -1.2121 C   0  0  0  0  0  0  0  0  0  0  0  0
    2.6497   -4.0830   -0.8206 H   0  0  0  0  0  0  0  0  0  0  0  0
    0.9219   -4.5346   -2.0463 C   0  0  0  0  0  0  0  0  0  0  0  0
    1.3304   -5.7910   -2.3618 O   0  0  0  0  0  0  0  0  0  0  0  0
    2.2120   -5.9766   -2.0357 H   0  0  0  0  0  0  0  0  0  0  0  0
   -0.3018   -4.0494   -2.5524 C   0  0  0  0  0  0  0  0  0  0  0  0
   -0.8961   -4.6836   -3.1928 H   0  0  0  0  0  0  0  0  0  0  0  0
   -0.7308   -2.7476   -2.2309 C   0  0  0  0  0  0  0  0  0  0  0  0
   -1.6666   -2.3722   -2.6276 H   0  0  0  0  0  0  0  0  0  0  0  0
   -1.3806    0.9615    0.8020 C   0  0  0  0  0  0  0  0  0  0  0  0
   -2.5237    1.3421    1.0562 O   0  0  0  0  0  0  0  0  0  0  0  0
   -0.3171    1.7695    0.8972 N   0  0  0  0  0  0  0  0  0  0  0  0
    0.5780    1.3975    0.6145 H   0  0  0  0  0  0  0  0  0  0  0  0
   -0.3801    3.1706    1.3068 C   0  0  0  0  0  0  0  0  0  0  0  0
   -0.9435    3.2598    2.2372 H   0  0  0  0  0  0  0  0  0  0  0  0
    0.6267    3.5639    1.4570 H   0  0  0  0  0  0  0  0  0  0  0  0
   -0.8846    3.7563    0.5356 H   0  0  0  0  0  0  0  0  0  0  0  0
  5  6  2  0  0  0  0
  5  7  1  0  0  0  0
  2  3  1  0  0  0  0
  2  4  1  0  0  0  0
  2  5  1  0  0  0  0
  1  2  1  0  0  0  0
 26 27  2  0  0  0  0
 26 28  1  0  0  0  0
 24 25  1  0  0  0  0
 22 23  1  0  0  0  0
 22 24  2  0  0  0  0
 20 21  1  0  0  0  0
 19 20  1  0  0  0  0
 19 22  1  0  0  0  0
 17 18  1  0  0  0  0
 17 19  2  0  0  0  0
 15 16  1  0  0  0  0
 15 17  1  0  0  0  0
 14 15  2  0  0  0  0
 14 24  1  0  0  0  0
 11 12  1  0  0  0  0
 11 13  1  0  0  0  0
 11 14  1  0  0  0  0
  9 10  1  0  0  0  0
  9 11  1  0  0  0  0
  9 26  1  0  0  0  0
  7  8  1  0  0  0  0
  7  9  1  0  0  0  0
 30 31  1  0  0  0  0
 30 32  1  0  0  0  0
 30 33  1  0  0  0  0
 28 29  1  0  0  0  0
 28 30  1  0  0  0  0
M  END
$$$$
default_name
  -OEChem-01062215323D

 33 33  0     1  0  0  0  0  0999 V2000
   -4.0702   -3.8485    1.4554 H   0  0  0  0  0  0  0  0  0  0  0  0
   -4.0012   -2.9605    0.8284 C   0  0  0  0  0  0  0  0  0  0  0  0
   -4.7652   -2.2435    1.1234 H   0  0  0  0  0  0  0  0  0  0  0  0
   -4.1352   -3.2385   -0.2156 H   0  0  0  0  0  0  0  0  0  0  0  0
   -2.6362   -2.3395    1.0094 C   0  0  0  0  0  0  0  0  0  0  0  0
   -1.8292   -2.8395    1.7814 O   0  0  0  0  0  0  0  0  0  0  0  0
   -2.3832   -1.2445    0.2964 N   0  0  0  0  0  0  0  0  0  0  0  0
   -3.1102   -0.8685   -0.2946 H   0  0  0  0  0  0  0  0  0  0  0  0
   -1.1292   -0.4875    0.3524 C   0  0  1  0  0  0  0  0  0  0  0  0
   -0.4746   -0.9548    1.0889 H   0  0  0  0  0  0  0  0  0  0  0  0
   -0.4348   -0.5475   -1.0191 C   0  0  0  0  0  0  0  0  0  0  0  0
   -1.1357   -0.2154   -1.7860 H   0  0  0  0  0  0  0  0  0  0  0  0
    0.4054    0.1489   -1.0205 H   0  0  0  0  0  0  0  0  0  0  0  0
    0.0586   -1.9302   -1.3992 C   0  0  0  0  0  0  0  0  0  0  0  0
    1.2794   -2.4152   -0.8885 C   0  0  0  0  0  0  0  0  0  0  0  0
    1.8825   -1.7903   -0.2428 H   0  0  0  0  0  0  0  0  0  0  0  0
    1.7136   -3.7154   -1.2121 C   0  0  0  0  0  0  0  0  0  0  0  0
    2.6497   -4.0830   -0.8206 H   0  0  0  0  0  0  0  0  0  0  0  0
    0.9219   -4.5346   -2.0463 C   0  0  0  0  0  0  0  0  0  0  0  0
    1.3304   -5.7910   -2.3618 O   0  0  0  0  0  0  0  0  0  0  0  0
    2.2120   -5.9766   -2.0357 H   0  0  0  0  0  0  0  0  0  0  0  0
   -0.3018   -4.0494   -2.5524 C   0  0  0  0  0  0  0  0  0  0  0  0
   -0.8961   -4.6836   -3.1928 H   0  0  0  0  0  0  0  0  0  0  0  0
   -0.7308   -2.7476   -2.2309 C   0  0  0  0  0  0  0  0  0  0  0  0
   -1.6666   -2.3722   -2.6276 H   0  0  0  0  0  0  0  0  0  0  0  0
   -1.3806    0.9615    0.8020 C   0  0  0  0  0  0  0  0  0  0  0  0
   -2.4550    1.2733    1.3164 O   0  0  0  0  0  0  0  0  0  0  0  0
   -0.3947    1.8462    0.6066 N   0  0  0  0  0  0  0  0  0  0  0  0
    0.4323    1.5241    0.1251 H   0  0  0  0  0  0  0  0  0  0  0  0
   -0.4697    3.2587    0.9727 C   0  0  0  0  0  0  0  0  0  0  0  0
   -0.7963    3.3560    2.0095 H   0  0  0  0  0  0  0  0  0  0  0  0
    0.5082    3.7292    0.8581 H   0  0  0  0  0  0  0  0  0  0  0  0
   -1.1918    3.7668    0.3301 H   0  0  0  0  0  0  0  0  0  0  0  0
  5  6  2  0  0  0  0
  5  7  1  0  0  0  0
  2  3  1  0  0  0  0
  2  4  1  0  0  0  0
  2  5  1  0  0  0  0
  1  2  1  0  0  0  0
 26 27  2  0  0  0  0
 26 28  1  0  0  0  0
 24 25  1  0  0  0  0
 22 23  1  0  0  0  0
 22 24  2  0  0  0  0
 20 21  1  0  0  0  0
 19 20  1  0  0  0  0
 19 22  1  0  0  0  0
 17 18  1  0  0  0  0
 17 19  2  0  0  0  0
 15 16  1  0  0  0  0
 15 17  1  0  0  0  0
 14 15  2  0  0  0  0
 14 24  1  0  0  0  0
 11 12  1  0  0  0  0
 11 13  1  0  0  0  0
 11 14  1  0  0  0  0
  9 10  1  0  0  0  0
  9 11  1  0  0  0  0
  9 26  1  0  0  0  0
  7  8  1  0  0  0  0
  7  9  1  0  0  0  0
 30 31  1  0  0  0  0
 30 32  1  0  0  0  0
 30 33  1  0  0  0  0
 28 29  1  0  0  0  0
 28 30  1  0  0  0  0
M  END
$$$$
default_name
  -OEChem-01062215323D

 33 33  0     1  0  0  0  0  0999 V2000
   -4.0702   -3.8485    1.4554 H   0  0  0  0  0  0  0  0  0  0  0  0
   -4.0012   -2.9605    0.8284 C   0  0  0  0  0  0  0  0  0  0  0  0
   -4.7652   -2.2435    1.1234 H   0  0  0  0  0  0  0  0  0  0  0  0
   -4.1352   -3.2385   -0.2156 H   0  0  0  0  0  0  0  0  0  0  0  0
   -2.6362   -2.3395    1.0094 C   0  0  0  0  0  0  0  0  0  0  0  0
   -1.8292   -2.8395    1.7814 O   0  0  0  0  0  0  0  0  0  0  0  0
   -2.3832   -1.2445    0.2964 N   0  0  0  0  0  0  0  0  0  0  0  0
   -3.1102   -0.8685   -0.2946 H   0  0  0  0  0  0  0  0  0  0  0  0
   -1.1292   -0.4875    0.3524 C   0  0  1  0  0  0  0  0  0  0  0  0
   -0.4746   -0.9548    1.0889 H   0  0  0  0  0  0  0  0  0  0  0  0
   -0.4348   -0.5475   -1.0191 C   0  0  0  0  0  0  0  0  0  0  0  0
   -1.1357   -0.2154   -1.7860 H   0  0  0  0  0  0  0  0  0  0  0  0
    0.4054    0.1489   -1.0205 H   0  0  0  0  0  0  0  0  0  0  0  0
    0.0586   -1.9302   -1.3992 C   0  0  0  0  0  0  0  0  0  0  0  0
    1.2794   -2.4152   -0.8885 C   0  0  0  0  0  0  0  0  0  0  0  0
    1.8825   -1.7903   -0.2428 H   0  0  0  0  0  0  0  0  0  0  0  0
    1.7136   -3.7154   -1.2121 C   0  0  0  0  0  0  0  0  0  0  0  0
    2.6497   -4.0830   -0.8206 H   0  0  0  0  0  0  0  0  0  0  0  0
    0.9219   -4.5346   -2.0463 C   0  0  0  0  0  0  0  0  0  0  0  0
    1.3304   -5.7910   -2.3618 O   0  0  0  0  0  0  0  0  0  0  0  0
    2.2120   -5.9766   -2.0357 H   0  0  0  0  0  0  0  0  0  0  0  0
   -0.3018   -4.0494   -2.5524 C   0  0  0  0  0  0  0  0  0  0  0  0
   -0.8961   -4.6836   -3.1928 H   0  0  0  0  0  0  0  0  0  0  0  0
   -0.7308   -2.7476   -2.2309 C   0  0  0  0  0  0  0  0  0  0  0  0
   -1.6666   -2.3722   -2.6276 H   0  0  0  0  0  0  0  0  0  0  0  0
   -1.3806    0.9615    0.8020 C   0  0  0  0  0  0  0  0  0  0  0  0
   -2.3200    1.2230    1.5539 O   0  0  0  0  0  0  0  0  0  0  0  0
   -0.5463    1.9022    0.3415 N   0  0  0  0  0  0  0  0  0  0  0  0
    0.1627    1.6146   -0.3174 H   0  0  0  0  0  0  0  0  0  0  0  0
   -0.6444    3.3229    0.6681 C   0  0  0  0  0  0  0  0  0  0  0  0
   -0.7169    3.4504    1.7496 H   0  0  0  0  0  0  0  0  0  0  0  0
    0.2352    3.8545    0.3015 H   0  0  0  0  0  0  0  0  0  0  0  0
   -1.5393    3.7450    0.2061 H   0  0  0  0  0  0  0  0  0  0  0  0
  5  6  2  0  0  0  0
  5  7  1  0  0  0  0
  2  3  1  0  0  0  0
  2  4  1  0  0  0  0
  2  5  1  0  0  0  0
  1  2  1  0  0  0  0
 26 27  2  0  0  0  0
 26 28  1  0  0  0  0
 24 25  1  0  0  0  0
 22 23  1  0  0  0  0
 22 24  2  0  0  0  0
 20 21  1  0  0  0  0
 19 20  1  0  0  0  0
 19 22  1  0  0  0  0
 17 18  1  0  0  0  0
 17 19  2  0  0  0  0
 15 16  1  0  0  0  0
 15 17  1  0  0  0  0
 14 15  2  0  0  0  0
 14 24  1  0  0  0  0
 11 12  1  0  0  0  0
 11 13  1  0  0  0  0
 11 14  1  0  0  0  0
  9 10  1  0  0  0  0
  9 11  1  0  0  0  0
  9 26  1  0  0  0  0
  7  8  1  0  0  0  0
  7  9  1  0  0  0  0
 30 31  1  0  0  0  0
 30 32  1  0  0  0  0
 30 33  1  0  0  0  0
 28 29  1  0  0  0  0
 28 30  1  0  0  0  0
M  END
$$$$
default_name
  -OEChem-01062215323D

 33 33  0     1  0  0  0  0  0999 V2000
   -4.0702   -3.8485    1.4554 H   0  0  0  0  0  0  0  0  0  0  0  0
   -4.0012   -2.9605    0.8284 C   0  0  0  0  0  0  0  0  0  0  0  0
   -4.7652   -2.2435    1.1234 H   0  0  0  0  0  0  0  0  0  0  0  0
   -4.1352   -3.2385   -0.2156 H   0  0  0  0  0  0  0  0  0  0  0  0
   -2.6362   -2.3395    1.0094 C   0  0  0  0  0  0  0  0  0  0  0  0
   -1.8292   -2.8395    1.7814 O   0  0  0  0  0  0  0  0  0  0  0  0
   -2.3832   -1.2445    0.2964 N   0  0  0  0  0  0  0  0  0  0  0  0
   -3.1102   -0.8685   -0.2946 H   0  0  0  0  0  0  0  0  0  0  0  0
   -1.1292   -0.4875    0.3524 C   0  0  1  0  0  0  0  0  0  0  0  0
   -0.4746   -0.9548    1.0889 H   0  0  0  0  0  0  0  0  0  0  0  0
   -0.4348   -0.5475   -1.0191 C   0  0  0  0  0  0  0  0  0  0  0  0
   -1.1357   -0.2154   -1.7860 H   0  0  0  0  0  0  0  0  0  0  0  0
    0.4054    0.1489   -1.0205 H   0  0  0  0  0  0  0  0  0  0  0  0
    0.0586   -1.9302   -1.3992 C   0  0  0  0  0  0  0  0  0  0  0  0
    1.2794   -2.4152   -0.8885 C   0  0  0  0  0  0  0  0  0  0  0  0
    1.8825   -1.7903   -0.2428 H   0  0  0  0  0  0  0  0  0  0  0  0
    1.7136   -3.7154   -1.2121 C   0  0  0  0  0  0  0  0  0  0  0  0
    2.6497   -4.0830   -0.8206 H   0  0  0  0  0  0  0  0  0  0  0  0
    0.9219   -4.5346   -2.0463 C   0  0  0  0  0  0  0  0  0  0  0  0
    1.3304   -5.7910   -2.3618 O   0  0  0  0  0  0  0  0  0  0  0  0
    2.2120   -5.9766   -2.0357 H   0  0  0  0  0  0  0  0  0  0  0  0
   -0.3018   -4.0494   -2.5524 C   0  0  0  0  0  0  0  0  0  0  0  0
   -0.8961   -4.6836   -3.1928 H   0  0  0  0  0  0  0  0  0  0  0  0
   -0.7308   -2.7476   -2.2309 C   0  0  0  0  0  0  0  0  0  0  0  0
   -1.6666   -2.3722   -2.6276 H   0  0  0  0  0  0  0  0  0  0  0  0
   -1.3806    0.9615    0.8020 C   0  0  0  0  0  0  0  0  0  0  0  0
   -2.1279    1.1947    1.7524 O   0  0  0  0  0  0  0  0  0  0  0  0
   -0.7616    1.9335    0.1200 N   0  0  0  0  0  0  0  0  0  0  0  0
   -0.2124    1.6629   -0.6829 H   0  0  0  0  0  0  0  0  0  0  0  0
   -0.8924    3.3588    0.4138 C   0  0  0  0  0  0  0  0  0  0  0  0
   -0.7107    3.5366    1.4751 H   0  0  0  0  0  0  0  0  0  0  0  0
   -0.1737    3.9313   -0.1748 H   0  0  0  0  0  0  0  0  0  0  0  0
   -1.9036    3.6924    0.1720 H   0  0  0  0  0  0  0  0  0  0  0  0
  5  6  2  0  0  0  0
  5  7  1  0  0  0  0
  2  3  1  0  0  0  0
  2  4  1  0  0  0  0
  2  5  1  0  0  0  0
  1  2  1  0  0  0  0
 26 27  2  0  0  0  0
 26 28  1  0  0  0  0
 24 25  1  0  0  0  0
 22 23  1  0  0  0  0
 22 24  2  0  0  0  0
 20 21  1  0  0  0  0
 19 20  1  0  0  0  0
 19 22  1  0  0  0  0
 17 18  1  0  0  0  0
 17 19  2  0  0  0  0
 15 16  1  0  0  0  0
 15 17  1  0  0  0  0
 14 15  2  0  0  0  0
 14 24  1  0  0  0  0
 11 12  1  0  0  0  0
 11 13  1  0  0  0  0
 11 14  1  0  0  0  0
  9 10  1  0  0  0  0
  9 11  1  0  0  0  0
  9 26  1  0  0  0  0
  7  8  1  0  0  0  0
  7  9  1  0  0  0  0
 30 31  1  0  0  0  0
 30 32  1  0  0  0  0
 30 33  1  0  0  0  0
 28 29  1  0  0  0  0
 28 30  1  0  0  0  0
M  END
$$$$
default_name
  -OEChem-01062215323D

 33 33  0     1  0  0  0  0  0999 V2000
   -4.0702   -3.8485    1.4554 H   0  0  0  0  0  0  0  0  0  0  0  0
   -4.0012   -2.9605    0.8284 C   0  0  0  0  0  0  0  0  0  0  0  0
   -4.7652   -2.2435    1.1234 H   0  0  0  0  0  0  0  0  0  0  0  0
   -4.1352   -3.2385   -0.2156 H   0  0  0  0  0  0  0  0  0  0  0  0
   -2.6362   -2.3395    1.0094 C   0  0  0  0  0  0  0  0  0  0  0  0
   -1.8292   -2.8395    1.7814 O   0  0  0  0  0  0  0  0  0  0  0  0
   -2.3832   -1.2445    0.2964 N   0  0  0  0  0  0  0  0  0  0  0  0
   -3.1102   -0.8685   -0.2946 H   0  0  0  0  0  0  0  0  0  0  0  0
   -1.1292   -0.4875    0.3524 C   0  0  1  0  0  0  0  0  0  0  0  0
   -0.4746   -0.9548    1.0889 H   0  0  0  0  0  0  0  0  0  0  0  0
   -0.4348   -0.5475   -1.0191 C   0  0  0  0  0  0  0  0  0  0  0  0
   -1.1357   -0.2154   -1.7860 H   0  0  0  0  0  0  0  0  0  0  0  0
    0.4054    0.1489   -1.0205 H   0  0  0  0  0  0  0  0  0  0  0  0
    0.0586   -1.9302   -1.3992 C   0  0  0  0  0  0  0  0  0  0  0  0
    1.2794   -2.4152   -0.8885 C   0  0  0  0  0  0  0  0  0  0  0  0
    1.8825   -1.7903   -0.2428 H   0  0  0  0  0  0  0  0  0  0  0  0
    1.7136   -3.7154   -1.2121 C   0  0  0  0  0  0  0  0  0  0  0  0
    2.6497   -4.0830   -0.8206 H   0  0  0  0  0  0  0  0  0  0  0  0
    0.9219   -4.5346   -2.0463 C   0  0  0  0  0  0  0  0  0  0  0  0
    1.3304   -5.7910   -2.3618 O   0  0  0  0  0  0  0  0  0  0  0  0
    2.2120   -5.9766   -2.0357 H   0  0  0  0  0  0  0  0  0  0  0  0
   -0.3018   -4.0494   -2.5524 C   0  0  0  0  0  0  0  0  0  0  0  0
   -0.8961   -4.6836   -3.1928 H   0  0  0  0  0  0  0  0  0  0  0  0
   -0.7308   -2.7476   -2.2309 C   0  0  0  0  0  0  0  0  0  0  0  0
   -1.6666   -2.3722   -2.6276 H   0  0  0  0  0  0  0  0  0  0  0  0
   -1.3806    0.9615    0.8020 C   0  0  0  0  0  0  0  0  0  0  0  0
   -1.8917    1.1904    1.8986 O   0  0  0  0  0  0  0  0  0  0  0  0
   -1.0260    1.9381   -0.0427 N   0  0  0  0  0  0  0  0  0  0  0  0
   -0.6676    1.6657   -0.9465 H   0  0  0  0  0  0  0  0  0  0  0  0
   -1.1966    3.3639    0.2271 C   0  0  0  0  0  0  0  0  0  0  0  0
   -0.7782    3.6088    1.2049 H   0  0  0  0  0  0  0  0  0  0  0  0
   -0.6906    3.9545   -0.5385 H   0  0  0  0  0  0  0  0  0  0  0  0
   -2.2599    3.6125    0.2301 H   0  0  0  0  0  0  0  0  0  0  0  0
  5  6  2  0  0  0  0
  5  7  1  0  0  0  0
  2  3  1  0  0  0  0
  2  4  1  0  0  0  0
  2  5  1  0  0  0  0
  1  2  1  0  0  0  0
 26 27  2  0  0  0  0
 26 28  1  0  0  0  0
 24 25  1  0  0  0  0
 22 23  1  0  0  0  0
 22 24  2  0  0  0  0
 20 21  1  0  0  0  0
 19 20  1  0  0  0  0
 19 22  1  0  0  0  0
 17 18  1  0  0  0  0
 17 19  2  0  0  0  0
 15 16  1  0  0  0  0
 15 17  1  0  0  0  0
 14 15  2  0  0  0  0
 14 24  1  0  0  0  0
 11 12  1  0  0  0  0
 11 13  1  0  0  0  0
 11 14  1  0  0  0  0
  9 10  1  0  0  0  0
  9 11  1  0  0  0  0
  9 26  1  0  0  0  0
  7  8  1  0  0  0  0
  7  9  1  0  0  0  0
 30 31  1  0  0  0  0
 30 32  1  0  0  0  0
 30 33  1  0  0  0  0
 28 29  1  0  0  0  0
 28 30  1  0  0  0  0
M  END
$$$$
default_name
  -OEChem-01062215323D

 33 33  0     1  0  0  0  0  0999 V2000
   -4.0702   -3.8485    1.4554 H   0  0  0  0  0  0  0  0  0  0  0  0
   -4.0012   -2.9605    0.8284 C   0  0  0  0  0  0  0  0  0  0  0  0
   -4.7652   -2.2435    1.1234 H   0  0  0  0  0  0  0  0  0  0  0  0
   -4.1352   -3.2385   -0.2156 H   0  0  0  0  0  0  0  0  0  0  0  0
   -2.6362   -2.3395    1.0094 C   0  0  0  0  0  0  0  0  0  0  0  0
   -1.8292   -2.8395    1.7814 O   0  0  0  0  0  0  0  0  0  0  0  0
   -2.3832   -1.2445    0.2964 N   0  0  0  0  0  0  0  0  0  0  0  0
   -3.1102   -0.8685   -0.2946 H   0  0  0  0  0  0  0  0  0  0  0  0
   -1.1292   -0.4875    0.3524 C   0  0  1  0  0  0  0  0  0  0  0  0
   -0.4746   -0.9548    1.0889 H   0  0  0  0  0  0  0  0  0  0  0  0
   -0.4348   -0.5475   -1.0191 C   0  0  0  0  0  0  0  0  0  0  0  0
   -1.1357   -0.2154   -1.7860 H   0  0  0  0  0  0  0  0  0  0  0  0
    0.4054    0.1489   -1.0205 H   0  0  0  0  0  0  0  0  0  0  0  0
    0.0586   -1.9302   -1.3992 C   0  0  0  0  0  0  0  0  0  0  0  0
    1.2794   -2.4152   -0.8885 C   0  0  0  0  0  0  0  0  0  0  0  0
    1.8825   -1.7903   -0.2428 H   0  0  0  0  0  0  0  0  0  0  0  0
    1.7136   -3.7154   -1.2121 C   0  0  0  0  0  0  0  0  0  0  0  0
    2.6497   -4.0830   -0.8206 H   0  0  0  0  0  0  0  0  0  0  0  0
    0.9219   -4.5346   -2.0463 C   0  0  0  0  0  0  0  0  0  0  0  0
    1.3304   -5.7910   -2.3618 O   0  0  0  0  0  0  0  0  0  0  0  0
    2.2120   -5.9766   -2.0357 H   0  0  0  0  0  0  0  0  0  0  0  0
   -0.3018   -4.0494   -2.5524 C   0  0  0  0  0  0  0  0  0  0  0  0
   -0.8961   -4.6836   -3.1928 H   0  0  0  0  0  0  0  0  0  0  0  0
   -0.7308   -2.7476   -2.2309 C   0  0  0  0  0  0  0  0  0  0  0  0
   -1.6666   -2.3722   -2.6276 H   0  0  0  0  0  0  0  0  0  0  0  0
   -1.3806    0.9615    0.8020 C   0  0  0  0  0  0  0  0  0  0  0  0
   -1.6277    1.2102    1.9823 O   0  0  0  0  0  0  0  0  0  0  0  0
   -1.3214    1.9157   -0.1356 N   0  0  0  0  0  0  0  0  0  0  0  0
   -1.1718    1.6229   -1.0903 H   0  0  0  0  0  0  0  0  0  0  0  0
   -1.5363    3.3380    0.1207 C   0  0  0  0  0  0  0  0  0  0  0  0
   -0.9148    3.6619    0.9573 H   0  0  0  0  0  0  0  0  0  0  0  0
   -1.2804    3.9223   -0.7646 H   0  0  0  0  0  0  0  0  0  0  0  0
   -2.5837    3.5109    0.3764 H   0  0  0  0  0  0  0  0  0  0  0  0
  5  6  2  0  0  0  0
  5  7  1  0  0  0  0
  2  3  1  0  0  0  0
  2  4  1  0  0  0  0
  2  5  1  0  0  0  0
  1  2  1  0  0  0  0
 26 27  2  0  0  0  0
 26 28  1  0  0  0  0
 24 25  1  0  0  0  0
 22 23  1  0  0  0  0
 22 24  2  0  0  0  0
 20 21  1  0  0  0  0
 19 20  1  0  0  0  0
 19 22  1  0  0  0  0
 17 18  1  0  0  0  0
 17 19  2  0  0  0  0
 15 16  1  0  0  0  0
 15 17  1  0  0  0  0
 14 15  2  0  0  0  0
 14 24  1  0  0  0  0
 11 12  1  0  0  0  0
 11 13  1  0  0  0  0
 11 14  1  0  0  0  0
  9 10  1  0  0  0  0
  9 11  1  0  0  0  0
  9 26  1  0  0  0  0
  7  8  1  0  0  0  0
  7  9  1  0  0  0  0
 30 31  1  0  0  0  0
 30 32  1  0  0  0  0
 30 33  1  0  0  0  0
 28 29  1  0  0  0  0
 28 30  1  0  0  0  0
M  END
$$$$
default_name
  -OEChem-01062215323D

 33 33  0     1  0  0  0  0  0999 V2000
   -4.0702   -3.8485    1.4554 H   0  0  0  0  0  0  0  0  0  0  0  0
   -4.0012   -2.9605    0.8284 C   0  0  0  0  0  0  0  0  0  0  0  0
   -4.7652   -2.2435    1.1234 H   0  0  0  0  0  0  0  0  0  0  0  0
   -4.1352   -3.2385   -0.2156 H   0  0  0  0  0  0  0  0  0  0  0  0
   -2.6362   -2.3395    1.0094 C   0  0  0  0  0  0  0  0  0  0  0  0
   -1.8292   -2.8395    1.7814 O   0  0  0  0  0  0  0  0  0  0  0  0
   -2.3832   -1.2445    0.2964 N   0  0  0  0  0  0  0  0  0  0  0  0
   -3.1102   -0.8685   -0.2946 H   0  0  0  0  0  0  0  0  0  0  0  0
   -1.1292   -0.4875    0.3524 C   0  0  1  0  0  0  0  0  0  0  0  0
   -0.4746   -0.9548    1.0889 H   0  0  0  0  0  0  0  0  0  0  0  0
   -0.4348   -0.5475   -1.0191 C   0  0  0  0  0  0  0  0  0  0  0  0
   -1.1357   -0.2154   -1.7860 H   0  0  0  0  0  0  0  0  0  0  0  0
    0.4054    0.1489   -1.0205 H   0  0  0  0  0  0  0  0  0  0  0  0
    0.0586   -1.9302   -1.3992 C   0  0  0  0  0  0  0  0  0  0  0  0
    1.2794   -2.4152   -0.8885 C   0  0  0  0  0  0  0  0  0  0  0  0
    1.8825   -1.7903   -0.2428 H   0  0  0  0  0  0  0  0  0  0  0  0
    1.7136   -3.7154   -1.2121 C   0  0  0  0  0  0  0  0  0  0  0  0
    2.6497   -4.0830   -0.8206 H   0  0  0  0  0  0  0  0  0  0  0  0
    0.9219   -4.5346   -2.0463 C   0  0  0  0  0  0  0  0  0  0  0  0
    1.3304   -5.7910   -2.3618 O   0  0  0  0  0  0  0  0  0  0  0  0
    2.2120   -5.9766   -2.0357 H   0  0  0  0  0  0  0  0  0  0  0  0
   -0.3018   -4.0494   -2.5524 C   0  0  0  0  0  0  0  0  0  0  0  0
   -0.8961   -4.6836   -3.1928 H   0  0  0  0  0  0  0  0  0  0  0  0
   -0.7308   -2.7476   -2.2309 C   0  0  0  0  0  0  0  0  0  0  0  0
   -1.6666   -2.3722   -2.6276 H   0  0  0  0  0  0  0  0  0  0  0  0
   -1.3806    0.9615    0.8020 C   0  0  0  0  0  0  0  0  0  0  0  0
   -1.3537    1.2529    1.9980 O   0  0  0  0  0  0  0  0  0  0  0  0
   -1.6277    1.8678   -0.1523 N   0  0  0  0  0  0  0  0  0  0  0  0
   -1.6906    1.5372   -1.1043 H   0  0  0  0  0  0  0  0  0  0  0  0
   -1.8885    3.2827    0.1019 C   0  0  0  0  0  0  0  0  0  0  0  0
   -1.1111    3.6924    0.7492 H   0  0  0  0  0  0  0  0  0  0  0  0
   -1.9028    3.8371   -0.8379 H   0  0  0  0  0  0  0  0  0  0  0  0
   -2.8532    3.3945    0.6011 H   0  0  0  0  0  0  0  0  0  0  0  0
  5  6  2  0  0  0  0
  5  7  1  0  0  0  0
  2  3  1  0  0  0  0
  2  4  1  0  0  0  0
  2  5  1  0  0  0  0
  1  2  1  0  0  0  0
 26 27  2  0  0  0  0
 26 28  1  0  0  0  0
 24 25  1  0  0  0  0
 22 23  1  0  0  0  0
 22 24  2  0  0  0  0
 20 21  1  0  0  0  0
 19 20  1  0  0  0  0
 19 22  1  0  0  0  0
 17 18  1  0  0  0  0
 17 19  2  0  0  0  0
 15 16  1  0  0  0  0
 15 17  1  0  0  0  0
 14 15  2  0  0  0  0
 14 24  1  0  0  0  0
 11 12  1  0  0  0  0
 11 13  1  0  0  0  0
 11 14  1  0  0  0  0
  9 10  1  0  0  0  0
  9 11  1  0  0  0  0
  9 26  1  0  0  0  0
  7  8  1  0  0  0  0
  7  9  1  0  0  0  0
 30 31  1  0  0  0  0
 30 32  1  0  0  0  0
 30 33  1  0  0  0  0
 28 29  1  0  0  0  0
 28 30  1  0  0  0  0
M  END
$$$$
default_name
  -OEChem-01062215323D

 33 33  0     1  0  0  0  0  0999 V2000
   -4.0702   -3.8485    1.4554 H   0  0  0  0  0  0  0  0  0  0  0  0
   -4.0012   -2.9605    0.8284 C   0  0  0  0  0  0  0  0  0  0  0  0
   -4.7652   -2.2435    1.1234 H   0  0  0  0  0  0  0  0  0  0  0  0
   -4.1352   -3.2385   -0.2156 H   0  0  0  0  0  0  0  0  0  0  0  0
   -2.6362   -2.3395    1.0094 C   0  0  0  0  0  0  0  0  0  0  0  0
   -1.8292   -2.8395    1.7814 O   0  0  0  0  0  0  0  0  0  0  0  0
   -2.3832   -1.2445    0.2964 N   0  0  0  0  0  0  0  0  0  0  0  0
   -3.1102   -0.8685   -0.2946 H   0  0  0  0  0  0  0  0  0  0  0  0
   -1.1292   -0.4875    0.3524 C   0  0  1  0  0  0  0  0  0  0  0  0
   -0.4746   -0.9548    1.0889 H   0  0  0  0  0  0  0  0  0  0  0  0
   -0.4348   -0.5475   -1.0191 C   0  0  0  0  0  0  0  0  0  0  0  0
   -1.1357   -0.2154   -1.7860 H   0  0  0  0  0  0  0  0  0  0  0  0
    0.4054    0.1489   -1.0205 H   0  0  0  0  0  0  0  0  0  0  0  0
    0.0586   -1.9302   -1.3992 C   0  0  0  0  0  0  0  0  0  0  0  0
    1.2794   -2.4152   -0.8885 C   0  0  0  0  0  0  0  0  0  0  0  0
    1.8825   -1.7903   -0.2428 H   0  0  0  0  0  0  0  0  0  0  0  0
    1.7136   -3.7154   -1.2121 C   0  0  0  0  0  0  0  0  0  0  0  0
    2.6497   -4.0830   -0.8206 H   0  0  0  0  0  0  0  0  0  0  0  0
    0.9219   -4.5346   -2.0463 C   0  0  0  0  0  0  0  0  0  0  0  0
    1.3304   -5.7910   -2.3618 O   0  0  0  0  0  0  0  0  0  0  0  0
    2.2120   -5.9766   -2.0357 H   0  0  0  0  0  0  0  0  0  0  0  0
   -0.3018   -4.0494   -2.5524 C   0  0  0  0  0  0  0  0  0  0  0  0
   -0.8961   -4.6836   -3.1928 H   0  0  0  0  0  0  0  0  0  0  0  0
   -0.7308   -2.7476   -2.2309 C   0  0  0  0  0  0  0  0  0  0  0  0
   -1.6666   -2.3722   -2.6276 H   0  0  0  0  0  0  0  0  0  0  0  0
   -1.3806    0.9615    0.8020 C   0  0  0  0  0  0  0  0  0  0  0  0
   -1.0884    1.3155    1.9445 O   0  0  0  0  0  0  0  0  0  0  0  0
   -1.9240    1.7976   -0.0918 N   0  0  0  0  0  0  0  0  0  0  0  0
   -2.1887    1.4146   -0.9878 H   0  0  0  0  0  0  0  0  0  0  0  0
   -2.2291    3.2019    0.1720 C   0  0  0  0  0  0  0  0  0  0  0  0
   -1.3538    3.6982    0.5947 H   0  0  0  0  0  0  0  0  0  0  0  0
   -2.5154    3.7045   -0.7533 H   0  0  0  0  0  0  0  0  0  0  0  0
   -3.0499    3.2711    0.8888 H   0  0  0  0  0  0  0  0  0  0  0  0
  5  6  2  0  0  0  0
  5  7  1  0  0  0  0
  2  3  1  0  0  0  0
  2  4  1  0  0  0  0
  2  5  1  0  0  0  0
  1  2  1  0  0  0  0
 26 27  2  0  0  0  0
 26 28  1  0  0  0  0
 24 25  1  0  0  0  0
 22 23  1  0  0  0  0
 22 24  2  0  0  0  0
 20 21  1  0  0  0  0
 19 20  1  0  0  0  0
 19 22  1  0  0  0  0
 17 18  1  0  0  0  0
 17 19  2  0  0  0  0
 15 16  1  0  0  0  0
 15 17  1  0  0  0  0
 14 15  2  0  0  0  0
 14 24  1  0  0  0  0
 11 12  1  0  0  0  0
 11 13  1  0  0  0  0
 11 14  1  0  0  0  0
  9 10  1  0  0  0  0
  9 11  1  0  0  0  0
  9 26  1  0  0  0  0
  7  8  1  0  0  0  0
  7  9  1  0  0  0  0
 30 31  1  0  0  0  0
 30 32  1  0  0  0  0
 30 33  1  0  0  0  0
 28 29  1  0  0  0  0
 28 30  1  0  0  0  0
M  END
$$$$
default_name
  -OEChem-01062215323D

 33 33  0     1  0  0  0  0  0999 V2000
   -4.0702   -3.8485    1.4554 H   0  0  0  0  0  0  0  0  0  0  0  0
   -4.0012   -2.9605    0.8284 C   0  0  0  0  0  0  0  0  0  0  0  0
   -4.7652   -2.2435    1.1234 H   0  0  0  0  0  0  0  0  0  0  0  0
   -4.1352   -3.2385   -0.2156 H   0  0  0  0  0  0  0  0  0  0  0  0
   -2.6362   -2.3395    1.0094 C   0  0  0  0  0  0  0  0  0  0  0  0
   -1.8292   -2.8395    1.7814 O   0  0  0  0  0  0  0  0  0  0  0  0
   -2.3832   -1.2445    0.2964 N   0  0  0  0  0  0  0  0  0  0  0  0
   -3.1102   -0.8685   -0.2946 H   0  0  0  0  0  0  0  0  0  0  0  0
   -1.1292   -0.4875    0.3524 C   0  0  1  0  0  0  0  0  0  0  0  0
   -0.4746   -0.9548    1.0889 H   0  0  0  0  0  0  0  0  0  0  0  0
   -0.4348   -0.5475   -1.0191 C   0  0  0  0  0  0  0  0  0  0  0  0
   -1.1357   -0.2154   -1.7860 H   0  0  0  0  0  0  0  0  0  0  0  0
    0.4054    0.1489   -1.0205 H   0  0  0  0  0  0  0  0  0  0  0  0
    0.0586   -1.9302   -1.3992 C   0  0  0  0  0  0  0  0  0  0  0  0
    1.2794   -2.4152   -0.8885 C   0  0  0  0  0  0  0  0  0  0  0  0
    1.8825   -1.7903   -0.2428 H   0  0  0  0  0  0  0  0  0  0  0  0
    1.7136   -3.7154   -1.2121 C   0  0  0  0  0  0  0  0  0  0  0  0
    2.6497   -4.0830   -0.8206 H   0  0  0  0  0  0  0  0  0  0  0  0
    0.9219   -4.5346   -2.0463 C   0  0  0  0  0  0  0  0  0  0  0  0
    1.3304   -5.7910   -2.3618 O   0  0  0  0  0  0  0  0  0  0  0  0
    2.2120   -5.9766   -2.0357 H   0  0  0  0  0  0  0  0  0  0  0  0
   -0.3018   -4.0494   -2.5524 C   0  0  0  0  0  0  0  0  0  0  0  0
   -0.8961   -4.6836   -3.1928 H   0  0  0  0  0  0  0  0  0  0  0  0
   -0.7308   -2.7476   -2.2309 C   0  0  0  0  0  0  0  0  0  0  0  0
   -1.6666   -2.3722   -2.6276 H   0  0  0  0  0  0  0  0  0  0  0  0
   -1.3806    0.9615    0.8020 C   0  0  0  0  0  0  0  0  0  0  0  0
   -0.8500    1.3938    1.8255 O   0  0  0  0  0  0  0  0  0  0  0  0
   -2.1901    1.7099    0.0419 N   0  0  0  0  0  0  0  0  0  0  0  0
   -2.6321    1.2635   -0.7486 H   0  0  0  0  0  0  0  0  0  0  0  0
   -2.5348    3.1010    0.3261 C   0  0  0  0  0  0  0  0  0  0  0  0
   -1.6263    3.6789    0.5045 H   0  0  0  0  0  0  0  0  0  0  0  0
   -3.0765    3.5337   -0.5166 H   0  0  0  0  0  0  0  0  0  0  0  0
   -3.1604    3.1492    1.2198 H   0  0  0  0  0  0  0  0  0  0  0  0
  5  6  2  0  0  0  0
  5  7  1  0  0  0  0
  2  3  1  0  0  0  0
  2  4  1  0  0  0  0
  2  5  1  0  0  0  0
  1  2  1  0  0  0  0
 26 27  2  0  0  0  0
 26 28  1  0  0  0  0
 24 25  1  0  0  0  0
 22 23  1  0  0  0  0
 22 24  2  0  0  0  0
 20 21  1  0  0  0  0
 19 20  1  0  0  0  0
 19 22  1  0  0  0  0
 17 18  1  0  0  0  0
 17 19  2  0  0  0  0
 15 16  1  0  0  0  0
 15 17  1  0  0  0  0
 14 15  2  0  0  0  0
 14 24  1  0  0  0  0
 11 12  1  0  0  0  0
 11 13  1  0  0  0  0
 11 14  1  0  0  0  0
  9 10  1  0  0  0  0
  9 11  1  0  0  0  0
  9 26  1  0  0  0  0
  7  8  1  0  0  0  0
  7  9  1  0  0  0  0
 30 31  1  0  0  0  0
 30 32  1  0  0  0  0
 30 33  1  0  0  0  0
 28 29  1  0  0  0  0
 28 30  1  0  0  0  0
M  END
$$$$
default_name
  -OEChem-01062215323D

 33 33  0     1  0  0  0  0  0999 V2000
   -4.0702   -3.8485    1.4554 H   0  0  0  0  0  0  0  0  0  0  0  0
   -4.0012   -2.9605    0.8284 C   0  0  0  0  0  0  0  0  0  0  0  0
   -4.7652   -2.2435    1.1234 H   0  0  0  0  0  0  0  0  0  0  0  0
   -4.1352   -3.2385   -0.2156 H   0  0  0  0  0  0  0  0  0  0  0  0
   -2.6362   -2.3395    1.0094 C   0  0  0  0  0  0  0  0  0  0  0  0
   -1.8292   -2.8395    1.7814 O   0  0  0  0  0  0  0  0  0  0  0  0
   -2.3832   -1.2445    0.2964 N   0  0  0  0  0  0  0  0  0  0  0  0
   -3.1102   -0.8685   -0.2946 H   0  0  0  0  0  0  0  0  0  0  0  0
   -1.1292   -0.4875    0.3524 C   0  0  1  0  0  0  0  0  0  0  0  0
   -0.4746   -0.9548    1.0889 H   0  0  0  0  0  0  0  0  0  0  0  0
   -0.4348   -0.5475   -1.0191 C   0  0  0  0  0  0  0  0  0  0  0  0
   -1.1357   -0.2154   -1.7860 H   0  0  0  0  0  0  0  0  0  0  0  0
    0.4054    0.1489   -1.0205 H   0  0  0  0  0  0  0  0  0  0  0  0
    0.0586   -1.9302   -1.3992 C   0  0  0  0  0  0  0  0  0  0  0  0
    1.2794   -2.4152   -0.8885 C   0  0  0  0  0  0  0  0  0  0  0  0
    1.8825   -1.7903   -0.2428 H   0  0  0  0  0  0  0  0  0  0  0  0
    1.7136   -3.7154   -1.2121 C   0  0  0  0  0  0  0  0  0  0  0  0
    2.6497   -4.0830   -0.8206 H   0  0  0  0  0  0  0  0  0  0  0  0
    0.9219   -4.5346   -2.0463 C   0  0  0  0  0  0  0  0  0  0  0  0
    1.3304   -5.7910   -2.3618 O   0  0  0  0  0  0  0  0  0  0  0  0
    2.2120   -5.9766   -2.0357 H   0  0  0  0  0  0  0  0  0  0  0  0
   -0.3018   -4.0494   -2.5524 C   0  0  0  0  0  0  0  0  0  0  0  0
   -0.8961   -4.6836   -3.1928 H   0  0  0  0  0  0  0  0  0  0  0  0
   -0.7308   -2.7476   -2.2309 C   0  0  0  0  0  0  0  0  0  0  0  0
   -1.6666   -2.3722   -2.6276 H   0  0  0  0  0  0  0  0  0  0  0  0
   -1.3806    0.9615    0.8020 C   0  0  0  0  0  0  0  0  0  0  0  0
   -0.6546    1.4824    1.6491 O   0  0  0  0  0  0  0  0  0  0  0  0
   -2.4079    1.6108    0.2397 N   0  0  0  0  0  0  0  0  0  0  0  0
   -2.9906    1.0940   -0.4029 H   0  0  0  0  0  0  0  0  0  0  0  0
   -2.7849    2.9870    0.5538 C   0  0  0  0  0  0  0  0  0  0  0  0
   -1.9101    3.6359    0.4846 H   0  0  0  0  0  0  0  0  0  0  0  0
   -3.5478    3.3363   -0.1439 H   0  0  0  0  0  0  0  0  0  0  0  0
   -3.1771    3.0371    1.5717 H   0  0  0  0  0  0  0  0  0  0  0  0
  5  6  2  0  0  0  0
  5  7  1  0  0  0  0
  2  3  1  0  0  0  0
  2  4  1  0  0  0  0
  2  5  1  0  0  0  0
  1  2  1  0  0  0  0
 26 27  2  0  0  0  0
 26 28  1  0  0  0  0
 24 25  1  0  0  0  0
 22 23  1  0  0  0  0
 22 24  2  0  0  0  0
 20 21  1  0  0  0  0
 19 20  1  0  0  0  0
 19 22  1  0  0  0  0
 17 18  1  0  0  0  0
 17 19  2  0  0  0  0
 15 16  1  0  0  0  0
 15 17  1  0  0  0  0
 14 15  2  0  0  0  0
 14 24  1  0  0  0  0
 11 12  1  0  0  0  0
 11 13  1  0  0  0  0
 11 14  1  0  0  0  0
  9 10  1  0  0  0  0
  9 11  1  0  0  0  0
  9 26  1  0  0  0  0
  7  8  1  0  0  0  0
  7  9  1  0  0  0  0
 30 31  1  0  0  0  0
 30 32  1  0  0  0  0
 30 33  1  0  0  0  0
 28 29  1  0  0  0  0
 28 30  1  0  0  0  0
M  END
$$$$
default_name
  -OEChem-01062215323D

 33 33  0     1  0  0  0  0  0999 V2000
   -4.0702   -3.8485    1.4554 H   0  0  0  0  0  0  0  0  0  0  0  0
   -4.0012   -2.9605    0.8284 C   0  0  0  0  0  0  0  0  0  0  0  0
   -4.7652   -2.2435    1.1234 H   0  0  0  0  0  0  0  0  0  0  0  0
   -4.1352   -3.2385   -0.2156 H   0  0  0  0  0  0  0  0  0  0  0  0
   -2.6362   -2.3395    1.0094 C   0  0  0  0  0  0  0  0  0  0  0  0
   -1.8292   -2.8395    1.7814 O   0  0  0  0  0  0  0  0  0  0  0  0
   -2.3832   -1.2445    0.2964 N   0  0  0  0  0  0  0  0  0  0  0  0
   -3.1102   -0.8685   -0.2946 H   0  0  0  0  0  0  0  0  0  0  0  0
   -1.1292   -0.4875    0.3524 C   0  0  1  0  0  0  0  0  0  0  0  0
   -0.4746   -0.9548    1.0889 H   0  0  0  0  0  0  0  0  0  0  0  0
   -0.4348   -0.5475   -1.0191 C   0  0  0  0  0  0  0  0  0  0  0  0
   -1.1357   -0.2154   -1.7860 H   0  0  0  0  0  0  0  0  0  0  0  0
    0.4054    0.1489   -1.0205 H   0  0  0  0  0  0  0  0  0  0  0  0
    0.0586   -1.9302   -1.3992 C   0  0  0  0  0  0  0  0  0  0  0  0
    1.2794   -2.4152   -0.8885 C   0  0  0  0  0  0  0  0  0  0  0  0
    1.8825   -1.7903   -0.2428 H   0  0  0  0  0  0  0  0  0  0  0  0
    1.7136   -3.7154   -1.2121 C   0  0  0  0  0  0  0  0  0  0  0  0
    2.6497   -4.0830   -0.8206 H   0  0  0  0  0  0  0  0  0  0  0  0
    0.9219   -4.5346   -2.0463 C   0  0  0  0  0  0  0  0  0  0  0  0
    1.3304   -5.7910   -2.3618 O   0  0  0  0  0  0  0  0  0  0  0  0
    2.2120   -5.9766   -2.0357 H   0  0  0  0  0  0  0  0  0  0  0  0
   -0.3018   -4.0494   -2.5524 C   0  0  0  0  0  0  0  0  0  0  0  0
   -0.8961   -4.6836   -3.1928 H   0  0  0  0  0  0  0  0  0  0  0  0
   -0.7308   -2.7476   -2.2309 C   0  0  0  0  0  0  0  0  0  0  0  0
   -1.6666   -2.3722   -2.6276 H   0  0  0  0  0  0  0  0  0  0  0  0
   -1.3806    0.9615    0.8020 C   0  0  0  0  0  0  0  0  0  0  0  0
   -0.5156    1.5753    1.4273 O   0  0  0  0  0  0  0  0  0  0  0  0
   -2.5626    1.5069    0.4880 N   0  0  0  0  0  0  0  0  0  0  0  0
   -3.2399    0.9179    0.0255 H   0  0  0  0  0  0  0  0  0  0  0  0
   -2.9623    2.8675    0.8396 C   0  0  0  0  0  0  0  0  0  0  0  0
   -2.1858    3.5719    0.5365 H   0  0  0  0  0  0  0  0  0  0  0  0
   -3.8972    3.1257    0.3394 H   0  0  0  0  0  0  0  0  0  0  0  0
   -3.0990    2.9425    1.9204 H   0  0  0  0  0  0  0  0  0  0  0  0
  5  6  2  0  0  0  0
  5  7  1  0  0  0  0
  2  3  1  0  0  0  0
  2  4  1  0  0  0  0
  2  5  1  0  0  0  0
  1  2  1  0  0  0  0
 26 27  2  0  0  0  0
 26 28  1  0  0  0  0
 24 25  1  0  0  0  0
 22 23  1  0  0  0  0
 22 24  2  0  0  0  0
 20 21  1  0  0  0  0
 19 20  1  0  0  0  0
 19 22  1  0  0  0  0
 17 18  1  0  0  0  0
 17 19  2  0  0  0  0
 15 16  1  0  0  0  0
 15 17  1  0  0  0  0
 14 15  2  0  0  0  0
 14 24  1  0  0  0  0
 11 12  1  0  0  0  0
 11 13  1  0  0  0  0
 11 14  1  0  0  0  0
  9 10  1  0  0  0  0
  9 11  1  0  0  0  0
  9 26  1  0  0  0  0
  7  8  1  0  0  0  0
  7  9  1  0  0  0  0
 30 31  1  0  0  0  0
 30 32  1  0  0  0  0
 30 33  1  0  0  0  0
 28 29  1  0  0  0  0
 28 30  1  0  0  0  0
M  END
$$$$
default_name
  -OEChem-01062215323D

 33 33  0     1  0  0  0  0  0999 V2000
   -4.0702   -3.8485    1.4554 H   0  0  0  0  0  0  0  0  0  0  0  0
   -4.0012   -2.9605    0.8284 C   0  0  0  0  0  0  0  0  0  0  0  0
   -4.7652   -2.2435    1.1234 H   0  0  0  0  0  0  0  0  0  0  0  0
   -4.1352   -3.2385   -0.2156 H   0  0  0  0  0  0  0  0  0  0  0  0
   -2.6362   -2.3395    1.0094 C   0  0  0  0  0  0  0  0  0  0  0  0
   -1.8292   -2.8395    1.7814 O   0  0  0  0  0  0  0  0  0  0  0  0
   -2.3832   -1.2445    0.2964 N   0  0  0  0  0  0  0  0  0  0  0  0
   -3.1102   -0.8685   -0.2946 H   0  0  0  0  0  0  0  0  0  0  0  0
   -1.1292   -0.4875    0.3524 C   0  0  1  0  0  0  0  0  0  0  0  0
   -0.4746   -0.9548    1.0889 H   0  0  0  0  0  0  0  0  0  0  0  0
   -0.4348   -0.5475   -1.0191 C   0  0  0  0  0  0  0  0  0  0  0  0
   -1.1357   -0.2154   -1.7860 H   0  0  0  0  0  0  0  0  0  0  0  0
    0.4054    0.1489   -1.0205 H   0  0  0  0  0  0  0  0  0  0  0  0
    0.0586   -1.9302   -1.3992 C   0  0  0  0  0  0  0  0  0  0  0  0
    1.2794   -2.4152   -0.8885 C   0  0  0  0  0  0  0  0  0  0  0  0
    1.8825   -1.7903   -0.2428 H   0  0  0  0  0  0  0  0  0  0  0  0
    1.7136   -3.7154   -1.2121 C   0  0  0  0  0  0  0  0  0  0  0  0
    2.6497   -4.0830   -0.8206 H   0  0  0  0  0  0  0  0  0  0  0  0
    0.9219   -4.5346   -2.0463 C   0  0  0  0  0  0  0  0  0  0  0  0
    1.3304   -5.7910   -2.3618 O   0  0  0  0  0  0  0  0  0  0  0  0
    2.2120   -5.9766   -2.0357 H   0  0  0  0  0  0  0  0  0  0  0  0
   -0.3018   -4.0494   -2.5524 C   0  0  0  0  0  0  0  0  0  0  0  0
   -0.8961   -4.6836   -3.1928 H   0  0  0  0  0  0  0  0  0  0  0  0
   -0.7308   -2.7476   -2.2309 C   0  0  0  0  0  0  0  0  0  0  0  0
   -1.6666   -2.3722   -2.6276 H   0  0  0  0  0  0  0  0  0  0  0  0
   -1.3806    0.9615    0.8020 C   0  0  0  0  0  0  0  0  0  0  0  0
   -0.4425    1.6662    1.1753 O   0  0  0  0  0  0  0  0  0  0  0  0
   -2.6436    1.4053    0.7700 N   0  0  0  0  0  0  0  0  0  0  0  0
   -3.3628    0.7470    0.5076 H   0  0  0  0  0  0  0  0  0  0  0  0
   -3.0550    2.7508    1.1640 C   0  0  0  0  0  0  0  0  0  0  0  0
   -2.4347    3.4915    0.6564 H   0  0  0  0  0  0  0  0  0  0  0  0
   -4.1009    2.9164    0.9004 H   0  0  0  0  0  0  0  0  0  0  0  0
   -2.9314    2.8717    2.2422 H   0  0  0  0  0  0  0  0  0  0  0  0
  5  6  2  0  0  0  0
  5  7  1  0  0  0  0
  2  3  1  0  0  0  0
  2  4  1  0  0  0  0
  2  5  1  0  0  0  0
  1  2  1  0  0  0  0
 26 27  2  0  0  0  0
 26 28  1  0  0  0  0
 24 25  1  0  0  0  0
 22 23  1  0  0  0  0
 22 24  2  0  0  0  0
 20 21  1  0  0  0  0
 19 20  1  0  0  0  0
 19 22  1  0  0  0  0
 17 18  1  0  0  0  0
 17 19  2  0  0  0  0
 15 16  1  0  0  0  0
 15 17  1  0  0  0  0
 14 15  2  0  0  0  0
 14 24  1  0  0  0  0
 11 12  1  0  0  0  0
 11 13  1  0  0  0  0
 11 14  1  0  0  0  0
  9 10  1  0  0  0  0
  9 11  1  0  0  0  0
  9 26  1  0  0  0  0
  7  8  1  0  0  0  0
  7  9  1  0  0  0  0
 30 31  1  0  0  0  0
 30 32  1  0  0  0  0
 30 33  1  0  0  0  0
 28 29  1  0  0  0  0
 28 30  1  0  0  0  0
M  END
$$$$
default_name
  -OEChem-01062215323D

 33 33  0     1  0  0  0  0  0999 V2000
   -4.0702   -3.8485    1.4554 H   0  0  0  0  0  0  0  0  0  0  0  0
   -4.0012   -2.9605    0.8284 C   0  0  0  0  0  0  0  0  0  0  0  0
   -4.7652   -2.2435    1.1234 H   0  0  0  0  0  0  0  0  0  0  0  0
   -4.1352   -3.2385   -0.2156 H   0  0  0  0  0  0  0  0  0  0  0  0
   -2.6362   -2.3395    1.0094 C   0  0  0  0  0  0  0  0  0  0  0  0
   -1.8292   -2.8395    1.7814 O   0  0  0  0  0  0  0  0  0  0  0  0
   -2.3832   -1.2445    0.2964 N   0  0  0  0  0  0  0  0  0  0  0  0
   -3.1102   -0.8685   -0.2946 H   0  0  0  0  0  0  0  0  0  0  0  0
   -1.1292   -0.4875    0.3524 C   0  0  1  0  0  0  0  0  0  0  0  0
   -0.4746   -0.9548    1.0889 H   0  0  0  0  0  0  0  0  0  0  0  0
   -0.4348   -0.5475   -1.0191 C   0  0  0  0  0  0  0  0  0  0  0  0
   -1.1357   -0.2154   -1.7860 H   0  0  0  0  0  0  0  0  0  0  0  0
    0.4054    0.1489   -1.0205 H   0  0  0  0  0  0  0  0  0  0  0  0
    0.0586   -1.9302   -1.3992 C   0  0  0  0  0  0  0  0  0  0  0  0
    1.2794   -2.4152   -0.8885 C   0  0  0  0  0  0  0  0  0  0  0  0
    1.8825   -1.7903   -0.2428 H   0  0  0  0  0  0  0  0  0  0  0  0
    1.7136   -3.7154   -1.2121 C   0  0  0  0  0  0  0  0  0  0  0  0
    2.6497   -4.0830   -0.8206 H   0  0  0  0  0  0  0  0  0  0  0  0
    0.9219   -4.5346   -2.0463 C   0  0  0  0  0  0  0  0  0  0  0  0
    1.3304   -5.7910   -2.3618 O   0  0  0  0  0  0  0  0  0  0  0  0
    2.2120   -5.9766   -2.0357 H   0  0  0  0  0  0  0  0  0  0  0  0
   -0.3018   -4.0494   -2.5524 C   0  0  0  0  0  0  0  0  0  0  0  0
   -0.8961   -4.6836   -3.1928 H   0  0  0  0  0  0  0  0  0  0  0  0
   -0.7308   -2.7476   -2.2309 C   0  0  0  0  0  0  0  0  0  0  0  0
   -1.6666   -2.3722   -2.6276 H   0  0  0  0  0  0  0  0  0  0  0  0
   -1.3806    0.9615    0.8020 C   0  0  0  0  0  0  0  0  0  0  0  0
   -0.4402    1.7489    0.9101 O   0  0  0  0  0  0  0  0  0  0  0  0
   -2.6454    1.3130    1.0665 N   0  0  0  0  0  0  0  0  0  0  0  0
   -3.3510    0.5930    1.0104 H   0  0  0  0  0  0  0  0  0  0  0  0
   -3.0565    2.6448    1.5048 C   0  0  0  0  0  0  0  0  0  0  0  0
   -2.6397    3.4001    0.8364 H   0  0  0  0  0  0  0  0  0  0  0  0
   -4.1450    2.7224    1.5008 H   0  0  0  0  0  0  0  0  0  0  0  0
   -2.6857    2.8297    2.5151 H   0  0  0  0  0  0  0  0  0  0  0  0
  5  6  2  0  0  0  0
  5  7  1  0  0  0  0
  2  3  1  0  0  0  0
  2  4  1  0  0  0  0
  2  5  1  0  0  0  0
  1  2  1  0  0  0  0
 26 27  2  0  0  0  0
 26 28  1  0  0  0  0
 24 25  1  0  0  0  0
 22 23  1  0  0  0  0
 22 24  2  0  0  0  0
 20 21  1  0  0  0  0
 19 20  1  0  0  0  0
 19 22  1  0  0  0  0
 17 18  1  0  0  0  0
 17 19  2  0  0  0  0
 15 16  1  0  0  0  0
 15 17  1  0  0  0  0
 14 15  2  0  0  0  0
 14 24  1  0  0  0  0
 11 12  1  0  0  0  0
 11 13  1  0  0  0  0
 11 14  1  0  0  0  0
  9 10  1  0  0  0  0
  9 11  1  0  0  0  0
  9 26  1  0  0  0  0
  7  8  1  0  0  0  0
  7  9  1  0  0  0  0
 30 31  1  0  0  0  0
 30 32  1  0  0  0  0
 30 33  1  0  0  0  0
 28 29  1  0  0  0  0
 28 30  1  0  0  0  0
M  END
$$$$
default_name
  -OEChem-01062215323D

 33 33  0     1  0  0  0  0  0999 V2000
   -4.0702   -3.8485    1.4554 H   0  0  0  0  0  0  0  0  0  0  0  0
   -4.0012   -2.9605    0.8284 C   0  0  0  0  0  0  0  0  0  0  0  0
   -4.7652   -2.2435    1.1234 H   0  0  0  0  0  0  0  0  0  0  0  0
   -4.1352   -3.2385   -0.2156 H   0  0  0  0  0  0  0  0  0  0  0  0
   -2.6362   -2.3395    1.0094 C   0  0  0  0  0  0  0  0  0  0  0  0
   -1.8292   -2.8395    1.7814 O   0  0  0  0  0  0  0  0  0  0  0  0
   -2.3832   -1.2445    0.2964 N   0  0  0  0  0  0  0  0  0  0  0  0
   -3.1102   -0.8685   -0.2946 H   0  0  0  0  0  0  0  0  0  0  0  0
   -1.1292   -0.4875    0.3524 C   0  0  1  0  0  0  0  0  0  0  0  0
   -0.4746   -0.9548    1.0889 H   0  0  0  0  0  0  0  0  0  0  0  0
   -0.4348   -0.5475   -1.0191 C   0  0  0  0  0  0  0  0  0  0  0  0
   -1.1357   -0.2154   -1.7860 H   0  0  0  0  0  0  0  0  0  0  0  0
    0.4054    0.1489   -1.0205 H   0  0  0  0  0  0  0  0  0  0  0  0
    0.0586   -1.9302   -1.3992 C   0  0  0  0  0  0  0  0  0  0  0  0
    1.2794   -2.4152   -0.8885 C   0  0  0  0  0  0  0  0  0  0  0  0
    1.8825   -1.7903   -0.2428 H   0  0  0  0  0  0  0  0  0  0  0  0
    1.7136   -3.7154   -1.2121 C   0  0  0  0  0  0  0  0  0  0  0  0
    2.6497   -4.0830   -0.8206 H   0  0  0  0  0  0  0  0  0  0  0  0
    0.9219   -4.5346   -2.0463 C   0  0  0  0  0  0  0  0  0  0  0  0
    1.3304   -5.7910   -2.3618 O   0  0  0  0  0  0  0  0  0  0  0  0
    2.2120   -5.9766   -2.0357 H   0  0  0  0  0  0  0  0  0  0  0  0
   -0.3018   -4.0494   -2.5524 C   0  0  0  0  0  0  0  0  0  0  0  0
   -0.8961   -4.6836   -3.1928 H   0  0  0  0  0  0  0  0  0  0  0  0
   -0.7308   -2.7476   -2.2309 C   0  0  0  0  0  0  0  0  0  0  0  0
   -1.6666   -2.3722   -2.6276 H   0  0  0  0  0  0  0  0  0  0  0  0
   -1.3806    0.9615    0.8020 C   0  0  0  0  0  0  0  0  0  0  0  0
   -0.5089    1.8177    0.6499 O   0  0  0  0  0  0  0  0  0  0  0  0
   -2.5678    1.2363    1.3571 N   0  0  0  0  0  0  0  0  0  0  0  0
   -3.2053    0.4664    1.4997 H   0  0  0  0  0  0  0  0  0  0  0  0
   -2.9669    2.5566    1.8389 C   0  0  0  0  0  0  0  0  0  0  0  0
   -2.7869    3.3039    1.0642 H   0  0  0  0  0  0  0  0  0  0  0  0
   -4.0265    2.5572    2.0996 H   0  0  0  0  0  0  0  0  0  0  0  0
   -2.3786    2.8192    2.7206 H   0  0  0  0  0  0  0  0  0  0  0  0
  5  6  2  0  0  0  0
  5  7  1  0  0  0  0
  2  3  1  0  0  0  0
  2  4  1  0  0  0  0
  2  5  1  0  0  0  0
  1  2  1  0  0  0  0
 26 27  2  0  0  0  0
 26 28  1  0  0  0  0
 24 25  1  0  0  0  0
 22 23  1  0  0  0  0
 22 24  2  0  0  0  0
 20 21  1  0  0  0  0
 19 20  1  0  0  0  0
 19 22  1  0  0  0  0
 17 18  1  0  0  0  0
 17 19  2  0  0  0  0
 15 16  1  0  0  0  0
 15 17  1  0  0  0  0
 14 15  2  0  0  0  0
 14 24  1  0  0  0  0
 11 12  1  0  0  0  0
 11 13  1  0  0  0  0
 11 14  1  0  0  0  0
  9 10  1  0  0  0  0
  9 11  1  0  0  0  0
  9 26  1  0  0  0  0
  7  8  1  0  0  0  0
  7  9  1  0  0  0  0
 30 31  1  0  0  0  0
 30 32  1  0  0  0  0
 30 33  1  0  0  0  0
 28 29  1  0  0  0  0
 28 30  1  0  0  0  0
M  END
$$$$
default_name
  -OEChem-01062215323D

 33 33  0     1  0  0  0  0  0999 V2000
   -4.0702   -3.8485    1.4554 H   0  0  0  0  0  0  0  0  0  0  0  0
   -4.0012   -2.9605    0.8284 C   0  0  0  0  0  0  0  0  0  0  0  0
   -4.7652   -2.2435    1.1234 H   0  0  0  0  0  0  0  0  0  0  0  0
   -4.1352   -3.2385   -0.2156 H   0  0  0  0  0  0  0  0  0  0  0  0
   -2.6362   -2.3395    1.0094 C   0  0  0  0  0  0  0  0  0  0  0  0
   -1.8292   -2.8395    1.7814 O   0  0  0  0  0  0  0  0  0  0  0  0
   -2.3832   -1.2445    0.2964 N   0  0  0  0  0  0  0  0  0  0  0  0
   -3.1102   -0.8685   -0.2946 H   0  0  0  0  0  0  0  0  0  0  0  0
   -1.1292   -0.4875    0.3524 C   0  0  1  0  0  0  0  0  0  0  0  0
   -0.4746   -0.9548    1.0889 H   0  0  0  0  0  0  0  0  0  0  0  0
   -0.4348   -0.5475   -1.0191 C   0  0  0  0  0  0  0  0  0  0  0  0
   -1.1357   -0.2154   -1.7860 H   0  0  0  0  0  0  0  0  0  0  0  0
    0.4054    0.1489   -1.0205 H   0  0  0  0  0  0  0  0  0  0  0  0
    0.0586   -1.9302   -1.3992 C   0  0  0  0  0  0  0  0  0  0  0  0
    1.2794   -2.4152   -0.8885 C   0  0  0  0  0  0  0  0  0  0  0  0
    1.8825   -1.7903   -0.2428 H   0  0  0  0  0  0  0  0  0  0  0  0
    1.7136   -3.7154   -1.2121 C   0  0  0  0  0  0  0  0  0  0  0  0
    2.6497   -4.0830   -0.8206 H   0  0  0  0  0  0  0  0  0  0  0  0
    0.9219   -4.5346   -2.0463 C   0  0  0  0  0  0  0  0  0  0  0  0
    1.3304   -5.7910   -2.3618 O   0  0  0  0  0  0  0  0  0  0  0  0
    2.2120   -5.9766   -2.0357 H   0  0  0  0  0  0  0  0  0  0  0  0
   -0.3018   -4.0494   -2.5524 C   0  0  0  0  0  0  0  0  0  0  0  0
   -0.8961   -4.6836   -3.1928 H   0  0  0  0  0  0  0  0  0  0  0  0
   -0.7308   -2.7476   -2.2309 C   0  0  0  0  0  0  0  0  0  0  0  0
   -1.6666   -2.3722   -2.6276 H   0  0  0  0  0  0  0  0  0  0  0  0
   -1.3806    0.9615    0.8020 C   0  0  0  0  0  0  0  0  0  0  0  0
   -0.6439    1.8680    0.4125 O   0  0  0  0  0  0  0  0  0  0  0  0
   -2.4162    1.1804    1.6222 N   0  0  0  0  0  0  0  0  0  0  0  0
   -2.9357    0.3759    1.9423 H   0  0  0  0  0  0  0  0  0  0  0  0
   -2.7922    2.4925    2.1435 C   0  0  0  0  0  0  0  0  0  0  0  0
   -2.8663    3.2095    1.3241 H   0  0  0  0  0  0  0  0  0  0  0  0
   -3.7535    2.4318    2.6562 H   0  0  0  0  0  0  0  0  0  0  0  0
   -2.0310    2.8410    2.8446 H   0  0  0  0  0  0  0  0  0  0  0  0
  5  6  2  0  0  0  0
  5  7  1  0  0  0  0
  2  3  1  0  0  0  0
  2  4  1  0  0  0  0
  2  5  1  0  0  0  0
  1  2  1  0  0  0  0
 26 27  2  0  0  0  0
 26 28  1  0  0  0  0
 24 25  1  0  0  0  0
 22 23  1  0  0  0  0
 22 24  2  0  0  0  0
 20 21  1  0  0  0  0
 19 20  1  0  0  0  0
 19 22  1  0  0  0  0
 17 18  1  0  0  0  0
 17 19  2  0  0  0  0
 15 16  1  0  0  0  0
 15 17  1  0  0  0  0
 14 15  2  0  0  0  0
 14 24  1  0  0  0  0
 11 12  1  0  0  0  0
 11 13  1  0  0  0  0
 11 14  1  0  0  0  0
  9 10  1  0  0  0  0
  9 11  1  0  0  0  0
  9 26  1  0  0  0  0
  7  8  1  0  0  0  0
  7  9  1  0  0  0  0
 30 31  1  0  0  0  0
 30 32  1  0  0  0  0
 30 33  1  0  0  0  0
 28 29  1  0  0  0  0
 28 30  1  0  0  0  0
M  END
$$$$
default_name
  -OEChem-01062215323D

 33 33  0     1  0  0  0  0  0999 V2000
   -4.0702   -3.8485    1.4554 H   0  0  0  0  0  0  0  0  0  0  0  0
   -4.0012   -2.9605    0.8284 C   0  0  0  0  0  0  0  0  0  0  0  0
   -4.7652   -2.2435    1.1234 H   0  0  0  0  0  0  0  0  0  0  0  0
   -4.1352   -3.2385   -0.2156 H   0  0  0  0  0  0  0  0  0  0  0  0
   -2.6362   -2.3395    1.0094 C   0  0  0  0  0  0  0  0  0  0  0  0
   -1.8292   -2.8395    1.7814 O   0  0  0  0  0  0  0  0  0  0  0  0
   -2.3832   -1.2445    0.2964 N   0  0  0  0  0  0  0  0  0  0  0  0
   -3.1102   -0.8685   -0.2946 H   0  0  0  0  0  0  0  0  0  0  0  0
   -1.1292   -0.4875    0.3524 C   0  0  1  0  0  0  0  0  0  0  0  0
   -0.4746   -0.9548    1.0889 H   0  0  0  0  0  0  0  0  0  0  0  0
   -0.4348   -0.5475   -1.0191 C   0  0  0  0  0  0  0  0  0  0  0  0
   -1.1357   -0.2154   -1.7860 H   0  0  0  0  0  0  0  0  0  0  0  0
    0.4054    0.1489   -1.0205 H   0  0  0  0  0  0  0  0  0  0  0  0
    0.0586   -1.9302   -1.3992 C   0  0  0  0  0  0  0  0  0  0  0  0
    1.2794   -2.4152   -0.8885 C   0  0  0  0  0  0  0  0  0  0  0  0
    1.8825   -1.7903   -0.2428 H   0  0  0  0  0  0  0  0  0  0  0  0
    1.7136   -3.7154   -1.2121 C   0  0  0  0  0  0  0  0  0  0  0  0
    2.6497   -4.0830   -0.8206 H   0  0  0  0  0  0  0  0  0  0  0  0
    0.9219   -4.5346   -2.0463 C   0  0  0  0  0  0  0  0  0  0  0  0
    1.3304   -5.7910   -2.3618 O   0  0  0  0  0  0  0  0  0  0  0  0
    2.2120   -5.9766   -2.0357 H   0  0  0  0  0  0  0  0  0  0  0  0
   -0.3018   -4.0494   -2.5524 C   0  0  0  0  0  0  0  0  0  0  0  0
   -0.8961   -4.6836   -3.1928 H   0  0  0  0  0  0  0  0  0  0  0  0
   -0.7308   -2.7476   -2.2309 C   0  0  0  0  0  0  0  0  0  0  0  0
   -1.6666   -2.3722   -2.6276 H   0  0  0  0  0  0  0  0  0  0  0  0
   -1.3806    0.9615    0.8020 C   0  0  0  0  0  0  0  0  0  0  0  0
   -0.8360    1.8962    0.2139 O   0  0  0  0  0  0  0  0  0  0  0  0
   -2.2008    1.1490    1.8437 N   0  0  0  0  0  0  0  0  0  0  0  0
   -2.5606    0.3276    2.3078 H   0  0  0  0  0  0  0  0  0  0  0  0
   -2.5442    2.4566    2.3978 C   0  0  0  0  0  0  0  0  0  0  0  0
   -2.8724    3.1233    1.5985 H   0  0  0  0  0  0  0  0  0  0  0  0
   -3.3446    2.3550    3.1326 H   0  0  0  0  0  0  0  0  0  0  0  0
   -1.6667    2.8936    2.8788 H   0  0  0  0  0  0  0  0  0  0  0  0
  5  6  2  0  0  0  0
  5  7  1  0  0  0  0
  2  3  1  0  0  0  0
  2  4  1  0  0  0  0
  2  5  1  0  0  0  0
  1  2  1  0  0  0  0
 26 27  2  0  0  0  0
 26 28  1  0  0  0  0
 24 25  1  0  0  0  0
 22 23  1  0  0  0  0
 22 24  2  0  0  0  0
 20 21  1  0  0  0  0
 19 20  1  0  0  0  0
 19 22  1  0  0  0  0
 17 18  1  0  0  0  0
 17 19  2  0  0  0  0
 15 16  1  0  0  0  0
 15 17  1  0  0  0  0
 14 15  2  0  0  0  0
 14 24  1  0  0  0  0
 11 12  1  0  0  0  0
 11 13  1  0  0  0  0
 11 14  1  0  0  0  0
  9 10  1  0  0  0  0
  9 11  1  0  0  0  0
  9 26  1  0  0  0  0
  7  8  1  0  0  0  0
  7  9  1  0  0  0  0
 30 31  1  0  0  0  0
 30 32  1  0  0  0  0
 30 33  1  0  0  0  0
 28 29  1  0  0  0  0
 28 30  1  0  0  0  0
M  END
$$$$
default_name
  -OEChem-01062215323D

 33 33  0     1  0  0  0  0  0999 V2000
   -4.0702   -3.8485    1.4554 H   0  0  0  0  0  0  0  0  0  0  0  0
   -4.0012   -2.9605    0.8284 C   0  0  0  0  0  0  0  0  0  0  0  0
   -4.7652   -2.2435    1.1234 H   0  0  0  0  0  0  0  0  0  0  0  0
   -4.1352   -3.2385   -0.2156 H   0  0  0  0  0  0  0  0  0  0  0  0
   -2.6362   -2.3395    1.0094 C   0  0  0  0  0  0  0  0  0  0  0  0
   -1.8292   -2.8395    1.7814 O   0  0  0  0  0  0  0  0  0  0  0  0
   -2.3832   -1.2445    0.2964 N   0  0  0  0  0  0  0  0  0  0  0  0
   -3.1102   -0.8685   -0.2946 H   0  0  0  0  0  0  0  0  0  0  0  0
   -1.1292   -0.4875    0.3524 C   0  0  1  0  0  0  0  0  0  0  0  0
   -0.4746   -0.9548    1.0889 H   0  0  0  0  0  0  0  0  0  0  0  0
   -0.4348   -0.5475   -1.0191 C   0  0  0  0  0  0  0  0  0  0  0  0
   -1.1357   -0.2154   -1.7860 H   0  0  0  0  0  0  0  0  0  0  0  0
    0.4054    0.1489   -1.0205 H   0  0  0  0  0  0  0  0  0  0  0  0
    0.0586   -1.9302   -1.3992 C   0  0  0  0  0  0  0  0  0  0  0  0
    1.2794   -2.4152   -0.8885 C   0  0  0  0  0  0  0  0  0  0  0  0
    1.8825   -1.7903   -0.2428 H   0  0  0  0  0  0  0  0  0  0  0  0
    1.7136   -3.7154   -1.2121 C   0  0  0  0  0  0  0  0  0  0  0  0
    2.6497   -4.0830   -0.8206 H   0  0  0  0  0  0  0  0  0  0  0  0
    0.9219   -4.5346   -2.0463 C   0  0  0  0  0  0  0  0  0  0  0  0
    1.3304   -5.7910   -2.3618 O   0  0  0  0  0  0  0  0  0  0  0  0
    2.2120   -5.9766   -2.0357 H   0  0  0  0  0  0  0  0  0  0  0  0
   -0.3018   -4.0494   -2.5524 C   0  0  0  0  0  0  0  0  0  0  0  0
   -0.8961   -4.6836   -3.1928 H   0  0  0  0  0  0  0  0  0  0  0  0
   -0.7308   -2.7476   -2.2309 C   0  0  0  0  0  0  0  0  0  0  0  0
   -1.6666   -2.3722   -2.6276 H   0  0  0  0  0  0  0  0  0  0  0  0
   -1.3806    0.9615    0.8020 C   0  0  0  0  0  0  0  0  0  0  0  0
   -1.0722    1.9006    0.0677 O   0  0  0  0  0  0  0  0  0  0  0  0
   -1.9365    1.1444    2.0064 N   0  0  0  0  0  0  0  0  0  0  0  0
   -2.1054    0.3248    2.5714 H   0  0  0  0  0  0  0  0  0  0  0  0
   -2.2400    2.4514    2.5846 C   0  0  0  0  0  0  0  0  0  0  0  0
   -2.8049    3.0512    1.8688 H   0  0  0  0  0  0  0  0  0  0  0  0
   -2.8277    2.3318    3.4962 H   0  0  0  0  0  0  0  0  0  0  0  0
   -1.3105    2.9735    2.8207 H   0  0  0  0  0  0  0  0  0  0  0  0
  5  6  2  0  0  0  0
  5  7  1  0  0  0  0
  2  3  1  0  0  0  0
  2  4  1  0  0  0  0
  2  5  1  0  0  0  0
  1  2  1  0  0  0  0
 26 27  2  0  0  0  0
 26 28  1  0  0  0  0
 24 25  1  0  0  0  0
 22 23  1  0  0  0  0
 22 24  2  0  0  0  0
 20 21  1  0  0  0  0
 19 20  1  0  0  0  0
 19 22  1  0  0  0  0
 17 18  1  0  0  0  0
 17 19  2  0  0  0  0
 15 16  1  0  0  0  0
 15 17  1  0  0  0  0
 14 15  2  0  0  0  0
 14 24  1  0  0  0  0
 11 12  1  0  0  0  0
 11 13  1  0  0  0  0
 11 14  1  0  0  0  0
  9 10  1  0  0  0  0
  9 11  1  0  0  0  0
  9 26  1  0  0  0  0
  7  8  1  0  0  0  0
  7  9  1  0  0  0  0
 30 31  1  0  0  0  0
 30 32  1  0  0  0  0
 30 33  1  0  0  0  0
 28 29  1  0  0  0  0
 28 30  1  0  0  0  0
M  END
$$$$
default_name
  -OEChem-01062215323D

 33 33  0     1  0  0  0  0  0999 V2000
   -4.0702   -3.8485    1.4554 H   0  0  0  0  0  0  0  0  0  0  0  0
   -4.0012   -2.9605    0.8284 C   0  0  0  0  0  0  0  0  0  0  0  0
   -4.7652   -2.2435    1.1234 H   0  0  0  0  0  0  0  0  0  0  0  0
   -4.1352   -3.2385   -0.2156 H   0  0  0  0  0  0  0  0  0  0  0  0
   -2.6362   -2.3395    1.0094 C   0  0  0  0  0  0  0  0  0  0  0  0
   -1.8292   -2.8395    1.7814 O   0  0  0  0  0  0  0  0  0  0  0  0
   -2.3832   -1.2445    0.2964 N   0  0  0  0  0  0  0  0  0  0  0  0
   -3.1102   -0.8685   -0.2946 H   0  0  0  0  0  0  0  0  0  0  0  0
   -1.1292   -0.4875    0.3524 C   0  0  1  0  0  0  0  0  0  0  0  0
   -0.4746   -0.9548    1.0889 H   0  0  0  0  0  0  0  0  0  0  0  0
   -0.4348   -0.5475   -1.0191 C   0  0  0  0  0  0  0  0  0  0  0  0
   -1.1357   -0.2154   -1.7860 H   0  0  0  0  0  0  0  0  0  0  0  0
    0.4054    0.1489   -1.0205 H   0  0  0  0  0  0  0  0  0  0  0  0
    0.0586   -1.9302   -1.3992 C   0  0  0  0  0  0  0  0  0  0  0  0
    1.2794   -2.4152   -0.8885 C   0  0  0  0  0  0  0  0  0  0  0  0
    1.8825   -1.7903   -0.2428 H   0  0  0  0  0  0  0  0  0  0  0  0
    1.7136   -3.7154   -1.2121 C   0  0  0  0  0  0  0  0  0  0  0  0
    2.6497   -4.0830   -0.8206 H   0  0  0  0  0  0  0  0  0  0  0  0
    0.9219   -4.5346   -2.0463 C   0  0  0  0  0  0  0  0  0  0  0  0
    1.3304   -5.7910   -2.3618 O   0  0  0  0  0  0  0  0  0  0  0  0
    2.2120   -5.9766   -2.0357 H   0  0  0  0  0  0  0  0  0  0  0  0
   -0.3018   -4.0494   -2.5524 C   0  0  0  0  0  0  0  0  0  0  0  0
   -0.8961   -4.6836   -3.1928 H   0  0  0  0  0  0  0  0  0  0  0  0
   -0.7308   -2.7476   -2.2309 C   0  0  0  0  0  0  0  0  0  0  0  0
   -1.6666   -2.3722   -2.6276 H   0  0  0  0  0  0  0  0  0  0  0  0
   -1.3806    0.9615    0.8020 C   0  0  0  0  0  0  0  0  0  0  0  0
   -1.3363    1.8808   -0.0160 O   0  0  0  0  0  0  0  0  0  0  0  0
   -1.6411    1.1668    2.0993 N   0  0  0  0  0  0  0  0  0  0  0  0
   -1.6012    0.3677    2.7151 H   0  0  0  0  0  0  0  0  0  0  0  0
   -1.9003    2.4774    2.6909 C   0  0  0  0  0  0  0  0  0  0  0  0
   -2.6683    2.9980    2.1164 H   0  0  0  0  0  0  0  0  0  0  0  0
   -2.2379    2.3640    3.7224 H   0  0  0  0  0  0  0  0  0  0  0  0
   -0.9866    3.0751    2.6743 H   0  0  0  0  0  0  0  0  0  0  0  0
  5  6  2  0  0  0  0
  5  7  1  0  0  0  0
  2  3  1  0  0  0  0
  2  4  1  0  0  0  0
  2  5  1  0  0  0  0
  1  2  1  0  0  0  0
 26 27  2  0  0  0  0
 26 28  1  0  0  0  0
 24 25  1  0  0  0  0
 22 23  1  0  0  0  0
 22 24  2  0  0  0  0
 20 21  1  0  0  0  0
 19 20  1  0  0  0  0
 19 22  1  0  0  0  0
 17 18  1  0  0  0  0
 17 19  2  0  0  0  0
 15 16  1  0  0  0  0
 15 17  1  0  0  0  0
 14 15  2  0  0  0  0
 14 24  1  0  0  0  0
 11 12  1  0  0  0  0
 11 13  1  0  0  0  0
 11 14  1  0  0  0  0
  9 10  1  0  0  0  0
  9 11  1  0  0  0  0
  9 26  1  0  0  0  0
  7  8  1  0  0  0  0
  7  9  1  0  0  0  0
 30 31  1  0  0  0  0
 30 32  1  0  0  0  0
 30 33  1  0  0  0  0
 28 29  1  0  0  0  0
 28 30  1  0  0  0  0
M  END
$$$$
default_name
  -OEChem-01062215323D

 33 33  0     1  0  0  0  0  0999 V2000
   -4.0702   -3.8485    1.4554 H   0  0  0  0  0  0  0  0  0  0  0  0
   -4.0012   -2.9605    0.8284 C   0  0  0  0  0  0  0  0  0  0  0  0
   -4.7652   -2.2435    1.1234 H   0  0  0  0  0  0  0  0  0  0  0  0
   -4.1352   -3.2385   -0.2156 H   0  0  0  0  0  0  0  0  0  0  0  0
   -2.6362   -2.3395    1.0094 C   0  0  0  0  0  0  0  0  0  0  0  0
   -1.8292   -2.8395    1.7814 O   0  0  0  0  0  0  0  0  0  0  0  0
   -2.3832   -1.2445    0.2964 N   0  0  0  0  0  0  0  0  0  0  0  0
   -3.1102   -0.8685   -0.2946 H   0  0  0  0  0  0  0  0  0  0  0  0
   -1.1292   -0.4875    0.3524 C   0  0  1  0  0  0  0  0  0  0  0  0
   -0.4746   -0.9548    1.0889 H   0  0  0  0  0  0  0  0  0  0  0  0
   -0.4348   -0.5475   -1.0191 C   0  0  0  0  0  0  0  0  0  0  0  0
   -1.1357   -0.2154   -1.7860 H   0  0  0  0  0  0  0  0  0  0  0  0
    0.4054    0.1489   -1.0205 H   0  0  0  0  0  0  0  0  0  0  0  0
    0.0586   -1.9302   -1.3992 C   0  0  0  0  0  0  0  0  0  0  0  0
    1.2794   -2.4152   -0.8885 C   0  0  0  0  0  0  0  0  0  0  0  0
    1.8825   -1.7903   -0.2428 H   0  0  0  0  0  0  0  0  0  0  0  0
    1.7136   -3.7154   -1.2121 C   0  0  0  0  0  0  0  0  0  0  0  0
    2.6497   -4.0830   -0.8206 H   0  0  0  0  0  0  0  0  0  0  0  0
    0.9219   -4.5346   -2.0463 C   0  0  0  0  0  0  0  0  0  0  0  0
    1.3304   -5.7910   -2.3618 O   0  0  0  0  0  0  0  0  0  0  0  0
    2.2120   -5.9766   -2.0357 H   0  0  0  0  0  0  0  0  0  0  0  0
   -0.3018   -4.0494   -2.5524 C   0  0  0  0  0  0  0  0  0  0  0  0
   -0.8961   -4.6836   -3.1928 H   0  0  0  0  0  0  0  0  0  0  0  0
   -0.7308   -2.7476   -2.2309 C   0  0  0  0  0  0  0  0  0  0  0  0
   -1.6666   -2.3722   -2.6276 H   0  0  0  0  0  0  0  0  0  0  0  0
   -1.3806    0.9615    0.8020 C   0  0  0  0  0  0  0  0  0  0  0  0
   -1.6103    1.8381   -0.0317 O   0  0  0  0  0  0  0  0  0  0  0  0
   -1.3348    1.2148    2.1160 N   0  0  0  0  0  0  0  0  0  0  0  0
   -1.0824    0.4533    2.7292 H   0  0  0  0  0  0  0  0  0  0  0  0
   -1.5481    2.5326    2.7097 C   0  0  0  0  0  0  0  0  0  0  0  0
   -2.4720    2.9675    2.3245 H   0  0  0  0  0  0  0  0  0  0  0  0
   -1.6155    2.4492    3.7957 H   0  0  0  0  0  0  0  0  0  0  0  0
   -0.7171    3.1915    2.4496 H   0  0  0  0  0  0  0  0  0  0  0  0
  5  6  2  0  0  0  0
  5  7  1  0  0  0  0
  2  3  1  0  0  0  0
  2  4  1  0  0  0  0
  2  5  1  0  0  0  0
  1  2  1  0  0  0  0
 26 27  2  0  0  0  0
 26 28  1  0  0  0  0
 24 25  1  0  0  0  0
 22 23  1  0  0  0  0
 22 24  2  0  0  0  0
 20 21  1  0  0  0  0
 19 20  1  0  0  0  0
 19 22  1  0  0  0  0
 17 18  1  0  0  0  0
 17 19  2  0  0  0  0
 15 16  1  0  0  0  0
 15 17  1  0  0  0  0
 14 15  2  0  0  0  0
 14 24  1  0  0  0  0
 11 12  1  0  0  0  0
 11 13  1  0  0  0  0
 11 14  1  0  0  0  0
  9 10  1  0  0  0  0
  9 11  1  0  0  0  0
  9 26  1  0  0  0  0
  7  8  1  0  0  0  0
  7  9  1  0  0  0  0
 30 31  1  0  0  0  0
 30 32  1  0  0  0  0
 30 33  1  0  0  0  0
 28 29  1  0  0  0  0
 28 30  1  0  0  0  0
M  END
$$$$
default_name
  -OEChem-01062215323D

 33 33  0     1  0  0  0  0  0999 V2000
   -4.0702   -3.8485    1.4554 H   0  0  0  0  0  0  0  0  0  0  0  0
   -4.0012   -2.9605    0.8284 C   0  0  0  0  0  0  0  0  0  0  0  0
   -4.7652   -2.2435    1.1234 H   0  0  0  0  0  0  0  0  0  0  0  0
   -4.1352   -3.2385   -0.2156 H   0  0  0  0  0  0  0  0  0  0  0  0
   -2.6362   -2.3395    1.0094 C   0  0  0  0  0  0  0  0  0  0  0  0
   -1.8292   -2.8395    1.7814 O   0  0  0  0  0  0  0  0  0  0  0  0
   -2.3832   -1.2445    0.2964 N   0  0  0  0  0  0  0  0  0  0  0  0
   -3.1102   -0.8685   -0.2946 H   0  0  0  0  0  0  0  0  0  0  0  0
   -1.1292   -0.4875    0.3524 C   0  0  1  0  0  0  0  0  0  0  0  0
   -0.4746   -0.9548    1.0889 H   0  0  0  0  0  0  0  0  0  0  0  0
   -0.4348   -0.5475   -1.0191 C   0  0  0  0  0  0  0  0  0  0  0  0
   -1.1357   -0.2154   -1.7860 H   0  0  0  0  0  0  0  0  0  0  0  0
    0.4054    0.1489   -1.0205 H   0  0  0  0  0  0  0  0  0  0  0  0
    0.0586   -1.9302   -1.3992 C   0  0  0  0  0  0  0  0  0  0  0  0
    1.2794   -2.4152   -0.8885 C   0  0  0  0  0  0  0  0  0  0  0  0
    1.8825   -1.7903   -0.2428 H   0  0  0  0  0  0  0  0  0  0  0  0
    1.7136   -3.7154   -1.2121 C   0  0  0  0  0  0  0  0  0  0  0  0
    2.6497   -4.0830   -0.8206 H   0  0  0  0  0  0  0  0  0  0  0  0
    0.9219   -4.5346   -2.0463 C   0  0  0  0  0  0  0  0  0  0  0  0
    1.3304   -5.7910   -2.3618 O   0  0  0  0  0  0  0  0  0  0  0  0
    2.2120   -5.9766   -2.0357 H   0  0  0  0  0  0  0  0  0  0  0  0
   -0.3018   -4.0494   -2.5524 C   0  0  0  0  0  0  0  0  0  0  0  0
   -0.8961   -4.6836   -3.1928 H   0  0  0  0  0  0  0  0  0  0  0  0
   -0.7308   -2.7476   -2.2309 C   0  0  0  0  0  0  0  0  0  0  0  0
   -1.6666   -2.3722   -2.6276 H   0  0  0  0  0  0  0  0  0  0  0  0
   -1.3806    0.9615    0.8020 C   0  0  0  0  0  0  0  0  0  0  0  0
   -1.8755    1.7755    0.0218 O   0  0  0  0  0  0  0  0  0  0  0  0
   -1.0385    1.2850    2.0555 N   0  0  0  0  0  0  0  0  0  0  0  0
   -0.5843    0.5759    2.6127 H   0  0  0  0  0  0  0  0  0  0  0  0
   -1.2076    2.6135    2.6397 C   0  0  0  0  0  0  0  0  0  0  0  0
   -2.2293    2.9617    2.4789 H   0  0  0  0  0  0  0  0  0  0  0  0
   -1.0029    2.5818    3.7110 H   0  0  0  0  0  0  0  0  0  0  0  0
   -0.5204    3.3149    2.1619 H   0  0  0  0  0  0  0  0  0  0  0  0
  5  6  2  0  0  0  0
  5  7  1  0  0  0  0
  2  3  1  0  0  0  0
  2  4  1  0  0  0  0
  2  5  1  0  0  0  0
  1  2  1  0  0  0  0
 26 27  2  0  0  0  0
 26 28  1  0  0  0  0
 24 25  1  0  0  0  0
 22 23  1  0  0  0  0
 22 24  2  0  0  0  0
 20 21  1  0  0  0  0
 19 20  1  0  0  0  0
 19 22  1  0  0  0  0
 17 18  1  0  0  0  0
 17 19  2  0  0  0  0
 15 16  1  0  0  0  0
 15 17  1  0  0  0  0
 14 15  2  0  0  0  0
 14 24  1  0  0  0  0
 11 12  1  0  0  0  0
 11 13  1  0  0  0  0
 11 14  1  0  0  0  0
  9 10  1  0  0  0  0
  9 11  1  0  0  0  0
  9 26  1  0  0  0  0
  7  8  1  0  0  0  0
  7  9  1  0  0  0  0
 30 31  1  0  0  0  0
 30 32  1  0  0  0  0
 30 33  1  0  0  0  0
 28 29  1  0  0  0  0
 28 30  1  0  0  0  0
M  END
$$$$
default_name
  -OEChem-01062215323D

 33 33  0     1  0  0  0  0  0999 V2000
   -4.0702   -3.8485    1.4554 H   0  0  0  0  0  0  0  0  0  0  0  0
   -4.0012   -2.9605    0.8284 C   0  0  0  0  0  0  0  0  0  0  0  0
   -4.7652   -2.2435    1.1234 H   0  0  0  0  0  0  0  0  0  0  0  0
   -4.1352   -3.2385   -0.2156 H   0  0  0  0  0  0  0  0  0  0  0  0
   -2.6362   -2.3395    1.0094 C   0  0  0  0  0  0  0  0  0  0  0  0
   -1.8292   -2.8395    1.7814 O   0  0  0  0  0  0  0  0  0  0  0  0
   -2.3832   -1.2445    0.2964 N   0  0  0  0  0  0  0  0  0  0  0  0
   -3.1102   -0.8685   -0.2946 H   0  0  0  0  0  0  0  0  0  0  0  0
   -1.1292   -0.4875    0.3524 C   0  0  1  0  0  0  0  0  0  0  0  0
   -0.4746   -0.9548    1.0889 H   0  0  0  0  0  0  0  0  0  0  0  0
   -0.4348   -0.5475   -1.0191 C   0  0  0  0  0  0  0  0  0  0  0  0
   -1.1357   -0.2154   -1.7860 H   0  0  0  0  0  0  0  0  0  0  0  0
    0.4054    0.1489   -1.0205 H   0  0  0  0  0  0  0  0  0  0  0  0
    0.0586   -1.9302   -1.3992 C   0  0  0  0  0  0  0  0  0  0  0  0
    1.2794   -2.4152   -0.8885 C   0  0  0  0  0  0  0  0  0  0  0  0
    1.8825   -1.7903   -0.2428 H   0  0  0  0  0  0  0  0  0  0  0  0
    1.7136   -3.7154   -1.2121 C   0  0  0  0  0  0  0  0  0  0  0  0
    2.6497   -4.0830   -0.8206 H   0  0  0  0  0  0  0  0  0  0  0  0
    0.9219   -4.5346   -2.0463 C   0  0  0  0  0  0  0  0  0  0  0  0
    1.3304   -5.7910   -2.3618 O   0  0  0  0  0  0  0  0  0  0  0  0
    2.2120   -5.9766   -2.0357 H   0  0  0  0  0  0  0  0  0  0  0  0
   -0.3018   -4.0494   -2.5524 C   0  0  0  0  0  0  0  0  0  0  0  0
   -0.8961   -4.6836   -3.1928 H   0  0  0  0  0  0  0  0  0  0  0  0
   -0.7308   -2.7476   -2.2309 C   0  0  0  0  0  0  0  0  0  0  0  0
   -1.6666   -2.3722   -2.6276 H   0  0  0  0  0  0  0  0  0  0  0  0
   -1.3806    0.9615    0.8020 C   0  0  0  0  0  0  0  0  0  0  0  0
   -2.1140    1.6972    0.1408 O   0  0  0  0  0  0  0  0  0  0  0  0
   -0.7723    1.3726    1.9218 N   0  0  0  0  0  0  0  0  0  0  0  0
   -0.1409    0.7271    2.3734 H   0  0  0  0  0  0  0  0  0  0  0  0
   -0.9018    2.7143    2.4855 C   0  0  0  0  0  0  0  0  0  0  0  0
   -1.9568    2.9810    2.5691 H   0  0  0  0  0  0  0  0  0  0  0  0
   -0.4419    2.7526    3.4743 H   0  0  0  0  0  0  0  0  0  0  0  0
   -0.4100    3.4368    1.8309 H   0  0  0  0  0  0  0  0  0  0  0  0
  5  6  2  0  0  0  0
  5  7  1  0  0  0  0
  2  3  1  0  0  0  0
  2  4  1  0  0  0  0
  2  5  1  0  0  0  0
  1  2  1  0  0  0  0
 26 27  2  0  0  0  0
 26 28  1  0  0  0  0
 24 25  1  0  0  0  0
 22 23  1  0  0  0  0
 22 24  2  0  0  0  0
 20 21  1  0  0  0  0
 19 20  1  0  0  0  0
 19 22  1  0  0  0  0
 17 18  1  0  0  0  0
 17 19  2  0  0  0  0
 15 16  1  0  0  0  0
 15 17  1  0  0  0  0
 14 15  2  0  0  0  0
 14 24  1  0  0  0  0
 11 12  1  0  0  0  0
 11 13  1  0  0  0  0
 11 14  1  0  0  0  0
  9 10  1  0  0  0  0
  9 11  1  0  0  0  0
  9 26  1  0  0  0  0
  7  8  1  0  0  0  0
  7  9  1  0  0  0  0
 30 31  1  0  0  0  0
 30 32  1  0  0  0  0
 30 33  1  0  0  0  0
 28 29  1  0  0  0  0
 28 30  1  0  0  0  0
M  END
$$$$
default_name
  -OEChem-01062215323D

 33 33  0     1  0  0  0  0  0999 V2000
   -4.0702   -3.8485    1.4554 H   0  0  0  0  0  0  0  0  0  0  0  0
   -4.0012   -2.9605    0.8284 C   0  0  0  0  0  0  0  0  0  0  0  0
   -4.7652   -2.2435    1.1234 H   0  0  0  0  0  0  0  0  0  0  0  0
   -4.1352   -3.2385   -0.2156 H   0  0  0  0  0  0  0  0  0  0  0  0
   -2.6362   -2.3395    1.0094 C   0  0  0  0  0  0  0  0  0  0  0  0
   -1.8292   -2.8395    1.7814 O   0  0  0  0  0  0  0  0  0  0  0  0
   -2.3832   -1.2445    0.2964 N   0  0  0  0  0  0  0  0  0  0  0  0
   -3.1102   -0.8685   -0.2946 H   0  0  0  0  0  0  0  0  0  0  0  0
   -1.1292   -0.4875    0.3524 C   0  0  1  0  0  0  0  0  0  0  0  0
   -0.4746   -0.9548    1.0889 H   0  0  0  0  0  0  0  0  0  0  0  0
   -0.4348   -0.5475   -1.0191 C   0  0  0  0  0  0  0  0  0  0  0  0
   -1.1357   -0.2154   -1.7860 H   0  0  0  0  0  0  0  0  0  0  0  0
    0.4054    0.1489   -1.0205 H   0  0  0  0  0  0  0  0  0  0  0  0
    0.0586   -1.9302   -1.3992 C   0  0  0  0  0  0  0  0  0  0  0  0
    1.2794   -2.4152   -0.8885 C   0  0  0  0  0  0  0  0  0  0  0  0
    1.8825   -1.7903   -0.2428 H   0  0  0  0  0  0  0  0  0  0  0  0
    1.7136   -3.7154   -1.2121 C   0  0  0  0  0  0  0  0  0  0  0  0
    2.6497   -4.0830   -0.8206 H   0  0  0  0  0  0  0  0  0  0  0  0
    0.9219   -4.5346   -2.0463 C   0  0  0  0  0  0  0  0  0  0  0  0
    1.3304   -5.7910   -2.3618 O   0  0  0  0  0  0  0  0  0  0  0  0
    2.2120   -5.9766   -2.0357 H   0  0  0  0  0  0  0  0  0  0  0  0
   -0.3018   -4.0494   -2.5524 C   0  0  0  0  0  0  0  0  0  0  0  0
   -0.8961   -4.6836   -3.1928 H   0  0  0  0  0  0  0  0  0  0  0  0
   -0.7308   -2.7476   -2.2309 C   0  0  0  0  0  0  0  0  0  0  0  0
   -1.6666   -2.3722   -2.6276 H   0  0  0  0  0  0  0  0  0  0  0  0
   -1.3806    0.9615    0.8020 C   0  0  0  0  0  0  0  0  0  0  0  0
   -2.3093    1.6086    0.3172 O   0  0  0  0  0  0  0  0  0  0  0  0
   -0.5545    1.4718    1.7240 N   0  0  0  0  0  0  0  0  0  0  0  0
    0.2177    0.8965    2.0278 H   0  0  0  0  0  0  0  0  0  0  0  0
   -0.6517    2.8284    2.2578 C   0  0  0  0  0  0  0  0  0  0  0  0
   -1.6730    3.0241    2.5890 H   0  0  0  0  0  0  0  0  0  0  0  0
    0.0294    2.9500    3.1016 H   0  0  0  0  0  0  0  0  0  0  0  0
   -0.3932    3.5489    1.4790 H   0  0  0  0  0  0  0  0  0  0  0  0
  5  6  2  0  0  0  0
  5  7  1  0  0  0  0
  2  3  1  0  0  0  0
  2  4  1  0  0  0  0
  2  5  1  0  0  0  0
  1  2  1  0  0  0  0
 26 27  2  0  0  0  0
 26 28  1  0  0  0  0
 24 25  1  0  0  0  0
 22 23  1  0  0  0  0
 22 24  2  0  0  0  0
 20 21  1  0  0  0  0
 19 20  1  0  0  0  0
 19 22  1  0  0  0  0
 17 18  1  0  0  0  0
 17 19  2  0  0  0  0
 15 16  1  0  0  0  0
 15 17  1  0  0  0  0
 14 15  2  0  0  0  0
 14 24  1  0  0  0  0
 11 12  1  0  0  0  0
 11 13  1  0  0  0  0
 11 14  1  0  0  0  0
  9 10  1  0  0  0  0
  9 11  1  0  0  0  0
  9 26  1  0  0  0  0
  7  8  1  0  0  0  0
  7  9  1  0  0  0  0
 30 31  1  0  0  0  0
 30 32  1  0  0  0  0
 30 33  1  0  0  0  0
 28 29  1  0  0  0  0
 28 30  1  0  0  0  0
M  END
$$$$
default_name
  -OEChem-01062215323D

 33 33  0     1  0  0  0  0  0999 V2000
   -4.0702   -3.8485    1.4554 H   0  0  0  0  0  0  0  0  0  0  0  0
   -4.0012   -2.9605    0.8284 C   0  0  0  0  0  0  0  0  0  0  0  0
   -4.7652   -2.2435    1.1234 H   0  0  0  0  0  0  0  0  0  0  0  0
   -4.1352   -3.2385   -0.2156 H   0  0  0  0  0  0  0  0  0  0  0  0
   -2.6362   -2.3395    1.0094 C   0  0  0  0  0  0  0  0  0  0  0  0
   -1.8292   -2.8395    1.7814 O   0  0  0  0  0  0  0  0  0  0  0  0
   -2.3832   -1.2445    0.2964 N   0  0  0  0  0  0  0  0  0  0  0  0
   -3.1102   -0.8685   -0.2946 H   0  0  0  0  0  0  0  0  0  0  0  0
   -1.1292   -0.4875    0.3524 C   0  0  1  0  0  0  0  0  0  0  0  0
   -0.4746   -0.9548    1.0889 H   0  0  0  0  0  0  0  0  0  0  0  0
   -0.4348   -0.5475   -1.0191 C   0  0  0  0  0  0  0  0  0  0  0  0
   -1.1357   -0.2154   -1.7860 H   0  0  0  0  0  0  0  0  0  0  0  0
    0.4054    0.1489   -1.0205 H   0  0  0  0  0  0  0  0  0  0  0  0
    0.0586   -1.9302   -1.3992 C   0  0  0  0  0  0  0  0  0  0  0  0
    1.2794   -2.4152   -0.8885 C   0  0  0  0  0  0  0  0  0  0  0  0
    1.8825   -1.7903   -0.2428 H   0  0  0  0  0  0  0  0  0  0  0  0
    1.7136   -3.7154   -1.2121 C   0  0  0  0  0  0  0  0  0  0  0  0
    2.6497   -4.0830   -0.8206 H   0  0  0  0  0  0  0  0  0  0  0  0
    0.9219   -4.5346   -2.0463 C   0  0  0  0  0  0  0  0  0  0  0  0
    1.3304   -5.7910   -2.3618 O   0  0  0  0  0  0  0  0  0  0  0  0
    2.2120   -5.9766   -2.0357 H   0  0  0  0  0  0  0  0  0  0  0  0
   -0.3018   -4.0494   -2.5524 C   0  0  0  0  0  0  0  0  0  0  0  0
   -0.8961   -4.6836   -3.1928 H   0  0  0  0  0  0  0  0  0  0  0  0
   -0.7308   -2.7476   -2.2309 C   0  0  0  0  0  0  0  0  0  0  0  0
   -1.6666   -2.3722   -2.6276 H   0  0  0  0  0  0  0  0  0  0  0  0
   -1.3806    0.9615    0.8020 C   0  0  0  0  0  0  0  0  0  0  0  0
   -2.4483    1.5156    0.5390 O   0  0  0  0  0  0  0  0  0  0  0  0
   -0.3998    1.5757    1.4757 N   0  0  0  0  0  0  0  0  0  0  0  0
    0.4669    1.0727    1.5994 H   0  0  0  0  0  0  0  0  0  0  0  0
   -0.4743    2.9478    1.9720 C   0  0  0  0  0  0  0  0  0  0  0  0
   -1.3973    3.0880    2.5372 H   0  0  0  0  0  0  0  0  0  0  0  0
    0.3788    3.1606    2.6183 H   0  0  0  0  0  0  0  0  0  0  0  0
   -0.4713    3.6435    1.1303 H   0  0  0  0  0  0  0  0  0  0  0  0
  5  6  2  0  0  0  0
  5  7  1  0  0  0  0
  2  3  1  0  0  0  0
  2  4  1  0  0  0  0
  2  5  1  0  0  0  0
  1  2  1  0  0  0  0
 26 27  2  0  0  0  0
 26 28  1  0  0  0  0
 24 25  1  0  0  0  0
 22 23  1  0  0  0  0
 22 24  2  0  0  0  0
 20 21  1  0  0  0  0
 19 20  1  0  0  0  0
 19 22  1  0  0  0  0
 17 18  1  0  0  0  0
 17 19  2  0  0  0  0
 15 16  1  0  0  0  0
 15 17  1  0  0  0  0
 14 15  2  0  0  0  0
 14 24  1  0  0  0  0
 11 12  1  0  0  0  0
 11 13  1  0  0  0  0
 11 14  1  0  0  0  0
  9 10  1  0  0  0  0
  9 11  1  0  0  0  0
  9 26  1  0  0  0  0
  7  8  1  0  0  0  0
  7  9  1  0  0  0  0
 30 31  1  0  0  0  0
 30 32  1  0  0  0  0
 30 33  1  0  0  0  0
 28 29  1  0  0  0  0
 28 30  1  0  0  0  0
M  END
$$$$
default_name
  -OEChem-01062215323D

 33 33  0     1  0  0  0  0  0999 V2000
   -4.0702   -3.8485    1.4554 H   0  0  0  0  0  0  0  0  0  0  0  0
   -4.0012   -2.9605    0.8284 C   0  0  0  0  0  0  0  0  0  0  0  0
   -4.7652   -2.2435    1.1234 H   0  0  0  0  0  0  0  0  0  0  0  0
   -4.1352   -3.2385   -0.2156 H   0  0  0  0  0  0  0  0  0  0  0  0
   -2.6362   -2.3395    1.0094 C   0  0  0  0  0  0  0  0  0  0  0  0
   -1.8292   -2.8395    1.7814 O   0  0  0  0  0  0  0  0  0  0  0  0
   -2.3832   -1.2445    0.2964 N   0  0  0  0  0  0  0  0  0  0  0  0
   -3.1102   -0.8685   -0.2946 H   0  0  0  0  0  0  0  0  0  0  0  0
   -1.1292   -0.4875    0.3524 C   0  0  1  0  0  0  0  0  0  0  0  0
   -0.4746   -0.9548    1.0889 H   0  0  0  0  0  0  0  0  0  0  0  0
   -0.4348   -0.5475   -1.0191 C   0  0  0  0  0  0  0  0  0  0  0  0
   -1.1357   -0.2154   -1.7860 H   0  0  0  0  0  0  0  0  0  0  0  0
    0.4054    0.1489   -1.0205 H   0  0  0  0  0  0  0  0  0  0  0  0
    0.0586   -1.9302   -1.3992 C   0  0  0  0  0  0  0  0  0  0  0  0
    1.2794   -2.4152   -0.8885 C   0  0  0  0  0  0  0  0  0  0  0  0
    1.8825   -1.7903   -0.2428 H   0  0  0  0  0  0  0  0  0  0  0  0
    1.7136   -3.7154   -1.2121 C   0  0  0  0  0  0  0  0  0  0  0  0
    2.6497   -4.0830   -0.8206 H   0  0  0  0  0  0  0  0  0  0  0  0
    0.9219   -4.5346   -2.0463 C   0  0  0  0  0  0  0  0  0  0  0  0
    1.3304   -5.7910   -2.3618 O   0  0  0  0  0  0  0  0  0  0  0  0
    2.2120   -5.9766   -2.0357 H   0  0  0  0  0  0  0  0  0  0  0  0
   -0.3018   -4.0494   -2.5524 C   0  0  0  0  0  0  0  0  0  0  0  0
   -0.8961   -4.6836   -3.1928 H   0  0  0  0  0  0  0  0  0  0  0  0
   -0.7308   -2.7476   -2.2309 C   0  0  0  0  0  0  0  0  0  0  0  0
   -1.6666   -2.3722   -2.6276 H   0  0  0  0  0  0  0  0  0  0  0  0
   -1.3806    0.9615    0.8020 C   0  0  0  0  0  0  0  0  0  0  0  0
   -2.5215    1.4247    0.7911 O   0  0  0  0  0  0  0  0  0  0  0  0
   -0.3189    1.6772    1.1937 N   0  0  0  0  0  0  0  0  0  0  0  0
    0.5898    1.2436    1.1173 H   0  0  0  0  0  0  0  0  0  0  0  0
   -0.3816    3.0646    1.6476 C   0  0  0  0  0  0  0  0  0  0  0  0
   -1.1485    3.1684    2.4172 H   0  0  0  0  0  0  0  0  0  0  0  0
    0.5825    3.3700    2.0574 H   0  0  0  0  0  0  0  0  0  0  0  0
   -0.6389    3.7143    0.8085 H   0  0  0  0  0  0  0  0  0  0  0  0
  5  6  2  0  0  0  0
  5  7  1  0  0  0  0
  2  3  1  0  0  0  0
  2  4  1  0  0  0  0
  2  5  1  0  0  0  0
  1  2  1  0  0  0  0
 26 27  2  0  0  0  0
 26 28  1  0  0  0  0
 24 25  1  0  0  0  0
 22 23  1  0  0  0  0
 22 24  2  0  0  0  0
 20 21  1  0  0  0  0
 19 20  1  0  0  0  0
 19 22  1  0  0  0  0
 17 18  1  0  0  0  0
 17 19  2  0  0  0  0
 15 16  1  0  0  0  0
 15 17  1  0  0  0  0
 14 15  2  0  0  0  0
 14 24  1  0  0  0  0
 11 12  1  0  0  0  0
 11 13  1  0  0  0  0
 11 14  1  0  0  0  0
  9 10  1  0  0  0  0
  9 11  1  0  0  0  0
  9 26  1  0  0  0  0
  7  8  1  0  0  0  0
  7  9  1  0  0  0  0
 30 31  1  0  0  0  0
 30 32  1  0  0  0  0
 30 33  1  0  0  0  0
 28 29  1  0  0  0  0
 28 30  1  0  0  0  0
M  END
$$$$
default_name
  -OEChem-01062215323D

 33 33  0     1  0  0  0  0  0999 V2000
   -4.0702   -3.8485    1.4554 H   0  0  0  0  0  0  0  0  0  0  0  0
   -4.0012   -2.9605    0.8284 C   0  0  0  0  0  0  0  0  0  0  0  0
   -4.7652   -2.2435    1.1234 H   0  0  0  0  0  0  0  0  0  0  0  0
   -4.1352   -3.2385   -0.2156 H   0  0  0  0  0  0  0  0  0  0  0  0
   -2.6362   -2.3395    1.0094 C   0  0  0  0  0  0  0  0  0  0  0  0
   -1.8292   -2.8395    1.7814 O   0  0  0  0  0  0  0  0  0  0  0  0
   -2.3832   -1.2445    0.2964 N   0  0  0  0  0  0  0  0  0  0  0  0
   -3.1102   -0.8685   -0.2946 H   0  0  0  0  0  0  0  0  0  0  0  0
   -1.1292   -0.4875    0.3524 C   0  0  1  0  0  0  0  0  0  0  0  0
   -0.3837   -1.0894    0.8733 H   0  0  0  0  0  0  0  0  0  0  0  0
   -0.6263   -0.2259   -1.0778 C   0  0  0  0  0  0  0  0  0  0  0  0
   -1.4224    0.2497   -1.6520 H   0  0  0  0  0  0  0  0  0  0  0  0
    0.2096    0.4744   -1.0359 H   0  0  0  0  0  0  0  0  0  0  0  0
   -0.1958   -1.4779   -1.8174 C   0  0  0  0  0  0  0  0  0  0  0  0
    1.0802   -2.0330   -1.5937 C   0  0  0  0  0  0  0  0  0  0  0  0
    1.7680   -1.5513   -0.9111 H   0  0  0  0  0  0  0  0  0  0  0  0
    1.4601   -3.2185   -2.2526 C   0  0  0  0  0  0  0  0  0  0  0  0
    2.4385   -3.6399   -2.0801 H   0  0  0  0  0  0  0  0  0  0  0  0
    0.5590   -3.8528   -3.1354 C   0  0  0  0  0  0  0  0  0  0  0  0
    0.9148   -4.9980   -3.7734 O   0  0  0  0  0  0  0  0  0  0  0  0
    1.8313   -5.2290   -3.6164 H   0  0  0  0  0  0  0  0  0  0  0  0
   -0.7192   -3.2985   -3.3543 C   0  0  0  0  0  0  0  0  0  0  0  0
   -1.3977   -3.7904   -4.0350 H   0  0  0  0  0  0  0  0  0  0  0  0
   -1.0943   -2.1110   -2.6978 C   0  0  0  0  0  0  0  0  0  0  0  0
   -2.0731   -1.6807   -2.8736 H   0  0  0  0  0  0  0  0  0  0  0  0
   -1.3103    0.8198    1.1418 C   0  0  0  0  0  0  0  0  0  0  0  0
   -2.4067    1.1062    1.6234 O   0  0  0  0  0  0  0  0  0  0  0  0
   -0.2394    1.6131    1.2723 N   0  0  0  0  0  0  0  0  0  0  0  0
    0.6075    1.3352    0.7979 H   0  0  0  0  0  0  0  0  0  0  0  0
   -0.2394    2.8872    1.9874 C   0  0  0  0  0  0  0  0  0  0  0  0
   -0.6718    2.7547    2.9807 H   0  0  0  0  0  0  0  0  0  0  0  0
    0.7804    3.2626    2.0864 H   0  0  0  0  0  0  0  0  0  0  0  0
   -0.8403    3.6159    1.4394 H   0  0  0  0  0  0  0  0  0  0  0  0
  5  6  2  0  0  0  0
  5  7  1  0  0  0  0
  2  3  1  0  0  0  0
  2  4  1  0  0  0  0
  2  5  1  0  0  0  0
  1  2  1  0  0  0  0
 26 27  2  0  0  0  0
 26 28  1  0  0  0  0
 24 25  1  0  0  0  0
 22 23  1  0  0  0  0
 22 24  2  0  0  0  0
 20 21  1  0  0  0  0
 19 20  1  0  0  0  0
 19 22  1  0  0  0  0
 17 18  1  0  0  0  0
 17 19  2  0  0  0  0
 15 16  1  0  0  0  0
 15 17  1  0  0  0  0
 14 15  2  0  0  0  0
 14 24  1  0  0  0  0
 11 12  1  0  0  0  0
 11 13  1  0  0  0  0
 11 14  1  0  0  0  0
  9 10  1  0  0  0  0
  9 11  1  0  0  0  0
  9 26  1  0  0  0  0
  7  8  1  0  0  0  0
  7  9  1  0  0  0  0
 30 31  1  0  0  0  0
 30 32  1  0  0  0  0
 30 33  1  0  0  0  0
 28 29  1  0  0  0  0
 28 30  1  0  0  0  0
M  END
$$$$
default_name
  -OEChem-01062215323D

 33 33  0     1  0  0  0  0  0999 V2000
   -4.0702   -3.8485    1.4554 H   0  0  0  0  0  0  0  0  0  0  0  0
   -4.0012   -2.9605    0.8284 C   0  0  0  0  0  0  0  0  0  0  0  0
   -4.7652   -2.2435    1.1234 H   0  0  0  0  0  0  0  0  0  0  0  0
   -4.1352   -3.2385   -0.2156 H   0  0  0  0  0  0  0  0  0  0  0  0
   -2.6362   -2.3395    1.0094 C   0  0  0  0  0  0  0  0  0  0  0  0
   -1.8292   -2.8395    1.7814 O   0  0  0  0  0  0  0  0  0  0  0  0
   -2.3832   -1.2445    0.2964 N   0  0  0  0  0  0  0  0  0  0  0  0
   -3.1102   -0.8685   -0.2946 H   0  0  0  0  0  0  0  0  0  0  0  0
   -1.1292   -0.4875    0.3524 C   0  0  1  0  0  0  0  0  0  0  0  0
   -0.3837   -1.0894    0.8733 H   0  0  0  0  0  0  0  0  0  0  0  0
   -0.6263   -0.2259   -1.0778 C   0  0  0  0  0  0  0  0  0  0  0  0
   -1.4224    0.2497   -1.6520 H   0  0  0  0  0  0  0  0  0  0  0  0
    0.2096    0.4744   -1.0359 H   0  0  0  0  0  0  0  0  0  0  0  0
   -0.1958   -1.4779   -1.8174 C   0  0  0  0  0  0  0  0  0  0  0  0
    1.0802   -2.0330   -1.5937 C   0  0  0  0  0  0  0  0  0  0  0  0
    1.7680   -1.5513   -0.9111 H   0  0  0  0  0  0  0  0  0  0  0  0
    1.4601   -3.2185   -2.2526 C   0  0  0  0  0  0  0  0  0  0  0  0
    2.4385   -3.6399   -2.0801 H   0  0  0  0  0  0  0  0  0  0  0  0
    0.5590   -3.8528   -3.1354 C   0  0  0  0  0  0  0  0  0  0  0  0
    0.9148   -4.9980   -3.7734 O   0  0  0  0  0  0  0  0  0  0  0  0
    1.8313   -5.2290   -3.6164 H   0  0  0  0  0  0  0  0  0  0  0  0
   -0.7192   -3.2985   -3.3543 C   0  0  0  0  0  0  0  0  0  0  0  0
   -1.3977   -3.7904   -4.0350 H   0  0  0  0  0  0  0  0  0  0  0  0
   -1.0943   -2.1110   -2.6978 C   0  0  0  0  0  0  0  0  0  0  0  0
   -2.0731   -1.6807   -2.8736 H   0  0  0  0  0  0  0  0  0  0  0  0
   -1.3103    0.8198    1.1418 C   0  0  0  0  0  0  0  0  0  0  0  0
   -2.3039    0.9834    1.8504 O   0  0  0  0  0  0  0  0  0  0  0  0
   -0.3551    1.7501    1.0188 N   0  0  0  0  0  0  0  0  0  0  0  0
    0.3978    1.5629    0.3726 H   0  0  0  0  0  0  0  0  0  0  0  0
   -0.3728    3.0446    1.6961 C   0  0  0  0  0  0  0  0  0  0  0  0
   -0.5561    2.9025    2.7626 H   0  0  0  0  0  0  0  0  0  0  0  0
    0.5832    3.5530    1.5603 H   0  0  0  0  0  0  0  0  0  0  0  0
   -1.1722    3.6639    1.2840 H   0  0  0  0  0  0  0  0  0  0  0  0
  5  6  2  0  0  0  0
  5  7  1  0  0  0  0
  2  3  1  0  0  0  0
  2  4  1  0  0  0  0
  2  5  1  0  0  0  0
  1  2  1  0  0  0  0
 26 27  2  0  0  0  0
 26 28  1  0  0  0  0
 24 25  1  0  0  0  0
 22 23  1  0  0  0  0
 22 24  2  0  0  0  0
 20 21  1  0  0  0  0
 19 20  1  0  0  0  0
 19 22  1  0  0  0  0
 17 18  1  0  0  0  0
 17 19  2  0  0  0  0
 15 16  1  0  0  0  0
 15 17  1  0  0  0  0
 14 15  2  0  0  0  0
 14 24  1  0  0  0  0
 11 12  1  0  0  0  0
 11 13  1  0  0  0  0
 11 14  1  0  0  0  0
  9 10  1  0  0  0  0
  9 11  1  0  0  0  0
  9 26  1  0  0  0  0
  7  8  1  0  0  0  0
  7  9  1  0  0  0  0
 30 31  1  0  0  0  0
 30 32  1  0  0  0  0
 30 33  1  0  0  0  0
 28 29  1  0  0  0  0
 28 30  1  0  0  0  0
M  END
$$$$
default_name
  -OEChem-01062215323D

 33 33  0     1  0  0  0  0  0999 V2000
   -4.0702   -3.8485    1.4554 H   0  0  0  0  0  0  0  0  0  0  0  0
   -4.0012   -2.9605    0.8284 C   0  0  0  0  0  0  0  0  0  0  0  0
   -4.7652   -2.2435    1.1234 H   0  0  0  0  0  0  0  0  0  0  0  0
   -4.1352   -3.2385   -0.2156 H   0  0  0  0  0  0  0  0  0  0  0  0
   -2.6362   -2.3395    1.0094 C   0  0  0  0  0  0  0  0  0  0  0  0
   -1.8292   -2.8395    1.7814 O   0  0  0  0  0  0  0  0  0  0  0  0
   -2.3832   -1.2445    0.2964 N   0  0  0  0  0  0  0  0  0  0  0  0
   -3.1102   -0.8685   -0.2946 H   0  0  0  0  0  0  0  0  0  0  0  0
   -1.1292   -0.4875    0.3524 C   0  0  1  0  0  0  0  0  0  0  0  0
   -0.3837   -1.0894    0.8733 H   0  0  0  0  0  0  0  0  0  0  0  0
   -0.6263   -0.2259   -1.0778 C   0  0  0  0  0  0  0  0  0  0  0  0
   -1.4224    0.2497   -1.6520 H   0  0  0  0  0  0  0  0  0  0  0  0
    0.2096    0.4744   -1.0359 H   0  0  0  0  0  0  0  0  0  0  0  0
   -0.1958   -1.4779   -1.8174 C   0  0  0  0  0  0  0  0  0  0  0  0
    1.0802   -2.0330   -1.5937 C   0  0  0  0  0  0  0  0  0  0  0  0
    1.7680   -1.5513   -0.9111 H   0  0  0  0  0  0  0  0  0  0  0  0
    1.4601   -3.2185   -2.2526 C   0  0  0  0  0  0  0  0  0  0  0  0
    2.4385   -3.6399   -2.0801 H   0  0  0  0  0  0  0  0  0  0  0  0
    0.5590   -3.8528   -3.1354 C   0  0  0  0  0  0  0  0  0  0  0  0
    0.9148   -4.9980   -3.7734 O   0  0  0  0  0  0  0  0  0  0  0  0
    1.8313   -5.2290   -3.6164 H   0  0  0  0  0  0  0  0  0  0  0  0
   -0.7192   -3.2985   -3.3543 C   0  0  0  0  0  0  0  0  0  0  0  0
   -1.3977   -3.7904   -4.0350 H   0  0  0  0  0  0  0  0  0  0  0  0
   -1.0943   -2.1110   -2.6978 C   0  0  0  0  0  0  0  0  0  0  0  0
   -2.0731   -1.6807   -2.8736 H   0  0  0  0  0  0  0  0  0  0  0  0
   -1.3103    0.8198    1.1418 C   0  0  0  0  0  0  0  0  0  0  0  0
   -2.1384    0.8854    2.0507 O   0  0  0  0  0  0  0  0  0  0  0  0
   -0.5407    1.8594    0.7953 N   0  0  0  0  0  0  0  0  0  0  0  0
    0.0715    1.7422    0.0010 H   0  0  0  0  0  0  0  0  0  0  0  0
   -0.5866    3.1701    1.4393 C   0  0  0  0  0  0  0  0  0  0  0  0
   -0.5120    3.0539    2.5219 H   0  0  0  0  0  0  0  0  0  0  0  0
    0.2383    3.7913    1.0867 H   0  0  0  0  0  0  0  0  0  0  0  0
   -1.5334    3.6613    1.2054 H   0  0  0  0  0  0  0  0  0  0  0  0
  5  6  2  0  0  0  0
  5  7  1  0  0  0  0
  2  3  1  0  0  0  0
  2  4  1  0  0  0  0
  2  5  1  0  0  0  0
  1  2  1  0  0  0  0
 26 27  2  0  0  0  0
 26 28  1  0  0  0  0
 24 25  1  0  0  0  0
 22 23  1  0  0  0  0
 22 24  2  0  0  0  0
 20 21  1  0  0  0  0
 19 20  1  0  0  0  0
 19 22  1  0  0  0  0
 17 18  1  0  0  0  0
 17 19  2  0  0  0  0
 15 16  1  0  0  0  0
 15 17  1  0  0  0  0
 14 15  2  0  0  0  0
 14 24  1  0  0  0  0
 11 12  1  0  0  0  0
 11 13  1  0  0  0  0
 11 14  1  0  0  0  0
  9 10  1  0  0  0  0
  9 11  1  0  0  0  0
  9 26  1  0  0  0  0
  7  8  1  0  0  0  0
  7  9  1  0  0  0  0
 30 31  1  0  0  0  0
 30 32  1  0  0  0  0
 30 33  1  0  0  0  0
 28 29  1  0  0  0  0
 28 30  1  0  0  0  0
M  END
$$$$
default_name
  -OEChem-01062215323D

 33 33  0     1  0  0  0  0  0999 V2000
   -4.0702   -3.8485    1.4554 H   0  0  0  0  0  0  0  0  0  0  0  0
   -4.0012   -2.9605    0.8284 C   0  0  0  0  0  0  0  0  0  0  0  0
   -4.7652   -2.2435    1.1234 H   0  0  0  0  0  0  0  0  0  0  0  0
   -4.1352   -3.2385   -0.2156 H   0  0  0  0  0  0  0  0  0  0  0  0
   -2.6362   -2.3395    1.0094 C   0  0  0  0  0  0  0  0  0  0  0  0
   -1.8292   -2.8395    1.7814 O   0  0  0  0  0  0  0  0  0  0  0  0
   -2.3832   -1.2445    0.2964 N   0  0  0  0  0  0  0  0  0  0  0  0
   -3.1102   -0.8685   -0.2946 H   0  0  0  0  0  0  0  0  0  0  0  0
   -1.1292   -0.4875    0.3524 C   0  0  1  0  0  0  0  0  0  0  0  0
   -0.3837   -1.0894    0.8733 H   0  0  0  0  0  0  0  0  0  0  0  0
   -0.6263   -0.2259   -1.0778 C   0  0  0  0  0  0  0  0  0  0  0  0
   -1.4224    0.2497   -1.6520 H   0  0  0  0  0  0  0  0  0  0  0  0
    0.2096    0.4744   -1.0359 H   0  0  0  0  0  0  0  0  0  0  0  0
   -0.1958   -1.4779   -1.8174 C   0  0  0  0  0  0  0  0  0  0  0  0
    1.0802   -2.0330   -1.5937 C   0  0  0  0  0  0  0  0  0  0  0  0
    1.7680   -1.5513   -0.9111 H   0  0  0  0  0  0  0  0  0  0  0  0
    1.4601   -3.2185   -2.2526 C   0  0  0  0  0  0  0  0  0  0  0  0
    2.4385   -3.6399   -2.0801 H   0  0  0  0  0  0  0  0  0  0  0  0
    0.5590   -3.8528   -3.1354 C   0  0  0  0  0  0  0  0  0  0  0  0
    0.9148   -4.9980   -3.7734 O   0  0  0  0  0  0  0  0  0  0  0  0
    1.8313   -5.2290   -3.6164 H   0  0  0  0  0  0  0  0  0  0  0  0
   -0.7192   -3.2985   -3.3543 C   0  0  0  0  0  0  0  0  0  0  0  0
   -1.3977   -3.7904   -4.0350 H   0  0  0  0  0  0  0  0  0  0  0  0
   -1.0943   -2.1110   -2.6978 C   0  0  0  0  0  0  0  0  0  0  0  0
   -2.0731   -1.6807   -2.8736 H   0  0  0  0  0  0  0  0  0  0  0  0
   -1.3103    0.8198    1.1418 C   0  0  0  0  0  0  0  0  0  0  0  0
   -1.9214    0.8187    2.2108 O   0  0  0  0  0  0  0  0  0  0  0  0
   -0.7838    1.9335    0.6169 N   0  0  0  0  0  0  0  0  0  0  0  0
   -0.3492    1.8606   -0.2916 H   0  0  0  0  0  0  0  0  0  0  0  0
   -0.8664    3.2550    1.2345 C   0  0  0  0  0  0  0  0  0  0  0  0
   -0.5424    3.1987    2.2751 H   0  0  0  0  0  0  0  0  0  0  0  0
   -0.2307    3.9611    0.6978 H   0  0  0  0  0  0  0  0  0  0  0  0
   -1.8993    3.6084    1.2090 H   0  0  0  0  0  0  0  0  0  0  0  0
  5  6  2  0  0  0  0
  5  7  1  0  0  0  0
  2  3  1  0  0  0  0
  2  4  1  0  0  0  0
  2  5  1  0  0  0  0
  1  2  1  0  0  0  0
 26 27  2  0  0  0  0
 26 28  1  0  0  0  0
 24 25  1  0  0  0  0
 22 23  1  0  0  0  0
 22 24  2  0  0  0  0
 20 21  1  0  0  0  0
 19 20  1  0  0  0  0
 19 22  1  0  0  0  0
 17 18  1  0  0  0  0
 17 19  2  0  0  0  0
 15 16  1  0  0  0  0
 15 17  1  0  0  0  0
 14 15  2  0  0  0  0
 14 24  1  0  0  0  0
 11 12  1  0  0  0  0
 11 13  1  0  0  0  0
 11 14  1  0  0  0  0
  9 10  1  0  0  0  0
  9 11  1  0  0  0  0
  9 26  1  0  0  0  0
  7  8  1  0  0  0  0
  7  9  1  0  0  0  0
 30 31  1  0  0  0  0
 30 32  1  0  0  0  0
 30 33  1  0  0  0  0
 28 29  1  0  0  0  0
 28 30  1  0  0  0  0
M  END
$$$$
default_name
  -OEChem-01062215323D

 33 33  0     1  0  0  0  0  0999 V2000
   -4.0702   -3.8485    1.4554 H   0  0  0  0  0  0  0  0  0  0  0  0
   -4.0012   -2.9605    0.8284 C   0  0  0  0  0  0  0  0  0  0  0  0
   -4.7652   -2.2435    1.1234 H   0  0  0  0  0  0  0  0  0  0  0  0
   -4.1352   -3.2385   -0.2156 H   0  0  0  0  0  0  0  0  0  0  0  0
   -2.6362   -2.3395    1.0094 C   0  0  0  0  0  0  0  0  0  0  0  0
   -1.8292   -2.8395    1.7814 O   0  0  0  0  0  0  0  0  0  0  0  0
   -2.3832   -1.2445    0.2964 N   0  0  0  0  0  0  0  0  0  0  0  0
   -3.1102   -0.8685   -0.2946 H   0  0  0  0  0  0  0  0  0  0  0  0
   -1.1292   -0.4875    0.3524 C   0  0  1  0  0  0  0  0  0  0  0  0
   -0.3837   -1.0894    0.8733 H   0  0  0  0  0  0  0  0  0  0  0  0
   -0.6263   -0.2259   -1.0778 C   0  0  0  0  0  0  0  0  0  0  0  0
   -1.4224    0.2497   -1.6520 H   0  0  0  0  0  0  0  0  0  0  0  0
    0.2096    0.4744   -1.0359 H   0  0  0  0  0  0  0  0  0  0  0  0
   -0.1958   -1.4779   -1.8174 C   0  0  0  0  0  0  0  0  0  0  0  0
    1.0802   -2.0330   -1.5937 C   0  0  0  0  0  0  0  0  0  0  0  0
    1.7680   -1.5513   -0.9111 H   0  0  0  0  0  0  0  0  0  0  0  0
    1.4601   -3.2185   -2.2526 C   0  0  0  0  0  0  0  0  0  0  0  0
    2.4385   -3.6399   -2.0801 H   0  0  0  0  0  0  0  0  0  0  0  0
    0.5590   -3.8528   -3.1354 C   0  0  0  0  0  0  0  0  0  0  0  0
    0.9148   -4.9980   -3.7734 O   0  0  0  0  0  0  0  0  0  0  0  0
    1.8313   -5.2290   -3.6164 H   0  0  0  0  0  0  0  0  0  0  0  0
   -0.7192   -3.2985   -3.3543 C   0  0  0  0  0  0  0  0  0  0  0  0
   -1.3977   -3.7904   -4.0350 H   0  0  0  0  0  0  0  0  0  0  0  0
   -1.0943   -2.1110   -2.6978 C   0  0  0  0  0  0  0  0  0  0  0  0
   -2.0731   -1.6807   -2.8736 H   0  0  0  0  0  0  0  0  0  0  0  0
   -1.3103    0.8198    1.1418 C   0  0  0  0  0  0  0  0  0  0  0  0
   -1.6677    0.7881    2.3197 O   0  0  0  0  0  0  0  0  0  0  0  0
   -1.0677    1.9673    0.4958 N   0  0  0  0  0  0  0  0  0  0  0  0
   -0.8358    1.9102   -0.4853 H   0  0  0  0  0  0  0  0  0  0  0  0
   -1.1929    3.2937    1.0956 C   0  0  0  0  0  0  0  0  0  0  0  0
   -0.6454    3.3270    2.0391 H   0  0  0  0  0  0  0  0  0  0  0  0
   -0.7918    4.0511    0.4202 H   0  0  0  0  0  0  0  0  0  0  0  0
   -2.2448    3.5089    1.2946 H   0  0  0  0  0  0  0  0  0  0  0  0
  5  6  2  0  0  0  0
  5  7  1  0  0  0  0
  2  3  1  0  0  0  0
  2  4  1  0  0  0  0
  2  5  1  0  0  0  0
  1  2  1  0  0  0  0
 26 27  2  0  0  0  0
 26 28  1  0  0  0  0
 24 25  1  0  0  0  0
 22 23  1  0  0  0  0
 22 24  2  0  0  0  0
 20 21  1  0  0  0  0
 19 20  1  0  0  0  0
 19 22  1  0  0  0  0
 17 18  1  0  0  0  0
 17 19  2  0  0  0  0
 15 16  1  0  0  0  0
 15 17  1  0  0  0  0
 14 15  2  0  0  0  0
 14 24  1  0  0  0  0
 11 12  1  0  0  0  0
 11 13  1  0  0  0  0
 11 14  1  0  0  0  0
  9 10  1  0  0  0  0
  9 11  1  0  0  0  0
  9 26  1  0  0  0  0
  7  8  1  0  0  0  0
  7  9  1  0  0  0  0
 30 31  1  0  0  0  0
 30 32  1  0  0  0  0
 30 33  1  0  0  0  0
 28 29  1  0  0  0  0
 28 30  1  0  0  0  0
M  END
$$$$
default_name
  -OEChem-01062215323D

 33 33  0     1  0  0  0  0  0999 V2000
   -4.0702   -3.8485    1.4554 H   0  0  0  0  0  0  0  0  0  0  0  0
   -4.0012   -2.9605    0.8284 C   0  0  0  0  0  0  0  0  0  0  0  0
   -4.7652   -2.2435    1.1234 H   0  0  0  0  0  0  0  0  0  0  0  0
   -4.1352   -3.2385   -0.2156 H   0  0  0  0  0  0  0  0  0  0  0  0
   -2.6362   -2.3395    1.0094 C   0  0  0  0  0  0  0  0  0  0  0  0
   -1.8292   -2.8395    1.7814 O   0  0  0  0  0  0  0  0  0  0  0  0
   -2.3832   -1.2445    0.2964 N   0  0  0  0  0  0  0  0  0  0  0  0
   -3.1102   -0.8685   -0.2946 H   0  0  0  0  0  0  0  0  0  0  0  0
   -1.1292   -0.4875    0.3524 C   0  0  1  0  0  0  0  0  0  0  0  0
   -0.3837   -1.0894    0.8733 H   0  0  0  0  0  0  0  0  0  0  0  0
   -0.6263   -0.2259   -1.0778 C   0  0  0  0  0  0  0  0  0  0  0  0
   -1.4224    0.2497   -1.6520 H   0  0  0  0  0  0  0  0  0  0  0  0
    0.2096    0.4744   -1.0359 H   0  0  0  0  0  0  0  0  0  0  0  0
   -0.1958   -1.4779   -1.8174 C   0  0  0  0  0  0  0  0  0  0  0  0
    1.0802   -2.0330   -1.5937 C   0  0  0  0  0  0  0  0  0  0  0  0
    1.7680   -1.5513   -0.9111 H   0  0  0  0  0  0  0  0  0  0  0  0
    1.4601   -3.2185   -2.2526 C   0  0  0  0  0  0  0  0  0  0  0  0
    2.4385   -3.6399   -2.0801 H   0  0  0  0  0  0  0  0  0  0  0  0
    0.5590   -3.8528   -3.1354 C   0  0  0  0  0  0  0  0  0  0  0  0
    0.9148   -4.9980   -3.7734 O   0  0  0  0  0  0  0  0  0  0  0  0
    1.8313   -5.2290   -3.6164 H   0  0  0  0  0  0  0  0  0  0  0  0
   -0.7192   -3.2985   -3.3543 C   0  0  0  0  0  0  0  0  0  0  0  0
   -1.3977   -3.7904   -4.0350 H   0  0  0  0  0  0  0  0  0  0  0  0
   -1.0943   -2.1110   -2.6978 C   0  0  0  0  0  0  0  0  0  0  0  0
   -2.0731   -1.6807   -2.8736 H   0  0  0  0  0  0  0  0  0  0  0  0
   -1.3103    0.8198    1.1418 C   0  0  0  0  0  0  0  0  0  0  0  0
   -1.3947    0.7955    2.3700 O   0  0  0  0  0  0  0  0  0  0  0  0
   -1.3730    1.9586    0.4402 N   0  0  0  0  0  0  0  0  0  0  0  0
   -1.3549    1.8875   -0.5669 H   0  0  0  0  0  0  0  0  0  0  0  0
   -1.5441    3.2834    1.0321 C   0  0  0  0  0  0  0  0  0  0  0  0
   -0.8138    3.4300    1.8298 H   0  0  0  0  0  0  0  0  0  0  0  0
   -1.4068    4.0549    0.2728 H   0  0  0  0  0  0  0  0  0  0  0  0
   -2.5466    3.3694    1.4564 H   0  0  0  0  0  0  0  0  0  0  0  0
  5  6  2  0  0  0  0
  5  7  1  0  0  0  0
  2  3  1  0  0  0  0
  2  4  1  0  0  0  0
  2  5  1  0  0  0  0
  1  2  1  0  0  0  0
 26 27  2  0  0  0  0
 26 28  1  0  0  0  0
 24 25  1  0  0  0  0
 22 23  1  0  0  0  0
 22 24  2  0  0  0  0
 20 21  1  0  0  0  0
 19 20  1  0  0  0  0
 19 22  1  0  0  0  0
 17 18  1  0  0  0  0
 17 19  2  0  0  0  0
 15 16  1  0  0  0  0
 15 17  1  0  0  0  0
 14 15  2  0  0  0  0
 14 24  1  0  0  0  0
 11 12  1  0  0  0  0
 11 13  1  0  0  0  0
 11 14  1  0  0  0  0
  9 10  1  0  0  0  0
  9 11  1  0  0  0  0
  9 26  1  0  0  0  0
  7  8  1  0  0  0  0
  7  9  1  0  0  0  0
 30 31  1  0  0  0  0
 30 32  1  0  0  0  0
 30 33  1  0  0  0  0
 28 29  1  0  0  0  0
 28 30  1  0  0  0  0
M  END
$$$$
default_name
  -OEChem-01062215323D

 33 33  0     1  0  0  0  0  0999 V2000
   -4.0702   -3.8485    1.4554 H   0  0  0  0  0  0  0  0  0  0  0  0
   -4.0012   -2.9605    0.8284 C   0  0  0  0  0  0  0  0  0  0  0  0
   -4.7652   -2.2435    1.1234 H   0  0  0  0  0  0  0  0  0  0  0  0
   -4.1352   -3.2385   -0.2156 H   0  0  0  0  0  0  0  0  0  0  0  0
   -2.6362   -2.3395    1.0094 C   0  0  0  0  0  0  0  0  0  0  0  0
   -1.8292   -2.8395    1.7814 O   0  0  0  0  0  0  0  0  0  0  0  0
   -2.3832   -1.2445    0.2964 N   0  0  0  0  0  0  0  0  0  0  0  0
   -3.1102   -0.8685   -0.2946 H   0  0  0  0  0  0  0  0  0  0  0  0
   -1.1292   -0.4875    0.3524 C   0  0  1  0  0  0  0  0  0  0  0  0
   -0.3837   -1.0894    0.8733 H   0  0  0  0  0  0  0  0  0  0  0  0
   -0.6263   -0.2259   -1.0778 C   0  0  0  0  0  0  0  0  0  0  0  0
   -1.4224    0.2497   -1.6520 H   0  0  0  0  0  0  0  0  0  0  0  0
    0.2096    0.4744   -1.0359 H   0  0  0  0  0  0  0  0  0  0  0  0
   -0.1958   -1.4779   -1.8174 C   0  0  0  0  0  0  0  0  0  0  0  0
    1.0802   -2.0330   -1.5937 C   0  0  0  0  0  0  0  0  0  0  0  0
    1.7680   -1.5513   -0.9111 H   0  0  0  0  0  0  0  0  0  0  0  0
    1.4601   -3.2185   -2.2526 C   0  0  0  0  0  0  0  0  0  0  0  0
    2.4385   -3.6399   -2.0801 H   0  0  0  0  0  0  0  0  0  0  0  0
    0.5590   -3.8528   -3.1354 C   0  0  0  0  0  0  0  0  0  0  0  0
    0.9148   -4.9980   -3.7734 O   0  0  0  0  0  0  0  0  0  0  0  0
    1.8313   -5.2290   -3.6164 H   0  0  0  0  0  0  0  0  0  0  0  0
   -0.7192   -3.2985   -3.3543 C   0  0  0  0  0  0  0  0  0  0  0  0
   -1.3977   -3.7904   -4.0350 H   0  0  0  0  0  0  0  0  0  0  0  0
   -1.0943   -2.1110   -2.6978 C   0  0  0  0  0  0  0  0  0  0  0  0
   -2.0731   -1.6807   -2.8736 H   0  0  0  0  0  0  0  0  0  0  0  0
   -1.3103    0.8198    1.1418 C   0  0  0  0  0  0  0  0  0  0  0  0
   -1.1208    0.8405    2.3583 O   0  0  0  0  0  0  0  0  0  0  0  0
   -1.6790    1.9079    0.4540 N   0  0  0  0  0  0  0  0  0  0  0  0
   -1.8714    1.7942   -0.5307 H   0  0  0  0  0  0  0  0  0  0  0  0
   -1.8958    3.2249    1.0484 C   0  0  0  0  0  0  0  0  0  0  0  0
   -1.0362    3.5008    1.6616 H   0  0  0  0  0  0  0  0  0  0  0  0
   -2.0338    3.9725    0.2655 H   0  0  0  0  0  0  0  0  0  0  0  0
   -2.7839    3.1996    1.6833 H   0  0  0  0  0  0  0  0  0  0  0  0
  5  6  2  0  0  0  0
  5  7  1  0  0  0  0
  2  3  1  0  0  0  0
  2  4  1  0  0  0  0
  2  5  1  0  0  0  0
  1  2  1  0  0  0  0
 26 27  2  0  0  0  0
 26 28  1  0  0  0  0
 24 25  1  0  0  0  0
 22 23  1  0  0  0  0
 22 24  2  0  0  0  0
 20 21  1  0  0  0  0
 19 20  1  0  0  0  0
 19 22  1  0  0  0  0
 17 18  1  0  0  0  0
 17 19  2  0  0  0  0
 15 16  1  0  0  0  0
 15 17  1  0  0  0  0
 14 15  2  0  0  0  0
 14 24  1  0  0  0  0
 11 12  1  0  0  0  0
 11 13  1  0  0  0  0
 11 14  1  0  0  0  0
  9 10  1  0  0  0  0
  9 11  1  0  0  0  0
  9 26  1  0  0  0  0
  7  8  1  0  0  0  0
  7  9  1  0  0  0  0
 30 31  1  0  0  0  0
 30 32  1  0  0  0  0
 30 33  1  0  0  0  0
 28 29  1  0  0  0  0
 28 30  1  0  0  0  0
M  END
$$$$
default_name
  -OEChem-01062215323D

 33 33  0     1  0  0  0  0  0999 V2000
   -4.0702   -3.8485    1.4554 H   0  0  0  0  0  0  0  0  0  0  0  0
   -4.0012   -2.9605    0.8284 C   0  0  0  0  0  0  0  0  0  0  0  0
   -4.7652   -2.2435    1.1234 H   0  0  0  0  0  0  0  0  0  0  0  0
   -4.1352   -3.2385   -0.2156 H   0  0  0  0  0  0  0  0  0  0  0  0
   -2.6362   -2.3395    1.0094 C   0  0  0  0  0  0  0  0  0  0  0  0
   -1.8292   -2.8395    1.7814 O   0  0  0  0  0  0  0  0  0  0  0  0
   -2.3832   -1.2445    0.2964 N   0  0  0  0  0  0  0  0  0  0  0  0
   -3.1102   -0.8685   -0.2946 H   0  0  0  0  0  0  0  0  0  0  0  0
   -1.1292   -0.4875    0.3524 C   0  0  1  0  0  0  0  0  0  0  0  0
   -0.3837   -1.0894    0.8733 H   0  0  0  0  0  0  0  0  0  0  0  0
   -0.6263   -0.2259   -1.0778 C   0  0  0  0  0  0  0  0  0  0  0  0
   -1.4224    0.2497   -1.6520 H   0  0  0  0  0  0  0  0  0  0  0  0
    0.2096    0.4744   -1.0359 H   0  0  0  0  0  0  0  0  0  0  0  0
   -0.1958   -1.4779   -1.8174 C   0  0  0  0  0  0  0  0  0  0  0  0
    1.0802   -2.0330   -1.5937 C   0  0  0  0  0  0  0  0  0  0  0  0
    1.7680   -1.5513   -0.9111 H   0  0  0  0  0  0  0  0  0  0  0  0
    1.4601   -3.2185   -2.2526 C   0  0  0  0  0  0  0  0  0  0  0  0
    2.4385   -3.6399   -2.0801 H   0  0  0  0  0  0  0  0  0  0  0  0
    0.5590   -3.8528   -3.1354 C   0  0  0  0  0  0  0  0  0  0  0  0
    0.9148   -4.9980   -3.7734 O   0  0  0  0  0  0  0  0  0  0  0  0
    1.8313   -5.2290   -3.6164 H   0  0  0  0  0  0  0  0  0  0  0  0
   -0.7192   -3.2985   -3.3543 C   0  0  0  0  0  0  0  0  0  0  0  0
   -1.3977   -3.7904   -4.0350 H   0  0  0  0  0  0  0  0  0  0  0  0
   -1.0943   -2.1110   -2.6978 C   0  0  0  0  0  0  0  0  0  0  0  0
   -2.0731   -1.6807   -2.8736 H   0  0  0  0  0  0  0  0  0  0  0  0
   -1.3103    0.8198    1.1418 C   0  0  0  0  0  0  0  0  0  0  0  0
   -0.8649    0.9200    2.2853 O   0  0  0  0  0  0  0  0  0  0  0  0
   -1.9648    1.8187    0.5361 N   0  0  0  0  0  0  0  0  0  0  0  0
   -2.3498    1.6365   -0.3793 H   0  0  0  0  0  0  0  0  0  0  0  0
   -2.2243    3.1221    1.1432 C   0  0  0  0  0  0  0  0  0  0  0  0
   -1.2975    3.5345    1.5458 H   0  0  0  0  0  0  0  0  0  0  0  0
   -2.6301    3.8093    0.3990 H   0  0  0  0  0  0  0  0  0  0  0  0
   -2.9406    3.0109    1.9598 H   0  0  0  0  0  0  0  0  0  0  0  0
  5  6  2  0  0  0  0
  5  7  1  0  0  0  0
  2  3  1  0  0  0  0
  2  4  1  0  0  0  0
  2  5  1  0  0  0  0
  1  2  1  0  0  0  0
 26 27  2  0  0  0  0
 26 28  1  0  0  0  0
 24 25  1  0  0  0  0
 22 23  1  0  0  0  0
 22 24  2  0  0  0  0
 20 21  1  0  0  0  0
 19 20  1  0  0  0  0
 19 22  1  0  0  0  0
 17 18  1  0  0  0  0
 17 19  2  0  0  0  0
 15 16  1  0  0  0  0
 15 17  1  0  0  0  0
 14 15  2  0  0  0  0
 14 24  1  0  0  0  0
 11 12  1  0  0  0  0
 11 13  1  0  0  0  0
 11 14  1  0  0  0  0
  9 10  1  0  0  0  0
  9 11  1  0  0  0  0
  9 26  1  0  0  0  0
  7  8  1  0  0  0  0
  7  9  1  0  0  0  0
 30 31  1  0  0  0  0
 30 32  1  0  0  0  0
 30 33  1  0  0  0  0
 28 29  1  0  0  0  0
 28 30  1  0  0  0  0
M  END
$$$$
default_name
  -OEChem-01062215323D

 33 33  0     1  0  0  0  0  0999 V2000
   -4.0702   -3.8485    1.4554 H   0  0  0  0  0  0  0  0  0  0  0  0
   -4.0012   -2.9605    0.8284 C   0  0  0  0  0  0  0  0  0  0  0  0
   -4.7652   -2.2435    1.1234 H   0  0  0  0  0  0  0  0  0  0  0  0
   -4.1352   -3.2385   -0.2156 H   0  0  0  0  0  0  0  0  0  0  0  0
   -2.6362   -2.3395    1.0094 C   0  0  0  0  0  0  0  0  0  0  0  0
   -1.8292   -2.8395    1.7814 O   0  0  0  0  0  0  0  0  0  0  0  0
   -2.3832   -1.2445    0.2964 N   0  0  0  0  0  0  0  0  0  0  0  0
   -3.1102   -0.8685   -0.2946 H   0  0  0  0  0  0  0  0  0  0  0  0
   -1.1292   -0.4875    0.3524 C   0  0  1  0  0  0  0  0  0  0  0  0
   -0.3837   -1.0894    0.8733 H   0  0  0  0  0  0  0  0  0  0  0  0
   -0.6263   -0.2259   -1.0778 C   0  0  0  0  0  0  0  0  0  0  0  0
   -1.4224    0.2497   -1.6520 H   0  0  0  0  0  0  0  0  0  0  0  0
    0.2096    0.4744   -1.0359 H   0  0  0  0  0  0  0  0  0  0  0  0
   -0.1958   -1.4779   -1.8174 C   0  0  0  0  0  0  0  0  0  0  0  0
    1.0802   -2.0330   -1.5937 C   0  0  0  0  0  0  0  0  0  0  0  0
    1.7680   -1.5513   -0.9111 H   0  0  0  0  0  0  0  0  0  0  0  0
    1.4601   -3.2185   -2.2526 C   0  0  0  0  0  0  0  0  0  0  0  0
    2.4385   -3.6399   -2.0801 H   0  0  0  0  0  0  0  0  0  0  0  0
    0.5590   -3.8528   -3.1354 C   0  0  0  0  0  0  0  0  0  0  0  0
    0.9148   -4.9980   -3.7734 O   0  0  0  0  0  0  0  0  0  0  0  0
    1.8313   -5.2290   -3.6164 H   0  0  0  0  0  0  0  0  0  0  0  0
   -0.7192   -3.2985   -3.3543 C   0  0  0  0  0  0  0  0  0  0  0  0
   -1.3977   -3.7904   -4.0350 H   0  0  0  0  0  0  0  0  0  0  0  0
   -1.0943   -2.1110   -2.6978 C   0  0  0  0  0  0  0  0  0  0  0  0
   -2.0731   -1.6807   -2.8736 H   0  0  0  0  0  0  0  0  0  0  0  0
   -1.3103    0.8198    1.1418 C   0  0  0  0  0  0  0  0  0  0  0  0
   -0.6443    1.0286    2.1562 O   0  0  0  0  0  0  0  0  0  0  0  0
   -2.2109    1.6971    0.6811 N   0  0  0  0  0  0  0  0  0  0  0  0
   -2.7577    1.4253   -0.1230 H   0  0  0  0  0  0  0  0  0  0  0  0
   -2.5070    2.9821    1.3102 C   0  0  0  0  0  0  0  0  0  0  0  0
   -1.5798    3.5288    1.4905 H   0  0  0  0  0  0  0  0  0  0  0  0
   -3.1550    3.5765    0.6641 H   0  0  0  0  0  0  0  0  0  0  0  0
   -3.0061    2.8162    2.2672 H   0  0  0  0  0  0  0  0  0  0  0  0
  5  6  2  0  0  0  0
  5  7  1  0  0  0  0
  2  3  1  0  0  0  0
  2  4  1  0  0  0  0
  2  5  1  0  0  0  0
  1  2  1  0  0  0  0
 26 27  2  0  0  0  0
 26 28  1  0  0  0  0
 24 25  1  0  0  0  0
 22 23  1  0  0  0  0
 22 24  2  0  0  0  0
 20 21  1  0  0  0  0
 19 20  1  0  0  0  0
 19 22  1  0  0  0  0
 17 18  1  0  0  0  0
 17 19  2  0  0  0  0
 15 16  1  0  0  0  0
 15 17  1  0  0  0  0
 14 15  2  0  0  0  0
 14 24  1  0  0  0  0
 11 12  1  0  0  0  0
 11 13  1  0  0  0  0
 11 14  1  0  0  0  0
  9 10  1  0  0  0  0
  9 11  1  0  0  0  0
  9 26  1  0  0  0  0
  7  8  1  0  0  0  0
  7  9  1  0  0  0  0
 30 31  1  0  0  0  0
 30 32  1  0  0  0  0
 30 33  1  0  0  0  0
 28 29  1  0  0  0  0
 28 30  1  0  0  0  0
M  END
$$$$
default_name
  -OEChem-01062215323D

 33 33  0     1  0  0  0  0  0999 V2000
   -4.0702   -3.8485    1.4554 H   0  0  0  0  0  0  0  0  0  0  0  0
   -4.0012   -2.9605    0.8284 C   0  0  0  0  0  0  0  0  0  0  0  0
   -4.7652   -2.2435    1.1234 H   0  0  0  0  0  0  0  0  0  0  0  0
   -4.1352   -3.2385   -0.2156 H   0  0  0  0  0  0  0  0  0  0  0  0
   -2.6362   -2.3395    1.0094 C   0  0  0  0  0  0  0  0  0  0  0  0
   -1.8292   -2.8395    1.7814 O   0  0  0  0  0  0  0  0  0  0  0  0
   -2.3832   -1.2445    0.2964 N   0  0  0  0  0  0  0  0  0  0  0  0
   -3.1102   -0.8685   -0.2946 H   0  0  0  0  0  0  0  0  0  0  0  0
   -1.1292   -0.4875    0.3524 C   0  0  1  0  0  0  0  0  0  0  0  0
   -0.3837   -1.0894    0.8733 H   0  0  0  0  0  0  0  0  0  0  0  0
   -0.6263   -0.2259   -1.0778 C   0  0  0  0  0  0  0  0  0  0  0  0
   -1.4224    0.2497   -1.6520 H   0  0  0  0  0  0  0  0  0  0  0  0
    0.2096    0.4744   -1.0359 H   0  0  0  0  0  0  0  0  0  0  0  0
   -0.1958   -1.4779   -1.8174 C   0  0  0  0  0  0  0  0  0  0  0  0
    1.0802   -2.0330   -1.5937 C   0  0  0  0  0  0  0  0  0  0  0  0
    1.7680   -1.5513   -0.9111 H   0  0  0  0  0  0  0  0  0  0  0  0
    1.4601   -3.2185   -2.2526 C   0  0  0  0  0  0  0  0  0  0  0  0
    2.4385   -3.6399   -2.0801 H   0  0  0  0  0  0  0  0  0  0  0  0
    0.5590   -3.8528   -3.1354 C   0  0  0  0  0  0  0  0  0  0  0  0
    0.9148   -4.9980   -3.7734 O   0  0  0  0  0  0  0  0  0  0  0  0
    1.8313   -5.2290   -3.6164 H   0  0  0  0  0  0  0  0  0  0  0  0
   -0.7192   -3.2985   -3.3543 C   0  0  0  0  0  0  0  0  0  0  0  0
   -1.3977   -3.7904   -4.0350 H   0  0  0  0  0  0  0  0  0  0  0  0
   -1.0943   -2.1110   -2.6978 C   0  0  0  0  0  0  0  0  0  0  0  0
   -2.0731   -1.6807   -2.8736 H   0  0  0  0  0  0  0  0  0  0  0  0
   -1.3103    0.8198    1.1418 C   0  0  0  0  0  0  0  0  0  0  0  0
   -0.4740    1.1588    1.9796 O   0  0  0  0  0  0  0  0  0  0  0  0
   -2.4006    1.5513    0.8790 N   0  0  0  0  0  0  0  0  0  0  0  0
   -3.0673    1.1748    0.2207 H   0  0  0  0  0  0  0  0  0  0  0  0
   -2.7247    2.8144    1.5381 C   0  0  0  0  0  0  0  0  0  0  0  0
   -1.8639    3.4842    1.4994 H   0  0  0  0  0  0  0  0  0  0  0  0
   -3.5728    3.2900    1.0428 H   0  0  0  0  0  0  0  0  0  0  0  0
   -2.9759    2.6288    2.5844 H   0  0  0  0  0  0  0  0  0  0  0  0
  5  6  2  0  0  0  0
  5  7  1  0  0  0  0
  2  3  1  0  0  0  0
  2  4  1  0  0  0  0
  2  5  1  0  0  0  0
  1  2  1  0  0  0  0
 26 27  2  0  0  0  0
 26 28  1  0  0  0  0
 24 25  1  0  0  0  0
 22 23  1  0  0  0  0
 22 24  2  0  0  0  0
 20 21  1  0  0  0  0
 19 20  1  0  0  0  0
 19 22  1  0  0  0  0
 17 18  1  0  0  0  0
 17 19  2  0  0  0  0
 15 16  1  0  0  0  0
 15 17  1  0  0  0  0
 14 15  2  0  0  0  0
 14 24  1  0  0  0  0
 11 12  1  0  0  0  0
 11 13  1  0  0  0  0
 11 14  1  0  0  0  0
  9 10  1  0  0  0  0
  9 11  1  0  0  0  0
  9 26  1  0  0  0  0
  7  8  1  0  0  0  0
  7  9  1  0  0  0  0
 30 31  1  0  0  0  0
 30 32  1  0  0  0  0
 30 33  1  0  0  0  0
 28 29  1  0  0  0  0
 28 30  1  0  0  0  0
M  END
$$$$
default_name
  -OEChem-01062215323D

 33 33  0     1  0  0  0  0  0999 V2000
   -4.0702   -3.8485    1.4554 H   0  0  0  0  0  0  0  0  0  0  0  0
   -4.0012   -2.9605    0.8284 C   0  0  0  0  0  0  0  0  0  0  0  0
   -4.7652   -2.2435    1.1234 H   0  0  0  0  0  0  0  0  0  0  0  0
   -4.1352   -3.2385   -0.2156 H   0  0  0  0  0  0  0  0  0  0  0  0
   -2.6362   -2.3395    1.0094 C   0  0  0  0  0  0  0  0  0  0  0  0
   -1.8292   -2.8395    1.7814 O   0  0  0  0  0  0  0  0  0  0  0  0
   -2.3832   -1.2445    0.2964 N   0  0  0  0  0  0  0  0  0  0  0  0
   -3.1102   -0.8685   -0.2946 H   0  0  0  0  0  0  0  0  0  0  0  0
   -1.1292   -0.4875    0.3524 C   0  0  1  0  0  0  0  0  0  0  0  0
   -0.3837   -1.0894    0.8733 H   0  0  0  0  0  0  0  0  0  0  0  0
   -0.6263   -0.2259   -1.0778 C   0  0  0  0  0  0  0  0  0  0  0  0
   -1.4224    0.2497   -1.6520 H   0  0  0  0  0  0  0  0  0  0  0  0
    0.2096    0.4744   -1.0359 H   0  0  0  0  0  0  0  0  0  0  0  0
   -0.1958   -1.4779   -1.8174 C   0  0  0  0  0  0  0  0  0  0  0  0
    1.0802   -2.0330   -1.5937 C   0  0  0  0  0  0  0  0  0  0  0  0
    1.7680   -1.5513   -0.9111 H   0  0  0  0  0  0  0  0  0  0  0  0
    1.4601   -3.2185   -2.2526 C   0  0  0  0  0  0  0  0  0  0  0  0
    2.4385   -3.6399   -2.0801 H   0  0  0  0  0  0  0  0  0  0  0  0
    0.5590   -3.8528   -3.1354 C   0  0  0  0  0  0  0  0  0  0  0  0
    0.9148   -4.9980   -3.7734 O   0  0  0  0  0  0  0  0  0  0  0  0
    1.8313   -5.2290   -3.6164 H   0  0  0  0  0  0  0  0  0  0  0  0
   -0.7192   -3.2985   -3.3543 C   0  0  0  0  0  0  0  0  0  0  0  0
   -1.3977   -3.7904   -4.0350 H   0  0  0  0  0  0  0  0  0  0  0  0
   -1.0943   -2.1110   -2.6978 C   0  0  0  0  0  0  0  0  0  0  0  0
   -2.0731   -1.6807   -2.8736 H   0  0  0  0  0  0  0  0  0  0  0  0
   -1.3103    0.8198    1.1418 C   0  0  0  0  0  0  0  0  0  0  0  0
   -0.3657    1.3018    1.7675 O   0  0  0  0  0  0  0  0  0  0  0  0
   -2.5209    1.3913    1.1163 N   0  0  0  0  0  0  0  0  0  0  0  0
   -3.2574    0.9023    0.6285 H   0  0  0  0  0  0  0  0  0  0  0  0
   -2.8626    2.6304    1.8111 C   0  0  0  0  0  0  0  0  0  0  0  0
   -2.1304    3.4035    1.5718 H   0  0  0  0  0  0  0  0  0  0  0  0
   -3.8550    2.9693    1.5092 H   0  0  0  0  0  0  0  0  0  0  0  0
   -2.8520    2.4615    2.8899 H   0  0  0  0  0  0  0  0  0  0  0  0
  5  6  2  0  0  0  0
  5  7  1  0  0  0  0
  2  3  1  0  0  0  0
  2  4  1  0  0  0  0
  2  5  1  0  0  0  0
  1  2  1  0  0  0  0
 26 27  2  0  0  0  0
 26 28  1  0  0  0  0
 24 25  1  0  0  0  0
 22 23  1  0  0  0  0
 22 24  2  0  0  0  0
 20 21  1  0  0  0  0
 19 20  1  0  0  0  0
 19 22  1  0  0  0  0
 17 18  1  0  0  0  0
 17 19  2  0  0  0  0
 15 16  1  0  0  0  0
 15 17  1  0  0  0  0
 14 15  2  0  0  0  0
 14 24  1  0  0  0  0
 11 12  1  0  0  0  0
 11 13  1  0  0  0  0
 11 14  1  0  0  0  0
  9 10  1  0  0  0  0
  9 11  1  0  0  0  0
  9 26  1  0  0  0  0
  7  8  1  0  0  0  0
  7  9  1  0  0  0  0
 30 31  1  0  0  0  0
 30 32  1  0  0  0  0
 30 33  1  0  0  0  0
 28 29  1  0  0  0  0
 28 30  1  0  0  0  0
M  END
$$$$
default_name
  -OEChem-01062215323D

 33 33  0     1  0  0  0  0  0999 V2000
   -4.0702   -3.8485    1.4554 H   0  0  0  0  0  0  0  0  0  0  0  0
   -4.0012   -2.9605    0.8284 C   0  0  0  0  0  0  0  0  0  0  0  0
   -4.7652   -2.2435    1.1234 H   0  0  0  0  0  0  0  0  0  0  0  0
   -4.1352   -3.2385   -0.2156 H   0  0  0  0  0  0  0  0  0  0  0  0
   -2.6362   -2.3395    1.0094 C   0  0  0  0  0  0  0  0  0  0  0  0
   -1.8292   -2.8395    1.7814 O   0  0  0  0  0  0  0  0  0  0  0  0
   -2.3832   -1.2445    0.2964 N   0  0  0  0  0  0  0  0  0  0  0  0
   -3.1102   -0.8685   -0.2946 H   0  0  0  0  0  0  0  0  0  0  0  0
   -1.1292   -0.4875    0.3524 C   0  0  1  0  0  0  0  0  0  0  0  0
   -0.3837   -1.0894    0.8733 H   0  0  0  0  0  0  0  0  0  0  0  0
   -0.6263   -0.2259   -1.0778 C   0  0  0  0  0  0  0  0  0  0  0  0
   -1.4224    0.2497   -1.6520 H   0  0  0  0  0  0  0  0  0  0  0  0
    0.2096    0.4744   -1.0359 H   0  0  0  0  0  0  0  0  0  0  0  0
   -0.1958   -1.4779   -1.8174 C   0  0  0  0  0  0  0  0  0  0  0  0
    1.0802   -2.0330   -1.5937 C   0  0  0  0  0  0  0  0  0  0  0  0
    1.7680   -1.5513   -0.9111 H   0  0  0  0  0  0  0  0  0  0  0  0
    1.4601   -3.2185   -2.2526 C   0  0  0  0  0  0  0  0  0  0  0  0
    2.4385   -3.6399   -2.0801 H   0  0  0  0  0  0  0  0  0  0  0  0
    0.5590   -3.8528   -3.1354 C   0  0  0  0  0  0  0  0  0  0  0  0
    0.9148   -4.9980   -3.7734 O   0  0  0  0  0  0  0  0  0  0  0  0
    1.8313   -5.2290   -3.6164 H   0  0  0  0  0  0  0  0  0  0  0  0
   -0.7192   -3.2985   -3.3543 C   0  0  0  0  0  0  0  0  0  0  0  0
   -1.3977   -3.7904   -4.0350 H   0  0  0  0  0  0  0  0  0  0  0  0
   -1.0943   -2.1110   -2.6978 C   0  0  0  0  0  0  0  0  0  0  0  0
   -2.0731   -1.6807   -2.8736 H   0  0  0  0  0  0  0  0  0  0  0  0
   -1.3103    0.8198    1.1418 C   0  0  0  0  0  0  0  0  0  0  0  0
   -0.3267    1.4479    1.5345 O   0  0  0  0  0  0  0  0  0  0  0  0
   -2.5637    1.2281    1.3769 N   0  0  0  0  0  0  0  0  0  0  0  0
   -3.3151    0.6262    1.0725 H   0  0  0  0  0  0  0  0  0  0  0  0
   -2.9113    2.4427    2.1108 C   0  0  0  0  0  0  0  0  0  0  0  0
   -2.3612    3.2924    1.7028 H   0  0  0  0  0  0  0  0  0  0  0  0
   -3.9823    2.6362    2.0316 H   0  0  0  0  0  0  0  0  0  0  0  0
   -2.6429    2.3257    3.1628 H   0  0  0  0  0  0  0  0  0  0  0  0
  5  6  2  0  0  0  0
  5  7  1  0  0  0  0
  2  3  1  0  0  0  0
  2  4  1  0  0  0  0
  2  5  1  0  0  0  0
  1  2  1  0  0  0  0
 26 27  2  0  0  0  0
 26 28  1  0  0  0  0
 24 25  1  0  0  0  0
 22 23  1  0  0  0  0
 22 24  2  0  0  0  0
 20 21  1  0  0  0  0
 19 20  1  0  0  0  0
 19 22  1  0  0  0  0
 17 18  1  0  0  0  0
 17 19  2  0  0  0  0
 15 16  1  0  0  0  0
 15 17  1  0  0  0  0
 14 15  2  0  0  0  0
 14 24  1  0  0  0  0
 11 12  1  0  0  0  0
 11 13  1  0  0  0  0
 11 14  1  0  0  0  0
  9 10  1  0  0  0  0
  9 11  1  0  0  0  0
  9 26  1  0  0  0  0
  7  8  1  0  0  0  0
  7  9  1  0  0  0  0
 30 31  1  0  0  0  0
 30 32  1  0  0  0  0
 30 33  1  0  0  0  0
 28 29  1  0  0  0  0
 28 30  1  0  0  0  0
M  END
$$$$
default_name
  -OEChem-01062215323D

 33 33  0     1  0  0  0  0  0999 V2000
   -4.0702   -3.8485    1.4554 H   0  0  0  0  0  0  0  0  0  0  0  0
   -4.0012   -2.9605    0.8284 C   0  0  0  0  0  0  0  0  0  0  0  0
   -4.7652   -2.2435    1.1234 H   0  0  0  0  0  0  0  0  0  0  0  0
   -4.1352   -3.2385   -0.2156 H   0  0  0  0  0  0  0  0  0  0  0  0
   -2.6362   -2.3395    1.0094 C   0  0  0  0  0  0  0  0  0  0  0  0
   -1.8292   -2.8395    1.7814 O   0  0  0  0  0  0  0  0  0  0  0  0
   -2.3832   -1.2445    0.2964 N   0  0  0  0  0  0  0  0  0  0  0  0
   -3.1102   -0.8685   -0.2946 H   0  0  0  0  0  0  0  0  0  0  0  0
   -1.1292   -0.4875    0.3524 C   0  0  1  0  0  0  0  0  0  0  0  0
   -0.3837   -1.0894    0.8733 H   0  0  0  0  0  0  0  0  0  0  0  0
   -0.6263   -0.2259   -1.0778 C   0  0  0  0  0  0  0  0  0  0  0  0
   -1.4224    0.2497   -1.6520 H   0  0  0  0  0  0  0  0  0  0  0  0
    0.2096    0.4744   -1.0359 H   0  0  0  0  0  0  0  0  0  0  0  0
   -0.1958   -1.4779   -1.8174 C   0  0  0  0  0  0  0  0  0  0  0  0
    1.0802   -2.0330   -1.5937 C   0  0  0  0  0  0  0  0  0  0  0  0
    1.7680   -1.5513   -0.9111 H   0  0  0  0  0  0  0  0  0  0  0  0
    1.4601   -3.2185   -2.2526 C   0  0  0  0  0  0  0  0  0  0  0  0
    2.4385   -3.6399   -2.0801 H   0  0  0  0  0  0  0  0  0  0  0  0
    0.5590   -3.8528   -3.1354 C   0  0  0  0  0  0  0  0  0  0  0  0
    0.9148   -4.9980   -3.7734 O   0  0  0  0  0  0  0  0  0  0  0  0
    1.8313   -5.2290   -3.6164 H   0  0  0  0  0  0  0  0  0  0  0  0
   -0.7192   -3.2985   -3.3543 C   0  0  0  0  0  0  0  0  0  0  0  0
   -1.3977   -3.7904   -4.0350 H   0  0  0  0  0  0  0  0  0  0  0  0
   -1.0943   -2.1110   -2.6978 C   0  0  0  0  0  0  0  0  0  0  0  0
   -2.0731   -1.6807   -2.8736 H   0  0  0  0  0  0  0  0  0  0  0  0
   -1.3103    0.8198    1.1418 C   0  0  0  0  0  0  0  0  0  0  0  0
   -0.3598    1.5871    1.2965 O   0  0  0  0  0  0  0  0  0  0  0  0
   -2.5260    1.0726    1.6430 N   0  0  0  0  0  0  0  0  0  0  0  0
   -3.2364    0.3653    1.5224 H   0  0  0  0  0  0  0  0  0  0  0  0
   -2.8674    2.2640    2.4167 C   0  0  0  0  0  0  0  0  0  0  0  0
   -2.5406    3.1585    1.8836 H   0  0  0  0  0  0  0  0  0  0  0  0
   -3.9461    2.3135    2.5743 H   0  0  0  0  0  0  0  0  0  0  0  0
   -2.3628    2.2305    3.3845 H   0  0  0  0  0  0  0  0  0  0  0  0
  5  6  2  0  0  0  0
  5  7  1  0  0  0  0
  2  3  1  0  0  0  0
  2  4  1  0  0  0  0
  2  5  1  0  0  0  0
  1  2  1  0  0  0  0
 26 27  2  0  0  0  0
 26 28  1  0  0  0  0
 24 25  1  0  0  0  0
 22 23  1  0  0  0  0
 22 24  2  0  0  0  0
 20 21  1  0  0  0  0
 19 20  1  0  0  0  0
 19 22  1  0  0  0  0
 17 18  1  0  0  0  0
 17 19  2  0  0  0  0
 15 16  1  0  0  0  0
 15 17  1  0  0  0  0
 14 15  2  0  0  0  0
 14 24  1  0  0  0  0
 11 12  1  0  0  0  0
 11 13  1  0  0  0  0
 11 14  1  0  0  0  0
  9 10  1  0  0  0  0
  9 11  1  0  0  0  0
  9 26  1  0  0  0  0
  7  8  1  0  0  0  0
  7  9  1  0  0  0  0
 30 31  1  0  0  0  0
 30 32  1  0  0  0  0
 30 33  1  0  0  0  0
 28 29  1  0  0  0  0
 28 30  1  0  0  0  0
M  END
$$$$
default_name
  -OEChem-01062215323D

 33 33  0     1  0  0  0  0  0999 V2000
   -4.0702   -3.8485    1.4554 H   0  0  0  0  0  0  0  0  0  0  0  0
   -4.0012   -2.9605    0.8284 C   0  0  0  0  0  0  0  0  0  0  0  0
   -4.7652   -2.2435    1.1234 H   0  0  0  0  0  0  0  0  0  0  0  0
   -4.1352   -3.2385   -0.2156 H   0  0  0  0  0  0  0  0  0  0  0  0
   -2.6362   -2.3395    1.0094 C   0  0  0  0  0  0  0  0  0  0  0  0
   -1.8292   -2.8395    1.7814 O   0  0  0  0  0  0  0  0  0  0  0  0
   -2.3832   -1.2445    0.2964 N   0  0  0  0  0  0  0  0  0  0  0  0
   -3.1102   -0.8685   -0.2946 H   0  0  0  0  0  0  0  0  0  0  0  0
   -1.1292   -0.4875    0.3524 C   0  0  1  0  0  0  0  0  0  0  0  0
   -0.3837   -1.0894    0.8733 H   0  0  0  0  0  0  0  0  0  0  0  0
   -0.6263   -0.2259   -1.0778 C   0  0  0  0  0  0  0  0  0  0  0  0
   -1.4224    0.2497   -1.6520 H   0  0  0  0  0  0  0  0  0  0  0  0
    0.2096    0.4744   -1.0359 H   0  0  0  0  0  0  0  0  0  0  0  0
   -0.1958   -1.4779   -1.8174 C   0  0  0  0  0  0  0  0  0  0  0  0
    1.0802   -2.0330   -1.5937 C   0  0  0  0  0  0  0  0  0  0  0  0
    1.7680   -1.5513   -0.9111 H   0  0  0  0  0  0  0  0  0  0  0  0
    1.4601   -3.2185   -2.2526 C   0  0  0  0  0  0  0  0  0  0  0  0
    2.4385   -3.6399   -2.0801 H   0  0  0  0  0  0  0  0  0  0  0  0
    0.5590   -3.8528   -3.1354 C   0  0  0  0  0  0  0  0  0  0  0  0
    0.9148   -4.9980   -3.7734 O   0  0  0  0  0  0  0  0  0  0  0  0
    1.8313   -5.2290   -3.6164 H   0  0  0  0  0  0  0  0  0  0  0  0
   -0.7192   -3.2985   -3.3543 C   0  0  0  0  0  0  0  0  0  0  0  0
   -1.3977   -3.7904   -4.0350 H   0  0  0  0  0  0  0  0  0  0  0  0
   -1.0943   -2.1110   -2.6978 C   0  0  0  0  0  0  0  0  0  0  0  0
   -2.0731   -1.6807   -2.8736 H   0  0  0  0  0  0  0  0  0  0  0  0
   -1.3103    0.8198    1.1418 C   0  0  0  0  0  0  0  0  0  0  0  0
   -0.4626    1.7099    1.0695 O   0  0  0  0  0  0  0  0  0  0  0  0
   -2.4103    0.9356    1.8964 N   0  0  0  0  0  0  0  0  0  0  0  0
   -3.0268    0.1376    1.9477 H   0  0  0  0  0  0  0  0  0  0  0  0
   -2.7340    2.1066    2.7080 C   0  0  0  0  0  0  0  0  0  0  0  0
   -2.6562    3.0107    2.1017 H   0  0  0  0  0  0  0  0  0  0  0  0
   -3.7488    2.0231    3.1004 H   0  0  0  0  0  0  0  0  0  0  0  0
   -2.0309    2.1826    3.5400 H   0  0  0  0  0  0  0  0  0  0  0  0
  5  6  2  0  0  0  0
  5  7  1  0  0  0  0
  2  3  1  0  0  0  0
  2  4  1  0  0  0  0
  2  5  1  0  0  0  0
  1  2  1  0  0  0  0
 26 27  2  0  0  0  0
 26 28  1  0  0  0  0
 24 25  1  0  0  0  0
 22 23  1  0  0  0  0
 22 24  2  0  0  0  0
 20 21  1  0  0  0  0
 19 20  1  0  0  0  0
 19 22  1  0  0  0  0
 17 18  1  0  0  0  0
 17 19  2  0  0  0  0
 15 16  1  0  0  0  0
 15 17  1  0  0  0  0
 14 15  2  0  0  0  0
 14 24  1  0  0  0  0
 11 12  1  0  0  0  0
 11 13  1  0  0  0  0
 11 14  1  0  0  0  0
  9 10  1  0  0  0  0
  9 11  1  0  0  0  0
  9 26  1  0  0  0  0
  7  8  1  0  0  0  0
  7  9  1  0  0  0  0
 30 31  1  0  0  0  0
 30 32  1  0  0  0  0
 30 33  1  0  0  0  0
 28 29  1  0  0  0  0
 28 30  1  0  0  0  0
M  END
$$$$
default_name
  -OEChem-01062215323D

 33 33  0     1  0  0  0  0  0999 V2000
   -4.0702   -3.8485    1.4554 H   0  0  0  0  0  0  0  0  0  0  0  0
   -4.0012   -2.9605    0.8284 C   0  0  0  0  0  0  0  0  0  0  0  0
   -4.7652   -2.2435    1.1234 H   0  0  0  0  0  0  0  0  0  0  0  0
   -4.1352   -3.2385   -0.2156 H   0  0  0  0  0  0  0  0  0  0  0  0
   -2.6362   -2.3395    1.0094 C   0  0  0  0  0  0  0  0  0  0  0  0
   -1.8292   -2.8395    1.7814 O   0  0  0  0  0  0  0  0  0  0  0  0
   -2.3832   -1.2445    0.2964 N   0  0  0  0  0  0  0  0  0  0  0  0
   -3.1102   -0.8685   -0.2946 H   0  0  0  0  0  0  0  0  0  0  0  0
   -1.1292   -0.4875    0.3524 C   0  0  1  0  0  0  0  0  0  0  0  0
   -0.3837   -1.0894    0.8733 H   0  0  0  0  0  0  0  0  0  0  0  0
   -0.6263   -0.2259   -1.0778 C   0  0  0  0  0  0  0  0  0  0  0  0
   -1.4224    0.2497   -1.6520 H   0  0  0  0  0  0  0  0  0  0  0  0
    0.2096    0.4744   -1.0359 H   0  0  0  0  0  0  0  0  0  0  0  0
   -0.1958   -1.4779   -1.8174 C   0  0  0  0  0  0  0  0  0  0  0  0
    1.0802   -2.0330   -1.5937 C   0  0  0  0  0  0  0  0  0  0  0  0
    1.7680   -1.5513   -0.9111 H   0  0  0  0  0  0  0  0  0  0  0  0
    1.4601   -3.2185   -2.2526 C   0  0  0  0  0  0  0  0  0  0  0  0
    2.4385   -3.6399   -2.0801 H   0  0  0  0  0  0  0  0  0  0  0  0
    0.5590   -3.8528   -3.1354 C   0  0  0  0  0  0  0  0  0  0  0  0
    0.9148   -4.9980   -3.7734 O   0  0  0  0  0  0  0  0  0  0  0  0
    1.8313   -5.2290   -3.6164 H   0  0  0  0  0  0  0  0  0  0  0  0
   -0.7192   -3.2985   -3.3543 C   0  0  0  0  0  0  0  0  0  0  0  0
   -1.3977   -3.7904   -4.0350 H   0  0  0  0  0  0  0  0  0  0  0  0
   -1.0943   -2.1110   -2.6978 C   0  0  0  0  0  0  0  0  0  0  0  0
   -2.0731   -1.6807   -2.8736 H   0  0  0  0  0  0  0  0  0  0  0  0
   -1.3103    0.8198    1.1418 C   0  0  0  0  0  0  0  0  0  0  0  0
   -0.6281    1.8080    0.8692 O   0  0  0  0  0  0  0  0  0  0  0  0
   -2.2247    0.8263    2.1200 N   0  0  0  0  0  0  0  0  0  0  0  0
   -2.7005   -0.0417    2.3194 H   0  0  0  0  0  0  0  0  0  0  0  0
   -2.5202    1.9811    2.9648 C   0  0  0  0  0  0  0  0  0  0  0  0
   -2.7003    2.8593    2.3423 H   0  0  0  0  0  0  0  0  0  0  0  0
   -3.4040    1.7849    3.5740 H   0  0  0  0  0  0  0  0  0  0  0  0
   -1.6697    2.1852    3.6186 H   0  0  0  0  0  0  0  0  0  0  0  0
  5  6  2  0  0  0  0
  5  7  1  0  0  0  0
  2  3  1  0  0  0  0
  2  4  1  0  0  0  0
  2  5  1  0  0  0  0
  1  2  1  0  0  0  0
 26 27  2  0  0  0  0
 26 28  1  0  0  0  0
 24 25  1  0  0  0  0
 22 23  1  0  0  0  0
 22 24  2  0  0  0  0
 20 21  1  0  0  0  0
 19 20  1  0  0  0  0
 19 22  1  0  0  0  0
 17 18  1  0  0  0  0
 17 19  2  0  0  0  0
 15 16  1  0  0  0  0
 15 17  1  0  0  0  0
 14 15  2  0  0  0  0
 14 24  1  0  0  0  0
 11 12  1  0  0  0  0
 11 13  1  0  0  0  0
 11 14  1  0  0  0  0
  9 10  1  0  0  0  0
  9 11  1  0  0  0  0
  9 26  1  0  0  0  0
  7  8  1  0  0  0  0
  7  9  1  0  0  0  0
 30 31  1  0  0  0  0
 30 32  1  0  0  0  0
 30 33  1  0  0  0  0
 28 29  1  0  0  0  0
 28 30  1  0  0  0  0
M  END
$$$$
default_name
  -OEChem-01062215323D

 33 33  0     1  0  0  0  0  0999 V2000
   -4.0702   -3.8485    1.4554 H   0  0  0  0  0  0  0  0  0  0  0  0
   -4.0012   -2.9605    0.8284 C   0  0  0  0  0  0  0  0  0  0  0  0
   -4.7652   -2.2435    1.1234 H   0  0  0  0  0  0  0  0  0  0  0  0
   -4.1352   -3.2385   -0.2156 H   0  0  0  0  0  0  0  0  0  0  0  0
   -2.6362   -2.3395    1.0094 C   0  0  0  0  0  0  0  0  0  0  0  0
   -1.8292   -2.8395    1.7814 O   0  0  0  0  0  0  0  0  0  0  0  0
   -2.3832   -1.2445    0.2964 N   0  0  0  0  0  0  0  0  0  0  0  0
   -3.1102   -0.8685   -0.2946 H   0  0  0  0  0  0  0  0  0  0  0  0
   -1.1292   -0.4875    0.3524 C   0  0  1  0  0  0  0  0  0  0  0  0
   -0.3837   -1.0894    0.8733 H   0  0  0  0  0  0  0  0  0  0  0  0
   -0.6263   -0.2259   -1.0778 C   0  0  0  0  0  0  0  0  0  0  0  0
   -1.4224    0.2497   -1.6520 H   0  0  0  0  0  0  0  0  0  0  0  0
    0.2096    0.4744   -1.0359 H   0  0  0  0  0  0  0  0  0  0  0  0
   -0.1958   -1.4779   -1.8174 C   0  0  0  0  0  0  0  0  0  0  0  0
    1.0802   -2.0330   -1.5937 C   0  0  0  0  0  0  0  0  0  0  0  0
    1.7680   -1.5513   -0.9111 H   0  0  0  0  0  0  0  0  0  0  0  0
    1.4601   -3.2185   -2.2526 C   0  0  0  0  0  0  0  0  0  0  0  0
    2.4385   -3.6399   -2.0801 H   0  0  0  0  0  0  0  0  0  0  0  0
    0.5590   -3.8528   -3.1354 C   0  0  0  0  0  0  0  0  0  0  0  0
    0.9148   -4.9980   -3.7734 O   0  0  0  0  0  0  0  0  0  0  0  0
    1.8313   -5.2290   -3.6164 H   0  0  0  0  0  0  0  0  0  0  0  0
   -0.7192   -3.2985   -3.3543 C   0  0  0  0  0  0  0  0  0  0  0  0
   -1.3977   -3.7904   -4.0350 H   0  0  0  0  0  0  0  0  0  0  0  0
   -1.0943   -2.1110   -2.6978 C   0  0  0  0  0  0  0  0  0  0  0  0
   -2.0731   -1.6807   -2.8736 H   0  0  0  0  0  0  0  0  0  0  0  0
   -1.3103    0.8198    1.1418 C   0  0  0  0  0  0  0  0  0  0  0  0
   -0.8451    1.8746    0.7091 O   0  0  0  0  0  0  0  0  0  0  0  0
   -1.9816    0.7522    2.2984 N   0  0  0  0  0  0  0  0  0  0  0  0
   -2.2797   -0.1601    2.6120 H   0  0  0  0  0  0  0  0  0  0  0  0
   -2.2404    1.8962    3.1696 C   0  0  0  0  0  0  0  0  0  0  0  0
   -2.6699    2.7145    2.5891 H   0  0  0  0  0  0  0  0  0  0  0  0
   -2.9350    1.6150    3.9629 H   0  0  0  0  0  0  0  0  0  0  0  0
   -1.3038    2.2381    3.6149 H   0  0  0  0  0  0  0  0  0  0  0  0
  5  6  2  0  0  0  0
  5  7  1  0  0  0  0
  2  3  1  0  0  0  0
  2  4  1  0  0  0  0
  2  5  1  0  0  0  0
  1  2  1  0  0  0  0
 26 27  2  0  0  0  0
 26 28  1  0  0  0  0
 24 25  1  0  0  0  0
 22 23  1  0  0  0  0
 22 24  2  0  0  0  0
 20 21  1  0  0  0  0
 19 20  1  0  0  0  0
 19 22  1  0  0  0  0
 17 18  1  0  0  0  0
 17 19  2  0  0  0  0
 15 16  1  0  0  0  0
 15 17  1  0  0  0  0
 14 15  2  0  0  0  0
 14 24  1  0  0  0  0
 11 12  1  0  0  0  0
 11 13  1  0  0  0  0
 11 14  1  0  0  0  0
  9 10  1  0  0  0  0
  9 11  1  0  0  0  0
  9 26  1  0  0  0  0
  7  8  1  0  0  0  0
  7  9  1  0  0  0  0
 30 31  1  0  0  0  0
 30 32  1  0  0  0  0
 30 33  1  0  0  0  0
 28 29  1  0  0  0  0
 28 30  1  0  0  0  0
M  END
$$$$
default_name
  -OEChem-01062215323D

 33 33  0     1  0  0  0  0  0999 V2000
   -4.0702   -3.8485    1.4554 H   0  0  0  0  0  0  0  0  0  0  0  0
   -4.0012   -2.9605    0.8284 C   0  0  0  0  0  0  0  0  0  0  0  0
   -4.7652   -2.2435    1.1234 H   0  0  0  0  0  0  0  0  0  0  0  0
   -4.1352   -3.2385   -0.2156 H   0  0  0  0  0  0  0  0  0  0  0  0
   -2.6362   -2.3395    1.0094 C   0  0  0  0  0  0  0  0  0  0  0  0
   -1.8292   -2.8395    1.7814 O   0  0  0  0  0  0  0  0  0  0  0  0
   -2.3832   -1.2445    0.2964 N   0  0  0  0  0  0  0  0  0  0  0  0
   -3.1102   -0.8685   -0.2946 H   0  0  0  0  0  0  0  0  0  0  0  0
   -1.1292   -0.4875    0.3524 C   0  0  1  0  0  0  0  0  0  0  0  0
   -0.3837   -1.0894    0.8733 H   0  0  0  0  0  0  0  0  0  0  0  0
   -0.6263   -0.2259   -1.0778 C   0  0  0  0  0  0  0  0  0  0  0  0
   -1.4224    0.2497   -1.6520 H   0  0  0  0  0  0  0  0  0  0  0  0
    0.2096    0.4744   -1.0359 H   0  0  0  0  0  0  0  0  0  0  0  0
   -0.1958   -1.4779   -1.8174 C   0  0  0  0  0  0  0  0  0  0  0  0
    1.0802   -2.0330   -1.5937 C   0  0  0  0  0  0  0  0  0  0  0  0
    1.7680   -1.5513   -0.9111 H   0  0  0  0  0  0  0  0  0  0  0  0
    1.4601   -3.2185   -2.2526 C   0  0  0  0  0  0  0  0  0  0  0  0
    2.4385   -3.6399   -2.0801 H   0  0  0  0  0  0  0  0  0  0  0  0
    0.5590   -3.8528   -3.1354 C   0  0  0  0  0  0  0  0  0  0  0  0
    0.9148   -4.9980   -3.7734 O   0  0  0  0  0  0  0  0  0  0  0  0
    1.8313   -5.2290   -3.6164 H   0  0  0  0  0  0  0  0  0  0  0  0
   -0.7192   -3.2985   -3.3543 C   0  0  0  0  0  0  0  0  0  0  0  0
   -1.3977   -3.7904   -4.0350 H   0  0  0  0  0  0  0  0  0  0  0  0
   -1.0943   -2.1110   -2.6978 C   0  0  0  0  0  0  0  0  0  0  0  0
   -2.0731   -1.6807   -2.8736 H   0  0  0  0  0  0  0  0  0  0  0  0
   -1.3103    0.8198    1.1418 C   0  0  0  0  0  0  0  0  0  0  0  0
   -1.0987    1.9052    0.6002 O   0  0  0  0  0  0  0  0  0  0  0  0
   -1.6977    0.7184    2.4195 N   0  0  0  0  0  0  0  0  0  0  0  0
   -1.7932   -0.2097    2.8057 H   0  0  0  0  0  0  0  0  0  0  0  0
   -1.9139    1.8576    3.3085 C   0  0  0  0  0  0  0  0  0  0  0  0
   -2.5669    2.5862    2.8251 H   0  0  0  0  0  0  0  0  0  0  0  0
   -2.3739    1.5251    4.2405 H   0  0  0  0  0  0  0  0  0  0  0  0
   -0.9583    2.3376    3.5293 H   0  0  0  0  0  0  0  0  0  0  0  0
  5  6  2  0  0  0  0
  5  7  1  0  0  0  0
  2  3  1  0  0  0  0
  2  4  1  0  0  0  0
  2  5  1  0  0  0  0
  1  2  1  0  0  0  0
 26 27  2  0  0  0  0
 26 28  1  0  0  0  0
 24 25  1  0  0  0  0
 22 23  1  0  0  0  0
 22 24  2  0  0  0  0
 20 21  1  0  0  0  0
 19 20  1  0  0  0  0
 19 22  1  0  0  0  0
 17 18  1  0  0  0  0
 17 19  2  0  0  0  0
 15 16  1  0  0  0  0
 15 17  1  0  0  0  0
 14 15  2  0  0  0  0
 14 24  1  0  0  0  0
 11 12  1  0  0  0  0
 11 13  1  0  0  0  0
 11 14  1  0  0  0  0
  9 10  1  0  0  0  0
  9 11  1  0  0  0  0
  9 26  1  0  0  0  0
  7  8  1  0  0  0  0
  7  9  1  0  0  0  0
 30 31  1  0  0  0  0
 30 32  1  0  0  0  0
 30 33  1  0  0  0  0
 28 29  1  0  0  0  0
 28 30  1  0  0  0  0
M  END
$$$$
default_name
  -OEChem-01062215323D

 33 33  0     1  0  0  0  0  0999 V2000
   -4.0702   -3.8485    1.4554 H   0  0  0  0  0  0  0  0  0  0  0  0
   -4.0012   -2.9605    0.8284 C   0  0  0  0  0  0  0  0  0  0  0  0
   -4.7652   -2.2435    1.1234 H   0  0  0  0  0  0  0  0  0  0  0  0
   -4.1352   -3.2385   -0.2156 H   0  0  0  0  0  0  0  0  0  0  0  0
   -2.6362   -2.3395    1.0094 C   0  0  0  0  0  0  0  0  0  0  0  0
   -1.8292   -2.8395    1.7814 O   0  0  0  0  0  0  0  0  0  0  0  0
   -2.3832   -1.2445    0.2964 N   0  0  0  0  0  0  0  0  0  0  0  0
   -3.1102   -0.8685   -0.2946 H   0  0  0  0  0  0  0  0  0  0  0  0
   -1.1292   -0.4875    0.3524 C   0  0  1  0  0  0  0  0  0  0  0  0
   -0.3837   -1.0894    0.8733 H   0  0  0  0  0  0  0  0  0  0  0  0
   -0.6263   -0.2259   -1.0778 C   0  0  0  0  0  0  0  0  0  0  0  0
   -1.4224    0.2497   -1.6520 H   0  0  0  0  0  0  0  0  0  0  0  0
    0.2096    0.4744   -1.0359 H   0  0  0  0  0  0  0  0  0  0  0  0
   -0.1958   -1.4779   -1.8174 C   0  0  0  0  0  0  0  0  0  0  0  0
    1.0802   -2.0330   -1.5937 C   0  0  0  0  0  0  0  0  0  0  0  0
    1.7680   -1.5513   -0.9111 H   0  0  0  0  0  0  0  0  0  0  0  0
    1.4601   -3.2185   -2.2526 C   0  0  0  0  0  0  0  0  0  0  0  0
    2.4385   -3.6399   -2.0801 H   0  0  0  0  0  0  0  0  0  0  0  0
    0.5590   -3.8528   -3.1354 C   0  0  0  0  0  0  0  0  0  0  0  0
    0.9148   -4.9980   -3.7734 O   0  0  0  0  0  0  0  0  0  0  0  0
    1.8313   -5.2290   -3.6164 H   0  0  0  0  0  0  0  0  0  0  0  0
   -0.7192   -3.2985   -3.3543 C   0  0  0  0  0  0  0  0  0  0  0  0
   -1.3977   -3.7904   -4.0350 H   0  0  0  0  0  0  0  0  0  0  0  0
   -1.0943   -2.1110   -2.6978 C   0  0  0  0  0  0  0  0  0  0  0  0
   -2.0731   -1.6807   -2.8736 H   0  0  0  0  0  0  0  0  0  0  0  0
   -1.3103    0.8198    1.1418 C   0  0  0  0  0  0  0  0  0  0  0  0
   -1.3718    1.8978    0.5499 O   0  0  0  0  0  0  0  0  0  0  0  0
   -1.3924    0.7271    2.4751 N   0  0  0  0  0  0  0  0  0  0  0  0
   -1.2740   -0.1870    2.8872 H   0  0  0  0  0  0  0  0  0  0  0  0
   -1.5627    1.8678    3.3720 C   0  0  0  0  0  0  0  0  0  0  0  0
   -2.3985    2.4832    3.0344 H   0  0  0  0  0  0  0  0  0  0  0  0
   -1.7589    1.5212    4.3879 H   0  0  0  0  0  0  0  0  0  0  0  0
   -0.6566    2.4771    3.3676 H   0  0  0  0  0  0  0  0  0  0  0  0
  5  6  2  0  0  0  0
  5  7  1  0  0  0  0
  2  3  1  0  0  0  0
  2  4  1  0  0  0  0
  2  5  1  0  0  0  0
  1  2  1  0  0  0  0
 26 27  2  0  0  0  0
 26 28  1  0  0  0  0
 24 25  1  0  0  0  0
 22 23  1  0  0  0  0
 22 24  2  0  0  0  0
 20 21  1  0  0  0  0
 19 20  1  0  0  0  0
 19 22  1  0  0  0  0
 17 18  1  0  0  0  0
 17 19  2  0  0  0  0
 15 16  1  0  0  0  0
 15 17  1  0  0  0  0
 14 15  2  0  0  0  0
 14 24  1  0  0  0  0
 11 12  1  0  0  0  0
 11 13  1  0  0  0  0
 11 14  1  0  0  0  0
  9 10  1  0  0  0  0
  9 11  1  0  0  0  0
  9 26  1  0  0  0  0
  7  8  1  0  0  0  0
  7  9  1  0  0  0  0
 30 31  1  0  0  0  0
 30 32  1  0  0  0  0
 30 33  1  0  0  0  0
 28 29  1  0  0  0  0
 28 30  1  0  0  0  0
M  END
$$$$
default_name
  -OEChem-01062215323D

 33 33  0     1  0  0  0  0  0999 V2000
   -4.0702   -3.8485    1.4554 H   0  0  0  0  0  0  0  0  0  0  0  0
   -4.0012   -2.9605    0.8284 C   0  0  0  0  0  0  0  0  0  0  0  0
   -4.7652   -2.2435    1.1234 H   0  0  0  0  0  0  0  0  0  0  0  0
   -4.1352   -3.2385   -0.2156 H   0  0  0  0  0  0  0  0  0  0  0  0
   -2.6362   -2.3395    1.0094 C   0  0  0  0  0  0  0  0  0  0  0  0
   -1.8292   -2.8395    1.7814 O   0  0  0  0  0  0  0  0  0  0  0  0
   -2.3832   -1.2445    0.2964 N   0  0  0  0  0  0  0  0  0  0  0  0
   -3.1102   -0.8685   -0.2946 H   0  0  0  0  0  0  0  0  0  0  0  0
   -1.1292   -0.4875    0.3524 C   0  0  1  0  0  0  0  0  0  0  0  0
   -0.3837   -1.0894    0.8733 H   0  0  0  0  0  0  0  0  0  0  0  0
   -0.6263   -0.2259   -1.0778 C   0  0  0  0  0  0  0  0  0  0  0  0
   -1.4224    0.2497   -1.6520 H   0  0  0  0  0  0  0  0  0  0  0  0
    0.2096    0.4744   -1.0359 H   0  0  0  0  0  0  0  0  0  0  0  0
   -0.1958   -1.4779   -1.8174 C   0  0  0  0  0  0  0  0  0  0  0  0
    1.0802   -2.0330   -1.5937 C   0  0  0  0  0  0  0  0  0  0  0  0
    1.7680   -1.5513   -0.9111 H   0  0  0  0  0  0  0  0  0  0  0  0
    1.4601   -3.2185   -2.2526 C   0  0  0  0  0  0  0  0  0  0  0  0
    2.4385   -3.6399   -2.0801 H   0  0  0  0  0  0  0  0  0  0  0  0
    0.5590   -3.8528   -3.1354 C   0  0  0  0  0  0  0  0  0  0  0  0
    0.9148   -4.9980   -3.7734 O   0  0  0  0  0  0  0  0  0  0  0  0
    1.8313   -5.2290   -3.6164 H   0  0  0  0  0  0  0  0  0  0  0  0
   -0.7192   -3.2985   -3.3543 C   0  0  0  0  0  0  0  0  0  0  0  0
   -1.3977   -3.7904   -4.0350 H   0  0  0  0  0  0  0  0  0  0  0  0
   -1.0943   -2.1110   -2.6978 C   0  0  0  0  0  0  0  0  0  0  0  0
   -2.0731   -1.6807   -2.8736 H   0  0  0  0  0  0  0  0  0  0  0  0
   -1.3103    0.8198    1.1418 C   0  0  0  0  0  0  0  0  0  0  0  0
   -1.6456    1.8528    0.5616 O   0  0  0  0  0  0  0  0  0  0  0  0
   -1.0864    0.7778    2.4613 N   0  0  0  0  0  0  0  0  0  0  0  0
   -0.7576   -0.0937    2.8511 H   0  0  0  0  0  0  0  0  0  0  0  0
   -1.2110    1.9264    3.3558 C   0  0  0  0  0  0  0  0  0  0  0  0
   -2.1761    2.4124    3.2027 H   0  0  0  0  0  0  0  0  0  0  0  0
   -1.1319    1.6037    4.3952 H   0  0  0  0  0  0  0  0  0  0  0  0
   -0.4192    2.6469    3.1407 H   0  0  0  0  0  0  0  0  0  0  0  0
  5  6  2  0  0  0  0
  5  7  1  0  0  0  0
  2  3  1  0  0  0  0
  2  4  1  0  0  0  0
  2  5  1  0  0  0  0
  1  2  1  0  0  0  0
 26 27  2  0  0  0  0
 26 28  1  0  0  0  0
 24 25  1  0  0  0  0
 22 23  1  0  0  0  0
 22 24  2  0  0  0  0
 20 21  1  0  0  0  0
 19 20  1  0  0  0  0
 19 22  1  0  0  0  0
 17 18  1  0  0  0  0
 17 19  2  0  0  0  0
 15 16  1  0  0  0  0
 15 17  1  0  0  0  0
 14 15  2  0  0  0  0
 14 24  1  0  0  0  0
 11 12  1  0  0  0  0
 11 13  1  0  0  0  0
 11 14  1  0  0  0  0
  9 10  1  0  0  0  0
  9 11  1  0  0  0  0
  9 26  1  0  0  0  0
  7  8  1  0  0  0  0
  7  9  1  0  0  0  0
 30 31  1  0  0  0  0
 30 32  1  0  0  0  0
 30 33  1  0  0  0  0
 28 29  1  0  0  0  0
 28 30  1  0  0  0  0
M  END
$$$$
default_name
  -OEChem-01062215323D

 33 33  0     1  0  0  0  0  0999 V2000
   -4.0702   -3.8485    1.4554 H   0  0  0  0  0  0  0  0  0  0  0  0
   -4.0012   -2.9605    0.8284 C   0  0  0  0  0  0  0  0  0  0  0  0
   -4.7652   -2.2435    1.1234 H   0  0  0  0  0  0  0  0  0  0  0  0
   -4.1352   -3.2385   -0.2156 H   0  0  0  0  0  0  0  0  0  0  0  0
   -2.6362   -2.3395    1.0094 C   0  0  0  0  0  0  0  0  0  0  0  0
   -1.8292   -2.8395    1.7814 O   0  0  0  0  0  0  0  0  0  0  0  0
   -2.3832   -1.2445    0.2964 N   0  0  0  0  0  0  0  0  0  0  0  0
   -3.1102   -0.8685   -0.2946 H   0  0  0  0  0  0  0  0  0  0  0  0
   -1.1292   -0.4875    0.3524 C   0  0  1  0  0  0  0  0  0  0  0  0
   -0.3837   -1.0894    0.8733 H   0  0  0  0  0  0  0  0  0  0  0  0
   -0.6263   -0.2259   -1.0778 C   0  0  0  0  0  0  0  0  0  0  0  0
   -1.4224    0.2497   -1.6520 H   0  0  0  0  0  0  0  0  0  0  0  0
    0.2096    0.4744   -1.0359 H   0  0  0  0  0  0  0  0  0  0  0  0
   -0.1958   -1.4779   -1.8174 C   0  0  0  0  0  0  0  0  0  0  0  0
    1.0802   -2.0330   -1.5937 C   0  0  0  0  0  0  0  0  0  0  0  0
    1.7680   -1.5513   -0.9111 H   0  0  0  0  0  0  0  0  0  0  0  0
    1.4601   -3.2185   -2.2526 C   0  0  0  0  0  0  0  0  0  0  0  0
    2.4385   -3.6399   -2.0801 H   0  0  0  0  0  0  0  0  0  0  0  0
    0.5590   -3.8528   -3.1354 C   0  0  0  0  0  0  0  0  0  0  0  0
    0.9148   -4.9980   -3.7734 O   0  0  0  0  0  0  0  0  0  0  0  0
    1.8313   -5.2290   -3.6164 H   0  0  0  0  0  0  0  0  0  0  0  0
   -0.7192   -3.2985   -3.3543 C   0  0  0  0  0  0  0  0  0  0  0  0
   -1.3977   -3.7904   -4.0350 H   0  0  0  0  0  0  0  0  0  0  0  0
   -1.0943   -2.1110   -2.6978 C   0  0  0  0  0  0  0  0  0  0  0  0
   -2.0731   -1.6807   -2.8736 H   0  0  0  0  0  0  0  0  0  0  0  0
   -1.3103    0.8198    1.1418 C   0  0  0  0  0  0  0  0  0  0  0  0
   -1.9016    1.7733    0.6345 O   0  0  0  0  0  0  0  0  0  0  0  0
   -0.8006    0.8670    2.3791 N   0  0  0  0  0  0  0  0  0  0  0  0
   -0.2792    0.0640    2.6997 H   0  0  0  0  0  0  0  0  0  0  0  0
   -0.8826    2.0291    3.2609 C   0  0  0  0  0  0  0  0  0  0  0  0
   -1.9149    2.3787    3.3184 H   0  0  0  0  0  0  0  0  0  0  0  0
   -0.5356    1.7668    4.2617 H   0  0  0  0  0  0  0  0  0  0  0  0
   -0.2625    2.8356    2.8641 H   0  0  0  0  0  0  0  0  0  0  0  0
  5  6  2  0  0  0  0
  5  7  1  0  0  0  0
  2  3  1  0  0  0  0
  2  4  1  0  0  0  0
  2  5  1  0  0  0  0
  1  2  1  0  0  0  0
 26 27  2  0  0  0  0
 26 28  1  0  0  0  0
 24 25  1  0  0  0  0
 22 23  1  0  0  0  0
 22 24  2  0  0  0  0
 20 21  1  0  0  0  0
 19 20  1  0  0  0  0
 19 22  1  0  0  0  0
 17 18  1  0  0  0  0
 17 19  2  0  0  0  0
 15 16  1  0  0  0  0
 15 17  1  0  0  0  0
 14 15  2  0  0  0  0
 14 24  1  0  0  0  0
 11 12  1  0  0  0  0
 11 13  1  0  0  0  0
 11 14  1  0  0  0  0
  9 10  1  0  0  0  0
  9 11  1  0  0  0  0
  9 26  1  0  0  0  0
  7  8  1  0  0  0  0
  7  9  1  0  0  0  0
 30 31  1  0  0  0  0
 30 32  1  0  0  0  0
 30 33  1  0  0  0  0
 28 29  1  0  0  0  0
 28 30  1  0  0  0  0
M  END
$$$$
default_name
  -OEChem-01062215323D

 33 33  0     1  0  0  0  0  0999 V2000
   -4.0702   -3.8485    1.4554 H   0  0  0  0  0  0  0  0  0  0  0  0
   -4.0012   -2.9605    0.8284 C   0  0  0  0  0  0  0  0  0  0  0  0
   -4.7652   -2.2435    1.1234 H   0  0  0  0  0  0  0  0  0  0  0  0
   -4.1352   -3.2385   -0.2156 H   0  0  0  0  0  0  0  0  0  0  0  0
   -2.6362   -2.3395    1.0094 C   0  0  0  0  0  0  0  0  0  0  0  0
   -1.8292   -2.8395    1.7814 O   0  0  0  0  0  0  0  0  0  0  0  0
   -2.3832   -1.2445    0.2964 N   0  0  0  0  0  0  0  0  0  0  0  0
   -3.1102   -0.8685   -0.2946 H   0  0  0  0  0  0  0  0  0  0  0  0
   -1.1292   -0.4875    0.3524 C   0  0  1  0  0  0  0  0  0  0  0  0
   -0.3837   -1.0894    0.8733 H   0  0  0  0  0  0  0  0  0  0  0  0
   -0.6263   -0.2259   -1.0778 C   0  0  0  0  0  0  0  0  0  0  0  0
   -1.4224    0.2497   -1.6520 H   0  0  0  0  0  0  0  0  0  0  0  0
    0.2096    0.4744   -1.0359 H   0  0  0  0  0  0  0  0  0  0  0  0
   -0.1958   -1.4779   -1.8174 C   0  0  0  0  0  0  0  0  0  0  0  0
    1.0802   -2.0330   -1.5937 C   0  0  0  0  0  0  0  0  0  0  0  0
    1.7680   -1.5513   -0.9111 H   0  0  0  0  0  0  0  0  0  0  0  0
    1.4601   -3.2185   -2.2526 C   0  0  0  0  0  0  0  0  0  0  0  0
    2.4385   -3.6399   -2.0801 H   0  0  0  0  0  0  0  0  0  0  0  0
    0.5590   -3.8528   -3.1354 C   0  0  0  0  0  0  0  0  0  0  0  0
    0.9148   -4.9980   -3.7734 O   0  0  0  0  0  0  0  0  0  0  0  0
    1.8313   -5.2290   -3.6164 H   0  0  0  0  0  0  0  0  0  0  0  0
   -0.7192   -3.2985   -3.3543 C   0  0  0  0  0  0  0  0  0  0  0  0
   -1.3977   -3.7904   -4.0350 H   0  0  0  0  0  0  0  0  0  0  0  0
   -1.0943   -2.1110   -2.6978 C   0  0  0  0  0  0  0  0  0  0  0  0
   -2.0731   -1.6807   -2.8736 H   0  0  0  0  0  0  0  0  0  0  0  0
   -1.3103    0.8198    1.1418 C   0  0  0  0  0  0  0  0  0  0  0  0
   -2.1222    1.6648    0.7637 O   0  0  0  0  0  0  0  0  0  0  0  0
   -0.5545    0.9886    2.2342 N   0  0  0  0  0  0  0  0  0  0  0  0
    0.1288    0.2752    2.4434 H   0  0  0  0  0  0  0  0  0  0  0  0
   -0.5999    2.1691    3.0939 C   0  0  0  0  0  0  0  0  0  0  0  0
   -1.6326    2.3844    3.3737 H   0  0  0  0  0  0  0  0  0  0  0  0
   -0.0107    1.9996    3.9966 H   0  0  0  0  0  0  0  0  0  0  0  0
   -0.1970    3.0303    2.5568 H   0  0  0  0  0  0  0  0  0  0  0  0
  5  6  2  0  0  0  0
  5  7  1  0  0  0  0
  2  3  1  0  0  0  0
  2  4  1  0  0  0  0
  2  5  1  0  0  0  0
  1  2  1  0  0  0  0
 26 27  2  0  0  0  0
 26 28  1  0  0  0  0
 24 25  1  0  0  0  0
 22 23  1  0  0  0  0
 22 24  2  0  0  0  0
 20 21  1  0  0  0  0
 19 20  1  0  0  0  0
 19 22  1  0  0  0  0
 17 18  1  0  0  0  0
 17 19  2  0  0  0  0
 15 16  1  0  0  0  0
 15 17  1  0  0  0  0
 14 15  2  0  0  0  0
 14 24  1  0  0  0  0
 11 12  1  0  0  0  0
 11 13  1  0  0  0  0
 11 14  1  0  0  0  0
  9 10  1  0  0  0  0
  9 11  1  0  0  0  0
  9 26  1  0  0  0  0
  7  8  1  0  0  0  0
  7  9  1  0  0  0  0
 30 31  1  0  0  0  0
 30 32  1  0  0  0  0
 30 33  1  0  0  0  0
 28 29  1  0  0  0  0
 28 30  1  0  0  0  0
M  END
$$$$
default_name
  -OEChem-01062215323D

 33 33  0     1  0  0  0  0  0999 V2000
   -4.0702   -3.8485    1.4554 H   0  0  0  0  0  0  0  0  0  0  0  0
   -4.0012   -2.9605    0.8284 C   0  0  0  0  0  0  0  0  0  0  0  0
   -4.7652   -2.2435    1.1234 H   0  0  0  0  0  0  0  0  0  0  0  0
   -4.1352   -3.2385   -0.2156 H   0  0  0  0  0  0  0  0  0  0  0  0
   -2.6362   -2.3395    1.0094 C   0  0  0  0  0  0  0  0  0  0  0  0
   -1.8292   -2.8395    1.7814 O   0  0  0  0  0  0  0  0  0  0  0  0
   -2.3832   -1.2445    0.2964 N   0  0  0  0  0  0  0  0  0  0  0  0
   -3.1102   -0.8685   -0.2946 H   0  0  0  0  0  0  0  0  0  0  0  0
   -1.1292   -0.4875    0.3524 C   0  0  1  0  0  0  0  0  0  0  0  0
   -0.3837   -1.0894    0.8733 H   0  0  0  0  0  0  0  0  0  0  0  0
   -0.6263   -0.2259   -1.0778 C   0  0  0  0  0  0  0  0  0  0  0  0
   -1.4224    0.2497   -1.6520 H   0  0  0  0  0  0  0  0  0  0  0  0
    0.2096    0.4744   -1.0359 H   0  0  0  0  0  0  0  0  0  0  0  0
   -0.1958   -1.4779   -1.8174 C   0  0  0  0  0  0  0  0  0  0  0  0
    1.0802   -2.0330   -1.5937 C   0  0  0  0  0  0  0  0  0  0  0  0
    1.7680   -1.5513   -0.9111 H   0  0  0  0  0  0  0  0  0  0  0  0
    1.4601   -3.2185   -2.2526 C   0  0  0  0  0  0  0  0  0  0  0  0
    2.4385   -3.6399   -2.0801 H   0  0  0  0  0  0  0  0  0  0  0  0
    0.5590   -3.8528   -3.1354 C   0  0  0  0  0  0  0  0  0  0  0  0
    0.9148   -4.9980   -3.7734 O   0  0  0  0  0  0  0  0  0  0  0  0
    1.8313   -5.2290   -3.6164 H   0  0  0  0  0  0  0  0  0  0  0  0
   -0.7192   -3.2985   -3.3543 C   0  0  0  0  0  0  0  0  0  0  0  0
   -1.3977   -3.7904   -4.0350 H   0  0  0  0  0  0  0  0  0  0  0  0
   -1.0943   -2.1110   -2.6978 C   0  0  0  0  0  0  0  0  0  0  0  0
   -2.0731   -1.6807   -2.8736 H   0  0  0  0  0  0  0  0  0  0  0  0
   -1.3103    0.8198    1.1418 C   0  0  0  0  0  0  0  0  0  0  0  0
   -2.2925    1.5345    0.9403 O   0  0  0  0  0  0  0  0  0  0  0  0
   -0.3648    1.1344    2.0363 N   0  0  0  0  0  0  0  0  0  0  0  0
    0.4383    0.5257    2.0997 H   0  0  0  0  0  0  0  0  0  0  0  0
   -0.3821    2.3368    2.8661 C   0  0  0  0  0  0  0  0  0  0  0  0
   -1.3485    2.4290    3.3649 H   0  0  0  0  0  0  0  0  0  0  0  0
    0.4071    2.2861    3.6179 H   0  0  0  0  0  0  0  0  0  0  0  0
   -0.2272    3.2177    2.2396 H   0  0  0  0  0  0  0  0  0  0  0  0
  5  6  2  0  0  0  0
  5  7  1  0  0  0  0
  2  3  1  0  0  0  0
  2  4  1  0  0  0  0
  2  5  1  0  0  0  0
  1  2  1  0  0  0  0
 26 27  2  0  0  0  0
 26 28  1  0  0  0  0
 24 25  1  0  0  0  0
 22 23  1  0  0  0  0
 22 24  2  0  0  0  0
 20 21  1  0  0  0  0
 19 20  1  0  0  0  0
 19 22  1  0  0  0  0
 17 18  1  0  0  0  0
 17 19  2  0  0  0  0
 15 16  1  0  0  0  0
 15 17  1  0  0  0  0
 14 15  2  0  0  0  0
 14 24  1  0  0  0  0
 11 12  1  0  0  0  0
 11 13  1  0  0  0  0
 11 14  1  0  0  0  0
  9 10  1  0  0  0  0
  9 11  1  0  0  0  0
  9 26  1  0  0  0  0
  7  8  1  0  0  0  0
  7  9  1  0  0  0  0
 30 31  1  0  0  0  0
 30 32  1  0  0  0  0
 30 33  1  0  0  0  0
 28 29  1  0  0  0  0
 28 30  1  0  0  0  0
M  END
$$$$
default_name
  -OEChem-01062215323D

 33 33  0     1  0  0  0  0  0999 V2000
   -4.0702   -3.8485    1.4554 H   0  0  0  0  0  0  0  0  0  0  0  0
   -4.0012   -2.9605    0.8284 C   0  0  0  0  0  0  0  0  0  0  0  0
   -4.7652   -2.2435    1.1234 H   0  0  0  0  0  0  0  0  0  0  0  0
   -4.1352   -3.2385   -0.2156 H   0  0  0  0  0  0  0  0  0  0  0  0
   -2.6362   -2.3395    1.0094 C   0  0  0  0  0  0  0  0  0  0  0  0
   -1.8292   -2.8395    1.7814 O   0  0  0  0  0  0  0  0  0  0  0  0
   -2.3832   -1.2445    0.2964 N   0  0  0  0  0  0  0  0  0  0  0  0
   -3.1102   -0.8685   -0.2946 H   0  0  0  0  0  0  0  0  0  0  0  0
   -1.1292   -0.4875    0.3524 C   0  0  1  0  0  0  0  0  0  0  0  0
   -0.3837   -1.0894    0.8733 H   0  0  0  0  0  0  0  0  0  0  0  0
   -0.6263   -0.2259   -1.0778 C   0  0  0  0  0  0  0  0  0  0  0  0
   -1.4224    0.2497   -1.6520 H   0  0  0  0  0  0  0  0  0  0  0  0
    0.2096    0.4744   -1.0359 H   0  0  0  0  0  0  0  0  0  0  0  0
   -0.1958   -1.4779   -1.8174 C   0  0  0  0  0  0  0  0  0  0  0  0
    1.0802   -2.0330   -1.5937 C   0  0  0  0  0  0  0  0  0  0  0  0
    1.7680   -1.5513   -0.9111 H   0  0  0  0  0  0  0  0  0  0  0  0
    1.4601   -3.2185   -2.2526 C   0  0  0  0  0  0  0  0  0  0  0  0
    2.4385   -3.6399   -2.0801 H   0  0  0  0  0  0  0  0  0  0  0  0
    0.5590   -3.8528   -3.1354 C   0  0  0  0  0  0  0  0  0  0  0  0
    0.9148   -4.9980   -3.7734 O   0  0  0  0  0  0  0  0  0  0  0  0
    1.8313   -5.2290   -3.6164 H   0  0  0  0  0  0  0  0  0  0  0  0
   -0.7192   -3.2985   -3.3543 C   0  0  0  0  0  0  0  0  0  0  0  0
   -1.3977   -3.7904   -4.0350 H   0  0  0  0  0  0  0  0  0  0  0  0
   -1.0943   -2.1110   -2.6978 C   0  0  0  0  0  0  0  0  0  0  0  0
   -2.0731   -1.6807   -2.8736 H   0  0  0  0  0  0  0  0  0  0  0  0
   -1.3103    0.8198    1.1418 C   0  0  0  0  0  0  0  0  0  0  0  0
   -2.4008    1.3915    1.1523 O   0  0  0  0  0  0  0  0  0  0  0  0
   -0.2445    1.2944    1.7990 N   0  0  0  0  0  0  0  0  0  0  0  0
    0.6284    0.7982    1.6919 H   0  0  0  0  0  0  0  0  0  0  0  0
   -0.2442    2.5208    2.5930 C   0  0  0  0  0  0  0  0  0  0  0  0
   -1.0819    2.5097    3.2925 H   0  0  0  0  0  0  0  0  0  0  0  0
    0.6893    2.6068    3.1515 H   0  0  0  0  0  0  0  0  0  0  0  0
   -0.3511    3.3850    1.9341 H   0  0  0  0  0  0  0  0  0  0  0  0
  5  6  2  0  0  0  0
  5  7  1  0  0  0  0
  2  3  1  0  0  0  0
  2  4  1  0  0  0  0
  2  5  1  0  0  0  0
  1  2  1  0  0  0  0
 26 27  2  0  0  0  0
 26 28  1  0  0  0  0
 24 25  1  0  0  0  0
 22 23  1  0  0  0  0
 22 24  2  0  0  0  0
 20 21  1  0  0  0  0
 19 20  1  0  0  0  0
 19 22  1  0  0  0  0
 17 18  1  0  0  0  0
 17 19  2  0  0  0  0
 15 16  1  0  0  0  0
 15 17  1  0  0  0  0
 14 15  2  0  0  0  0
 14 24  1  0  0  0  0
 11 12  1  0  0  0  0
 11 13  1  0  0  0  0
 11 14  1  0  0  0  0
  9 10  1  0  0  0  0
  9 11  1  0  0  0  0
  9 26  1  0  0  0  0
  7  8  1  0  0  0  0
  7  9  1  0  0  0  0
 30 31  1  0  0  0  0
 30 32  1  0  0  0  0
 30 33  1  0  0  0  0
 28 29  1  0  0  0  0
 28 30  1  0  0  0  0
M  END
$$$$
default_name
  -OEChem-01062215323D

 33 33  0     1  0  0  0  0  0999 V2000
   -4.0702   -3.8485    1.4554 H   0  0  0  0  0  0  0  0  0  0  0  0
   -4.0012   -2.9605    0.8284 C   0  0  0  0  0  0  0  0  0  0  0  0
   -4.7652   -2.2435    1.1234 H   0  0  0  0  0  0  0  0  0  0  0  0
   -4.1352   -3.2385   -0.2156 H   0  0  0  0  0  0  0  0  0  0  0  0
   -2.6362   -2.3395    1.0094 C   0  0  0  0  0  0  0  0  0  0  0  0
   -1.8292   -2.8395    1.7814 O   0  0  0  0  0  0  0  0  0  0  0  0
   -2.3832   -1.2445    0.2964 N   0  0  0  0  0  0  0  0  0  0  0  0
   -3.1102   -0.8685   -0.2946 H   0  0  0  0  0  0  0  0  0  0  0  0
   -1.1292   -0.4875    0.3524 C   0  0  1  0  0  0  0  0  0  0  0  0
   -0.3837   -1.0894    0.8733 H   0  0  0  0  0  0  0  0  0  0  0  0
   -0.6263   -0.2259   -1.0778 C   0  0  0  0  0  0  0  0  0  0  0  0
   -1.4224    0.2497   -1.6520 H   0  0  0  0  0  0  0  0  0  0  0  0
    0.2096    0.4744   -1.0359 H   0  0  0  0  0  0  0  0  0  0  0  0
   -0.1958   -1.4779   -1.8174 C   0  0  0  0  0  0  0  0  0  0  0  0
    1.0802   -2.0330   -1.5937 C   0  0  0  0  0  0  0  0  0  0  0  0
    1.7680   -1.5513   -0.9111 H   0  0  0  0  0  0  0  0  0  0  0  0
    1.4601   -3.2185   -2.2526 C   0  0  0  0  0  0  0  0  0  0  0  0
    2.4385   -3.6399   -2.0801 H   0  0  0  0  0  0  0  0  0  0  0  0
    0.5590   -3.8528   -3.1354 C   0  0  0  0  0  0  0  0  0  0  0  0
    0.9148   -4.9980   -3.7734 O   0  0  0  0  0  0  0  0  0  0  0  0
    1.8313   -5.2290   -3.6164 H   0  0  0  0  0  0  0  0  0  0  0  0
   -0.7192   -3.2985   -3.3543 C   0  0  0  0  0  0  0  0  0  0  0  0
   -1.3977   -3.7904   -4.0350 H   0  0  0  0  0  0  0  0  0  0  0  0
   -1.0943   -2.1110   -2.6978 C   0  0  0  0  0  0  0  0  0  0  0  0
   -2.0731   -1.6807   -2.8736 H   0  0  0  0  0  0  0  0  0  0  0  0
   -1.3103    0.8198    1.1418 C   0  0  0  0  0  0  0  0  0  0  0  0
   -2.4397    1.2454    1.3853 O   0  0  0  0  0  0  0  0  0  0  0  0
   -0.2017    1.4576    1.5384 N   0  0  0  0  0  0  0  0  0  0  0  0
    0.6861    1.0743    1.2479 H   0  0  0  0  0  0  0  0  0  0  0  0
   -0.1955    2.7085    2.2933 C   0  0  0  0  0  0  0  0  0  0  0  0
   -0.8511    2.6208    3.1614 H   0  0  0  0  0  0  0  0  0  0  0  0
    0.8166    2.9399    2.6291 H   0  0  0  0  0  0  0  0  0  0  0  0
   -0.5602    3.5208    1.6612 H   0  0  0  0  0  0  0  0  0  0  0  0
  5  6  2  0  0  0  0
  5  7  1  0  0  0  0
  2  3  1  0  0  0  0
  2  4  1  0  0  0  0
  2  5  1  0  0  0  0
  1  2  1  0  0  0  0
 26 27  2  0  0  0  0
 26 28  1  0  0  0  0
 24 25  1  0  0  0  0
 22 23  1  0  0  0  0
 22 24  2  0  0  0  0
 20 21  1  0  0  0  0
 19 20  1  0  0  0  0
 19 22  1  0  0  0  0
 17 18  1  0  0  0  0
 17 19  2  0  0  0  0
 15 16  1  0  0  0  0
 15 17  1  0  0  0  0
 14 15  2  0  0  0  0
 14 24  1  0  0  0  0
 11 12  1  0  0  0  0
 11 13  1  0  0  0  0
 11 14  1  0  0  0  0
  9 10  1  0  0  0  0
  9 11  1  0  0  0  0
  9 26  1  0  0  0  0
  7  8  1  0  0  0  0
  7  9  1  0  0  0  0
 30 31  1  0  0  0  0
 30 32  1  0  0  0  0
 30 33  1  0  0  0  0
 28 29  1  0  0  0  0
 28 30  1  0  0  0  0
M  END
$$$$
default_name
  -OEChem-01062215323D

 33 33  0     1  0  0  0  0  0999 V2000
   -4.0702   -3.8485    1.4554 H   0  0  0  0  0  0  0  0  0  0  0  0
   -4.0012   -2.9605    0.8284 C   0  0  0  0  0  0  0  0  0  0  0  0
   -4.7652   -2.2435    1.1234 H   0  0  0  0  0  0  0  0  0  0  0  0
   -4.1352   -3.2385   -0.2156 H   0  0  0  0  0  0  0  0  0  0  0  0
   -2.6362   -2.3395    1.0094 C   0  0  0  0  0  0  0  0  0  0  0  0
   -1.8292   -2.8395    1.7814 O   0  0  0  0  0  0  0  0  0  0  0  0
   -2.3832   -1.2445    0.2964 N   0  0  0  0  0  0  0  0  0  0  0  0
   -3.1102   -0.8685   -0.2946 H   0  0  0  0  0  0  0  0  0  0  0  0
   -1.1292   -0.4875    0.3524 C   0  0  1  0  0  0  0  0  0  0  0  0
   -0.3234   -1.1708    0.6230 H   0  0  0  0  0  0  0  0  0  0  0  0
   -0.8223    0.0958   -1.0377 C   0  0  0  0  0  0  0  0  0  0  0  0
   -1.6861    0.6664   -1.3813 H   0  0  0  0  0  0  0  0  0  0  0  0
    0.0152    0.7902   -0.9525 H   0  0  0  0  0  0  0  0  0  0  0  0
   -0.5018   -0.9509   -2.0873 C   0  0  0  0  0  0  0  0  0  0  0  0
    0.7897   -1.5097   -2.1636 C   0  0  0  0  0  0  0  0  0  0  0  0
    1.5657   -1.1735   -1.4884 H   0  0  0  0  0  0  0  0  0  0  0  0
    1.0712   -2.5107   -3.1137 C   0  0  0  0  0  0  0  0  0  0  0  0
    2.0618   -2.9352   -3.1703 H   0  0  0  0  0  0  0  0  0  0  0  0
    0.0561   -2.9567   -3.9879 C   0  0  0  0  0  0  0  0  0  0  0  0
    0.3167   -3.9236   -4.9056 O   0  0  0  0  0  0  0  0  0  0  0  0
    1.2448   -4.1606   -4.9268 H   0  0  0  0  0  0  0  0  0  0  0  0
   -1.2370   -2.3998   -3.9068 C   0  0  0  0  0  0  0  0  0  0  0  0
   -2.0036   -2.7461   -4.5837 H   0  0  0  0  0  0  0  0  0  0  0  0
   -1.5141   -1.3963   -2.9592 C   0  0  0  0  0  0  0  0  0  0  0  0
   -2.5054   -0.9624   -2.9037 H   0  0  0  0  0  0  0  0  0  0  0  0
   -1.1955    0.6084    1.4292 C   0  0  0  0  0  0  0  0  0  0  0  0
   -2.2155    0.7540    2.1034 O   0  0  0  0  0  0  0  0  0  0  0  0
   -0.1127    1.3797    1.5896 N   0  0  0  0  0  0  0  0  0  0  0  0
    0.6610    1.2346    0.9573 H   0  0  0  0  0  0  0  0  0  0  0  0
   -0.0097    2.4642    2.5633 C   0  0  0  0  0  0  0  0  0  0  0  0
   -0.3050    2.1050    3.5507 H   0  0  0  0  0  0  0  0  0  0  0  0
    1.0160    2.8338    2.6071 H   0  0  0  0  0  0  0  0  0  0  0  0
   -0.6752    3.2807    2.2755 H   0  0  0  0  0  0  0  0  0  0  0  0
  5  6  2  0  0  0  0
  5  7  1  0  0  0  0
  2  3  1  0  0  0  0
  2  4  1  0  0  0  0
  2  5  1  0  0  0  0
  1  2  1  0  0  0  0
 26 27  2  0  0  0  0
 26 28  1  0  0  0  0
 24 25  1  0  0  0  0
 22 23  1  0  0  0  0
 22 24  2  0  0  0  0
 20 21  1  0  0  0  0
 19 20  1  0  0  0  0
 19 22  1  0  0  0  0
 17 18  1  0  0  0  0
 17 19  2  0  0  0  0
 15 16  1  0  0  0  0
 15 17  1  0  0  0  0
 14 15  2  0  0  0  0
 14 24  1  0  0  0  0
 11 12  1  0  0  0  0
 11 13  1  0  0  0  0
 11 14  1  0  0  0  0
  9 10  1  0  0  0  0
  9 11  1  0  0  0  0
  9 26  1  0  0  0  0
  7  8  1  0  0  0  0
  7  9  1  0  0  0  0
 30 31  1  0  0  0  0
 30 32  1  0  0  0  0
 30 33  1  0  0  0  0
 28 29  1  0  0  0  0
 28 30  1  0  0  0  0
M  END
$$$$
default_name
  -OEChem-01062215323D

 33 33  0     1  0  0  0  0  0999 V2000
   -4.0702   -3.8485    1.4554 H   0  0  0  0  0  0  0  0  0  0  0  0
   -4.0012   -2.9605    0.8284 C   0  0  0  0  0  0  0  0  0  0  0  0
   -4.7652   -2.2435    1.1234 H   0  0  0  0  0  0  0  0  0  0  0  0
   -4.1352   -3.2385   -0.2156 H   0  0  0  0  0  0  0  0  0  0  0  0
   -2.6362   -2.3395    1.0094 C   0  0  0  0  0  0  0  0  0  0  0  0
   -1.8292   -2.8395    1.7814 O   0  0  0  0  0  0  0  0  0  0  0  0
   -2.3832   -1.2445    0.2964 N   0  0  0  0  0  0  0  0  0  0  0  0
   -3.1102   -0.8685   -0.2946 H   0  0  0  0  0  0  0  0  0  0  0  0
   -1.1292   -0.4875    0.3524 C   0  0  1  0  0  0  0  0  0  0  0  0
   -0.3234   -1.1708    0.6230 H   0  0  0  0  0  0  0  0  0  0  0  0
   -0.8223    0.0958   -1.0377 C   0  0  0  0  0  0  0  0  0  0  0  0
   -1.6861    0.6664   -1.3813 H   0  0  0  0  0  0  0  0  0  0  0  0
    0.0152    0.7902   -0.9525 H   0  0  0  0  0  0  0  0  0  0  0  0
   -0.5018   -0.9509   -2.0873 C   0  0  0  0  0  0  0  0  0  0  0  0
    0.7897   -1.5097   -2.1636 C   0  0  0  0  0  0  0  0  0  0  0  0
    1.5657   -1.1735   -1.4884 H   0  0  0  0  0  0  0  0  0  0  0  0
    1.0712   -2.5107   -3.1137 C   0  0  0  0  0  0  0  0  0  0  0  0
    2.0618   -2.9352   -3.1703 H   0  0  0  0  0  0  0  0  0  0  0  0
    0.0561   -2.9567   -3.9879 C   0  0  0  0  0  0  0  0  0  0  0  0
    0.3167   -3.9236   -4.9056 O   0  0  0  0  0  0  0  0  0  0  0  0
    1.2448   -4.1606   -4.9268 H   0  0  0  0  0  0  0  0  0  0  0  0
   -1.2370   -2.3998   -3.9068 C   0  0  0  0  0  0  0  0  0  0  0  0
   -2.0036   -2.7461   -4.5837 H   0  0  0  0  0  0  0  0  0  0  0  0
   -1.5141   -1.3963   -2.9592 C   0  0  0  0  0  0  0  0  0  0  0  0
   -2.5054   -0.9624   -2.9037 H   0  0  0  0  0  0  0  0  0  0  0  0
   -1.1955    0.6084    1.4292 C   0  0  0  0  0  0  0  0  0  0  0  0
   -2.0837    0.5867    2.2817 O   0  0  0  0  0  0  0  0  0  0  0  0
   -0.2608    1.5664    1.3905 N   0  0  0  0  0  0  0  0  0  0  0  0
    0.3972    1.5453    0.6249 H   0  0  0  0  0  0  0  0  0  0  0  0
   -0.1804    2.6786    2.3346 C   0  0  0  0  0  0  0  0  0  0  0  0
   -0.2190    2.3000    3.3574 H   0  0  0  0  0  0  0  0  0  0  0  0
    0.7512    3.2281    2.1896 H   0  0  0  0  0  0  0  0  0  0  0  0
   -1.0248    3.3534    2.1799 H   0  0  0  0  0  0  0  0  0  0  0  0
  5  6  2  0  0  0  0
  5  7  1  0  0  0  0
  2  3  1  0  0  0  0
  2  4  1  0  0  0  0
  2  5  1  0  0  0  0
  1  2  1  0  0  0  0
 26 27  2  0  0  0  0
 26 28  1  0  0  0  0
 24 25  1  0  0  0  0
 22 23  1  0  0  0  0
 22 24  2  0  0  0  0
 20 21  1  0  0  0  0
 19 20  1  0  0  0  0
 19 22  1  0  0  0  0
 17 18  1  0  0  0  0
 17 19  2  0  0  0  0
 15 16  1  0  0  0  0
 15 17  1  0  0  0  0
 14 15  2  0  0  0  0
 14 24  1  0  0  0  0
 11 12  1  0  0  0  0
 11 13  1  0  0  0  0
 11 14  1  0  0  0  0
  9 10  1  0  0  0  0
  9 11  1  0  0  0  0
  9 26  1  0  0  0  0
  7  8  1  0  0  0  0
  7  9  1  0  0  0  0
 30 31  1  0  0  0  0
 30 32  1  0  0  0  0
 30 33  1  0  0  0  0
 28 29  1  0  0  0  0
 28 30  1  0  0  0  0
M  END
$$$$
default_name
  -OEChem-01062215323D

 33 33  0     1  0  0  0  0  0999 V2000
   -4.0702   -3.8485    1.4554 H   0  0  0  0  0  0  0  0  0  0  0  0
   -4.0012   -2.9605    0.8284 C   0  0  0  0  0  0  0  0  0  0  0  0
   -4.7652   -2.2435    1.1234 H   0  0  0  0  0  0  0  0  0  0  0  0
   -4.1352   -3.2385   -0.2156 H   0  0  0  0  0  0  0  0  0  0  0  0
   -2.6362   -2.3395    1.0094 C   0  0  0  0  0  0  0  0  0  0  0  0
   -1.8292   -2.8395    1.7814 O   0  0  0  0  0  0  0  0  0  0  0  0
   -2.3832   -1.2445    0.2964 N   0  0  0  0  0  0  0  0  0  0  0  0
   -3.1102   -0.8685   -0.2946 H   0  0  0  0  0  0  0  0  0  0  0  0
   -1.1292   -0.4875    0.3524 C   0  0  1  0  0  0  0  0  0  0  0  0
   -0.3234   -1.1708    0.6230 H   0  0  0  0  0  0  0  0  0  0  0  0
   -0.8223    0.0958   -1.0377 C   0  0  0  0  0  0  0  0  0  0  0  0
   -1.6861    0.6664   -1.3813 H   0  0  0  0  0  0  0  0  0  0  0  0
    0.0152    0.7902   -0.9525 H   0  0  0  0  0  0  0  0  0  0  0  0
   -0.5018   -0.9509   -2.0873 C   0  0  0  0  0  0  0  0  0  0  0  0
    0.7897   -1.5097   -2.1636 C   0  0  0  0  0  0  0  0  0  0  0  0
    1.5657   -1.1735   -1.4884 H   0  0  0  0  0  0  0  0  0  0  0  0
    1.0712   -2.5107   -3.1137 C   0  0  0  0  0  0  0  0  0  0  0  0
    2.0618   -2.9352   -3.1703 H   0  0  0  0  0  0  0  0  0  0  0  0
    0.0561   -2.9567   -3.9879 C   0  0  0  0  0  0  0  0  0  0  0  0
    0.3167   -3.9236   -4.9056 O   0  0  0  0  0  0  0  0  0  0  0  0
    1.2448   -4.1606   -4.9268 H   0  0  0  0  0  0  0  0  0  0  0  0
   -1.2370   -2.3998   -3.9068 C   0  0  0  0  0  0  0  0  0  0  0  0
   -2.0036   -2.7461   -4.5837 H   0  0  0  0  0  0  0  0  0  0  0  0
   -1.5141   -1.3963   -2.9592 C   0  0  0  0  0  0  0  0  0  0  0  0
   -2.5054   -0.9624   -2.9037 H   0  0  0  0  0  0  0  0  0  0  0  0
   -1.1955    0.6084    1.4292 C   0  0  0  0  0  0  0  0  0  0  0  0
   -1.8932    0.4510    2.4315 O   0  0  0  0  0  0  0  0  0  0  0  0
   -0.4743    1.7177    1.2234 N   0  0  0  0  0  0  0  0  0  0  0  0
    0.0247    1.7940    0.3490 H   0  0  0  0  0  0  0  0  0  0  0  0
   -0.4262    2.8523    2.1427 C   0  0  0  0  0  0  0  0  0  0  0  0
   -0.2069    2.5019    3.1528 H   0  0  0  0  0  0  0  0  0  0  0  0
    0.3469    3.5564    1.8307 H   0  0  0  0  0  0  0  0  0  0  0  0
   -1.3933    3.3593    2.1513 H   0  0  0  0  0  0  0  0  0  0  0  0
  5  6  2  0  0  0  0
  5  7  1  0  0  0  0
  2  3  1  0  0  0  0
  2  4  1  0  0  0  0
  2  5  1  0  0  0  0
  1  2  1  0  0  0  0
 26 27  2  0  0  0  0
 26 28  1  0  0  0  0
 24 25  1  0  0  0  0
 22 23  1  0  0  0  0
 22 24  2  0  0  0  0
 20 21  1  0  0  0  0
 19 20  1  0  0  0  0
 19 22  1  0  0  0  0
 17 18  1  0  0  0  0
 17 19  2  0  0  0  0
 15 16  1  0  0  0  0
 15 17  1  0  0  0  0
 14 15  2  0  0  0  0
 14 24  1  0  0  0  0
 11 12  1  0  0  0  0
 11 13  1  0  0  0  0
 11 14  1  0  0  0  0
  9 10  1  0  0  0  0
  9 11  1  0  0  0  0
  9 26  1  0  0  0  0
  7  8  1  0  0  0  0
  7  9  1  0  0  0  0
 30 31  1  0  0  0  0
 30 32  1  0  0  0  0
 30 33  1  0  0  0  0
 28 29  1  0  0  0  0
 28 30  1  0  0  0  0
M  END
$$$$
default_name
  -OEChem-01062215323D

 33 33  0     1  0  0  0  0  0999 V2000
   -4.0702   -3.8485    1.4554 H   0  0  0  0  0  0  0  0  0  0  0  0
   -4.0012   -2.9605    0.8284 C   0  0  0  0  0  0  0  0  0  0  0  0
   -4.7652   -2.2435    1.1234 H   0  0  0  0  0  0  0  0  0  0  0  0
   -4.1352   -3.2385   -0.2156 H   0  0  0  0  0  0  0  0  0  0  0  0
   -2.6362   -2.3395    1.0094 C   0  0  0  0  0  0  0  0  0  0  0  0
   -1.8292   -2.8395    1.7814 O   0  0  0  0  0  0  0  0  0  0  0  0
   -2.3832   -1.2445    0.2964 N   0  0  0  0  0  0  0  0  0  0  0  0
   -3.1102   -0.8685   -0.2946 H   0  0  0  0  0  0  0  0  0  0  0  0
   -1.1292   -0.4875    0.3524 C   0  0  1  0  0  0  0  0  0  0  0  0
   -0.3234   -1.1708    0.6230 H   0  0  0  0  0  0  0  0  0  0  0  0
   -0.8223    0.0958   -1.0377 C   0  0  0  0  0  0  0  0  0  0  0  0
   -1.6861    0.6664   -1.3813 H   0  0  0  0  0  0  0  0  0  0  0  0
    0.0152    0.7902   -0.9525 H   0  0  0  0  0  0  0  0  0  0  0  0
   -0.5018   -0.9509   -2.0873 C   0  0  0  0  0  0  0  0  0  0  0  0
    0.7897   -1.5097   -2.1636 C   0  0  0  0  0  0  0  0  0  0  0  0
    1.5657   -1.1735   -1.4884 H   0  0  0  0  0  0  0  0  0  0  0  0
    1.0712   -2.5107   -3.1137 C   0  0  0  0  0  0  0  0  0  0  0  0
    2.0618   -2.9352   -3.1703 H   0  0  0  0  0  0  0  0  0  0  0  0
    0.0561   -2.9567   -3.9879 C   0  0  0  0  0  0  0  0  0  0  0  0
    0.3167   -3.9236   -4.9056 O   0  0  0  0  0  0  0  0  0  0  0  0
    1.2448   -4.1606   -4.9268 H   0  0  0  0  0  0  0  0  0  0  0  0
   -1.2370   -2.3998   -3.9068 C   0  0  0  0  0  0  0  0  0  0  0  0
   -2.0036   -2.7461   -4.5837 H   0  0  0  0  0  0  0  0  0  0  0  0
   -1.5141   -1.3963   -2.9592 C   0  0  0  0  0  0  0  0  0  0  0  0
   -2.5054   -0.9624   -2.9037 H   0  0  0  0  0  0  0  0  0  0  0  0
   -1.1955    0.6084    1.4292 C   0  0  0  0  0  0  0  0  0  0  0  0
   -1.6569    0.3561    2.5426 O   0  0  0  0  0  0  0  0  0  0  0  0
   -0.7388    1.8232    1.0997 N   0  0  0  0  0  0  0  0  0  0  0  0
   -0.4310    1.9635    0.1484 H   0  0  0  0  0  0  0  0  0  0  0  0
   -0.7306    2.9734    2.0008 C   0  0  0  0  0  0  0  0  0  0  0  0
   -0.2696    2.6968    2.9506 H   0  0  0  0  0  0  0  0  0  0  0  0
   -0.1693    3.7961    1.5549 H   0  0  0  0  0  0  0  0  0  0  0  0
   -1.7556    3.2978    2.1916 H   0  0  0  0  0  0  0  0  0  0  0  0
  5  6  2  0  0  0  0
  5  7  1  0  0  0  0
  2  3  1  0  0  0  0
  2  4  1  0  0  0  0
  2  5  1  0  0  0  0
  1  2  1  0  0  0  0
 26 27  2  0  0  0  0
 26 28  1  0  0  0  0
 24 25  1  0  0  0  0
 22 23  1  0  0  0  0
 22 24  2  0  0  0  0
 20 21  1  0  0  0  0
 19 20  1  0  0  0  0
 19 22  1  0  0  0  0
 17 18  1  0  0  0  0
 17 19  2  0  0  0  0
 15 16  1  0  0  0  0
 15 17  1  0  0  0  0
 14 15  2  0  0  0  0
 14 24  1  0  0  0  0
 11 12  1  0  0  0  0
 11 13  1  0  0  0  0
 11 14  1  0  0  0  0
  9 10  1  0  0  0  0
  9 11  1  0  0  0  0
  9 26  1  0  0  0  0
  7  8  1  0  0  0  0
  7  9  1  0  0  0  0
 30 31  1  0  0  0  0
 30 32  1  0  0  0  0
 30 33  1  0  0  0  0
 28 29  1  0  0  0  0
 28 30  1  0  0  0  0
M  END
$$$$
default_name
  -OEChem-01062215323D

 33 33  0     1  0  0  0  0  0999 V2000
   -4.0702   -3.8485    1.4554 H   0  0  0  0  0  0  0  0  0  0  0  0
   -4.0012   -2.9605    0.8284 C   0  0  0  0  0  0  0  0  0  0  0  0
   -4.7652   -2.2435    1.1234 H   0  0  0  0  0  0  0  0  0  0  0  0
   -4.1352   -3.2385   -0.2156 H   0  0  0  0  0  0  0  0  0  0  0  0
   -2.6362   -2.3395    1.0094 C   0  0  0  0  0  0  0  0  0  0  0  0
   -1.8292   -2.8395    1.7814 O   0  0  0  0  0  0  0  0  0  0  0  0
   -2.3832   -1.2445    0.2964 N   0  0  0  0  0  0  0  0  0  0  0  0
   -3.1102   -0.8685   -0.2946 H   0  0  0  0  0  0  0  0  0  0  0  0
   -1.1292   -0.4875    0.3524 C   0  0  1  0  0  0  0  0  0  0  0  0
   -0.3234   -1.1708    0.6230 H   0  0  0  0  0  0  0  0  0  0  0  0
   -0.8223    0.0958   -1.0377 C   0  0  0  0  0  0  0  0  0  0  0  0
   -1.6861    0.6664   -1.3813 H   0  0  0  0  0  0  0  0  0  0  0  0
    0.0152    0.7902   -0.9525 H   0  0  0  0  0  0  0  0  0  0  0  0
   -0.5018   -0.9509   -2.0873 C   0  0  0  0  0  0  0  0  0  0  0  0
    0.7897   -1.5097   -2.1636 C   0  0  0  0  0  0  0  0  0  0  0  0
    1.5657   -1.1735   -1.4884 H   0  0  0  0  0  0  0  0  0  0  0  0
    1.0712   -2.5107   -3.1137 C   0  0  0  0  0  0  0  0  0  0  0  0
    2.0618   -2.9352   -3.1703 H   0  0  0  0  0  0  0  0  0  0  0  0
    0.0561   -2.9567   -3.9879 C   0  0  0  0  0  0  0  0  0  0  0  0
    0.3167   -3.9236   -4.9056 O   0  0  0  0  0  0  0  0  0  0  0  0
    1.2448   -4.1606   -4.9268 H   0  0  0  0  0  0  0  0  0  0  0  0
   -1.2370   -2.3998   -3.9068 C   0  0  0  0  0  0  0  0  0  0  0  0
   -2.0036   -2.7461   -4.5837 H   0  0  0  0  0  0  0  0  0  0  0  0
   -1.5141   -1.3963   -2.9592 C   0  0  0  0  0  0  0  0  0  0  0  0
   -2.5054   -0.9624   -2.9037 H   0  0  0  0  0  0  0  0  0  0  0  0
   -1.1955    0.6084    1.4292 C   0  0  0  0  0  0  0  0  0  0  0  0
   -1.3911    0.3086    2.6074 O   0  0  0  0  0  0  0  0  0  0  0  0
   -1.0362    1.8759    1.0279 N   0  0  0  0  0  0  0  0  0  0  0  0
   -0.9390    2.0425    0.0368 H   0  0  0  0  0  0  0  0  0  0  0  0
   -1.0727    3.0336    1.9185 C   0  0  0  0  0  0  0  0  0  0  0  0
   -0.4028    2.8714    2.7647 H   0  0  0  0  0  0  0  0  0  0  0  0
   -0.7623    3.9311    1.3811 H   0  0  0  0  0  0  0  0  0  0  0  0
   -2.0870    3.1732    2.2980 H   0  0  0  0  0  0  0  0  0  0  0  0
  5  6  2  0  0  0  0
  5  7  1  0  0  0  0
  2  3  1  0  0  0  0
  2  4  1  0  0  0  0
  2  5  1  0  0  0  0
  1  2  1  0  0  0  0
 26 27  2  0  0  0  0
 26 28  1  0  0  0  0
 24 25  1  0  0  0  0
 22 23  1  0  0  0  0
 22 24  2  0  0  0  0
 20 21  1  0  0  0  0
 19 20  1  0  0  0  0
 19 22  1  0  0  0  0
 17 18  1  0  0  0  0
 17 19  2  0  0  0  0
 15 16  1  0  0  0  0
 15 17  1  0  0  0  0
 14 15  2  0  0  0  0
 14 24  1  0  0  0  0
 11 12  1  0  0  0  0
 11 13  1  0  0  0  0
 11 14  1  0  0  0  0
  9 10  1  0  0  0  0
  9 11  1  0  0  0  0
  9 26  1  0  0  0  0
  7  8  1  0  0  0  0
  7  9  1  0  0  0  0
 30 31  1  0  0  0  0
 30 32  1  0  0  0  0
 30 33  1  0  0  0  0
 28 29  1  0  0  0  0
 28 30  1  0  0  0  0
M  END
$$$$
default_name
  -OEChem-01062215323D

 33 33  0     1  0  0  0  0  0999 V2000
   -4.0702   -3.8485    1.4554 H   0  0  0  0  0  0  0  0  0  0  0  0
   -4.0012   -2.9605    0.8284 C   0  0  0  0  0  0  0  0  0  0  0  0
   -4.7652   -2.2435    1.1234 H   0  0  0  0  0  0  0  0  0  0  0  0
   -4.1352   -3.2385   -0.2156 H   0  0  0  0  0  0  0  0  0  0  0  0
   -2.6362   -2.3395    1.0094 C   0  0  0  0  0  0  0  0  0  0  0  0
   -1.8292   -2.8395    1.7814 O   0  0  0  0  0  0  0  0  0  0  0  0
   -2.3832   -1.2445    0.2964 N   0  0  0  0  0  0  0  0  0  0  0  0
   -3.1102   -0.8685   -0.2946 H   0  0  0  0  0  0  0  0  0  0  0  0
   -1.1292   -0.4875    0.3524 C   0  0  1  0  0  0  0  0  0  0  0  0
   -0.3234   -1.1708    0.6230 H   0  0  0  0  0  0  0  0  0  0  0  0
   -0.8223    0.0958   -1.0377 C   0  0  0  0  0  0  0  0  0  0  0  0
   -1.6861    0.6664   -1.3813 H   0  0  0  0  0  0  0  0  0  0  0  0
    0.0152    0.7902   -0.9525 H   0  0  0  0  0  0  0  0  0  0  0  0
   -0.5018   -0.9509   -2.0873 C   0  0  0  0  0  0  0  0  0  0  0  0
    0.7897   -1.5097   -2.1636 C   0  0  0  0  0  0  0  0  0  0  0  0
    1.5657   -1.1735   -1.4884 H   0  0  0  0  0  0  0  0  0  0  0  0
    1.0712   -2.5107   -3.1137 C   0  0  0  0  0  0  0  0  0  0  0  0
    2.0618   -2.9352   -3.1703 H   0  0  0  0  0  0  0  0  0  0  0  0
    0.0561   -2.9567   -3.9879 C   0  0  0  0  0  0  0  0  0  0  0  0
    0.3167   -3.9236   -4.9056 O   0  0  0  0  0  0  0  0  0  0  0  0
    1.2448   -4.1606   -4.9268 H   0  0  0  0  0  0  0  0  0  0  0  0
   -1.2370   -2.3998   -3.9068 C   0  0  0  0  0  0  0  0  0  0  0  0
   -2.0036   -2.7461   -4.5837 H   0  0  0  0  0  0  0  0  0  0  0  0
   -1.5141   -1.3963   -2.9592 C   0  0  0  0  0  0  0  0  0  0  0  0
   -2.5054   -0.9624   -2.9037 H   0  0  0  0  0  0  0  0  0  0  0  0
   -1.1955    0.6084    1.4292 C   0  0  0  0  0  0  0  0  0  0  0  0
   -1.1137    0.3115    2.6214 O   0  0  0  0  0  0  0  0  0  0  0  0
   -1.3463    1.8720    1.0127 N   0  0  0  0  0  0  0  0  0  0  0  0
   -1.4645    2.0255    0.0218 H   0  0  0  0  0  0  0  0  0  0  0  0
   -1.4292    3.0288    1.9014 C   0  0  0  0  0  0  0  0  0  0  0  0
   -0.5973    3.0139    2.6077 H   0  0  0  0  0  0  0  0  0  0  0  0
   -1.3915    3.9521    1.3211 H   0  0  0  0  0  0  0  0  0  0  0  0
   -2.3649    2.9940    2.4633 H   0  0  0  0  0  0  0  0  0  0  0  0
  5  6  2  0  0  0  0
  5  7  1  0  0  0  0
  2  3  1  0  0  0  0
  2  4  1  0  0  0  0
  2  5  1  0  0  0  0
  1  2  1  0  0  0  0
 26 27  2  0  0  0  0
 26 28  1  0  0  0  0
 24 25  1  0  0  0  0
 22 23  1  0  0  0  0
 22 24  2  0  0  0  0
 20 21  1  0  0  0  0
 19 20  1  0  0  0  0
 19 22  1  0  0  0  0
 17 18  1  0  0  0  0
 17 19  2  0  0  0  0
 15 16  1  0  0  0  0
 15 17  1  0  0  0  0
 14 15  2  0  0  0  0
 14 24  1  0  0  0  0
 11 12  1  0  0  0  0
 11 13  1  0  0  0  0
 11 14  1  0  0  0  0
  9 10  1  0  0  0  0
  9 11  1  0  0  0  0
  9 26  1  0  0  0  0
  7  8  1  0  0  0  0
  7  9  1  0  0  0  0
 30 31  1  0  0  0  0
 30 32  1  0  0  0  0
 30 33  1  0  0  0  0
 28 29  1  0  0  0  0
 28 30  1  0  0  0  0
M  END
$$$$
default_name
  -OEChem-01062215323D

 33 33  0     1  0  0  0  0  0999 V2000
   -4.0702   -3.8485    1.4554 H   0  0  0  0  0  0  0  0  0  0  0  0
   -4.0012   -2.9605    0.8284 C   0  0  0  0  0  0  0  0  0  0  0  0
   -4.7652   -2.2435    1.1234 H   0  0  0  0  0  0  0  0  0  0  0  0
   -4.1352   -3.2385   -0.2156 H   0  0  0  0  0  0  0  0  0  0  0  0
   -2.6362   -2.3395    1.0094 C   0  0  0  0  0  0  0  0  0  0  0  0
   -1.8292   -2.8395    1.7814 O   0  0  0  0  0  0  0  0  0  0  0  0
   -2.3832   -1.2445    0.2964 N   0  0  0  0  0  0  0  0  0  0  0  0
   -3.1102   -0.8685   -0.2946 H   0  0  0  0  0  0  0  0  0  0  0  0
   -1.1292   -0.4875    0.3524 C   0  0  1  0  0  0  0  0  0  0  0  0
   -0.3234   -1.1708    0.6230 H   0  0  0  0  0  0  0  0  0  0  0  0
   -0.8223    0.0958   -1.0377 C   0  0  0  0  0  0  0  0  0  0  0  0
   -1.6861    0.6664   -1.3813 H   0  0  0  0  0  0  0  0  0  0  0  0
    0.0152    0.7902   -0.9525 H   0  0  0  0  0  0  0  0  0  0  0  0
   -0.5018   -0.9509   -2.0873 C   0  0  0  0  0  0  0  0  0  0  0  0
    0.7897   -1.5097   -2.1636 C   0  0  0  0  0  0  0  0  0  0  0  0
    1.5657   -1.1735   -1.4884 H   0  0  0  0  0  0  0  0  0  0  0  0
    1.0712   -2.5107   -3.1137 C   0  0  0  0  0  0  0  0  0  0  0  0
    2.0618   -2.9352   -3.1703 H   0  0  0  0  0  0  0  0  0  0  0  0
    0.0561   -2.9567   -3.9879 C   0  0  0  0  0  0  0  0  0  0  0  0
    0.3167   -3.9236   -4.9056 O   0  0  0  0  0  0  0  0  0  0  0  0
    1.2448   -4.1606   -4.9268 H   0  0  0  0  0  0  0  0  0  0  0  0
   -1.2370   -2.3998   -3.9068 C   0  0  0  0  0  0  0  0  0  0  0  0
   -2.0036   -2.7461   -4.5837 H   0  0  0  0  0  0  0  0  0  0  0  0
   -1.5141   -1.3963   -2.9592 C   0  0  0  0  0  0  0  0  0  0  0  0
   -2.5054   -0.9624   -2.9037 H   0  0  0  0  0  0  0  0  0  0  0  0
   -1.1955    0.6084    1.4292 C   0  0  0  0  0  0  0  0  0  0  0  0
   -0.8437    0.3648    2.5838 O   0  0  0  0  0  0  0  0  0  0  0  0
   -1.6479    1.8119    1.0553 N   0  0  0  0  0  0  0  0  0  0  0  0
   -1.9718    1.9136    0.1044 H   0  0  0  0  0  0  0  0  0  0  0  0
   -1.7759    2.9594    1.9507 C   0  0  0  0  0  0  0  0  0  0  0  0
   -0.8400    3.1145    2.4904 H   0  0  0  0  0  0  0  0  0  0  0  0
   -2.0142    3.8576    1.3789 H   0  0  0  0  0  0  0  0  0  0  0  0
   -2.5703    2.7724    2.6761 H   0  0  0  0  0  0  0  0  0  0  0  0
  5  6  2  0  0  0  0
  5  7  1  0  0  0  0
  2  3  1  0  0  0  0
  2  4  1  0  0  0  0
  2  5  1  0  0  0  0
  1  2  1  0  0  0  0
 26 27  2  0  0  0  0
 26 28  1  0  0  0  0
 24 25  1  0  0  0  0
 22 23  1  0  0  0  0
 22 24  2  0  0  0  0
 20 21  1  0  0  0  0
 19 20  1  0  0  0  0
 19 22  1  0  0  0  0
 17 18  1  0  0  0  0
 17 19  2  0  0  0  0
 15 16  1  0  0  0  0
 15 17  1  0  0  0  0
 14 15  2  0  0  0  0
 14 24  1  0  0  0  0
 11 12  1  0  0  0  0
 11 13  1  0  0  0  0
 11 14  1  0  0  0  0
  9 10  1  0  0  0  0
  9 11  1  0  0  0  0
  9 26  1  0  0  0  0
  7  8  1  0  0  0  0
  7  9  1  0  0  0  0
 30 31  1  0  0  0  0
 30 32  1  0  0  0  0
 30 33  1  0  0  0  0
 28 29  1  0  0  0  0
 28 30  1  0  0  0  0
M  END
$$$$
default_name
  -OEChem-01062215323D

 33 33  0     1  0  0  0  0  0999 V2000
   -4.0702   -3.8485    1.4554 H   0  0  0  0  0  0  0  0  0  0  0  0
   -4.0012   -2.9605    0.8284 C   0  0  0  0  0  0  0  0  0  0  0  0
   -4.7652   -2.2435    1.1234 H   0  0  0  0  0  0  0  0  0  0  0  0
   -4.1352   -3.2385   -0.2156 H   0  0  0  0  0  0  0  0  0  0  0  0
   -2.6362   -2.3395    1.0094 C   0  0  0  0  0  0  0  0  0  0  0  0
   -1.8292   -2.8395    1.7814 O   0  0  0  0  0  0  0  0  0  0  0  0
   -2.3832   -1.2445    0.2964 N   0  0  0  0  0  0  0  0  0  0  0  0
   -3.1102   -0.8685   -0.2946 H   0  0  0  0  0  0  0  0  0  0  0  0
   -1.1292   -0.4875    0.3524 C   0  0  1  0  0  0  0  0  0  0  0  0
   -0.3234   -1.1708    0.6230 H   0  0  0  0  0  0  0  0  0  0  0  0
   -0.8223    0.0958   -1.0377 C   0  0  0  0  0  0  0  0  0  0  0  0
   -1.6861    0.6664   -1.3813 H   0  0  0  0  0  0  0  0  0  0  0  0
    0.0152    0.7902   -0.9525 H   0  0  0  0  0  0  0  0  0  0  0  0
   -0.5018   -0.9509   -2.0873 C   0  0  0  0  0  0  0  0  0  0  0  0
    0.7897   -1.5097   -2.1636 C   0  0  0  0  0  0  0  0  0  0  0  0
    1.5657   -1.1735   -1.4884 H   0  0  0  0  0  0  0  0  0  0  0  0
    1.0712   -2.5107   -3.1137 C   0  0  0  0  0  0  0  0  0  0  0  0
    2.0618   -2.9352   -3.1703 H   0  0  0  0  0  0  0  0  0  0  0  0
    0.0561   -2.9567   -3.9879 C   0  0  0  0  0  0  0  0  0  0  0  0
    0.3167   -3.9236   -4.9056 O   0  0  0  0  0  0  0  0  0  0  0  0
    1.2448   -4.1606   -4.9268 H   0  0  0  0  0  0  0  0  0  0  0  0
   -1.2370   -2.3998   -3.9068 C   0  0  0  0  0  0  0  0  0  0  0  0
   -2.0036   -2.7461   -4.5837 H   0  0  0  0  0  0  0  0  0  0  0  0
   -1.5141   -1.3963   -2.9592 C   0  0  0  0  0  0  0  0  0  0  0  0
   -2.5054   -0.9624   -2.9037 H   0  0  0  0  0  0  0  0  0  0  0  0
   -1.1955    0.6084    1.4292 C   0  0  0  0  0  0  0  0  0  0  0  0
   -0.5995    0.4647    2.4971 O   0  0  0  0  0  0  0  0  0  0  0  0
   -1.9205    1.6997    1.1528 N   0  0  0  0  0  0  0  0  0  0  0  0
   -2.4263    1.7145    0.2791 H   0  0  0  0  0  0  0  0  0  0  0  0
   -2.0890    2.8300    2.0631 C   0  0  0  0  0  0  0  0  0  0  0  0
   -1.1143    3.1664    2.4208 H   0  0  0  0  0  0  0  0  0  0  0  0
   -2.5879    3.6542    1.5506 H   0  0  0  0  0  0  0  0  0  0  0  0
   -2.6894    2.5234    2.9222 H   0  0  0  0  0  0  0  0  0  0  0  0
  5  6  2  0  0  0  0
  5  7  1  0  0  0  0
  2  3  1  0  0  0  0
  2  4  1  0  0  0  0
  2  5  1  0  0  0  0
  1  2  1  0  0  0  0
 26 27  2  0  0  0  0
 26 28  1  0  0  0  0
 24 25  1  0  0  0  0
 22 23  1  0  0  0  0
 22 24  2  0  0  0  0
 20 21  1  0  0  0  0
 19 20  1  0  0  0  0
 19 22  1  0  0  0  0
 17 18  1  0  0  0  0
 17 19  2  0  0  0  0
 15 16  1  0  0  0  0
 15 17  1  0  0  0  0
 14 15  2  0  0  0  0
 14 24  1  0  0  0  0
 11 12  1  0  0  0  0
 11 13  1  0  0  0  0
 11 14  1  0  0  0  0
  9 10  1  0  0  0  0
  9 11  1  0  0  0  0
  9 26  1  0  0  0  0
  7  8  1  0  0  0  0
  7  9  1  0  0  0  0
 30 31  1  0  0  0  0
 30 32  1  0  0  0  0
 30 33  1  0  0  0  0
 28 29  1  0  0  0  0
 28 30  1  0  0  0  0
M  END
$$$$
default_name
  -OEChem-01062215323D

 33 33  0     1  0  0  0  0  0999 V2000
   -4.0702   -3.8485    1.4554 H   0  0  0  0  0  0  0  0  0  0  0  0
   -4.0012   -2.9605    0.8284 C   0  0  0  0  0  0  0  0  0  0  0  0
   -4.7652   -2.2435    1.1234 H   0  0  0  0  0  0  0  0  0  0  0  0
   -4.1352   -3.2385   -0.2156 H   0  0  0  0  0  0  0  0  0  0  0  0
   -2.6362   -2.3395    1.0094 C   0  0  0  0  0  0  0  0  0  0  0  0
   -1.8292   -2.8395    1.7814 O   0  0  0  0  0  0  0  0  0  0  0  0
   -2.3832   -1.2445    0.2964 N   0  0  0  0  0  0  0  0  0  0  0  0
   -3.1102   -0.8685   -0.2946 H   0  0  0  0  0  0  0  0  0  0  0  0
   -1.1292   -0.4875    0.3524 C   0  0  1  0  0  0  0  0  0  0  0  0
   -0.3234   -1.1708    0.6230 H   0  0  0  0  0  0  0  0  0  0  0  0
   -0.8223    0.0958   -1.0377 C   0  0  0  0  0  0  0  0  0  0  0  0
   -1.6861    0.6664   -1.3813 H   0  0  0  0  0  0  0  0  0  0  0  0
    0.0152    0.7902   -0.9525 H   0  0  0  0  0  0  0  0  0  0  0  0
   -0.5018   -0.9509   -2.0873 C   0  0  0  0  0  0  0  0  0  0  0  0
    0.7897   -1.5097   -2.1636 C   0  0  0  0  0  0  0  0  0  0  0  0
    1.5657   -1.1735   -1.4884 H   0  0  0  0  0  0  0  0  0  0  0  0
    1.0712   -2.5107   -3.1137 C   0  0  0  0  0  0  0  0  0  0  0  0
    2.0618   -2.9352   -3.1703 H   0  0  0  0  0  0  0  0  0  0  0  0
    0.0561   -2.9567   -3.9879 C   0  0  0  0  0  0  0  0  0  0  0  0
    0.3167   -3.9236   -4.9056 O   0  0  0  0  0  0  0  0  0  0  0  0
    1.2448   -4.1606   -4.9268 H   0  0  0  0  0  0  0  0  0  0  0  0
   -1.2370   -2.3998   -3.9068 C   0  0  0  0  0  0  0  0  0  0  0  0
   -2.0036   -2.7461   -4.5837 H   0  0  0  0  0  0  0  0  0  0  0  0
   -1.5141   -1.3963   -2.9592 C   0  0  0  0  0  0  0  0  0  0  0  0
   -2.5054   -0.9624   -2.9037 H   0  0  0  0  0  0  0  0  0  0  0  0
   -1.1955    0.6084    1.4292 C   0  0  0  0  0  0  0  0  0  0  0  0
   -0.3977    0.6046    2.3672 O   0  0  0  0  0  0  0  0  0  0  0  0
   -2.1454    1.5430    1.2984 N   0  0  0  0  0  0  0  0  0  0  0  0
   -2.7970    1.4418    0.5338 H   0  0  0  0  0  0  0  0  0  0  0  0
   -2.3474    2.6496    2.2308 C   0  0  0  0  0  0  0  0  0  0  0  0
   -1.4015    3.1660    2.4035 H   0  0  0  0  0  0  0  0  0  0  0  0
   -3.0735    3.3556    1.8246 H   0  0  0  0  0  0  0  0  0  0  0  0
   -2.7138    2.2642    3.1845 H   0  0  0  0  0  0  0  0  0  0  0  0
  5  6  2  0  0  0  0
  5  7  1  0  0  0  0
  2  3  1  0  0  0  0
  2  4  1  0  0  0  0
  2  5  1  0  0  0  0
  1  2  1  0  0  0  0
 26 27  2  0  0  0  0
 26 28  1  0  0  0  0
 24 25  1  0  0  0  0
 22 23  1  0  0  0  0
 22 24  2  0  0  0  0
 20 21  1  0  0  0  0
 19 20  1  0  0  0  0
 19 22  1  0  0  0  0
 17 18  1  0  0  0  0
 17 19  2  0  0  0  0
 15 16  1  0  0  0  0
 15 17  1  0  0  0  0
 14 15  2  0  0  0  0
 14 24  1  0  0  0  0
 11 12  1  0  0  0  0
 11 13  1  0  0  0  0
 11 14  1  0  0  0  0
  9 10  1  0  0  0  0
  9 11  1  0  0  0  0
  9 26  1  0  0  0  0
  7  8  1  0  0  0  0
  7  9  1  0  0  0  0
 30 31  1  0  0  0  0
 30 32  1  0  0  0  0
 30 33  1  0  0  0  0
 28 29  1  0  0  0  0
 28 30  1  0  0  0  0
M  END
$$$$
default_name
  -OEChem-01062215323D

 33 33  0     1  0  0  0  0  0999 V2000
   -4.0702   -3.8485    1.4554 H   0  0  0  0  0  0  0  0  0  0  0  0
   -4.0012   -2.9605    0.8284 C   0  0  0  0  0  0  0  0  0  0  0  0
   -4.7652   -2.2435    1.1234 H   0  0  0  0  0  0  0  0  0  0  0  0
   -4.1352   -3.2385   -0.2156 H   0  0  0  0  0  0  0  0  0  0  0  0
   -2.6362   -2.3395    1.0094 C   0  0  0  0  0  0  0  0  0  0  0  0
   -1.8292   -2.8395    1.7814 O   0  0  0  0  0  0  0  0  0  0  0  0
   -2.3832   -1.2445    0.2964 N   0  0  0  0  0  0  0  0  0  0  0  0
   -3.1102   -0.8685   -0.2946 H   0  0  0  0  0  0  0  0  0  0  0  0
   -1.1292   -0.4875    0.3524 C   0  0  1  0  0  0  0  0  0  0  0  0
   -0.3234   -1.1708    0.6230 H   0  0  0  0  0  0  0  0  0  0  0  0
   -0.8223    0.0958   -1.0377 C   0  0  0  0  0  0  0  0  0  0  0  0
   -1.6861    0.6664   -1.3813 H   0  0  0  0  0  0  0  0  0  0  0  0
    0.0152    0.7902   -0.9525 H   0  0  0  0  0  0  0  0  0  0  0  0
   -0.5018   -0.9509   -2.0873 C   0  0  0  0  0  0  0  0  0  0  0  0
    0.7897   -1.5097   -2.1636 C   0  0  0  0  0  0  0  0  0  0  0  0
    1.5657   -1.1735   -1.4884 H   0  0  0  0  0  0  0  0  0  0  0  0
    1.0712   -2.5107   -3.1137 C   0  0  0  0  0  0  0  0  0  0  0  0
    2.0618   -2.9352   -3.1703 H   0  0  0  0  0  0  0  0  0  0  0  0
    0.0561   -2.9567   -3.9879 C   0  0  0  0  0  0  0  0  0  0  0  0
    0.3167   -3.9236   -4.9056 O   0  0  0  0  0  0  0  0  0  0  0  0
    1.2448   -4.1606   -4.9268 H   0  0  0  0  0  0  0  0  0  0  0  0
   -1.2370   -2.3998   -3.9068 C   0  0  0  0  0  0  0  0  0  0  0  0
   -2.0036   -2.7461   -4.5837 H   0  0  0  0  0  0  0  0  0  0  0  0
   -1.5141   -1.3963   -2.9592 C   0  0  0  0  0  0  0  0  0  0  0  0
   -2.5054   -0.9624   -2.9037 H   0  0  0  0  0  0  0  0  0  0  0  0
   -1.1955    0.6084    1.4292 C   0  0  0  0  0  0  0  0  0  0  0  0
   -0.2522    0.7748    2.2029 O   0  0  0  0  0  0  0  0  0  0  0  0
   -2.3075    1.3524    1.4824 N   0  0  0  0  0  0  0  0  0  0  0  0
   -3.0587    1.1140    0.8512 H   0  0  0  0  0  0  0  0  0  0  0  0
   -2.5333    2.4304    2.4425 C   0  0  0  0  0  0  0  0  0  0  0  0
   -1.6821    3.1134    2.4398 H   0  0  0  0  0  0  0  0  0  0  0  0
   -3.4379    2.9823    2.1821 H   0  0  0  0  0  0  0  0  0  0  0  0
   -2.6421    2.0122    3.4453 H   0  0  0  0  0  0  0  0  0  0  0  0
  5  6  2  0  0  0  0
  5  7  1  0  0  0  0
  2  3  1  0  0  0  0
  2  4  1  0  0  0  0
  2  5  1  0  0  0  0
  1  2  1  0  0  0  0
 26 27  2  0  0  0  0
 26 28  1  0  0  0  0
 24 25  1  0  0  0  0
 22 23  1  0  0  0  0
 22 24  2  0  0  0  0
 20 21  1  0  0  0  0
 19 20  1  0  0  0  0
 19 22  1  0  0  0  0
 17 18  1  0  0  0  0
 17 19  2  0  0  0  0
 15 16  1  0  0  0  0
 15 17  1  0  0  0  0
 14 15  2  0  0  0  0
 14 24  1  0  0  0  0
 11 12  1  0  0  0  0
 11 13  1  0  0  0  0
 11 14  1  0  0  0  0
  9 10  1  0  0  0  0
  9 11  1  0  0  0  0
  9 26  1  0  0  0  0
  7  8  1  0  0  0  0
  7  9  1  0  0  0  0
 30 31  1  0  0  0  0
 30 32  1  0  0  0  0
 30 33  1  0  0  0  0
 28 29  1  0  0  0  0
 28 30  1  0  0  0  0
M  END
$$$$
default_name
  -OEChem-01062215323D

 33 33  0     1  0  0  0  0  0999 V2000
   -4.0702   -3.8485    1.4554 H   0  0  0  0  0  0  0  0  0  0  0  0
   -4.0012   -2.9605    0.8284 C   0  0  0  0  0  0  0  0  0  0  0  0
   -4.7652   -2.2435    1.1234 H   0  0  0  0  0  0  0  0  0  0  0  0
   -4.1352   -3.2385   -0.2156 H   0  0  0  0  0  0  0  0  0  0  0  0
   -2.6362   -2.3395    1.0094 C   0  0  0  0  0  0  0  0  0  0  0  0
   -1.8292   -2.8395    1.7814 O   0  0  0  0  0  0  0  0  0  0  0  0
   -2.3832   -1.2445    0.2964 N   0  0  0  0  0  0  0  0  0  0  0  0
   -3.1102   -0.8685   -0.2946 H   0  0  0  0  0  0  0  0  0  0  0  0
   -1.1292   -0.4875    0.3524 C   0  0  1  0  0  0  0  0  0  0  0  0
   -0.3234   -1.1708    0.6230 H   0  0  0  0  0  0  0  0  0  0  0  0
   -0.8223    0.0958   -1.0377 C   0  0  0  0  0  0  0  0  0  0  0  0
   -1.6861    0.6664   -1.3813 H   0  0  0  0  0  0  0  0  0  0  0  0
    0.0152    0.7902   -0.9525 H   0  0  0  0  0  0  0  0  0  0  0  0
   -0.5018   -0.9509   -2.0873 C   0  0  0  0  0  0  0  0  0  0  0  0
    0.7897   -1.5097   -2.1636 C   0  0  0  0  0  0  0  0  0  0  0  0
    1.5657   -1.1735   -1.4884 H   0  0  0  0  0  0  0  0  0  0  0  0
    1.0712   -2.5107   -3.1137 C   0  0  0  0  0  0  0  0  0  0  0  0
    2.0618   -2.9352   -3.1703 H   0  0  0  0  0  0  0  0  0  0  0  0
    0.0561   -2.9567   -3.9879 C   0  0  0  0  0  0  0  0  0  0  0  0
    0.3167   -3.9236   -4.9056 O   0  0  0  0  0  0  0  0  0  0  0  0
    1.2448   -4.1606   -4.9268 H   0  0  0  0  0  0  0  0  0  0  0  0
   -1.2370   -2.3998   -3.9068 C   0  0  0  0  0  0  0  0  0  0  0  0
   -2.0036   -2.7461   -4.5837 H   0  0  0  0  0  0  0  0  0  0  0  0
   -1.5141   -1.3963   -2.9592 C   0  0  0  0  0  0  0  0  0  0  0  0
   -2.5054   -0.9624   -2.9037 H   0  0  0  0  0  0  0  0  0  0  0  0
   -1.1955    0.6084    1.4292 C   0  0  0  0  0  0  0  0  0  0  0  0
   -0.1727    0.9638    2.0155 O   0  0  0  0  0  0  0  0  0  0  0  0
   -2.3956    1.1411    1.6920 N   0  0  0  0  0  0  0  0  0  0  0  0
   -3.1935    0.7535    1.2098 H   0  0  0  0  0  0  0  0  0  0  0  0
   -2.6341    2.1873    2.6837 C   0  0  0  0  0  0  0  0  0  0  0  0
   -1.9368    3.0122    2.5271 H   0  0  0  0  0  0  0  0  0  0  0  0
   -3.6563    2.5596    2.5988 H   0  0  0  0  0  0  0  0  0  0  0  0
   -2.4790    1.7847    3.6868 H   0  0  0  0  0  0  0  0  0  0  0  0
  5  6  2  0  0  0  0
  5  7  1  0  0  0  0
  2  3  1  0  0  0  0
  2  4  1  0  0  0  0
  2  5  1  0  0  0  0
  1  2  1  0  0  0  0
 26 27  2  0  0  0  0
 26 28  1  0  0  0  0
 24 25  1  0  0  0  0
 22 23  1  0  0  0  0
 22 24  2  0  0  0  0
 20 21  1  0  0  0  0
 19 20  1  0  0  0  0
 19 22  1  0  0  0  0
 17 18  1  0  0  0  0
 17 19  2  0  0  0  0
 15 16  1  0  0  0  0
 15 17  1  0  0  0  0
 14 15  2  0  0  0  0
 14 24  1  0  0  0  0
 11 12  1  0  0  0  0
 11 13  1  0  0  0  0
 11 14  1  0  0  0  0
  9 10  1  0  0  0  0
  9 11  1  0  0  0  0
  9 26  1  0  0  0  0
  7  8  1  0  0  0  0
  7  9  1  0  0  0  0
 30 31  1  0  0  0  0
 30 32  1  0  0  0  0
 30 33  1  0  0  0  0
 28 29  1  0  0  0  0
 28 30  1  0  0  0  0
M  END
$$$$
default_name
  -OEChem-01062215323D

 33 33  0     1  0  0  0  0  0999 V2000
   -4.0702   -3.8485    1.4554 H   0  0  0  0  0  0  0  0  0  0  0  0
   -4.0012   -2.9605    0.8284 C   0  0  0  0  0  0  0  0  0  0  0  0
   -4.7652   -2.2435    1.1234 H   0  0  0  0  0  0  0  0  0  0  0  0
   -4.1352   -3.2385   -0.2156 H   0  0  0  0  0  0  0  0  0  0  0  0
   -2.6362   -2.3395    1.0094 C   0  0  0  0  0  0  0  0  0  0  0  0
   -1.8292   -2.8395    1.7814 O   0  0  0  0  0  0  0  0  0  0  0  0
   -2.3832   -1.2445    0.2964 N   0  0  0  0  0  0  0  0  0  0  0  0
   -3.1102   -0.8685   -0.2946 H   0  0  0  0  0  0  0  0  0  0  0  0
   -1.1292   -0.4875    0.3524 C   0  0  1  0  0  0  0  0  0  0  0  0
   -0.3234   -1.1708    0.6230 H   0  0  0  0  0  0  0  0  0  0  0  0
   -0.8223    0.0958   -1.0377 C   0  0  0  0  0  0  0  0  0  0  0  0
   -1.6861    0.6664   -1.3813 H   0  0  0  0  0  0  0  0  0  0  0  0
    0.0152    0.7902   -0.9525 H   0  0  0  0  0  0  0  0  0  0  0  0
   -0.5018   -0.9509   -2.0873 C   0  0  0  0  0  0  0  0  0  0  0  0
    0.7897   -1.5097   -2.1636 C   0  0  0  0  0  0  0  0  0  0  0  0
    1.5657   -1.1735   -1.4884 H   0  0  0  0  0  0  0  0  0  0  0  0
    1.0712   -2.5107   -3.1137 C   0  0  0  0  0  0  0  0  0  0  0  0
    2.0618   -2.9352   -3.1703 H   0  0  0  0  0  0  0  0  0  0  0  0
    0.0561   -2.9567   -3.9879 C   0  0  0  0  0  0  0  0  0  0  0  0
    0.3167   -3.9236   -4.9056 O   0  0  0  0  0  0  0  0  0  0  0  0
    1.2448   -4.1606   -4.9268 H   0  0  0  0  0  0  0  0  0  0  0  0
   -1.2370   -2.3998   -3.9068 C   0  0  0  0  0  0  0  0  0  0  0  0
   -2.0036   -2.7461   -4.5837 H   0  0  0  0  0  0  0  0  0  0  0  0
   -1.5141   -1.3963   -2.9592 C   0  0  0  0  0  0  0  0  0  0  0  0
   -2.5054   -0.9624   -2.9037 H   0  0  0  0  0  0  0  0  0  0  0  0
   -1.1955    0.6084    1.4292 C   0  0  0  0  0  0  0  0  0  0  0  0
   -0.1647    1.1586    1.8178 O   0  0  0  0  0  0  0  0  0  0  0  0
   -2.4036    0.9233    1.9132 N   0  0  0  0  0  0  0  0  0  0  0  0
   -3.1923    0.3849    1.5850 H   0  0  0  0  0  0  0  0  0  0  0  0
   -2.6429    1.9369    2.9379 C   0  0  0  0  0  0  0  0  0  0  0  0
   -2.1484    2.8692    2.6596 H   0  0  0  0  0  0  0  0  0  0  0  0
   -3.7138    2.1163    3.0463 H   0  0  0  0  0  0  0  0  0  0  0  0
   -2.2358    1.5973    3.8925 H   0  0  0  0  0  0  0  0  0  0  0  0
  5  6  2  0  0  0  0
  5  7  1  0  0  0  0
  2  3  1  0  0  0  0
  2  4  1  0  0  0  0
  2  5  1  0  0  0  0
  1  2  1  0  0  0  0
 26 27  2  0  0  0  0
 26 28  1  0  0  0  0
 24 25  1  0  0  0  0
 22 23  1  0  0  0  0
 22 24  2  0  0  0  0
 20 21  1  0  0  0  0
 19 20  1  0  0  0  0
 19 22  1  0  0  0  0
 17 18  1  0  0  0  0
 17 19  2  0  0  0  0
 15 16  1  0  0  0  0
 15 17  1  0  0  0  0
 14 15  2  0  0  0  0
 14 24  1  0  0  0  0
 11 12  1  0  0  0  0
 11 13  1  0  0  0  0
 11 14  1  0  0  0  0
  9 10  1  0  0  0  0
  9 11  1  0  0  0  0
  9 26  1  0  0  0  0
  7  8  1  0  0  0  0
  7  9  1  0  0  0  0
 30 31  1  0  0  0  0
 30 32  1  0  0  0  0
 30 33  1  0  0  0  0
 28 29  1  0  0  0  0
 28 30  1  0  0  0  0
M  END
$$$$
default_name
  -OEChem-01062215323D

 33 33  0     1  0  0  0  0  0999 V2000
   -4.0702   -3.8485    1.4554 H   0  0  0  0  0  0  0  0  0  0  0  0
   -4.0012   -2.9605    0.8284 C   0  0  0  0  0  0  0  0  0  0  0  0
   -4.7652   -2.2435    1.1234 H   0  0  0  0  0  0  0  0  0  0  0  0
   -4.1352   -3.2385   -0.2156 H   0  0  0  0  0  0  0  0  0  0  0  0
   -2.6362   -2.3395    1.0094 C   0  0  0  0  0  0  0  0  0  0  0  0
   -1.8292   -2.8395    1.7814 O   0  0  0  0  0  0  0  0  0  0  0  0
   -2.3832   -1.2445    0.2964 N   0  0  0  0  0  0  0  0  0  0  0  0
   -3.1102   -0.8685   -0.2946 H   0  0  0  0  0  0  0  0  0  0  0  0
   -1.1292   -0.4875    0.3524 C   0  0  1  0  0  0  0  0  0  0  0  0
   -0.3234   -1.1708    0.6230 H   0  0  0  0  0  0  0  0  0  0  0  0
   -0.8223    0.0958   -1.0377 C   0  0  0  0  0  0  0  0  0  0  0  0
   -1.6861    0.6664   -1.3813 H   0  0  0  0  0  0  0  0  0  0  0  0
    0.0152    0.7902   -0.9525 H   0  0  0  0  0  0  0  0  0  0  0  0
   -0.5018   -0.9509   -2.0873 C   0  0  0  0  0  0  0  0  0  0  0  0
    0.7897   -1.5097   -2.1636 C   0  0  0  0  0  0  0  0  0  0  0  0
    1.5657   -1.1735   -1.4884 H   0  0  0  0  0  0  0  0  0  0  0  0
    1.0712   -2.5107   -3.1137 C   0  0  0  0  0  0  0  0  0  0  0  0
    2.0618   -2.9352   -3.1703 H   0  0  0  0  0  0  0  0  0  0  0  0
    0.0561   -2.9567   -3.9879 C   0  0  0  0  0  0  0  0  0  0  0  0
    0.3167   -3.9236   -4.9056 O   0  0  0  0  0  0  0  0  0  0  0  0
    1.2448   -4.1606   -4.9268 H   0  0  0  0  0  0  0  0  0  0  0  0
   -1.2370   -2.3998   -3.9068 C   0  0  0  0  0  0  0  0  0  0  0  0
   -2.0036   -2.7461   -4.5837 H   0  0  0  0  0  0  0  0  0  0  0  0
   -1.5141   -1.3963   -2.9592 C   0  0  0  0  0  0  0  0  0  0  0  0
   -2.5054   -0.9624   -2.9037 H   0  0  0  0  0  0  0  0  0  0  0  0
   -1.1955    0.6084    1.4292 C   0  0  0  0  0  0  0  0  0  0  0  0
   -0.2288    1.3461    1.6231 O   0  0  0  0  0  0  0  0  0  0  0  0
   -2.3312    0.7139    2.1307 N   0  0  0  0  0  0  0  0  0  0  0  0
   -3.0551    0.0332    1.9513 H   0  0  0  0  0  0  0  0  0  0  0  0
   -2.5591    1.6962    3.1879 C   0  0  0  0  0  0  0  0  0  0  0  0
   -2.3025    2.6942    2.8282 H   0  0  0  0  0  0  0  0  0  0  0  0
   -3.6064    1.6828    3.4941 H   0  0  0  0  0  0  0  0  0  0  0  0
   -1.9289    1.4625    4.0485 H   0  0  0  0  0  0  0  0  0  0  0  0
  5  6  2  0  0  0  0
  5  7  1  0  0  0  0
  2  3  1  0  0  0  0
  2  4  1  0  0  0  0
  2  5  1  0  0  0  0
  1  2  1  0  0  0  0
 26 27  2  0  0  0  0
 26 28  1  0  0  0  0
 24 25  1  0  0  0  0
 22 23  1  0  0  0  0
 22 24  2  0  0  0  0
 20 21  1  0  0  0  0
 19 20  1  0  0  0  0
 19 22  1  0  0  0  0
 17 18  1  0  0  0  0
 17 19  2  0  0  0  0
 15 16  1  0  0  0  0
 15 17  1  0  0  0  0
 14 15  2  0  0  0  0
 14 24  1  0  0  0  0
 11 12  1  0  0  0  0
 11 13  1  0  0  0  0
 11 14  1  0  0  0  0
  9 10  1  0  0  0  0
  9 11  1  0  0  0  0
  9 26  1  0  0  0  0
  7  8  1  0  0  0  0
  7  9  1  0  0  0  0
 30 31  1  0  0  0  0
 30 32  1  0  0  0  0
 30 33  1  0  0  0  0
 28 29  1  0  0  0  0
 28 30  1  0  0  0  0
M  END
$$$$
default_name
  -OEChem-01062215323D

 33 33  0     1  0  0  0  0  0999 V2000
   -4.0702   -3.8485    1.4554 H   0  0  0  0  0  0  0  0  0  0  0  0
   -4.0012   -2.9605    0.8284 C   0  0  0  0  0  0  0  0  0  0  0  0
   -4.7652   -2.2435    1.1234 H   0  0  0  0  0  0  0  0  0  0  0  0
   -4.1352   -3.2385   -0.2156 H   0  0  0  0  0  0  0  0  0  0  0  0
   -2.6362   -2.3395    1.0094 C   0  0  0  0  0  0  0  0  0  0  0  0
   -1.8292   -2.8395    1.7814 O   0  0  0  0  0  0  0  0  0  0  0  0
   -2.3832   -1.2445    0.2964 N   0  0  0  0  0  0  0  0  0  0  0  0
   -3.1102   -0.8685   -0.2946 H   0  0  0  0  0  0  0  0  0  0  0  0
   -1.1292   -0.4875    0.3524 C   0  0  1  0  0  0  0  0  0  0  0  0
   -0.3234   -1.1708    0.6230 H   0  0  0  0  0  0  0  0  0  0  0  0
   -0.8223    0.0958   -1.0377 C   0  0  0  0  0  0  0  0  0  0  0  0
   -1.6861    0.6664   -1.3813 H   0  0  0  0  0  0  0  0  0  0  0  0
    0.0152    0.7902   -0.9525 H   0  0  0  0  0  0  0  0  0  0  0  0
   -0.5018   -0.9509   -2.0873 C   0  0  0  0  0  0  0  0  0  0  0  0
    0.7897   -1.5097   -2.1636 C   0  0  0  0  0  0  0  0  0  0  0  0
    1.5657   -1.1735   -1.4884 H   0  0  0  0  0  0  0  0  0  0  0  0
    1.0712   -2.5107   -3.1137 C   0  0  0  0  0  0  0  0  0  0  0  0
    2.0618   -2.9352   -3.1703 H   0  0  0  0  0  0  0  0  0  0  0  0
    0.0561   -2.9567   -3.9879 C   0  0  0  0  0  0  0  0  0  0  0  0
    0.3167   -3.9236   -4.9056 O   0  0  0  0  0  0  0  0  0  0  0  0
    1.2448   -4.1606   -4.9268 H   0  0  0  0  0  0  0  0  0  0  0  0
   -1.2370   -2.3998   -3.9068 C   0  0  0  0  0  0  0  0  0  0  0  0
   -2.0036   -2.7461   -4.5837 H   0  0  0  0  0  0  0  0  0  0  0  0
   -1.5141   -1.3963   -2.9592 C   0  0  0  0  0  0  0  0  0  0  0  0
   -2.5054   -0.9624   -2.9037 H   0  0  0  0  0  0  0  0  0  0  0  0
   -1.1955    0.6084    1.4292 C   0  0  0  0  0  0  0  0  0  0  0  0
   -0.3606    1.5133    1.4448 O   0  0  0  0  0  0  0  0  0  0  0  0
   -2.1832    0.5272    2.3297 N   0  0  0  0  0  0  0  0  0  0  0  0
   -2.7912   -0.2775    2.2838 H   0  0  0  0  0  0  0  0  0  0  0  0
   -2.3885    1.4818    3.4167 C   0  0  0  0  0  0  0  0  0  0  0  0
   -2.3885    2.4991    3.0215 H   0  0  0  0  0  0  0  0  0  0  0  0
   -3.3416    1.2885    3.9117 H   0  0  0  0  0  0  0  0  0  0  0  0
   -1.5793    1.3898    4.1440 H   0  0  0  0  0  0  0  0  0  0  0  0
  5  6  2  0  0  0  0
  5  7  1  0  0  0  0
  2  3  1  0  0  0  0
  2  4  1  0  0  0  0
  2  5  1  0  0  0  0
  1  2  1  0  0  0  0
 26 27  2  0  0  0  0
 26 28  1  0  0  0  0
 24 25  1  0  0  0  0
 22 23  1  0  0  0  0
 22 24  2  0  0  0  0
 20 21  1  0  0  0  0
 19 20  1  0  0  0  0
 19 22  1  0  0  0  0
 17 18  1  0  0  0  0
 17 19  2  0  0  0  0
 15 16  1  0  0  0  0
 15 17  1  0  0  0  0
 14 15  2  0  0  0  0
 14 24  1  0  0  0  0
 11 12  1  0  0  0  0
 11 13  1  0  0  0  0
 11 14  1  0  0  0  0
  9 10  1  0  0  0  0
  9 11  1  0  0  0  0
  9 26  1  0  0  0  0
  7  8  1  0  0  0  0
  7  9  1  0  0  0  0
 30 31  1  0  0  0  0
 30 32  1  0  0  0  0
 30 33  1  0  0  0  0
 28 29  1  0  0  0  0
 28 30  1  0  0  0  0
M  END
$$$$
default_name
  -OEChem-01062215323D

 33 33  0     1  0  0  0  0  0999 V2000
   -4.0702   -3.8485    1.4554 H   0  0  0  0  0  0  0  0  0  0  0  0
   -4.0012   -2.9605    0.8284 C   0  0  0  0  0  0  0  0  0  0  0  0
   -4.7652   -2.2435    1.1234 H   0  0  0  0  0  0  0  0  0  0  0  0
   -4.1352   -3.2385   -0.2156 H   0  0  0  0  0  0  0  0  0  0  0  0
   -2.6362   -2.3395    1.0094 C   0  0  0  0  0  0  0  0  0  0  0  0
   -1.8292   -2.8395    1.7814 O   0  0  0  0  0  0  0  0  0  0  0  0
   -2.3832   -1.2445    0.2964 N   0  0  0  0  0  0  0  0  0  0  0  0
   -3.1102   -0.8685   -0.2946 H   0  0  0  0  0  0  0  0  0  0  0  0
   -1.1292   -0.4875    0.3524 C   0  0  1  0  0  0  0  0  0  0  0  0
   -0.3234   -1.1708    0.6230 H   0  0  0  0  0  0  0  0  0  0  0  0
   -0.8223    0.0958   -1.0377 C   0  0  0  0  0  0  0  0  0  0  0  0
   -1.6861    0.6664   -1.3813 H   0  0  0  0  0  0  0  0  0  0  0  0
    0.0152    0.7902   -0.9525 H   0  0  0  0  0  0  0  0  0  0  0  0
   -0.5018   -0.9509   -2.0873 C   0  0  0  0  0  0  0  0  0  0  0  0
    0.7897   -1.5097   -2.1636 C   0  0  0  0  0  0  0  0  0  0  0  0
    1.5657   -1.1735   -1.4884 H   0  0  0  0  0  0  0  0  0  0  0  0
    1.0712   -2.5107   -3.1137 C   0  0  0  0  0  0  0  0  0  0  0  0
    2.0618   -2.9352   -3.1703 H   0  0  0  0  0  0  0  0  0  0  0  0
    0.0561   -2.9567   -3.9879 C   0  0  0  0  0  0  0  0  0  0  0  0
    0.3167   -3.9236   -4.9056 O   0  0  0  0  0  0  0  0  0  0  0  0
    1.2448   -4.1606   -4.9268 H   0  0  0  0  0  0  0  0  0  0  0  0
   -1.2370   -2.3998   -3.9068 C   0  0  0  0  0  0  0  0  0  0  0  0
   -2.0036   -2.7461   -4.5837 H   0  0  0  0  0  0  0  0  0  0  0  0
   -1.5141   -1.3963   -2.9592 C   0  0  0  0  0  0  0  0  0  0  0  0
   -2.5054   -0.9624   -2.9037 H   0  0  0  0  0  0  0  0  0  0  0  0
   -1.1955    0.6084    1.4292 C   0  0  0  0  0  0  0  0  0  0  0  0
   -0.5512    1.6490    1.2950 O   0  0  0  0  0  0  0  0  0  0  0  0
   -1.9696    0.3760    2.4968 N   0  0  0  0  0  0  0  0  0  0  0  0
   -2.4187   -0.5262    2.5597 H   0  0  0  0  0  0  0  0  0  0  0  0
   -2.1426    1.3081    3.6085 C   0  0  0  0  0  0  0  0  0  0  0  0
   -2.4005    2.2972    3.2261 H   0  0  0  0  0  0  0  0  0  0  0  0
   -2.9373    0.9602    4.2706 H   0  0  0  0  0  0  0  0  0  0  0  0
   -1.2107    1.3840    4.1726 H   0  0  0  0  0  0  0  0  0  0  0  0
  5  6  2  0  0  0  0
  5  7  1  0  0  0  0
  2  3  1  0  0  0  0
  2  4  1  0  0  0  0
  2  5  1  0  0  0  0
  1  2  1  0  0  0  0
 26 27  2  0  0  0  0
 26 28  1  0  0  0  0
 24 25  1  0  0  0  0
 22 23  1  0  0  0  0
 22 24  2  0  0  0  0
 20 21  1  0  0  0  0
 19 20  1  0  0  0  0
 19 22  1  0  0  0  0
 17 18  1  0  0  0  0
 17 19  2  0  0  0  0
 15 16  1  0  0  0  0
 15 17  1  0  0  0  0
 14 15  2  0  0  0  0
 14 24  1  0  0  0  0
 11 12  1  0  0  0  0
 11 13  1  0  0  0  0
 11 14  1  0  0  0  0
  9 10  1  0  0  0  0
  9 11  1  0  0  0  0
  9 26  1  0  0  0  0
  7  8  1  0  0  0  0
  7  9  1  0  0  0  0
 30 31  1  0  0  0  0
 30 32  1  0  0  0  0
 30 33  1  0  0  0  0
 28 29  1  0  0  0  0
 28 30  1  0  0  0  0
M  END
$$$$
default_name
  -OEChem-01062215323D

 33 33  0     1  0  0  0  0  0999 V2000
   -4.0702   -3.8485    1.4554 H   0  0  0  0  0  0  0  0  0  0  0  0
   -4.0012   -2.9605    0.8284 C   0  0  0  0  0  0  0  0  0  0  0  0
   -4.7652   -2.2435    1.1234 H   0  0  0  0  0  0  0  0  0  0  0  0
   -4.1352   -3.2385   -0.2156 H   0  0  0  0  0  0  0  0  0  0  0  0
   -2.6362   -2.3395    1.0094 C   0  0  0  0  0  0  0  0  0  0  0  0
   -1.8292   -2.8395    1.7814 O   0  0  0  0  0  0  0  0  0  0  0  0
   -2.3832   -1.2445    0.2964 N   0  0  0  0  0  0  0  0  0  0  0  0
   -3.1102   -0.8685   -0.2946 H   0  0  0  0  0  0  0  0  0  0  0  0
   -1.1292   -0.4875    0.3524 C   0  0  1  0  0  0  0  0  0  0  0  0
   -0.3234   -1.1708    0.6230 H   0  0  0  0  0  0  0  0  0  0  0  0
   -0.8223    0.0958   -1.0377 C   0  0  0  0  0  0  0  0  0  0  0  0
   -1.6861    0.6664   -1.3813 H   0  0  0  0  0  0  0  0  0  0  0  0
    0.0152    0.7902   -0.9525 H   0  0  0  0  0  0  0  0  0  0  0  0
   -0.5018   -0.9509   -2.0873 C   0  0  0  0  0  0  0  0  0  0  0  0
    0.7897   -1.5097   -2.1636 C   0  0  0  0  0  0  0  0  0  0  0  0
    1.5657   -1.1735   -1.4884 H   0  0  0  0  0  0  0  0  0  0  0  0
    1.0712   -2.5107   -3.1137 C   0  0  0  0  0  0  0  0  0  0  0  0
    2.0618   -2.9352   -3.1703 H   0  0  0  0  0  0  0  0  0  0  0  0
    0.0561   -2.9567   -3.9879 C   0  0  0  0  0  0  0  0  0  0  0  0
    0.3167   -3.9236   -4.9056 O   0  0  0  0  0  0  0  0  0  0  0  0
    1.2448   -4.1606   -4.9268 H   0  0  0  0  0  0  0  0  0  0  0  0
   -1.2370   -2.3998   -3.9068 C   0  0  0  0  0  0  0  0  0  0  0  0
   -2.0036   -2.7461   -4.5837 H   0  0  0  0  0  0  0  0  0  0  0  0
   -1.5141   -1.3963   -2.9592 C   0  0  0  0  0  0  0  0  0  0  0  0
   -2.5054   -0.9624   -2.9037 H   0  0  0  0  0  0  0  0  0  0  0  0
   -1.1955    0.6084    1.4292 C   0  0  0  0  0  0  0  0  0  0  0  0
   -0.7874    1.7439    1.1839 O   0  0  0  0  0  0  0  0  0  0  0  0
   -1.7051    0.2704    2.6205 N   0  0  0  0  0  0  0  0  0  0  0  0
   -1.9630   -0.6958    2.7603 H   0  0  0  0  0  0  0  0  0  0  0  0
   -1.8383    1.1870    3.7504 C   0  0  0  0  0  0  0  0  0  0  0  0
   -2.3378    2.1023    3.4283 H   0  0  0  0  0  0  0  0  0  0  0  0
   -2.4210    0.7204    4.5463 H   0  0  0  0  0  0  0  0  0  0  0  0
   -0.8485    1.4454    4.1324 H   0  0  0  0  0  0  0  0  0  0  0  0
  5  6  2  0  0  0  0
  5  7  1  0  0  0  0
  2  3  1  0  0  0  0
  2  4  1  0  0  0  0
  2  5  1  0  0  0  0
  1  2  1  0  0  0  0
 26 27  2  0  0  0  0
 26 28  1  0  0  0  0
 24 25  1  0  0  0  0
 22 23  1  0  0  0  0
 22 24  2  0  0  0  0
 20 21  1  0  0  0  0
 19 20  1  0  0  0  0
 19 22  1  0  0  0  0
 17 18  1  0  0  0  0
 17 19  2  0  0  0  0
 15 16  1  0  0  0  0
 15 17  1  0  0  0  0
 14 15  2  0  0  0  0
 14 24  1  0  0  0  0
 11 12  1  0  0  0  0
 11 13  1  0  0  0  0
 11 14  1  0  0  0  0
  9 10  1  0  0  0  0
  9 11  1  0  0  0  0
  9 26  1  0  0  0  0
  7  8  1  0  0  0  0
  7  9  1  0  0  0  0
 30 31  1  0  0  0  0
 30 32  1  0  0  0  0
 30 33  1  0  0  0  0
 28 29  1  0  0  0  0
 28 30  1  0  0  0  0
M  END
$$$$
default_name
  -OEChem-01062215323D

 33 33  0     1  0  0  0  0  0999 V2000
   -4.0702   -3.8485    1.4554 H   0  0  0  0  0  0  0  0  0  0  0  0
   -4.0012   -2.9605    0.8284 C   0  0  0  0  0  0  0  0  0  0  0  0
   -4.7652   -2.2435    1.1234 H   0  0  0  0  0  0  0  0  0  0  0  0
   -4.1352   -3.2385   -0.2156 H   0  0  0  0  0  0  0  0  0  0  0  0
   -2.6362   -2.3395    1.0094 C   0  0  0  0  0  0  0  0  0  0  0  0
   -1.8292   -2.8395    1.7814 O   0  0  0  0  0  0  0  0  0  0  0  0
   -2.3832   -1.2445    0.2964 N   0  0  0  0  0  0  0  0  0  0  0  0
   -3.1102   -0.8685   -0.2946 H   0  0  0  0  0  0  0  0  0  0  0  0
   -1.1292   -0.4875    0.3524 C   0  0  1  0  0  0  0  0  0  0  0  0
   -0.3234   -1.1708    0.6230 H   0  0  0  0  0  0  0  0  0  0  0  0
   -0.8223    0.0958   -1.0377 C   0  0  0  0  0  0  0  0  0  0  0  0
   -1.6861    0.6664   -1.3813 H   0  0  0  0  0  0  0  0  0  0  0  0
    0.0152    0.7902   -0.9525 H   0  0  0  0  0  0  0  0  0  0  0  0
   -0.5018   -0.9509   -2.0873 C   0  0  0  0  0  0  0  0  0  0  0  0
    0.7897   -1.5097   -2.1636 C   0  0  0  0  0  0  0  0  0  0  0  0
    1.5657   -1.1735   -1.4884 H   0  0  0  0  0  0  0  0  0  0  0  0
    1.0712   -2.5107   -3.1137 C   0  0  0  0  0  0  0  0  0  0  0  0
    2.0618   -2.9352   -3.1703 H   0  0  0  0  0  0  0  0  0  0  0  0
    0.0561   -2.9567   -3.9879 C   0  0  0  0  0  0  0  0  0  0  0  0
    0.3167   -3.9236   -4.9056 O   0  0  0  0  0  0  0  0  0  0  0  0
    1.2448   -4.1606   -4.9268 H   0  0  0  0  0  0  0  0  0  0  0  0
   -1.2370   -2.3998   -3.9068 C   0  0  0  0  0  0  0  0  0  0  0  0
   -2.0036   -2.7461   -4.5837 H   0  0  0  0  0  0  0  0  0  0  0  0
   -1.5141   -1.3963   -2.9592 C   0  0  0  0  0  0  0  0  0  0  0  0
   -2.5054   -0.9624   -2.9037 H   0  0  0  0  0  0  0  0  0  0  0  0
   -1.1955    0.6084    1.4292 C   0  0  0  0  0  0  0  0  0  0  0  0
   -1.0533    1.7915    1.1191 O   0  0  0  0  0  0  0  0  0  0  0  0
   -1.4077    0.2178    2.6923 N   0  0  0  0  0  0  0  0  0  0  0  0
   -1.4550   -0.7747    2.8719 H   0  0  0  0  0  0  0  0  0  0  0  0
   -1.4962    1.1268    3.8327 C   0  0  0  0  0  0  0  0  0  0  0  0
   -2.2047    1.9277    3.6142 H   0  0  0  0  0  0  0  0  0  0  0  0
   -1.8281    0.5855    4.7201 H   0  0  0  0  0  0  0  0  0  0  0  0
   -0.5171    1.5700    4.0260 H   0  0  0  0  0  0  0  0  0  0  0  0
  5  6  2  0  0  0  0
  5  7  1  0  0  0  0
  2  3  1  0  0  0  0
  2  4  1  0  0  0  0
  2  5  1  0  0  0  0
  1  2  1  0  0  0  0
 26 27  2  0  0  0  0
 26 28  1  0  0  0  0
 24 25  1  0  0  0  0
 22 23  1  0  0  0  0
 22 24  2  0  0  0  0
 20 21  1  0  0  0  0
 19 20  1  0  0  0  0
 19 22  1  0  0  0  0
 17 18  1  0  0  0  0
 17 19  2  0  0  0  0
 15 16  1  0  0  0  0
 15 17  1  0  0  0  0
 14 15  2  0  0  0  0
 14 24  1  0  0  0  0
 11 12  1  0  0  0  0
 11 13  1  0  0  0  0
 11 14  1  0  0  0  0
  9 10  1  0  0  0  0
  9 11  1  0  0  0  0
  9 26  1  0  0  0  0
  7  8  1  0  0  0  0
  7  9  1  0  0  0  0
 30 31  1  0  0  0  0
 30 32  1  0  0  0  0
 30 33  1  0  0  0  0
 28 29  1  0  0  0  0
 28 30  1  0  0  0  0
M  END
$$$$
default_name
  -OEChem-01062215323D

 33 33  0     1  0  0  0  0  0999 V2000
   -4.0702   -3.8485    1.4554 H   0  0  0  0  0  0  0  0  0  0  0  0
   -4.0012   -2.9605    0.8284 C   0  0  0  0  0  0  0  0  0  0  0  0
   -4.7652   -2.2435    1.1234 H   0  0  0  0  0  0  0  0  0  0  0  0
   -4.1352   -3.2385   -0.2156 H   0  0  0  0  0  0  0  0  0  0  0  0
   -2.6362   -2.3395    1.0094 C   0  0  0  0  0  0  0  0  0  0  0  0
   -1.8292   -2.8395    1.7814 O   0  0  0  0  0  0  0  0  0  0  0  0
   -2.3832   -1.2445    0.2964 N   0  0  0  0  0  0  0  0  0  0  0  0
   -3.1102   -0.8685   -0.2946 H   0  0  0  0  0  0  0  0  0  0  0  0
   -1.1292   -0.4875    0.3524 C   0  0  1  0  0  0  0  0  0  0  0  0
   -0.3234   -1.1708    0.6230 H   0  0  0  0  0  0  0  0  0  0  0  0
   -0.8223    0.0958   -1.0377 C   0  0  0  0  0  0  0  0  0  0  0  0
   -1.6861    0.6664   -1.3813 H   0  0  0  0  0  0  0  0  0  0  0  0
    0.0152    0.7902   -0.9525 H   0  0  0  0  0  0  0  0  0  0  0  0
   -0.5018   -0.9509   -2.0873 C   0  0  0  0  0  0  0  0  0  0  0  0
    0.7897   -1.5097   -2.1636 C   0  0  0  0  0  0  0  0  0  0  0  0
    1.5657   -1.1735   -1.4884 H   0  0  0  0  0  0  0  0  0  0  0  0
    1.0712   -2.5107   -3.1137 C   0  0  0  0  0  0  0  0  0  0  0  0
    2.0618   -2.9352   -3.1703 H   0  0  0  0  0  0  0  0  0  0  0  0
    0.0561   -2.9567   -3.9879 C   0  0  0  0  0  0  0  0  0  0  0  0
    0.3167   -3.9236   -4.9056 O   0  0  0  0  0  0  0  0  0  0  0  0
    1.2448   -4.1606   -4.9268 H   0  0  0  0  0  0  0  0  0  0  0  0
   -1.2370   -2.3998   -3.9068 C   0  0  0  0  0  0  0  0  0  0  0  0
   -2.0036   -2.7461   -4.5837 H   0  0  0  0  0  0  0  0  0  0  0  0
   -1.5141   -1.3963   -2.9592 C   0  0  0  0  0  0  0  0  0  0  0  0
   -2.5054   -0.9624   -2.9037 H   0  0  0  0  0  0  0  0  0  0  0  0
   -1.1955    0.6084    1.4292 C   0  0  0  0  0  0  0  0  0  0  0  0
   -1.3306    1.7885    1.1051 O   0  0  0  0  0  0  0  0  0  0  0  0
   -1.0976    0.2216    2.7075 N   0  0  0  0  0  0  0  0  0  0  0  0
   -0.9295   -0.7577    2.8869 H   0  0  0  0  0  0  0  0  0  0  0  0
   -1.1397    1.1316    3.8498 C   0  0  0  0  0  0  0  0  0  0  0  0
   -2.0101    1.7852    3.7711 H   0  0  0  0  0  0  0  0  0  0  0  0
   -1.1989    0.5645    4.7802 H   0  0  0  0  0  0  0  0  0  0  0  0
   -0.2392    1.7492    3.8607 H   0  0  0  0  0  0  0  0  0  0  0  0
  5  6  2  0  0  0  0
  5  7  1  0  0  0  0
  2  3  1  0  0  0  0
  2  4  1  0  0  0  0
  2  5  1  0  0  0  0
  1  2  1  0  0  0  0
 26 27  2  0  0  0  0
 26 28  1  0  0  0  0
 24 25  1  0  0  0  0
 22 23  1  0  0  0  0
 22 24  2  0  0  0  0
 20 21  1  0  0  0  0
 19 20  1  0  0  0  0
 19 22  1  0  0  0  0
 17 18  1  0  0  0  0
 17 19  2  0  0  0  0
 15 16  1  0  0  0  0
 15 17  1  0  0  0  0
 14 15  2  0  0  0  0
 14 24  1  0  0  0  0
 11 12  1  0  0  0  0
 11 13  1  0  0  0  0
 11 14  1  0  0  0  0
  9 10  1  0  0  0  0
  9 11  1  0  0  0  0
  9 26  1  0  0  0  0
  7  8  1  0  0  0  0
  7  9  1  0  0  0  0
 30 31  1  0  0  0  0
 30 32  1  0  0  0  0
 30 33  1  0  0  0  0
 28 29  1  0  0  0  0
 28 30  1  0  0  0  0
M  END
$$$$
default_name
  -OEChem-01062215323D

 33 33  0     1  0  0  0  0  0999 V2000
   -4.0702   -3.8485    1.4554 H   0  0  0  0  0  0  0  0  0  0  0  0
   -4.0012   -2.9605    0.8284 C   0  0  0  0  0  0  0  0  0  0  0  0
   -4.7652   -2.2435    1.1234 H   0  0  0  0  0  0  0  0  0  0  0  0
   -4.1352   -3.2385   -0.2156 H   0  0  0  0  0  0  0  0  0  0  0  0
   -2.6362   -2.3395    1.0094 C   0  0  0  0  0  0  0  0  0  0  0  0
   -1.8292   -2.8395    1.7814 O   0  0  0  0  0  0  0  0  0  0  0  0
   -2.3832   -1.2445    0.2964 N   0  0  0  0  0  0  0  0  0  0  0  0
   -3.1102   -0.8685   -0.2946 H   0  0  0  0  0  0  0  0  0  0  0  0
   -1.1292   -0.4875    0.3524 C   0  0  1  0  0  0  0  0  0  0  0  0
   -0.3234   -1.1708    0.6230 H   0  0  0  0  0  0  0  0  0  0  0  0
   -0.8223    0.0958   -1.0377 C   0  0  0  0  0  0  0  0  0  0  0  0
   -1.6861    0.6664   -1.3813 H   0  0  0  0  0  0  0  0  0  0  0  0
    0.0152    0.7902   -0.9525 H   0  0  0  0  0  0  0  0  0  0  0  0
   -0.5018   -0.9509   -2.0873 C   0  0  0  0  0  0  0  0  0  0  0  0
    0.7897   -1.5097   -2.1636 C   0  0  0  0  0  0  0  0  0  0  0  0
    1.5657   -1.1735   -1.4884 H   0  0  0  0  0  0  0  0  0  0  0  0
    1.0712   -2.5107   -3.1137 C   0  0  0  0  0  0  0  0  0  0  0  0
    2.0618   -2.9352   -3.1703 H   0  0  0  0  0  0  0  0  0  0  0  0
    0.0561   -2.9567   -3.9879 C   0  0  0  0  0  0  0  0  0  0  0  0
    0.3167   -3.9236   -4.9056 O   0  0  0  0  0  0  0  0  0  0  0  0
    1.2448   -4.1606   -4.9268 H   0  0  0  0  0  0  0  0  0  0  0  0
   -1.2370   -2.3998   -3.9068 C   0  0  0  0  0  0  0  0  0  0  0  0
   -2.0036   -2.7461   -4.5837 H   0  0  0  0  0  0  0  0  0  0  0  0
   -1.5141   -1.3963   -2.9592 C   0  0  0  0  0  0  0  0  0  0  0  0
   -2.5054   -0.9624   -2.9037 H   0  0  0  0  0  0  0  0  0  0  0  0
   -1.1955    0.6084    1.4292 C   0  0  0  0  0  0  0  0  0  0  0  0
   -1.6006    1.7352    1.1427 O   0  0  0  0  0  0  0  0  0  0  0  0
   -0.7960    0.2817    2.6649 N   0  0  0  0  0  0  0  0  0  0  0  0
   -0.4222   -0.6458    2.8042 H   0  0  0  0  0  0  0  0  0  0  0  0
   -0.7930    1.2010    3.8005 C   0  0  0  0  0  0  0  0  0  0  0  0
   -1.7674    1.6846    3.8885 H   0  0  0  0  0  0  0  0  0  0  0  0
   -0.5762    0.6589    4.7224 H   0  0  0  0  0  0  0  0  0  0  0  0
   -0.0337    1.9708    3.6478 H   0  0  0  0  0  0  0  0  0  0  0  0
  5  6  2  0  0  0  0
  5  7  1  0  0  0  0
  2  3  1  0  0  0  0
  2  4  1  0  0  0  0
  2  5  1  0  0  0  0
  1  2  1  0  0  0  0
 26 27  2  0  0  0  0
 26 28  1  0  0  0  0
 24 25  1  0  0  0  0
 22 23  1  0  0  0  0
 22 24  2  0  0  0  0
 20 21  1  0  0  0  0
 19 20  1  0  0  0  0
 19 22  1  0  0  0  0
 17 18  1  0  0  0  0
 17 19  2  0  0  0  0
 15 16  1  0  0  0  0
 15 17  1  0  0  0  0
 14 15  2  0  0  0  0
 14 24  1  0  0  0  0
 11 12  1  0  0  0  0
 11 13  1  0  0  0  0
 11 14  1  0  0  0  0
  9 10  1  0  0  0  0
  9 11  1  0  0  0  0
  9 26  1  0  0  0  0
  7  8  1  0  0  0  0
  7  9  1  0  0  0  0
 30 31  1  0  0  0  0
 30 32  1  0  0  0  0
 30 33  1  0  0  0  0
 28 29  1  0  0  0  0
 28 30  1  0  0  0  0
M  END
$$$$
default_name
  -OEChem-01062215323D

 33 33  0     1  0  0  0  0  0999 V2000
   -4.0702   -3.8485    1.4554 H   0  0  0  0  0  0  0  0  0  0  0  0
   -4.0012   -2.9605    0.8284 C   0  0  0  0  0  0  0  0  0  0  0  0
   -4.7652   -2.2435    1.1234 H   0  0  0  0  0  0  0  0  0  0  0  0
   -4.1352   -3.2385   -0.2156 H   0  0  0  0  0  0  0  0  0  0  0  0
   -2.6362   -2.3395    1.0094 C   0  0  0  0  0  0  0  0  0  0  0  0
   -1.8292   -2.8395    1.7814 O   0  0  0  0  0  0  0  0  0  0  0  0
   -2.3832   -1.2445    0.2964 N   0  0  0  0  0  0  0  0  0  0  0  0
   -3.1102   -0.8685   -0.2946 H   0  0  0  0  0  0  0  0  0  0  0  0
   -1.1292   -0.4875    0.3524 C   0  0  1  0  0  0  0  0  0  0  0  0
   -0.3234   -1.1708    0.6230 H   0  0  0  0  0  0  0  0  0  0  0  0
   -0.8223    0.0958   -1.0377 C   0  0  0  0  0  0  0  0  0  0  0  0
   -1.6861    0.6664   -1.3813 H   0  0  0  0  0  0  0  0  0  0  0  0
    0.0152    0.7902   -0.9525 H   0  0  0  0  0  0  0  0  0  0  0  0
   -0.5018   -0.9509   -2.0873 C   0  0  0  0  0  0  0  0  0  0  0  0
    0.7897   -1.5097   -2.1636 C   0  0  0  0  0  0  0  0  0  0  0  0
    1.5657   -1.1735   -1.4884 H   0  0  0  0  0  0  0  0  0  0  0  0
    1.0712   -2.5107   -3.1137 C   0  0  0  0  0  0  0  0  0  0  0  0
    2.0618   -2.9352   -3.1703 H   0  0  0  0  0  0  0  0  0  0  0  0
    0.0561   -2.9567   -3.9879 C   0  0  0  0  0  0  0  0  0  0  0  0
    0.3167   -3.9236   -4.9056 O   0  0  0  0  0  0  0  0  0  0  0  0
    1.2448   -4.1606   -4.9268 H   0  0  0  0  0  0  0  0  0  0  0  0
   -1.2370   -2.3998   -3.9068 C   0  0  0  0  0  0  0  0  0  0  0  0
   -2.0036   -2.7461   -4.5837 H   0  0  0  0  0  0  0  0  0  0  0  0
   -1.5141   -1.3963   -2.9592 C   0  0  0  0  0  0  0  0  0  0  0  0
   -2.5054   -0.9624   -2.9037 H   0  0  0  0  0  0  0  0  0  0  0  0
   -1.1955    0.6084    1.4292 C   0  0  0  0  0  0  0  0  0  0  0  0
   -1.8448    1.6353    1.2294 O   0  0  0  0  0  0  0  0  0  0  0  0
   -0.5235    0.3940    2.5674 N   0  0  0  0  0  0  0  0  0  0  0  0
    0.0323   -0.4467    2.6296 H   0  0  0  0  0  0  0  0  0  0  0  0
   -0.4798    1.3304    3.6881 C   0  0  0  0  0  0  0  0  0  0  0  0
   -1.4931    1.6327    3.9581 H   0  0  0  0  0  0  0  0  0  0  0  0
   -0.0025    0.8624    4.5506 H   0  0  0  0  0  0  0  0  0  0  0  0
    0.0853    2.2198    3.4018 H   0  0  0  0  0  0  0  0  0  0  0  0
  5  6  2  0  0  0  0
  5  7  1  0  0  0  0
  2  3  1  0  0  0  0
  2  4  1  0  0  0  0
  2  5  1  0  0  0  0
  1  2  1  0  0  0  0
 26 27  2  0  0  0  0
 26 28  1  0  0  0  0
 24 25  1  0  0  0  0
 22 23  1  0  0  0  0
 22 24  2  0  0  0  0
 20 21  1  0  0  0  0
 19 20  1  0  0  0  0
 19 22  1  0  0  0  0
 17 18  1  0  0  0  0
 17 19  2  0  0  0  0
 15 16  1  0  0  0  0
 15 17  1  0  0  0  0
 14 15  2  0  0  0  0
 14 24  1  0  0  0  0
 11 12  1  0  0  0  0
 11 13  1  0  0  0  0
 11 14  1  0  0  0  0
  9 10  1  0  0  0  0
  9 11  1  0  0  0  0
  9 26  1  0  0  0  0
  7  8  1  0  0  0  0
  7  9  1  0  0  0  0
 30 31  1  0  0  0  0
 30 32  1  0  0  0  0
 30 33  1  0  0  0  0
 28 29  1  0  0  0  0
 28 30  1  0  0  0  0
M  END
$$$$
default_name
  -OEChem-01062215323D

 33 33  0     1  0  0  0  0  0999 V2000
   -4.0702   -3.8485    1.4554 H   0  0  0  0  0  0  0  0  0  0  0  0
   -4.0012   -2.9605    0.8284 C   0  0  0  0  0  0  0  0  0  0  0  0
   -4.7652   -2.2435    1.1234 H   0  0  0  0  0  0  0  0  0  0  0  0
   -4.1352   -3.2385   -0.2156 H   0  0  0  0  0  0  0  0  0  0  0  0
   -2.6362   -2.3395    1.0094 C   0  0  0  0  0  0  0  0  0  0  0  0
   -1.8292   -2.8395    1.7814 O   0  0  0  0  0  0  0  0  0  0  0  0
   -2.3832   -1.2445    0.2964 N   0  0  0  0  0  0  0  0  0  0  0  0
   -3.1102   -0.8685   -0.2946 H   0  0  0  0  0  0  0  0  0  0  0  0
   -1.1292   -0.4875    0.3524 C   0  0  1  0  0  0  0  0  0  0  0  0
   -0.3234   -1.1708    0.6230 H   0  0  0  0  0  0  0  0  0  0  0  0
   -0.8223    0.0958   -1.0377 C   0  0  0  0  0  0  0  0  0  0  0  0
   -1.6861    0.6664   -1.3813 H   0  0  0  0  0  0  0  0  0  0  0  0
    0.0152    0.7902   -0.9525 H   0  0  0  0  0  0  0  0  0  0  0  0
   -0.5018   -0.9509   -2.0873 C   0  0  0  0  0  0  0  0  0  0  0  0
    0.7897   -1.5097   -2.1636 C   0  0  0  0  0  0  0  0  0  0  0  0
    1.5657   -1.1735   -1.4884 H   0  0  0  0  0  0  0  0  0  0  0  0
    1.0712   -2.5107   -3.1137 C   0  0  0  0  0  0  0  0  0  0  0  0
    2.0618   -2.9352   -3.1703 H   0  0  0  0  0  0  0  0  0  0  0  0
    0.0561   -2.9567   -3.9879 C   0  0  0  0  0  0  0  0  0  0  0  0
    0.3167   -3.9236   -4.9056 O   0  0  0  0  0  0  0  0  0  0  0  0
    1.2448   -4.1606   -4.9268 H   0  0  0  0  0  0  0  0  0  0  0  0
   -1.2370   -2.3998   -3.9068 C   0  0  0  0  0  0  0  0  0  0  0  0
   -2.0036   -2.7461   -4.5837 H   0  0  0  0  0  0  0  0  0  0  0  0
   -1.5141   -1.3963   -2.9592 C   0  0  0  0  0  0  0  0  0  0  0  0
   -2.5054   -0.9624   -2.9037 H   0  0  0  0  0  0  0  0  0  0  0  0
   -1.1955    0.6084    1.4292 C   0  0  0  0  0  0  0  0  0  0  0  0
   -2.0466    1.4954    1.3593 O   0  0  0  0  0  0  0  0  0  0  0  0
   -0.2985    0.5507    2.4218 N   0  0  0  0  0  0  0  0  0  0  0  0
    0.4030   -0.1740    2.3749 H   0  0  0  0  0  0  0  0  0  0  0  0
   -0.2215    1.5108    3.5204 C   0  0  0  0  0  0  0  0  0  0  0  0
   -1.2059    1.6331    3.9754 H   0  0  0  0  0  0  0  0  0  0  0  0
    0.4831    1.1610    4.2766 H   0  0  0  0  0  0  0  0  0  0  0  0
    0.1098    2.4791    3.1395 H   0  0  0  0  0  0  0  0  0  0  0  0
  5  6  2  0  0  0  0
  5  7  1  0  0  0  0
  2  3  1  0  0  0  0
  2  4  1  0  0  0  0
  2  5  1  0  0  0  0
  1  2  1  0  0  0  0
 26 27  2  0  0  0  0
 26 28  1  0  0  0  0
 24 25  1  0  0  0  0
 22 23  1  0  0  0  0
 22 24  2  0  0  0  0
 20 21  1  0  0  0  0
 19 20  1  0  0  0  0
 19 22  1  0  0  0  0
 17 18  1  0  0  0  0
 17 19  2  0  0  0  0
 15 16  1  0  0  0  0
 15 17  1  0  0  0  0
 14 15  2  0  0  0  0
 14 24  1  0  0  0  0
 11 12  1  0  0  0  0
 11 13  1  0  0  0  0
 11 14  1  0  0  0  0
  9 10  1  0  0  0  0
  9 11  1  0  0  0  0
  9 26  1  0  0  0  0
  7  8  1  0  0  0  0
  7  9  1  0  0  0  0
 30 31  1  0  0  0  0
 30 32  1  0  0  0  0
 30 33  1  0  0  0  0
 28 29  1  0  0  0  0
 28 30  1  0  0  0  0
M  END
$$$$
default_name
  -OEChem-01062215323D

 33 33  0     1  0  0  0  0  0999 V2000
   -4.0702   -3.8485    1.4554 H   0  0  0  0  0  0  0  0  0  0  0  0
   -4.0012   -2.9605    0.8284 C   0  0  0  0  0  0  0  0  0  0  0  0
   -4.7652   -2.2435    1.1234 H   0  0  0  0  0  0  0  0  0  0  0  0
   -4.1352   -3.2385   -0.2156 H   0  0  0  0  0  0  0  0  0  0  0  0
   -2.6362   -2.3395    1.0094 C   0  0  0  0  0  0  0  0  0  0  0  0
   -1.8292   -2.8395    1.7814 O   0  0  0  0  0  0  0  0  0  0  0  0
   -2.3832   -1.2445    0.2964 N   0  0  0  0  0  0  0  0  0  0  0  0
   -3.1102   -0.8685   -0.2946 H   0  0  0  0  0  0  0  0  0  0  0  0
   -1.1292   -0.4875    0.3524 C   0  0  1  0  0  0  0  0  0  0  0  0
   -0.3234   -1.1708    0.6230 H   0  0  0  0  0  0  0  0  0  0  0  0
   -0.8223    0.0958   -1.0377 C   0  0  0  0  0  0  0  0  0  0  0  0
   -1.6861    0.6664   -1.3813 H   0  0  0  0  0  0  0  0  0  0  0  0
    0.0152    0.7902   -0.9525 H   0  0  0  0  0  0  0  0  0  0  0  0
   -0.5018   -0.9509   -2.0873 C   0  0  0  0  0  0  0  0  0  0  0  0
    0.7897   -1.5097   -2.1636 C   0  0  0  0  0  0  0  0  0  0  0  0
    1.5657   -1.1735   -1.4884 H   0  0  0  0  0  0  0  0  0  0  0  0
    1.0712   -2.5107   -3.1137 C   0  0  0  0  0  0  0  0  0  0  0  0
    2.0618   -2.9352   -3.1703 H   0  0  0  0  0  0  0  0  0  0  0  0
    0.0561   -2.9567   -3.9879 C   0  0  0  0  0  0  0  0  0  0  0  0
    0.3167   -3.9236   -4.9056 O   0  0  0  0  0  0  0  0  0  0  0  0
    1.2448   -4.1606   -4.9268 H   0  0  0  0  0  0  0  0  0  0  0  0
   -1.2370   -2.3998   -3.9068 C   0  0  0  0  0  0  0  0  0  0  0  0
   -2.0036   -2.7461   -4.5837 H   0  0  0  0  0  0  0  0  0  0  0  0
   -1.5141   -1.3963   -2.9592 C   0  0  0  0  0  0  0  0  0  0  0  0
   -2.5054   -0.9624   -2.9037 H   0  0  0  0  0  0  0  0  0  0  0  0
   -1.1955    0.6084    1.4292 C   0  0  0  0  0  0  0  0  0  0  0  0
   -2.1922    1.3252    1.5236 O   0  0  0  0  0  0  0  0  0  0  0  0
   -0.1365    0.7412    2.2379 N   0  0  0  0  0  0  0  0  0  0  0  0
    0.6647    0.1538    2.0574 H   0  0  0  0  0  0  0  0  0  0  0  0
   -0.0356    1.7300    3.3087 C   0  0  0  0  0  0  0  0  0  0  0  0
   -0.9254    1.6857    3.9391 H   0  0  0  0  0  0  0  0  0  0  0  0
    0.8475    1.5343    3.9191 H   0  0  0  0  0  0  0  0  0  0  0  0
    0.0380    2.7310    2.8786 H   0  0  0  0  0  0  0  0  0  0  0  0
  5  6  2  0  0  0  0
  5  7  1  0  0  0  0
  2  3  1  0  0  0  0
  2  4  1  0  0  0  0
  2  5  1  0  0  0  0
  1  2  1  0  0  0  0
 26 27  2  0  0  0  0
 26 28  1  0  0  0  0
 24 25  1  0  0  0  0
 22 23  1  0  0  0  0
 22 24  2  0  0  0  0
 20 21  1  0  0  0  0
 19 20  1  0  0  0  0
 19 22  1  0  0  0  0
 17 18  1  0  0  0  0
 17 19  2  0  0  0  0
 15 16  1  0  0  0  0
 15 17  1  0  0  0  0
 14 15  2  0  0  0  0
 14 24  1  0  0  0  0
 11 12  1  0  0  0  0
 11 13  1  0  0  0  0
 11 14  1  0  0  0  0
  9 10  1  0  0  0  0
  9 11  1  0  0  0  0
  9 26  1  0  0  0  0
  7  8  1  0  0  0  0
  7  9  1  0  0  0  0
 30 31  1  0  0  0  0
 30 32  1  0  0  0  0
 30 33  1  0  0  0  0
 28 29  1  0  0  0  0
 28 30  1  0  0  0  0
M  END
$$$$
default_name
  -OEChem-01062215323D

 33 33  0     1  0  0  0  0  0999 V2000
   -4.0702   -3.8485    1.4554 H   0  0  0  0  0  0  0  0  0  0  0  0
   -4.0012   -2.9605    0.8284 C   0  0  0  0  0  0  0  0  0  0  0  0
   -4.7652   -2.2435    1.1234 H   0  0  0  0  0  0  0  0  0  0  0  0
   -4.1352   -3.2385   -0.2156 H   0  0  0  0  0  0  0  0  0  0  0  0
   -2.6362   -2.3395    1.0094 C   0  0  0  0  0  0  0  0  0  0  0  0
   -1.8292   -2.8395    1.7814 O   0  0  0  0  0  0  0  0  0  0  0  0
   -2.3832   -1.2445    0.2964 N   0  0  0  0  0  0  0  0  0  0  0  0
   -3.1102   -0.8685   -0.2946 H   0  0  0  0  0  0  0  0  0  0  0  0
   -1.1292   -0.4875    0.3524 C   0  0  1  0  0  0  0  0  0  0  0  0
   -0.3234   -1.1708    0.6230 H   0  0  0  0  0  0  0  0  0  0  0  0
   -0.8223    0.0958   -1.0377 C   0  0  0  0  0  0  0  0  0  0  0  0
   -1.6861    0.6664   -1.3813 H   0  0  0  0  0  0  0  0  0  0  0  0
    0.0152    0.7902   -0.9525 H   0  0  0  0  0  0  0  0  0  0  0  0
   -0.5018   -0.9509   -2.0873 C   0  0  0  0  0  0  0  0  0  0  0  0
    0.7897   -1.5097   -2.1636 C   0  0  0  0  0  0  0  0  0  0  0  0
    1.5657   -1.1735   -1.4884 H   0  0  0  0  0  0  0  0  0  0  0  0
    1.0712   -2.5107   -3.1137 C   0  0  0  0  0  0  0  0  0  0  0  0
    2.0618   -2.9352   -3.1703 H   0  0  0  0  0  0  0  0  0  0  0  0
    0.0561   -2.9567   -3.9879 C   0  0  0  0  0  0  0  0  0  0  0  0
    0.3167   -3.9236   -4.9056 O   0  0  0  0  0  0  0  0  0  0  0  0
    1.2448   -4.1606   -4.9268 H   0  0  0  0  0  0  0  0  0  0  0  0
   -1.2370   -2.3998   -3.9068 C   0  0  0  0  0  0  0  0  0  0  0  0
   -2.0036   -2.7461   -4.5837 H   0  0  0  0  0  0  0  0  0  0  0  0
   -1.5141   -1.3963   -2.9592 C   0  0  0  0  0  0  0  0  0  0  0  0
   -2.5054   -0.9624   -2.9037 H   0  0  0  0  0  0  0  0  0  0  0  0
   -1.1955    0.6084    1.4292 C   0  0  0  0  0  0  0  0  0  0  0  0
   -2.2716    1.1362    1.7110 O   0  0  0  0  0  0  0  0  0  0  0  0
   -0.0484    0.9526    2.0282 N   0  0  0  0  0  0  0  0  0  0  0  0
    0.7995    0.5143    1.6989 H   0  0  0  0  0  0  0  0  0  0  0  0
    0.0652    1.9731    3.0676 C   0  0  0  0  0  0  0  0  0  0  0  0
   -0.6706    1.7870    3.8518 H   0  0  0  0  0  0  0  0  0  0  0  0
    1.0659    1.9570    3.5024 H   0  0  0  0  0  0  0  0  0  0  0  0
   -0.1250    2.9585    2.6371 H   0  0  0  0  0  0  0  0  0  0  0  0
  5  6  2  0  0  0  0
  5  7  1  0  0  0  0
  2  3  1  0  0  0  0
  2  4  1  0  0  0  0
  2  5  1  0  0  0  0
  1  2  1  0  0  0  0
 26 27  2  0  0  0  0
 26 28  1  0  0  0  0
 24 25  1  0  0  0  0
 22 23  1  0  0  0  0
 22 24  2  0  0  0  0
 20 21  1  0  0  0  0
 19 20  1  0  0  0  0
 19 22  1  0  0  0  0
 17 18  1  0  0  0  0
 17 19  2  0  0  0  0
 15 16  1  0  0  0  0
 15 17  1  0  0  0  0
 14 15  2  0  0  0  0
 14 24  1  0  0  0  0
 11 12  1  0  0  0  0
 11 13  1  0  0  0  0
 11 14  1  0  0  0  0
  9 10  1  0  0  0  0
  9 11  1  0  0  0  0
  9 26  1  0  0  0  0
  7  8  1  0  0  0  0
  7  9  1  0  0  0  0
 30 31  1  0  0  0  0
 30 32  1  0  0  0  0
 30 33  1  0  0  0  0
 28 29  1  0  0  0  0
 28 30  1  0  0  0  0
M  END
$$$$
default_name
  -OEChem-01062215323D

 33 33  0     1  0  0  0  0  0999 V2000
   -4.0702   -3.8485    1.4554 H   0  0  0  0  0  0  0  0  0  0  0  0
   -4.0012   -2.9605    0.8284 C   0  0  0  0  0  0  0  0  0  0  0  0
   -4.7652   -2.2435    1.1234 H   0  0  0  0  0  0  0  0  0  0  0  0
   -4.1352   -3.2385   -0.2156 H   0  0  0  0  0  0  0  0  0  0  0  0
   -2.6362   -2.3395    1.0094 C   0  0  0  0  0  0  0  0  0  0  0  0
   -1.8292   -2.8395    1.7814 O   0  0  0  0  0  0  0  0  0  0  0  0
   -2.3832   -1.2445    0.2964 N   0  0  0  0  0  0  0  0  0  0  0  0
   -3.1102   -0.8685   -0.2946 H   0  0  0  0  0  0  0  0  0  0  0  0
   -1.1292   -0.4875    0.3524 C   0  0  1  0  0  0  0  0  0  0  0  0
   -0.3234   -1.1708    0.6230 H   0  0  0  0  0  0  0  0  0  0  0  0
   -0.8223    0.0958   -1.0377 C   0  0  0  0  0  0  0  0  0  0  0  0
   -1.6861    0.6664   -1.3813 H   0  0  0  0  0  0  0  0  0  0  0  0
    0.0152    0.7902   -0.9525 H   0  0  0  0  0  0  0  0  0  0  0  0
   -0.5018   -0.9509   -2.0873 C   0  0  0  0  0  0  0  0  0  0  0  0
    0.7897   -1.5097   -2.1636 C   0  0  0  0  0  0  0  0  0  0  0  0
    1.5657   -1.1735   -1.4884 H   0  0  0  0  0  0  0  0  0  0  0  0
    1.0712   -2.5107   -3.1137 C   0  0  0  0  0  0  0  0  0  0  0  0
    2.0618   -2.9352   -3.1703 H   0  0  0  0  0  0  0  0  0  0  0  0
    0.0561   -2.9567   -3.9879 C   0  0  0  0  0  0  0  0  0  0  0  0
    0.3167   -3.9236   -4.9056 O   0  0  0  0  0  0  0  0  0  0  0  0
    1.2448   -4.1606   -4.9268 H   0  0  0  0  0  0  0  0  0  0  0  0
   -1.2370   -2.3998   -3.9068 C   0  0  0  0  0  0  0  0  0  0  0  0
   -2.0036   -2.7461   -4.5837 H   0  0  0  0  0  0  0  0  0  0  0  0
   -1.5141   -1.3963   -2.9592 C   0  0  0  0  0  0  0  0  0  0  0  0
   -2.5054   -0.9624   -2.9037 H   0  0  0  0  0  0  0  0  0  0  0  0
   -1.1955    0.6084    1.4292 C   0  0  0  0  0  0  0  0  0  0  0  0
   -2.2796    0.9414    1.9087 O   0  0  0  0  0  0  0  0  0  0  0  0
   -0.0403    1.1704    1.8071 N   0  0  0  0  0  0  0  0  0  0  0  0
    0.7983    0.8829    1.3237 H   0  0  0  0  0  0  0  0  0  0  0  0
    0.0740    2.2235    2.8133 C   0  0  0  0  0  0  0  0  0  0  0  0
   -0.4590    1.9300    3.7193 H   0  0  0  0  0  0  0  0  0  0  0  0
    1.1234    2.4002    3.0549 H   0  0  0  0  0  0  0  0  0  0  0  0
   -0.3683    3.1460    2.4314 H   0  0  0  0  0  0  0  0  0  0  0  0
  5  6  2  0  0  0  0
  5  7  1  0  0  0  0
  2  3  1  0  0  0  0
  2  4  1  0  0  0  0
  2  5  1  0  0  0  0
  1  2  1  0  0  0  0
 26 27  2  0  0  0  0
 26 28  1  0  0  0  0
 24 25  1  0  0  0  0
 22 23  1  0  0  0  0
 22 24  2  0  0  0  0
 20 21  1  0  0  0  0
 19 20  1  0  0  0  0
 19 22  1  0  0  0  0
 17 18  1  0  0  0  0
 17 19  2  0  0  0  0
 15 16  1  0  0  0  0
 15 17  1  0  0  0  0
 14 15  2  0  0  0  0
 14 24  1  0  0  0  0
 11 12  1  0  0  0  0
 11 13  1  0  0  0  0
 11 14  1  0  0  0  0
  9 10  1  0  0  0  0
  9 11  1  0  0  0  0
  9 26  1  0  0  0  0
  7  8  1  0  0  0  0
  7  9  1  0  0  0  0
 30 31  1  0  0  0  0
 30 32  1  0  0  0  0
 30 33  1  0  0  0  0
 28 29  1  0  0  0  0
 28 30  1  0  0  0  0
M  END
$$$$
default_name
  -OEChem-01062215323D

 33 33  0     1  0  0  0  0  0999 V2000
   -4.0702   -3.8485    1.4554 H   0  0  0  0  0  0  0  0  0  0  0  0
   -4.0012   -2.9605    0.8284 C   0  0  0  0  0  0  0  0  0  0  0  0
   -4.7652   -2.2435    1.1234 H   0  0  0  0  0  0  0  0  0  0  0  0
   -4.1352   -3.2385   -0.2156 H   0  0  0  0  0  0  0  0  0  0  0  0
   -2.6362   -2.3395    1.0094 C   0  0  0  0  0  0  0  0  0  0  0  0
   -1.8292   -2.8395    1.7814 O   0  0  0  0  0  0  0  0  0  0  0  0
   -2.3832   -1.2445    0.2964 N   0  0  0  0  0  0  0  0  0  0  0  0
   -3.1102   -0.8685   -0.2946 H   0  0  0  0  0  0  0  0  0  0  0  0
   -1.1292   -0.4875    0.3524 C   0  0  1  0  0  0  0  0  0  0  0  0
   -0.2979   -1.1933    0.3553 H   0  0  0  0  0  0  0  0  0  0  0  0
   -1.0094    0.3957   -0.9016 C   0  0  0  0  0  0  0  0  0  0  0  0
   -1.9087    1.0064   -0.9922 H   0  0  0  0  0  0  0  0  0  0  0  0
   -0.1645    1.0749   -0.7761 H   0  0  0  0  0  0  0  0  0  0  0  0
   -0.8388   -0.3851   -2.1904 C   0  0  0  0  0  0  0  0  0  0  0  0
    0.4278   -0.8809   -2.5594 C   0  0  0  0  0  0  0  0  0  0  0  0
    1.2895   -0.6828   -1.9354 H   0  0  0  0  0  0  0  0  0  0  0  0
    0.5735   -1.6401   -3.7368 C   0  0  0  0  0  0  0  0  0  0  0  0
    1.5452   -2.0169   -4.0171 H   0  0  0  0  0  0  0  0  0  0  0  0
   -0.5524   -1.9073   -4.5457 C   0  0  0  0  0  0  0  0  0  0  0  0
   -0.4229   -2.6410   -5.6815 O   0  0  0  0  0  0  0  0  0  0  0  0
    0.4926   -2.8442   -5.8776 H   0  0  0  0  0  0  0  0  0  0  0  0
   -1.8200   -1.4146   -4.1723 C   0  0  0  0  0  0  0  0  0  0  0  0
   -2.6725   -1.6219   -4.8014 H   0  0  0  0  0  0  0  0  0  0  0  0
   -1.9616   -0.6521   -2.9973 C   0  0  0  0  0  0  0  0  0  0  0  0
   -2.9341   -0.2660   -2.7160 H   0  0  0  0  0  0  0  0  0  0  0  0
   -1.0441    0.3416    1.6447 C   0  0  0  0  0  0  0  0  0  0  0  0
   -1.9632    0.3093    2.4635 O   0  0  0  0  0  0  0  0  0  0  0  0
    0.0544    1.0853    1.8274 N   0  0  0  0  0  0  0  0  0  0  0  0
    0.7351    1.1027    1.0819 H   0  0  0  0  0  0  0  0  0  0  0  0
    0.2933    1.9303    2.9952 C   0  0  0  0  0  0  0  0  0  0  0  0
    0.1319    1.3548    3.9083 H   0  0  0  0  0  0  0  0  0  0  0  0
    1.3175    2.3066    2.9837 H   0  0  0  0  0  0  0  0  0  0  0  0
   -0.4007    2.7733    2.9867 H   0  0  0  0  0  0  0  0  0  0  0  0
  5  6  2  0  0  0  0
  5  7  1  0  0  0  0
  2  3  1  0  0  0  0
  2  4  1  0  0  0  0
  2  5  1  0  0  0  0
  1  2  1  0  0  0  0
 26 27  2  0  0  0  0
 26 28  1  0  0  0  0
 24 25  1  0  0  0  0
 22 23  1  0  0  0  0
 22 24  2  0  0  0  0
 20 21  1  0  0  0  0
 19 20  1  0  0  0  0
 19 22  1  0  0  0  0
 17 18  1  0  0  0  0
 17 19  2  0  0  0  0
 15 16  1  0  0  0  0
 15 17  1  0  0  0  0
 14 15  2  0  0  0  0
 14 24  1  0  0  0  0
 11 12  1  0  0  0  0
 11 13  1  0  0  0  0
 11 14  1  0  0  0  0
  9 10  1  0  0  0  0
  9 11  1  0  0  0  0
  9 26  1  0  0  0  0
  7  8  1  0  0  0  0
  7  9  1  0  0  0  0
 30 31  1  0  0  0  0
 30 32  1  0  0  0  0
 30 33  1  0  0  0  0
 28 29  1  0  0  0  0
 28 30  1  0  0  0  0
M  END
$$$$
default_name
  -OEChem-01062215323D

 33 33  0     1  0  0  0  0  0999 V2000
   -4.0702   -3.8485    1.4554 H   0  0  0  0  0  0  0  0  0  0  0  0
   -4.0012   -2.9605    0.8284 C   0  0  0  0  0  0  0  0  0  0  0  0
   -4.7652   -2.2435    1.1234 H   0  0  0  0  0  0  0  0  0  0  0  0
   -4.1352   -3.2385   -0.2156 H   0  0  0  0  0  0  0  0  0  0  0  0
   -2.6362   -2.3395    1.0094 C   0  0  0  0  0  0  0  0  0  0  0  0
   -1.8292   -2.8395    1.7814 O   0  0  0  0  0  0  0  0  0  0  0  0
   -2.3832   -1.2445    0.2964 N   0  0  0  0  0  0  0  0  0  0  0  0
   -3.1102   -0.8685   -0.2946 H   0  0  0  0  0  0  0  0  0  0  0  0
   -1.1292   -0.4875    0.3524 C   0  0  1  0  0  0  0  0  0  0  0  0
   -0.2979   -1.1933    0.3553 H   0  0  0  0  0  0  0  0  0  0  0  0
   -1.0094    0.3957   -0.9016 C   0  0  0  0  0  0  0  0  0  0  0  0
   -1.9087    1.0064   -0.9922 H   0  0  0  0  0  0  0  0  0  0  0  0
   -0.1645    1.0749   -0.7761 H   0  0  0  0  0  0  0  0  0  0  0  0
   -0.8388   -0.3851   -2.1904 C   0  0  0  0  0  0  0  0  0  0  0  0
    0.4278   -0.8809   -2.5594 C   0  0  0  0  0  0  0  0  0  0  0  0
    1.2895   -0.6828   -1.9354 H   0  0  0  0  0  0  0  0  0  0  0  0
    0.5735   -1.6401   -3.7368 C   0  0  0  0  0  0  0  0  0  0  0  0
    1.5452   -2.0169   -4.0171 H   0  0  0  0  0  0  0  0  0  0  0  0
   -0.5524   -1.9073   -4.5457 C   0  0  0  0  0  0  0  0  0  0  0  0
   -0.4229   -2.6410   -5.6815 O   0  0  0  0  0  0  0  0  0  0  0  0
    0.4926   -2.8442   -5.8776 H   0  0  0  0  0  0  0  0  0  0  0  0
   -1.8200   -1.4146   -4.1723 C   0  0  0  0  0  0  0  0  0  0  0  0
   -2.6725   -1.6219   -4.8014 H   0  0  0  0  0  0  0  0  0  0  0  0
   -1.9616   -0.6521   -2.9973 C   0  0  0  0  0  0  0  0  0  0  0  0
   -2.9341   -0.2660   -2.7160 H   0  0  0  0  0  0  0  0  0  0  0  0
   -1.0441    0.3416    1.6447 C   0  0  0  0  0  0  0  0  0  0  0  0
   -1.8094    0.1102    2.5812 O   0  0  0  0  0  0  0  0  0  0  0  0
   -0.1182    1.3076    1.6962 N   0  0  0  0  0  0  0  0  0  0  0  0
    0.4305    1.4725    0.8647 H   0  0  0  0  0  0  0  0  0  0  0  0
    0.0945    2.1856    2.8445 C   0  0  0  0  0  0  0  0  0  0  0  0
    0.1921    1.5898    3.7536 H   0  0  0  0  0  0  0  0  0  0  0  0
    1.0008    2.7766    2.7030 H   0  0  0  0  0  0  0  0  0  0  0  0
   -0.7596    2.8566    2.9569 H   0  0  0  0  0  0  0  0  0  0  0  0
  5  6  2  0  0  0  0
  5  7  1  0  0  0  0
  2  3  1  0  0  0  0
  2  4  1  0  0  0  0
  2  5  1  0  0  0  0
  1  2  1  0  0  0  0
 26 27  2  0  0  0  0
 26 28  1  0  0  0  0
 24 25  1  0  0  0  0
 22 23  1  0  0  0  0
 22 24  2  0  0  0  0
 20 21  1  0  0  0  0
 19 20  1  0  0  0  0
 19 22  1  0  0  0  0
 17 18  1  0  0  0  0
 17 19  2  0  0  0  0
 15 16  1  0  0  0  0
 15 17  1  0  0  0  0
 14 15  2  0  0  0  0
 14 24  1  0  0  0  0
 11 12  1  0  0  0  0
 11 13  1  0  0  0  0
 11 14  1  0  0  0  0
  9 10  1  0  0  0  0
  9 11  1  0  0  0  0
  9 26  1  0  0  0  0
  7  8  1  0  0  0  0
  7  9  1  0  0  0  0
 30 31  1  0  0  0  0
 30 32  1  0  0  0  0
 30 33  1  0  0  0  0
 28 29  1  0  0  0  0
 28 30  1  0  0  0  0
M  END
$$$$
default_name
  -OEChem-01062215323D

 33 33  0     1  0  0  0  0  0999 V2000
   -4.0702   -3.8485    1.4554 H   0  0  0  0  0  0  0  0  0  0  0  0
   -4.0012   -2.9605    0.8284 C   0  0  0  0  0  0  0  0  0  0  0  0
   -4.7652   -2.2435    1.1234 H   0  0  0  0  0  0  0  0  0  0  0  0
   -4.1352   -3.2385   -0.2156 H   0  0  0  0  0  0  0  0  0  0  0  0
   -2.6362   -2.3395    1.0094 C   0  0  0  0  0  0  0  0  0  0  0  0
   -1.8292   -2.8395    1.7814 O   0  0  0  0  0  0  0  0  0  0  0  0
   -2.3832   -1.2445    0.2964 N   0  0  0  0  0  0  0  0  0  0  0  0
   -3.1102   -0.8685   -0.2946 H   0  0  0  0  0  0  0  0  0  0  0  0
   -1.1292   -0.4875    0.3524 C   0  0  1  0  0  0  0  0  0  0  0  0
   -0.2979   -1.1933    0.3553 H   0  0  0  0  0  0  0  0  0  0  0  0
   -1.0094    0.3957   -0.9016 C   0  0  0  0  0  0  0  0  0  0  0  0
   -1.9087    1.0064   -0.9922 H   0  0  0  0  0  0  0  0  0  0  0  0
   -0.1645    1.0749   -0.7761 H   0  0  0  0  0  0  0  0  0  0  0  0
   -0.8388   -0.3851   -2.1904 C   0  0  0  0  0  0  0  0  0  0  0  0
    0.4278   -0.8809   -2.5594 C   0  0  0  0  0  0  0  0  0  0  0  0
    1.2895   -0.6828   -1.9354 H   0  0  0  0  0  0  0  0  0  0  0  0
    0.5735   -1.6401   -3.7368 C   0  0  0  0  0  0  0  0  0  0  0  0
    1.5452   -2.0169   -4.0171 H   0  0  0  0  0  0  0  0  0  0  0  0
   -0.5524   -1.9073   -4.5457 C   0  0  0  0  0  0  0  0  0  0  0  0
   -0.4229   -2.6410   -5.6815 O   0  0  0  0  0  0  0  0  0  0  0  0
    0.4926   -2.8442   -5.8776 H   0  0  0  0  0  0  0  0  0  0  0  0
   -1.8200   -1.4146   -4.1723 C   0  0  0  0  0  0  0  0  0  0  0  0
   -2.6725   -1.6219   -4.8014 H   0  0  0  0  0  0  0  0  0  0  0  0
   -1.9616   -0.6521   -2.9973 C   0  0  0  0  0  0  0  0  0  0  0  0
   -2.9341   -0.2660   -2.7160 H   0  0  0  0  0  0  0  0  0  0  0  0
   -1.0441    0.3416    1.6447 C   0  0  0  0  0  0  0  0  0  0  0  0
   -1.6011   -0.0505    2.6705 O   0  0  0  0  0  0  0  0  0  0  0  0
   -0.3515    1.4866    1.5967 N   0  0  0  0  0  0  0  0  0  0  0  0
    0.0255    1.7665    0.7028 H   0  0  0  0  0  0  0  0  0  0  0  0
   -0.1741    2.3912    2.7303 C   0  0  0  0  0  0  0  0  0  0  0  0
    0.1775    1.8321    3.5991 H   0  0  0  0  0  0  0  0  0  0  0  0
    0.5535    3.1658    2.4828 H   0  0  0  0  0  0  0  0  0  0  0  0
   -1.1286    2.8595    2.9794 H   0  0  0  0  0  0  0  0  0  0  0  0
  5  6  2  0  0  0  0
  5  7  1  0  0  0  0
  2  3  1  0  0  0  0
  2  4  1  0  0  0  0
  2  5  1  0  0  0  0
  1  2  1  0  0  0  0
 26 27  2  0  0  0  0
 26 28  1  0  0  0  0
 24 25  1  0  0  0  0
 22 23  1  0  0  0  0
 22 24  2  0  0  0  0
 20 21  1  0  0  0  0
 19 20  1  0  0  0  0
 19 22  1  0  0  0  0
 17 18  1  0  0  0  0
 17 19  2  0  0  0  0
 15 16  1  0  0  0  0
 15 17  1  0  0  0  0
 14 15  2  0  0  0  0
 14 24  1  0  0  0  0
 11 12  1  0  0  0  0
 11 13  1  0  0  0  0
 11 14  1  0  0  0  0
  9 10  1  0  0  0  0
  9 11  1  0  0  0  0
  9 26  1  0  0  0  0
  7  8  1  0  0  0  0
  7  9  1  0  0  0  0
 30 31  1  0  0  0  0
 30 32  1  0  0  0  0
 30 33  1  0  0  0  0
 28 29  1  0  0  0  0
 28 30  1  0  0  0  0
M  END
$$$$
default_name
  -OEChem-01062215323D

 33 33  0     1  0  0  0  0  0999 V2000
   -4.0702   -3.8485    1.4554 H   0  0  0  0  0  0  0  0  0  0  0  0
   -4.0012   -2.9605    0.8284 C   0  0  0  0  0  0  0  0  0  0  0  0
   -4.7652   -2.2435    1.1234 H   0  0  0  0  0  0  0  0  0  0  0  0
   -4.1352   -3.2385   -0.2156 H   0  0  0  0  0  0  0  0  0  0  0  0
   -2.6362   -2.3395    1.0094 C   0  0  0  0  0  0  0  0  0  0  0  0
   -1.8292   -2.8395    1.7814 O   0  0  0  0  0  0  0  0  0  0  0  0
   -2.3832   -1.2445    0.2964 N   0  0  0  0  0  0  0  0  0  0  0  0
   -3.1102   -0.8685   -0.2946 H   0  0  0  0  0  0  0  0  0  0  0  0
   -1.1292   -0.4875    0.3524 C   0  0  1  0  0  0  0  0  0  0  0  0
   -0.2979   -1.1933    0.3553 H   0  0  0  0  0  0  0  0  0  0  0  0
   -1.0094    0.3957   -0.9016 C   0  0  0  0  0  0  0  0  0  0  0  0
   -1.9087    1.0064   -0.9922 H   0  0  0  0  0  0  0  0  0  0  0  0
   -0.1645    1.0749   -0.7761 H   0  0  0  0  0  0  0  0  0  0  0  0
   -0.8388   -0.3851   -2.1904 C   0  0  0  0  0  0  0  0  0  0  0  0
    0.4278   -0.8809   -2.5594 C   0  0  0  0  0  0  0  0  0  0  0  0
    1.2895   -0.6828   -1.9354 H   0  0  0  0  0  0  0  0  0  0  0  0
    0.5735   -1.6401   -3.7368 C   0  0  0  0  0  0  0  0  0  0  0  0
    1.5452   -2.0169   -4.0171 H   0  0  0  0  0  0  0  0  0  0  0  0
   -0.5524   -1.9073   -4.5457 C   0  0  0  0  0  0  0  0  0  0  0  0
   -0.4229   -2.6410   -5.6815 O   0  0  0  0  0  0  0  0  0  0  0  0
    0.4926   -2.8442   -5.8776 H   0  0  0  0  0  0  0  0  0  0  0  0
   -1.8200   -1.4146   -4.1723 C   0  0  0  0  0  0  0  0  0  0  0  0
   -2.6725   -1.6219   -4.8014 H   0  0  0  0  0  0  0  0  0  0  0  0
   -1.9616   -0.6521   -2.9973 C   0  0  0  0  0  0  0  0  0  0  0  0
   -2.9341   -0.2660   -2.7160 H   0  0  0  0  0  0  0  0  0  0  0  0
   -1.0441    0.3416    1.6447 C   0  0  0  0  0  0  0  0  0  0  0  0
   -1.3526   -0.1616    2.7254 O   0  0  0  0  0  0  0  0  0  0  0  0
   -0.6297    1.6103    1.5357 N   0  0  0  0  0  0  0  0  0  0  0  0
   -0.4522    1.9648    0.6071 H   0  0  0  0  0  0  0  0  0  0  0  0
   -0.4942    2.5330    2.6605 C   0  0  0  0  0  0  0  0  0  0  0  0
    0.0891    2.0651    3.4554 H   0  0  0  0  0  0  0  0  0  0  0  0
    0.0061    3.4476    2.3381 H   0  0  0  0  0  0  0  0  0  0  0  0
   -1.4825    2.7816    3.0527 H   0  0  0  0  0  0  0  0  0  0  0  0
  5  6  2  0  0  0  0
  5  7  1  0  0  0  0
  2  3  1  0  0  0  0
  2  4  1  0  0  0  0
  2  5  1  0  0  0  0
  1  2  1  0  0  0  0
 26 27  2  0  0  0  0
 26 28  1  0  0  0  0
 24 25  1  0  0  0  0
 22 23  1  0  0  0  0
 22 24  2  0  0  0  0
 20 21  1  0  0  0  0
 19 20  1  0  0  0  0
 19 22  1  0  0  0  0
 17 18  1  0  0  0  0
 17 19  2  0  0  0  0
 15 16  1  0  0  0  0
 15 17  1  0  0  0  0
 14 15  2  0  0  0  0
 14 24  1  0  0  0  0
 11 12  1  0  0  0  0
 11 13  1  0  0  0  0
 11 14  1  0  0  0  0
  9 10  1  0  0  0  0
  9 11  1  0  0  0  0
  9 26  1  0  0  0  0
  7  8  1  0  0  0  0
  7  9  1  0  0  0  0
 30 31  1  0  0  0  0
 30 32  1  0  0  0  0
 30 33  1  0  0  0  0
 28 29  1  0  0  0  0
 28 30  1  0  0  0  0
M  END
$$$$
default_name
  -OEChem-01062215323D

 33 33  0     1  0  0  0  0  0999 V2000
   -4.0702   -3.8485    1.4554 H   0  0  0  0  0  0  0  0  0  0  0  0
   -4.0012   -2.9605    0.8284 C   0  0  0  0  0  0  0  0  0  0  0  0
   -4.7652   -2.2435    1.1234 H   0  0  0  0  0  0  0  0  0  0  0  0
   -4.1352   -3.2385   -0.2156 H   0  0  0  0  0  0  0  0  0  0  0  0
   -2.6362   -2.3395    1.0094 C   0  0  0  0  0  0  0  0  0  0  0  0
   -1.8292   -2.8395    1.7814 O   0  0  0  0  0  0  0  0  0  0  0  0
   -2.3832   -1.2445    0.2964 N   0  0  0  0  0  0  0  0  0  0  0  0
   -3.1102   -0.8685   -0.2946 H   0  0  0  0  0  0  0  0  0  0  0  0
   -1.1292   -0.4875    0.3524 C   0  0  1  0  0  0  0  0  0  0  0  0
   -0.2979   -1.1933    0.3553 H   0  0  0  0  0  0  0  0  0  0  0  0
   -1.0094    0.3957   -0.9016 C   0  0  0  0  0  0  0  0  0  0  0  0
   -1.9087    1.0064   -0.9922 H   0  0  0  0  0  0  0  0  0  0  0  0
   -0.1645    1.0749   -0.7761 H   0  0  0  0  0  0  0  0  0  0  0  0
   -0.8388   -0.3851   -2.1904 C   0  0  0  0  0  0  0  0  0  0  0  0
    0.4278   -0.8809   -2.5594 C   0  0  0  0  0  0  0  0  0  0  0  0
    1.2895   -0.6828   -1.9354 H   0  0  0  0  0  0  0  0  0  0  0  0
    0.5735   -1.6401   -3.7368 C   0  0  0  0  0  0  0  0  0  0  0  0
    1.5452   -2.0169   -4.0171 H   0  0  0  0  0  0  0  0  0  0  0  0
   -0.5524   -1.9073   -4.5457 C   0  0  0  0  0  0  0  0  0  0  0  0
   -0.4229   -2.6410   -5.6815 O   0  0  0  0  0  0  0  0  0  0  0  0
    0.4926   -2.8442   -5.8776 H   0  0  0  0  0  0  0  0  0  0  0  0
   -1.8200   -1.4146   -4.1723 C   0  0  0  0  0  0  0  0  0  0  0  0
   -2.6725   -1.6219   -4.8014 H   0  0  0  0  0  0  0  0  0  0  0  0
   -1.9616   -0.6521   -2.9973 C   0  0  0  0  0  0  0  0  0  0  0  0
   -2.9341   -0.2660   -2.7160 H   0  0  0  0  0  0  0  0  0  0  0  0
   -1.0441    0.3416    1.6447 C   0  0  0  0  0  0  0  0  0  0  0  0
   -1.0806   -0.2156    2.7421 O   0  0  0  0  0  0  0  0  0  0  0  0
   -0.9338    1.6700    1.5174 N   0  0  0  0  0  0  0  0  0  0  0  0
   -0.9702    2.0537    0.5842 H   0  0  0  0  0  0  0  0  0  0  0  0
   -0.8439    2.6013    2.6397 C   0  0  0  0  0  0  0  0  0  0  0  0
   -0.0670    2.2731    3.3323 H   0  0  0  0  0  0  0  0  0  0  0  0
   -0.6041    3.6028    2.2788 H   0  0  0  0  0  0  0  0  0  0  0  0
   -1.7971    2.6284    3.1717 H   0  0  0  0  0  0  0  0  0  0  0  0
  5  6  2  0  0  0  0
  5  7  1  0  0  0  0
  2  3  1  0  0  0  0
  2  4  1  0  0  0  0
  2  5  1  0  0  0  0
  1  2  1  0  0  0  0
 26 27  2  0  0  0  0
 26 28  1  0  0  0  0
 24 25  1  0  0  0  0
 22 23  1  0  0  0  0
 22 24  2  0  0  0  0
 20 21  1  0  0  0  0
 19 20  1  0  0  0  0
 19 22  1  0  0  0  0
 17 18  1  0  0  0  0
 17 19  2  0  0  0  0
 15 16  1  0  0  0  0
 15 17  1  0  0  0  0
 14 15  2  0  0  0  0
 14 24  1  0  0  0  0
 11 12  1  0  0  0  0
 11 13  1  0  0  0  0
 11 14  1  0  0  0  0
  9 10  1  0  0  0  0
  9 11  1  0  0  0  0
  9 26  1  0  0  0  0
  7  8  1  0  0  0  0
  7  9  1  0  0  0  0
 30 31  1  0  0  0  0
 30 32  1  0  0  0  0
 30 33  1  0  0  0  0
 28 29  1  0  0  0  0
 28 30  1  0  0  0  0
M  END
$$$$
default_name
  -OEChem-01062215323D

 33 33  0     1  0  0  0  0  0999 V2000
   -4.0702   -3.8485    1.4554 H   0  0  0  0  0  0  0  0  0  0  0  0
   -4.0012   -2.9605    0.8284 C   0  0  0  0  0  0  0  0  0  0  0  0
   -4.7652   -2.2435    1.1234 H   0  0  0  0  0  0  0  0  0  0  0  0
   -4.1352   -3.2385   -0.2156 H   0  0  0  0  0  0  0  0  0  0  0  0
   -2.6362   -2.3395    1.0094 C   0  0  0  0  0  0  0  0  0  0  0  0
   -1.8292   -2.8395    1.7814 O   0  0  0  0  0  0  0  0  0  0  0  0
   -2.3832   -1.2445    0.2964 N   0  0  0  0  0  0  0  0  0  0  0  0
   -3.1102   -0.8685   -0.2946 H   0  0  0  0  0  0  0  0  0  0  0  0
   -1.1292   -0.4875    0.3524 C   0  0  1  0  0  0  0  0  0  0  0  0
   -0.2979   -1.1933    0.3553 H   0  0  0  0  0  0  0  0  0  0  0  0
   -1.0094    0.3957   -0.9016 C   0  0  0  0  0  0  0  0  0  0  0  0
   -1.9087    1.0064   -0.9922 H   0  0  0  0  0  0  0  0  0  0  0  0
   -0.1645    1.0749   -0.7761 H   0  0  0  0  0  0  0  0  0  0  0  0
   -0.8388   -0.3851   -2.1904 C   0  0  0  0  0  0  0  0  0  0  0  0
    0.4278   -0.8809   -2.5594 C   0  0  0  0  0  0  0  0  0  0  0  0
    1.2895   -0.6828   -1.9354 H   0  0  0  0  0  0  0  0  0  0  0  0
    0.5735   -1.6401   -3.7368 C   0  0  0  0  0  0  0  0  0  0  0  0
    1.5452   -2.0169   -4.0171 H   0  0  0  0  0  0  0  0  0  0  0  0
   -0.5524   -1.9073   -4.5457 C   0  0  0  0  0  0  0  0  0  0  0  0
   -0.4229   -2.6410   -5.6815 O   0  0  0  0  0  0  0  0  0  0  0  0
    0.4926   -2.8442   -5.8776 H   0  0  0  0  0  0  0  0  0  0  0  0
   -1.8200   -1.4146   -4.1723 C   0  0  0  0  0  0  0  0  0  0  0  0
   -2.6725   -1.6219   -4.8014 H   0  0  0  0  0  0  0  0  0  0  0  0
   -1.9616   -0.6521   -2.9973 C   0  0  0  0  0  0  0  0  0  0  0  0
   -2.9341   -0.2660   -2.7160 H   0  0  0  0  0  0  0  0  0  0  0  0
   -1.0441    0.3416    1.6447 C   0  0  0  0  0  0  0  0  0  0  0  0
   -0.8039   -0.2089    2.7196 O   0  0  0  0  0  0  0  0  0  0  0  0
   -1.2431    1.6619    1.5431 N   0  0  0  0  0  0  0  0  0  0  0  0
   -1.4930    2.0273    0.6356 H   0  0  0  0  0  0  0  0  0  0  0  0
   -1.1995    2.5915    2.6694 C   0  0  0  0  0  0  0  0  0  0  0  0
   -0.2801    2.4418    3.2381 H   0  0  0  0  0  0  0  0  0  0  0  0
   -1.2356    3.6208    2.3088 H   0  0  0  0  0  0  0  0  0  0  0  0
   -2.0511    2.4102    3.3284 H   0  0  0  0  0  0  0  0  0  0  0  0
  5  6  2  0  0  0  0
  5  7  1  0  0  0  0
  2  3  1  0  0  0  0
  2  4  1  0  0  0  0
  2  5  1  0  0  0  0
  1  2  1  0  0  0  0
 26 27  2  0  0  0  0
 26 28  1  0  0  0  0
 24 25  1  0  0  0  0
 22 23  1  0  0  0  0
 22 24  2  0  0  0  0
 20 21  1  0  0  0  0
 19 20  1  0  0  0  0
 19 22  1  0  0  0  0
 17 18  1  0  0  0  0
 17 19  2  0  0  0  0
 15 16  1  0  0  0  0
 15 17  1  0  0  0  0
 14 15  2  0  0  0  0
 14 24  1  0  0  0  0
 11 12  1  0  0  0  0
 11 13  1  0  0  0  0
 11 14  1  0  0  0  0
  9 10  1  0  0  0  0
  9 11  1  0  0  0  0
  9 26  1  0  0  0  0
  7  8  1  0  0  0  0
  7  9  1  0  0  0  0
 30 31  1  0  0  0  0
 30 32  1  0  0  0  0
 30 33  1  0  0  0  0
 28 29  1  0  0  0  0
 28 30  1  0  0  0  0
M  END
$$$$
default_name
  -OEChem-01062215323D

 33 33  0     1  0  0  0  0  0999 V2000
   -4.0702   -3.8485    1.4554 H   0  0  0  0  0  0  0  0  0  0  0  0
   -4.0012   -2.9605    0.8284 C   0  0  0  0  0  0  0  0  0  0  0  0
   -4.7652   -2.2435    1.1234 H   0  0  0  0  0  0  0  0  0  0  0  0
   -4.1352   -3.2385   -0.2156 H   0  0  0  0  0  0  0  0  0  0  0  0
   -2.6362   -2.3395    1.0094 C   0  0  0  0  0  0  0  0  0  0  0  0
   -1.8292   -2.8395    1.7814 O   0  0  0  0  0  0  0  0  0  0  0  0
   -2.3832   -1.2445    0.2964 N   0  0  0  0  0  0  0  0  0  0  0  0
   -3.1102   -0.8685   -0.2946 H   0  0  0  0  0  0  0  0  0  0  0  0
   -1.1292   -0.4875    0.3524 C   0  0  1  0  0  0  0  0  0  0  0  0
   -0.2979   -1.1933    0.3553 H   0  0  0  0  0  0  0  0  0  0  0  0
   -1.0094    0.3957   -0.9016 C   0  0  0  0  0  0  0  0  0  0  0  0
   -1.9087    1.0064   -0.9922 H   0  0  0  0  0  0  0  0  0  0  0  0
   -0.1645    1.0749   -0.7761 H   0  0  0  0  0  0  0  0  0  0  0  0
   -0.8388   -0.3851   -2.1904 C   0  0  0  0  0  0  0  0  0  0  0  0
    0.4278   -0.8809   -2.5594 C   0  0  0  0  0  0  0  0  0  0  0  0
    1.2895   -0.6828   -1.9354 H   0  0  0  0  0  0  0  0  0  0  0  0
    0.5735   -1.6401   -3.7368 C   0  0  0  0  0  0  0  0  0  0  0  0
    1.5452   -2.0169   -4.0171 H   0  0  0  0  0  0  0  0  0  0  0  0
   -0.5524   -1.9073   -4.5457 C   0  0  0  0  0  0  0  0  0  0  0  0
   -0.4229   -2.6410   -5.6815 O   0  0  0  0  0  0  0  0  0  0  0  0
    0.4926   -2.8442   -5.8776 H   0  0  0  0  0  0  0  0  0  0  0  0
   -1.8200   -1.4146   -4.1723 C   0  0  0  0  0  0  0  0  0  0  0  0
   -2.6725   -1.6219   -4.8014 H   0  0  0  0  0  0  0  0  0  0  0  0
   -1.9616   -0.6521   -2.9973 C   0  0  0  0  0  0  0  0  0  0  0  0
   -2.9341   -0.2660   -2.7160 H   0  0  0  0  0  0  0  0  0  0  0  0
   -1.0441    0.3416    1.6447 C   0  0  0  0  0  0  0  0  0  0  0  0
   -0.5412   -0.1420    2.6593 O   0  0  0  0  0  0  0  0  0  0  0  0
   -1.5365    1.5864    1.6108 N   0  0  0  0  0  0  0  0  0  0  0  0
   -1.9851    1.8873    0.7578 H   0  0  0  0  0  0  0  0  0  0  0  0
   -1.5367    2.5043    2.7476 C   0  0  0  0  0  0  0  0  0  0  0  0
   -0.5359    2.5598    3.1793 H   0  0  0  0  0  0  0  0  0  0  0  0
   -1.8453    3.5004    2.4262 H   0  0  0  0  0  0  0  0  0  0  0  0
   -2.2271    2.1420    3.5121 H   0  0  0  0  0  0  0  0  0  0  0  0
  5  6  2  0  0  0  0
  5  7  1  0  0  0  0
  2  3  1  0  0  0  0
  2  4  1  0  0  0  0
  2  5  1  0  0  0  0
  1  2  1  0  0  0  0
 26 27  2  0  0  0  0
 26 28  1  0  0  0  0
 24 25  1  0  0  0  0
 22 23  1  0  0  0  0
 22 24  2  0  0  0  0
 20 21  1  0  0  0  0
 19 20  1  0  0  0  0
 19 22  1  0  0  0  0
 17 18  1  0  0  0  0
 17 19  2  0  0  0  0
 15 16  1  0  0  0  0
 15 17  1  0  0  0  0
 14 15  2  0  0  0  0
 14 24  1  0  0  0  0
 11 12  1  0  0  0  0
 11 13  1  0  0  0  0
 11 14  1  0  0  0  0
  9 10  1  0  0  0  0
  9 11  1  0  0  0  0
  9 26  1  0  0  0  0
  7  8  1  0  0  0  0
  7  9  1  0  0  0  0
 30 31  1  0  0  0  0
 30 32  1  0  0  0  0
 30 33  1  0  0  0  0
 28 29  1  0  0  0  0
 28 30  1  0  0  0  0
M  END
$$$$
default_name
  -OEChem-01062215323D

 33 33  0     1  0  0  0  0  0999 V2000
   -4.0702   -3.8485    1.4554 H   0  0  0  0  0  0  0  0  0  0  0  0
   -4.0012   -2.9605    0.8284 C   0  0  0  0  0  0  0  0  0  0  0  0
   -4.7652   -2.2435    1.1234 H   0  0  0  0  0  0  0  0  0  0  0  0
   -4.1352   -3.2385   -0.2156 H   0  0  0  0  0  0  0  0  0  0  0  0
   -2.6362   -2.3395    1.0094 C   0  0  0  0  0  0  0  0  0  0  0  0
   -1.8292   -2.8395    1.7814 O   0  0  0  0  0  0  0  0  0  0  0  0
   -2.3832   -1.2445    0.2964 N   0  0  0  0  0  0  0  0  0  0  0  0
   -3.1102   -0.8685   -0.2946 H   0  0  0  0  0  0  0  0  0  0  0  0
   -1.1292   -0.4875    0.3524 C   0  0  1  0  0  0  0  0  0  0  0  0
   -0.2979   -1.1933    0.3553 H   0  0  0  0  0  0  0  0  0  0  0  0
   -1.0094    0.3957   -0.9016 C   0  0  0  0  0  0  0  0  0  0  0  0
   -1.9087    1.0064   -0.9922 H   0  0  0  0  0  0  0  0  0  0  0  0
   -0.1645    1.0749   -0.7761 H   0  0  0  0  0  0  0  0  0  0  0  0
   -0.8388   -0.3851   -2.1904 C   0  0  0  0  0  0  0  0  0  0  0  0
    0.4278   -0.8809   -2.5594 C   0  0  0  0  0  0  0  0  0  0  0  0
    1.2895   -0.6828   -1.9354 H   0  0  0  0  0  0  0  0  0  0  0  0
    0.5735   -1.6401   -3.7368 C   0  0  0  0  0  0  0  0  0  0  0  0
    1.5452   -2.0169   -4.0171 H   0  0  0  0  0  0  0  0  0  0  0  0
   -0.5524   -1.9073   -4.5457 C   0  0  0  0  0  0  0  0  0  0  0  0
   -0.4229   -2.6410   -5.6815 O   0  0  0  0  0  0  0  0  0  0  0  0
    0.4926   -2.8442   -5.8776 H   0  0  0  0  0  0  0  0  0  0  0  0
   -1.8200   -1.4146   -4.1723 C   0  0  0  0  0  0  0  0  0  0  0  0
   -2.6725   -1.6219   -4.8014 H   0  0  0  0  0  0  0  0  0  0  0  0
   -1.9616   -0.6521   -2.9973 C   0  0  0  0  0  0  0  0  0  0  0  0
   -2.9341   -0.2660   -2.7160 H   0  0  0  0  0  0  0  0  0  0  0  0
   -1.0441    0.3416    1.6447 C   0  0  0  0  0  0  0  0  0  0  0  0
   -0.3104   -0.0193    2.5654 O   0  0  0  0  0  0  0  0  0  0  0  0
   -1.7941    1.4486    1.7162 N   0  0  0  0  0  0  0  0  0  0  0  0
   -2.4130    1.6434    0.9425 H   0  0  0  0  0  0  0  0  0  0  0  0
   -1.8326    2.3456    2.8689 C   0  0  0  0  0  0  0  0  0  0  0  0
   -0.8168    2.6189    3.1599 H   0  0  0  0  0  0  0  0  0  0  0  0
   -2.3917    3.2498    2.6230 H   0  0  0  0  0  0  0  0  0  0  0  0
   -2.3132    1.8420    3.7102 H   0  0  0  0  0  0  0  0  0  0  0  0
  5  6  2  0  0  0  0
  5  7  1  0  0  0  0
  2  3  1  0  0  0  0
  2  4  1  0  0  0  0
  2  5  1  0  0  0  0
  1  2  1  0  0  0  0
 26 27  2  0  0  0  0
 26 28  1  0  0  0  0
 24 25  1  0  0  0  0
 22 23  1  0  0  0  0
 22 24  2  0  0  0  0
 20 21  1  0  0  0  0
 19 20  1  0  0  0  0
 19 22  1  0  0  0  0
 17 18  1  0  0  0  0
 17 19  2  0  0  0  0
 15 16  1  0  0  0  0
 15 17  1  0  0  0  0
 14 15  2  0  0  0  0
 14 24  1  0  0  0  0
 11 12  1  0  0  0  0
 11 13  1  0  0  0  0
 11 14  1  0  0  0  0
  9 10  1  0  0  0  0
  9 11  1  0  0  0  0
  9 26  1  0  0  0  0
  7  8  1  0  0  0  0
  7  9  1  0  0  0  0
 30 31  1  0  0  0  0
 30 32  1  0  0  0  0
 30 33  1  0  0  0  0
 28 29  1  0  0  0  0
 28 30  1  0  0  0  0
M  END
$$$$
default_name
  -OEChem-01062215323D

 33 33  0     1  0  0  0  0  0999 V2000
   -4.0702   -3.8485    1.4554 H   0  0  0  0  0  0  0  0  0  0  0  0
   -4.0012   -2.9605    0.8284 C   0  0  0  0  0  0  0  0  0  0  0  0
   -4.7652   -2.2435    1.1234 H   0  0  0  0  0  0  0  0  0  0  0  0
   -4.1352   -3.2385   -0.2156 H   0  0  0  0  0  0  0  0  0  0  0  0
   -2.6362   -2.3395    1.0094 C   0  0  0  0  0  0  0  0  0  0  0  0
   -1.8292   -2.8395    1.7814 O   0  0  0  0  0  0  0  0  0  0  0  0
   -2.3832   -1.2445    0.2964 N   0  0  0  0  0  0  0  0  0  0  0  0
   -3.1102   -0.8685   -0.2946 H   0  0  0  0  0  0  0  0  0  0  0  0
   -1.1292   -0.4875    0.3524 C   0  0  1  0  0  0  0  0  0  0  0  0
   -0.2979   -1.1933    0.3553 H   0  0  0  0  0  0  0  0  0  0  0  0
   -1.0094    0.3957   -0.9016 C   0  0  0  0  0  0  0  0  0  0  0  0
   -1.9087    1.0064   -0.9922 H   0  0  0  0  0  0  0  0  0  0  0  0
   -0.1645    1.0749   -0.7761 H   0  0  0  0  0  0  0  0  0  0  0  0
   -0.8388   -0.3851   -2.1904 C   0  0  0  0  0  0  0  0  0  0  0  0
    0.4278   -0.8809   -2.5594 C   0  0  0  0  0  0  0  0  0  0  0  0
    1.2895   -0.6828   -1.9354 H   0  0  0  0  0  0  0  0  0  0  0  0
    0.5735   -1.6401   -3.7368 C   0  0  0  0  0  0  0  0  0  0  0  0
    1.5452   -2.0169   -4.0171 H   0  0  0  0  0  0  0  0  0  0  0  0
   -0.5524   -1.9073   -4.5457 C   0  0  0  0  0  0  0  0  0  0  0  0
   -0.4229   -2.6410   -5.6815 O   0  0  0  0  0  0  0  0  0  0  0  0
    0.4926   -2.8442   -5.8776 H   0  0  0  0  0  0  0  0  0  0  0  0
   -1.8200   -1.4146   -4.1723 C   0  0  0  0  0  0  0  0  0  0  0  0
   -2.6725   -1.6219   -4.8014 H   0  0  0  0  0  0  0  0  0  0  0  0
   -1.9616   -0.6521   -2.9973 C   0  0  0  0  0  0  0  0  0  0  0  0
   -2.9341   -0.2660   -2.7160 H   0  0  0  0  0  0  0  0  0  0  0  0
   -1.0441    0.3416    1.6447 C   0  0  0  0  0  0  0  0  0  0  0  0
   -0.1272    0.1508    2.4442 O   0  0  0  0  0  0  0  0  0  0  0  0
   -1.9982    1.2580    1.8519 N   0  0  0  0  0  0  0  0  0  0  0  0
   -2.7474    1.3120    1.1771 H   0  0  0  0  0  0  0  0  0  0  0  0
   -2.0669    2.1262    3.0251 C   0  0  0  0  0  0  0  0  0  0  0  0
   -1.1037    2.6152    3.1812 H   0  0  0  0  0  0  0  0  0  0  0  0
   -2.8375    2.8861    2.8857 H   0  0  0  0  0  0  0  0  0  0  0  0
   -2.3034    1.5307    3.9093 H   0  0  0  0  0  0  0  0  0  0  0  0
  5  6  2  0  0  0  0
  5  7  1  0  0  0  0
  2  3  1  0  0  0  0
  2  4  1  0  0  0  0
  2  5  1  0  0  0  0
  1  2  1  0  0  0  0
 26 27  2  0  0  0  0
 26 28  1  0  0  0  0
 24 25  1  0  0  0  0
 22 23  1  0  0  0  0
 22 24  2  0  0  0  0
 20 21  1  0  0  0  0
 19 20  1  0  0  0  0
 19 22  1  0  0  0  0
 17 18  1  0  0  0  0
 17 19  2  0  0  0  0
 15 16  1  0  0  0  0
 15 17  1  0  0  0  0
 14 15  2  0  0  0  0
 14 24  1  0  0  0  0
 11 12  1  0  0  0  0
 11 13  1  0  0  0  0
 11 14  1  0  0  0  0
  9 10  1  0  0  0  0
  9 11  1  0  0  0  0
  9 26  1  0  0  0  0
  7  8  1  0  0  0  0
  7  9  1  0  0  0  0
 30 31  1  0  0  0  0
 30 32  1  0  0  0  0
 30 33  1  0  0  0  0
 28 29  1  0  0  0  0
 28 30  1  0  0  0  0
M  END
$$$$
default_name
  -OEChem-01062215323D

 33 33  0     1  0  0  0  0  0999 V2000
   -4.0702   -3.8485    1.4554 H   0  0  0  0  0  0  0  0  0  0  0  0
   -4.0012   -2.9605    0.8284 C   0  0  0  0  0  0  0  0  0  0  0  0
   -4.7652   -2.2435    1.1234 H   0  0  0  0  0  0  0  0  0  0  0  0
   -4.1352   -3.2385   -0.2156 H   0  0  0  0  0  0  0  0  0  0  0  0
   -2.6362   -2.3395    1.0094 C   0  0  0  0  0  0  0  0  0  0  0  0
   -1.8292   -2.8395    1.7814 O   0  0  0  0  0  0  0  0  0  0  0  0
   -2.3832   -1.2445    0.2964 N   0  0  0  0  0  0  0  0  0  0  0  0
   -3.1102   -0.8685   -0.2946 H   0  0  0  0  0  0  0  0  0  0  0  0
   -1.1292   -0.4875    0.3524 C   0  0  1  0  0  0  0  0  0  0  0  0
   -0.2979   -1.1933    0.3553 H   0  0  0  0  0  0  0  0  0  0  0  0
   -1.0094    0.3957   -0.9016 C   0  0  0  0  0  0  0  0  0  0  0  0
   -1.9087    1.0064   -0.9922 H   0  0  0  0  0  0  0  0  0  0  0  0
   -0.1645    1.0749   -0.7761 H   0  0  0  0  0  0  0  0  0  0  0  0
   -0.8388   -0.3851   -2.1904 C   0  0  0  0  0  0  0  0  0  0  0  0
    0.4278   -0.8809   -2.5594 C   0  0  0  0  0  0  0  0  0  0  0  0
    1.2895   -0.6828   -1.9354 H   0  0  0  0  0  0  0  0  0  0  0  0
    0.5735   -1.6401   -3.7368 C   0  0  0  0  0  0  0  0  0  0  0  0
    1.5452   -2.0169   -4.0171 H   0  0  0  0  0  0  0  0  0  0  0  0
   -0.5524   -1.9073   -4.5457 C   0  0  0  0  0  0  0  0  0  0  0  0
   -0.4229   -2.6410   -5.6815 O   0  0  0  0  0  0  0  0  0  0  0  0
    0.4926   -2.8442   -5.8776 H   0  0  0  0  0  0  0  0  0  0  0  0
   -1.8200   -1.4146   -4.1723 C   0  0  0  0  0  0  0  0  0  0  0  0
   -2.6725   -1.6219   -4.8014 H   0  0  0  0  0  0  0  0  0  0  0  0
   -1.9616   -0.6521   -2.9973 C   0  0  0  0  0  0  0  0  0  0  0  0
   -2.9341   -0.2660   -2.7160 H   0  0  0  0  0  0  0  0  0  0  0  0
   -1.0441    0.3416    1.6447 C   0  0  0  0  0  0  0  0  0  0  0  0
   -0.0043    0.3567    2.3041 O   0  0  0  0  0  0  0  0  0  0  0  0
   -2.1349    1.0276    2.0087 N   0  0  0  0  0  0  0  0  0  0  0  0
   -2.9656    0.9158    1.4457 H   0  0  0  0  0  0  0  0  0  0  0  0
   -2.2237    1.8611    3.2055 C   0  0  0  0  0  0  0  0  0  0  0  0
   -1.3771    2.5489    3.2417 H   0  0  0  0  0  0  0  0  0  0  0  0
   -3.1523    2.4341    3.1964 H   0  0  0  0  0  0  0  0  0  0  0  0
   -2.1985    1.2293    4.0957 H   0  0  0  0  0  0  0  0  0  0  0  0
  5  6  2  0  0  0  0
  5  7  1  0  0  0  0
  2  3  1  0  0  0  0
  2  4  1  0  0  0  0
  2  5  1  0  0  0  0
  1  2  1  0  0  0  0
 26 27  2  0  0  0  0
 26 28  1  0  0  0  0
 24 25  1  0  0  0  0
 22 23  1  0  0  0  0
 22 24  2  0  0  0  0
 20 21  1  0  0  0  0
 19 20  1  0  0  0  0
 19 22  1  0  0  0  0
 17 18  1  0  0  0  0
 17 19  2  0  0  0  0
 15 16  1  0  0  0  0
 15 17  1  0  0  0  0
 14 15  2  0  0  0  0
 14 24  1  0  0  0  0
 11 12  1  0  0  0  0
 11 13  1  0  0  0  0
 11 14  1  0  0  0  0
  9 10  1  0  0  0  0
  9 11  1  0  0  0  0
  9 26  1  0  0  0  0
  7  8  1  0  0  0  0
  7  9  1  0  0  0  0
 30 31  1  0  0  0  0
 30 32  1  0  0  0  0
 30 33  1  0  0  0  0
 28 29  1  0  0  0  0
 28 30  1  0  0  0  0
M  END
$$$$
default_name
  -OEChem-01062215323D

 33 33  0     1  0  0  0  0  0999 V2000
   -4.0702   -3.8485    1.4554 H   0  0  0  0  0  0  0  0  0  0  0  0
   -4.0012   -2.9605    0.8284 C   0  0  0  0  0  0  0  0  0  0  0  0
   -4.7652   -2.2435    1.1234 H   0  0  0  0  0  0  0  0  0  0  0  0
   -4.1352   -3.2385   -0.2156 H   0  0  0  0  0  0  0  0  0  0  0  0
   -2.6362   -2.3395    1.0094 C   0  0  0  0  0  0  0  0  0  0  0  0
   -1.8292   -2.8395    1.7814 O   0  0  0  0  0  0  0  0  0  0  0  0
   -2.3832   -1.2445    0.2964 N   0  0  0  0  0  0  0  0  0  0  0  0
   -3.1102   -0.8685   -0.2946 H   0  0  0  0  0  0  0  0  0  0  0  0
   -1.1292   -0.4875    0.3524 C   0  0  1  0  0  0  0  0  0  0  0  0
   -0.2979   -1.1933    0.3553 H   0  0  0  0  0  0  0  0  0  0  0  0
   -1.0094    0.3957   -0.9016 C   0  0  0  0  0  0  0  0  0  0  0  0
   -1.9087    1.0064   -0.9922 H   0  0  0  0  0  0  0  0  0  0  0  0
   -0.1645    1.0749   -0.7761 H   0  0  0  0  0  0  0  0  0  0  0  0
   -0.8388   -0.3851   -2.1904 C   0  0  0  0  0  0  0  0  0  0  0  0
    0.4278   -0.8809   -2.5594 C   0  0  0  0  0  0  0  0  0  0  0  0
    1.2895   -0.6828   -1.9354 H   0  0  0  0  0  0  0  0  0  0  0  0
    0.5735   -1.6401   -3.7368 C   0  0  0  0  0  0  0  0  0  0  0  0
    1.5452   -2.0169   -4.0171 H   0  0  0  0  0  0  0  0  0  0  0  0
   -0.5524   -1.9073   -4.5457 C   0  0  0  0  0  0  0  0  0  0  0  0
   -0.4229   -2.6410   -5.6815 O   0  0  0  0  0  0  0  0  0  0  0  0
    0.4926   -2.8442   -5.8776 H   0  0  0  0  0  0  0  0  0  0  0  0
   -1.8200   -1.4146   -4.1723 C   0  0  0  0  0  0  0  0  0  0  0  0
   -2.6725   -1.6219   -4.8014 H   0  0  0  0  0  0  0  0  0  0  0  0
   -1.9616   -0.6521   -2.9973 C   0  0  0  0  0  0  0  0  0  0  0  0
   -2.9341   -0.2660   -2.7160 H   0  0  0  0  0  0  0  0  0  0  0  0
   -1.0441    0.3416    1.6447 C   0  0  0  0  0  0  0  0  0  0  0  0
    0.0502    0.5843    2.1545 O   0  0  0  0  0  0  0  0  0  0  0  0
   -2.1950    0.7731    2.1760 N   0  0  0  0  0  0  0  0  0  0  0  0
   -3.0527    0.4818    1.7298 H   0  0  0  0  0  0  0  0  0  0  0  0
   -2.2923    1.5683    3.3978 C   0  0  0  0  0  0  0  0  0  0  0  0
   -1.6183    2.4245    3.3374 H   0  0  0  0  0  0  0  0  0  0  0  0
   -3.3147    1.9245    3.5340 H   0  0  0  0  0  0  0  0  0  0  0  0
   -2.0056    0.9582    4.2569 H   0  0  0  0  0  0  0  0  0  0  0  0
  5  6  2  0  0  0  0
  5  7  1  0  0  0  0
  2  3  1  0  0  0  0
  2  4  1  0  0  0  0
  2  5  1  0  0  0  0
  1  2  1  0  0  0  0
 26 27  2  0  0  0  0
 26 28  1  0  0  0  0
 24 25  1  0  0  0  0
 22 23  1  0  0  0  0
 22 24  2  0  0  0  0
 20 21  1  0  0  0  0
 19 20  1  0  0  0  0
 19 22  1  0  0  0  0
 17 18  1  0  0  0  0
 17 19  2  0  0  0  0
 15 16  1  0  0  0  0
 15 17  1  0  0  0  0
 14 15  2  0  0  0  0
 14 24  1  0  0  0  0
 11 12  1  0  0  0  0
 11 13  1  0  0  0  0
 11 14  1  0  0  0  0
  9 10  1  0  0  0  0
  9 11  1  0  0  0  0
  9 26  1  0  0  0  0
  7  8  1  0  0  0  0
  7  9  1  0  0  0  0
 30 31  1  0  0  0  0
 30 32  1  0  0  0  0
 30 33  1  0  0  0  0
 28 29  1  0  0  0  0
 28 30  1  0  0  0  0
M  END
$$$$
default_name
  -OEChem-01062215323D

 33 33  0     1  0  0  0  0  0999 V2000
   -4.0702   -3.8485    1.4554 H   0  0  0  0  0  0  0  0  0  0  0  0
   -4.0012   -2.9605    0.8284 C   0  0  0  0  0  0  0  0  0  0  0  0
   -4.7652   -2.2435    1.1234 H   0  0  0  0  0  0  0  0  0  0  0  0
   -4.1352   -3.2385   -0.2156 H   0  0  0  0  0  0  0  0  0  0  0  0
   -2.6362   -2.3395    1.0094 C   0  0  0  0  0  0  0  0  0  0  0  0
   -1.8292   -2.8395    1.7814 O   0  0  0  0  0  0  0  0  0  0  0  0
   -2.3832   -1.2445    0.2964 N   0  0  0  0  0  0  0  0  0  0  0  0
   -3.1102   -0.8685   -0.2946 H   0  0  0  0  0  0  0  0  0  0  0  0
   -1.1292   -0.4875    0.3524 C   0  0  1  0  0  0  0  0  0  0  0  0
   -0.2979   -1.1933    0.3553 H   0  0  0  0  0  0  0  0  0  0  0  0
   -1.0094    0.3957   -0.9016 C   0  0  0  0  0  0  0  0  0  0  0  0
   -1.9087    1.0064   -0.9922 H   0  0  0  0  0  0  0  0  0  0  0  0
   -0.1645    1.0749   -0.7761 H   0  0  0  0  0  0  0  0  0  0  0  0
   -0.8388   -0.3851   -2.1904 C   0  0  0  0  0  0  0  0  0  0  0  0
    0.4278   -0.8809   -2.5594 C   0  0  0  0  0  0  0  0  0  0  0  0
    1.2895   -0.6828   -1.9354 H   0  0  0  0  0  0  0  0  0  0  0  0
    0.5735   -1.6401   -3.7368 C   0  0  0  0  0  0  0  0  0  0  0  0
    1.5452   -2.0169   -4.0171 H   0  0  0  0  0  0  0  0  0  0  0  0
   -0.5524   -1.9073   -4.5457 C   0  0  0  0  0  0  0  0  0  0  0  0
   -0.4229   -2.6410   -5.6815 O   0  0  0  0  0  0  0  0  0  0  0  0
    0.4926   -2.8442   -5.8776 H   0  0  0  0  0  0  0  0  0  0  0  0
   -1.8200   -1.4146   -4.1723 C   0  0  0  0  0  0  0  0  0  0  0  0
   -2.6725   -1.6219   -4.8014 H   0  0  0  0  0  0  0  0  0  0  0  0
   -1.9616   -0.6521   -2.9973 C   0  0  0  0  0  0  0  0  0  0  0  0
   -2.9341   -0.2660   -2.7160 H   0  0  0  0  0  0  0  0  0  0  0  0
   -1.0441    0.3416    1.6447 C   0  0  0  0  0  0  0  0  0  0  0  0
    0.0324    0.8181    2.0056 O   0  0  0  0  0  0  0  0  0  0  0  0
   -2.1744    0.5117    2.3423 N   0  0  0  0  0  0  0  0  0  0  0  0
   -3.0028    0.0395    2.0103 H   0  0  0  0  0  0  0  0  0  0  0  0
   -2.2681    1.2678    3.5890 C   0  0  0  0  0  0  0  0  0  0  0  0
   -1.8108    2.2506    3.4617 H   0  0  0  0  0  0  0  0  0  0  0  0
   -3.3136    1.3922    3.8755 H   0  0  0  0  0  0  0  0  0  0  0  0
   -1.7378    0.7361    4.3817 H   0  0  0  0  0  0  0  0  0  0  0  0
  5  6  2  0  0  0  0
  5  7  1  0  0  0  0
  2  3  1  0  0  0  0
  2  4  1  0  0  0  0
  2  5  1  0  0  0  0
  1  2  1  0  0  0  0
 26 27  2  0  0  0  0
 26 28  1  0  0  0  0
 24 25  1  0  0  0  0
 22 23  1  0  0  0  0
 22 24  2  0  0  0  0
 20 21  1  0  0  0  0
 19 20  1  0  0  0  0
 19 22  1  0  0  0  0
 17 18  1  0  0  0  0
 17 19  2  0  0  0  0
 15 16  1  0  0  0  0
 15 17  1  0  0  0  0
 14 15  2  0  0  0  0
 14 24  1  0  0  0  0
 11 12  1  0  0  0  0
 11 13  1  0  0  0  0
 11 14  1  0  0  0  0
  9 10  1  0  0  0  0
  9 11  1  0  0  0  0
  9 26  1  0  0  0  0
  7  8  1  0  0  0  0
  7  9  1  0  0  0  0
 30 31  1  0  0  0  0
 30 32  1  0  0  0  0
 30 33  1  0  0  0  0
 28 29  1  0  0  0  0
 28 30  1  0  0  0  0
M  END
$$$$
default_name
  -OEChem-01062215323D

 33 33  0     1  0  0  0  0  0999 V2000
   -4.0702   -3.8485    1.4554 H   0  0  0  0  0  0  0  0  0  0  0  0
   -4.0012   -2.9605    0.8284 C   0  0  0  0  0  0  0  0  0  0  0  0
   -4.7652   -2.2435    1.1234 H   0  0  0  0  0  0  0  0  0  0  0  0
   -4.1352   -3.2385   -0.2156 H   0  0  0  0  0  0  0  0  0  0  0  0
   -2.6362   -2.3395    1.0094 C   0  0  0  0  0  0  0  0  0  0  0  0
   -1.8292   -2.8395    1.7814 O   0  0  0  0  0  0  0  0  0  0  0  0
   -2.3832   -1.2445    0.2964 N   0  0  0  0  0  0  0  0  0  0  0  0
   -3.1102   -0.8685   -0.2946 H   0  0  0  0  0  0  0  0  0  0  0  0
   -1.1292   -0.4875    0.3524 C   0  0  1  0  0  0  0  0  0  0  0  0
   -0.2979   -1.1933    0.3553 H   0  0  0  0  0  0  0  0  0  0  0  0
   -1.0094    0.3957   -0.9016 C   0  0  0  0  0  0  0  0  0  0  0  0
   -1.9087    1.0064   -0.9922 H   0  0  0  0  0  0  0  0  0  0  0  0
   -0.1645    1.0749   -0.7761 H   0  0  0  0  0  0  0  0  0  0  0  0
   -0.8388   -0.3851   -2.1904 C   0  0  0  0  0  0  0  0  0  0  0  0
    0.4278   -0.8809   -2.5594 C   0  0  0  0  0  0  0  0  0  0  0  0
    1.2895   -0.6828   -1.9354 H   0  0  0  0  0  0  0  0  0  0  0  0
    0.5735   -1.6401   -3.7368 C   0  0  0  0  0  0  0  0  0  0  0  0
    1.5452   -2.0169   -4.0171 H   0  0  0  0  0  0  0  0  0  0  0  0
   -0.5524   -1.9073   -4.5457 C   0  0  0  0  0  0  0  0  0  0  0  0
   -0.4229   -2.6410   -5.6815 O   0  0  0  0  0  0  0  0  0  0  0  0
    0.4926   -2.8442   -5.8776 H   0  0  0  0  0  0  0  0  0  0  0  0
   -1.8200   -1.4146   -4.1723 C   0  0  0  0  0  0  0  0  0  0  0  0
   -2.6725   -1.6219   -4.8014 H   0  0  0  0  0  0  0  0  0  0  0  0
   -1.9616   -0.6521   -2.9973 C   0  0  0  0  0  0  0  0  0  0  0  0
   -2.9341   -0.2660   -2.7160 H   0  0  0  0  0  0  0  0  0  0  0  0
   -1.0441    0.3416    1.6447 C   0  0  0  0  0  0  0  0  0  0  0  0
   -0.0563    1.0422    1.8677 O   0  0  0  0  0  0  0  0  0  0  0  0
   -2.0743    0.2614    2.4963 N   0  0  0  0  0  0  0  0  0  0  0  0
   -2.8193   -0.3808    2.2678 H   0  0  0  0  0  0  0  0  0  0  0  0
   -2.1526    0.9801    3.7660 C   0  0  0  0  0  0  0  0  0  0  0  0
   -1.9416    2.0389    3.6061 H   0  0  0  0  0  0  0  0  0  0  0  0
   -3.1491    0.8733    4.1975 H   0  0  0  0  0  0  0  0  0  0  0  0
   -1.4134    0.5780    4.4618 H   0  0  0  0  0  0  0  0  0  0  0  0
  5  6  2  0  0  0  0
  5  7  1  0  0  0  0
  2  3  1  0  0  0  0
  2  4  1  0  0  0  0
  2  5  1  0  0  0  0
  1  2  1  0  0  0  0
 26 27  2  0  0  0  0
 26 28  1  0  0  0  0
 24 25  1  0  0  0  0
 22 23  1  0  0  0  0
 22 24  2  0  0  0  0
 20 21  1  0  0  0  0
 19 20  1  0  0  0  0
 19 22  1  0  0  0  0
 17 18  1  0  0  0  0
 17 19  2  0  0  0  0
 15 16  1  0  0  0  0
 15 17  1  0  0  0  0
 14 15  2  0  0  0  0
 14 24  1  0  0  0  0
 11 12  1  0  0  0  0
 11 13  1  0  0  0  0
 11 14  1  0  0  0  0
  9 10  1  0  0  0  0
  9 11  1  0  0  0  0
  9 26  1  0  0  0  0
  7  8  1  0  0  0  0
  7  9  1  0  0  0  0
 30 31  1  0  0  0  0
 30 32  1  0  0  0  0
 30 33  1  0  0  0  0
 28 29  1  0  0  0  0
 28 30  1  0  0  0  0
M  END
$$$$
default_name
  -OEChem-01062215323D

 33 33  0     1  0  0  0  0  0999 V2000
   -4.0702   -3.8485    1.4554 H   0  0  0  0  0  0  0  0  0  0  0  0
   -4.0012   -2.9605    0.8284 C   0  0  0  0  0  0  0  0  0  0  0  0
   -4.7652   -2.2435    1.1234 H   0  0  0  0  0  0  0  0  0  0  0  0
   -4.1352   -3.2385   -0.2156 H   0  0  0  0  0  0  0  0  0  0  0  0
   -2.6362   -2.3395    1.0094 C   0  0  0  0  0  0  0  0  0  0  0  0
   -1.8292   -2.8395    1.7814 O   0  0  0  0  0  0  0  0  0  0  0  0
   -2.3832   -1.2445    0.2964 N   0  0  0  0  0  0  0  0  0  0  0  0
   -3.1102   -0.8685   -0.2946 H   0  0  0  0  0  0  0  0  0  0  0  0
   -1.1292   -0.4875    0.3524 C   0  0  1  0  0  0  0  0  0  0  0  0
   -0.2979   -1.1933    0.3553 H   0  0  0  0  0  0  0  0  0  0  0  0
   -1.0094    0.3957   -0.9016 C   0  0  0  0  0  0  0  0  0  0  0  0
   -1.9087    1.0064   -0.9922 H   0  0  0  0  0  0  0  0  0  0  0  0
   -0.1645    1.0749   -0.7761 H   0  0  0  0  0  0  0  0  0  0  0  0
   -0.8388   -0.3851   -2.1904 C   0  0  0  0  0  0  0  0  0  0  0  0
    0.4278   -0.8809   -2.5594 C   0  0  0  0  0  0  0  0  0  0  0  0
    1.2895   -0.6828   -1.9354 H   0  0  0  0  0  0  0  0  0  0  0  0
    0.5735   -1.6401   -3.7368 C   0  0  0  0  0  0  0  0  0  0  0  0
    1.5452   -2.0169   -4.0171 H   0  0  0  0  0  0  0  0  0  0  0  0
   -0.5524   -1.9073   -4.5457 C   0  0  0  0  0  0  0  0  0  0  0  0
   -0.4229   -2.6410   -5.6815 O   0  0  0  0  0  0  0  0  0  0  0  0
    0.4926   -2.8442   -5.8776 H   0  0  0  0  0  0  0  0  0  0  0  0
   -1.8200   -1.4146   -4.1723 C   0  0  0  0  0  0  0  0  0  0  0  0
   -2.6725   -1.6219   -4.8014 H   0  0  0  0  0  0  0  0  0  0  0  0
   -1.9616   -0.6521   -2.9973 C   0  0  0  0  0  0  0  0  0  0  0  0
   -2.9341   -0.2660   -2.7160 H   0  0  0  0  0  0  0  0  0  0  0  0
   -1.0441    0.3416    1.6447 C   0  0  0  0  0  0  0  0  0  0  0  0
   -0.2101    1.2414    1.7501 O   0  0  0  0  0  0  0  0  0  0  0  0
   -1.9018    0.0391    2.6275 N   0  0  0  0  0  0  0  0  0  0  0  0
   -2.5147   -0.7506    2.4850 H   0  0  0  0  0  0  0  0  0  0  0  0
   -1.9538    0.7248    3.9167 C   0  0  0  0  0  0  0  0  0  0  0  0
   -2.0018    1.8039    3.7608 H   0  0  0  0  0  0  0  0  0  0  0  0
   -2.8325    0.4032    4.4782 H   0  0  0  0  0  0  0  0  0  0  0  0
   -1.0544    0.4947    4.4916 H   0  0  0  0  0  0  0  0  0  0  0  0
  5  6  2  0  0  0  0
  5  7  1  0  0  0  0
  2  3  1  0  0  0  0
  2  4  1  0  0  0  0
  2  5  1  0  0  0  0
  1  2  1  0  0  0  0
 26 27  2  0  0  0  0
 26 28  1  0  0  0  0
 24 25  1  0  0  0  0
 22 23  1  0  0  0  0
 22 24  2  0  0  0  0
 20 21  1  0  0  0  0
 19 20  1  0  0  0  0
 19 22  1  0  0  0  0
 17 18  1  0  0  0  0
 17 19  2  0  0  0  0
 15 16  1  0  0  0  0
 15 17  1  0  0  0  0
 14 15  2  0  0  0  0
 14 24  1  0  0  0  0
 11 12  1  0  0  0  0
 11 13  1  0  0  0  0
 11 14  1  0  0  0  0
  9 10  1  0  0  0  0
  9 11  1  0  0  0  0
  9 26  1  0  0  0  0
  7  8  1  0  0  0  0
  7  9  1  0  0  0  0
 30 31  1  0  0  0  0
 30 32  1  0  0  0  0
 30 33  1  0  0  0  0
 28 29  1  0  0  0  0
 28 30  1  0  0  0  0
M  END
$$$$
default_name
  -OEChem-01062215323D

 33 33  0     1  0  0  0  0  0999 V2000
   -4.0702   -3.8485    1.4554 H   0  0  0  0  0  0  0  0  0  0  0  0
   -4.0012   -2.9605    0.8284 C   0  0  0  0  0  0  0  0  0  0  0  0
   -4.7652   -2.2435    1.1234 H   0  0  0  0  0  0  0  0  0  0  0  0
   -4.1352   -3.2385   -0.2156 H   0  0  0  0  0  0  0  0  0  0  0  0
   -2.6362   -2.3395    1.0094 C   0  0  0  0  0  0  0  0  0  0  0  0
   -1.8292   -2.8395    1.7814 O   0  0  0  0  0  0  0  0  0  0  0  0
   -2.3832   -1.2445    0.2964 N   0  0  0  0  0  0  0  0  0  0  0  0
   -3.1102   -0.8685   -0.2946 H   0  0  0  0  0  0  0  0  0  0  0  0
   -1.1292   -0.4875    0.3524 C   0  0  1  0  0  0  0  0  0  0  0  0
   -0.2979   -1.1933    0.3553 H   0  0  0  0  0  0  0  0  0  0  0  0
   -1.0094    0.3957   -0.9016 C   0  0  0  0  0  0  0  0  0  0  0  0
   -1.9087    1.0064   -0.9922 H   0  0  0  0  0  0  0  0  0  0  0  0
   -0.1645    1.0749   -0.7761 H   0  0  0  0  0  0  0  0  0  0  0  0
   -0.8388   -0.3851   -2.1904 C   0  0  0  0  0  0  0  0  0  0  0  0
    0.4278   -0.8809   -2.5594 C   0  0  0  0  0  0  0  0  0  0  0  0
    1.2895   -0.6828   -1.9354 H   0  0  0  0  0  0  0  0  0  0  0  0
    0.5735   -1.6401   -3.7368 C   0  0  0  0  0  0  0  0  0  0  0  0
    1.5452   -2.0169   -4.0171 H   0  0  0  0  0  0  0  0  0  0  0  0
   -0.5524   -1.9073   -4.5457 C   0  0  0  0  0  0  0  0  0  0  0  0
   -0.4229   -2.6410   -5.6815 O   0  0  0  0  0  0  0  0  0  0  0  0
    0.4926   -2.8442   -5.8776 H   0  0  0  0  0  0  0  0  0  0  0  0
   -1.8200   -1.4146   -4.1723 C   0  0  0  0  0  0  0  0  0  0  0  0
   -2.6725   -1.6219   -4.8014 H   0  0  0  0  0  0  0  0  0  0  0  0
   -1.9616   -0.6521   -2.9973 C   0  0  0  0  0  0  0  0  0  0  0  0
   -2.9341   -0.2660   -2.7160 H   0  0  0  0  0  0  0  0  0  0  0  0
   -1.0441    0.3416    1.6447 C   0  0  0  0  0  0  0  0  0  0  0  0
   -0.4184    1.4020    1.6607 O   0  0  0  0  0  0  0  0  0  0  0  0
   -1.6685   -0.1399    2.7270 N   0  0  0  0  0  0  0  0  0  0  0  0
   -2.1097   -1.0446    2.6469 H   0  0  0  0  0  0  0  0  0  0  0  0
   -1.6852    0.5192    4.0308 C   0  0  0  0  0  0  0  0  0  0  0  0
   -1.9872    1.5616    3.9153 H   0  0  0  0  0  0  0  0  0  0  0  0
   -2.3852    0.0140    4.6984 H   0  0  0  0  0  0  0  0  0  0  0  0
   -0.6855    0.4919    4.4691 H   0  0  0  0  0  0  0  0  0  0  0  0
  5  6  2  0  0  0  0
  5  7  1  0  0  0  0
  2  3  1  0  0  0  0
  2  4  1  0  0  0  0
  2  5  1  0  0  0  0
  1  2  1  0  0  0  0
 26 27  2  0  0  0  0
 26 28  1  0  0  0  0
 24 25  1  0  0  0  0
 22 23  1  0  0  0  0
 22 24  2  0  0  0  0
 20 21  1  0  0  0  0
 19 20  1  0  0  0  0
 19 22  1  0  0  0  0
 17 18  1  0  0  0  0
 17 19  2  0  0  0  0
 15 16  1  0  0  0  0
 15 17  1  0  0  0  0
 14 15  2  0  0  0  0
 14 24  1  0  0  0  0
 11 12  1  0  0  0  0
 11 13  1  0  0  0  0
 11 14  1  0  0  0  0
  9 10  1  0  0  0  0
  9 11  1  0  0  0  0
  9 26  1  0  0  0  0
  7  8  1  0  0  0  0
  7  9  1  0  0  0  0
 30 31  1  0  0  0  0
 30 32  1  0  0  0  0
 30 33  1  0  0  0  0
 28 29  1  0  0  0  0
 28 30  1  0  0  0  0
M  END
$$$$
default_name
  -OEChem-01062215323D

 33 33  0     1  0  0  0  0  0999 V2000
   -4.0702   -3.8485    1.4554 H   0  0  0  0  0  0  0  0  0  0  0  0
   -4.0012   -2.9605    0.8284 C   0  0  0  0  0  0  0  0  0  0  0  0
   -4.7652   -2.2435    1.1234 H   0  0  0  0  0  0  0  0  0  0  0  0
   -4.1352   -3.2385   -0.2156 H   0  0  0  0  0  0  0  0  0  0  0  0
   -2.6362   -2.3395    1.0094 C   0  0  0  0  0  0  0  0  0  0  0  0
   -1.8292   -2.8395    1.7814 O   0  0  0  0  0  0  0  0  0  0  0  0
   -2.3832   -1.2445    0.2964 N   0  0  0  0  0  0  0  0  0  0  0  0
   -3.1102   -0.8685   -0.2946 H   0  0  0  0  0  0  0  0  0  0  0  0
   -1.1292   -0.4875    0.3524 C   0  0  1  0  0  0  0  0  0  0  0  0
   -0.2979   -1.1933    0.3553 H   0  0  0  0  0  0  0  0  0  0  0  0
   -1.0094    0.3957   -0.9016 C   0  0  0  0  0  0  0  0  0  0  0  0
   -1.9087    1.0064   -0.9922 H   0  0  0  0  0  0  0  0  0  0  0  0
   -0.1645    1.0749   -0.7761 H   0  0  0  0  0  0  0  0  0  0  0  0
   -0.8388   -0.3851   -2.1904 C   0  0  0  0  0  0  0  0  0  0  0  0
    0.4278   -0.8809   -2.5594 C   0  0  0  0  0  0  0  0  0  0  0  0
    1.2895   -0.6828   -1.9354 H   0  0  0  0  0  0  0  0  0  0  0  0
    0.5735   -1.6401   -3.7368 C   0  0  0  0  0  0  0  0  0  0  0  0
    1.5452   -2.0169   -4.0171 H   0  0  0  0  0  0  0  0  0  0  0  0
   -0.5524   -1.9073   -4.5457 C   0  0  0  0  0  0  0  0  0  0  0  0
   -0.4229   -2.6410   -5.6815 O   0  0  0  0  0  0  0  0  0  0  0  0
    0.4926   -2.8442   -5.8776 H   0  0  0  0  0  0  0  0  0  0  0  0
   -1.8200   -1.4146   -4.1723 C   0  0  0  0  0  0  0  0  0  0  0  0
   -2.6725   -1.6219   -4.8014 H   0  0  0  0  0  0  0  0  0  0  0  0
   -1.9616   -0.6521   -2.9973 C   0  0  0  0  0  0  0  0  0  0  0  0
   -2.9341   -0.2660   -2.7160 H   0  0  0  0  0  0  0  0  0  0  0  0
   -1.0441    0.3416    1.6447 C   0  0  0  0  0  0  0  0  0  0  0  0
   -0.6669    1.5131    1.6058 O   0  0  0  0  0  0  0  0  0  0  0  0
   -1.3903   -0.2636    2.7880 N   0  0  0  0  0  0  0  0  0  0  0  0
   -1.6319   -1.2429    2.7426 H   0  0  0  0  0  0  0  0  0  0  0  0
   -1.3652    0.3774    4.1007 C   0  0  0  0  0  0  0  0  0  0  0  0
   -1.8988    1.3285    4.0590 H   0  0  0  0  0  0  0  0  0  0  0  0
   -1.8378   -0.2677    4.8431 H   0  0  0  0  0  0  0  0  0  0  0  0
   -0.3316    0.5697    4.3958 H   0  0  0  0  0  0  0  0  0  0  0  0
  5  6  2  0  0  0  0
  5  7  1  0  0  0  0
  2  3  1  0  0  0  0
  2  4  1  0  0  0  0
  2  5  1  0  0  0  0
  1  2  1  0  0  0  0
 26 27  2  0  0  0  0
 26 28  1  0  0  0  0
 24 25  1  0  0  0  0
 22 23  1  0  0  0  0
 22 24  2  0  0  0  0
 20 21  1  0  0  0  0
 19 20  1  0  0  0  0
 19 22  1  0  0  0  0
 17 18  1  0  0  0  0
 17 19  2  0  0  0  0
 15 16  1  0  0  0  0
 15 17  1  0  0  0  0
 14 15  2  0  0  0  0
 14 24  1  0  0  0  0
 11 12  1  0  0  0  0
 11 13  1  0  0  0  0
 11 14  1  0  0  0  0
  9 10  1  0  0  0  0
  9 11  1  0  0  0  0
  9 26  1  0  0  0  0
  7  8  1  0  0  0  0
  7  9  1  0  0  0  0
 30 31  1  0  0  0  0
 30 32  1  0  0  0  0
 30 33  1  0  0  0  0
 28 29  1  0  0  0  0
 28 30  1  0  0  0  0
M  END
$$$$
default_name
  -OEChem-01062215323D

 33 33  0     1  0  0  0  0  0999 V2000
   -4.0702   -3.8485    1.4554 H   0  0  0  0  0  0  0  0  0  0  0  0
   -4.0012   -2.9605    0.8284 C   0  0  0  0  0  0  0  0  0  0  0  0
   -4.7652   -2.2435    1.1234 H   0  0  0  0  0  0  0  0  0  0  0  0
   -4.1352   -3.2385   -0.2156 H   0  0  0  0  0  0  0  0  0  0  0  0
   -2.6362   -2.3395    1.0094 C   0  0  0  0  0  0  0  0  0  0  0  0
   -1.8292   -2.8395    1.7814 O   0  0  0  0  0  0  0  0  0  0  0  0
   -2.3832   -1.2445    0.2964 N   0  0  0  0  0  0  0  0  0  0  0  0
   -3.1102   -0.8685   -0.2946 H   0  0  0  0  0  0  0  0  0  0  0  0
   -1.1292   -0.4875    0.3524 C   0  0  1  0  0  0  0  0  0  0  0  0
   -0.2979   -1.1933    0.3553 H   0  0  0  0  0  0  0  0  0  0  0  0
   -1.0094    0.3957   -0.9016 C   0  0  0  0  0  0  0  0  0  0  0  0
   -1.9087    1.0064   -0.9922 H   0  0  0  0  0  0  0  0  0  0  0  0
   -0.1645    1.0749   -0.7761 H   0  0  0  0  0  0  0  0  0  0  0  0
   -0.8388   -0.3851   -2.1904 C   0  0  0  0  0  0  0  0  0  0  0  0
    0.4278   -0.8809   -2.5594 C   0  0  0  0  0  0  0  0  0  0  0  0
    1.2895   -0.6828   -1.9354 H   0  0  0  0  0  0  0  0  0  0  0  0
    0.5735   -1.6401   -3.7368 C   0  0  0  0  0  0  0  0  0  0  0  0
    1.5452   -2.0169   -4.0171 H   0  0  0  0  0  0  0  0  0  0  0  0
   -0.5524   -1.9073   -4.5457 C   0  0  0  0  0  0  0  0  0  0  0  0
   -0.4229   -2.6410   -5.6815 O   0  0  0  0  0  0  0  0  0  0  0  0
    0.4926   -2.8442   -5.8776 H   0  0  0  0  0  0  0  0  0  0  0  0
   -1.8200   -1.4146   -4.1723 C   0  0  0  0  0  0  0  0  0  0  0  0
   -2.6725   -1.6219   -4.8014 H   0  0  0  0  0  0  0  0  0  0  0  0
   -1.9616   -0.6521   -2.9973 C   0  0  0  0  0  0  0  0  0  0  0  0
   -2.9341   -0.2660   -2.7160 H   0  0  0  0  0  0  0  0  0  0  0  0
   -1.0441    0.3416    1.6447 C   0  0  0  0  0  0  0  0  0  0  0  0
   -0.9388    1.5672    1.5891 O   0  0  0  0  0  0  0  0  0  0  0  0
   -1.0862   -0.3233    2.8063 N   0  0  0  0  0  0  0  0  0  0  0  0
   -1.1140   -1.3318    2.7655 H   0  0  0  0  0  0  0  0  0  0  0  0
   -1.0154    0.3091    4.1215 C   0  0  0  0  0  0  0  0  0  0  0  0
   -1.7428    1.1205    4.1821 H   0  0  0  0  0  0  0  0  0  0  0  0
   -1.2275   -0.4229    4.9024 H   0  0  0  0  0  0  0  0  0  0  0  0
   -0.0169    0.7230    4.2768 H   0  0  0  0  0  0  0  0  0  0  0  0
  5  6  2  0  0  0  0
  5  7  1  0  0  0  0
  2  3  1  0  0  0  0
  2  4  1  0  0  0  0
  2  5  1  0  0  0  0
  1  2  1  0  0  0  0
 26 27  2  0  0  0  0
 26 28  1  0  0  0  0
 24 25  1  0  0  0  0
 22 23  1  0  0  0  0
 22 24  2  0  0  0  0
 20 21  1  0  0  0  0
 19 20  1  0  0  0  0
 19 22  1  0  0  0  0
 17 18  1  0  0  0  0
 17 19  2  0  0  0  0
 15 16  1  0  0  0  0
 15 17  1  0  0  0  0
 14 15  2  0  0  0  0
 14 24  1  0  0  0  0
 11 12  1  0  0  0  0
 11 13  1  0  0  0  0
 11 14  1  0  0  0  0
  9 10  1  0  0  0  0
  9 11  1  0  0  0  0
  9 26  1  0  0  0  0
  7  8  1  0  0  0  0
  7  9  1  0  0  0  0
 30 31  1  0  0  0  0
 30 32  1  0  0  0  0
 30 33  1  0  0  0  0
 28 29  1  0  0  0  0
 28 30  1  0  0  0  0
M  END
$$$$
default_name
  -OEChem-01062215323D

 33 33  0     1  0  0  0  0  0999 V2000
   -4.0702   -3.8485    1.4554 H   0  0  0  0  0  0  0  0  0  0  0  0
   -4.0012   -2.9605    0.8284 C   0  0  0  0  0  0  0  0  0  0  0  0
   -4.7652   -2.2435    1.1234 H   0  0  0  0  0  0  0  0  0  0  0  0
   -4.1352   -3.2385   -0.2156 H   0  0  0  0  0  0  0  0  0  0  0  0
   -2.6362   -2.3395    1.0094 C   0  0  0  0  0  0  0  0  0  0  0  0
   -1.8292   -2.8395    1.7814 O   0  0  0  0  0  0  0  0  0  0  0  0
   -2.3832   -1.2445    0.2964 N   0  0  0  0  0  0  0  0  0  0  0  0
   -3.1102   -0.8685   -0.2946 H   0  0  0  0  0  0  0  0  0  0  0  0
   -1.1292   -0.4875    0.3524 C   0  0  1  0  0  0  0  0  0  0  0  0
   -0.2979   -1.1933    0.3553 H   0  0  0  0  0  0  0  0  0  0  0  0
   -1.0094    0.3957   -0.9016 C   0  0  0  0  0  0  0  0  0  0  0  0
   -1.9087    1.0064   -0.9922 H   0  0  0  0  0  0  0  0  0  0  0  0
   -0.1645    1.0749   -0.7761 H   0  0  0  0  0  0  0  0  0  0  0  0
   -0.8388   -0.3851   -2.1904 C   0  0  0  0  0  0  0  0  0  0  0  0
    0.4278   -0.8809   -2.5594 C   0  0  0  0  0  0  0  0  0  0  0  0
    1.2895   -0.6828   -1.9354 H   0  0  0  0  0  0  0  0  0  0  0  0
    0.5735   -1.6401   -3.7368 C   0  0  0  0  0  0  0  0  0  0  0  0
    1.5452   -2.0169   -4.0171 H   0  0  0  0  0  0  0  0  0  0  0  0
   -0.5524   -1.9073   -4.5457 C   0  0  0  0  0  0  0  0  0  0  0  0
   -0.4229   -2.6410   -5.6815 O   0  0  0  0  0  0  0  0  0  0  0  0
    0.4926   -2.8442   -5.8776 H   0  0  0  0  0  0  0  0  0  0  0  0
   -1.8200   -1.4146   -4.1723 C   0  0  0  0  0  0  0  0  0  0  0  0
   -2.6725   -1.6219   -4.8014 H   0  0  0  0  0  0  0  0  0  0  0  0
   -1.9616   -0.6521   -2.9973 C   0  0  0  0  0  0  0  0  0  0  0  0
   -2.9341   -0.2660   -2.7160 H   0  0  0  0  0  0  0  0  0  0  0  0
   -1.0441    0.3416    1.6447 C   0  0  0  0  0  0  0  0  0  0  0  0
   -1.2156    1.5605    1.6116 O   0  0  0  0  0  0  0  0  0  0  0  0
   -0.7769   -0.3152    2.7806 N   0  0  0  0  0  0  0  0  0  0  0  0
   -0.5912   -1.3054    2.7142 H   0  0  0  0  0  0  0  0  0  0  0  0
   -0.6598    0.3189    4.0918 C   0  0  0  0  0  0  0  0  0  0  0  0
   -1.5296    0.9518    4.2763 H   0  0  0  0  0  0  0  0  0  0  0  0
   -0.5960   -0.4409    4.8724 H   0  0  0  0  0  0  0  0  0  0  0  0
    0.2371    0.9411    4.1201 H   0  0  0  0  0  0  0  0  0  0  0  0
  5  6  2  0  0  0  0
  5  7  1  0  0  0  0
  2  3  1  0  0  0  0
  2  4  1  0  0  0  0
  2  5  1  0  0  0  0
  1  2  1  0  0  0  0
 26 27  2  0  0  0  0
 26 28  1  0  0  0  0
 24 25  1  0  0  0  0
 22 23  1  0  0  0  0
 22 24  2  0  0  0  0
 20 21  1  0  0  0  0
 19 20  1  0  0  0  0
 19 22  1  0  0  0  0
 17 18  1  0  0  0  0
 17 19  2  0  0  0  0
 15 16  1  0  0  0  0
 15 17  1  0  0  0  0
 14 15  2  0  0  0  0
 14 24  1  0  0  0  0
 11 12  1  0  0  0  0
 11 13  1  0  0  0  0
 11 14  1  0  0  0  0
  9 10  1  0  0  0  0
  9 11  1  0  0  0  0
  9 26  1  0  0  0  0
  7  8  1  0  0  0  0
  7  9  1  0  0  0  0
 30 31  1  0  0  0  0
 30 32  1  0  0  0  0
 30 33  1  0  0  0  0
 28 29  1  0  0  0  0
 28 30  1  0  0  0  0
M  END
$$$$
default_name
  -OEChem-01062215323D

 33 33  0     1  0  0  0  0  0999 V2000
   -4.0702   -3.8485    1.4554 H   0  0  0  0  0  0  0  0  0  0  0  0
   -4.0012   -2.9605    0.8284 C   0  0  0  0  0  0  0  0  0  0  0  0
   -4.7652   -2.2435    1.1234 H   0  0  0  0  0  0  0  0  0  0  0  0
   -4.1352   -3.2385   -0.2156 H   0  0  0  0  0  0  0  0  0  0  0  0
   -2.6362   -2.3395    1.0094 C   0  0  0  0  0  0  0  0  0  0  0  0
   -1.8292   -2.8395    1.7814 O   0  0  0  0  0  0  0  0  0  0  0  0
   -2.3832   -1.2445    0.2964 N   0  0  0  0  0  0  0  0  0  0  0  0
   -3.1102   -0.8685   -0.2946 H   0  0  0  0  0  0  0  0  0  0  0  0
   -1.1292   -0.4875    0.3524 C   0  0  1  0  0  0  0  0  0  0  0  0
   -0.2979   -1.1933    0.3553 H   0  0  0  0  0  0  0  0  0  0  0  0
   -1.0094    0.3957   -0.9016 C   0  0  0  0  0  0  0  0  0  0  0  0
   -1.9087    1.0064   -0.9922 H   0  0  0  0  0  0  0  0  0  0  0  0
   -0.1645    1.0749   -0.7761 H   0  0  0  0  0  0  0  0  0  0  0  0
   -0.8388   -0.3851   -2.1904 C   0  0  0  0  0  0  0  0  0  0  0  0
    0.4278   -0.8809   -2.5594 C   0  0  0  0  0  0  0  0  0  0  0  0
    1.2895   -0.6828   -1.9354 H   0  0  0  0  0  0  0  0  0  0  0  0
    0.5735   -1.6401   -3.7368 C   0  0  0  0  0  0  0  0  0  0  0  0
    1.5452   -2.0169   -4.0171 H   0  0  0  0  0  0  0  0  0  0  0  0
   -0.5524   -1.9073   -4.5457 C   0  0  0  0  0  0  0  0  0  0  0  0
   -0.4229   -2.6410   -5.6815 O   0  0  0  0  0  0  0  0  0  0  0  0
    0.4926   -2.8442   -5.8776 H   0  0  0  0  0  0  0  0  0  0  0  0
   -1.8200   -1.4146   -4.1723 C   0  0  0  0  0  0  0  0  0  0  0  0
   -2.6725   -1.6219   -4.8014 H   0  0  0  0  0  0  0  0  0  0  0  0
   -1.9616   -0.6521   -2.9973 C   0  0  0  0  0  0  0  0  0  0  0  0
   -2.9341   -0.2660   -2.7160 H   0  0  0  0  0  0  0  0  0  0  0  0
   -1.0441    0.3416    1.6447 C   0  0  0  0  0  0  0  0  0  0  0  0
   -1.4783    1.4935    1.6719 O   0  0  0  0  0  0  0  0  0  0  0  0
   -0.4835   -0.2396    2.7129 N   0  0  0  0  0  0  0  0  0  0  0  0
   -0.0990   -1.1655    2.5919 H   0  0  0  0  0  0  0  0  0  0  0  0
   -0.3226    0.4061    4.0136 C   0  0  0  0  0  0  0  0  0  0  0  0
   -1.2738    0.8339    4.3351 H   0  0  0  0  0  0  0  0  0  0  0  0
    0.0137   -0.3205    4.7550 H   0  0  0  0  0  0  0  0  0  0  0  0
    0.4131    1.2093    3.9364 H   0  0  0  0  0  0  0  0  0  0  0  0
  5  6  2  0  0  0  0
  5  7  1  0  0  0  0
  2  3  1  0  0  0  0
  2  4  1  0  0  0  0
  2  5  1  0  0  0  0
  1  2  1  0  0  0  0
 26 27  2  0  0  0  0
 26 28  1  0  0  0  0
 24 25  1  0  0  0  0
 22 23  1  0  0  0  0
 22 24  2  0  0  0  0
 20 21  1  0  0  0  0
 19 20  1  0  0  0  0
 19 22  1  0  0  0  0
 17 18  1  0  0  0  0
 17 19  2  0  0  0  0
 15 16  1  0  0  0  0
 15 17  1  0  0  0  0
 14 15  2  0  0  0  0
 14 24  1  0  0  0  0
 11 12  1  0  0  0  0
 11 13  1  0  0  0  0
 11 14  1  0  0  0  0
  9 10  1  0  0  0  0
  9 11  1  0  0  0  0
  9 26  1  0  0  0  0
  7  8  1  0  0  0  0
  7  9  1  0  0  0  0
 30 31  1  0  0  0  0
 30 32  1  0  0  0  0
 30 33  1  0  0  0  0
 28 29  1  0  0  0  0
 28 30  1  0  0  0  0
M  END
$$$$
default_name
  -OEChem-01062215323D

 33 33  0     1  0  0  0  0  0999 V2000
   -4.0702   -3.8485    1.4554 H   0  0  0  0  0  0  0  0  0  0  0  0
   -4.0012   -2.9605    0.8284 C   0  0  0  0  0  0  0  0  0  0  0  0
   -4.7652   -2.2435    1.1234 H   0  0  0  0  0  0  0  0  0  0  0  0
   -4.1352   -3.2385   -0.2156 H   0  0  0  0  0  0  0  0  0  0  0  0
   -2.6362   -2.3395    1.0094 C   0  0  0  0  0  0  0  0  0  0  0  0
   -1.8292   -2.8395    1.7814 O   0  0  0  0  0  0  0  0  0  0  0  0
   -2.3832   -1.2445    0.2964 N   0  0  0  0  0  0  0  0  0  0  0  0
   -3.1102   -0.8685   -0.2946 H   0  0  0  0  0  0  0  0  0  0  0  0
   -1.1292   -0.4875    0.3524 C   0  0  1  0  0  0  0  0  0  0  0  0
   -0.2979   -1.1933    0.3553 H   0  0  0  0  0  0  0  0  0  0  0  0
   -1.0094    0.3957   -0.9016 C   0  0  0  0  0  0  0  0  0  0  0  0
   -1.9087    1.0064   -0.9922 H   0  0  0  0  0  0  0  0  0  0  0  0
   -0.1645    1.0749   -0.7761 H   0  0  0  0  0  0  0  0  0  0  0  0
   -0.8388   -0.3851   -2.1904 C   0  0  0  0  0  0  0  0  0  0  0  0
    0.4278   -0.8809   -2.5594 C   0  0  0  0  0  0  0  0  0  0  0  0
    1.2895   -0.6828   -1.9354 H   0  0  0  0  0  0  0  0  0  0  0  0
    0.5735   -1.6401   -3.7368 C   0  0  0  0  0  0  0  0  0  0  0  0
    1.5452   -2.0169   -4.0171 H   0  0  0  0  0  0  0  0  0  0  0  0
   -0.5524   -1.9073   -4.5457 C   0  0  0  0  0  0  0  0  0  0  0  0
   -0.4229   -2.6410   -5.6815 O   0  0  0  0  0  0  0  0  0  0  0  0
    0.4926   -2.8442   -5.8776 H   0  0  0  0  0  0  0  0  0  0  0  0
   -1.8200   -1.4146   -4.1723 C   0  0  0  0  0  0  0  0  0  0  0  0
   -2.6725   -1.6219   -4.8014 H   0  0  0  0  0  0  0  0  0  0  0  0
   -1.9616   -0.6521   -2.9973 C   0  0  0  0  0  0  0  0  0  0  0  0
   -2.9341   -0.2660   -2.7160 H   0  0  0  0  0  0  0  0  0  0  0  0
   -1.0441    0.3416    1.6447 C   0  0  0  0  0  0  0  0  0  0  0  0
   -1.7091    1.3708    1.7658 O   0  0  0  0  0  0  0  0  0  0  0  0
   -0.2259   -0.1019    2.6075 N   0  0  0  0  0  0  0  0  0  0  0  0
    0.3288   -0.9215    2.4072 H   0  0  0  0  0  0  0  0  0  0  0  0
   -0.0268    0.5648    3.8923 C   0  0  0  0  0  0  0  0  0  0  0  0
   -0.9929    0.7748    4.3545 H   0  0  0  0  0  0  0  0  0  0  0  0
    0.5600   -0.0700    4.5582 H   0  0  0  0  0  0  0  0  0  0  0  0
    0.4992    1.5093    3.7383 H   0  0  0  0  0  0  0  0  0  0  0  0
  5  6  2  0  0  0  0
  5  7  1  0  0  0  0
  2  3  1  0  0  0  0
  2  4  1  0  0  0  0
  2  5  1  0  0  0  0
  1  2  1  0  0  0  0
 26 27  2  0  0  0  0
 26 28  1  0  0  0  0
 24 25  1  0  0  0  0
 22 23  1  0  0  0  0
 22 24  2  0  0  0  0
 20 21  1  0  0  0  0
 19 20  1  0  0  0  0
 19 22  1  0  0  0  0
 17 18  1  0  0  0  0
 17 19  2  0  0  0  0
 15 16  1  0  0  0  0
 15 17  1  0  0  0  0
 14 15  2  0  0  0  0
 14 24  1  0  0  0  0
 11 12  1  0  0  0  0
 11 13  1  0  0  0  0
 11 14  1  0  0  0  0
  9 10  1  0  0  0  0
  9 11  1  0  0  0  0
  9 26  1  0  0  0  0
  7  8  1  0  0  0  0
  7  9  1  0  0  0  0
 30 31  1  0  0  0  0
 30 32  1  0  0  0  0
 30 33  1  0  0  0  0
 28 29  1  0  0  0  0
 28 30  1  0  0  0  0
M  END
$$$$
default_name
  -OEChem-01062215323D

 33 33  0     1  0  0  0  0  0999 V2000
   -4.0702   -3.8485    1.4554 H   0  0  0  0  0  0  0  0  0  0  0  0
   -4.0012   -2.9605    0.8284 C   0  0  0  0  0  0  0  0  0  0  0  0
   -4.7652   -2.2435    1.1234 H   0  0  0  0  0  0  0  0  0  0  0  0
   -4.1352   -3.2385   -0.2156 H   0  0  0  0  0  0  0  0  0  0  0  0
   -2.6362   -2.3395    1.0094 C   0  0  0  0  0  0  0  0  0  0  0  0
   -1.8292   -2.8395    1.7814 O   0  0  0  0  0  0  0  0  0  0  0  0
   -2.3832   -1.2445    0.2964 N   0  0  0  0  0  0  0  0  0  0  0  0
   -3.1102   -0.8685   -0.2946 H   0  0  0  0  0  0  0  0  0  0  0  0
   -1.1292   -0.4875    0.3524 C   0  0  1  0  0  0  0  0  0  0  0  0
   -0.2979   -1.1933    0.3553 H   0  0  0  0  0  0  0  0  0  0  0  0
   -1.0094    0.3957   -0.9016 C   0  0  0  0  0  0  0  0  0  0  0  0
   -1.9087    1.0064   -0.9922 H   0  0  0  0  0  0  0  0  0  0  0  0
   -0.1645    1.0749   -0.7761 H   0  0  0  0  0  0  0  0  0  0  0  0
   -0.8388   -0.3851   -2.1904 C   0  0  0  0  0  0  0  0  0  0  0  0
    0.4278   -0.8809   -2.5594 C   0  0  0  0  0  0  0  0  0  0  0  0
    1.2895   -0.6828   -1.9354 H   0  0  0  0  0  0  0  0  0  0  0  0
    0.5735   -1.6401   -3.7368 C   0  0  0  0  0  0  0  0  0  0  0  0
    1.5452   -2.0169   -4.0171 H   0  0  0  0  0  0  0  0  0  0  0  0
   -0.5524   -1.9073   -4.5457 C   0  0  0  0  0  0  0  0  0  0  0  0
   -0.4229   -2.6410   -5.6815 O   0  0  0  0  0  0  0  0  0  0  0  0
    0.4926   -2.8442   -5.8776 H   0  0  0  0  0  0  0  0  0  0  0  0
   -1.8200   -1.4146   -4.1723 C   0  0  0  0  0  0  0  0  0  0  0  0
   -2.6725   -1.6219   -4.8014 H   0  0  0  0  0  0  0  0  0  0  0  0
   -1.9616   -0.6521   -2.9973 C   0  0  0  0  0  0  0  0  0  0  0  0
   -2.9341   -0.2660   -2.7160 H   0  0  0  0  0  0  0  0  0  0  0  0
   -1.0441    0.3416    1.6447 C   0  0  0  0  0  0  0  0  0  0  0  0
   -1.8922    1.2007    1.8870 O   0  0  0  0  0  0  0  0  0  0  0  0
   -0.0218    0.0887    2.4718 N   0  0  0  0  0  0  0  0  0  0  0  0
    0.6632   -0.5901    2.1726 H   0  0  0  0  0  0  0  0  0  0  0  0
    0.2075    0.7842    3.7361 C   0  0  0  0  0  0  0  0  0  0  0  0
   -0.7060    0.7785    4.3333 H   0  0  0  0  0  0  0  0  0  0  0  0
    1.0058    0.2937    4.2955 H   0  0  0  0  0  0  0  0  0  0  0  0
    0.4894    1.8206    3.5392 H   0  0  0  0  0  0  0  0  0  0  0  0
  5  6  2  0  0  0  0
  5  7  1  0  0  0  0
  2  3  1  0  0  0  0
  2  4  1  0  0  0  0
  2  5  1  0  0  0  0
  1  2  1  0  0  0  0
 26 27  2  0  0  0  0
 26 28  1  0  0  0  0
 24 25  1  0  0  0  0
 22 23  1  0  0  0  0
 22 24  2  0  0  0  0
 20 21  1  0  0  0  0
 19 20  1  0  0  0  0
 19 22  1  0  0  0  0
 17 18  1  0  0  0  0
 17 19  2  0  0  0  0
 15 16  1  0  0  0  0
 15 17  1  0  0  0  0
 14 15  2  0  0  0  0
 14 24  1  0  0  0  0
 11 12  1  0  0  0  0
 11 13  1  0  0  0  0
 11 14  1  0  0  0  0
  9 10  1  0  0  0  0
  9 11  1  0  0  0  0
  9 26  1  0  0  0  0
  7  8  1  0  0  0  0
  7  9  1  0  0  0  0
 30 31  1  0  0  0  0
 30 32  1  0  0  0  0
 30 33  1  0  0  0  0
 28 29  1  0  0  0  0
 28 30  1  0  0  0  0
M  END
$$$$
default_name
  -OEChem-01062215323D

 33 33  0     1  0  0  0  0  0999 V2000
   -4.0702   -3.8485    1.4554 H   0  0  0  0  0  0  0  0  0  0  0  0
   -4.0012   -2.9605    0.8284 C   0  0  0  0  0  0  0  0  0  0  0  0
   -4.7652   -2.2435    1.1234 H   0  0  0  0  0  0  0  0  0  0  0  0
   -4.1352   -3.2385   -0.2156 H   0  0  0  0  0  0  0  0  0  0  0  0
   -2.6362   -2.3395    1.0094 C   0  0  0  0  0  0  0  0  0  0  0  0
   -1.8292   -2.8395    1.7814 O   0  0  0  0  0  0  0  0  0  0  0  0
   -2.3832   -1.2445    0.2964 N   0  0  0  0  0  0  0  0  0  0  0  0
   -3.1102   -0.8685   -0.2946 H   0  0  0  0  0  0  0  0  0  0  0  0
   -1.1292   -0.4875    0.3524 C   0  0  1  0  0  0  0  0  0  0  0  0
   -0.2979   -1.1933    0.3553 H   0  0  0  0  0  0  0  0  0  0  0  0
   -1.0094    0.3957   -0.9016 C   0  0  0  0  0  0  0  0  0  0  0  0
   -1.9087    1.0064   -0.9922 H   0  0  0  0  0  0  0  0  0  0  0  0
   -0.1645    1.0749   -0.7761 H   0  0  0  0  0  0  0  0  0  0  0  0
   -0.8388   -0.3851   -2.1904 C   0  0  0  0  0  0  0  0  0  0  0  0
    0.4278   -0.8809   -2.5594 C   0  0  0  0  0  0  0  0  0  0  0  0
    1.2895   -0.6828   -1.9354 H   0  0  0  0  0  0  0  0  0  0  0  0
    0.5735   -1.6401   -3.7368 C   0  0  0  0  0  0  0  0  0  0  0  0
    1.5452   -2.0169   -4.0171 H   0  0  0  0  0  0  0  0  0  0  0  0
   -0.5524   -1.9073   -4.5457 C   0  0  0  0  0  0  0  0  0  0  0  0
   -0.4229   -2.6410   -5.6815 O   0  0  0  0  0  0  0  0  0  0  0  0
    0.4926   -2.8442   -5.8776 H   0  0  0  0  0  0  0  0  0  0  0  0
   -1.8200   -1.4146   -4.1723 C   0  0  0  0  0  0  0  0  0  0  0  0
   -2.6725   -1.6219   -4.8014 H   0  0  0  0  0  0  0  0  0  0  0  0
   -1.9616   -0.6521   -2.9973 C   0  0  0  0  0  0  0  0  0  0  0  0
   -2.9341   -0.2660   -2.7160 H   0  0  0  0  0  0  0  0  0  0  0  0
   -1.0441    0.3416    1.6447 C   0  0  0  0  0  0  0  0  0  0  0  0
   -2.0152    0.9949    2.0272 O   0  0  0  0  0  0  0  0  0  0  0  0
    0.1149    0.3191    2.3150 N   0  0  0  0  0  0  0  0  0  0  0  0
    0.8814   -0.1939    1.9040 H   0  0  0  0  0  0  0  0  0  0  0  0
    0.3643    1.0493    3.5557 C   0  0  0  0  0  0  0  0  0  0  0  0
   -0.4326    0.8448    4.2727 H   0  0  0  0  0  0  0  0  0  0  0  0
    1.3206    0.7458    3.9848 H   0  0  0  0  0  0  0  0  0  0  0  0
    0.3845    2.1221    3.3528 H   0  0  0  0  0  0  0  0  0  0  0  0
  5  6  2  0  0  0  0
  5  7  1  0  0  0  0
  2  3  1  0  0  0  0
  2  4  1  0  0  0  0
  2  5  1  0  0  0  0
  1  2  1  0  0  0  0
 26 27  2  0  0  0  0
 26 28  1  0  0  0  0
 24 25  1  0  0  0  0
 22 23  1  0  0  0  0
 22 24  2  0  0  0  0
 20 21  1  0  0  0  0
 19 20  1  0  0  0  0
 19 22  1  0  0  0  0
 17 18  1  0  0  0  0
 17 19  2  0  0  0  0
 15 16  1  0  0  0  0
 15 17  1  0  0  0  0
 14 15  2  0  0  0  0
 14 24  1  0  0  0  0
 11 12  1  0  0  0  0
 11 13  1  0  0  0  0
 11 14  1  0  0  0  0
  9 10  1  0  0  0  0
  9 11  1  0  0  0  0
  9 26  1  0  0  0  0
  7  8  1  0  0  0  0
  7  9  1  0  0  0  0
 30 31  1  0  0  0  0
 30 32  1  0  0  0  0
 30 33  1  0  0  0  0
 28 29  1  0  0  0  0
 28 30  1  0  0  0  0
M  END
$$$$
default_name
  -OEChem-01062215323D

 33 33  0     1  0  0  0  0  0999 V2000
   -4.0702   -3.8485    1.4554 H   0  0  0  0  0  0  0  0  0  0  0  0
   -4.0012   -2.9605    0.8284 C   0  0  0  0  0  0  0  0  0  0  0  0
   -4.7652   -2.2435    1.1234 H   0  0  0  0  0  0  0  0  0  0  0  0
   -4.1352   -3.2385   -0.2156 H   0  0  0  0  0  0  0  0  0  0  0  0
   -2.6362   -2.3395    1.0094 C   0  0  0  0  0  0  0  0  0  0  0  0
   -1.8292   -2.8395    1.7814 O   0  0  0  0  0  0  0  0  0  0  0  0
   -2.3832   -1.2445    0.2964 N   0  0  0  0  0  0  0  0  0  0  0  0
   -3.1102   -0.8685   -0.2946 H   0  0  0  0  0  0  0  0  0  0  0  0
   -1.1292   -0.4875    0.3524 C   0  0  1  0  0  0  0  0  0  0  0  0
   -0.2979   -1.1933    0.3553 H   0  0  0  0  0  0  0  0  0  0  0  0
   -1.0094    0.3957   -0.9016 C   0  0  0  0  0  0  0  0  0  0  0  0
   -1.9087    1.0064   -0.9922 H   0  0  0  0  0  0  0  0  0  0  0  0
   -0.1645    1.0749   -0.7761 H   0  0  0  0  0  0  0  0  0  0  0  0
   -0.8388   -0.3851   -2.1904 C   0  0  0  0  0  0  0  0  0  0  0  0
    0.4278   -0.8809   -2.5594 C   0  0  0  0  0  0  0  0  0  0  0  0
    1.2895   -0.6828   -1.9354 H   0  0  0  0  0  0  0  0  0  0  0  0
    0.5735   -1.6401   -3.7368 C   0  0  0  0  0  0  0  0  0  0  0  0
    1.5452   -2.0169   -4.0171 H   0  0  0  0  0  0  0  0  0  0  0  0
   -0.5524   -1.9073   -4.5457 C   0  0  0  0  0  0  0  0  0  0  0  0
   -0.4229   -2.6410   -5.6815 O   0  0  0  0  0  0  0  0  0  0  0  0
    0.4926   -2.8442   -5.8776 H   0  0  0  0  0  0  0  0  0  0  0  0
   -1.8200   -1.4146   -4.1723 C   0  0  0  0  0  0  0  0  0  0  0  0
   -2.6725   -1.6219   -4.8014 H   0  0  0  0  0  0  0  0  0  0  0  0
   -1.9616   -0.6521   -2.9973 C   0  0  0  0  0  0  0  0  0  0  0  0
   -2.9341   -0.2660   -2.7160 H   0  0  0  0  0  0  0  0  0  0  0  0
   -1.0441    0.3416    1.6447 C   0  0  0  0  0  0  0  0  0  0  0  0
   -2.0697    0.7673    2.1768 O   0  0  0  0  0  0  0  0  0  0  0  0
    0.1750    0.5736    2.1477 N   0  0  0  0  0  0  0  0  0  0  0  0
    0.9685    0.2401    1.6199 H   0  0  0  0  0  0  0  0  0  0  0  0
    0.4329    1.3421    3.3633 C   0  0  0  0  0  0  0  0  0  0  0  0
   -0.1915    0.9691    4.1770 H   0  0  0  0  0  0  0  0  0  0  0  0
    1.4830    1.2553    3.6472 H   0  0  0  0  0  0  0  0  0  0  0  0
    0.1915    2.3931    3.1916 H   0  0  0  0  0  0  0  0  0  0  0  0
  5  6  2  0  0  0  0
  5  7  1  0  0  0  0
  2  3  1  0  0  0  0
  2  4  1  0  0  0  0
  2  5  1  0  0  0  0
  1  2  1  0  0  0  0
 26 27  2  0  0  0  0
 26 28  1  0  0  0  0
 24 25  1  0  0  0  0
 22 23  1  0  0  0  0
 22 24  2  0  0  0  0
 20 21  1  0  0  0  0
 19 20  1  0  0  0  0
 19 22  1  0  0  0  0
 17 18  1  0  0  0  0
 17 19  2  0  0  0  0
 15 16  1  0  0  0  0
 15 17  1  0  0  0  0
 14 15  2  0  0  0  0
 14 24  1  0  0  0  0
 11 12  1  0  0  0  0
 11 13  1  0  0  0  0
 11 14  1  0  0  0  0
  9 10  1  0  0  0  0
  9 11  1  0  0  0  0
  9 26  1  0  0  0  0
  7  8  1  0  0  0  0
  7  9  1  0  0  0  0
 30 31  1  0  0  0  0
 30 32  1  0  0  0  0
 30 33  1  0  0  0  0
 28 29  1  0  0  0  0
 28 30  1  0  0  0  0
M  END
$$$$
default_name
  -OEChem-01062215323D

 33 33  0     1  0  0  0  0  0999 V2000
   -4.0702   -3.8485    1.4554 H   0  0  0  0  0  0  0  0  0  0  0  0
   -4.0012   -2.9605    0.8284 C   0  0  0  0  0  0  0  0  0  0  0  0
   -4.7652   -2.2435    1.1234 H   0  0  0  0  0  0  0  0  0  0  0  0
   -4.1352   -3.2385   -0.2156 H   0  0  0  0  0  0  0  0  0  0  0  0
   -2.6362   -2.3395    1.0094 C   0  0  0  0  0  0  0  0  0  0  0  0
   -1.8292   -2.8395    1.7814 O   0  0  0  0  0  0  0  0  0  0  0  0
   -2.3832   -1.2445    0.2964 N   0  0  0  0  0  0  0  0  0  0  0  0
   -3.1102   -0.8685   -0.2946 H   0  0  0  0  0  0  0  0  0  0  0  0
   -1.1292   -0.4875    0.3524 C   0  0  1  0  0  0  0  0  0  0  0  0
   -0.2979   -1.1933    0.3553 H   0  0  0  0  0  0  0  0  0  0  0  0
   -1.0094    0.3957   -0.9016 C   0  0  0  0  0  0  0  0  0  0  0  0
   -1.9087    1.0064   -0.9922 H   0  0  0  0  0  0  0  0  0  0  0  0
   -0.1645    1.0749   -0.7761 H   0  0  0  0  0  0  0  0  0  0  0  0
   -0.8388   -0.3851   -2.1904 C   0  0  0  0  0  0  0  0  0  0  0  0
    0.4278   -0.8809   -2.5594 C   0  0  0  0  0  0  0  0  0  0  0  0
    1.2895   -0.6828   -1.9354 H   0  0  0  0  0  0  0  0  0  0  0  0
    0.5735   -1.6401   -3.7368 C   0  0  0  0  0  0  0  0  0  0  0  0
    1.5452   -2.0169   -4.0171 H   0  0  0  0  0  0  0  0  0  0  0  0
   -0.5524   -1.9073   -4.5457 C   0  0  0  0  0  0  0  0  0  0  0  0
   -0.4229   -2.6410   -5.6815 O   0  0  0  0  0  0  0  0  0  0  0  0
    0.4926   -2.8442   -5.8776 H   0  0  0  0  0  0  0  0  0  0  0  0
   -1.8200   -1.4146   -4.1723 C   0  0  0  0  0  0  0  0  0  0  0  0
   -2.6725   -1.6219   -4.8014 H   0  0  0  0  0  0  0  0  0  0  0  0
   -1.9616   -0.6521   -2.9973 C   0  0  0  0  0  0  0  0  0  0  0  0
   -2.9341   -0.2660   -2.7160 H   0  0  0  0  0  0  0  0  0  0  0  0
   -1.0441    0.3416    1.6447 C   0  0  0  0  0  0  0  0  0  0  0  0
   -2.0519    0.5335    2.3256 O   0  0  0  0  0  0  0  0  0  0  0  0
    0.1544    0.8350    1.9814 N   0  0  0  0  0  0  0  0  0  0  0  0
    0.9186    0.6823    1.3395 H   0  0  0  0  0  0  0  0  0  0  0  0
    0.4087    1.6426    3.1722 C   0  0  0  0  0  0  0  0  0  0  0  0
    0.0011    1.1431    4.0528 H   0  0  0  0  0  0  0  0  0  0  0  0
    1.4819    1.7877    3.3057 H   0  0  0  0  0  0  0  0  0  0  0  0
   -0.0763    2.6152    3.0667 H   0  0  0  0  0  0  0  0  0  0  0  0
  5  6  2  0  0  0  0
  5  7  1  0  0  0  0
  2  3  1  0  0  0  0
  2  4  1  0  0  0  0
  2  5  1  0  0  0  0
  1  2  1  0  0  0  0
 26 27  2  0  0  0  0
 26 28  1  0  0  0  0
 24 25  1  0  0  0  0
 22 23  1  0  0  0  0
 22 24  2  0  0  0  0
 20 21  1  0  0  0  0
 19 20  1  0  0  0  0
 19 22  1  0  0  0  0
 17 18  1  0  0  0  0
 17 19  2  0  0  0  0
 15 16  1  0  0  0  0
 15 17  1  0  0  0  0
 14 15  2  0  0  0  0
 14 24  1  0  0  0  0
 11 12  1  0  0  0  0
 11 13  1  0  0  0  0
 11 14  1  0  0  0  0
  9 10  1  0  0  0  0
  9 11  1  0  0  0  0
  9 26  1  0  0  0  0
  7  8  1  0  0  0  0
  7  9  1  0  0  0  0
 30 31  1  0  0  0  0
 30 32  1  0  0  0  0
 30 33  1  0  0  0  0
 28 29  1  0  0  0  0
 28 30  1  0  0  0  0
M  END
$$$$
default_name
  -OEChem-01062215323D

 33 33  0     1  0  0  0  0  0999 V2000
   -4.0702   -3.8485    1.4554 H   0  0  0  0  0  0  0  0  0  0  0  0
   -4.0012   -2.9605    0.8284 C   0  0  0  0  0  0  0  0  0  0  0  0
   -4.7652   -2.2435    1.1234 H   0  0  0  0  0  0  0  0  0  0  0  0
   -4.1352   -3.2385   -0.2156 H   0  0  0  0  0  0  0  0  0  0  0  0
   -2.6362   -2.3395    1.0094 C   0  0  0  0  0  0  0  0  0  0  0  0
   -1.8292   -2.8395    1.7814 O   0  0  0  0  0  0  0  0  0  0  0  0
   -2.3832   -1.2445    0.2964 N   0  0  0  0  0  0  0  0  0  0  0  0
   -3.1102   -0.8685   -0.2946 H   0  0  0  0  0  0  0  0  0  0  0  0
   -1.1292   -0.4875    0.3524 C   0  0  1  0  0  0  0  0  0  0  0  0
   -0.3087   -1.1556    0.0882 H   0  0  0  0  0  0  0  0  0  0  0  0
   -1.1749    0.6534   -0.6787 C   0  0  0  0  0  0  0  0  0  0  0  0
   -2.0750    1.2464   -0.5114 H   0  0  0  0  0  0  0  0  0  0  0  0
   -0.3173    1.3090   -0.5186 H   0  0  0  0  0  0  0  0  0  0  0  0
   -1.1836    0.1809   -2.1196 C   0  0  0  0  0  0  0  0  0  0  0  0
    0.0191   -0.1895   -2.7541 C   0  0  0  0  0  0  0  0  0  0  0  0
    0.9580   -0.1126   -2.2215 H   0  0  0  0  0  0  0  0  0  0  0  0
    0.0009   -0.6662   -4.0793 C   0  0  0  0  0  0  0  0  0  0  0  0
    0.9240   -0.9474   -4.5625 H   0  0  0  0  0  0  0  0  0  0  0  0
   -1.2252   -0.7763   -4.7708 C   0  0  0  0  0  0  0  0  0  0  0  0
   -1.2537   -1.2376   -6.0481 O   0  0  0  0  0  0  0  0  0  0  0  0
   -0.3740   -1.3697   -6.4041 H   0  0  0  0  0  0  0  0  0  0  0  0
   -2.4283   -0.4098   -4.1327 C   0  0  0  0  0  0  0  0  0  0  0  0
   -3.3589   -0.4943   -4.6734 H   0  0  0  0  0  0  0  0  0  0  0  0
   -2.4063    0.0706   -2.8096 C   0  0  0  0  0  0  0  0  0  0  0  0
   -3.3300    0.3607   -2.3232 H   0  0  0  0  0  0  0  0  0  0  0  0
   -0.8664    0.0378    1.7736 C   0  0  0  0  0  0  0  0  0  0  0  0
   -1.6669   -0.1974    2.6792 O   0  0  0  0  0  0  0  0  0  0  0  0
    0.2505    0.7500    1.9696 N   0  0  0  0  0  0  0  0  0  0  0  0
    0.8246    0.9484    1.1631 H   0  0  0  0  0  0  0  0  0  0  0  0
    0.6489    1.3220    3.2537 C   0  0  0  0  0  0  0  0  0  0  0  0
    0.6092    0.5552    4.0293 H   0  0  0  0  0  0  0  0  0  0  0  0
    1.6642    1.7170    3.1904 H   0  0  0  0  0  0  0  0  0  0  0  0
   -0.0355    2.1285    3.5247 H   0  0  0  0  0  0  0  0  0  0  0  0
  5  6  2  0  0  0  0
  5  7  1  0  0  0  0
  2  3  1  0  0  0  0
  2  4  1  0  0  0  0
  2  5  1  0  0  0  0
  1  2  1  0  0  0  0
 26 27  2  0  0  0  0
 26 28  1  0  0  0  0
 24 25  1  0  0  0  0
 22 23  1  0  0  0  0
 22 24  2  0  0  0  0
 20 21  1  0  0  0  0
 19 20  1  0  0  0  0
 19 22  1  0  0  0  0
 17 18  1  0  0  0  0
 17 19  2  0  0  0  0
 15 16  1  0  0  0  0
 15 17  1  0  0  0  0
 14 15  2  0  0  0  0
 14 24  1  0  0  0  0
 11 12  1  0  0  0  0
 11 13  1  0  0  0  0
 11 14  1  0  0  0  0
  9 10  1  0  0  0  0
  9 11  1  0  0  0  0
  9 26  1  0  0  0  0
  7  8  1  0  0  0  0
  7  9  1  0  0  0  0
 30 31  1  0  0  0  0
 30 32  1  0  0  0  0
 30 33  1  0  0  0  0
 28 29  1  0  0  0  0
 28 30  1  0  0  0  0
M  END
$$$$
default_name
  -OEChem-01062215323D

 33 33  0     1  0  0  0  0  0999 V2000
   -4.0702   -3.8485    1.4554 H   0  0  0  0  0  0  0  0  0  0  0  0
   -4.0012   -2.9605    0.8284 C   0  0  0  0  0  0  0  0  0  0  0  0
   -4.7652   -2.2435    1.1234 H   0  0  0  0  0  0  0  0  0  0  0  0
   -4.1352   -3.2385   -0.2156 H   0  0  0  0  0  0  0  0  0  0  0  0
   -2.6362   -2.3395    1.0094 C   0  0  0  0  0  0  0  0  0  0  0  0
   -1.8292   -2.8395    1.7814 O   0  0  0  0  0  0  0  0  0  0  0  0
   -2.3832   -1.2445    0.2964 N   0  0  0  0  0  0  0  0  0  0  0  0
   -3.1102   -0.8685   -0.2946 H   0  0  0  0  0  0  0  0  0  0  0  0
   -1.1292   -0.4875    0.3524 C   0  0  1  0  0  0  0  0  0  0  0  0
   -0.3087   -1.1556    0.0882 H   0  0  0  0  0  0  0  0  0  0  0  0
   -1.1749    0.6534   -0.6787 C   0  0  0  0  0  0  0  0  0  0  0  0
   -2.0750    1.2464   -0.5114 H   0  0  0  0  0  0  0  0  0  0  0  0
   -0.3173    1.3090   -0.5186 H   0  0  0  0  0  0  0  0  0  0  0  0
   -1.1836    0.1809   -2.1196 C   0  0  0  0  0  0  0  0  0  0  0  0
    0.0191   -0.1895   -2.7541 C   0  0  0  0  0  0  0  0  0  0  0  0
    0.9580   -0.1126   -2.2215 H   0  0  0  0  0  0  0  0  0  0  0  0
    0.0009   -0.6662   -4.0793 C   0  0  0  0  0  0  0  0  0  0  0  0
    0.9240   -0.9474   -4.5625 H   0  0  0  0  0  0  0  0  0  0  0  0
   -1.2252   -0.7763   -4.7708 C   0  0  0  0  0  0  0  0  0  0  0  0
   -1.2537   -1.2376   -6.0481 O   0  0  0  0  0  0  0  0  0  0  0  0
   -0.3740   -1.3697   -6.4041 H   0  0  0  0  0  0  0  0  0  0  0  0
   -2.4283   -0.4098   -4.1327 C   0  0  0  0  0  0  0  0  0  0  0  0
   -3.3589   -0.4943   -4.6734 H   0  0  0  0  0  0  0  0  0  0  0  0
   -2.4063    0.0706   -2.8096 C   0  0  0  0  0  0  0  0  0  0  0  0
   -3.3300    0.3607   -2.3232 H   0  0  0  0  0  0  0  0  0  0  0  0
   -0.8664    0.0378    1.7736 C   0  0  0  0  0  0  0  0  0  0  0  0
   -1.4997   -0.4137    2.7282 O   0  0  0  0  0  0  0  0  0  0  0  0
    0.0630    0.9913    1.9151 N   0  0  0  0  0  0  0  0  0  0  0  0
    0.4954    1.3493    1.0758 H   0  0  0  0  0  0  0  0  0  0  0  0
    0.4330    1.5993    3.1911 C   0  0  0  0  0  0  0  0  0  0  0  0
    0.6491    0.8200    3.9241 H   0  0  0  0  0  0  0  0  0  0  0  0
    1.3150    2.2293    3.0656 H   0  0  0  0  0  0  0  0  0  0  0  0
   -0.3947    2.2074    3.5620 H   0  0  0  0  0  0  0  0  0  0  0  0
  5  6  2  0  0  0  0
  5  7  1  0  0  0  0
  2  3  1  0  0  0  0
  2  4  1  0  0  0  0
  2  5  1  0  0  0  0
  1  2  1  0  0  0  0
 26 27  2  0  0  0  0
 26 28  1  0  0  0  0
 24 25  1  0  0  0  0
 22 23  1  0  0  0  0
 22 24  2  0  0  0  0
 20 21  1  0  0  0  0
 19 20  1  0  0  0  0
 19 22  1  0  0  0  0
 17 18  1  0  0  0  0
 17 19  2  0  0  0  0
 15 16  1  0  0  0  0
 15 17  1  0  0  0  0
 14 15  2  0  0  0  0
 14 24  1  0  0  0  0
 11 12  1  0  0  0  0
 11 13  1  0  0  0  0
 11 14  1  0  0  0  0
  9 10  1  0  0  0  0
  9 11  1  0  0  0  0
  9 26  1  0  0  0  0
  7  8  1  0  0  0  0
  7  9  1  0  0  0  0
 30 31  1  0  0  0  0
 30 32  1  0  0  0  0
 30 33  1  0  0  0  0
 28 29  1  0  0  0  0
 28 30  1  0  0  0  0
M  END
$$$$
default_name
  -OEChem-01062215323D

 33 33  0     1  0  0  0  0  0999 V2000
   -4.0702   -3.8485    1.4554 H   0  0  0  0  0  0  0  0  0  0  0  0
   -4.0012   -2.9605    0.8284 C   0  0  0  0  0  0  0  0  0  0  0  0
   -4.7652   -2.2435    1.1234 H   0  0  0  0  0  0  0  0  0  0  0  0
   -4.1352   -3.2385   -0.2156 H   0  0  0  0  0  0  0  0  0  0  0  0
   -2.6362   -2.3395    1.0094 C   0  0  0  0  0  0  0  0  0  0  0  0
   -1.8292   -2.8395    1.7814 O   0  0  0  0  0  0  0  0  0  0  0  0
   -2.3832   -1.2445    0.2964 N   0  0  0  0  0  0  0  0  0  0  0  0
   -3.1102   -0.8685   -0.2946 H   0  0  0  0  0  0  0  0  0  0  0  0
   -1.1292   -0.4875    0.3524 C   0  0  1  0  0  0  0  0  0  0  0  0
   -0.3087   -1.1556    0.0882 H   0  0  0  0  0  0  0  0  0  0  0  0
   -1.1749    0.6534   -0.6787 C   0  0  0  0  0  0  0  0  0  0  0  0
   -2.0750    1.2464   -0.5114 H   0  0  0  0  0  0  0  0  0  0  0  0
   -0.3173    1.3090   -0.5186 H   0  0  0  0  0  0  0  0  0  0  0  0
   -1.1836    0.1809   -2.1196 C   0  0  0  0  0  0  0  0  0  0  0  0
    0.0191   -0.1895   -2.7541 C   0  0  0  0  0  0  0  0  0  0  0  0
    0.9580   -0.1126   -2.2215 H   0  0  0  0  0  0  0  0  0  0  0  0
    0.0009   -0.6662   -4.0793 C   0  0  0  0  0  0  0  0  0  0  0  0
    0.9240   -0.9474   -4.5625 H   0  0  0  0  0  0  0  0  0  0  0  0
   -1.2252   -0.7763   -4.7708 C   0  0  0  0  0  0  0  0  0  0  0  0
   -1.2537   -1.2376   -6.0481 O   0  0  0  0  0  0  0  0  0  0  0  0
   -0.3740   -1.3697   -6.4041 H   0  0  0  0  0  0  0  0  0  0  0  0
   -2.4283   -0.4098   -4.1327 C   0  0  0  0  0  0  0  0  0  0  0  0
   -3.3589   -0.4943   -4.6734 H   0  0  0  0  0  0  0  0  0  0  0  0
   -2.4063    0.0706   -2.8096 C   0  0  0  0  0  0  0  0  0  0  0  0
   -3.3300    0.3607   -2.3232 H   0  0  0  0  0  0  0  0  0  0  0  0
   -0.8664    0.0378    1.7736 C   0  0  0  0  0  0  0  0  0  0  0  0
   -1.2821   -0.5848    2.7512 O   0  0  0  0  0  0  0  0  0  0  0  0
   -0.1807    1.1820    1.8897 N   0  0  0  0  0  0  0  0  0  0  0  0
    0.0738    1.6616    1.0384 H   0  0  0  0  0  0  0  0  0  0  0  0
    0.1525    1.8182    3.1621 C   0  0  0  0  0  0  0  0  0  0  0  0
    0.6151    1.0900    3.8306 H   0  0  0  0  0  0  0  0  0  0  0  0
    0.8441    2.6462    2.9986 H   0  0  0  0  0  0  0  0  0  0  0  0
   -0.7573    2.1960    3.6333 H   0  0  0  0  0  0  0  0  0  0  0  0
  5  6  2  0  0  0  0
  5  7  1  0  0  0  0
  2  3  1  0  0  0  0
  2  4  1  0  0  0  0
  2  5  1  0  0  0  0
  1  2  1  0  0  0  0
 26 27  2  0  0  0  0
 26 28  1  0  0  0  0
 24 25  1  0  0  0  0
 22 23  1  0  0  0  0
 22 24  2  0  0  0  0
 20 21  1  0  0  0  0
 19 20  1  0  0  0  0
 19 22  1  0  0  0  0
 17 18  1  0  0  0  0
 17 19  2  0  0  0  0
 15 16  1  0  0  0  0
 15 17  1  0  0  0  0
 14 15  2  0  0  0  0
 14 24  1  0  0  0  0
 11 12  1  0  0  0  0
 11 13  1  0  0  0  0
 11 14  1  0  0  0  0
  9 10  1  0  0  0  0
  9 11  1  0  0  0  0
  9 26  1  0  0  0  0
  7  8  1  0  0  0  0
  7  9  1  0  0  0  0
 30 31  1  0  0  0  0
 30 32  1  0  0  0  0
 30 33  1  0  0  0  0
 28 29  1  0  0  0  0
 28 30  1  0  0  0  0
M  END
$$$$
default_name
  -OEChem-01062215323D

 33 33  0     1  0  0  0  0  0999 V2000
   -4.0702   -3.8485    1.4554 H   0  0  0  0  0  0  0  0  0  0  0  0
   -4.0012   -2.9605    0.8284 C   0  0  0  0  0  0  0  0  0  0  0  0
   -4.7652   -2.2435    1.1234 H   0  0  0  0  0  0  0  0  0  0  0  0
   -4.1352   -3.2385   -0.2156 H   0  0  0  0  0  0  0  0  0  0  0  0
   -2.6362   -2.3395    1.0094 C   0  0  0  0  0  0  0  0  0  0  0  0
   -1.8292   -2.8395    1.7814 O   0  0  0  0  0  0  0  0  0  0  0  0
   -2.3832   -1.2445    0.2964 N   0  0  0  0  0  0  0  0  0  0  0  0
   -3.1102   -0.8685   -0.2946 H   0  0  0  0  0  0  0  0  0  0  0  0
   -1.1292   -0.4875    0.3524 C   0  0  1  0  0  0  0  0  0  0  0  0
   -0.3087   -1.1556    0.0882 H   0  0  0  0  0  0  0  0  0  0  0  0
   -1.1749    0.6534   -0.6787 C   0  0  0  0  0  0  0  0  0  0  0  0
   -2.0750    1.2464   -0.5114 H   0  0  0  0  0  0  0  0  0  0  0  0
   -0.3173    1.3090   -0.5186 H   0  0  0  0  0  0  0  0  0  0  0  0
   -1.1836    0.1809   -2.1196 C   0  0  0  0  0  0  0  0  0  0  0  0
    0.0191   -0.1895   -2.7541 C   0  0  0  0  0  0  0  0  0  0  0  0
    0.9580   -0.1126   -2.2215 H   0  0  0  0  0  0  0  0  0  0  0  0
    0.0009   -0.6662   -4.0793 C   0  0  0  0  0  0  0  0  0  0  0  0
    0.9240   -0.9474   -4.5625 H   0  0  0  0  0  0  0  0  0  0  0  0
   -1.2252   -0.7763   -4.7708 C   0  0  0  0  0  0  0  0  0  0  0  0
   -1.2537   -1.2376   -6.0481 O   0  0  0  0  0  0  0  0  0  0  0  0
   -0.3740   -1.3697   -6.4041 H   0  0  0  0  0  0  0  0  0  0  0  0
   -2.4283   -0.4098   -4.1327 C   0  0  0  0  0  0  0  0  0  0  0  0
   -3.3589   -0.4943   -4.6734 H   0  0  0  0  0  0  0  0  0  0  0  0
   -2.4063    0.0706   -2.8096 C   0  0  0  0  0  0  0  0  0  0  0  0
   -3.3300    0.3607   -2.3232 H   0  0  0  0  0  0  0  0  0  0  0  0
   -0.8664    0.0378    1.7736 C   0  0  0  0  0  0  0  0  0  0  0  0
   -1.0290   -0.6991    2.7466 O   0  0  0  0  0  0  0  0  0  0  0  0
   -0.4640    1.3091    1.8951 N   0  0  0  0  0  0  0  0  0  0  0  0
   -0.4114    1.8641    1.0533 H   0  0  0  0  0  0  0  0  0  0  0  0
   -0.1733    1.9638    3.1685 C   0  0  0  0  0  0  0  0  0  0  0  0
    0.5094    1.3468    3.7552 H   0  0  0  0  0  0  0  0  0  0  0  0
    0.2837    2.9393    2.9940 H   0  0  0  0  0  0  0  0  0  0  0  0
   -1.0984    2.0950    3.7336 H   0  0  0  0  0  0  0  0  0  0  0  0
  5  6  2  0  0  0  0
  5  7  1  0  0  0  0
  2  3  1  0  0  0  0
  2  4  1  0  0  0  0
  2  5  1  0  0  0  0
  1  2  1  0  0  0  0
 26 27  2  0  0  0  0
 26 28  1  0  0  0  0
 24 25  1  0  0  0  0
 22 23  1  0  0  0  0
 22 24  2  0  0  0  0
 20 21  1  0  0  0  0
 19 20  1  0  0  0  0
 19 22  1  0  0  0  0
 17 18  1  0  0  0  0
 17 19  2  0  0  0  0
 15 16  1  0  0  0  0
 15 17  1  0  0  0  0
 14 15  2  0  0  0  0
 14 24  1  0  0  0  0
 11 12  1  0  0  0  0
 11 13  1  0  0  0  0
 11 14  1  0  0  0  0
  9 10  1  0  0  0  0
  9 11  1  0  0  0  0
  9 26  1  0  0  0  0
  7  8  1  0  0  0  0
  7  9  1  0  0  0  0
 30 31  1  0  0  0  0
 30 32  1  0  0  0  0
 30 33  1  0  0  0  0
 28 29  1  0  0  0  0
 28 30  1  0  0  0  0
M  END
$$$$
default_name
  -OEChem-01062215323D

 33 33  0     1  0  0  0  0  0999 V2000
   -4.0702   -3.8485    1.4554 H   0  0  0  0  0  0  0  0  0  0  0  0
   -4.0012   -2.9605    0.8284 C   0  0  0  0  0  0  0  0  0  0  0  0
   -4.7652   -2.2435    1.1234 H   0  0  0  0  0  0  0  0  0  0  0  0
   -4.1352   -3.2385   -0.2156 H   0  0  0  0  0  0  0  0  0  0  0  0
   -2.6362   -2.3395    1.0094 C   0  0  0  0  0  0  0  0  0  0  0  0
   -1.8292   -2.8395    1.7814 O   0  0  0  0  0  0  0  0  0  0  0  0
   -2.3832   -1.2445    0.2964 N   0  0  0  0  0  0  0  0  0  0  0  0
   -3.1102   -0.8685   -0.2946 H   0  0  0  0  0  0  0  0  0  0  0  0
   -1.1292   -0.4875    0.3524 C   0  0  1  0  0  0  0  0  0  0  0  0
   -0.3087   -1.1556    0.0882 H   0  0  0  0  0  0  0  0  0  0  0  0
   -1.1749    0.6534   -0.6787 C   0  0  0  0  0  0  0  0  0  0  0  0
   -2.0750    1.2464   -0.5114 H   0  0  0  0  0  0  0  0  0  0  0  0
   -0.3173    1.3090   -0.5186 H   0  0  0  0  0  0  0  0  0  0  0  0
   -1.1836    0.1809   -2.1196 C   0  0  0  0  0  0  0  0  0  0  0  0
    0.0191   -0.1895   -2.7541 C   0  0  0  0  0  0  0  0  0  0  0  0
    0.9580   -0.1126   -2.2215 H   0  0  0  0  0  0  0  0  0  0  0  0
    0.0009   -0.6662   -4.0793 C   0  0  0  0  0  0  0  0  0  0  0  0
    0.9240   -0.9474   -4.5625 H   0  0  0  0  0  0  0  0  0  0  0  0
   -1.2252   -0.7763   -4.7708 C   0  0  0  0  0  0  0  0  0  0  0  0
   -1.2537   -1.2376   -6.0481 O   0  0  0  0  0  0  0  0  0  0  0  0
   -0.3740   -1.3697   -6.4041 H   0  0  0  0  0  0  0  0  0  0  0  0
   -2.4283   -0.4098   -4.1327 C   0  0  0  0  0  0  0  0  0  0  0  0
   -3.3589   -0.4943   -4.6734 H   0  0  0  0  0  0  0  0  0  0  0  0
   -2.4063    0.0706   -2.8096 C   0  0  0  0  0  0  0  0  0  0  0  0
   -3.3300    0.3607   -2.3232 H   0  0  0  0  0  0  0  0  0  0  0  0
   -0.8664    0.0378    1.7736 C   0  0  0  0  0  0  0  0  0  0  0  0
   -0.7576   -0.7487    2.7148 O   0  0  0  0  0  0  0  0  0  0  0  0
   -0.7674    1.3638    1.9310 N   0  0  0  0  0  0  0  0  0  0  0  0
   -0.9273    1.9430    1.1196 H   0  0  0  0  0  0  0  0  0  0  0  0
   -0.5223    2.0263    3.2100 C   0  0  0  0  0  0  0  0  0  0  0  0
    0.3392    1.5728    3.7032 H   0  0  0  0  0  0  0  0  0  0  0  0
   -0.3282    3.0885    3.0520 H   0  0  0  0  0  0  0  0  0  0  0  0
   -1.3950    1.9115    3.8563 H   0  0  0  0  0  0  0  0  0  0  0  0
  5  6  2  0  0  0  0
  5  7  1  0  0  0  0
  2  3  1  0  0  0  0
  2  4  1  0  0  0  0
  2  5  1  0  0  0  0
  1  2  1  0  0  0  0
 26 27  2  0  0  0  0
 26 28  1  0  0  0  0
 24 25  1  0  0  0  0
 22 23  1  0  0  0  0
 22 24  2  0  0  0  0
 20 21  1  0  0  0  0
 19 20  1  0  0  0  0
 19 22  1  0  0  0  0
 17 18  1  0  0  0  0
 17 19  2  0  0  0  0
 15 16  1  0  0  0  0
 15 17  1  0  0  0  0
 14 15  2  0  0  0  0
 14 24  1  0  0  0  0
 11 12  1  0  0  0  0
 11 13  1  0  0  0  0
 11 14  1  0  0  0  0
  9 10  1  0  0  0  0
  9 11  1  0  0  0  0
  9 26  1  0  0  0  0
  7  8  1  0  0  0  0
  7  9  1  0  0  0  0
 30 31  1  0  0  0  0
 30 32  1  0  0  0  0
 30 33  1  0  0  0  0
 28 29  1  0  0  0  0
 28 30  1  0  0  0  0
M  END
$$$$
default_name
  -OEChem-01062215323D

 33 33  0     1  0  0  0  0  0999 V2000
   -4.0702   -3.8485    1.4554 H   0  0  0  0  0  0  0  0  0  0  0  0
   -4.0012   -2.9605    0.8284 C   0  0  0  0  0  0  0  0  0  0  0  0
   -4.7652   -2.2435    1.1234 H   0  0  0  0  0  0  0  0  0  0  0  0
   -4.1352   -3.2385   -0.2156 H   0  0  0  0  0  0  0  0  0  0  0  0
   -2.6362   -2.3395    1.0094 C   0  0  0  0  0  0  0  0  0  0  0  0
   -1.8292   -2.8395    1.7814 O   0  0  0  0  0  0  0  0  0  0  0  0
   -2.3832   -1.2445    0.2964 N   0  0  0  0  0  0  0  0  0  0  0  0
   -3.1102   -0.8685   -0.2946 H   0  0  0  0  0  0  0  0  0  0  0  0
   -1.1292   -0.4875    0.3524 C   0  0  1  0  0  0  0  0  0  0  0  0
   -0.3087   -1.1556    0.0882 H   0  0  0  0  0  0  0  0  0  0  0  0
   -1.1749    0.6534   -0.6787 C   0  0  0  0  0  0  0  0  0  0  0  0
   -2.0750    1.2464   -0.5114 H   0  0  0  0  0  0  0  0  0  0  0  0
   -0.3173    1.3090   -0.5186 H   0  0  0  0  0  0  0  0  0  0  0  0
   -1.1836    0.1809   -2.1196 C   0  0  0  0  0  0  0  0  0  0  0  0
    0.0191   -0.1895   -2.7541 C   0  0  0  0  0  0  0  0  0  0  0  0
    0.9580   -0.1126   -2.2215 H   0  0  0  0  0  0  0  0  0  0  0  0
    0.0009   -0.6662   -4.0793 C   0  0  0  0  0  0  0  0  0  0  0  0
    0.9240   -0.9474   -4.5625 H   0  0  0  0  0  0  0  0  0  0  0  0
   -1.2252   -0.7763   -4.7708 C   0  0  0  0  0  0  0  0  0  0  0  0
   -1.2537   -1.2376   -6.0481 O   0  0  0  0  0  0  0  0  0  0  0  0
   -0.3740   -1.3697   -6.4041 H   0  0  0  0  0  0  0  0  0  0  0  0
   -2.4283   -0.4098   -4.1327 C   0  0  0  0  0  0  0  0  0  0  0  0
   -3.3589   -0.4943   -4.6734 H   0  0  0  0  0  0  0  0  0  0  0  0
   -2.4063    0.0706   -2.8096 C   0  0  0  0  0  0  0  0  0  0  0  0
   -3.3300    0.3607   -2.3232 H   0  0  0  0  0  0  0  0  0  0  0  0
   -0.8664    0.0378    1.7736 C   0  0  0  0  0  0  0  0  0  0  0  0
   -0.4864   -0.7303    2.6578 O   0  0  0  0  0  0  0  0  0  0  0  0
   -1.0705    1.3425    1.9950 N   0  0  0  0  0  0  0  0  0  0  0  0
   -1.4385    1.8929    1.2326 H   0  0  0  0  0  0  0  0  0  0  0  0
   -0.8707    2.0014    3.2837 C   0  0  0  0  0  0  0  0  0  0  0  0
    0.1161    1.7528    3.6779 H   0  0  0  0  0  0  0  0  0  0  0  0
   -0.9498    3.0836    3.1687 H   0  0  0  0  0  0  0  0  0  0  0  0
   -1.6266    1.6579    3.9929 H   0  0  0  0  0  0  0  0  0  0  0  0
  5  6  2  0  0  0  0
  5  7  1  0  0  0  0
  2  3  1  0  0  0  0
  2  4  1  0  0  0  0
  2  5  1  0  0  0  0
  1  2  1  0  0  0  0
 26 27  2  0  0  0  0
 26 28  1  0  0  0  0
 24 25  1  0  0  0  0
 22 23  1  0  0  0  0
 22 24  2  0  0  0  0
 20 21  1  0  0  0  0
 19 20  1  0  0  0  0
 19 22  1  0  0  0  0
 17 18  1  0  0  0  0
 17 19  2  0  0  0  0
 15 16  1  0  0  0  0
 15 17  1  0  0  0  0
 14 15  2  0  0  0  0
 14 24  1  0  0  0  0
 11 12  1  0  0  0  0
 11 13  1  0  0  0  0
 11 14  1  0  0  0  0
  9 10  1  0  0  0  0
  9 11  1  0  0  0  0
  9 26  1  0  0  0  0
  7  8  1  0  0  0  0
  7  9  1  0  0  0  0
 30 31  1  0  0  0  0
 30 32  1  0  0  0  0
 30 33  1  0  0  0  0
 28 29  1  0  0  0  0
 28 30  1  0  0  0  0
M  END
$$$$
default_name
  -OEChem-01062215323D

 33 33  0     1  0  0  0  0  0999 V2000
   -4.0702   -3.8485    1.4554 H   0  0  0  0  0  0  0  0  0  0  0  0
   -4.0012   -2.9605    0.8284 C   0  0  0  0  0  0  0  0  0  0  0  0
   -4.7652   -2.2435    1.1234 H   0  0  0  0  0  0  0  0  0  0  0  0
   -4.1352   -3.2385   -0.2156 H   0  0  0  0  0  0  0  0  0  0  0  0
   -2.6362   -2.3395    1.0094 C   0  0  0  0  0  0  0  0  0  0  0  0
   -1.8292   -2.8395    1.7814 O   0  0  0  0  0  0  0  0  0  0  0  0
   -2.3832   -1.2445    0.2964 N   0  0  0  0  0  0  0  0  0  0  0  0
   -3.1102   -0.8685   -0.2946 H   0  0  0  0  0  0  0  0  0  0  0  0
   -1.1292   -0.4875    0.3524 C   0  0  1  0  0  0  0  0  0  0  0  0
   -0.3087   -1.1556    0.0882 H   0  0  0  0  0  0  0  0  0  0  0  0
   -1.1749    0.6534   -0.6787 C   0  0  0  0  0  0  0  0  0  0  0  0
   -2.0750    1.2464   -0.5114 H   0  0  0  0  0  0  0  0  0  0  0  0
   -0.3173    1.3090   -0.5186 H   0  0  0  0  0  0  0  0  0  0  0  0
   -1.1836    0.1809   -2.1196 C   0  0  0  0  0  0  0  0  0  0  0  0
    0.0191   -0.1895   -2.7541 C   0  0  0  0  0  0  0  0  0  0  0  0
    0.9580   -0.1126   -2.2215 H   0  0  0  0  0  0  0  0  0  0  0  0
    0.0009   -0.6662   -4.0793 C   0  0  0  0  0  0  0  0  0  0  0  0
    0.9240   -0.9474   -4.5625 H   0  0  0  0  0  0  0  0  0  0  0  0
   -1.2252   -0.7763   -4.7708 C   0  0  0  0  0  0  0  0  0  0  0  0
   -1.2537   -1.2376   -6.0481 O   0  0  0  0  0  0  0  0  0  0  0  0
   -0.3740   -1.3697   -6.4041 H   0  0  0  0  0  0  0  0  0  0  0  0
   -2.4283   -0.4098   -4.1327 C   0  0  0  0  0  0  0  0  0  0  0  0
   -3.3589   -0.4943   -4.6734 H   0  0  0  0  0  0  0  0  0  0  0  0
   -2.4063    0.0706   -2.8096 C   0  0  0  0  0  0  0  0  0  0  0  0
   -3.3300    0.3607   -2.3232 H   0  0  0  0  0  0  0  0  0  0  0  0
   -0.8664    0.0378    1.7736 C   0  0  0  0  0  0  0  0  0  0  0  0
   -0.2338   -0.6452    2.5796 O   0  0  0  0  0  0  0  0  0  0  0  0
   -1.3525    1.2466    2.0826 N   0  0  0  0  0  0  0  0  0  0  0  0
   -1.9104    1.7172    1.3849 H   0  0  0  0  0  0  0  0  0  0  0  0
   -1.1947    1.8907    3.3845 C   0  0  0  0  0  0  0  0  0  0  0  0
   -0.1446    1.8744    3.6812 H   0  0  0  0  0  0  0  0  0  0  0  0
   -1.5387    2.9251    3.3362 H   0  0  0  0  0  0  0  0  0  0  0  0
   -1.7777    1.3515    4.1341 H   0  0  0  0  0  0  0  0  0  0  0  0
  5  6  2  0  0  0  0
  5  7  1  0  0  0  0
  2  3  1  0  0  0  0
  2  4  1  0  0  0  0
  2  5  1  0  0  0  0
  1  2  1  0  0  0  0
 26 27  2  0  0  0  0
 26 28  1  0  0  0  0
 24 25  1  0  0  0  0
 22 23  1  0  0  0  0
 22 24  2  0  0  0  0
 20 21  1  0  0  0  0
 19 20  1  0  0  0  0
 19 22  1  0  0  0  0
 17 18  1  0  0  0  0
 17 19  2  0  0  0  0
 15 16  1  0  0  0  0
 15 17  1  0  0  0  0
 14 15  2  0  0  0  0
 14 24  1  0  0  0  0
 11 12  1  0  0  0  0
 11 13  1  0  0  0  0
 11 14  1  0  0  0  0
  9 10  1  0  0  0  0
  9 11  1  0  0  0  0
  9 26  1  0  0  0  0
  7  8  1  0  0  0  0
  7  9  1  0  0  0  0
 30 31  1  0  0  0  0
 30 32  1  0  0  0  0
 30 33  1  0  0  0  0
 28 29  1  0  0  0  0
 28 30  1  0  0  0  0
M  END
$$$$
default_name
  -OEChem-01062215323D

 33 33  0     1  0  0  0  0  0999 V2000
   -4.0702   -3.8485    1.4554 H   0  0  0  0  0  0  0  0  0  0  0  0
   -4.0012   -2.9605    0.8284 C   0  0  0  0  0  0  0  0  0  0  0  0
   -4.7652   -2.2435    1.1234 H   0  0  0  0  0  0  0  0  0  0  0  0
   -4.1352   -3.2385   -0.2156 H   0  0  0  0  0  0  0  0  0  0  0  0
   -2.6362   -2.3395    1.0094 C   0  0  0  0  0  0  0  0  0  0  0  0
   -1.8292   -2.8395    1.7814 O   0  0  0  0  0  0  0  0  0  0  0  0
   -2.3832   -1.2445    0.2964 N   0  0  0  0  0  0  0  0  0  0  0  0
   -3.1102   -0.8685   -0.2946 H   0  0  0  0  0  0  0  0  0  0  0  0
   -1.1292   -0.4875    0.3524 C   0  0  1  0  0  0  0  0  0  0  0  0
   -0.3087   -1.1556    0.0882 H   0  0  0  0  0  0  0  0  0  0  0  0
   -1.1749    0.6534   -0.6787 C   0  0  0  0  0  0  0  0  0  0  0  0
   -2.0750    1.2464   -0.5114 H   0  0  0  0  0  0  0  0  0  0  0  0
   -0.3173    1.3090   -0.5186 H   0  0  0  0  0  0  0  0  0  0  0  0
   -1.1836    0.1809   -2.1196 C   0  0  0  0  0  0  0  0  0  0  0  0
    0.0191   -0.1895   -2.7541 C   0  0  0  0  0  0  0  0  0  0  0  0
    0.9580   -0.1126   -2.2215 H   0  0  0  0  0  0  0  0  0  0  0  0
    0.0009   -0.6662   -4.0793 C   0  0  0  0  0  0  0  0  0  0  0  0
    0.9240   -0.9474   -4.5625 H   0  0  0  0  0  0  0  0  0  0  0  0
   -1.2252   -0.7763   -4.7708 C   0  0  0  0  0  0  0  0  0  0  0  0
   -1.2537   -1.2376   -6.0481 O   0  0  0  0  0  0  0  0  0  0  0  0
   -0.3740   -1.3697   -6.4041 H   0  0  0  0  0  0  0  0  0  0  0  0
   -2.4283   -0.4098   -4.1327 C   0  0  0  0  0  0  0  0  0  0  0  0
   -3.3589   -0.4943   -4.6734 H   0  0  0  0  0  0  0  0  0  0  0  0
   -2.4063    0.0706   -2.8096 C   0  0  0  0  0  0  0  0  0  0  0  0
   -3.3300    0.3607   -2.3232 H   0  0  0  0  0  0  0  0  0  0  0  0
   -0.8664    0.0378    1.7736 C   0  0  0  0  0  0  0  0  0  0  0  0
   -0.0172   -0.4990    2.4855 O   0  0  0  0  0  0  0  0  0  0  0  0
   -1.5942    1.0826    2.1879 N   0  0  0  0  0  0  0  0  0  0  0  0
   -2.3107    1.4278    1.5658 H   0  0  0  0  0  0  0  0  0  0  0  0
   -1.4723    1.7018    3.5057 C   0  0  0  0  0  0  0  0  0  0  0  0
   -0.4253    1.9293    3.7128 H   0  0  0  0  0  0  0  0  0  0  0  0
   -2.0548    2.6237    3.5431 H   0  0  0  0  0  0  0  0  0  0  0  0
   -1.8378    1.0131    4.2702 H   0  0  0  0  0  0  0  0  0  0  0  0
  5  6  2  0  0  0  0
  5  7  1  0  0  0  0
  2  3  1  0  0  0  0
  2  4  1  0  0  0  0
  2  5  1  0  0  0  0
  1  2  1  0  0  0  0
 26 27  2  0  0  0  0
 26 28  1  0  0  0  0
 24 25  1  0  0  0  0
 22 23  1  0  0  0  0
 22 24  2  0  0  0  0
 20 21  1  0  0  0  0
 19 20  1  0  0  0  0
 19 22  1  0  0  0  0
 17 18  1  0  0  0  0
 17 19  2  0  0  0  0
 15 16  1  0  0  0  0
 15 17  1  0  0  0  0
 14 15  2  0  0  0  0
 14 24  1  0  0  0  0
 11 12  1  0  0  0  0
 11 13  1  0  0  0  0
 11 14  1  0  0  0  0
  9 10  1  0  0  0  0
  9 11  1  0  0  0  0
  9 26  1  0  0  0  0
  7  8  1  0  0  0  0
  7  9  1  0  0  0  0
 30 31  1  0  0  0  0
 30 32  1  0  0  0  0
 30 33  1  0  0  0  0
 28 29  1  0  0  0  0
 28 30  1  0  0  0  0
M  END
$$$$
default_name
  -OEChem-01062215323D

 33 33  0     1  0  0  0  0  0999 V2000
   -4.0702   -3.8485    1.4554 H   0  0  0  0  0  0  0  0  0  0  0  0
   -4.0012   -2.9605    0.8284 C   0  0  0  0  0  0  0  0  0  0  0  0
   -4.7652   -2.2435    1.1234 H   0  0  0  0  0  0  0  0  0  0  0  0
   -4.1352   -3.2385   -0.2156 H   0  0  0  0  0  0  0  0  0  0  0  0
   -2.6362   -2.3395    1.0094 C   0  0  0  0  0  0  0  0  0  0  0  0
   -1.8292   -2.8395    1.7814 O   0  0  0  0  0  0  0  0  0  0  0  0
   -2.3832   -1.2445    0.2964 N   0  0  0  0  0  0  0  0  0  0  0  0
   -3.1102   -0.8685   -0.2946 H   0  0  0  0  0  0  0  0  0  0  0  0
   -1.1292   -0.4875    0.3524 C   0  0  1  0  0  0  0  0  0  0  0  0
   -0.3087   -1.1556    0.0882 H   0  0  0  0  0  0  0  0  0  0  0  0
   -1.1749    0.6534   -0.6787 C   0  0  0  0  0  0  0  0  0  0  0  0
   -2.0750    1.2464   -0.5114 H   0  0  0  0  0  0  0  0  0  0  0  0
   -0.3173    1.3090   -0.5186 H   0  0  0  0  0  0  0  0  0  0  0  0
   -1.1836    0.1809   -2.1196 C   0  0  0  0  0  0  0  0  0  0  0  0
    0.0191   -0.1895   -2.7541 C   0  0  0  0  0  0  0  0  0  0  0  0
    0.9580   -0.1126   -2.2215 H   0  0  0  0  0  0  0  0  0  0  0  0
    0.0009   -0.6662   -4.0793 C   0  0  0  0  0  0  0  0  0  0  0  0
    0.9240   -0.9474   -4.5625 H   0  0  0  0  0  0  0  0  0  0  0  0
   -1.2252   -0.7763   -4.7708 C   0  0  0  0  0  0  0  0  0  0  0  0
   -1.2537   -1.2376   -6.0481 O   0  0  0  0  0  0  0  0  0  0  0  0
   -0.3740   -1.3697   -6.4041 H   0  0  0  0  0  0  0  0  0  0  0  0
   -2.4283   -0.4098   -4.1327 C   0  0  0  0  0  0  0  0  0  0  0  0
   -3.3589   -0.4943   -4.6734 H   0  0  0  0  0  0  0  0  0  0  0  0
   -2.4063    0.0706   -2.8096 C   0  0  0  0  0  0  0  0  0  0  0  0
   -3.3300    0.3607   -2.3232 H   0  0  0  0  0  0  0  0  0  0  0  0
   -0.8664    0.0378    1.7736 C   0  0  0  0  0  0  0  0  0  0  0  0
    0.1488   -0.3019    2.3820 O   0  0  0  0  0  0  0  0  0  0  0  0
   -1.7791    0.8618    2.3037 N   0  0  0  0  0  0  0  0  0  0  0  0
   -2.6122    1.0446    1.7632 H   0  0  0  0  0  0  0  0  0  0  0  0
   -1.6846    1.4475    3.6389 C   0  0  0  0  0  0  0  0  0  0  0  0
   -0.7067    1.9139    3.7706 H   0  0  0  0  0  0  0  0  0  0  0  0
   -2.4630    2.2000    3.7752 H   0  0  0  0  0  0  0  0  0  0  0  0
   -1.8029    0.6658    4.3921 H   0  0  0  0  0  0  0  0  0  0  0  0
  5  6  2  0  0  0  0
  5  7  1  0  0  0  0
  2  3  1  0  0  0  0
  2  4  1  0  0  0  0
  2  5  1  0  0  0  0
  1  2  1  0  0  0  0
 26 27  2  0  0  0  0
 26 28  1  0  0  0  0
 24 25  1  0  0  0  0
 22 23  1  0  0  0  0
 22 24  2  0  0  0  0
 20 21  1  0  0  0  0
 19 20  1  0  0  0  0
 19 22  1  0  0  0  0
 17 18  1  0  0  0  0
 17 19  2  0  0  0  0
 15 16  1  0  0  0  0
 15 17  1  0  0  0  0
 14 15  2  0  0  0  0
 14 24  1  0  0  0  0
 11 12  1  0  0  0  0
 11 13  1  0  0  0  0
 11 14  1  0  0  0  0
  9 10  1  0  0  0  0
  9 11  1  0  0  0  0
  9 26  1  0  0  0  0
  7  8  1  0  0  0  0
  7  9  1  0  0  0  0
 30 31  1  0  0  0  0
 30 32  1  0  0  0  0
 30 33  1  0  0  0  0
 28 29  1  0  0  0  0
 28 30  1  0  0  0  0
M  END
$$$$
default_name
  -OEChem-01062215323D

 33 33  0     1  0  0  0  0  0999 V2000
   -4.0702   -3.8485    1.4554 H   0  0  0  0  0  0  0  0  0  0  0  0
   -4.0012   -2.9605    0.8284 C   0  0  0  0  0  0  0  0  0  0  0  0
   -4.7652   -2.2435    1.1234 H   0  0  0  0  0  0  0  0  0  0  0  0
   -4.1352   -3.2385   -0.2156 H   0  0  0  0  0  0  0  0  0  0  0  0
   -2.6362   -2.3395    1.0094 C   0  0  0  0  0  0  0  0  0  0  0  0
   -1.8292   -2.8395    1.7814 O   0  0  0  0  0  0  0  0  0  0  0  0
   -2.3832   -1.2445    0.2964 N   0  0  0  0  0  0  0  0  0  0  0  0
   -3.1102   -0.8685   -0.2946 H   0  0  0  0  0  0  0  0  0  0  0  0
   -1.1292   -0.4875    0.3524 C   0  0  1  0  0  0  0  0  0  0  0  0
   -0.3087   -1.1556    0.0882 H   0  0  0  0  0  0  0  0  0  0  0  0
   -1.1749    0.6534   -0.6787 C   0  0  0  0  0  0  0  0  0  0  0  0
   -2.0750    1.2464   -0.5114 H   0  0  0  0  0  0  0  0  0  0  0  0
   -0.3173    1.3090   -0.5186 H   0  0  0  0  0  0  0  0  0  0  0  0
   -1.1836    0.1809   -2.1196 C   0  0  0  0  0  0  0  0  0  0  0  0
    0.0191   -0.1895   -2.7541 C   0  0  0  0  0  0  0  0  0  0  0  0
    0.9580   -0.1126   -2.2215 H   0  0  0  0  0  0  0  0  0  0  0  0
    0.0009   -0.6662   -4.0793 C   0  0  0  0  0  0  0  0  0  0  0  0
    0.9240   -0.9474   -4.5625 H   0  0  0  0  0  0  0  0  0  0  0  0
   -1.2252   -0.7763   -4.7708 C   0  0  0  0  0  0  0  0  0  0  0  0
   -1.2537   -1.2376   -6.0481 O   0  0  0  0  0  0  0  0  0  0  0  0
   -0.3740   -1.3697   -6.4041 H   0  0  0  0  0  0  0  0  0  0  0  0
   -2.4283   -0.4098   -4.1327 C   0  0  0  0  0  0  0  0  0  0  0  0
   -3.3589   -0.4943   -4.6734 H   0  0  0  0  0  0  0  0  0  0  0  0
   -2.4063    0.0706   -2.8096 C   0  0  0  0  0  0  0  0  0  0  0  0
   -3.3300    0.3607   -2.3232 H   0  0  0  0  0  0  0  0  0  0  0  0
   -0.8664    0.0378    1.7736 C   0  0  0  0  0  0  0  0  0  0  0  0
    0.2529   -0.0672    2.2760 O   0  0  0  0  0  0  0  0  0  0  0  0
   -1.8947    0.5991    2.4221 N   0  0  0  0  0  0  0  0  0  0  0  0
   -2.7942    0.5936    1.9635 H   0  0  0  0  0  0  0  0  0  0  0  0
   -1.8170    1.1453    3.7750 C   0  0  0  0  0  0  0  0  0  0  0  0
   -0.9697    1.8290    3.8506 H   0  0  0  0  0  0  0  0  0  0  0  0
   -2.7354    1.6828    4.0167 H   0  0  0  0  0  0  0  0  0  0  0  0
   -1.6754    0.3334    4.4914 H   0  0  0  0  0  0  0  0  0  0  0  0
  5  6  2  0  0  0  0
  5  7  1  0  0  0  0
  2  3  1  0  0  0  0
  2  4  1  0  0  0  0
  2  5  1  0  0  0  0
  1  2  1  0  0  0  0
 26 27  2  0  0  0  0
 26 28  1  0  0  0  0
 24 25  1  0  0  0  0
 22 23  1  0  0  0  0
 22 24  2  0  0  0  0
 20 21  1  0  0  0  0
 19 20  1  0  0  0  0
 19 22  1  0  0  0  0
 17 18  1  0  0  0  0
 17 19  2  0  0  0  0
 15 16  1  0  0  0  0
 15 17  1  0  0  0  0
 14 15  2  0  0  0  0
 14 24  1  0  0  0  0
 11 12  1  0  0  0  0
 11 13  1  0  0  0  0
 11 14  1  0  0  0  0
  9 10  1  0  0  0  0
  9 11  1  0  0  0  0
  9 26  1  0  0  0  0
  7  8  1  0  0  0  0
  7  9  1  0  0  0  0
 30 31  1  0  0  0  0
 30 32  1  0  0  0  0
 30 33  1  0  0  0  0
 28 29  1  0  0  0  0
 28 30  1  0  0  0  0
M  END
$$$$
default_name
  -OEChem-01062215323D

 33 33  0     1  0  0  0  0  0999 V2000
   -4.0702   -3.8485    1.4554 H   0  0  0  0  0  0  0  0  0  0  0  0
   -4.0012   -2.9605    0.8284 C   0  0  0  0  0  0  0  0  0  0  0  0
   -4.7652   -2.2435    1.1234 H   0  0  0  0  0  0  0  0  0  0  0  0
   -4.1352   -3.2385   -0.2156 H   0  0  0  0  0  0  0  0  0  0  0  0
   -2.6362   -2.3395    1.0094 C   0  0  0  0  0  0  0  0  0  0  0  0
   -1.8292   -2.8395    1.7814 O   0  0  0  0  0  0  0  0  0  0  0  0
   -2.3832   -1.2445    0.2964 N   0  0  0  0  0  0  0  0  0  0  0  0
   -3.1102   -0.8685   -0.2946 H   0  0  0  0  0  0  0  0  0  0  0  0
   -1.1292   -0.4875    0.3524 C   0  0  1  0  0  0  0  0  0  0  0  0
   -0.3087   -1.1556    0.0882 H   0  0  0  0  0  0  0  0  0  0  0  0
   -1.1749    0.6534   -0.6787 C   0  0  0  0  0  0  0  0  0  0  0  0
   -2.0750    1.2464   -0.5114 H   0  0  0  0  0  0  0  0  0  0  0  0
   -0.3173    1.3090   -0.5186 H   0  0  0  0  0  0  0  0  0  0  0  0
   -1.1836    0.1809   -2.1196 C   0  0  0  0  0  0  0  0  0  0  0  0
    0.0191   -0.1895   -2.7541 C   0  0  0  0  0  0  0  0  0  0  0  0
    0.9580   -0.1126   -2.2215 H   0  0  0  0  0  0  0  0  0  0  0  0
    0.0009   -0.6662   -4.0793 C   0  0  0  0  0  0  0  0  0  0  0  0
    0.9240   -0.9474   -4.5625 H   0  0  0  0  0  0  0  0  0  0  0  0
   -1.2252   -0.7763   -4.7708 C   0  0  0  0  0  0  0  0  0  0  0  0
   -1.2537   -1.2376   -6.0481 O   0  0  0  0  0  0  0  0  0  0  0  0
   -0.3740   -1.3697   -6.4041 H   0  0  0  0  0  0  0  0  0  0  0  0
   -2.4283   -0.4098   -4.1327 C   0  0  0  0  0  0  0  0  0  0  0  0
   -3.3589   -0.4943   -4.6734 H   0  0  0  0  0  0  0  0  0  0  0  0
   -2.4063    0.0706   -2.8096 C   0  0  0  0  0  0  0  0  0  0  0  0
   -3.3300    0.3607   -2.3232 H   0  0  0  0  0  0  0  0  0  0  0  0
   -0.8664    0.0378    1.7736 C   0  0  0  0  0  0  0  0  0  0  0  0
    0.2878    0.1891    2.1748 O   0  0  0  0  0  0  0  0  0  0  0  0
   -1.9330    0.3124    2.5351 N   0  0  0  0  0  0  0  0  0  0  0  0
   -2.8445    0.1055    2.1532 H   0  0  0  0  0  0  0  0  0  0  0  0
   -1.8606    0.8157    3.9049 C   0  0  0  0  0  0  0  0  0  0  0  0
   -1.1964    1.6807    3.9474 H   0  0  0  0  0  0  0  0  0  0  0  0
   -2.8535    1.1074    4.2511 H   0  0  0  0  0  0  0  0  0  0  0  0
   -1.4639    0.0384    4.5613 H   0  0  0  0  0  0  0  0  0  0  0  0
  5  6  2  0  0  0  0
  5  7  1  0  0  0  0
  2  3  1  0  0  0  0
  2  4  1  0  0  0  0
  2  5  1  0  0  0  0
  1  2  1  0  0  0  0
 26 27  2  0  0  0  0
 26 28  1  0  0  0  0
 24 25  1  0  0  0  0
 22 23  1  0  0  0  0
 22 24  2  0  0  0  0
 20 21  1  0  0  0  0
 19 20  1  0  0  0  0
 19 22  1  0  0  0  0
 17 18  1  0  0  0  0
 17 19  2  0  0  0  0
 15 16  1  0  0  0  0
 15 17  1  0  0  0  0
 14 15  2  0  0  0  0
 14 24  1  0  0  0  0
 11 12  1  0  0  0  0
 11 13  1  0  0  0  0
 11 14  1  0  0  0  0
  9 10  1  0  0  0  0
  9 11  1  0  0  0  0
  9 26  1  0  0  0  0
  7  8  1  0  0  0  0
  7  9  1  0  0  0  0
 30 31  1  0  0  0  0
 30 32  1  0  0  0  0
 30 33  1  0  0  0  0
 28 29  1  0  0  0  0
 28 30  1  0  0  0  0
M  END
$$$$
default_name
  -OEChem-01062215323D

 33 33  0     1  0  0  0  0  0999 V2000
   -4.0702   -3.8485    1.4554 H   0  0  0  0  0  0  0  0  0  0  0  0
   -4.0012   -2.9605    0.8284 C   0  0  0  0  0  0  0  0  0  0  0  0
   -4.7652   -2.2435    1.1234 H   0  0  0  0  0  0  0  0  0  0  0  0
   -4.1352   -3.2385   -0.2156 H   0  0  0  0  0  0  0  0  0  0  0  0
   -2.6362   -2.3395    1.0094 C   0  0  0  0  0  0  0  0  0  0  0  0
   -1.8292   -2.8395    1.7814 O   0  0  0  0  0  0  0  0  0  0  0  0
   -2.3832   -1.2445    0.2964 N   0  0  0  0  0  0  0  0  0  0  0  0
   -3.1102   -0.8685   -0.2946 H   0  0  0  0  0  0  0  0  0  0  0  0
   -1.1292   -0.4875    0.3524 C   0  0  1  0  0  0  0  0  0  0  0  0
   -0.3087   -1.1556    0.0882 H   0  0  0  0  0  0  0  0  0  0  0  0
   -1.1749    0.6534   -0.6787 C   0  0  0  0  0  0  0  0  0  0  0  0
   -2.0750    1.2464   -0.5114 H   0  0  0  0  0  0  0  0  0  0  0  0
   -0.3173    1.3090   -0.5186 H   0  0  0  0  0  0  0  0  0  0  0  0
   -1.1836    0.1809   -2.1196 C   0  0  0  0  0  0  0  0  0  0  0  0
    0.0191   -0.1895   -2.7541 C   0  0  0  0  0  0  0  0  0  0  0  0
    0.9580   -0.1126   -2.2215 H   0  0  0  0  0  0  0  0  0  0  0  0
    0.0009   -0.6662   -4.0793 C   0  0  0  0  0  0  0  0  0  0  0  0
    0.9240   -0.9474   -4.5625 H   0  0  0  0  0  0  0  0  0  0  0  0
   -1.2252   -0.7763   -4.7708 C   0  0  0  0  0  0  0  0  0  0  0  0
   -1.2537   -1.2376   -6.0481 O   0  0  0  0  0  0  0  0  0  0  0  0
   -0.3740   -1.3697   -6.4041 H   0  0  0  0  0  0  0  0  0  0  0  0
   -2.4283   -0.4098   -4.1327 C   0  0  0  0  0  0  0  0  0  0  0  0
   -3.3589   -0.4943   -4.6734 H   0  0  0  0  0  0  0  0  0  0  0  0
   -2.4063    0.0706   -2.8096 C   0  0  0  0  0  0  0  0  0  0  0  0
   -3.3300    0.3607   -2.3232 H   0  0  0  0  0  0  0  0  0  0  0  0
   -0.8664    0.0378    1.7736 C   0  0  0  0  0  0  0  0  0  0  0  0
    0.2514    0.4495    2.0853 O   0  0  0  0  0  0  0  0  0  0  0  0
   -1.8915    0.0214    2.6350 N   0  0  0  0  0  0  0  0  0  0  0  0
   -2.7595   -0.3863    2.3192 H   0  0  0  0  0  0  0  0  0  0  0  0
   -1.8124    0.4811    4.0196 C   0  0  0  0  0  0  0  0  0  0  0  0
   -1.3714    1.4788    4.0543 H   0  0  0  0  0  0  0  0  0  0  0  0
   -2.8091    0.5130    4.4626 H   0  0  0  0  0  0  0  0  0  0  0  0
   -1.1828   -0.1991    4.5970 H   0  0  0  0  0  0  0  0  0  0  0  0
  5  6  2  0  0  0  0
  5  7  1  0  0  0  0
  2  3  1  0  0  0  0
  2  4  1  0  0  0  0
  2  5  1  0  0  0  0
  1  2  1  0  0  0  0
 26 27  2  0  0  0  0
 26 28  1  0  0  0  0
 24 25  1  0  0  0  0
 22 23  1  0  0  0  0
 22 24  2  0  0  0  0
 20 21  1  0  0  0  0
 19 20  1  0  0  0  0
 19 22  1  0  0  0  0
 17 18  1  0  0  0  0
 17 19  2  0  0  0  0
 15 16  1  0  0  0  0
 15 17  1  0  0  0  0
 14 15  2  0  0  0  0
 14 24  1  0  0  0  0
 11 12  1  0  0  0  0
 11 13  1  0  0  0  0
 11 14  1  0  0  0  0
  9 10  1  0  0  0  0
  9 11  1  0  0  0  0
  9 26  1  0  0  0  0
  7  8  1  0  0  0  0
  7  9  1  0  0  0  0
 30 31  1  0  0  0  0
 30 32  1  0  0  0  0
 30 33  1  0  0  0  0
 28 29  1  0  0  0  0
 28 30  1  0  0  0  0
M  END
$$$$
default_name
  -OEChem-01062215323D

 33 33  0     1  0  0  0  0  0999 V2000
   -4.0702   -3.8485    1.4554 H   0  0  0  0  0  0  0  0  0  0  0  0
   -4.0012   -2.9605    0.8284 C   0  0  0  0  0  0  0  0  0  0  0  0
   -4.7652   -2.2435    1.1234 H   0  0  0  0  0  0  0  0  0  0  0  0
   -4.1352   -3.2385   -0.2156 H   0  0  0  0  0  0  0  0  0  0  0  0
   -2.6362   -2.3395    1.0094 C   0  0  0  0  0  0  0  0  0  0  0  0
   -1.8292   -2.8395    1.7814 O   0  0  0  0  0  0  0  0  0  0  0  0
   -2.3832   -1.2445    0.2964 N   0  0  0  0  0  0  0  0  0  0  0  0
   -3.1102   -0.8685   -0.2946 H   0  0  0  0  0  0  0  0  0  0  0  0
   -1.1292   -0.4875    0.3524 C   0  0  1  0  0  0  0  0  0  0  0  0
   -0.3087   -1.1556    0.0882 H   0  0  0  0  0  0  0  0  0  0  0  0
   -1.1749    0.6534   -0.6787 C   0  0  0  0  0  0  0  0  0  0  0  0
   -2.0750    1.2464   -0.5114 H   0  0  0  0  0  0  0  0  0  0  0  0
   -0.3173    1.3090   -0.5186 H   0  0  0  0  0  0  0  0  0  0  0  0
   -1.1836    0.1809   -2.1196 C   0  0  0  0  0  0  0  0  0  0  0  0
    0.0191   -0.1895   -2.7541 C   0  0  0  0  0  0  0  0  0  0  0  0
    0.9580   -0.1126   -2.2215 H   0  0  0  0  0  0  0  0  0  0  0  0
    0.0009   -0.6662   -4.0793 C   0  0  0  0  0  0  0  0  0  0  0  0
    0.9240   -0.9474   -4.5625 H   0  0  0  0  0  0  0  0  0  0  0  0
   -1.2252   -0.7763   -4.7708 C   0  0  0  0  0  0  0  0  0  0  0  0
   -1.2537   -1.2376   -6.0481 O   0  0  0  0  0  0  0  0  0  0  0  0
   -0.3740   -1.3697   -6.4041 H   0  0  0  0  0  0  0  0  0  0  0  0
   -2.4283   -0.4098   -4.1327 C   0  0  0  0  0  0  0  0  0  0  0  0
   -3.3589   -0.4943   -4.6734 H   0  0  0  0  0  0  0  0  0  0  0  0
   -2.4063    0.0706   -2.8096 C   0  0  0  0  0  0  0  0  0  0  0  0
   -3.3300    0.3607   -2.3232 H   0  0  0  0  0  0  0  0  0  0  0  0
   -0.8664    0.0378    1.7736 C   0  0  0  0  0  0  0  0  0  0  0  0
    0.1460    0.6963    2.0136 O   0  0  0  0  0  0  0  0  0  0  0  0
   -1.7729   -0.2542    2.7149 N   0  0  0  0  0  0  0  0  0  0  0  0
   -2.5451   -0.8484    2.4504 H   0  0  0  0  0  0  0  0  0  0  0  0
   -1.6756    0.1644    4.1114 C   0  0  0  0  0  0  0  0  0  0  0  0
   -1.4826    1.2373    4.1641 H   0  0  0  0  0  0  0  0  0  0  0  0
   -2.6054   -0.0599    4.6366 H   0  0  0  0  0  0  0  0  0  0  0  0
   -0.8514   -0.3628    4.5963 H   0  0  0  0  0  0  0  0  0  0  0  0
  5  6  2  0  0  0  0
  5  7  1  0  0  0  0
  2  3  1  0  0  0  0
  2  4  1  0  0  0  0
  2  5  1  0  0  0  0
  1  2  1  0  0  0  0
 26 27  2  0  0  0  0
 26 28  1  0  0  0  0
 24 25  1  0  0  0  0
 22 23  1  0  0  0  0
 22 24  2  0  0  0  0
 20 21  1  0  0  0  0
 19 20  1  0  0  0  0
 19 22  1  0  0  0  0
 17 18  1  0  0  0  0
 17 19  2  0  0  0  0
 15 16  1  0  0  0  0
 15 17  1  0  0  0  0
 14 15  2  0  0  0  0
 14 24  1  0  0  0  0
 11 12  1  0  0  0  0
 11 13  1  0  0  0  0
 11 14  1  0  0  0  0
  9 10  1  0  0  0  0
  9 11  1  0  0  0  0
  9 26  1  0  0  0  0
  7  8  1  0  0  0  0
  7  9  1  0  0  0  0
 30 31  1  0  0  0  0
 30 32  1  0  0  0  0
 30 33  1  0  0  0  0
 28 29  1  0  0  0  0
 28 30  1  0  0  0  0
M  END
$$$$
default_name
  -OEChem-01062215323D

 33 33  0     1  0  0  0  0  0999 V2000
   -4.0702   -3.8485    1.4554 H   0  0  0  0  0  0  0  0  0  0  0  0
   -4.0012   -2.9605    0.8284 C   0  0  0  0  0  0  0  0  0  0  0  0
   -4.7652   -2.2435    1.1234 H   0  0  0  0  0  0  0  0  0  0  0  0
   -4.1352   -3.2385   -0.2156 H   0  0  0  0  0  0  0  0  0  0  0  0
   -2.6362   -2.3395    1.0094 C   0  0  0  0  0  0  0  0  0  0  0  0
   -1.8292   -2.8395    1.7814 O   0  0  0  0  0  0  0  0  0  0  0  0
   -2.3832   -1.2445    0.2964 N   0  0  0  0  0  0  0  0  0  0  0  0
   -3.1102   -0.8685   -0.2946 H   0  0  0  0  0  0  0  0  0  0  0  0
   -1.1292   -0.4875    0.3524 C   0  0  1  0  0  0  0  0  0  0  0  0
   -0.3087   -1.1556    0.0882 H   0  0  0  0  0  0  0  0  0  0  0  0
   -1.1749    0.6534   -0.6787 C   0  0  0  0  0  0  0  0  0  0  0  0
   -2.0750    1.2464   -0.5114 H   0  0  0  0  0  0  0  0  0  0  0  0
   -0.3173    1.3090   -0.5186 H   0  0  0  0  0  0  0  0  0  0  0  0
   -1.1836    0.1809   -2.1196 C   0  0  0  0  0  0  0  0  0  0  0  0
    0.0191   -0.1895   -2.7541 C   0  0  0  0  0  0  0  0  0  0  0  0
    0.9580   -0.1126   -2.2215 H   0  0  0  0  0  0  0  0  0  0  0  0
    0.0009   -0.6662   -4.0793 C   0  0  0  0  0  0  0  0  0  0  0  0
    0.9240   -0.9474   -4.5625 H   0  0  0  0  0  0  0  0  0  0  0  0
   -1.2252   -0.7763   -4.7708 C   0  0  0  0  0  0  0  0  0  0  0  0
   -1.2537   -1.2376   -6.0481 O   0  0  0  0  0  0  0  0  0  0  0  0
   -0.3740   -1.3697   -6.4041 H   0  0  0  0  0  0  0  0  0  0  0  0
   -2.4283   -0.4098   -4.1327 C   0  0  0  0  0  0  0  0  0  0  0  0
   -3.3589   -0.4943   -4.6734 H   0  0  0  0  0  0  0  0  0  0  0  0
   -2.4063    0.0706   -2.8096 C   0  0  0  0  0  0  0  0  0  0  0  0
   -3.3300    0.3607   -2.3232 H   0  0  0  0  0  0  0  0  0  0  0  0
   -0.8664    0.0378    1.7736 C   0  0  0  0  0  0  0  0  0  0  0  0
   -0.0212    0.9126    1.9646 O   0  0  0  0  0  0  0  0  0  0  0  0
   -1.5854   -0.4955    2.7694 N   0  0  0  0  0  0  0  0  0  0  0  0
   -2.2159   -1.2493    2.5376 H   0  0  0  0  0  0  0  0  0  0  0  0
   -1.4597   -0.1129    4.1739 C   0  0  0  0  0  0  0  0  0  0  0  0
   -1.5226    0.9725    4.2694 H   0  0  0  0  0  0  0  0  0  0  0  0
   -2.2563   -0.5723    4.7614 H   0  0  0  0  0  0  0  0  0  0  0  0
   -0.4922   -0.4417    4.5590 H   0  0  0  0  0  0  0  0  0  0  0  0
  5  6  2  0  0  0  0
  5  7  1  0  0  0  0
  2  3  1  0  0  0  0
  2  4  1  0  0  0  0
  2  5  1  0  0  0  0
  1  2  1  0  0  0  0
 26 27  2  0  0  0  0
 26 28  1  0  0  0  0
 24 25  1  0  0  0  0
 22 23  1  0  0  0  0
 22 24  2  0  0  0  0
 20 21  1  0  0  0  0
 19 20  1  0  0  0  0
 19 22  1  0  0  0  0
 17 18  1  0  0  0  0
 17 19  2  0  0  0  0
 15 16  1  0  0  0  0
 15 17  1  0  0  0  0
 14 15  2  0  0  0  0
 14 24  1  0  0  0  0
 11 12  1  0  0  0  0
 11 13  1  0  0  0  0
 11 14  1  0  0  0  0
  9 10  1  0  0  0  0
  9 11  1  0  0  0  0
  9 26  1  0  0  0  0
  7  8  1  0  0  0  0
  7  9  1  0  0  0  0
 30 31  1  0  0  0  0
 30 32  1  0  0  0  0
 30 33  1  0  0  0  0
 28 29  1  0  0  0  0
 28 30  1  0  0  0  0
M  END
$$$$
default_name
  -OEChem-01062215323D

 33 33  0     1  0  0  0  0  0999 V2000
   -4.0702   -3.8485    1.4554 H   0  0  0  0  0  0  0  0  0  0  0  0
   -4.0012   -2.9605    0.8284 C   0  0  0  0  0  0  0  0  0  0  0  0
   -4.7652   -2.2435    1.1234 H   0  0  0  0  0  0  0  0  0  0  0  0
   -4.1352   -3.2385   -0.2156 H   0  0  0  0  0  0  0  0  0  0  0  0
   -2.6362   -2.3395    1.0094 C   0  0  0  0  0  0  0  0  0  0  0  0
   -1.8292   -2.8395    1.7814 O   0  0  0  0  0  0  0  0  0  0  0  0
   -2.3832   -1.2445    0.2964 N   0  0  0  0  0  0  0  0  0  0  0  0
   -3.1102   -0.8685   -0.2946 H   0  0  0  0  0  0  0  0  0  0  0  0
   -1.1292   -0.4875    0.3524 C   0  0  1  0  0  0  0  0  0  0  0  0
   -0.3087   -1.1556    0.0882 H   0  0  0  0  0  0  0  0  0  0  0  0
   -1.1749    0.6534   -0.6787 C   0  0  0  0  0  0  0  0  0  0  0  0
   -2.0750    1.2464   -0.5114 H   0  0  0  0  0  0  0  0  0  0  0  0
   -0.3173    1.3090   -0.5186 H   0  0  0  0  0  0  0  0  0  0  0  0
   -1.1836    0.1809   -2.1196 C   0  0  0  0  0  0  0  0  0  0  0  0
    0.0191   -0.1895   -2.7541 C   0  0  0  0  0  0  0  0  0  0  0  0
    0.9580   -0.1126   -2.2215 H   0  0  0  0  0  0  0  0  0  0  0  0
    0.0009   -0.6662   -4.0793 C   0  0  0  0  0  0  0  0  0  0  0  0
    0.9240   -0.9474   -4.5625 H   0  0  0  0  0  0  0  0  0  0  0  0
   -1.2252   -0.7763   -4.7708 C   0  0  0  0  0  0  0  0  0  0  0  0
   -1.2537   -1.2376   -6.0481 O   0  0  0  0  0  0  0  0  0  0  0  0
   -0.3740   -1.3697   -6.4041 H   0  0  0  0  0  0  0  0  0  0  0  0
   -2.4283   -0.4098   -4.1327 C   0  0  0  0  0  0  0  0  0  0  0  0
   -3.3589   -0.4943   -4.6734 H   0  0  0  0  0  0  0  0  0  0  0  0
   -2.4063    0.0706   -2.8096 C   0  0  0  0  0  0  0  0  0  0  0  0
   -3.3300    0.3607   -2.3232 H   0  0  0  0  0  0  0  0  0  0  0  0
   -0.8664    0.0378    1.7736 C   0  0  0  0  0  0  0  0  0  0  0  0
   -0.2388    1.0837    1.9416 O   0  0  0  0  0  0  0  0  0  0  0  0
   -1.3417   -0.6862    2.7948 N   0  0  0  0  0  0  0  0  0  0  0  0
   -1.7943   -1.5616    2.5751 H   0  0  0  0  0  0  0  0  0  0  0  0
   -1.1792   -0.3318    4.2029 C   0  0  0  0  0  0  0  0  0  0  0  0
   -1.4886    0.7025    4.3629 H   0  0  0  0  0  0  0  0  0  0  0  0
   -1.7854   -0.9892    4.8284 H   0  0  0  0  0  0  0  0  0  0  0  0
   -0.1296   -0.4302    4.4877 H   0  0  0  0  0  0  0  0  0  0  0  0
  5  6  2  0  0  0  0
  5  7  1  0  0  0  0
  2  3  1  0  0  0  0
  2  4  1  0  0  0  0
  2  5  1  0  0  0  0
  1  2  1  0  0  0  0
 26 27  2  0  0  0  0
 26 28  1  0  0  0  0
 24 25  1  0  0  0  0
 22 23  1  0  0  0  0
 22 24  2  0  0  0  0
 20 21  1  0  0  0  0
 19 20  1  0  0  0  0
 19 22  1  0  0  0  0
 17 18  1  0  0  0  0
 17 19  2  0  0  0  0
 15 16  1  0  0  0  0
 15 17  1  0  0  0  0
 14 15  2  0  0  0  0
 14 24  1  0  0  0  0
 11 12  1  0  0  0  0
 11 13  1  0  0  0  0
 11 14  1  0  0  0  0
  9 10  1  0  0  0  0
  9 11  1  0  0  0  0
  9 26  1  0  0  0  0
  7  8  1  0  0  0  0
  7  9  1  0  0  0  0
 30 31  1  0  0  0  0
 30 32  1  0  0  0  0
 30 33  1  0  0  0  0
 28 29  1  0  0  0  0
 28 30  1  0  0  0  0
M  END
$$$$
default_name
  -OEChem-01062215323D

 33 33  0     1  0  0  0  0  0999 V2000
   -4.0702   -3.8485    1.4554 H   0  0  0  0  0  0  0  0  0  0  0  0
   -4.0012   -2.9605    0.8284 C   0  0  0  0  0  0  0  0  0  0  0  0
   -4.7652   -2.2435    1.1234 H   0  0  0  0  0  0  0  0  0  0  0  0
   -4.1352   -3.2385   -0.2156 H   0  0  0  0  0  0  0  0  0  0  0  0
   -2.6362   -2.3395    1.0094 C   0  0  0  0  0  0  0  0  0  0  0  0
   -1.8292   -2.8395    1.7814 O   0  0  0  0  0  0  0  0  0  0  0  0
   -2.3832   -1.2445    0.2964 N   0  0  0  0  0  0  0  0  0  0  0  0
   -3.1102   -0.8685   -0.2946 H   0  0  0  0  0  0  0  0  0  0  0  0
   -1.1292   -0.4875    0.3524 C   0  0  1  0  0  0  0  0  0  0  0  0
   -0.3087   -1.1556    0.0882 H   0  0  0  0  0  0  0  0  0  0  0  0
   -1.1749    0.6534   -0.6787 C   0  0  0  0  0  0  0  0  0  0  0  0
   -2.0750    1.2464   -0.5114 H   0  0  0  0  0  0  0  0  0  0  0  0
   -0.3173    1.3090   -0.5186 H   0  0  0  0  0  0  0  0  0  0  0  0
   -1.1836    0.1809   -2.1196 C   0  0  0  0  0  0  0  0  0  0  0  0
    0.0191   -0.1895   -2.7541 C   0  0  0  0  0  0  0  0  0  0  0  0
    0.9580   -0.1126   -2.2215 H   0  0  0  0  0  0  0  0  0  0  0  0
    0.0009   -0.6662   -4.0793 C   0  0  0  0  0  0  0  0  0  0  0  0
    0.9240   -0.9474   -4.5625 H   0  0  0  0  0  0  0  0  0  0  0  0
   -1.2252   -0.7763   -4.7708 C   0  0  0  0  0  0  0  0  0  0  0  0
   -1.2537   -1.2376   -6.0481 O   0  0  0  0  0  0  0  0  0  0  0  0
   -0.3740   -1.3697   -6.4041 H   0  0  0  0  0  0  0  0  0  0  0  0
   -2.4283   -0.4098   -4.1327 C   0  0  0  0  0  0  0  0  0  0  0  0
   -3.3589   -0.4943   -4.6734 H   0  0  0  0  0  0  0  0  0  0  0  0
   -2.4063    0.0706   -2.8096 C   0  0  0  0  0  0  0  0  0  0  0  0
   -3.3300    0.3607   -2.3232 H   0  0  0  0  0  0  0  0  0  0  0  0
   -0.8664    0.0378    1.7736 C   0  0  0  0  0  0  0  0  0  0  0  0
   -0.4919    1.1980    1.9462 O   0  0  0  0  0  0  0  0  0  0  0  0
   -1.0585   -0.8133    2.7894 N   0  0  0  0  0  0  0  0  0  0  0  0
   -1.3091   -1.7642    2.5602 H   0  0  0  0  0  0  0  0  0  0  0  0
   -0.8534   -0.4775    4.1965 C   0  0  0  0  0  0  0  0  0  0  0  0
   -1.3829    0.4457    4.4382 H   0  0  0  0  0  0  0  0  0  0  0  0
   -1.2249   -1.2822    4.8330 H   0  0  0  0  0  0  0  0  0  0  0  0
    0.2115   -0.3293    4.3873 H   0  0  0  0  0  0  0  0  0  0  0  0
  5  6  2  0  0  0  0
  5  7  1  0  0  0  0
  2  3  1  0  0  0  0
  2  4  1  0  0  0  0
  2  5  1  0  0  0  0
  1  2  1  0  0  0  0
 26 27  2  0  0  0  0
 26 28  1  0  0  0  0
 24 25  1  0  0  0  0
 22 23  1  0  0  0  0
 22 24  2  0  0  0  0
 20 21  1  0  0  0  0
 19 20  1  0  0  0  0
 19 22  1  0  0  0  0
 17 18  1  0  0  0  0
 17 19  2  0  0  0  0
 15 16  1  0  0  0  0
 15 17  1  0  0  0  0
 14 15  2  0  0  0  0
 14 24  1  0  0  0  0
 11 12  1  0  0  0  0
 11 13  1  0  0  0  0
 11 14  1  0  0  0  0
  9 10  1  0  0  0  0
  9 11  1  0  0  0  0
  9 26  1  0  0  0  0
  7  8  1  0  0  0  0
  7  9  1  0  0  0  0
 30 31  1  0  0  0  0
 30 32  1  0  0  0  0
 30 33  1  0  0  0  0
 28 29  1  0  0  0  0
 28 30  1  0  0  0  0
M  END
$$$$
default_name
  -OEChem-01062215323D

 33 33  0     1  0  0  0  0  0999 V2000
   -4.0702   -3.8485    1.4554 H   0  0  0  0  0  0  0  0  0  0  0  0
   -4.0012   -2.9605    0.8284 C   0  0  0  0  0  0  0  0  0  0  0  0
   -4.7652   -2.2435    1.1234 H   0  0  0  0  0  0  0  0  0  0  0  0
   -4.1352   -3.2385   -0.2156 H   0  0  0  0  0  0  0  0  0  0  0  0
   -2.6362   -2.3395    1.0094 C   0  0  0  0  0  0  0  0  0  0  0  0
   -1.8292   -2.8395    1.7814 O   0  0  0  0  0  0  0  0  0  0  0  0
   -2.3832   -1.2445    0.2964 N   0  0  0  0  0  0  0  0  0  0  0  0
   -3.1102   -0.8685   -0.2946 H   0  0  0  0  0  0  0  0  0  0  0  0
   -1.1292   -0.4875    0.3524 C   0  0  1  0  0  0  0  0  0  0  0  0
   -0.3087   -1.1556    0.0882 H   0  0  0  0  0  0  0  0  0  0  0  0
   -1.1749    0.6534   -0.6787 C   0  0  0  0  0  0  0  0  0  0  0  0
   -2.0750    1.2464   -0.5114 H   0  0  0  0  0  0  0  0  0  0  0  0
   -0.3173    1.3090   -0.5186 H   0  0  0  0  0  0  0  0  0  0  0  0
   -1.1836    0.1809   -2.1196 C   0  0  0  0  0  0  0  0  0  0  0  0
    0.0191   -0.1895   -2.7541 C   0  0  0  0  0  0  0  0  0  0  0  0
    0.9580   -0.1126   -2.2215 H   0  0  0  0  0  0  0  0  0  0  0  0
    0.0009   -0.6662   -4.0793 C   0  0  0  0  0  0  0  0  0  0  0  0
    0.9240   -0.9474   -4.5625 H   0  0  0  0  0  0  0  0  0  0  0  0
   -1.2252   -0.7763   -4.7708 C   0  0  0  0  0  0  0  0  0  0  0  0
   -1.2537   -1.2376   -6.0481 O   0  0  0  0  0  0  0  0  0  0  0  0
   -0.3740   -1.3697   -6.4041 H   0  0  0  0  0  0  0  0  0  0  0  0
   -2.4283   -0.4098   -4.1327 C   0  0  0  0  0  0  0  0  0  0  0  0
   -3.3589   -0.4943   -4.6734 H   0  0  0  0  0  0  0  0  0  0  0  0
   -2.4063    0.0706   -2.8096 C   0  0  0  0  0  0  0  0  0  0  0  0
   -3.3300    0.3607   -2.3232 H   0  0  0  0  0  0  0  0  0  0  0  0
   -0.8664    0.0378    1.7736 C   0  0  0  0  0  0  0  0  0  0  0  0
   -0.7633    1.2476    1.9781 O   0  0  0  0  0  0  0  0  0  0  0  0
   -0.7550   -0.8680    2.7535 N   0  0  0  0  0  0  0  0  0  0  0  0
   -0.7933   -1.8430    2.4939 H   0  0  0  0  0  0  0  0  0  0  0  0
   -0.5044   -0.5400    4.1550 C   0  0  0  0  0  0  0  0  0  0  0  0
   -1.2127    0.2197    4.4903 H   0  0  0  0  0  0  0  0  0  0  0  0
   -0.6131   -1.4314    4.7750 H   0  0  0  0  0  0  0  0  0  0  0  0
    0.5081   -0.1458    4.2646 H   0  0  0  0  0  0  0  0  0  0  0  0
  5  6  2  0  0  0  0
  5  7  1  0  0  0  0
  2  3  1  0  0  0  0
  2  4  1  0  0  0  0
  2  5  1  0  0  0  0
  1  2  1  0  0  0  0
 26 27  2  0  0  0  0
 26 28  1  0  0  0  0
 24 25  1  0  0  0  0
 22 23  1  0  0  0  0
 22 24  2  0  0  0  0
 20 21  1  0  0  0  0
 19 20  1  0  0  0  0
 19 22  1  0  0  0  0
 17 18  1  0  0  0  0
 17 19  2  0  0  0  0
 15 16  1  0  0  0  0
 15 17  1  0  0  0  0
 14 15  2  0  0  0  0
 14 24  1  0  0  0  0
 11 12  1  0  0  0  0
 11 13  1  0  0  0  0
 11 14  1  0  0  0  0
  9 10  1  0  0  0  0
  9 11  1  0  0  0  0
  9 26  1  0  0  0  0
  7  8  1  0  0  0  0
  7  9  1  0  0  0  0
 30 31  1  0  0  0  0
 30 32  1  0  0  0  0
 30 33  1  0  0  0  0
 28 29  1  0  0  0  0
 28 30  1  0  0  0  0
M  END
$$$$
default_name
  -OEChem-01062215323D

 33 33  0     1  0  0  0  0  0999 V2000
   -4.0702   -3.8485    1.4554 H   0  0  0  0  0  0  0  0  0  0  0  0
   -4.0012   -2.9605    0.8284 C   0  0  0  0  0  0  0  0  0  0  0  0
   -4.7652   -2.2435    1.1234 H   0  0  0  0  0  0  0  0  0  0  0  0
   -4.1352   -3.2385   -0.2156 H   0  0  0  0  0  0  0  0  0  0  0  0
   -2.6362   -2.3395    1.0094 C   0  0  0  0  0  0  0  0  0  0  0  0
   -1.8292   -2.8395    1.7814 O   0  0  0  0  0  0  0  0  0  0  0  0
   -2.3832   -1.2445    0.2964 N   0  0  0  0  0  0  0  0  0  0  0  0
   -3.1102   -0.8685   -0.2946 H   0  0  0  0  0  0  0  0  0  0  0  0
   -1.1292   -0.4875    0.3524 C   0  0  1  0  0  0  0  0  0  0  0  0
   -0.3087   -1.1556    0.0882 H   0  0  0  0  0  0  0  0  0  0  0  0
   -1.1749    0.6534   -0.6787 C   0  0  0  0  0  0  0  0  0  0  0  0
   -2.0750    1.2464   -0.5114 H   0  0  0  0  0  0  0  0  0  0  0  0
   -0.3173    1.3090   -0.5186 H   0  0  0  0  0  0  0  0  0  0  0  0
   -1.1836    0.1809   -2.1196 C   0  0  0  0  0  0  0  0  0  0  0  0
    0.0191   -0.1895   -2.7541 C   0  0  0  0  0  0  0  0  0  0  0  0
    0.9580   -0.1126   -2.2215 H   0  0  0  0  0  0  0  0  0  0  0  0
    0.0009   -0.6662   -4.0793 C   0  0  0  0  0  0  0  0  0  0  0  0
    0.9240   -0.9474   -4.5625 H   0  0  0  0  0  0  0  0  0  0  0  0
   -1.2252   -0.7763   -4.7708 C   0  0  0  0  0  0  0  0  0  0  0  0
   -1.2537   -1.2376   -6.0481 O   0  0  0  0  0  0  0  0  0  0  0  0
   -0.3740   -1.3697   -6.4041 H   0  0  0  0  0  0  0  0  0  0  0  0
   -2.4283   -0.4098   -4.1327 C   0  0  0  0  0  0  0  0  0  0  0  0
   -3.3589   -0.4943   -4.6734 H   0  0  0  0  0  0  0  0  0  0  0  0
   -2.4063    0.0706   -2.8096 C   0  0  0  0  0  0  0  0  0  0  0  0
   -3.3300    0.3607   -2.3232 H   0  0  0  0  0  0  0  0  0  0  0  0
   -0.8664    0.0378    1.7736 C   0  0  0  0  0  0  0  0  0  0  0  0
   -1.0345    1.2292    2.0350 O   0  0  0  0  0  0  0  0  0  0  0  0
   -0.4519   -0.8467    2.6896 N   0  0  0  0  0  0  0  0  0  0  0  0
   -0.2820   -1.7929    2.3808 H   0  0  0  0  0  0  0  0  0  0  0  0
   -0.1560   -0.5150    4.0814 C   0  0  0  0  0  0  0  0  0  0  0  0
   -0.9896    0.0397    4.5155 H   0  0  0  0  0  0  0  0  0  0  0  0
    0.0085   -1.4265    4.6582 H   0  0  0  0  0  0  0  0  0  0  0  0
    0.7397    0.1078    4.1281 H   0  0  0  0  0  0  0  0  0  0  0  0
  5  6  2  0  0  0  0
  5  7  1  0  0  0  0
  2  3  1  0  0  0  0
  2  4  1  0  0  0  0
  2  5  1  0  0  0  0
  1  2  1  0  0  0  0
 26 27  2  0  0  0  0
 26 28  1  0  0  0  0
 24 25  1  0  0  0  0
 22 23  1  0  0  0  0
 22 24  2  0  0  0  0
 20 21  1  0  0  0  0
 19 20  1  0  0  0  0
 19 22  1  0  0  0  0
 17 18  1  0  0  0  0
 17 19  2  0  0  0  0
 15 16  1  0  0  0  0
 15 17  1  0  0  0  0
 14 15  2  0  0  0  0
 14 24  1  0  0  0  0
 11 12  1  0  0  0  0
 11 13  1  0  0  0  0
 11 14  1  0  0  0  0
  9 10  1  0  0  0  0
  9 11  1  0  0  0  0
  9 26  1  0  0  0  0
  7  8  1  0  0  0  0
  7  9  1  0  0  0  0
 30 31  1  0  0  0  0
 30 32  1  0  0  0  0
 30 33  1  0  0  0  0
 28 29  1  0  0  0  0
 28 30  1  0  0  0  0
M  END
$$$$
default_name
  -OEChem-01062215323D

 33 33  0     1  0  0  0  0  0999 V2000
   -4.0702   -3.8485    1.4554 H   0  0  0  0  0  0  0  0  0  0  0  0
   -4.0012   -2.9605    0.8284 C   0  0  0  0  0  0  0  0  0  0  0  0
   -4.7652   -2.2435    1.1234 H   0  0  0  0  0  0  0  0  0  0  0  0
   -4.1352   -3.2385   -0.2156 H   0  0  0  0  0  0  0  0  0  0  0  0
   -2.6362   -2.3395    1.0094 C   0  0  0  0  0  0  0  0  0  0  0  0
   -1.8292   -2.8395    1.7814 O   0  0  0  0  0  0  0  0  0  0  0  0
   -2.3832   -1.2445    0.2964 N   0  0  0  0  0  0  0  0  0  0  0  0
   -3.1102   -0.8685   -0.2946 H   0  0  0  0  0  0  0  0  0  0  0  0
   -1.1292   -0.4875    0.3524 C   0  0  1  0  0  0  0  0  0  0  0  0
   -0.3087   -1.1556    0.0882 H   0  0  0  0  0  0  0  0  0  0  0  0
   -1.1749    0.6534   -0.6787 C   0  0  0  0  0  0  0  0  0  0  0  0
   -2.0750    1.2464   -0.5114 H   0  0  0  0  0  0  0  0  0  0  0  0
   -0.3173    1.3090   -0.5186 H   0  0  0  0  0  0  0  0  0  0  0  0
   -1.1836    0.1809   -2.1196 C   0  0  0  0  0  0  0  0  0  0  0  0
    0.0191   -0.1895   -2.7541 C   0  0  0  0  0  0  0  0  0  0  0  0
    0.9580   -0.1126   -2.2215 H   0  0  0  0  0  0  0  0  0  0  0  0
    0.0009   -0.6662   -4.0793 C   0  0  0  0  0  0  0  0  0  0  0  0
    0.9240   -0.9474   -4.5625 H   0  0  0  0  0  0  0  0  0  0  0  0
   -1.2252   -0.7763   -4.7708 C   0  0  0  0  0  0  0  0  0  0  0  0
   -1.2537   -1.2376   -6.0481 O   0  0  0  0  0  0  0  0  0  0  0  0
   -0.3740   -1.3697   -6.4041 H   0  0  0  0  0  0  0  0  0  0  0  0
   -2.4283   -0.4098   -4.1327 C   0  0  0  0  0  0  0  0  0  0  0  0
   -3.3589   -0.4943   -4.6734 H   0  0  0  0  0  0  0  0  0  0  0  0
   -2.4063    0.0706   -2.8096 C   0  0  0  0  0  0  0  0  0  0  0  0
   -3.3300    0.3607   -2.3232 H   0  0  0  0  0  0  0  0  0  0  0  0
   -0.8664    0.0378    1.7736 C   0  0  0  0  0  0  0  0  0  0  0  0
   -1.2871    1.1440    2.1132 O   0  0  0  0  0  0  0  0  0  0  0  0
   -0.1699   -0.7508    2.6020 N   0  0  0  0  0  0  0  0  0  0  0  0
    0.1899   -1.6172    2.2286 H   0  0  0  0  0  0  0  0  0  0  0  0
    0.1681   -0.4043    3.9805 C   0  0  0  0  0  0  0  0  0  0  0  0
   -0.7289   -0.0819    4.5122 H   0  0  0  0  0  0  0  0  0  0  0  0
    0.5974   -1.2680    4.4907 H   0  0  0  0  0  0  0  0  0  0  0  0
    0.8908    0.4142    3.9869 H   0  0  0  0  0  0  0  0  0  0  0  0
  5  6  2  0  0  0  0
  5  7  1  0  0  0  0
  2  3  1  0  0  0  0
  2  4  1  0  0  0  0
  2  5  1  0  0  0  0
  1  2  1  0  0  0  0
 26 27  2  0  0  0  0
 26 28  1  0  0  0  0
 24 25  1  0  0  0  0
 22 23  1  0  0  0  0
 22 24  2  0  0  0  0
 20 21  1  0  0  0  0
 19 20  1  0  0  0  0
 19 22  1  0  0  0  0
 17 18  1  0  0  0  0
 17 19  2  0  0  0  0
 15 16  1  0  0  0  0
 15 17  1  0  0  0  0
 14 15  2  0  0  0  0
 14 24  1  0  0  0  0
 11 12  1  0  0  0  0
 11 13  1  0  0  0  0
 11 14  1  0  0  0  0
  9 10  1  0  0  0  0
  9 11  1  0  0  0  0
  9 26  1  0  0  0  0
  7  8  1  0  0  0  0
  7  9  1  0  0  0  0
 30 31  1  0  0  0  0
 30 32  1  0  0  0  0
 30 33  1  0  0  0  0
 28 29  1  0  0  0  0
 28 30  1  0  0  0  0
M  END
$$$$
default_name
  -OEChem-01062215323D

 33 33  0     1  0  0  0  0  0999 V2000
   -4.0702   -3.8485    1.4554 H   0  0  0  0  0  0  0  0  0  0  0  0
   -4.0012   -2.9605    0.8284 C   0  0  0  0  0  0  0  0  0  0  0  0
   -4.7652   -2.2435    1.1234 H   0  0  0  0  0  0  0  0  0  0  0  0
   -4.1352   -3.2385   -0.2156 H   0  0  0  0  0  0  0  0  0  0  0  0
   -2.6362   -2.3395    1.0094 C   0  0  0  0  0  0  0  0  0  0  0  0
   -1.8292   -2.8395    1.7814 O   0  0  0  0  0  0  0  0  0  0  0  0
   -2.3832   -1.2445    0.2964 N   0  0  0  0  0  0  0  0  0  0  0  0
   -3.1102   -0.8685   -0.2946 H   0  0  0  0  0  0  0  0  0  0  0  0
   -1.1292   -0.4875    0.3524 C   0  0  1  0  0  0  0  0  0  0  0  0
   -0.3087   -1.1556    0.0882 H   0  0  0  0  0  0  0  0  0  0  0  0
   -1.1749    0.6534   -0.6787 C   0  0  0  0  0  0  0  0  0  0  0  0
   -2.0750    1.2464   -0.5114 H   0  0  0  0  0  0  0  0  0  0  0  0
   -0.3173    1.3090   -0.5186 H   0  0  0  0  0  0  0  0  0  0  0  0
   -1.1836    0.1809   -2.1196 C   0  0  0  0  0  0  0  0  0  0  0  0
    0.0191   -0.1895   -2.7541 C   0  0  0  0  0  0  0  0  0  0  0  0
    0.9580   -0.1126   -2.2215 H   0  0  0  0  0  0  0  0  0  0  0  0
    0.0009   -0.6662   -4.0793 C   0  0  0  0  0  0  0  0  0  0  0  0
    0.9240   -0.9474   -4.5625 H   0  0  0  0  0  0  0  0  0  0  0  0
   -1.2252   -0.7763   -4.7708 C   0  0  0  0  0  0  0  0  0  0  0  0
   -1.2537   -1.2376   -6.0481 O   0  0  0  0  0  0  0  0  0  0  0  0
   -0.3740   -1.3697   -6.4041 H   0  0  0  0  0  0  0  0  0  0  0  0
   -2.4283   -0.4098   -4.1327 C   0  0  0  0  0  0  0  0  0  0  0  0
   -3.3589   -0.4943   -4.6734 H   0  0  0  0  0  0  0  0  0  0  0  0
   -2.4063    0.0706   -2.8096 C   0  0  0  0  0  0  0  0  0  0  0  0
   -3.3300    0.3607   -2.3232 H   0  0  0  0  0  0  0  0  0  0  0  0
   -0.8664    0.0378    1.7736 C   0  0  0  0  0  0  0  0  0  0  0  0
   -1.5037    0.9979    2.2073 O   0  0  0  0  0  0  0  0  0  0  0  0
    0.0718   -0.5868    2.4967 N   0  0  0  0  0  0  0  0  0  0  0  0
    0.5902   -1.3278    2.0477 H   0  0  0  0  0  0  0  0  0  0  0  0
    0.4457   -0.2154    3.8594 C   0  0  0  0  0  0  0  0  0  0  0  0
   -0.4482   -0.1368    4.4806 H   0  0  0  0  0  0  0  0  0  0  0  0
    1.1136   -0.9667    4.2839 H   0  0  0  0  0  0  0  0  0  0  0  0
    0.9509    0.7526    3.8507 H   0  0  0  0  0  0  0  0  0  0  0  0
  5  6  2  0  0  0  0
  5  7  1  0  0  0  0
  2  3  1  0  0  0  0
  2  4  1  0  0  0  0
  2  5  1  0  0  0  0
  1  2  1  0  0  0  0
 26 27  2  0  0  0  0
 26 28  1  0  0  0  0
 24 25  1  0  0  0  0
 22 23  1  0  0  0  0
 22 24  2  0  0  0  0
 20 21  1  0  0  0  0
 19 20  1  0  0  0  0
 19 22  1  0  0  0  0
 17 18  1  0  0  0  0
 17 19  2  0  0  0  0
 15 16  1  0  0  0  0
 15 17  1  0  0  0  0
 14 15  2  0  0  0  0
 14 24  1  0  0  0  0
 11 12  1  0  0  0  0
 11 13  1  0  0  0  0
 11 14  1  0  0  0  0
  9 10  1  0  0  0  0
  9 11  1  0  0  0  0
  9 26  1  0  0  0  0
  7  8  1  0  0  0  0
  7  9  1  0  0  0  0
 30 31  1  0  0  0  0
 30 32  1  0  0  0  0
 30 33  1  0  0  0  0
 28 29  1  0  0  0  0
 28 30  1  0  0  0  0
M  END
$$$$
default_name
  -OEChem-01062215323D

 33 33  0     1  0  0  0  0  0999 V2000
   -4.0702   -3.8485    1.4554 H   0  0  0  0  0  0  0  0  0  0  0  0
   -4.0012   -2.9605    0.8284 C   0  0  0  0  0  0  0  0  0  0  0  0
   -4.7652   -2.2435    1.1234 H   0  0  0  0  0  0  0  0  0  0  0  0
   -4.1352   -3.2385   -0.2156 H   0  0  0  0  0  0  0  0  0  0  0  0
   -2.6362   -2.3395    1.0094 C   0  0  0  0  0  0  0  0  0  0  0  0
   -1.8292   -2.8395    1.7814 O   0  0  0  0  0  0  0  0  0  0  0  0
   -2.3832   -1.2445    0.2964 N   0  0  0  0  0  0  0  0  0  0  0  0
   -3.1102   -0.8685   -0.2946 H   0  0  0  0  0  0  0  0  0  0  0  0
   -1.1292   -0.4875    0.3524 C   0  0  1  0  0  0  0  0  0  0  0  0
   -0.3087   -1.1556    0.0882 H   0  0  0  0  0  0  0  0  0  0  0  0
   -1.1749    0.6534   -0.6787 C   0  0  0  0  0  0  0  0  0  0  0  0
   -2.0750    1.2464   -0.5114 H   0  0  0  0  0  0  0  0  0  0  0  0
   -0.3173    1.3090   -0.5186 H   0  0  0  0  0  0  0  0  0  0  0  0
   -1.1836    0.1809   -2.1196 C   0  0  0  0  0  0  0  0  0  0  0  0
    0.0191   -0.1895   -2.7541 C   0  0  0  0  0  0  0  0  0  0  0  0
    0.9580   -0.1126   -2.2215 H   0  0  0  0  0  0  0  0  0  0  0  0
    0.0009   -0.6662   -4.0793 C   0  0  0  0  0  0  0  0  0  0  0  0
    0.9240   -0.9474   -4.5625 H   0  0  0  0  0  0  0  0  0  0  0  0
   -1.2252   -0.7763   -4.7708 C   0  0  0  0  0  0  0  0  0  0  0  0
   -1.2537   -1.2376   -6.0481 O   0  0  0  0  0  0  0  0  0  0  0  0
   -0.3740   -1.3697   -6.4041 H   0  0  0  0  0  0  0  0  0  0  0  0
   -2.4283   -0.4098   -4.1327 C   0  0  0  0  0  0  0  0  0  0  0  0
   -3.3589   -0.4943   -4.6734 H   0  0  0  0  0  0  0  0  0  0  0  0
   -2.4063    0.0706   -2.8096 C   0  0  0  0  0  0  0  0  0  0  0  0
   -3.3300    0.3607   -2.3232 H   0  0  0  0  0  0  0  0  0  0  0  0
   -0.8664    0.0378    1.7736 C   0  0  0  0  0  0  0  0  0  0  0  0
   -1.6697    0.8008    2.3108 O   0  0  0  0  0  0  0  0  0  0  0  0
    0.2567   -0.3660    2.3809 N   0  0  0  0  0  0  0  0  0  0  0  0
    0.8916   -0.9446    1.8503 H   0  0  0  0  0  0  0  0  0  0  0  0
    0.6579    0.0388    3.7262 C   0  0  0  0  0  0  0  0  0  0  0  0
   -0.1668   -0.1214    4.4228 H   0  0  0  0  0  0  0  0  0  0  0  0
    1.5217   -0.5429    4.0518 H   0  0  0  0  0  0  0  0  0  0  0  0
    0.9160    1.0999    3.7288 H   0  0  0  0  0  0  0  0  0  0  0  0
  5  6  2  0  0  0  0
  5  7  1  0  0  0  0
  2  3  1  0  0  0  0
  2  4  1  0  0  0  0
  2  5  1  0  0  0  0
  1  2  1  0  0  0  0
 26 27  2  0  0  0  0
 26 28  1  0  0  0  0
 24 25  1  0  0  0  0
 22 23  1  0  0  0  0
 22 24  2  0  0  0  0
 20 21  1  0  0  0  0
 19 20  1  0  0  0  0
 19 22  1  0  0  0  0
 17 18  1  0  0  0  0
 17 19  2  0  0  0  0
 15 16  1  0  0  0  0
 15 17  1  0  0  0  0
 14 15  2  0  0  0  0
 14 24  1  0  0  0  0
 11 12  1  0  0  0  0
 11 13  1  0  0  0  0
 11 14  1  0  0  0  0
  9 10  1  0  0  0  0
  9 11  1  0  0  0  0
  9 26  1  0  0  0  0
  7  8  1  0  0  0  0
  7  9  1  0  0  0  0
 30 31  1  0  0  0  0
 30 32  1  0  0  0  0
 30 33  1  0  0  0  0
 28 29  1  0  0  0  0
 28 30  1  0  0  0  0
M  END
$$$$
default_name
  -OEChem-01062215323D

 33 33  0     1  0  0  0  0  0999 V2000
   -4.0702   -3.8485    1.4554 H   0  0  0  0  0  0  0  0  0  0  0  0
   -4.0012   -2.9605    0.8284 C   0  0  0  0  0  0  0  0  0  0  0  0
   -4.7652   -2.2435    1.1234 H   0  0  0  0  0  0  0  0  0  0  0  0
   -4.1352   -3.2385   -0.2156 H   0  0  0  0  0  0  0  0  0  0  0  0
   -2.6362   -2.3395    1.0094 C   0  0  0  0  0  0  0  0  0  0  0  0
   -1.8292   -2.8395    1.7814 O   0  0  0  0  0  0  0  0  0  0  0  0
   -2.3832   -1.2445    0.2964 N   0  0  0  0  0  0  0  0  0  0  0  0
   -3.1102   -0.8685   -0.2946 H   0  0  0  0  0  0  0  0  0  0  0  0
   -1.1292   -0.4875    0.3524 C   0  0  1  0  0  0  0  0  0  0  0  0
   -0.3087   -1.1556    0.0882 H   0  0  0  0  0  0  0  0  0  0  0  0
   -1.1749    0.6534   -0.6787 C   0  0  0  0  0  0  0  0  0  0  0  0
   -2.0750    1.2464   -0.5114 H   0  0  0  0  0  0  0  0  0  0  0  0
   -0.3173    1.3090   -0.5186 H   0  0  0  0  0  0  0  0  0  0  0  0
   -1.1836    0.1809   -2.1196 C   0  0  0  0  0  0  0  0  0  0  0  0
    0.0191   -0.1895   -2.7541 C   0  0  0  0  0  0  0  0  0  0  0  0
    0.9580   -0.1126   -2.2215 H   0  0  0  0  0  0  0  0  0  0  0  0
    0.0009   -0.6662   -4.0793 C   0  0  0  0  0  0  0  0  0  0  0  0
    0.9240   -0.9474   -4.5625 H   0  0  0  0  0  0  0  0  0  0  0  0
   -1.2252   -0.7763   -4.7708 C   0  0  0  0  0  0  0  0  0  0  0  0
   -1.2537   -1.2376   -6.0481 O   0  0  0  0  0  0  0  0  0  0  0  0
   -0.3740   -1.3697   -6.4041 H   0  0  0  0  0  0  0  0  0  0  0  0
   -2.4283   -0.4098   -4.1327 C   0  0  0  0  0  0  0  0  0  0  0  0
   -3.3589   -0.4943   -4.6734 H   0  0  0  0  0  0  0  0  0  0  0  0
   -2.4063    0.0706   -2.8096 C   0  0  0  0  0  0  0  0  0  0  0  0
   -3.3300    0.3607   -2.3232 H   0  0  0  0  0  0  0  0  0  0  0  0
   -0.8664    0.0378    1.7736 C   0  0  0  0  0  0  0  0  0  0  0  0
   -1.7738    0.5661    2.4168 O   0  0  0  0  0  0  0  0  0  0  0  0
    0.3722   -0.1033    2.2624 N   0  0  0  0  0  0  0  0  0  0  0  0
    1.0737   -0.4936    1.6499 H   0  0  0  0  0  0  0  0  0  0  0  0
    0.7903    0.3411    3.5900 C   0  0  0  0  0  0  0  0  0  0  0  0
    0.0963   -0.0365    4.3429 H   0  0  0  0  0  0  0  0  0  0  0  0
    1.7941   -0.0258    3.8103 H   0  0  0  0  0  0  0  0  0  0  0  0
    0.7885    1.4323    3.6296 H   0  0  0  0  0  0  0  0  0  0  0  0
  5  6  2  0  0  0  0
  5  7  1  0  0  0  0
  2  3  1  0  0  0  0
  2  4  1  0  0  0  0
  2  5  1  0  0  0  0
  1  2  1  0  0  0  0
 26 27  2  0  0  0  0
 26 28  1  0  0  0  0
 24 25  1  0  0  0  0
 22 23  1  0  0  0  0
 22 24  2  0  0  0  0
 20 21  1  0  0  0  0
 19 20  1  0  0  0  0
 19 22  1  0  0  0  0
 17 18  1  0  0  0  0
 17 19  2  0  0  0  0
 15 16  1  0  0  0  0
 15 17  1  0  0  0  0
 14 15  2  0  0  0  0
 14 24  1  0  0  0  0
 11 12  1  0  0  0  0
 11 13  1  0  0  0  0
 11 14  1  0  0  0  0
  9 10  1  0  0  0  0
  9 11  1  0  0  0  0
  9 26  1  0  0  0  0
  7  8  1  0  0  0  0
  7  9  1  0  0  0  0
 30 31  1  0  0  0  0
 30 32  1  0  0  0  0
 30 33  1  0  0  0  0
 28 29  1  0  0  0  0
 28 30  1  0  0  0  0
M  END
$$$$
default_name
  -OEChem-01062215323D

 33 33  0     1  0  0  0  0  0999 V2000
   -4.0702   -3.8485    1.4554 H   0  0  0  0  0  0  0  0  0  0  0  0
   -4.0012   -2.9605    0.8284 C   0  0  0  0  0  0  0  0  0  0  0  0
   -4.7652   -2.2435    1.1234 H   0  0  0  0  0  0  0  0  0  0  0  0
   -4.1352   -3.2385   -0.2156 H   0  0  0  0  0  0  0  0  0  0  0  0
   -2.6362   -2.3395    1.0094 C   0  0  0  0  0  0  0  0  0  0  0  0
   -1.8292   -2.8395    1.7814 O   0  0  0  0  0  0  0  0  0  0  0  0
   -2.3832   -1.2445    0.2964 N   0  0  0  0  0  0  0  0  0  0  0  0
   -3.1102   -0.8685   -0.2946 H   0  0  0  0  0  0  0  0  0  0  0  0
   -1.1292   -0.4875    0.3524 C   0  0  1  0  0  0  0  0  0  0  0  0
   -0.3087   -1.1556    0.0882 H   0  0  0  0  0  0  0  0  0  0  0  0
   -1.1749    0.6534   -0.6787 C   0  0  0  0  0  0  0  0  0  0  0  0
   -2.0750    1.2464   -0.5114 H   0  0  0  0  0  0  0  0  0  0  0  0
   -0.3173    1.3090   -0.5186 H   0  0  0  0  0  0  0  0  0  0  0  0
   -1.1836    0.1809   -2.1196 C   0  0  0  0  0  0  0  0  0  0  0  0
    0.0191   -0.1895   -2.7541 C   0  0  0  0  0  0  0  0  0  0  0  0
    0.9580   -0.1126   -2.2215 H   0  0  0  0  0  0  0  0  0  0  0  0
    0.0009   -0.6662   -4.0793 C   0  0  0  0  0  0  0  0  0  0  0  0
    0.9240   -0.9474   -4.5625 H   0  0  0  0  0  0  0  0  0  0  0  0
   -1.2252   -0.7763   -4.7708 C   0  0  0  0  0  0  0  0  0  0  0  0
   -1.2537   -1.2376   -6.0481 O   0  0  0  0  0  0  0  0  0  0  0  0
   -0.3740   -1.3697   -6.4041 H   0  0  0  0  0  0  0  0  0  0  0  0
   -2.4283   -0.4098   -4.1327 C   0  0  0  0  0  0  0  0  0  0  0  0
   -3.3589   -0.4943   -4.6734 H   0  0  0  0  0  0  0  0  0  0  0  0
   -2.4063    0.0706   -2.8096 C   0  0  0  0  0  0  0  0  0  0  0  0
   -3.3300    0.3607   -2.3232 H   0  0  0  0  0  0  0  0  0  0  0  0
   -0.8664    0.0378    1.7736 C   0  0  0  0  0  0  0  0  0  0  0  0
   -1.8088    0.3098    2.5180 O   0  0  0  0  0  0  0  0  0  0  0  0
    0.4106    0.1834    2.1494 N   0  0  0  0  0  0  0  0  0  0  0  0
    1.1239   -0.0055    1.4603 H   0  0  0  0  0  0  0  0  0  0  0  0
    0.8339    0.6707    3.4601 C   0  0  0  0  0  0  0  0  0  0  0  0
    0.3230    0.1119    4.2461 H   0  0  0  0  0  0  0  0  0  0  0  0
    1.9122    0.5496    3.5759 H   0  0  0  0  0  0  0  0  0  0  0  0
    0.5770    1.7273    3.5597 H   0  0  0  0  0  0  0  0  0  0  0  0
  5  6  2  0  0  0  0
  5  7  1  0  0  0  0
  2  3  1  0  0  0  0
  2  4  1  0  0  0  0
  2  5  1  0  0  0  0
  1  2  1  0  0  0  0
 26 27  2  0  0  0  0
 26 28  1  0  0  0  0
 24 25  1  0  0  0  0
 22 23  1  0  0  0  0
 22 24  2  0  0  0  0
 20 21  1  0  0  0  0
 19 20  1  0  0  0  0
 19 22  1  0  0  0  0
 17 18  1  0  0  0  0
 17 19  2  0  0  0  0
 15 16  1  0  0  0  0
 15 17  1  0  0  0  0
 14 15  2  0  0  0  0
 14 24  1  0  0  0  0
 11 12  1  0  0  0  0
 11 13  1  0  0  0  0
 11 14  1  0  0  0  0
  9 10  1  0  0  0  0
  9 11  1  0  0  0  0
  9 26  1  0  0  0  0
  7  8  1  0  0  0  0
  7  9  1  0  0  0  0
 30 31  1  0  0  0  0
 30 32  1  0  0  0  0
 30 33  1  0  0  0  0
 28 29  1  0  0  0  0
 28 30  1  0  0  0  0
M  END
$$$$
default_name
  -OEChem-01062215323D

 33 33  0     1  0  0  0  0  0999 V2000
   -4.0702   -3.8485    1.4554 H   0  0  0  0  0  0  0  0  0  0  0  0
   -4.0012   -2.9605    0.8284 C   0  0  0  0  0  0  0  0  0  0  0  0
   -4.7652   -2.2435    1.1234 H   0  0  0  0  0  0  0  0  0  0  0  0
   -4.1352   -3.2385   -0.2156 H   0  0  0  0  0  0  0  0  0  0  0  0
   -2.6362   -2.3395    1.0094 C   0  0  0  0  0  0  0  0  0  0  0  0
   -1.8292   -2.8395    1.7814 O   0  0  0  0  0  0  0  0  0  0  0  0
   -2.3832   -1.2445    0.2964 N   0  0  0  0  0  0  0  0  0  0  0  0
   -3.1102   -0.8685   -0.2946 H   0  0  0  0  0  0  0  0  0  0  0  0
   -1.1292   -0.4875    0.3524 C   0  0  1  0  0  0  0  0  0  0  0  0
   -0.3087   -1.1556    0.0882 H   0  0  0  0  0  0  0  0  0  0  0  0
   -1.1749    0.6534   -0.6787 C   0  0  0  0  0  0  0  0  0  0  0  0
   -2.0750    1.2464   -0.5114 H   0  0  0  0  0  0  0  0  0  0  0  0
   -0.3173    1.3090   -0.5186 H   0  0  0  0  0  0  0  0  0  0  0  0
   -1.1836    0.1809   -2.1196 C   0  0  0  0  0  0  0  0  0  0  0  0
    0.0191   -0.1895   -2.7541 C   0  0  0  0  0  0  0  0  0  0  0  0
    0.9580   -0.1126   -2.2215 H   0  0  0  0  0  0  0  0  0  0  0  0
    0.0009   -0.6662   -4.0793 C   0  0  0  0  0  0  0  0  0  0  0  0
    0.9240   -0.9474   -4.5625 H   0  0  0  0  0  0  0  0  0  0  0  0
   -1.2252   -0.7763   -4.7708 C   0  0  0  0  0  0  0  0  0  0  0  0
   -1.2537   -1.2376   -6.0481 O   0  0  0  0  0  0  0  0  0  0  0  0
   -0.3740   -1.3697   -6.4041 H   0  0  0  0  0  0  0  0  0  0  0  0
   -2.4283   -0.4098   -4.1327 C   0  0  0  0  0  0  0  0  0  0  0  0
   -3.3589   -0.4943   -4.6734 H   0  0  0  0  0  0  0  0  0  0  0  0
   -2.4063    0.0706   -2.8096 C   0  0  0  0  0  0  0  0  0  0  0  0
   -3.3300    0.3607   -2.3232 H   0  0  0  0  0  0  0  0  0  0  0  0
   -0.8664    0.0378    1.7736 C   0  0  0  0  0  0  0  0  0  0  0  0
   -1.7723    0.0494    2.6075 O   0  0  0  0  0  0  0  0  0  0  0  0
    0.3690    0.4744    2.0495 N   0  0  0  0  0  0  0  0  0  0  0  0
    1.0390    0.4863    1.2942 H   0  0  0  0  0  0  0  0  0  0  0  0
    0.7857    1.0053    3.3454 C   0  0  0  0  0  0  0  0  0  0  0  0
    0.4979    0.3137    4.1391 H   0  0  0  0  0  0  0  0  0  0  0  0
    1.8679    1.1441    3.3644 H   0  0  0  0  0  0  0  0  0  0  0  0
    0.2959    1.9648    3.5239 H   0  0  0  0  0  0  0  0  0  0  0  0
  5  6  2  0  0  0  0
  5  7  1  0  0  0  0
  2  3  1  0  0  0  0
  2  4  1  0  0  0  0
  2  5  1  0  0  0  0
  1  2  1  0  0  0  0
 26 27  2  0  0  0  0
 26 28  1  0  0  0  0
 24 25  1  0  0  0  0
 22 23  1  0  0  0  0
 22 24  2  0  0  0  0
 20 21  1  0  0  0  0
 19 20  1  0  0  0  0
 19 22  1  0  0  0  0
 17 18  1  0  0  0  0
 17 19  2  0  0  0  0
 15 16  1  0  0  0  0
 15 17  1  0  0  0  0
 14 15  2  0  0  0  0
 14 24  1  0  0  0  0
 11 12  1  0  0  0  0
 11 13  1  0  0  0  0
 11 14  1  0  0  0  0
  9 10  1  0  0  0  0
  9 11  1  0  0  0  0
  9 26  1  0  0  0  0
  7  8  1  0  0  0  0
  7  9  1  0  0  0  0
 30 31  1  0  0  0  0
 30 32  1  0  0  0  0
 30 33  1  0  0  0  0
 28 29  1  0  0  0  0
 28 30  1  0  0  0  0
M  END
$$$$
default_name
  -OEChem-01062215323D

 33 33  0     1  0  0  0  0  0999 V2000
   -4.0702   -3.8485    1.4554 H   0  0  0  0  0  0  0  0  0  0  0  0
   -4.0012   -2.9605    0.8284 C   0  0  0  0  0  0  0  0  0  0  0  0
   -4.7652   -2.2435    1.1234 H   0  0  0  0  0  0  0  0  0  0  0  0
   -4.1352   -3.2385   -0.2156 H   0  0  0  0  0  0  0  0  0  0  0  0
   -2.6362   -2.3395    1.0094 C   0  0  0  0  0  0  0  0  0  0  0  0
   -1.8292   -2.8395    1.7814 O   0  0  0  0  0  0  0  0  0  0  0  0
   -2.3832   -1.2445    0.2964 N   0  0  0  0  0  0  0  0  0  0  0  0
   -3.1102   -0.8685   -0.2946 H   0  0  0  0  0  0  0  0  0  0  0  0
   -1.1292   -0.4875    0.3524 C   0  0  1  0  0  0  0  0  0  0  0  0
   -0.3553   -1.0601   -0.1599 H   0  0  0  0  0  0  0  0  0  0  0  0
   -1.3076    0.8514   -0.3841 C   0  0  0  0  0  0  0  0  0  0  0  0
   -2.1738    1.3702    0.0284 H   0  0  0  0  0  0  0  0  0  0  0  0
   -0.4328    1.4766   -0.1976 H   0  0  0  0  0  0  0  0  0  0  0  0
   -1.5128    0.7085   -1.8799 C   0  0  0  0  0  0  0  0  0  0  0  0
   -0.4085    0.5174   -2.7344 C   0  0  0  0  0  0  0  0  0  0  0  0
    0.5940    0.4983   -2.3273 H   0  0  0  0  0  0  0  0  0  0  0  0
   -0.6076    0.3447   -4.1180 C   0  0  0  0  0  0  0  0  0  0  0  0
    0.2404    0.2002   -4.7696 H   0  0  0  0  0  0  0  0  0  0  0  0
   -1.9163    0.3595   -4.6479 C   0  0  0  0  0  0  0  0  0  0  0  0
   -2.1190    0.1909   -5.9804 O   0  0  0  0  0  0  0  0  0  0  0  0
   -1.2960    0.1626   -6.4702 H   0  0  0  0  0  0  0  0  0  0  0  0
   -3.0205    0.5459   -3.7907 C   0  0  0  0  0  0  0  0  0  0  0  0
   -4.0159    0.5596   -4.2084 H   0  0  0  0  0  0  0  0  0  0  0  0
   -2.8179    0.7228   -2.4088 C   0  0  0  0  0  0  0  0  0  0  0  0
   -3.6661    0.8753   -1.7521 H   0  0  0  0  0  0  0  0  0  0  0  0
   -0.6745   -0.2825    1.8071 C   0  0  0  0  0  0  0  0  0  0  0  0
   -1.3469   -0.7317    2.7357 O   0  0  0  0  0  0  0  0  0  0  0  0
    0.4622    0.3965    2.0065 N   0  0  0  0  0  0  0  0  0  0  0  0
    0.9234    0.7823    1.1954 H   0  0  0  0  0  0  0  0  0  0  0  0
    1.0331    0.6807    3.3211 C   0  0  0  0  0  0  0  0  0  0  0  0
    1.0942   -0.2391    3.9053 H   0  0  0  0  0  0  0  0  0  0  0  0
    2.0325    1.1051    3.2131 H   0  0  0  0  0  0  0  0  0  0  0  0
    0.3956    1.3902    3.8527 H   0  0  0  0  0  0  0  0  0  0  0  0
  5  6  2  0  0  0  0
  5  7  1  0  0  0  0
  2  3  1  0  0  0  0
  2  4  1  0  0  0  0
  2  5  1  0  0  0  0
  1  2  1  0  0  0  0
 26 27  2  0  0  0  0
 26 28  1  0  0  0  0
 24 25  1  0  0  0  0
 22 23  1  0  0  0  0
 22 24  2  0  0  0  0
 20 21  1  0  0  0  0
 19 20  1  0  0  0  0
 19 22  1  0  0  0  0
 17 18  1  0  0  0  0
 17 19  2  0  0  0  0
 15 16  1  0  0  0  0
 15 17  1  0  0  0  0
 14 15  2  0  0  0  0
 14 24  1  0  0  0  0
 11 12  1  0  0  0  0
 11 13  1  0  0  0  0
 11 14  1  0  0  0  0
  9 10  1  0  0  0  0
  9 11  1  0  0  0  0
  9 26  1  0  0  0  0
  7  8  1  0  0  0  0
  7  9  1  0  0  0  0
 30 31  1  0  0  0  0
 30 32  1  0  0  0  0
 30 33  1  0  0  0  0
 28 29  1  0  0  0  0
 28 30  1  0  0  0  0
M  END
$$$$
default_name
  -OEChem-01062215323D

 33 33  0     1  0  0  0  0  0999 V2000
   -4.0702   -3.8485    1.4554 H   0  0  0  0  0  0  0  0  0  0  0  0
   -4.0012   -2.9605    0.8284 C   0  0  0  0  0  0  0  0  0  0  0  0
   -4.7652   -2.2435    1.1234 H   0  0  0  0  0  0  0  0  0  0  0  0
   -4.1352   -3.2385   -0.2156 H   0  0  0  0  0  0  0  0  0  0  0  0
   -2.6362   -2.3395    1.0094 C   0  0  0  0  0  0  0  0  0  0  0  0
   -1.8292   -2.8395    1.7814 O   0  0  0  0  0  0  0  0  0  0  0  0
   -2.3832   -1.2445    0.2964 N   0  0  0  0  0  0  0  0  0  0  0  0
   -3.1102   -0.8685   -0.2946 H   0  0  0  0  0  0  0  0  0  0  0  0
   -1.1292   -0.4875    0.3524 C   0  0  1  0  0  0  0  0  0  0  0  0
   -0.3553   -1.0601   -0.1599 H   0  0  0  0  0  0  0  0  0  0  0  0
   -1.3076    0.8514   -0.3841 C   0  0  0  0  0  0  0  0  0  0  0  0
   -2.1738    1.3702    0.0284 H   0  0  0  0  0  0  0  0  0  0  0  0
   -0.4328    1.4766   -0.1976 H   0  0  0  0  0  0  0  0  0  0  0  0
   -1.5128    0.7085   -1.8799 C   0  0  0  0  0  0  0  0  0  0  0  0
   -0.4085    0.5174   -2.7344 C   0  0  0  0  0  0  0  0  0  0  0  0
    0.5940    0.4983   -2.3273 H   0  0  0  0  0  0  0  0  0  0  0  0
   -0.6076    0.3447   -4.1180 C   0  0  0  0  0  0  0  0  0  0  0  0
    0.2404    0.2002   -4.7696 H   0  0  0  0  0  0  0  0  0  0  0  0
   -1.9163    0.3595   -4.6479 C   0  0  0  0  0  0  0  0  0  0  0  0
   -2.1190    0.1909   -5.9804 O   0  0  0  0  0  0  0  0  0  0  0  0
   -1.2960    0.1626   -6.4702 H   0  0  0  0  0  0  0  0  0  0  0  0
   -3.0205    0.5459   -3.7907 C   0  0  0  0  0  0  0  0  0  0  0  0
   -4.0159    0.5596   -4.2084 H   0  0  0  0  0  0  0  0  0  0  0  0
   -2.8179    0.7228   -2.4088 C   0  0  0  0  0  0  0  0  0  0  0  0
   -3.6661    0.8753   -1.7521 H   0  0  0  0  0  0  0  0  0  0  0  0
   -0.6745   -0.2825    1.8071 C   0  0  0  0  0  0  0  0  0  0  0  0
   -1.1757   -0.9492    2.7128 O   0  0  0  0  0  0  0  0  0  0  0  0
    0.2703    0.6392    2.0323 N   0  0  0  0  0  0  0  0  0  0  0  0
    0.5876    1.1842    1.2438 H   0  0  0  0  0  0  0  0  0  0  0  0
    0.8121    0.9594    3.3509 C   0  0  0  0  0  0  0  0  0  0  0  0
    1.1210    0.0433    3.8572 H   0  0  0  0  0  0  0  0  0  0  0  0
    1.6724    1.6235    3.2527 H   0  0  0  0  0  0  0  0  0  0  0  0
    0.0451    1.4499    3.9539 H   0  0  0  0  0  0  0  0  0  0  0  0
  5  6  2  0  0  0  0
  5  7  1  0  0  0  0
  2  3  1  0  0  0  0
  2  4  1  0  0  0  0
  2  5  1  0  0  0  0
  1  2  1  0  0  0  0
 26 27  2  0  0  0  0
 26 28  1  0  0  0  0
 24 25  1  0  0  0  0
 22 23  1  0  0  0  0
 22 24  2  0  0  0  0
 20 21  1  0  0  0  0
 19 20  1  0  0  0  0
 19 22  1  0  0  0  0
 17 18  1  0  0  0  0
 17 19  2  0  0  0  0
 15 16  1  0  0  0  0
 15 17  1  0  0  0  0
 14 15  2  0  0  0  0
 14 24  1  0  0  0  0
 11 12  1  0  0  0  0
 11 13  1  0  0  0  0
 11 14  1  0  0  0  0
  9 10  1  0  0  0  0
  9 11  1  0  0  0  0
  9 26  1  0  0  0  0
  7  8  1  0  0  0  0
  7  9  1  0  0  0  0
 30 31  1  0  0  0  0
 30 32  1  0  0  0  0
 30 33  1  0  0  0  0
 28 29  1  0  0  0  0
 28 30  1  0  0  0  0
M  END
$$$$
default_name
  -OEChem-01062215323D

 33 33  0     1  0  0  0  0  0999 V2000
   -4.0702   -3.8485    1.4554 H   0  0  0  0  0  0  0  0  0  0  0  0
   -4.0012   -2.9605    0.8284 C   0  0  0  0  0  0  0  0  0  0  0  0
   -4.7652   -2.2435    1.1234 H   0  0  0  0  0  0  0  0  0  0  0  0
   -4.1352   -3.2385   -0.2156 H   0  0  0  0  0  0  0  0  0  0  0  0
   -2.6362   -2.3395    1.0094 C   0  0  0  0  0  0  0  0  0  0  0  0
   -1.8292   -2.8395    1.7814 O   0  0  0  0  0  0  0  0  0  0  0  0
   -2.3832   -1.2445    0.2964 N   0  0  0  0  0  0  0  0  0  0  0  0
   -3.1102   -0.8685   -0.2946 H   0  0  0  0  0  0  0  0  0  0  0  0
   -1.1292   -0.4875    0.3524 C   0  0  1  0  0  0  0  0  0  0  0  0
   -0.3553   -1.0601   -0.1599 H   0  0  0  0  0  0  0  0  0  0  0  0
   -1.3076    0.8514   -0.3841 C   0  0  0  0  0  0  0  0  0  0  0  0
   -2.1738    1.3702    0.0284 H   0  0  0  0  0  0  0  0  0  0  0  0
   -0.4328    1.4766   -0.1976 H   0  0  0  0  0  0  0  0  0  0  0  0
   -1.5128    0.7085   -1.8799 C   0  0  0  0  0  0  0  0  0  0  0  0
   -0.4085    0.5174   -2.7344 C   0  0  0  0  0  0  0  0  0  0  0  0
    0.5940    0.4983   -2.3273 H   0  0  0  0  0  0  0  0  0  0  0  0
   -0.6076    0.3447   -4.1180 C   0  0  0  0  0  0  0  0  0  0  0  0
    0.2404    0.2002   -4.7696 H   0  0  0  0  0  0  0  0  0  0  0  0
   -1.9163    0.3595   -4.6479 C   0  0  0  0  0  0  0  0  0  0  0  0
   -2.1190    0.1909   -5.9804 O   0  0  0  0  0  0  0  0  0  0  0  0
   -1.2960    0.1626   -6.4702 H   0  0  0  0  0  0  0  0  0  0  0  0
   -3.0205    0.5459   -3.7907 C   0  0  0  0  0  0  0  0  0  0  0  0
   -4.0159    0.5596   -4.2084 H   0  0  0  0  0  0  0  0  0  0  0  0
   -2.8179    0.7228   -2.4088 C   0  0  0  0  0  0  0  0  0  0  0  0
   -3.6661    0.8753   -1.7521 H   0  0  0  0  0  0  0  0  0  0  0  0
   -0.6745   -0.2825    1.8071 C   0  0  0  0  0  0  0  0  0  0  0  0
   -0.9580   -1.1157    2.6682 O   0  0  0  0  0  0  0  0  0  0  0  0
    0.0264    0.8246    2.0824 N   0  0  0  0  0  0  0  0  0  0  0  0
    0.1664    1.4865    1.3329 H   0  0  0  0  0  0  0  0  0  0  0  0
    0.5314    1.1723    3.4087 C   0  0  0  0  0  0  0  0  0  0  0  0
    1.0761    0.3263    3.8314 H   0  0  0  0  0  0  0  0  0  0  0  0
    1.1989    2.0330    3.3430 H   0  0  0  0  0  0  0  0  0  0  0  0
   -0.3046    1.4140    4.0683 H   0  0  0  0  0  0  0  0  0  0  0  0
  5  6  2  0  0  0  0
  5  7  1  0  0  0  0
  2  3  1  0  0  0  0
  2  4  1  0  0  0  0
  2  5  1  0  0  0  0
  1  2  1  0  0  0  0
 26 27  2  0  0  0  0
 26 28  1  0  0  0  0
 24 25  1  0  0  0  0
 22 23  1  0  0  0  0
 22 24  2  0  0  0  0
 20 21  1  0  0  0  0
 19 20  1  0  0  0  0
 19 22  1  0  0  0  0
 17 18  1  0  0  0  0
 17 19  2  0  0  0  0
 15 16  1  0  0  0  0
 15 17  1  0  0  0  0
 14 15  2  0  0  0  0
 14 24  1  0  0  0  0
 11 12  1  0  0  0  0
 11 13  1  0  0  0  0
 11 14  1  0  0  0  0
  9 10  1  0  0  0  0
  9 11  1  0  0  0  0
  9 26  1  0  0  0  0
  7  8  1  0  0  0  0
  7  9  1  0  0  0  0
 30 31  1  0  0  0  0
 30 32  1  0  0  0  0
 30 33  1  0  0  0  0
 28 29  1  0  0  0  0
 28 30  1  0  0  0  0
M  END
$$$$
default_name
  -OEChem-01062215323D

 33 33  0     1  0  0  0  0  0999 V2000
   -4.0702   -3.8485    1.4554 H   0  0  0  0  0  0  0  0  0  0  0  0
   -4.0012   -2.9605    0.8284 C   0  0  0  0  0  0  0  0  0  0  0  0
   -4.7652   -2.2435    1.1234 H   0  0  0  0  0  0  0  0  0  0  0  0
   -4.1352   -3.2385   -0.2156 H   0  0  0  0  0  0  0  0  0  0  0  0
   -2.6362   -2.3395    1.0094 C   0  0  0  0  0  0  0  0  0  0  0  0
   -1.8292   -2.8395    1.7814 O   0  0  0  0  0  0  0  0  0  0  0  0
   -2.3832   -1.2445    0.2964 N   0  0  0  0  0  0  0  0  0  0  0  0
   -3.1102   -0.8685   -0.2946 H   0  0  0  0  0  0  0  0  0  0  0  0
   -1.1292   -0.4875    0.3524 C   0  0  1  0  0  0  0  0  0  0  0  0
   -0.3553   -1.0601   -0.1599 H   0  0  0  0  0  0  0  0  0  0  0  0
   -1.3076    0.8514   -0.3841 C   0  0  0  0  0  0  0  0  0  0  0  0
   -2.1738    1.3702    0.0284 H   0  0  0  0  0  0  0  0  0  0  0  0
   -0.4328    1.4766   -0.1976 H   0  0  0  0  0  0  0  0  0  0  0  0
   -1.5128    0.7085   -1.8799 C   0  0  0  0  0  0  0  0  0  0  0  0
   -0.4085    0.5174   -2.7344 C   0  0  0  0  0  0  0  0  0  0  0  0
    0.5940    0.4983   -2.3273 H   0  0  0  0  0  0  0  0  0  0  0  0
   -0.6076    0.3447   -4.1180 C   0  0  0  0  0  0  0  0  0  0  0  0
    0.2404    0.2002   -4.7696 H   0  0  0  0  0  0  0  0  0  0  0  0
   -1.9163    0.3595   -4.6479 C   0  0  0  0  0  0  0  0  0  0  0  0
   -2.1190    0.1909   -5.9804 O   0  0  0  0  0  0  0  0  0  0  0  0
   -1.2960    0.1626   -6.4702 H   0  0  0  0  0  0  0  0  0  0  0  0
   -3.0205    0.5459   -3.7907 C   0  0  0  0  0  0  0  0  0  0  0  0
   -4.0159    0.5596   -4.2084 H   0  0  0  0  0  0  0  0  0  0  0  0
   -2.8179    0.7228   -2.4088 C   0  0  0  0  0  0  0  0  0  0  0  0
   -3.6661    0.8753   -1.7521 H   0  0  0  0  0  0  0  0  0  0  0  0
   -0.6745   -0.2825    1.8071 C   0  0  0  0  0  0  0  0  0  0  0  0
   -0.7084   -1.2198    2.6049 O   0  0  0  0  0  0  0  0  0  0  0  0
   -0.2528    0.9402    2.1535 N   0  0  0  0  0  0  0  0  0  0  0  0
   -0.3114    1.6686    1.4566 H   0  0  0  0  0  0  0  0  0  0  0  0
    0.2102    1.3048    3.4904 C   0  0  0  0  0  0  0  0  0  0  0  0
    0.9625    0.5907    3.8296 H   0  0  0  0  0  0  0  0  0  0  0  0
    0.6445    2.3058    3.4778 H   0  0  0  0  0  0  0  0  0  0  0  0
   -0.6297    1.2849    4.1880 H   0  0  0  0  0  0  0  0  0  0  0  0
  5  6  2  0  0  0  0
  5  7  1  0  0  0  0
  2  3  1  0  0  0  0
  2  4  1  0  0  0  0
  2  5  1  0  0  0  0
  1  2  1  0  0  0  0
 26 27  2  0  0  0  0
 26 28  1  0  0  0  0
 24 25  1  0  0  0  0
 22 23  1  0  0  0  0
 22 24  2  0  0  0  0
 20 21  1  0  0  0  0
 19 20  1  0  0  0  0
 19 22  1  0  0  0  0
 17 18  1  0  0  0  0
 17 19  2  0  0  0  0
 15 16  1  0  0  0  0
 15 17  1  0  0  0  0
 14 15  2  0  0  0  0
 14 24  1  0  0  0  0
 11 12  1  0  0  0  0
 11 13  1  0  0  0  0
 11 14  1  0  0  0  0
  9 10  1  0  0  0  0
  9 11  1  0  0  0  0
  9 26  1  0  0  0  0
  7  8  1  0  0  0  0
  7  9  1  0  0  0  0
 30 31  1  0  0  0  0
 30 32  1  0  0  0  0
 30 33  1  0  0  0  0
 28 29  1  0  0  0  0
 28 30  1  0  0  0  0
M  END
$$$$
default_name
  -OEChem-01062215323D

 33 33  0     1  0  0  0  0  0999 V2000
   -4.0702   -3.8485    1.4554 H   0  0  0  0  0  0  0  0  0  0  0  0
   -4.0012   -2.9605    0.8284 C   0  0  0  0  0  0  0  0  0  0  0  0
   -4.7652   -2.2435    1.1234 H   0  0  0  0  0  0  0  0  0  0  0  0
   -4.1352   -3.2385   -0.2156 H   0  0  0  0  0  0  0  0  0  0  0  0
   -2.6362   -2.3395    1.0094 C   0  0  0  0  0  0  0  0  0  0  0  0
   -1.8292   -2.8395    1.7814 O   0  0  0  0  0  0  0  0  0  0  0  0
   -2.3832   -1.2445    0.2964 N   0  0  0  0  0  0  0  0  0  0  0  0
   -3.1102   -0.8685   -0.2946 H   0  0  0  0  0  0  0  0  0  0  0  0
   -1.1292   -0.4875    0.3524 C   0  0  1  0  0  0  0  0  0  0  0  0
   -0.3553   -1.0601   -0.1599 H   0  0  0  0  0  0  0  0  0  0  0  0
   -1.3076    0.8514   -0.3841 C   0  0  0  0  0  0  0  0  0  0  0  0
   -2.1738    1.3702    0.0284 H   0  0  0  0  0  0  0  0  0  0  0  0
   -0.4328    1.4766   -0.1976 H   0  0  0  0  0  0  0  0  0  0  0  0
   -1.5128    0.7085   -1.8799 C   0  0  0  0  0  0  0  0  0  0  0  0
   -0.4085    0.5174   -2.7344 C   0  0  0  0  0  0  0  0  0  0  0  0
    0.5940    0.4983   -2.3273 H   0  0  0  0  0  0  0  0  0  0  0  0
   -0.6076    0.3447   -4.1180 C   0  0  0  0  0  0  0  0  0  0  0  0
    0.2404    0.2002   -4.7696 H   0  0  0  0  0  0  0  0  0  0  0  0
   -1.9163    0.3595   -4.6479 C   0  0  0  0  0  0  0  0  0  0  0  0
   -2.1190    0.1909   -5.9804 O   0  0  0  0  0  0  0  0  0  0  0  0
   -1.2960    0.1626   -6.4702 H   0  0  0  0  0  0  0  0  0  0  0  0
   -3.0205    0.5459   -3.7907 C   0  0  0  0  0  0  0  0  0  0  0  0
   -4.0159    0.5596   -4.2084 H   0  0  0  0  0  0  0  0  0  0  0  0
   -2.8179    0.7228   -2.4088 C   0  0  0  0  0  0  0  0  0  0  0  0
   -3.6661    0.8753   -1.7521 H   0  0  0  0  0  0  0  0  0  0  0  0
   -0.6745   -0.2825    1.8071 C   0  0  0  0  0  0  0  0  0  0  0  0
   -0.4440   -1.2544    2.5271 O   0  0  0  0  0  0  0  0  0  0  0  0
   -0.5484    0.9781    2.2405 N   0  0  0  0  0  0  0  0  0  0  0  0
   -0.8132    1.7180    1.6065 H   0  0  0  0  0  0  0  0  0  0  0  0
   -0.1297    1.3479    3.5906 C   0  0  0  0  0  0  0  0  0  0  0  0
    0.7880    0.8183    3.8521 H   0  0  0  0  0  0  0  0  0  0  0  0
    0.0468    2.4232    3.6481 H   0  0  0  0  0  0  0  0  0  0  0  0
   -0.9079    1.0715    4.3051 H   0  0  0  0  0  0  0  0  0  0  0  0
  5  6  2  0  0  0  0
  5  7  1  0  0  0  0
  2  3  1  0  0  0  0
  2  4  1  0  0  0  0
  2  5  1  0  0  0  0
  1  2  1  0  0  0  0
 26 27  2  0  0  0  0
 26 28  1  0  0  0  0
 24 25  1  0  0  0  0
 22 23  1  0  0  0  0
 22 24  2  0  0  0  0
 20 21  1  0  0  0  0
 19 20  1  0  0  0  0
 19 22  1  0  0  0  0
 17 18  1  0  0  0  0
 17 19  2  0  0  0  0
 15 16  1  0  0  0  0
 15 17  1  0  0  0  0
 14 15  2  0  0  0  0
 14 24  1  0  0  0  0
 11 12  1  0  0  0  0
 11 13  1  0  0  0  0
 11 14  1  0  0  0  0
  9 10  1  0  0  0  0
  9 11  1  0  0  0  0
  9 26  1  0  0  0  0
  7  8  1  0  0  0  0
  7  9  1  0  0  0  0
 30 31  1  0  0  0  0
 30 32  1  0  0  0  0
 30 33  1  0  0  0  0
 28 29  1  0  0  0  0
 28 30  1  0  0  0  0
M  END
$$$$
default_name
  -OEChem-01062215323D

 33 33  0     1  0  0  0  0  0999 V2000
   -4.0702   -3.8485    1.4554 H   0  0  0  0  0  0  0  0  0  0  0  0
   -4.0012   -2.9605    0.8284 C   0  0  0  0  0  0  0  0  0  0  0  0
   -4.7652   -2.2435    1.1234 H   0  0  0  0  0  0  0  0  0  0  0  0
   -4.1352   -3.2385   -0.2156 H   0  0  0  0  0  0  0  0  0  0  0  0
   -2.6362   -2.3395    1.0094 C   0  0  0  0  0  0  0  0  0  0  0  0
   -1.8292   -2.8395    1.7814 O   0  0  0  0  0  0  0  0  0  0  0  0
   -2.3832   -1.2445    0.2964 N   0  0  0  0  0  0  0  0  0  0  0  0
   -3.1102   -0.8685   -0.2946 H   0  0  0  0  0  0  0  0  0  0  0  0
   -1.1292   -0.4875    0.3524 C   0  0  1  0  0  0  0  0  0  0  0  0
   -0.3553   -1.0601   -0.1599 H   0  0  0  0  0  0  0  0  0  0  0  0
   -1.3076    0.8514   -0.3841 C   0  0  0  0  0  0  0  0  0  0  0  0
   -2.1738    1.3702    0.0284 H   0  0  0  0  0  0  0  0  0  0  0  0
   -0.4328    1.4766   -0.1976 H   0  0  0  0  0  0  0  0  0  0  0  0
   -1.5128    0.7085   -1.8799 C   0  0  0  0  0  0  0  0  0  0  0  0
   -0.4085    0.5174   -2.7344 C   0  0  0  0  0  0  0  0  0  0  0  0
    0.5940    0.4983   -2.3273 H   0  0  0  0  0  0  0  0  0  0  0  0
   -0.6076    0.3447   -4.1180 C   0  0  0  0  0  0  0  0  0  0  0  0
    0.2404    0.2002   -4.7696 H   0  0  0  0  0  0  0  0  0  0  0  0
   -1.9163    0.3595   -4.6479 C   0  0  0  0  0  0  0  0  0  0  0  0
   -2.1190    0.1909   -5.9804 O   0  0  0  0  0  0  0  0  0  0  0  0
   -1.2960    0.1626   -6.4702 H   0  0  0  0  0  0  0  0  0  0  0  0
   -3.0205    0.5459   -3.7907 C   0  0  0  0  0  0  0  0  0  0  0  0
   -4.0159    0.5596   -4.2084 H   0  0  0  0  0  0  0  0  0  0  0  0
   -2.8179    0.7228   -2.4088 C   0  0  0  0  0  0  0  0  0  0  0  0
   -3.6661    0.8753   -1.7521 H   0  0  0  0  0  0  0  0  0  0  0  0
   -0.6745   -0.2825    1.8071 C   0  0  0  0  0  0  0  0  0  0  0  0
   -0.1828   -1.2171    2.4402 O   0  0  0  0  0  0  0  0  0  0  0  0
   -0.8402    0.9357    2.3377 N   0  0  0  0  0  0  0  0  0  0  0  0
   -1.3048    1.6314    1.7723 H   0  0  0  0  0  0  0  0  0  0  0  0
   -0.4651    1.2986    3.7024 C   0  0  0  0  0  0  0  0  0  0  0  0
    0.5645    0.9938    3.8972 H   0  0  0  0  0  0  0  0  0  0  0  0
   -0.5534    2.3772    3.8422 H   0  0  0  0  0  0  0  0  0  0  0  0
   -1.1204    0.7883    4.4114 H   0  0  0  0  0  0  0  0  0  0  0  0
  5  6  2  0  0  0  0
  5  7  1  0  0  0  0
  2  3  1  0  0  0  0
  2  4  1  0  0  0  0
  2  5  1  0  0  0  0
  1  2  1  0  0  0  0
 26 27  2  0  0  0  0
 26 28  1  0  0  0  0
 24 25  1  0  0  0  0
 22 23  1  0  0  0  0
 22 24  2  0  0  0  0
 20 21  1  0  0  0  0
 19 20  1  0  0  0  0
 19 22  1  0  0  0  0
 17 18  1  0  0  0  0
 17 19  2  0  0  0  0
 15 16  1  0  0  0  0
 15 17  1  0  0  0  0
 14 15  2  0  0  0  0
 14 24  1  0  0  0  0
 11 12  1  0  0  0  0
 11 13  1  0  0  0  0
 11 14  1  0  0  0  0
  9 10  1  0  0  0  0
  9 11  1  0  0  0  0
  9 26  1  0  0  0  0
  7  8  1  0  0  0  0
  7  9  1  0  0  0  0
 30 31  1  0  0  0  0
 30 32  1  0  0  0  0
 30 33  1  0  0  0  0
 28 29  1  0  0  0  0
 28 30  1  0  0  0  0
M  END
$$$$
default_name
  -OEChem-01062215323D

 33 33  0     1  0  0  0  0  0999 V2000
   -4.0702   -3.8485    1.4554 H   0  0  0  0  0  0  0  0  0  0  0  0
   -4.0012   -2.9605    0.8284 C   0  0  0  0  0  0  0  0  0  0  0  0
   -4.7652   -2.2435    1.1234 H   0  0  0  0  0  0  0  0  0  0  0  0
   -4.1352   -3.2385   -0.2156 H   0  0  0  0  0  0  0  0  0  0  0  0
   -2.6362   -2.3395    1.0094 C   0  0  0  0  0  0  0  0  0  0  0  0
   -1.8292   -2.8395    1.7814 O   0  0  0  0  0  0  0  0  0  0  0  0
   -2.3832   -1.2445    0.2964 N   0  0  0  0  0  0  0  0  0  0  0  0
   -3.1102   -0.8685   -0.2946 H   0  0  0  0  0  0  0  0  0  0  0  0
   -1.1292   -0.4875    0.3524 C   0  0  1  0  0  0  0  0  0  0  0  0
   -0.3553   -1.0601   -0.1599 H   0  0  0  0  0  0  0  0  0  0  0  0
   -1.3076    0.8514   -0.3841 C   0  0  0  0  0  0  0  0  0  0  0  0
   -2.1738    1.3702    0.0284 H   0  0  0  0  0  0  0  0  0  0  0  0
   -0.4328    1.4766   -0.1976 H   0  0  0  0  0  0  0  0  0  0  0  0
   -1.5128    0.7085   -1.8799 C   0  0  0  0  0  0  0  0  0  0  0  0
   -0.4085    0.5174   -2.7344 C   0  0  0  0  0  0  0  0  0  0  0  0
    0.5940    0.4983   -2.3273 H   0  0  0  0  0  0  0  0  0  0  0  0
   -0.6076    0.3447   -4.1180 C   0  0  0  0  0  0  0  0  0  0  0  0
    0.2404    0.2002   -4.7696 H   0  0  0  0  0  0  0  0  0  0  0  0
   -1.9163    0.3595   -4.6479 C   0  0  0  0  0  0  0  0  0  0  0  0
   -2.1190    0.1909   -5.9804 O   0  0  0  0  0  0  0  0  0  0  0  0
   -1.2960    0.1626   -6.4702 H   0  0  0  0  0  0  0  0  0  0  0  0
   -3.0205    0.5459   -3.7907 C   0  0  0  0  0  0  0  0  0  0  0  0
   -4.0159    0.5596   -4.2084 H   0  0  0  0  0  0  0  0  0  0  0  0
   -2.8179    0.7228   -2.4088 C   0  0  0  0  0  0  0  0  0  0  0  0
   -3.6661    0.8753   -1.7521 H   0  0  0  0  0  0  0  0  0  0  0  0
   -0.6745   -0.2825    1.8071 C   0  0  0  0  0  0  0  0  0  0  0  0
    0.0573   -1.1105    2.3501 O   0  0  0  0  0  0  0  0  0  0  0  0
   -1.1083    0.8158    2.4384 N   0  0  0  0  0  0  0  0  0  0  0  0
   -1.7527    1.4147    1.9429 H   0  0  0  0  0  0  0  0  0  0  0  0
   -0.7732    1.1603    3.8182 C   0  0  0  0  0  0  0  0  0  0  0  0
    0.3072    1.1051    3.9620 H   0  0  0  0  0  0  0  0  0  0  0  0
   -1.1152    2.1710    4.0469 H   0  0  0  0  0  0  0  0  0  0  0  0
   -1.2526    0.4546    4.4997 H   0  0  0  0  0  0  0  0  0  0  0  0
  5  6  2  0  0  0  0
  5  7  1  0  0  0  0
  2  3  1  0  0  0  0
  2  4  1  0  0  0  0
  2  5  1  0  0  0  0
  1  2  1  0  0  0  0
 26 27  2  0  0  0  0
 26 28  1  0  0  0  0
 24 25  1  0  0  0  0
 22 23  1  0  0  0  0
 22 24  2  0  0  0  0
 20 21  1  0  0  0  0
 19 20  1  0  0  0  0
 19 22  1  0  0  0  0
 17 18  1  0  0  0  0
 17 19  2  0  0  0  0
 15 16  1  0  0  0  0
 15 17  1  0  0  0  0
 14 15  2  0  0  0  0
 14 24  1  0  0  0  0
 11 12  1  0  0  0  0
 11 13  1  0  0  0  0
 11 14  1  0  0  0  0
  9 10  1  0  0  0  0
  9 11  1  0  0  0  0
  9 26  1  0  0  0  0
  7  8  1  0  0  0  0
  7  9  1  0  0  0  0
 30 31  1  0  0  0  0
 30 32  1  0  0  0  0
 30 33  1  0  0  0  0
 28 29  1  0  0  0  0
 28 30  1  0  0  0  0
M  END
$$$$
default_name
  -OEChem-01062215323D

 33 33  0     1  0  0  0  0  0999 V2000
   -4.0702   -3.8485    1.4554 H   0  0  0  0  0  0  0  0  0  0  0  0
   -4.0012   -2.9605    0.8284 C   0  0  0  0  0  0  0  0  0  0  0  0
   -4.7652   -2.2435    1.1234 H   0  0  0  0  0  0  0  0  0  0  0  0
   -4.1352   -3.2385   -0.2156 H   0  0  0  0  0  0  0  0  0  0  0  0
   -2.6362   -2.3395    1.0094 C   0  0  0  0  0  0  0  0  0  0  0  0
   -1.8292   -2.8395    1.7814 O   0  0  0  0  0  0  0  0  0  0  0  0
   -2.3832   -1.2445    0.2964 N   0  0  0  0  0  0  0  0  0  0  0  0
   -3.1102   -0.8685   -0.2946 H   0  0  0  0  0  0  0  0  0  0  0  0
   -1.1292   -0.4875    0.3524 C   0  0  1  0  0  0  0  0  0  0  0  0
   -0.3553   -1.0601   -0.1599 H   0  0  0  0  0  0  0  0  0  0  0  0
   -1.3076    0.8514   -0.3841 C   0  0  0  0  0  0  0  0  0  0  0  0
   -2.1738    1.3702    0.0284 H   0  0  0  0  0  0  0  0  0  0  0  0
   -0.4328    1.4766   -0.1976 H   0  0  0  0  0  0  0  0  0  0  0  0
   -1.5128    0.7085   -1.8799 C   0  0  0  0  0  0  0  0  0  0  0  0
   -0.4085    0.5174   -2.7344 C   0  0  0  0  0  0  0  0  0  0  0  0
    0.5940    0.4983   -2.3273 H   0  0  0  0  0  0  0  0  0  0  0  0
   -0.6076    0.3447   -4.1180 C   0  0  0  0  0  0  0  0  0  0  0  0
    0.2404    0.2002   -4.7696 H   0  0  0  0  0  0  0  0  0  0  0  0
   -1.9163    0.3595   -4.6479 C   0  0  0  0  0  0  0  0  0  0  0  0
   -2.1190    0.1909   -5.9804 O   0  0  0  0  0  0  0  0  0  0  0  0
   -1.2960    0.1626   -6.4702 H   0  0  0  0  0  0  0  0  0  0  0  0
   -3.0205    0.5459   -3.7907 C   0  0  0  0  0  0  0  0  0  0  0  0
   -4.0159    0.5596   -4.2084 H   0  0  0  0  0  0  0  0  0  0  0  0
   -2.8179    0.7228   -2.4088 C   0  0  0  0  0  0  0  0  0  0  0  0
   -3.6661    0.8753   -1.7521 H   0  0  0  0  0  0  0  0  0  0  0  0
   -0.6745   -0.2825    1.8071 C   0  0  0  0  0  0  0  0  0  0  0  0
    0.2601   -0.9419    2.2630 O   0  0  0  0  0  0  0  0  0  0  0  0
   -1.3345    0.6266    2.5357 N   0  0  0  0  0  0  0  0  0  0  0  0
   -2.1265    1.0827    2.1065 H   0  0  0  0  0  0  0  0  0  0  0  0
   -1.0329    0.9424    3.9300 C   0  0  0  0  0  0  0  0  0  0  0  0
    0.0337    1.1447    4.0419 H   0  0  0  0  0  0  0  0  0  0  0  0
   -1.6003    1.8186    4.2482 H   0  0  0  0  0  0  0  0  0  0  0  0
   -1.2956    0.0931    4.5641 H   0  0  0  0  0  0  0  0  0  0  0  0
  5  6  2  0  0  0  0
  5  7  1  0  0  0  0
  2  3  1  0  0  0  0
  2  4  1  0  0  0  0
  2  5  1  0  0  0  0
  1  2  1  0  0  0  0
 26 27  2  0  0  0  0
 26 28  1  0  0  0  0
 24 25  1  0  0  0  0
 22 23  1  0  0  0  0
 22 24  2  0  0  0  0
 20 21  1  0  0  0  0
 19 20  1  0  0  0  0
 19 22  1  0  0  0  0
 17 18  1  0  0  0  0
 17 19  2  0  0  0  0
 15 16  1  0  0  0  0
 15 17  1  0  0  0  0
 14 15  2  0  0  0  0
 14 24  1  0  0  0  0
 11 12  1  0  0  0  0
 11 13  1  0  0  0  0
 11 14  1  0  0  0  0
  9 10  1  0  0  0  0
  9 11  1  0  0  0  0
  9 26  1  0  0  0  0
  7  8  1  0  0  0  0
  7  9  1  0  0  0  0
 30 31  1  0  0  0  0
 30 32  1  0  0  0  0
 30 33  1  0  0  0  0
 28 29  1  0  0  0  0
 28 30  1  0  0  0  0
M  END
$$$$
default_name
  -OEChem-01062215323D

 33 33  0     1  0  0  0  0  0999 V2000
   -4.0702   -3.8485    1.4554 H   0  0  0  0  0  0  0  0  0  0  0  0
   -4.0012   -2.9605    0.8284 C   0  0  0  0  0  0  0  0  0  0  0  0
   -4.7652   -2.2435    1.1234 H   0  0  0  0  0  0  0  0  0  0  0  0
   -4.1352   -3.2385   -0.2156 H   0  0  0  0  0  0  0  0  0  0  0  0
   -2.6362   -2.3395    1.0094 C   0  0  0  0  0  0  0  0  0  0  0  0
   -1.8292   -2.8395    1.7814 O   0  0  0  0  0  0  0  0  0  0  0  0
   -2.3832   -1.2445    0.2964 N   0  0  0  0  0  0  0  0  0  0  0  0
   -3.1102   -0.8685   -0.2946 H   0  0  0  0  0  0  0  0  0  0  0  0
   -1.1292   -0.4875    0.3524 C   0  0  1  0  0  0  0  0  0  0  0  0
   -0.3553   -1.0601   -0.1599 H   0  0  0  0  0  0  0  0  0  0  0  0
   -1.3076    0.8514   -0.3841 C   0  0  0  0  0  0  0  0  0  0  0  0
   -2.1738    1.3702    0.0284 H   0  0  0  0  0  0  0  0  0  0  0  0
   -0.4328    1.4766   -0.1976 H   0  0  0  0  0  0  0  0  0  0  0  0
   -1.5128    0.7085   -1.8799 C   0  0  0  0  0  0  0  0  0  0  0  0
   -0.4085    0.5174   -2.7344 C   0  0  0  0  0  0  0  0  0  0  0  0
    0.5940    0.4983   -2.3273 H   0  0  0  0  0  0  0  0  0  0  0  0
   -0.6076    0.3447   -4.1180 C   0  0  0  0  0  0  0  0  0  0  0  0
    0.2404    0.2002   -4.7696 H   0  0  0  0  0  0  0  0  0  0  0  0
   -1.9163    0.3595   -4.6479 C   0  0  0  0  0  0  0  0  0  0  0  0
   -2.1190    0.1909   -5.9804 O   0  0  0  0  0  0  0  0  0  0  0  0
   -1.2960    0.1626   -6.4702 H   0  0  0  0  0  0  0  0  0  0  0  0
   -3.0205    0.5459   -3.7907 C   0  0  0  0  0  0  0  0  0  0  0  0
   -4.0159    0.5596   -4.2084 H   0  0  0  0  0  0  0  0  0  0  0  0
   -2.8179    0.7228   -2.4088 C   0  0  0  0  0  0  0  0  0  0  0  0
   -3.6661    0.8753   -1.7521 H   0  0  0  0  0  0  0  0  0  0  0  0
   -0.6745   -0.2825    1.8071 C   0  0  0  0  0  0  0  0  0  0  0  0
    0.4116   -0.7227    2.1847 O   0  0  0  0  0  0  0  0  0  0  0  0
   -1.5032    0.3811    2.6231 N   0  0  0  0  0  0  0  0  0  0  0  0
   -2.4005    0.6579    2.2520 H   0  0  0  0  0  0  0  0  0  0  0  0
   -1.2266    0.6599    4.0304 C   0  0  0  0  0  0  0  0  0  0  0  0
   -0.2375    1.1099    4.1316 H   0  0  0  0  0  0  0  0  0  0  0  0
   -1.9756    1.3441    4.4323 H   0  0  0  0  0  0  0  0  0  0  0  0
   -1.2464   -0.2715    4.6001 H   0  0  0  0  0  0  0  0  0  0  0  0
  5  6  2  0  0  0  0
  5  7  1  0  0  0  0
  2  3  1  0  0  0  0
  2  4  1  0  0  0  0
  2  5  1  0  0  0  0
  1  2  1  0  0  0  0
 26 27  2  0  0  0  0
 26 28  1  0  0  0  0
 24 25  1  0  0  0  0
 22 23  1  0  0  0  0
 22 24  2  0  0  0  0
 20 21  1  0  0  0  0
 19 20  1  0  0  0  0
 19 22  1  0  0  0  0
 17 18  1  0  0  0  0
 17 19  2  0  0  0  0
 15 16  1  0  0  0  0
 15 17  1  0  0  0  0
 14 15  2  0  0  0  0
 14 24  1  0  0  0  0
 11 12  1  0  0  0  0
 11 13  1  0  0  0  0
 11 14  1  0  0  0  0
  9 10  1  0  0  0  0
  9 11  1  0  0  0  0
  9 26  1  0  0  0  0
  7  8  1  0  0  0  0
  7  9  1  0  0  0  0
 30 31  1  0  0  0  0
 30 32  1  0  0  0  0
 30 33  1  0  0  0  0
 28 29  1  0  0  0  0
 28 30  1  0  0  0  0
M  END
$$$$
default_name
  -OEChem-01062215323D

 33 33  0     1  0  0  0  0  0999 V2000
   -4.0702   -3.8485    1.4554 H   0  0  0  0  0  0  0  0  0  0  0  0
   -4.0012   -2.9605    0.8284 C   0  0  0  0  0  0  0  0  0  0  0  0
   -4.7652   -2.2435    1.1234 H   0  0  0  0  0  0  0  0  0  0  0  0
   -4.1352   -3.2385   -0.2156 H   0  0  0  0  0  0  0  0  0  0  0  0
   -2.6362   -2.3395    1.0094 C   0  0  0  0  0  0  0  0  0  0  0  0
   -1.8292   -2.8395    1.7814 O   0  0  0  0  0  0  0  0  0  0  0  0
   -2.3832   -1.2445    0.2964 N   0  0  0  0  0  0  0  0  0  0  0  0
   -3.1102   -0.8685   -0.2946 H   0  0  0  0  0  0  0  0  0  0  0  0
   -1.1292   -0.4875    0.3524 C   0  0  1  0  0  0  0  0  0  0  0  0
   -0.3553   -1.0601   -0.1599 H   0  0  0  0  0  0  0  0  0  0  0  0
   -1.3076    0.8514   -0.3841 C   0  0  0  0  0  0  0  0  0  0  0  0
   -2.1738    1.3702    0.0284 H   0  0  0  0  0  0  0  0  0  0  0  0
   -0.4328    1.4766   -0.1976 H   0  0  0  0  0  0  0  0  0  0  0  0
   -1.5128    0.7085   -1.8799 C   0  0  0  0  0  0  0  0  0  0  0  0
   -0.4085    0.5174   -2.7344 C   0  0  0  0  0  0  0  0  0  0  0  0
    0.5940    0.4983   -2.3273 H   0  0  0  0  0  0  0  0  0  0  0  0
   -0.6076    0.3447   -4.1180 C   0  0  0  0  0  0  0  0  0  0  0  0
    0.2404    0.2002   -4.7696 H   0  0  0  0  0  0  0  0  0  0  0  0
   -1.9163    0.3595   -4.6479 C   0  0  0  0  0  0  0  0  0  0  0  0
   -2.1190    0.1909   -5.9804 O   0  0  0  0  0  0  0  0  0  0  0  0
   -1.2960    0.1626   -6.4702 H   0  0  0  0  0  0  0  0  0  0  0  0
   -3.0205    0.5459   -3.7907 C   0  0  0  0  0  0  0  0  0  0  0  0
   -4.0159    0.5596   -4.2084 H   0  0  0  0  0  0  0  0  0  0  0  0
   -2.8179    0.7228   -2.4088 C   0  0  0  0  0  0  0  0  0  0  0  0
   -3.6661    0.8753   -1.7521 H   0  0  0  0  0  0  0  0  0  0  0  0
   -0.6745   -0.2825    1.8071 C   0  0  0  0  0  0  0  0  0  0  0  0
    0.5017   -0.4678    2.1207 O   0  0  0  0  0  0  0  0  0  0  0  0
   -1.6031    0.0959    2.6945 N   0  0  0  0  0  0  0  0  0  0  0  0
   -2.5563    0.1694    2.3695 H   0  0  0  0  0  0  0  0  0  0  0  0
   -1.3410    0.3318    4.1124 C   0  0  0  0  0  0  0  0  0  0  0  0
   -0.4878    1.0029    4.2249 H   0  0  0  0  0  0  0  0  0  0  0  0
   -2.2157    0.7797    4.5869 H   0  0  0  0  0  0  0  0  0  0  0  0
   -1.1083   -0.6144    4.6052 H   0  0  0  0  0  0  0  0  0  0  0  0
  5  6  2  0  0  0  0
  5  7  1  0  0  0  0
  2  3  1  0  0  0  0
  2  4  1  0  0  0  0
  2  5  1  0  0  0  0
  1  2  1  0  0  0  0
 26 27  2  0  0  0  0
 26 28  1  0  0  0  0
 24 25  1  0  0  0  0
 22 23  1  0  0  0  0
 22 24  2  0  0  0  0
 20 21  1  0  0  0  0
 19 20  1  0  0  0  0
 19 22  1  0  0  0  0
 17 18  1  0  0  0  0
 17 19  2  0  0  0  0
 15 16  1  0  0  0  0
 15 17  1  0  0  0  0
 14 15  2  0  0  0  0
 14 24  1  0  0  0  0
 11 12  1  0  0  0  0
 11 13  1  0  0  0  0
 11 14  1  0  0  0  0
  9 10  1  0  0  0  0
  9 11  1  0  0  0  0
  9 26  1  0  0  0  0
  7  8  1  0  0  0  0
  7  9  1  0  0  0  0
 30 31  1  0  0  0  0
 30 32  1  0  0  0  0
 30 33  1  0  0  0  0
 28 29  1  0  0  0  0
 28 30  1  0  0  0  0
M  END
$$$$
default_name
  -OEChem-01062215323D

 33 33  0     1  0  0  0  0  0999 V2000
   -4.0702   -3.8485    1.4554 H   0  0  0  0  0  0  0  0  0  0  0  0
   -4.0012   -2.9605    0.8284 C   0  0  0  0  0  0  0  0  0  0  0  0
   -4.7652   -2.2435    1.1234 H   0  0  0  0  0  0  0  0  0  0  0  0
   -4.1352   -3.2385   -0.2156 H   0  0  0  0  0  0  0  0  0  0  0  0
   -2.6362   -2.3395    1.0094 C   0  0  0  0  0  0  0  0  0  0  0  0
   -1.8292   -2.8395    1.7814 O   0  0  0  0  0  0  0  0  0  0  0  0
   -2.3832   -1.2445    0.2964 N   0  0  0  0  0  0  0  0  0  0  0  0
   -3.1102   -0.8685   -0.2946 H   0  0  0  0  0  0  0  0  0  0  0  0
   -1.1292   -0.4875    0.3524 C   0  0  1  0  0  0  0  0  0  0  0  0
   -0.3553   -1.0601   -0.1599 H   0  0  0  0  0  0  0  0  0  0  0  0
   -1.3076    0.8514   -0.3841 C   0  0  0  0  0  0  0  0  0  0  0  0
   -2.1738    1.3702    0.0284 H   0  0  0  0  0  0  0  0  0  0  0  0
   -0.4328    1.4766   -0.1976 H   0  0  0  0  0  0  0  0  0  0  0  0
   -1.5128    0.7085   -1.8799 C   0  0  0  0  0  0  0  0  0  0  0  0
   -0.4085    0.5174   -2.7344 C   0  0  0  0  0  0  0  0  0  0  0  0
    0.5940    0.4983   -2.3273 H   0  0  0  0  0  0  0  0  0  0  0  0
   -0.6076    0.3447   -4.1180 C   0  0  0  0  0  0  0  0  0  0  0  0
    0.2404    0.2002   -4.7696 H   0  0  0  0  0  0  0  0  0  0  0  0
   -1.9163    0.3595   -4.6479 C   0  0  0  0  0  0  0  0  0  0  0  0
   -2.1190    0.1909   -5.9804 O   0  0  0  0  0  0  0  0  0  0  0  0
   -1.2960    0.1626   -6.4702 H   0  0  0  0  0  0  0  0  0  0  0  0
   -3.0205    0.5459   -3.7907 C   0  0  0  0  0  0  0  0  0  0  0  0
   -4.0159    0.5596   -4.2084 H   0  0  0  0  0  0  0  0  0  0  0  0
   -2.8179    0.7228   -2.4088 C   0  0  0  0  0  0  0  0  0  0  0  0
   -3.6661    0.8753   -1.7521 H   0  0  0  0  0  0  0  0  0  0  0  0
   -0.6745   -0.2825    1.8071 C   0  0  0  0  0  0  0  0  0  0  0  0
    0.5240   -0.1948    2.0752 O   0  0  0  0  0  0  0  0  0  0  0  0
   -1.6273   -0.2094    2.7451 N   0  0  0  0  0  0  0  0  0  0  0  0
   -2.5830   -0.3496    2.4510 H   0  0  0  0  0  0  0  0  0  0  0  0
   -1.3684   -0.0193    4.1704 C   0  0  0  0  0  0  0  0  0  0  0  0
   -0.7001    0.8312    4.3155 H   0  0  0  0  0  0  0  0  0  0  0  0
   -2.3040    0.1640    4.7012 H   0  0  0  0  0  0  0  0  0  0  0  0
   -0.8909   -0.9122    4.5792 H   0  0  0  0  0  0  0  0  0  0  0  0
  5  6  2  0  0  0  0
  5  7  1  0  0  0  0
  2  3  1  0  0  0  0
  2  4  1  0  0  0  0
  2  5  1  0  0  0  0
  1  2  1  0  0  0  0
 26 27  2  0  0  0  0
 26 28  1  0  0  0  0
 24 25  1  0  0  0  0
 22 23  1  0  0  0  0
 22 24  2  0  0  0  0
 20 21  1  0  0  0  0
 19 20  1  0  0  0  0
 19 22  1  0  0  0  0
 17 18  1  0  0  0  0
 17 19  2  0  0  0  0
 15 16  1  0  0  0  0
 15 17  1  0  0  0  0
 14 15  2  0  0  0  0
 14 24  1  0  0  0  0
 11 12  1  0  0  0  0
 11 13  1  0  0  0  0
 11 14  1  0  0  0  0
  9 10  1  0  0  0  0
  9 11  1  0  0  0  0
  9 26  1  0  0  0  0
  7  8  1  0  0  0  0
  7  9  1  0  0  0  0
 30 31  1  0  0  0  0
 30 32  1  0  0  0  0
 30 33  1  0  0  0  0
 28 29  1  0  0  0  0
 28 30  1  0  0  0  0
M  END
$$$$
default_name
  -OEChem-01062215323D

 33 33  0     1  0  0  0  0  0999 V2000
   -4.0702   -3.8485    1.4554 H   0  0  0  0  0  0  0  0  0  0  0  0
   -4.0012   -2.9605    0.8284 C   0  0  0  0  0  0  0  0  0  0  0  0
   -4.7652   -2.2435    1.1234 H   0  0  0  0  0  0  0  0  0  0  0  0
   -4.1352   -3.2385   -0.2156 H   0  0  0  0  0  0  0  0  0  0  0  0
   -2.6362   -2.3395    1.0094 C   0  0  0  0  0  0  0  0  0  0  0  0
   -1.8292   -2.8395    1.7814 O   0  0  0  0  0  0  0  0  0  0  0  0
   -2.3832   -1.2445    0.2964 N   0  0  0  0  0  0  0  0  0  0  0  0
   -3.1102   -0.8685   -0.2946 H   0  0  0  0  0  0  0  0  0  0  0  0
   -1.1292   -0.4875    0.3524 C   0  0  1  0  0  0  0  0  0  0  0  0
   -0.3553   -1.0601   -0.1599 H   0  0  0  0  0  0  0  0  0  0  0  0
   -1.3076    0.8514   -0.3841 C   0  0  0  0  0  0  0  0  0  0  0  0
   -2.1738    1.3702    0.0284 H   0  0  0  0  0  0  0  0  0  0  0  0
   -0.4328    1.4766   -0.1976 H   0  0  0  0  0  0  0  0  0  0  0  0
   -1.5128    0.7085   -1.8799 C   0  0  0  0  0  0  0  0  0  0  0  0
   -0.4085    0.5174   -2.7344 C   0  0  0  0  0  0  0  0  0  0  0  0
    0.5940    0.4983   -2.3273 H   0  0  0  0  0  0  0  0  0  0  0  0
   -0.6076    0.3447   -4.1180 C   0  0  0  0  0  0  0  0  0  0  0  0
    0.2404    0.2002   -4.7696 H   0  0  0  0  0  0  0  0  0  0  0  0
   -1.9163    0.3595   -4.6479 C   0  0  0  0  0  0  0  0  0  0  0  0
   -2.1190    0.1909   -5.9804 O   0  0  0  0  0  0  0  0  0  0  0  0
   -1.2960    0.1626   -6.4702 H   0  0  0  0  0  0  0  0  0  0  0  0
   -3.0205    0.5459   -3.7907 C   0  0  0  0  0  0  0  0  0  0  0  0
   -4.0159    0.5596   -4.2084 H   0  0  0  0  0  0  0  0  0  0  0  0
   -2.8179    0.7228   -2.4088 C   0  0  0  0  0  0  0  0  0  0  0  0
   -3.6661    0.8753   -1.7521 H   0  0  0  0  0  0  0  0  0  0  0  0
   -0.6745   -0.2825    1.8071 C   0  0  0  0  0  0  0  0  0  0  0  0
    0.4772    0.0780    2.0515 O   0  0  0  0  0  0  0  0  0  0  0  0
   -1.5742   -0.5142    2.7714 N   0  0  0  0  0  0  0  0  0  0  0  0
   -2.4790   -0.8637    2.4909 H   0  0  0  0  0  0  0  0  0  0  0  0
   -1.3069   -0.3697    4.2005 C   0  0  0  0  0  0  0  0  0  0  0  0
   -0.8601    0.6065    4.3971 H   0  0  0  0  0  0  0  0  0  0  0  0
   -2.2347   -0.4612    4.7676 H   0  0  0  0  0  0  0  0  0  0  0  0
   -0.6088   -1.1446    4.5238 H   0  0  0  0  0  0  0  0  0  0  0  0
  5  6  2  0  0  0  0
  5  7  1  0  0  0  0
  2  3  1  0  0  0  0
  2  4  1  0  0  0  0
  2  5  1  0  0  0  0
  1  2  1  0  0  0  0
 26 27  2  0  0  0  0
 26 28  1  0  0  0  0
 24 25  1  0  0  0  0
 22 23  1  0  0  0  0
 22 24  2  0  0  0  0
 20 21  1  0  0  0  0
 19 20  1  0  0  0  0
 19 22  1  0  0  0  0
 17 18  1  0  0  0  0
 17 19  2  0  0  0  0
 15 16  1  0  0  0  0
 15 17  1  0  0  0  0
 14 15  2  0  0  0  0
 14 24  1  0  0  0  0
 11 12  1  0  0  0  0
 11 13  1  0  0  0  0
 11 14  1  0  0  0  0
  9 10  1  0  0  0  0
  9 11  1  0  0  0  0
  9 26  1  0  0  0  0
  7  8  1  0  0  0  0
  7  9  1  0  0  0  0
 30 31  1  0  0  0  0
 30 32  1  0  0  0  0
 30 33  1  0  0  0  0
 28 29  1  0  0  0  0
 28 30  1  0  0  0  0
M  END
$$$$
default_name
  -OEChem-01062215323D

 33 33  0     1  0  0  0  0  0999 V2000
   -4.0702   -3.8485    1.4554 H   0  0  0  0  0  0  0  0  0  0  0  0
   -4.0012   -2.9605    0.8284 C   0  0  0  0  0  0  0  0  0  0  0  0
   -4.7652   -2.2435    1.1234 H   0  0  0  0  0  0  0  0  0  0  0  0
   -4.1352   -3.2385   -0.2156 H   0  0  0  0  0  0  0  0  0  0  0  0
   -2.6362   -2.3395    1.0094 C   0  0  0  0  0  0  0  0  0  0  0  0
   -1.8292   -2.8395    1.7814 O   0  0  0  0  0  0  0  0  0  0  0  0
   -2.3832   -1.2445    0.2964 N   0  0  0  0  0  0  0  0  0  0  0  0
   -3.1102   -0.8685   -0.2946 H   0  0  0  0  0  0  0  0  0  0  0  0
   -1.1292   -0.4875    0.3524 C   0  0  1  0  0  0  0  0  0  0  0  0
   -0.3553   -1.0601   -0.1599 H   0  0  0  0  0  0  0  0  0  0  0  0
   -1.3076    0.8514   -0.3841 C   0  0  0  0  0  0  0  0  0  0  0  0
   -2.1738    1.3702    0.0284 H   0  0  0  0  0  0  0  0  0  0  0  0
   -0.4328    1.4766   -0.1976 H   0  0  0  0  0  0  0  0  0  0  0  0
   -1.5128    0.7085   -1.8799 C   0  0  0  0  0  0  0  0  0  0  0  0
   -0.4085    0.5174   -2.7344 C   0  0  0  0  0  0  0  0  0  0  0  0
    0.5940    0.4983   -2.3273 H   0  0  0  0  0  0  0  0  0  0  0  0
   -0.6076    0.3447   -4.1180 C   0  0  0  0  0  0  0  0  0  0  0  0
    0.2404    0.2002   -4.7696 H   0  0  0  0  0  0  0  0  0  0  0  0
   -1.9163    0.3595   -4.6479 C   0  0  0  0  0  0  0  0  0  0  0  0
   -2.1190    0.1909   -5.9804 O   0  0  0  0  0  0  0  0  0  0  0  0
   -1.2960    0.1626   -6.4702 H   0  0  0  0  0  0  0  0  0  0  0  0
   -3.0205    0.5459   -3.7907 C   0  0  0  0  0  0  0  0  0  0  0  0
   -4.0159    0.5596   -4.2084 H   0  0  0  0  0  0  0  0  0  0  0  0
   -2.8179    0.7228   -2.4088 C   0  0  0  0  0  0  0  0  0  0  0  0
   -3.6661    0.8753   -1.7521 H   0  0  0  0  0  0  0  0  0  0  0  0
   -0.6745   -0.2825    1.8071 C   0  0  0  0  0  0  0  0  0  0  0  0
    0.3643    0.3318    2.0510 O   0  0  0  0  0  0  0  0  0  0  0  0
   -1.4474   -0.7976    2.7717 N   0  0  0  0  0  0  0  0  0  0  0  0
   -2.2513   -1.3378    2.4865 H   0  0  0  0  0  0  0  0  0  0  0  0
   -1.1606   -0.6953    4.2007 C   0  0  0  0  0  0  0  0  0  0  0  0
   -0.9568    0.3439    4.4643 H   0  0  0  0  0  0  0  0  0  0  0  0
   -2.0123   -1.0531    4.7815 H   0  0  0  0  0  0  0  0  0  0  0  0
   -0.2813   -1.2958    4.4427 H   0  0  0  0  0  0  0  0  0  0  0  0
  5  6  2  0  0  0  0
  5  7  1  0  0  0  0
  2  3  1  0  0  0  0
  2  4  1  0  0  0  0
  2  5  1  0  0  0  0
  1  2  1  0  0  0  0
 26 27  2  0  0  0  0
 26 28  1  0  0  0  0
 24 25  1  0  0  0  0
 22 23  1  0  0  0  0
 22 24  2  0  0  0  0
 20 21  1  0  0  0  0
 19 20  1  0  0  0  0
 19 22  1  0  0  0  0
 17 18  1  0  0  0  0
 17 19  2  0  0  0  0
 15 16  1  0  0  0  0
 15 17  1  0  0  0  0
 14 15  2  0  0  0  0
 14 24  1  0  0  0  0
 11 12  1  0  0  0  0
 11 13  1  0  0  0  0
 11 14  1  0  0  0  0
  9 10  1  0  0  0  0
  9 11  1  0  0  0  0
  9 26  1  0  0  0  0
  7  8  1  0  0  0  0
  7  9  1  0  0  0  0
 30 31  1  0  0  0  0
 30 32  1  0  0  0  0
 30 33  1  0  0  0  0
 28 29  1  0  0  0  0
 28 30  1  0  0  0  0
M  END
$$$$
default_name
  -OEChem-01062215323D

 33 33  0     1  0  0  0  0  0999 V2000
   -4.0702   -3.8485    1.4554 H   0  0  0  0  0  0  0  0  0  0  0  0
   -4.0012   -2.9605    0.8284 C   0  0  0  0  0  0  0  0  0  0  0  0
   -4.7652   -2.2435    1.1234 H   0  0  0  0  0  0  0  0  0  0  0  0
   -4.1352   -3.2385   -0.2156 H   0  0  0  0  0  0  0  0  0  0  0  0
   -2.6362   -2.3395    1.0094 C   0  0  0  0  0  0  0  0  0  0  0  0
   -1.8292   -2.8395    1.7814 O   0  0  0  0  0  0  0  0  0  0  0  0
   -2.3832   -1.2445    0.2964 N   0  0  0  0  0  0  0  0  0  0  0  0
   -3.1102   -0.8685   -0.2946 H   0  0  0  0  0  0  0  0  0  0  0  0
   -1.1292   -0.4875    0.3524 C   0  0  1  0  0  0  0  0  0  0  0  0
   -0.3553   -1.0601   -0.1599 H   0  0  0  0  0  0  0  0  0  0  0  0
   -1.3076    0.8514   -0.3841 C   0  0  0  0  0  0  0  0  0  0  0  0
   -2.1738    1.3702    0.0284 H   0  0  0  0  0  0  0  0  0  0  0  0
   -0.4328    1.4766   -0.1976 H   0  0  0  0  0  0  0  0  0  0  0  0
   -1.5128    0.7085   -1.8799 C   0  0  0  0  0  0  0  0  0  0  0  0
   -0.4085    0.5174   -2.7344 C   0  0  0  0  0  0  0  0  0  0  0  0
    0.5940    0.4983   -2.3273 H   0  0  0  0  0  0  0  0  0  0  0  0
   -0.6076    0.3447   -4.1180 C   0  0  0  0  0  0  0  0  0  0  0  0
    0.2404    0.2002   -4.7696 H   0  0  0  0  0  0  0  0  0  0  0  0
   -1.9163    0.3595   -4.6479 C   0  0  0  0  0  0  0  0  0  0  0  0
   -2.1190    0.1909   -5.9804 O   0  0  0  0  0  0  0  0  0  0  0  0
   -1.2960    0.1626   -6.4702 H   0  0  0  0  0  0  0  0  0  0  0  0
   -3.0205    0.5459   -3.7907 C   0  0  0  0  0  0  0  0  0  0  0  0
   -4.0159    0.5596   -4.2084 H   0  0  0  0  0  0  0  0  0  0  0  0
   -2.8179    0.7228   -2.4088 C   0  0  0  0  0  0  0  0  0  0  0  0
   -3.6661    0.8753   -1.7521 H   0  0  0  0  0  0  0  0  0  0  0  0
   -0.6745   -0.2825    1.8071 C   0  0  0  0  0  0  0  0  0  0  0  0
    0.1932    0.5493    2.0738 O   0  0  0  0  0  0  0  0  0  0  0  0
   -1.2555   -1.0403    2.7459 N   0  0  0  0  0  0  0  0  0  0  0  0
   -1.9154   -1.7397    2.4381 H   0  0  0  0  0  0  0  0  0  0  0  0
   -0.9397   -0.9741    4.1709 C   0  0  0  0  0  0  0  0  0  0  0  0
   -0.9836    0.0616    4.5125 H   0  0  0  0  0  0  0  0  0  0  0  0
   -1.6522   -1.5715    4.7419 H   0  0  0  0  0  0  0  0  0  0  0  0
    0.0692   -1.3555    4.3416 H   0  0  0  0  0  0  0  0  0  0  0  0
  5  6  2  0  0  0  0
  5  7  1  0  0  0  0
  2  3  1  0  0  0  0
  2  4  1  0  0  0  0
  2  5  1  0  0  0  0
  1  2  1  0  0  0  0
 26 27  2  0  0  0  0
 26 28  1  0  0  0  0
 24 25  1  0  0  0  0
 22 23  1  0  0  0  0
 22 24  2  0  0  0  0
 20 21  1  0  0  0  0
 19 20  1  0  0  0  0
 19 22  1  0  0  0  0
 17 18  1  0  0  0  0
 17 19  2  0  0  0  0
 15 16  1  0  0  0  0
 15 17  1  0  0  0  0
 14 15  2  0  0  0  0
 14 24  1  0  0  0  0
 11 12  1  0  0  0  0
 11 13  1  0  0  0  0
 11 14  1  0  0  0  0
  9 10  1  0  0  0  0
  9 11  1  0  0  0  0
  9 26  1  0  0  0  0
  7  8  1  0  0  0  0
  7  9  1  0  0  0  0
 30 31  1  0  0  0  0
 30 32  1  0  0  0  0
 30 33  1  0  0  0  0
 28 29  1  0  0  0  0
 28 30  1  0  0  0  0
M  END
$$$$
default_name
  -OEChem-01062215323D

 33 33  0     1  0  0  0  0  0999 V2000
   -4.0702   -3.8485    1.4554 H   0  0  0  0  0  0  0  0  0  0  0  0
   -4.0012   -2.9605    0.8284 C   0  0  0  0  0  0  0  0  0  0  0  0
   -4.7652   -2.2435    1.1234 H   0  0  0  0  0  0  0  0  0  0  0  0
   -4.1352   -3.2385   -0.2156 H   0  0  0  0  0  0  0  0  0  0  0  0
   -2.6362   -2.3395    1.0094 C   0  0  0  0  0  0  0  0  0  0  0  0
   -1.8292   -2.8395    1.7814 O   0  0  0  0  0  0  0  0  0  0  0  0
   -2.3832   -1.2445    0.2964 N   0  0  0  0  0  0  0  0  0  0  0  0
   -3.1102   -0.8685   -0.2946 H   0  0  0  0  0  0  0  0  0  0  0  0
   -1.1292   -0.4875    0.3524 C   0  0  1  0  0  0  0  0  0  0  0  0
   -0.3553   -1.0601   -0.1599 H   0  0  0  0  0  0  0  0  0  0  0  0
   -1.3076    0.8514   -0.3841 C   0  0  0  0  0  0  0  0  0  0  0  0
   -2.1738    1.3702    0.0284 H   0  0  0  0  0  0  0  0  0  0  0  0
   -0.4328    1.4766   -0.1976 H   0  0  0  0  0  0  0  0  0  0  0  0
   -1.5128    0.7085   -1.8799 C   0  0  0  0  0  0  0  0  0  0  0  0
   -0.4085    0.5174   -2.7344 C   0  0  0  0  0  0  0  0  0  0  0  0
    0.5940    0.4983   -2.3273 H   0  0  0  0  0  0  0  0  0  0  0  0
   -0.6076    0.3447   -4.1180 C   0  0  0  0  0  0  0  0  0  0  0  0
    0.2404    0.2002   -4.7696 H   0  0  0  0  0  0  0  0  0  0  0  0
   -1.9163    0.3595   -4.6479 C   0  0  0  0  0  0  0  0  0  0  0  0
   -2.1190    0.1909   -5.9804 O   0  0  0  0  0  0  0  0  0  0  0  0
   -1.2960    0.1626   -6.4702 H   0  0  0  0  0  0  0  0  0  0  0  0
   -3.0205    0.5459   -3.7907 C   0  0  0  0  0  0  0  0  0  0  0  0
   -4.0159    0.5596   -4.2084 H   0  0  0  0  0  0  0  0  0  0  0  0
   -2.8179    0.7228   -2.4088 C   0  0  0  0  0  0  0  0  0  0  0  0
   -3.6661    0.8753   -1.7521 H   0  0  0  0  0  0  0  0  0  0  0  0
   -0.6745   -0.2825    1.8071 C   0  0  0  0  0  0  0  0  0  0  0  0
   -0.0246    0.7158    2.1185 O   0  0  0  0  0  0  0  0  0  0  0  0
   -1.0116   -1.2257    2.6958 N   0  0  0  0  0  0  0  0  0  0  0  0
   -1.4943   -2.0420    2.3490 H   0  0  0  0  0  0  0  0  0  0  0  0
   -0.6590   -1.1869    4.1131 C   0  0  0  0  0  0  0  0  0  0  0  0
   -0.9387   -0.2215    4.5383 H   0  0  0  0  0  0  0  0  0  0  0  0
   -1.1787   -1.9810    4.6516 H   0  0  0  0  0  0  0  0  0  0  0  0
    0.4189   -1.3196    4.2272 H   0  0  0  0  0  0  0  0  0  0  0  0
  5  6  2  0  0  0  0
  5  7  1  0  0  0  0
  2  3  1  0  0  0  0
  2  4  1  0  0  0  0
  2  5  1  0  0  0  0
  1  2  1  0  0  0  0
 26 27  2  0  0  0  0
 26 28  1  0  0  0  0
 24 25  1  0  0  0  0
 22 23  1  0  0  0  0
 22 24  2  0  0  0  0
 20 21  1  0  0  0  0
 19 20  1  0  0  0  0
 19 22  1  0  0  0  0
 17 18  1  0  0  0  0
 17 19  2  0  0  0  0
 15 16  1  0  0  0  0
 15 17  1  0  0  0  0
 14 15  2  0  0  0  0
 14 24  1  0  0  0  0
 11 12  1  0  0  0  0
 11 13  1  0  0  0  0
 11 14  1  0  0  0  0
  9 10  1  0  0  0  0
  9 11  1  0  0  0  0
  9 26  1  0  0  0  0
  7  8  1  0  0  0  0
  7  9  1  0  0  0  0
 30 31  1  0  0  0  0
 30 32  1  0  0  0  0
 30 33  1  0  0  0  0
 28 29  1  0  0  0  0
 28 30  1  0  0  0  0
M  END
$$$$
default_name
  -OEChem-01062215323D

 33 33  0     1  0  0  0  0  0999 V2000
   -4.0702   -3.8485    1.4554 H   0  0  0  0  0  0  0  0  0  0  0  0
   -4.0012   -2.9605    0.8284 C   0  0  0  0  0  0  0  0  0  0  0  0
   -4.7652   -2.2435    1.1234 H   0  0  0  0  0  0  0  0  0  0  0  0
   -4.1352   -3.2385   -0.2156 H   0  0  0  0  0  0  0  0  0  0  0  0
   -2.6362   -2.3395    1.0094 C   0  0  0  0  0  0  0  0  0  0  0  0
   -1.8292   -2.8395    1.7814 O   0  0  0  0  0  0  0  0  0  0  0  0
   -2.3832   -1.2445    0.2964 N   0  0  0  0  0  0  0  0  0  0  0  0
   -3.1102   -0.8685   -0.2946 H   0  0  0  0  0  0  0  0  0  0  0  0
   -1.1292   -0.4875    0.3524 C   0  0  1  0  0  0  0  0  0  0  0  0
   -0.3553   -1.0601   -0.1599 H   0  0  0  0  0  0  0  0  0  0  0  0
   -1.3076    0.8514   -0.3841 C   0  0  0  0  0  0  0  0  0  0  0  0
   -2.1738    1.3702    0.0284 H   0  0  0  0  0  0  0  0  0  0  0  0
   -0.4328    1.4766   -0.1976 H   0  0  0  0  0  0  0  0  0  0  0  0
   -1.5128    0.7085   -1.8799 C   0  0  0  0  0  0  0  0  0  0  0  0
   -0.4085    0.5174   -2.7344 C   0  0  0  0  0  0  0  0  0  0  0  0
    0.5940    0.4983   -2.3273 H   0  0  0  0  0  0  0  0  0  0  0  0
   -0.6076    0.3447   -4.1180 C   0  0  0  0  0  0  0  0  0  0  0  0
    0.2404    0.2002   -4.7696 H   0  0  0  0  0  0  0  0  0  0  0  0
   -1.9163    0.3595   -4.6479 C   0  0  0  0  0  0  0  0  0  0  0  0
   -2.1190    0.1909   -5.9804 O   0  0  0  0  0  0  0  0  0  0  0  0
   -1.2960    0.1626   -6.4702 H   0  0  0  0  0  0  0  0  0  0  0  0
   -3.0205    0.5459   -3.7907 C   0  0  0  0  0  0  0  0  0  0  0  0
   -4.0159    0.5596   -4.2084 H   0  0  0  0  0  0  0  0  0  0  0  0
   -2.8179    0.7228   -2.4088 C   0  0  0  0  0  0  0  0  0  0  0  0
   -3.6661    0.8753   -1.7521 H   0  0  0  0  0  0  0  0  0  0  0  0
   -0.6745   -0.2825    1.8071 C   0  0  0  0  0  0  0  0  0  0  0  0
   -0.2742    0.8199    2.1818 O   0  0  0  0  0  0  0  0  0  0  0  0
   -0.7324   -1.3413    2.6248 N   0  0  0  0  0  0  0  0  0  0  0  0
   -1.0165   -2.2241    2.2253 H   0  0  0  0  0  0  0  0  0  0  0  0
   -0.3378   -1.3194    4.0314 C   0  0  0  0  0  0  0  0  0  0  0  0
   -0.8251   -0.4858    4.5400 H   0  0  0  0  0  0  0  0  0  0  0  0
   -0.6243   -2.2538    4.5167 H   0  0  0  0  0  0  0  0  0  0  0  0
    0.7439   -1.1905    4.1074 H   0  0  0  0  0  0  0  0  0  0  0  0
  5  6  2  0  0  0  0
  5  7  1  0  0  0  0
  2  3  1  0  0  0  0
  2  4  1  0  0  0  0
  2  5  1  0  0  0  0
  1  2  1  0  0  0  0
 26 27  2  0  0  0  0
 26 28  1  0  0  0  0
 24 25  1  0  0  0  0
 22 23  1  0  0  0  0
 22 24  2  0  0  0  0
 20 21  1  0  0  0  0
 19 20  1  0  0  0  0
 19 22  1  0  0  0  0
 17 18  1  0  0  0  0
 17 19  2  0  0  0  0
 15 16  1  0  0  0  0
 15 17  1  0  0  0  0
 14 15  2  0  0  0  0
 14 24  1  0  0  0  0
 11 12  1  0  0  0  0
 11 13  1  0  0  0  0
 11 14  1  0  0  0  0
  9 10  1  0  0  0  0
  9 11  1  0  0  0  0
  9 26  1  0  0  0  0
  7  8  1  0  0  0  0
  7  9  1  0  0  0  0
 30 31  1  0  0  0  0
 30 32  1  0  0  0  0
 30 33  1  0  0  0  0
 28 29  1  0  0  0  0
 28 30  1  0  0  0  0
M  END
$$$$
default_name
  -OEChem-01062215323D

 33 33  0     1  0  0  0  0  0999 V2000
   -4.0702   -3.8485    1.4554 H   0  0  0  0  0  0  0  0  0  0  0  0
   -4.0012   -2.9605    0.8284 C   0  0  0  0  0  0  0  0  0  0  0  0
   -4.7652   -2.2435    1.1234 H   0  0  0  0  0  0  0  0  0  0  0  0
   -4.1352   -3.2385   -0.2156 H   0  0  0  0  0  0  0  0  0  0  0  0
   -2.6362   -2.3395    1.0094 C   0  0  0  0  0  0  0  0  0  0  0  0
   -1.8292   -2.8395    1.7814 O   0  0  0  0  0  0  0  0  0  0  0  0
   -2.3832   -1.2445    0.2964 N   0  0  0  0  0  0  0  0  0  0  0  0
   -3.1102   -0.8685   -0.2946 H   0  0  0  0  0  0  0  0  0  0  0  0
   -1.1292   -0.4875    0.3524 C   0  0  1  0  0  0  0  0  0  0  0  0
   -0.3553   -1.0601   -0.1599 H   0  0  0  0  0  0  0  0  0  0  0  0
   -1.3076    0.8514   -0.3841 C   0  0  0  0  0  0  0  0  0  0  0  0
   -2.1738    1.3702    0.0284 H   0  0  0  0  0  0  0  0  0  0  0  0
   -0.4328    1.4766   -0.1976 H   0  0  0  0  0  0  0  0  0  0  0  0
   -1.5128    0.7085   -1.8799 C   0  0  0  0  0  0  0  0  0  0  0  0
   -0.4085    0.5174   -2.7344 C   0  0  0  0  0  0  0  0  0  0  0  0
    0.5940    0.4983   -2.3273 H   0  0  0  0  0  0  0  0  0  0  0  0
   -0.6076    0.3447   -4.1180 C   0  0  0  0  0  0  0  0  0  0  0  0
    0.2404    0.2002   -4.7696 H   0  0  0  0  0  0  0  0  0  0  0  0
   -1.9163    0.3595   -4.6479 C   0  0  0  0  0  0  0  0  0  0  0  0
   -2.1190    0.1909   -5.9804 O   0  0  0  0  0  0  0  0  0  0  0  0
   -1.2960    0.1626   -6.4702 H   0  0  0  0  0  0  0  0  0  0  0  0
   -3.0205    0.5459   -3.7907 C   0  0  0  0  0  0  0  0  0  0  0  0
   -4.0159    0.5596   -4.2084 H   0  0  0  0  0  0  0  0  0  0  0  0
   -2.8179    0.7228   -2.4088 C   0  0  0  0  0  0  0  0  0  0  0  0
   -3.6661    0.8753   -1.7521 H   0  0  0  0  0  0  0  0  0  0  0  0
   -0.6745   -0.2825    1.8071 C   0  0  0  0  0  0  0  0  0  0  0  0
   -0.5386    0.8545    2.2596 O   0  0  0  0  0  0  0  0  0  0  0  0
   -0.4368   -1.3792    2.5377 N   0  0  0  0  0  0  0  0  0  0  0  0
   -0.5147   -2.2735    2.0754 H   0  0  0  0  0  0  0  0  0  0  0  0
    0.0021   -1.3625    3.9312 C   0  0  0  0  0  0  0  0  0  0  0  0
   -0.6506   -0.7135    4.5176 H   0  0  0  0  0  0  0  0  0  0  0  0
   -0.0266   -2.3712    4.3465 H   0  0  0  0  0  0  0  0  0  0  0  0
    1.0221   -0.9771    3.9904 H   0  0  0  0  0  0  0  0  0  0  0  0
  5  6  2  0  0  0  0
  5  7  1  0  0  0  0
  2  3  1  0  0  0  0
  2  4  1  0  0  0  0
  2  5  1  0  0  0  0
  1  2  1  0  0  0  0
 26 27  2  0  0  0  0
 26 28  1  0  0  0  0
 24 25  1  0  0  0  0
 22 23  1  0  0  0  0
 22 24  2  0  0  0  0
 20 21  1  0  0  0  0
 19 20  1  0  0  0  0
 19 22  1  0  0  0  0
 17 18  1  0  0  0  0
 17 19  2  0  0  0  0
 15 16  1  0  0  0  0
 15 17  1  0  0  0  0
 14 15  2  0  0  0  0
 14 24  1  0  0  0  0
 11 12  1  0  0  0  0
 11 13  1  0  0  0  0
 11 14  1  0  0  0  0
  9 10  1  0  0  0  0
  9 11  1  0  0  0  0
  9 26  1  0  0  0  0
  7  8  1  0  0  0  0
  7  9  1  0  0  0  0
 30 31  1  0  0  0  0
 30 32  1  0  0  0  0
 30 33  1  0  0  0  0
 28 29  1  0  0  0  0
 28 30  1  0  0  0  0
M  END
$$$$
default_name
  -OEChem-01062215323D

 33 33  0     1  0  0  0  0  0999 V2000
   -4.0702   -3.8485    1.4554 H   0  0  0  0  0  0  0  0  0  0  0  0
   -4.0012   -2.9605    0.8284 C   0  0  0  0  0  0  0  0  0  0  0  0
   -4.7652   -2.2435    1.1234 H   0  0  0  0  0  0  0  0  0  0  0  0
   -4.1352   -3.2385   -0.2156 H   0  0  0  0  0  0  0  0  0  0  0  0
   -2.6362   -2.3395    1.0094 C   0  0  0  0  0  0  0  0  0  0  0  0
   -1.8292   -2.8395    1.7814 O   0  0  0  0  0  0  0  0  0  0  0  0
   -2.3832   -1.2445    0.2964 N   0  0  0  0  0  0  0  0  0  0  0  0
   -3.1102   -0.8685   -0.2946 H   0  0  0  0  0  0  0  0  0  0  0  0
   -1.1292   -0.4875    0.3524 C   0  0  1  0  0  0  0  0  0  0  0  0
   -0.3553   -1.0601   -0.1599 H   0  0  0  0  0  0  0  0  0  0  0  0
   -1.3076    0.8514   -0.3841 C   0  0  0  0  0  0  0  0  0  0  0  0
   -2.1738    1.3702    0.0284 H   0  0  0  0  0  0  0  0  0  0  0  0
   -0.4328    1.4766   -0.1976 H   0  0  0  0  0  0  0  0  0  0  0  0
   -1.5128    0.7085   -1.8799 C   0  0  0  0  0  0  0  0  0  0  0  0
   -0.4085    0.5174   -2.7344 C   0  0  0  0  0  0  0  0  0  0  0  0
    0.5940    0.4983   -2.3273 H   0  0  0  0  0  0  0  0  0  0  0  0
   -0.6076    0.3447   -4.1180 C   0  0  0  0  0  0  0  0  0  0  0  0
    0.2404    0.2002   -4.7696 H   0  0  0  0  0  0  0  0  0  0  0  0
   -1.9163    0.3595   -4.6479 C   0  0  0  0  0  0  0  0  0  0  0  0
   -2.1190    0.1909   -5.9804 O   0  0  0  0  0  0  0  0  0  0  0  0
   -1.2960    0.1626   -6.4702 H   0  0  0  0  0  0  0  0  0  0  0  0
   -3.0205    0.5459   -3.7907 C   0  0  0  0  0  0  0  0  0  0  0  0
   -4.0159    0.5596   -4.2084 H   0  0  0  0  0  0  0  0  0  0  0  0
   -2.8179    0.7228   -2.4088 C   0  0  0  0  0  0  0  0  0  0  0  0
   -3.6661    0.8753   -1.7521 H   0  0  0  0  0  0  0  0  0  0  0  0
   -0.6745   -0.2825    1.8071 C   0  0  0  0  0  0  0  0  0  0  0  0
   -0.7997    0.8172    2.3465 O   0  0  0  0  0  0  0  0  0  0  0  0
   -0.1450   -1.3367    2.4405 N   0  0  0  0  0  0  0  0  0  0  0  0
   -0.0231   -2.1869    1.9096 H   0  0  0  0  0  0  0  0  0  0  0  0
    0.3376   -1.3132    3.8194 C   0  0  0  0  0  0  0  0  0  0  0  0
   -0.4271   -0.8890    4.4724 H   0  0  0  0  0  0  0  0  0  0  0  0
    0.5736   -2.3252    4.1524 H   0  0  0  0  0  0  0  0  0  0  0  0
    1.2346   -0.6939    3.8841 H   0  0  0  0  0  0  0  0  0  0  0  0
  5  6  2  0  0  0  0
  5  7  1  0  0  0  0
  2  3  1  0  0  0  0
  2  4  1  0  0  0  0
  2  5  1  0  0  0  0
  1  2  1  0  0  0  0
 26 27  2  0  0  0  0
 26 28  1  0  0  0  0
 24 25  1  0  0  0  0
 22 23  1  0  0  0  0
 22 24  2  0  0  0  0
 20 21  1  0  0  0  0
 19 20  1  0  0  0  0
 19 22  1  0  0  0  0
 17 18  1  0  0  0  0
 17 19  2  0  0  0  0
 15 16  1  0  0  0  0
 15 17  1  0  0  0  0
 14 15  2  0  0  0  0
 14 24  1  0  0  0  0
 11 12  1  0  0  0  0
 11 13  1  0  0  0  0
 11 14  1  0  0  0  0
  9 10  1  0  0  0  0
  9 11  1  0  0  0  0
  9 26  1  0  0  0  0
  7  8  1  0  0  0  0
  7  9  1  0  0  0  0
 30 31  1  0  0  0  0
 30 32  1  0  0  0  0
 30 33  1  0  0  0  0
 28 29  1  0  0  0  0
 28 30  1  0  0  0  0
M  END
$$$$
default_name
  -OEChem-01062215323D

 33 33  0     1  0  0  0  0  0999 V2000
   -4.0702   -3.8485    1.4554 H   0  0  0  0  0  0  0  0  0  0  0  0
   -4.0012   -2.9605    0.8284 C   0  0  0  0  0  0  0  0  0  0  0  0
   -4.7652   -2.2435    1.1234 H   0  0  0  0  0  0  0  0  0  0  0  0
   -4.1352   -3.2385   -0.2156 H   0  0  0  0  0  0  0  0  0  0  0  0
   -2.6362   -2.3395    1.0094 C   0  0  0  0  0  0  0  0  0  0  0  0
   -1.8292   -2.8395    1.7814 O   0  0  0  0  0  0  0  0  0  0  0  0
   -2.3832   -1.2445    0.2964 N   0  0  0  0  0  0  0  0  0  0  0  0
   -3.1102   -0.8685   -0.2946 H   0  0  0  0  0  0  0  0  0  0  0  0
   -1.1292   -0.4875    0.3524 C   0  0  1  0  0  0  0  0  0  0  0  0
   -0.3553   -1.0601   -0.1599 H   0  0  0  0  0  0  0  0  0  0  0  0
   -1.3076    0.8514   -0.3841 C   0  0  0  0  0  0  0  0  0  0  0  0
   -2.1738    1.3702    0.0284 H   0  0  0  0  0  0  0  0  0  0  0  0
   -0.4328    1.4766   -0.1976 H   0  0  0  0  0  0  0  0  0  0  0  0
   -1.5128    0.7085   -1.8799 C   0  0  0  0  0  0  0  0  0  0  0  0
   -0.4085    0.5174   -2.7344 C   0  0  0  0  0  0  0  0  0  0  0  0
    0.5940    0.4983   -2.3273 H   0  0  0  0  0  0  0  0  0  0  0  0
   -0.6076    0.3447   -4.1180 C   0  0  0  0  0  0  0  0  0  0  0  0
    0.2404    0.2002   -4.7696 H   0  0  0  0  0  0  0  0  0  0  0  0
   -1.9163    0.3595   -4.6479 C   0  0  0  0  0  0  0  0  0  0  0  0
   -2.1190    0.1909   -5.9804 O   0  0  0  0  0  0  0  0  0  0  0  0
   -1.2960    0.1626   -6.4702 H   0  0  0  0  0  0  0  0  0  0  0  0
   -3.0205    0.5459   -3.7907 C   0  0  0  0  0  0  0  0  0  0  0  0
   -4.0159    0.5596   -4.2084 H   0  0  0  0  0  0  0  0  0  0  0  0
   -2.8179    0.7228   -2.4088 C   0  0  0  0  0  0  0  0  0  0  0  0
   -3.6661    0.8753   -1.7521 H   0  0  0  0  0  0  0  0  0  0  0  0
   -0.6745   -0.2825    1.8071 C   0  0  0  0  0  0  0  0  0  0  0  0
   -1.0399    0.7106    2.4366 O   0  0  0  0  0  0  0  0  0  0  0  0
    0.1231   -1.2169    2.3398 N   0  0  0  0  0  0  0  0  0  0  0  0
    0.4248   -1.9702    1.7390 H   0  0  0  0  0  0  0  0  0  0  0  0
    0.6456   -1.1749    3.7036 C   0  0  0  0  0  0  0  0  0  0  0  0
   -0.1698   -1.0003    4.4077 H   0  0  0  0  0  0  0  0  0  0  0  0
    1.1354   -2.1190    3.9477 H   0  0  0  0  0  0  0  0  0  0  0  0
    1.3668   -0.3602    3.7957 H   0  0  0  0  0  0  0  0  0  0  0  0
  5  6  2  0  0  0  0
  5  7  1  0  0  0  0
  2  3  1  0  0  0  0
  2  4  1  0  0  0  0
  2  5  1  0  0  0  0
  1  2  1  0  0  0  0
 26 27  2  0  0  0  0
 26 28  1  0  0  0  0
 24 25  1  0  0  0  0
 22 23  1  0  0  0  0
 22 24  2  0  0  0  0
 20 21  1  0  0  0  0
 19 20  1  0  0  0  0
 19 22  1  0  0  0  0
 17 18  1  0  0  0  0
 17 19  2  0  0  0  0
 15 16  1  0  0  0  0
 15 17  1  0  0  0  0
 14 15  2  0  0  0  0
 14 24  1  0  0  0  0
 11 12  1  0  0  0  0
 11 13  1  0  0  0  0
 11 14  1  0  0  0  0
  9 10  1  0  0  0  0
  9 11  1  0  0  0  0
  9 26  1  0  0  0  0
  7  8  1  0  0  0  0
  7  9  1  0  0  0  0
 30 31  1  0  0  0  0
 30 32  1  0  0  0  0
 30 33  1  0  0  0  0
 28 29  1  0  0  0  0
 28 30  1  0  0  0  0
M  END
$$$$
default_name
  -OEChem-01062215323D

 33 33  0     1  0  0  0  0  0999 V2000
   -4.0702   -3.8485    1.4554 H   0  0  0  0  0  0  0  0  0  0  0  0
   -4.0012   -2.9605    0.8284 C   0  0  0  0  0  0  0  0  0  0  0  0
   -4.7652   -2.2435    1.1234 H   0  0  0  0  0  0  0  0  0  0  0  0
   -4.1352   -3.2385   -0.2156 H   0  0  0  0  0  0  0  0  0  0  0  0
   -2.6362   -2.3395    1.0094 C   0  0  0  0  0  0  0  0  0  0  0  0
   -1.8292   -2.8395    1.7814 O   0  0  0  0  0  0  0  0  0  0  0  0
   -2.3832   -1.2445    0.2964 N   0  0  0  0  0  0  0  0  0  0  0  0
   -3.1102   -0.8685   -0.2946 H   0  0  0  0  0  0  0  0  0  0  0  0
   -1.1292   -0.4875    0.3524 C   0  0  1  0  0  0  0  0  0  0  0  0
   -0.3553   -1.0601   -0.1599 H   0  0  0  0  0  0  0  0  0  0  0  0
   -1.3076    0.8514   -0.3841 C   0  0  0  0  0  0  0  0  0  0  0  0
   -2.1738    1.3702    0.0284 H   0  0  0  0  0  0  0  0  0  0  0  0
   -0.4328    1.4766   -0.1976 H   0  0  0  0  0  0  0  0  0  0  0  0
   -1.5128    0.7085   -1.8799 C   0  0  0  0  0  0  0  0  0  0  0  0
   -0.4085    0.5174   -2.7344 C   0  0  0  0  0  0  0  0  0  0  0  0
    0.5940    0.4983   -2.3273 H   0  0  0  0  0  0  0  0  0  0  0  0
   -0.6076    0.3447   -4.1180 C   0  0  0  0  0  0  0  0  0  0  0  0
    0.2404    0.2002   -4.7696 H   0  0  0  0  0  0  0  0  0  0  0  0
   -1.9163    0.3595   -4.6479 C   0  0  0  0  0  0  0  0  0  0  0  0
   -2.1190    0.1909   -5.9804 O   0  0  0  0  0  0  0  0  0  0  0  0
   -1.2960    0.1626   -6.4702 H   0  0  0  0  0  0  0  0  0  0  0  0
   -3.0205    0.5459   -3.7907 C   0  0  0  0  0  0  0  0  0  0  0  0
   -4.0159    0.5596   -4.2084 H   0  0  0  0  0  0  0  0  0  0  0  0
   -2.8179    0.7228   -2.4088 C   0  0  0  0  0  0  0  0  0  0  0  0
   -3.6661    0.8753   -1.7521 H   0  0  0  0  0  0  0  0  0  0  0  0
   -0.6745   -0.2825    1.8071 C   0  0  0  0  0  0  0  0  0  0  0  0
   -1.2426    0.5420    2.5237 O   0  0  0  0  0  0  0  0  0  0  0  0
    0.3493   -1.0277    2.2425 N   0  0  0  0  0  0  0  0  0  0  0  0
    0.7986   -1.6382    1.5754 H   0  0  0  0  0  0  0  0  0  0  0  0
    0.9053   -0.9570    3.5917 C   0  0  0  0  0  0  0  0  0  0  0  0
    0.1037   -1.0399    4.3278 H   0  0  0  0  0  0  0  0  0  0  0  0
    1.6205   -1.7666    3.7464 H   0  0  0  0  0  0  0  0  0  0  0  0
    1.4098    0.0013    3.7314 H   0  0  0  0  0  0  0  0  0  0  0  0
  5  6  2  0  0  0  0
  5  7  1  0  0  0  0
  2  3  1  0  0  0  0
  2  4  1  0  0  0  0
  2  5  1  0  0  0  0
  1  2  1  0  0  0  0
 26 27  2  0  0  0  0
 26 28  1  0  0  0  0
 24 25  1  0  0  0  0
 22 23  1  0  0  0  0
 22 24  2  0  0  0  0
 20 21  1  0  0  0  0
 19 20  1  0  0  0  0
 19 22  1  0  0  0  0
 17 18  1  0  0  0  0
 17 19  2  0  0  0  0
 15 16  1  0  0  0  0
 15 17  1  0  0  0  0
 14 15  2  0  0  0  0
 14 24  1  0  0  0  0
 11 12  1  0  0  0  0
 11 13  1  0  0  0  0
 11 14  1  0  0  0  0
  9 10  1  0  0  0  0
  9 11  1  0  0  0  0
  9 26  1  0  0  0  0
  7  8  1  0  0  0  0
  7  9  1  0  0  0  0
 30 31  1  0  0  0  0
 30 32  1  0  0  0  0
 30 33  1  0  0  0  0
 28 29  1  0  0  0  0
 28 30  1  0  0  0  0
M  END
$$$$
default_name
  -OEChem-01062215323D

 33 33  0     1  0  0  0  0  0999 V2000
   -4.0702   -3.8485    1.4554 H   0  0  0  0  0  0  0  0  0  0  0  0
   -4.0012   -2.9605    0.8284 C   0  0  0  0  0  0  0  0  0  0  0  0
   -4.7652   -2.2435    1.1234 H   0  0  0  0  0  0  0  0  0  0  0  0
   -4.1352   -3.2385   -0.2156 H   0  0  0  0  0  0  0  0  0  0  0  0
   -2.6362   -2.3395    1.0094 C   0  0  0  0  0  0  0  0  0  0  0  0
   -1.8292   -2.8395    1.7814 O   0  0  0  0  0  0  0  0  0  0  0  0
   -2.3832   -1.2445    0.2964 N   0  0  0  0  0  0  0  0  0  0  0  0
   -3.1102   -0.8685   -0.2946 H   0  0  0  0  0  0  0  0  0  0  0  0
   -1.1292   -0.4875    0.3524 C   0  0  1  0  0  0  0  0  0  0  0  0
   -0.3553   -1.0601   -0.1599 H   0  0  0  0  0  0  0  0  0  0  0  0
   -1.3076    0.8514   -0.3841 C   0  0  0  0  0  0  0  0  0  0  0  0
   -2.1738    1.3702    0.0284 H   0  0  0  0  0  0  0  0  0  0  0  0
   -0.4328    1.4766   -0.1976 H   0  0  0  0  0  0  0  0  0  0  0  0
   -1.5128    0.7085   -1.8799 C   0  0  0  0  0  0  0  0  0  0  0  0
   -0.4085    0.5174   -2.7344 C   0  0  0  0  0  0  0  0  0  0  0  0
    0.5940    0.4983   -2.3273 H   0  0  0  0  0  0  0  0  0  0  0  0
   -0.6076    0.3447   -4.1180 C   0  0  0  0  0  0  0  0  0  0  0  0
    0.2404    0.2002   -4.7696 H   0  0  0  0  0  0  0  0  0  0  0  0
   -1.9163    0.3595   -4.6479 C   0  0  0  0  0  0  0  0  0  0  0  0
   -2.1190    0.1909   -5.9804 O   0  0  0  0  0  0  0  0  0  0  0  0
   -1.2960    0.1626   -6.4702 H   0  0  0  0  0  0  0  0  0  0  0  0
   -3.0205    0.5459   -3.7907 C   0  0  0  0  0  0  0  0  0  0  0  0
   -4.0159    0.5596   -4.2084 H   0  0  0  0  0  0  0  0  0  0  0  0
   -2.8179    0.7228   -2.4088 C   0  0  0  0  0  0  0  0  0  0  0  0
   -3.6661    0.8753   -1.7521 H   0  0  0  0  0  0  0  0  0  0  0  0
   -0.6745   -0.2825    1.8071 C   0  0  0  0  0  0  0  0  0  0  0  0
   -1.3942    0.3228    2.6019 O   0  0  0  0  0  0  0  0  0  0  0  0
    0.5180   -0.7822    2.1551 N   0  0  0  0  0  0  0  0  0  0  0  0
    1.0727   -1.2134    1.4299 H   0  0  0  0  0  0  0  0  0  0  0  0
    1.0990   -0.6745    3.4914 C   0  0  0  0  0  0  0  0  0  0  0  0
    0.3749   -1.0050    4.2381 H   0  0  0  0  0  0  0  0  0  0  0  0
    1.9958   -1.2921    3.5623 H   0  0  0  0  0  0  0  0  0  0  0  0
    1.3606    0.3659    3.6954 H   0  0  0  0  0  0  0  0  0  0  0  0
  5  6  2  0  0  0  0
  5  7  1  0  0  0  0
  2  3  1  0  0  0  0
  2  4  1  0  0  0  0
  2  5  1  0  0  0  0
  1  2  1  0  0  0  0
 26 27  2  0  0  0  0
 26 28  1  0  0  0  0
 24 25  1  0  0  0  0
 22 23  1  0  0  0  0
 22 24  2  0  0  0  0
 20 21  1  0  0  0  0
 19 20  1  0  0  0  0
 19 22  1  0  0  0  0
 17 18  1  0  0  0  0
 17 19  2  0  0  0  0
 15 16  1  0  0  0  0
 15 17  1  0  0  0  0
 14 15  2  0  0  0  0
 14 24  1  0  0  0  0
 11 12  1  0  0  0  0
 11 13  1  0  0  0  0
 11 14  1  0  0  0  0
  9 10  1  0  0  0  0
  9 11  1  0  0  0  0
  9 26  1  0  0  0  0
  7  8  1  0  0  0  0
  7  9  1  0  0  0  0
 30 31  1  0  0  0  0
 30 32  1  0  0  0  0
 30 33  1  0  0  0  0
 28 29  1  0  0  0  0
 28 30  1  0  0  0  0
M  END
$$$$
default_name
  -OEChem-01062215323D

 33 33  0     1  0  0  0  0  0999 V2000
   -4.0702   -3.8485    1.4554 H   0  0  0  0  0  0  0  0  0  0  0  0
   -4.0012   -2.9605    0.8284 C   0  0  0  0  0  0  0  0  0  0  0  0
   -4.7652   -2.2435    1.1234 H   0  0  0  0  0  0  0  0  0  0  0  0
   -4.1352   -3.2385   -0.2156 H   0  0  0  0  0  0  0  0  0  0  0  0
   -2.6362   -2.3395    1.0094 C   0  0  0  0  0  0  0  0  0  0  0  0
   -1.8292   -2.8395    1.7814 O   0  0  0  0  0  0  0  0  0  0  0  0
   -2.3832   -1.2445    0.2964 N   0  0  0  0  0  0  0  0  0  0  0  0
   -3.1102   -0.8685   -0.2946 H   0  0  0  0  0  0  0  0  0  0  0  0
   -1.1292   -0.4875    0.3524 C   0  0  1  0  0  0  0  0  0  0  0  0
   -0.3553   -1.0601   -0.1599 H   0  0  0  0  0  0  0  0  0  0  0  0
   -1.3076    0.8514   -0.3841 C   0  0  0  0  0  0  0  0  0  0  0  0
   -2.1738    1.3702    0.0284 H   0  0  0  0  0  0  0  0  0  0  0  0
   -0.4328    1.4766   -0.1976 H   0  0  0  0  0  0  0  0  0  0  0  0
   -1.5128    0.7085   -1.8799 C   0  0  0  0  0  0  0  0  0  0  0  0
   -0.4085    0.5174   -2.7344 C   0  0  0  0  0  0  0  0  0  0  0  0
    0.5940    0.4983   -2.3273 H   0  0  0  0  0  0  0  0  0  0  0  0
   -0.6076    0.3447   -4.1180 C   0  0  0  0  0  0  0  0  0  0  0  0
    0.2404    0.2002   -4.7696 H   0  0  0  0  0  0  0  0  0  0  0  0
   -1.9163    0.3595   -4.6479 C   0  0  0  0  0  0  0  0  0  0  0  0
   -2.1190    0.1909   -5.9804 O   0  0  0  0  0  0  0  0  0  0  0  0
   -1.2960    0.1626   -6.4702 H   0  0  0  0  0  0  0  0  0  0  0  0
   -3.0205    0.5459   -3.7907 C   0  0  0  0  0  0  0  0  0  0  0  0
   -4.0159    0.5596   -4.2084 H   0  0  0  0  0  0  0  0  0  0  0  0
   -2.8179    0.7228   -2.4088 C   0  0  0  0  0  0  0  0  0  0  0  0
   -3.6661    0.8753   -1.7521 H   0  0  0  0  0  0  0  0  0  0  0  0
   -0.6745   -0.2825    1.8071 C   0  0  0  0  0  0  0  0  0  0  0  0
   -1.4842    0.0679    2.6660 O   0  0  0  0  0  0  0  0  0  0  0  0
    0.6179   -0.4970    2.0837 N   0  0  0  0  0  0  0  0  0  0  0  0
    1.2284   -0.7249    1.3124 H   0  0  0  0  0  0  0  0  0  0  0  0
    1.2134   -0.3464    3.4094 C   0  0  0  0  0  0  0  0  0  0  0  0
    0.6252   -0.8981    4.1448 H   0  0  0  0  0  0  0  0  0  0  0  0
    2.2359   -0.7277    3.4077 H   0  0  0  0  0  0  0  0  0  0  0  0
    1.2226    0.7088    3.6902 H   0  0  0  0  0  0  0  0  0  0  0  0
  5  6  2  0  0  0  0
  5  7  1  0  0  0  0
  2  3  1  0  0  0  0
  2  4  1  0  0  0  0
  2  5  1  0  0  0  0
  1  2  1  0  0  0  0
 26 27  2  0  0  0  0
 26 28  1  0  0  0  0
 24 25  1  0  0  0  0
 22 23  1  0  0  0  0
 22 24  2  0  0  0  0
 20 21  1  0  0  0  0
 19 20  1  0  0  0  0
 19 22  1  0  0  0  0
 17 18  1  0  0  0  0
 17 19  2  0  0  0  0
 15 16  1  0  0  0  0
 15 17  1  0  0  0  0
 14 15  2  0  0  0  0
 14 24  1  0  0  0  0
 11 12  1  0  0  0  0
 11 13  1  0  0  0  0
 11 14  1  0  0  0  0
  9 10  1  0  0  0  0
  9 11  1  0  0  0  0
  9 26  1  0  0  0  0
  7  8  1  0  0  0  0
  7  9  1  0  0  0  0
 30 31  1  0  0  0  0
 30 32  1  0  0  0  0
 30 33  1  0  0  0  0
 28 29  1  0  0  0  0
 28 30  1  0  0  0  0
M  END
$$$$
default_name
  -OEChem-01062215323D

 33 33  0     1  0  0  0  0  0999 V2000
   -4.0702   -3.8485    1.4554 H   0  0  0  0  0  0  0  0  0  0  0  0
   -4.0012   -2.9605    0.8284 C   0  0  0  0  0  0  0  0  0  0  0  0
   -4.7652   -2.2435    1.1234 H   0  0  0  0  0  0  0  0  0  0  0  0
   -4.1352   -3.2385   -0.2156 H   0  0  0  0  0  0  0  0  0  0  0  0
   -2.6362   -2.3395    1.0094 C   0  0  0  0  0  0  0  0  0  0  0  0
   -1.8292   -2.8395    1.7814 O   0  0  0  0  0  0  0  0  0  0  0  0
   -2.3832   -1.2445    0.2964 N   0  0  0  0  0  0  0  0  0  0  0  0
   -3.1102   -0.8685   -0.2946 H   0  0  0  0  0  0  0  0  0  0  0  0
   -1.1292   -0.4875    0.3524 C   0  0  1  0  0  0  0  0  0  0  0  0
   -0.3553   -1.0601   -0.1599 H   0  0  0  0  0  0  0  0  0  0  0  0
   -1.3076    0.8514   -0.3841 C   0  0  0  0  0  0  0  0  0  0  0  0
   -2.1738    1.3702    0.0284 H   0  0  0  0  0  0  0  0  0  0  0  0
   -0.4328    1.4766   -0.1976 H   0  0  0  0  0  0  0  0  0  0  0  0
   -1.5128    0.7085   -1.8799 C   0  0  0  0  0  0  0  0  0  0  0  0
   -0.4085    0.5174   -2.7344 C   0  0  0  0  0  0  0  0  0  0  0  0
    0.5940    0.4983   -2.3273 H   0  0  0  0  0  0  0  0  0  0  0  0
   -0.6076    0.3447   -4.1180 C   0  0  0  0  0  0  0  0  0  0  0  0
    0.2404    0.2002   -4.7696 H   0  0  0  0  0  0  0  0  0  0  0  0
   -1.9163    0.3595   -4.6479 C   0  0  0  0  0  0  0  0  0  0  0  0
   -2.1190    0.1909   -5.9804 O   0  0  0  0  0  0  0  0  0  0  0  0
   -1.2960    0.1626   -6.4702 H   0  0  0  0  0  0  0  0  0  0  0  0
   -3.0205    0.5459   -3.7907 C   0  0  0  0  0  0  0  0  0  0  0  0
   -4.0159    0.5596   -4.2084 H   0  0  0  0  0  0  0  0  0  0  0  0
   -2.8179    0.7228   -2.4088 C   0  0  0  0  0  0  0  0  0  0  0  0
   -3.6661    0.8753   -1.7521 H   0  0  0  0  0  0  0  0  0  0  0  0
   -0.6745   -0.2825    1.8071 C   0  0  0  0  0  0  0  0  0  0  0  0
   -1.5066   -0.2051    2.7114 O   0  0  0  0  0  0  0  0  0  0  0  0
    0.6421   -0.1917    2.0331 N   0  0  0  0  0  0  0  0  0  0  0  0
    1.2552   -0.2059    1.2310 H   0  0  0  0  0  0  0  0  0  0  0  0
    1.2408    0.0047    3.3514 C   0  0  0  0  0  0  0  0  0  0  0  0
    0.8376   -0.7264    4.0542 H   0  0  0  0  0  0  0  0  0  0  0  0
    2.3242   -0.1120    3.2934 H   0  0  0  0  0  0  0  0  0  0  0  0
    1.0051    1.0066    3.7163 H   0  0  0  0  0  0  0  0  0  0  0  0
  5  6  2  0  0  0  0
  5  7  1  0  0  0  0
  2  3  1  0  0  0  0
  2  4  1  0  0  0  0
  2  5  1  0  0  0  0
  1  2  1  0  0  0  0
 26 27  2  0  0  0  0
 26 28  1  0  0  0  0
 24 25  1  0  0  0  0
 22 23  1  0  0  0  0
 22 24  2  0  0  0  0
 20 21  1  0  0  0  0
 19 20  1  0  0  0  0
 19 22  1  0  0  0  0
 17 18  1  0  0  0  0
 17 19  2  0  0  0  0
 15 16  1  0  0  0  0
 15 17  1  0  0  0  0
 14 15  2  0  0  0  0
 14 24  1  0  0  0  0
 11 12  1  0  0  0  0
 11 13  1  0  0  0  0
 11 14  1  0  0  0  0
  9 10  1  0  0  0  0
  9 11  1  0  0  0  0
  9 26  1  0  0  0  0
  7  8  1  0  0  0  0
  7  9  1  0  0  0  0
 30 31  1  0  0  0  0
 30 32  1  0  0  0  0
 30 33  1  0  0  0  0
 28 29  1  0  0  0  0
 28 30  1  0  0  0  0
M  END
$$$$
default_name
  -OEChem-01062215323D

 33 33  0     1  0  0  0  0  0999 V2000
   -4.0702   -3.8485    1.4554 H   0  0  0  0  0  0  0  0  0  0  0  0
   -4.0012   -2.9605    0.8284 C   0  0  0  0  0  0  0  0  0  0  0  0
   -4.7652   -2.2435    1.1234 H   0  0  0  0  0  0  0  0  0  0  0  0
   -4.1352   -3.2385   -0.2156 H   0  0  0  0  0  0  0  0  0  0  0  0
   -2.6362   -2.3395    1.0094 C   0  0  0  0  0  0  0  0  0  0  0  0
   -1.8292   -2.8395    1.7814 O   0  0  0  0  0  0  0  0  0  0  0  0
   -2.3832   -1.2445    0.2964 N   0  0  0  0  0  0  0  0  0  0  0  0
   -3.1102   -0.8685   -0.2946 H   0  0  0  0  0  0  0  0  0  0  0  0
   -1.1292   -0.4875    0.3524 C   0  0  1  0  0  0  0  0  0  0  0  0
   -0.3553   -1.0601   -0.1599 H   0  0  0  0  0  0  0  0  0  0  0  0
   -1.3076    0.8514   -0.3841 C   0  0  0  0  0  0  0  0  0  0  0  0
   -2.1738    1.3702    0.0284 H   0  0  0  0  0  0  0  0  0  0  0  0
   -0.4328    1.4766   -0.1976 H   0  0  0  0  0  0  0  0  0  0  0  0
   -1.5128    0.7085   -1.8799 C   0  0  0  0  0  0  0  0  0  0  0  0
   -0.4085    0.5174   -2.7344 C   0  0  0  0  0  0  0  0  0  0  0  0
    0.5940    0.4983   -2.3273 H   0  0  0  0  0  0  0  0  0  0  0  0
   -0.6076    0.3447   -4.1180 C   0  0  0  0  0  0  0  0  0  0  0  0
    0.2404    0.2002   -4.7696 H   0  0  0  0  0  0  0  0  0  0  0  0
   -1.9163    0.3595   -4.6479 C   0  0  0  0  0  0  0  0  0  0  0  0
   -2.1190    0.1909   -5.9804 O   0  0  0  0  0  0  0  0  0  0  0  0
   -1.2960    0.1626   -6.4702 H   0  0  0  0  0  0  0  0  0  0  0  0
   -3.0205    0.5459   -3.7907 C   0  0  0  0  0  0  0  0  0  0  0  0
   -4.0159    0.5596   -4.2084 H   0  0  0  0  0  0  0  0  0  0  0  0
   -2.8179    0.7228   -2.4088 C   0  0  0  0  0  0  0  0  0  0  0  0
   -3.6661    0.8753   -1.7521 H   0  0  0  0  0  0  0  0  0  0  0  0
   -0.6745   -0.2825    1.8071 C   0  0  0  0  0  0  0  0  0  0  0  0
   -1.4597   -0.4779    2.7352 O   0  0  0  0  0  0  0  0  0  0  0  0
    0.5890    0.1131    2.0068 N   0  0  0  0  0  0  0  0  0  0  0  0
    1.1512    0.3081    1.1910 H   0  0  0  0  0  0  0  0  0  0  0  0
    1.1793    0.3551    3.3213 C   0  0  0  0  0  0  0  0  0  0  0  0
    0.9975   -0.5016    3.9725 H   0  0  0  0  0  0  0  0  0  0  0  0
    2.2549    0.5132    3.2270 H   0  0  0  0  0  0  0  0  0  0  0  0
    0.7230    1.2390    3.7717 H   0  0  0  0  0  0  0  0  0  0  0  0
  5  6  2  0  0  0  0
  5  7  1  0  0  0  0
  2  3  1  0  0  0  0
  2  4  1  0  0  0  0
  2  5  1  0  0  0  0
  1  2  1  0  0  0  0
 26 27  2  0  0  0  0
 26 28  1  0  0  0  0
 24 25  1  0  0  0  0
 22 23  1  0  0  0  0
 22 24  2  0  0  0  0
 20 21  1  0  0  0  0
 19 20  1  0  0  0  0
 19 22  1  0  0  0  0
 17 18  1  0  0  0  0
 17 19  2  0  0  0  0
 15 16  1  0  0  0  0
 15 17  1  0  0  0  0
 14 15  2  0  0  0  0
 14 24  1  0  0  0  0
 11 12  1  0  0  0  0
 11 13  1  0  0  0  0
 11 14  1  0  0  0  0
  9 10  1  0  0  0  0
  9 11  1  0  0  0  0
  9 26  1  0  0  0  0
  7  8  1  0  0  0  0
  7  9  1  0  0  0  0
 30 31  1  0  0  0  0
 30 32  1  0  0  0  0
 30 33  1  0  0  0  0
 28 29  1  0  0  0  0
 28 30  1  0  0  0  0
M  END
$$$$
default_name
  -OEChem-01062215323D

 33 33  0     1  0  0  0  0  0999 V2000
   -4.0702   -3.8485    1.4554 H   0  0  0  0  0  0  0  0  0  0  0  0
   -4.0012   -2.9605    0.8284 C   0  0  0  0  0  0  0  0  0  0  0  0
   -4.7652   -2.2435    1.1234 H   0  0  0  0  0  0  0  0  0  0  0  0
   -4.1352   -3.2385   -0.2156 H   0  0  0  0  0  0  0  0  0  0  0  0
   -2.6362   -2.3395    1.0094 C   0  0  0  0  0  0  0  0  0  0  0  0
   -1.8292   -2.8395    1.7814 O   0  0  0  0  0  0  0  0  0  0  0  0
   -2.3832   -1.2445    0.2964 N   0  0  0  0  0  0  0  0  0  0  0  0
   -3.1102   -0.8685   -0.2946 H   0  0  0  0  0  0  0  0  0  0  0  0
   -1.1292   -0.4875    0.3524 C   0  0  1  0  0  0  0  0  0  0  0  0
   -0.4343   -0.9134   -0.3723 H   0  0  0  0  0  0  0  0  0  0  0  0
   -1.3983    0.9761   -0.0381 C   0  0  0  0  0  0  0  0  0  0  0  0
   -2.1984    1.3692    0.5905 H   0  0  0  0  0  0  0  0  0  0  0  0
   -0.5032    1.5663    0.1650 H   0  0  0  0  0  0  0  0  0  0  0  0
   -1.8040    1.1618   -1.4875 C   0  0  0  0  0  0  0  0  0  0  0  0
   -0.8259    1.1917   -2.5017 C   0  0  0  0  0  0  0  0  0  0  0  0
    0.2222    1.1081   -2.2457 H   0  0  0  0  0  0  0  0  0  0  0  0
   -1.2106    1.3237   -3.8502 C   0  0  0  0  0  0  0  0  0  0  0  0
   -0.4589    1.3478   -4.6242 H   0  0  0  0  0  0  0  0  0  0  0  0
   -2.5786    1.4225   -4.1854 C   0  0  0  0  0  0  0  0  0  0  0  0
   -2.9600    1.5472   -5.4831 O   0  0  0  0  0  0  0  0  0  0  0  0
   -2.2107    1.6483   -6.0716 H   0  0  0  0  0  0  0  0  0  0  0  0
   -3.5563    1.3875   -3.1696 C   0  0  0  0  0  0  0  0  0  0  0  0
   -4.5988    1.4683   -3.4381 H   0  0  0  0  0  0  0  0  0  0  0  0
   -3.1683    1.2600   -1.8223 C   0  0  0  0  0  0  0  0  0  0  0  0
   -3.9195    1.2425   -1.0416 H   0  0  0  0  0  0  0  0  0  0  0  0
   -0.4816   -0.5974    1.7428 C   0  0  0  0  0  0  0  0  0  0  0  0
   -1.0250   -1.2571    2.6292 O   0  0  0  0  0  0  0  0  0  0  0  0
    0.6752    0.0489    1.9356 N   0  0  0  0  0  0  0  0  0  0  0  0
    1.0249    0.6157    1.1767 H   0  0  0  0  0  0  0  0  0  0  0  0
    1.4194    0.0501    3.1929 C   0  0  0  0  0  0  0  0  0  0  0  0
    1.5540   -0.9741    3.5449 H   0  0  0  0  0  0  0  0  0  0  0  0
    2.3974    0.5127    3.0504 H   0  0  0  0  0  0  0  0  0  0  0  0
    0.8631    0.6086    3.9485 H   0  0  0  0  0  0  0  0  0  0  0  0
  5  6  2  0  0  0  0
  5  7  1  0  0  0  0
  2  3  1  0  0  0  0
  2  4  1  0  0  0  0
  2  5  1  0  0  0  0
  1  2  1  0  0  0  0
 26 27  2  0  0  0  0
 26 28  1  0  0  0  0
 24 25  1  0  0  0  0
 22 23  1  0  0  0  0
 22 24  2  0  0  0  0
 20 21  1  0  0  0  0
 19 20  1  0  0  0  0
 19 22  1  0  0  0  0
 17 18  1  0  0  0  0
 17 19  2  0  0  0  0
 15 16  1  0  0  0  0
 15 17  1  0  0  0  0
 14 15  2  0  0  0  0
 14 24  1  0  0  0  0
 11 12  1  0  0  0  0
 11 13  1  0  0  0  0
 11 14  1  0  0  0  0
  9 10  1  0  0  0  0
  9 11  1  0  0  0  0
  9 26  1  0  0  0  0
  7  8  1  0  0  0  0
  7  9  1  0  0  0  0
 30 31  1  0  0  0  0
 30 32  1  0  0  0  0
 30 33  1  0  0  0  0
 28 29  1  0  0  0  0
 28 30  1  0  0  0  0
M  END
$$$$
default_name
  -OEChem-01062215323D

 33 33  0     1  0  0  0  0  0999 V2000
   -4.0702   -3.8485    1.4554 H   0  0  0  0  0  0  0  0  0  0  0  0
   -4.0012   -2.9605    0.8284 C   0  0  0  0  0  0  0  0  0  0  0  0
   -4.7652   -2.2435    1.1234 H   0  0  0  0  0  0  0  0  0  0  0  0
   -4.1352   -3.2385   -0.2156 H   0  0  0  0  0  0  0  0  0  0  0  0
   -2.6362   -2.3395    1.0094 C   0  0  0  0  0  0  0  0  0  0  0  0
   -1.8292   -2.8395    1.7814 O   0  0  0  0  0  0  0  0  0  0  0  0
   -2.3832   -1.2445    0.2964 N   0  0  0  0  0  0  0  0  0  0  0  0
   -3.1102   -0.8685   -0.2946 H   0  0  0  0  0  0  0  0  0  0  0  0
   -1.1292   -0.4875    0.3524 C   0  0  1  0  0  0  0  0  0  0  0  0
   -0.4343   -0.9134   -0.3723 H   0  0  0  0  0  0  0  0  0  0  0  0
   -1.3983    0.9761   -0.0381 C   0  0  0  0  0  0  0  0  0  0  0  0
   -2.1984    1.3692    0.5905 H   0  0  0  0  0  0  0  0  0  0  0  0
   -0.5032    1.5663    0.1650 H   0  0  0  0  0  0  0  0  0  0  0  0
   -1.8040    1.1618   -1.4875 C   0  0  0  0  0  0  0  0  0  0  0  0
   -0.8259    1.1917   -2.5017 C   0  0  0  0  0  0  0  0  0  0  0  0
    0.2222    1.1081   -2.2457 H   0  0  0  0  0  0  0  0  0  0  0  0
   -1.2106    1.3237   -3.8502 C   0  0  0  0  0  0  0  0  0  0  0  0
   -0.4589    1.3478   -4.6242 H   0  0  0  0  0  0  0  0  0  0  0  0
   -2.5786    1.4225   -4.1854 C   0  0  0  0  0  0  0  0  0  0  0  0
   -2.9600    1.5472   -5.4831 O   0  0  0  0  0  0  0  0  0  0  0  0
   -2.2107    1.6483   -6.0716 H   0  0  0  0  0  0  0  0  0  0  0  0
   -3.5563    1.3875   -3.1696 C   0  0  0  0  0  0  0  0  0  0  0  0
   -4.5988    1.4683   -3.4381 H   0  0  0  0  0  0  0  0  0  0  0  0
   -3.1683    1.2600   -1.8223 C   0  0  0  0  0  0  0  0  0  0  0  0
   -3.9195    1.2425   -1.0416 H   0  0  0  0  0  0  0  0  0  0  0  0
   -0.4816   -0.5974    1.7428 C   0  0  0  0  0  0  0  0  0  0  0  0
   -0.8596   -1.4599    2.5361 O   0  0  0  0  0  0  0  0  0  0  0  0
    0.4898    0.2751    2.0399 N   0  0  0  0  0  0  0  0  0  0  0  0
    0.7006    0.9885    1.3572 H   0  0  0  0  0  0  0  0  0  0  0  0
    1.2059    0.3098    3.3129 C   0  0  0  0  0  0  0  0  0  0  0  0
    1.5756   -0.6875    3.5575 H   0  0  0  0  0  0  0  0  0  0  0  0
    2.0486    1.0004    3.2514 H   0  0  0  0  0  0  0  0  0  0  0  0
    0.5297    0.6357    4.1060 H   0  0  0  0  0  0  0  0  0  0  0  0
  5  6  2  0  0  0  0
  5  7  1  0  0  0  0
  2  3  1  0  0  0  0
  2  4  1  0  0  0  0
  2  5  1  0  0  0  0
  1  2  1  0  0  0  0
 26 27  2  0  0  0  0
 26 28  1  0  0  0  0
 24 25  1  0  0  0  0
 22 23  1  0  0  0  0
 22 24  2  0  0  0  0
 20 21  1  0  0  0  0
 19 20  1  0  0  0  0
 19 22  1  0  0  0  0
 17 18  1  0  0  0  0
 17 19  2  0  0  0  0
 15 16  1  0  0  0  0
 15 17  1  0  0  0  0
 14 15  2  0  0  0  0
 14 24  1  0  0  0  0
 11 12  1  0  0  0  0
 11 13  1  0  0  0  0
 11 14  1  0  0  0  0
  9 10  1  0  0  0  0
  9 11  1  0  0  0  0
  9 26  1  0  0  0  0
  7  8  1  0  0  0  0
  7  9  1  0  0  0  0
 30 31  1  0  0  0  0
 30 32  1  0  0  0  0
 30 33  1  0  0  0  0
 28 29  1  0  0  0  0
 28 30  1  0  0  0  0
M  END
$$$$
default_name
  -OEChem-01062215323D

 33 33  0     1  0  0  0  0  0999 V2000
   -4.0702   -3.8485    1.4554 H   0  0  0  0  0  0  0  0  0  0  0  0
   -4.0012   -2.9605    0.8284 C   0  0  0  0  0  0  0  0  0  0  0  0
   -4.7652   -2.2435    1.1234 H   0  0  0  0  0  0  0  0  0  0  0  0
   -4.1352   -3.2385   -0.2156 H   0  0  0  0  0  0  0  0  0  0  0  0
   -2.6362   -2.3395    1.0094 C   0  0  0  0  0  0  0  0  0  0  0  0
   -1.8292   -2.8395    1.7814 O   0  0  0  0  0  0  0  0  0  0  0  0
   -2.3832   -1.2445    0.2964 N   0  0  0  0  0  0  0  0  0  0  0  0
   -3.1102   -0.8685   -0.2946 H   0  0  0  0  0  0  0  0  0  0  0  0
   -1.1292   -0.4875    0.3524 C   0  0  1  0  0  0  0  0  0  0  0  0
   -0.4343   -0.9134   -0.3723 H   0  0  0  0  0  0  0  0  0  0  0  0
   -1.3983    0.9761   -0.0381 C   0  0  0  0  0  0  0  0  0  0  0  0
   -2.1984    1.3692    0.5905 H   0  0  0  0  0  0  0  0  0  0  0  0
   -0.5032    1.5663    0.1650 H   0  0  0  0  0  0  0  0  0  0  0  0
   -1.8040    1.1618   -1.4875 C   0  0  0  0  0  0  0  0  0  0  0  0
   -0.8259    1.1917   -2.5017 C   0  0  0  0  0  0  0  0  0  0  0  0
    0.2222    1.1081   -2.2457 H   0  0  0  0  0  0  0  0  0  0  0  0
   -1.2106    1.3237   -3.8502 C   0  0  0  0  0  0  0  0  0  0  0  0
   -0.4589    1.3478   -4.6242 H   0  0  0  0  0  0  0  0  0  0  0  0
   -2.5786    1.4225   -4.1854 C   0  0  0  0  0  0  0  0  0  0  0  0
   -2.9600    1.5472   -5.4831 O   0  0  0  0  0  0  0  0  0  0  0  0
   -2.2107    1.6483   -6.0716 H   0  0  0  0  0  0  0  0  0  0  0  0
   -3.5563    1.3875   -3.1696 C   0  0  0  0  0  0  0  0  0  0  0  0
   -4.5988    1.4683   -3.4381 H   0  0  0  0  0  0  0  0  0  0  0  0
   -3.1683    1.2600   -1.8223 C   0  0  0  0  0  0  0  0  0  0  0  0
   -3.9195    1.2425   -1.0416 H   0  0  0  0  0  0  0  0  0  0  0  0
   -0.4816   -0.5974    1.7428 C   0  0  0  0  0  0  0  0  0  0  0  0
   -0.6506   -1.6070    2.4272 O   0  0  0  0  0  0  0  0  0  0  0  0
    0.2558    0.4388    2.1618 N   0  0  0  0  0  0  0  0  0  0  0  0
    0.2969    1.2531    1.5662 H   0  0  0  0  0  0  0  0  0  0  0  0
    0.9367    0.4976    3.4532 C   0  0  0  0  0  0  0  0  0  0  0  0
    1.5290   -0.4070    3.6014 H   0  0  0  0  0  0  0  0  0  0  0  0
    1.5937    1.3680    3.4924 H   0  0  0  0  0  0  0  0  0  0  0  0
    0.1985    0.5668    4.2548 H   0  0  0  0  0  0  0  0  0  0  0  0
  5  6  2  0  0  0  0
  5  7  1  0  0  0  0
  2  3  1  0  0  0  0
  2  4  1  0  0  0  0
  2  5  1  0  0  0  0
  1  2  1  0  0  0  0
 26 27  2  0  0  0  0
 26 28  1  0  0  0  0
 24 25  1  0  0  0  0
 22 23  1  0  0  0  0
 22 24  2  0  0  0  0
 20 21  1  0  0  0  0
 19 20  1  0  0  0  0
 19 22  1  0  0  0  0
 17 18  1  0  0  0  0
 17 19  2  0  0  0  0
 15 16  1  0  0  0  0
 15 17  1  0  0  0  0
 14 15  2  0  0  0  0
 14 24  1  0  0  0  0
 11 12  1  0  0  0  0
 11 13  1  0  0  0  0
 11 14  1  0  0  0  0
  9 10  1  0  0  0  0
  9 11  1  0  0  0  0
  9 26  1  0  0  0  0
  7  8  1  0  0  0  0
  7  9  1  0  0  0  0
 30 31  1  0  0  0  0
 30 32  1  0  0  0  0
 30 33  1  0  0  0  0
 28 29  1  0  0  0  0
 28 30  1  0  0  0  0
M  END
$$$$
default_name
  -OEChem-01062215323D

 33 33  0     1  0  0  0  0  0999 V2000
   -4.0702   -3.8485    1.4554 H   0  0  0  0  0  0  0  0  0  0  0  0
   -4.0012   -2.9605    0.8284 C   0  0  0  0  0  0  0  0  0  0  0  0
   -4.7652   -2.2435    1.1234 H   0  0  0  0  0  0  0  0  0  0  0  0
   -4.1352   -3.2385   -0.2156 H   0  0  0  0  0  0  0  0  0  0  0  0
   -2.6362   -2.3395    1.0094 C   0  0  0  0  0  0  0  0  0  0  0  0
   -1.8292   -2.8395    1.7814 O   0  0  0  0  0  0  0  0  0  0  0  0
   -2.3832   -1.2445    0.2964 N   0  0  0  0  0  0  0  0  0  0  0  0
   -3.1102   -0.8685   -0.2946 H   0  0  0  0  0  0  0  0  0  0  0  0
   -1.1292   -0.4875    0.3524 C   0  0  1  0  0  0  0  0  0  0  0  0
   -0.4343   -0.9134   -0.3723 H   0  0  0  0  0  0  0  0  0  0  0  0
   -1.3983    0.9761   -0.0381 C   0  0  0  0  0  0  0  0  0  0  0  0
   -2.1984    1.3692    0.5905 H   0  0  0  0  0  0  0  0  0  0  0  0
   -0.5032    1.5663    0.1650 H   0  0  0  0  0  0  0  0  0  0  0  0
   -1.8040    1.1618   -1.4875 C   0  0  0  0  0  0  0  0  0  0  0  0
   -0.8259    1.1917   -2.5017 C   0  0  0  0  0  0  0  0  0  0  0  0
    0.2222    1.1081   -2.2457 H   0  0  0  0  0  0  0  0  0  0  0  0
   -1.2106    1.3237   -3.8502 C   0  0  0  0  0  0  0  0  0  0  0  0
   -0.4589    1.3478   -4.6242 H   0  0  0  0  0  0  0  0  0  0  0  0
   -2.5786    1.4225   -4.1854 C   0  0  0  0  0  0  0  0  0  0  0  0
   -2.9600    1.5472   -5.4831 O   0  0  0  0  0  0  0  0  0  0  0  0
   -2.2107    1.6483   -6.0716 H   0  0  0  0  0  0  0  0  0  0  0  0
   -3.5563    1.3875   -3.1696 C   0  0  0  0  0  0  0  0  0  0  0  0
   -4.5988    1.4683   -3.4381 H   0  0  0  0  0  0  0  0  0  0  0  0
   -3.1683    1.2600   -1.8223 C   0  0  0  0  0  0  0  0  0  0  0  0
   -3.9195    1.2425   -1.0416 H   0  0  0  0  0  0  0  0  0  0  0  0
   -0.4816   -0.5974    1.7428 C   0  0  0  0  0  0  0  0  0  0  0  0
   -0.4124   -1.6882    2.3098 O   0  0  0  0  0  0  0  0  0  0  0  0
   -0.0107    0.5289    2.2931 N   0  0  0  0  0  0  0  0  0  0  0  0
   -0.1589    1.3914    1.7894 H   0  0  0  0  0  0  0  0  0  0  0  0
    0.6301    0.6007    3.6042 C   0  0  0  0  0  0  0  0  0  0  0  0
    1.4176   -0.1517    3.6735 H   0  0  0  0  0  0  0  0  0  0  0  0
    1.0639    1.5903    3.7567 H   0  0  0  0  0  0  0  0  0  0  0  0
   -0.1081    0.4064    4.3849 H   0  0  0  0  0  0  0  0  0  0  0  0
  5  6  2  0  0  0  0
  5  7  1  0  0  0  0
  2  3  1  0  0  0  0
  2  4  1  0  0  0  0
  2  5  1  0  0  0  0
  1  2  1  0  0  0  0
 26 27  2  0  0  0  0
 26 28  1  0  0  0  0
 24 25  1  0  0  0  0
 22 23  1  0  0  0  0
 22 24  2  0  0  0  0
 20 21  1  0  0  0  0
 19 20  1  0  0  0  0
 19 22  1  0  0  0  0
 17 18  1  0  0  0  0
 17 19  2  0  0  0  0
 15 16  1  0  0  0  0
 15 17  1  0  0  0  0
 14 15  2  0  0  0  0
 14 24  1  0  0  0  0
 11 12  1  0  0  0  0
 11 13  1  0  0  0  0
 11 14  1  0  0  0  0
  9 10  1  0  0  0  0
  9 11  1  0  0  0  0
  9 26  1  0  0  0  0
  7  8  1  0  0  0  0
  7  9  1  0  0  0  0
 30 31  1  0  0  0  0
 30 32  1  0  0  0  0
 30 33  1  0  0  0  0
 28 29  1  0  0  0  0
 28 30  1  0  0  0  0
M  END
$$$$
default_name
  -OEChem-01062215323D

 33 33  0     1  0  0  0  0  0999 V2000
   -4.0702   -3.8485    1.4554 H   0  0  0  0  0  0  0  0  0  0  0  0
   -4.0012   -2.9605    0.8284 C   0  0  0  0  0  0  0  0  0  0  0  0
   -4.7652   -2.2435    1.1234 H   0  0  0  0  0  0  0  0  0  0  0  0
   -4.1352   -3.2385   -0.2156 H   0  0  0  0  0  0  0  0  0  0  0  0
   -2.6362   -2.3395    1.0094 C   0  0  0  0  0  0  0  0  0  0  0  0
   -1.8292   -2.8395    1.7814 O   0  0  0  0  0  0  0  0  0  0  0  0
   -2.3832   -1.2445    0.2964 N   0  0  0  0  0  0  0  0  0  0  0  0
   -3.1102   -0.8685   -0.2946 H   0  0  0  0  0  0  0  0  0  0  0  0
   -1.1292   -0.4875    0.3524 C   0  0  1  0  0  0  0  0  0  0  0  0
   -0.4343   -0.9134   -0.3723 H   0  0  0  0  0  0  0  0  0  0  0  0
   -1.3983    0.9761   -0.0381 C   0  0  0  0  0  0  0  0  0  0  0  0
   -2.1984    1.3692    0.5905 H   0  0  0  0  0  0  0  0  0  0  0  0
   -0.5032    1.5663    0.1650 H   0  0  0  0  0  0  0  0  0  0  0  0
   -1.8040    1.1618   -1.4875 C   0  0  0  0  0  0  0  0  0  0  0  0
   -0.8259    1.1917   -2.5017 C   0  0  0  0  0  0  0  0  0  0  0  0
    0.2222    1.1081   -2.2457 H   0  0  0  0  0  0  0  0  0  0  0  0
   -1.2106    1.3237   -3.8502 C   0  0  0  0  0  0  0  0  0  0  0  0
   -0.4589    1.3478   -4.6242 H   0  0  0  0  0  0  0  0  0  0  0  0
   -2.5786    1.4225   -4.1854 C   0  0  0  0  0  0  0  0  0  0  0  0
   -2.9600    1.5472   -5.4831 O   0  0  0  0  0  0  0  0  0  0  0  0
   -2.2107    1.6483   -6.0716 H   0  0  0  0  0  0  0  0  0  0  0  0
   -3.5563    1.3875   -3.1696 C   0  0  0  0  0  0  0  0  0  0  0  0
   -4.5988    1.4683   -3.4381 H   0  0  0  0  0  0  0  0  0  0  0  0
   -3.1683    1.2600   -1.8223 C   0  0  0  0  0  0  0  0  0  0  0  0
   -3.9195    1.2425   -1.0416 H   0  0  0  0  0  0  0  0  0  0  0  0
   -0.4816   -0.5974    1.7428 C   0  0  0  0  0  0  0  0  0  0  0  0
   -0.1611   -1.6982    2.1919 O   0  0  0  0  0  0  0  0  0  0  0  0
   -0.2917    0.5392    2.4248 N   0  0  0  0  0  0  0  0  0  0  0  0
   -0.6356    1.3939    2.0117 H   0  0  0  0  0  0  0  0  0  0  0  0
    0.3070    0.6121    3.7555 C   0  0  0  0  0  0  0  0  0  0  0  0
    1.2489    0.0610    3.7689 H   0  0  0  0  0  0  0  0  0  0  0  0
    0.4953    1.6523    4.0265 H   0  0  0  0  0  0  0  0  0  0  0  0
   -0.3691    0.1655    4.4875 H   0  0  0  0  0  0  0  0  0  0  0  0
  5  6  2  0  0  0  0
  5  7  1  0  0  0  0
  2  3  1  0  0  0  0
  2  4  1  0  0  0  0
  2  5  1  0  0  0  0
  1  2  1  0  0  0  0
 26 27  2  0  0  0  0
 26 28  1  0  0  0  0
 24 25  1  0  0  0  0
 22 23  1  0  0  0  0
 22 24  2  0  0  0  0
 20 21  1  0  0  0  0
 19 20  1  0  0  0  0
 19 22  1  0  0  0  0
 17 18  1  0  0  0  0
 17 19  2  0  0  0  0
 15 16  1  0  0  0  0
 15 17  1  0  0  0  0
 14 15  2  0  0  0  0
 14 24  1  0  0  0  0
 11 12  1  0  0  0  0
 11 13  1  0  0  0  0
 11 14  1  0  0  0  0
  9 10  1  0  0  0  0
  9 11  1  0  0  0  0
  9 26  1  0  0  0  0
  7  8  1  0  0  0  0
  7  9  1  0  0  0  0
 30 31  1  0  0  0  0
 30 32  1  0  0  0  0
 30 33  1  0  0  0  0
 28 29  1  0  0  0  0
 28 30  1  0  0  0  0
M  END
$$$$
default_name
  -OEChem-01062215323D

 33 33  0     1  0  0  0  0  0999 V2000
   -4.0702   -3.8485    1.4554 H   0  0  0  0  0  0  0  0  0  0  0  0
   -4.0012   -2.9605    0.8284 C   0  0  0  0  0  0  0  0  0  0  0  0
   -4.7652   -2.2435    1.1234 H   0  0  0  0  0  0  0  0  0  0  0  0
   -4.1352   -3.2385   -0.2156 H   0  0  0  0  0  0  0  0  0  0  0  0
   -2.6362   -2.3395    1.0094 C   0  0  0  0  0  0  0  0  0  0  0  0
   -1.8292   -2.8395    1.7814 O   0  0  0  0  0  0  0  0  0  0  0  0
   -2.3832   -1.2445    0.2964 N   0  0  0  0  0  0  0  0  0  0  0  0
   -3.1102   -0.8685   -0.2946 H   0  0  0  0  0  0  0  0  0  0  0  0
   -1.1292   -0.4875    0.3524 C   0  0  1  0  0  0  0  0  0  0  0  0
   -0.4343   -0.9134   -0.3723 H   0  0  0  0  0  0  0  0  0  0  0  0
   -1.3983    0.9761   -0.0381 C   0  0  0  0  0  0  0  0  0  0  0  0
   -2.1984    1.3692    0.5905 H   0  0  0  0  0  0  0  0  0  0  0  0
   -0.5032    1.5663    0.1650 H   0  0  0  0  0  0  0  0  0  0  0  0
   -1.8040    1.1618   -1.4875 C   0  0  0  0  0  0  0  0  0  0  0  0
   -0.8259    1.1917   -2.5017 C   0  0  0  0  0  0  0  0  0  0  0  0
    0.2222    1.1081   -2.2457 H   0  0  0  0  0  0  0  0  0  0  0  0
   -1.2106    1.3237   -3.8502 C   0  0  0  0  0  0  0  0  0  0  0  0
   -0.4589    1.3478   -4.6242 H   0  0  0  0  0  0  0  0  0  0  0  0
   -2.5786    1.4225   -4.1854 C   0  0  0  0  0  0  0  0  0  0  0  0
   -2.9600    1.5472   -5.4831 O   0  0  0  0  0  0  0  0  0  0  0  0
   -2.2107    1.6483   -6.0716 H   0  0  0  0  0  0  0  0  0  0  0  0
   -3.5563    1.3875   -3.1696 C   0  0  0  0  0  0  0  0  0  0  0  0
   -4.5988    1.4683   -3.4381 H   0  0  0  0  0  0  0  0  0  0  0  0
   -3.1683    1.2600   -1.8223 C   0  0  0  0  0  0  0  0  0  0  0  0
   -3.9195    1.2425   -1.0416 H   0  0  0  0  0  0  0  0  0  0  0  0
   -0.4816   -0.5974    1.7428 C   0  0  0  0  0  0  0  0  0  0  0  0
    0.0862   -1.6362    2.0817 O   0  0  0  0  0  0  0  0  0  0  0  0
   -0.5679    0.4691    2.5479 N   0  0  0  0  0  0  0  0  0  0  0  0
   -1.1009    1.2606    2.2179 H   0  0  0  0  0  0  0  0  0  0  0  0
   -0.0105    0.5310    3.8970 C   0  0  0  0  0  0  0  0  0  0  0  0
    1.0345    0.2165    3.8811 H   0  0  0  0  0  0  0  0  0  0  0  0
   -0.0735    1.5496    4.2834 H   0  0  0  0  0  0  0  0  0  0  0  0
   -0.5668   -0.1394    4.5554 H   0  0  0  0  0  0  0  0  0  0  0  0
  5  6  2  0  0  0  0
  5  7  1  0  0  0  0
  2  3  1  0  0  0  0
  2  4  1  0  0  0  0
  2  5  1  0  0  0  0
  1  2  1  0  0  0  0
 26 27  2  0  0  0  0
 26 28  1  0  0  0  0
 24 25  1  0  0  0  0
 22 23  1  0  0  0  0
 22 24  2  0  0  0  0
 20 21  1  0  0  0  0
 19 20  1  0  0  0  0
 19 22  1  0  0  0  0
 17 18  1  0  0  0  0
 17 19  2  0  0  0  0
 15 16  1  0  0  0  0
 15 17  1  0  0  0  0
 14 15  2  0  0  0  0
 14 24  1  0  0  0  0
 11 12  1  0  0  0  0
 11 13  1  0  0  0  0
 11 14  1  0  0  0  0
  9 10  1  0  0  0  0
  9 11  1  0  0  0  0
  9 26  1  0  0  0  0
  7  8  1  0  0  0  0
  7  9  1  0  0  0  0
 30 31  1  0  0  0  0
 30 32  1  0  0  0  0
 30 33  1  0  0  0  0
 28 29  1  0  0  0  0
 28 30  1  0  0  0  0
M  END
$$$$
default_name
  -OEChem-01062215323D

 33 33  0     1  0  0  0  0  0999 V2000
   -4.0702   -3.8485    1.4554 H   0  0  0  0  0  0  0  0  0  0  0  0
   -4.0012   -2.9605    0.8284 C   0  0  0  0  0  0  0  0  0  0  0  0
   -4.7652   -2.2435    1.1234 H   0  0  0  0  0  0  0  0  0  0  0  0
   -4.1352   -3.2385   -0.2156 H   0  0  0  0  0  0  0  0  0  0  0  0
   -2.6362   -2.3395    1.0094 C   0  0  0  0  0  0  0  0  0  0  0  0
   -1.8292   -2.8395    1.7814 O   0  0  0  0  0  0  0  0  0  0  0  0
   -2.3832   -1.2445    0.2964 N   0  0  0  0  0  0  0  0  0  0  0  0
   -3.1102   -0.8685   -0.2946 H   0  0  0  0  0  0  0  0  0  0  0  0
   -1.1292   -0.4875    0.3524 C   0  0  1  0  0  0  0  0  0  0  0  0
   -0.4343   -0.9134   -0.3723 H   0  0  0  0  0  0  0  0  0  0  0  0
   -1.3983    0.9761   -0.0381 C   0  0  0  0  0  0  0  0  0  0  0  0
   -2.1984    1.3692    0.5905 H   0  0  0  0  0  0  0  0  0  0  0  0
   -0.5032    1.5663    0.1650 H   0  0  0  0  0  0  0  0  0  0  0  0
   -1.8040    1.1618   -1.4875 C   0  0  0  0  0  0  0  0  0  0  0  0
   -0.8259    1.1917   -2.5017 C   0  0  0  0  0  0  0  0  0  0  0  0
    0.2222    1.1081   -2.2457 H   0  0  0  0  0  0  0  0  0  0  0  0
   -1.2106    1.3237   -3.8502 C   0  0  0  0  0  0  0  0  0  0  0  0
   -0.4589    1.3478   -4.6242 H   0  0  0  0  0  0  0  0  0  0  0  0
   -2.5786    1.4225   -4.1854 C   0  0  0  0  0  0  0  0  0  0  0  0
   -2.9600    1.5472   -5.4831 O   0  0  0  0  0  0  0  0  0  0  0  0
   -2.2107    1.6483   -6.0716 H   0  0  0  0  0  0  0  0  0  0  0  0
   -3.5563    1.3875   -3.1696 C   0  0  0  0  0  0  0  0  0  0  0  0
   -4.5988    1.4683   -3.4381 H   0  0  0  0  0  0  0  0  0  0  0  0
   -3.1683    1.2600   -1.8223 C   0  0  0  0  0  0  0  0  0  0  0  0
   -3.9195    1.2425   -1.0416 H   0  0  0  0  0  0  0  0  0  0  0  0
   -0.4816   -0.5974    1.7428 C   0  0  0  0  0  0  0  0  0  0  0  0
    0.3125   -1.5064    1.9865 O   0  0  0  0  0  0  0  0  0  0  0  0
   -0.8206    0.3233    2.6541 N   0  0  0  0  0  0  0  0  0  0  0  0
   -1.5228    1.0005    2.3938 H   0  0  0  0  0  0  0  0  0  0  0  0
   -0.3008    0.3630    4.0190 C   0  0  0  0  0  0  0  0  0  0  0  0
    0.7888    0.3044    4.0025 H   0  0  0  0  0  0  0  0  0  0  0  0
   -0.6036    1.2894    4.5097 H   0  0  0  0  0  0  0  0  0  0  0  0
   -0.6876   -0.4875    4.5842 H   0  0  0  0  0  0  0  0  0  0  0  0
  5  6  2  0  0  0  0
  5  7  1  0  0  0  0
  2  3  1  0  0  0  0
  2  4  1  0  0  0  0
  2  5  1  0  0  0  0
  1  2  1  0  0  0  0
 26 27  2  0  0  0  0
 26 28  1  0  0  0  0
 24 25  1  0  0  0  0
 22 23  1  0  0  0  0
 22 24  2  0  0  0  0
 20 21  1  0  0  0  0
 19 20  1  0  0  0  0
 19 22  1  0  0  0  0
 17 18  1  0  0  0  0
 17 19  2  0  0  0  0
 15 16  1  0  0  0  0
 15 17  1  0  0  0  0
 14 15  2  0  0  0  0
 14 24  1  0  0  0  0
 11 12  1  0  0  0  0
 11 13  1  0  0  0  0
 11 14  1  0  0  0  0
  9 10  1  0  0  0  0
  9 11  1  0  0  0  0
  9 26  1  0  0  0  0
  7  8  1  0  0  0  0
  7  9  1  0  0  0  0
 30 31  1  0  0  0  0
 30 32  1  0  0  0  0
 30 33  1  0  0  0  0
 28 29  1  0  0  0  0
 28 30  1  0  0  0  0
M  END
$$$$
default_name
  -OEChem-01062215323D

 33 33  0     1  0  0  0  0  0999 V2000
   -4.0702   -3.8485    1.4554 H   0  0  0  0  0  0  0  0  0  0  0  0
   -4.0012   -2.9605    0.8284 C   0  0  0  0  0  0  0  0  0  0  0  0
   -4.7652   -2.2435    1.1234 H   0  0  0  0  0  0  0  0  0  0  0  0
   -4.1352   -3.2385   -0.2156 H   0  0  0  0  0  0  0  0  0  0  0  0
   -2.6362   -2.3395    1.0094 C   0  0  0  0  0  0  0  0  0  0  0  0
   -1.8292   -2.8395    1.7814 O   0  0  0  0  0  0  0  0  0  0  0  0
   -2.3832   -1.2445    0.2964 N   0  0  0  0  0  0  0  0  0  0  0  0
   -3.1102   -0.8685   -0.2946 H   0  0  0  0  0  0  0  0  0  0  0  0
   -1.1292   -0.4875    0.3524 C   0  0  1  0  0  0  0  0  0  0  0  0
   -0.4343   -0.9134   -0.3723 H   0  0  0  0  0  0  0  0  0  0  0  0
   -1.3983    0.9761   -0.0381 C   0  0  0  0  0  0  0  0  0  0  0  0
   -2.1984    1.3692    0.5905 H   0  0  0  0  0  0  0  0  0  0  0  0
   -0.5032    1.5663    0.1650 H   0  0  0  0  0  0  0  0  0  0  0  0
   -1.8040    1.1618   -1.4875 C   0  0  0  0  0  0  0  0  0  0  0  0
   -0.8259    1.1917   -2.5017 C   0  0  0  0  0  0  0  0  0  0  0  0
    0.2222    1.1081   -2.2457 H   0  0  0  0  0  0  0  0  0  0  0  0
   -1.2106    1.3237   -3.8502 C   0  0  0  0  0  0  0  0  0  0  0  0
   -0.4589    1.3478   -4.6242 H   0  0  0  0  0  0  0  0  0  0  0  0
   -2.5786    1.4225   -4.1854 C   0  0  0  0  0  0  0  0  0  0  0  0
   -2.9600    1.5472   -5.4831 O   0  0  0  0  0  0  0  0  0  0  0  0
   -2.2107    1.6483   -6.0716 H   0  0  0  0  0  0  0  0  0  0  0  0
   -3.5563    1.3875   -3.1696 C   0  0  0  0  0  0  0  0  0  0  0  0
   -4.5988    1.4683   -3.4381 H   0  0  0  0  0  0  0  0  0  0  0  0
   -3.1683    1.2600   -1.8223 C   0  0  0  0  0  0  0  0  0  0  0  0
   -3.9195    1.2425   -1.0416 H   0  0  0  0  0  0  0  0  0  0  0  0
   -0.4816   -0.5974    1.7428 C   0  0  0  0  0  0  0  0  0  0  0  0
    0.5025   -1.3176    1.9129 O   0  0  0  0  0  0  0  0  0  0  0  0
   -1.0326    0.1117    2.7361 N   0  0  0  0  0  0  0  0  0  0  0  0
   -1.8728    0.6313    2.5277 H   0  0  0  0  0  0  0  0  0  0  0  0
   -0.5442    0.1194    4.1131 C   0  0  0  0  0  0  0  0  0  0  0  0
    0.5288    0.3185    4.1247 H   0  0  0  0  0  0  0  0  0  0  0  0
   -1.0590    0.8893    4.6902 H   0  0  0  0  0  0  0  0  0  0  0  0
   -0.7234   -0.8553    4.5718 H   0  0  0  0  0  0  0  0  0  0  0  0
  5  6  2  0  0  0  0
  5  7  1  0  0  0  0
  2  3  1  0  0  0  0
  2  4  1  0  0  0  0
  2  5  1  0  0  0  0
  1  2  1  0  0  0  0
 26 27  2  0  0  0  0
 26 28  1  0  0  0  0
 24 25  1  0  0  0  0
 22 23  1  0  0  0  0
 22 24  2  0  0  0  0
 20 21  1  0  0  0  0
 19 20  1  0  0  0  0
 19 22  1  0  0  0  0
 17 18  1  0  0  0  0
 17 19  2  0  0  0  0
 15 16  1  0  0  0  0
 15 17  1  0  0  0  0
 14 15  2  0  0  0  0
 14 24  1  0  0  0  0
 11 12  1  0  0  0  0
 11 13  1  0  0  0  0
 11 14  1  0  0  0  0
  9 10  1  0  0  0  0
  9 11  1  0  0  0  0
  9 26  1  0  0  0  0
  7  8  1  0  0  0  0
  7  9  1  0  0  0  0
 30 31  1  0  0  0  0
 30 32  1  0  0  0  0
 30 33  1  0  0  0  0
 28 29  1  0  0  0  0
 28 30  1  0  0  0  0
M  END
$$$$
default_name
  -OEChem-01062215323D

 33 33  0     1  0  0  0  0  0999 V2000
   -4.0702   -3.8485    1.4554 H   0  0  0  0  0  0  0  0  0  0  0  0
   -4.0012   -2.9605    0.8284 C   0  0  0  0  0  0  0  0  0  0  0  0
   -4.7652   -2.2435    1.1234 H   0  0  0  0  0  0  0  0  0  0  0  0
   -4.1352   -3.2385   -0.2156 H   0  0  0  0  0  0  0  0  0  0  0  0
   -2.6362   -2.3395    1.0094 C   0  0  0  0  0  0  0  0  0  0  0  0
   -1.8292   -2.8395    1.7814 O   0  0  0  0  0  0  0  0  0  0  0  0
   -2.3832   -1.2445    0.2964 N   0  0  0  0  0  0  0  0  0  0  0  0
   -3.1102   -0.8685   -0.2946 H   0  0  0  0  0  0  0  0  0  0  0  0
   -1.1292   -0.4875    0.3524 C   0  0  1  0  0  0  0  0  0  0  0  0
   -0.4343   -0.9134   -0.3723 H   0  0  0  0  0  0  0  0  0  0  0  0
   -1.3983    0.9761   -0.0381 C   0  0  0  0  0  0  0  0  0  0  0  0
   -2.1984    1.3692    0.5905 H   0  0  0  0  0  0  0  0  0  0  0  0
   -0.5032    1.5663    0.1650 H   0  0  0  0  0  0  0  0  0  0  0  0
   -1.8040    1.1618   -1.4875 C   0  0  0  0  0  0  0  0  0  0  0  0
   -0.8259    1.1917   -2.5017 C   0  0  0  0  0  0  0  0  0  0  0  0
    0.2222    1.1081   -2.2457 H   0  0  0  0  0  0  0  0  0  0  0  0
   -1.2106    1.3237   -3.8502 C   0  0  0  0  0  0  0  0  0  0  0  0
   -0.4589    1.3478   -4.6242 H   0  0  0  0  0  0  0  0  0  0  0  0
   -2.5786    1.4225   -4.1854 C   0  0  0  0  0  0  0  0  0  0  0  0
   -2.9600    1.5472   -5.4831 O   0  0  0  0  0  0  0  0  0  0  0  0
   -2.2107    1.6483   -6.0716 H   0  0  0  0  0  0  0  0  0  0  0  0
   -3.5563    1.3875   -3.1696 C   0  0  0  0  0  0  0  0  0  0  0  0
   -4.5988    1.4683   -3.4381 H   0  0  0  0  0  0  0  0  0  0  0  0
   -3.1683    1.2600   -1.8223 C   0  0  0  0  0  0  0  0  0  0  0  0
   -3.9195    1.2425   -1.0416 H   0  0  0  0  0  0  0  0  0  0  0  0
   -0.4816   -0.5974    1.7428 C   0  0  0  0  0  0  0  0  0  0  0  0
    0.6433   -1.0828    1.8659 O   0  0  0  0  0  0  0  0  0  0  0  0
   -1.1893   -0.1512    2.7883 N   0  0  0  0  0  0  0  0  0  0  0  0
   -2.1270    0.1783    2.6102 H   0  0  0  0  0  0  0  0  0  0  0  0
   -0.7241   -0.1831    4.1729 C   0  0  0  0  0  0  0  0  0  0  0  0
    0.2720    0.2580    4.2395 H   0  0  0  0  0  0  0  0  0  0  0  0
   -1.4086    0.3766    4.8125 H   0  0  0  0  0  0  0  0  0  0  0  0
   -0.6717   -1.2175    4.5190 H   0  0  0  0  0  0  0  0  0  0  0  0
  5  6  2  0  0  0  0
  5  7  1  0  0  0  0
  2  3  1  0  0  0  0
  2  4  1  0  0  0  0
  2  5  1  0  0  0  0
  1  2  1  0  0  0  0
 26 27  2  0  0  0  0
 26 28  1  0  0  0  0
 24 25  1  0  0  0  0
 22 23  1  0  0  0  0
 22 24  2  0  0  0  0
 20 21  1  0  0  0  0
 19 20  1  0  0  0  0
 19 22  1  0  0  0  0
 17 18  1  0  0  0  0
 17 19  2  0  0  0  0
 15 16  1  0  0  0  0
 15 17  1  0  0  0  0
 14 15  2  0  0  0  0
 14 24  1  0  0  0  0
 11 12  1  0  0  0  0
 11 13  1  0  0  0  0
 11 14  1  0  0  0  0
  9 10  1  0  0  0  0
  9 11  1  0  0  0  0
  9 26  1  0  0  0  0
  7  8  1  0  0  0  0
  7  9  1  0  0  0  0
 30 31  1  0  0  0  0
 30 32  1  0  0  0  0
 30 33  1  0  0  0  0
 28 29  1  0  0  0  0
 28 30  1  0  0  0  0
M  END
$$$$
default_name
  -OEChem-01062215323D

 33 33  0     1  0  0  0  0  0999 V2000
   -4.0702   -3.8485    1.4554 H   0  0  0  0  0  0  0  0  0  0  0  0
   -4.0012   -2.9605    0.8284 C   0  0  0  0  0  0  0  0  0  0  0  0
   -4.7652   -2.2435    1.1234 H   0  0  0  0  0  0  0  0  0  0  0  0
   -4.1352   -3.2385   -0.2156 H   0  0  0  0  0  0  0  0  0  0  0  0
   -2.6362   -2.3395    1.0094 C   0  0  0  0  0  0  0  0  0  0  0  0
   -1.8292   -2.8395    1.7814 O   0  0  0  0  0  0  0  0  0  0  0  0
   -2.3832   -1.2445    0.2964 N   0  0  0  0  0  0  0  0  0  0  0  0
   -3.1102   -0.8685   -0.2946 H   0  0  0  0  0  0  0  0  0  0  0  0
   -1.1292   -0.4875    0.3524 C   0  0  1  0  0  0  0  0  0  0  0  0
   -0.4343   -0.9134   -0.3723 H   0  0  0  0  0  0  0  0  0  0  0  0
   -1.3983    0.9761   -0.0381 C   0  0  0  0  0  0  0  0  0  0  0  0
   -2.1984    1.3692    0.5905 H   0  0  0  0  0  0  0  0  0  0  0  0
   -0.5032    1.5663    0.1650 H   0  0  0  0  0  0  0  0  0  0  0  0
   -1.8040    1.1618   -1.4875 C   0  0  0  0  0  0  0  0  0  0  0  0
   -0.8259    1.1917   -2.5017 C   0  0  0  0  0  0  0  0  0  0  0  0
    0.2222    1.1081   -2.2457 H   0  0  0  0  0  0  0  0  0  0  0  0
   -1.2106    1.3237   -3.8502 C   0  0  0  0  0  0  0  0  0  0  0  0
   -0.4589    1.3478   -4.6242 H   0  0  0  0  0  0  0  0  0  0  0  0
   -2.5786    1.4225   -4.1854 C   0  0  0  0  0  0  0  0  0  0  0  0
   -2.9600    1.5472   -5.4831 O   0  0  0  0  0  0  0  0  0  0  0  0
   -2.2107    1.6483   -6.0716 H   0  0  0  0  0  0  0  0  0  0  0  0
   -3.5563    1.3875   -3.1696 C   0  0  0  0  0  0  0  0  0  0  0  0
   -4.5988    1.4683   -3.4381 H   0  0  0  0  0  0  0  0  0  0  0  0
   -3.1683    1.2600   -1.8223 C   0  0  0  0  0  0  0  0  0  0  0  0
   -3.9195    1.2425   -1.0416 H   0  0  0  0  0  0  0  0  0  0  0  0
   -0.4816   -0.5974    1.7428 C   0  0  0  0  0  0  0  0  0  0  0  0
    0.7252   -0.8180    1.8487 O   0  0  0  0  0  0  0  0  0  0  0  0
   -1.2801   -0.4474    2.8072 N   0  0  0  0  0  0  0  0  0  0  0  0
   -2.2680   -0.3279    2.6359 H   0  0  0  0  0  0  0  0  0  0  0  0
   -0.8281   -0.5239    4.1944 C   0  0  0  0  0  0  0  0  0  0  0  0
    0.0360    0.1269    4.3391 H   0  0  0  0  0  0  0  0  0  0  0  0
   -1.6285   -0.2138    4.8682 H   0  0  0  0  0  0  0  0  0  0  0  0
   -0.5360   -1.5495    4.4296 H   0  0  0  0  0  0  0  0  0  0  0  0
  5  6  2  0  0  0  0
  5  7  1  0  0  0  0
  2  3  1  0  0  0  0
  2  4  1  0  0  0  0
  2  5  1  0  0  0  0
  1  2  1  0  0  0  0
 26 27  2  0  0  0  0
 26 28  1  0  0  0  0
 24 25  1  0  0  0  0
 22 23  1  0  0  0  0
 22 24  2  0  0  0  0
 20 21  1  0  0  0  0
 19 20  1  0  0  0  0
 19 22  1  0  0  0  0
 17 18  1  0  0  0  0
 17 19  2  0  0  0  0
 15 16  1  0  0  0  0
 15 17  1  0  0  0  0
 14 15  2  0  0  0  0
 14 24  1  0  0  0  0
 11 12  1  0  0  0  0
 11 13  1  0  0  0  0
 11 14  1  0  0  0  0
  9 10  1  0  0  0  0
  9 11  1  0  0  0  0
  9 26  1  0  0  0  0
  7  8  1  0  0  0  0
  7  9  1  0  0  0  0
 30 31  1  0  0  0  0
 30 32  1  0  0  0  0
 30 33  1  0  0  0  0
 28 29  1  0  0  0  0
 28 30  1  0  0  0  0
M  END
$$$$
default_name
  -OEChem-01062215323D

 33 33  0     1  0  0  0  0  0999 V2000
   -4.0702   -3.8485    1.4554 H   0  0  0  0  0  0  0  0  0  0  0  0
   -4.0012   -2.9605    0.8284 C   0  0  0  0  0  0  0  0  0  0  0  0
   -4.7652   -2.2435    1.1234 H   0  0  0  0  0  0  0  0  0  0  0  0
   -4.1352   -3.2385   -0.2156 H   0  0  0  0  0  0  0  0  0  0  0  0
   -2.6362   -2.3395    1.0094 C   0  0  0  0  0  0  0  0  0  0  0  0
   -1.8292   -2.8395    1.7814 O   0  0  0  0  0  0  0  0  0  0  0  0
   -2.3832   -1.2445    0.2964 N   0  0  0  0  0  0  0  0  0  0  0  0
   -3.1102   -0.8685   -0.2946 H   0  0  0  0  0  0  0  0  0  0  0  0
   -1.1292   -0.4875    0.3524 C   0  0  1  0  0  0  0  0  0  0  0  0
   -0.4343   -0.9134   -0.3723 H   0  0  0  0  0  0  0  0  0  0  0  0
   -1.3983    0.9761   -0.0381 C   0  0  0  0  0  0  0  0  0  0  0  0
   -2.1984    1.3692    0.5905 H   0  0  0  0  0  0  0  0  0  0  0  0
   -0.5032    1.5663    0.1650 H   0  0  0  0  0  0  0  0  0  0  0  0
   -1.8040    1.1618   -1.4875 C   0  0  0  0  0  0  0  0  0  0  0  0
   -0.8259    1.1917   -2.5017 C   0  0  0  0  0  0  0  0  0  0  0  0
    0.2222    1.1081   -2.2457 H   0  0  0  0  0  0  0  0  0  0  0  0
   -1.2106    1.3237   -3.8502 C   0  0  0  0  0  0  0  0  0  0  0  0
   -0.4589    1.3478   -4.6242 H   0  0  0  0  0  0  0  0  0  0  0  0
   -2.5786    1.4225   -4.1854 C   0  0  0  0  0  0  0  0  0  0  0  0
   -2.9600    1.5472   -5.4831 O   0  0  0  0  0  0  0  0  0  0  0  0
   -2.2107    1.6483   -6.0716 H   0  0  0  0  0  0  0  0  0  0  0  0
   -3.5563    1.3875   -3.1696 C   0  0  0  0  0  0  0  0  0  0  0  0
   -4.5988    1.4683   -3.4381 H   0  0  0  0  0  0  0  0  0  0  0  0
   -3.1683    1.2600   -1.8223 C   0  0  0  0  0  0  0  0  0  0  0  0
   -3.9195    1.2425   -1.0416 H   0  0  0  0  0  0  0  0  0  0  0  0
   -0.4816   -0.5974    1.7428 C   0  0  0  0  0  0  0  0  0  0  0  0
    0.7426   -0.5411    1.8625 O   0  0  0  0  0  0  0  0  0  0  0  0
   -1.2989   -0.7569    2.7914 N   0  0  0  0  0  0  0  0  0  0  0  0
   -2.2862   -0.8525    2.6029 H   0  0  0  0  0  0  0  0  0  0  0  0
   -0.8492   -0.8798    4.1761 C   0  0  0  0  0  0  0  0  0  0  0  0
   -0.1631   -0.0658    4.4166 H   0  0  0  0  0  0  0  0  0  0  0  0
   -1.7038   -0.8416    4.8536 H   0  0  0  0  0  0  0  0  0  0  0  0
   -0.3256   -1.8287    4.3095 H   0  0  0  0  0  0  0  0  0  0  0  0
  5  6  2  0  0  0  0
  5  7  1  0  0  0  0
  2  3  1  0  0  0  0
  2  4  1  0  0  0  0
  2  5  1  0  0  0  0
  1  2  1  0  0  0  0
 26 27  2  0  0  0  0
 26 28  1  0  0  0  0
 24 25  1  0  0  0  0
 22 23  1  0  0  0  0
 22 24  2  0  0  0  0
 20 21  1  0  0  0  0
 19 20  1  0  0  0  0
 19 22  1  0  0  0  0
 17 18  1  0  0  0  0
 17 19  2  0  0  0  0
 15 16  1  0  0  0  0
 15 17  1  0  0  0  0
 14 15  2  0  0  0  0
 14 24  1  0  0  0  0
 11 12  1  0  0  0  0
 11 13  1  0  0  0  0
 11 14  1  0  0  0  0
  9 10  1  0  0  0  0
  9 11  1  0  0  0  0
  9 26  1  0  0  0  0
  7  8  1  0  0  0  0
  7  9  1  0  0  0  0
 30 31  1  0  0  0  0
 30 32  1  0  0  0  0
 30 33  1  0  0  0  0
 28 29  1  0  0  0  0
 28 30  1  0  0  0  0
M  END
$$$$
default_name
  -OEChem-01062215323D

 33 33  0     1  0  0  0  0  0999 V2000
   -4.0702   -3.8485    1.4554 H   0  0  0  0  0  0  0  0  0  0  0  0
   -4.0012   -2.9605    0.8284 C   0  0  0  0  0  0  0  0  0  0  0  0
   -4.7652   -2.2435    1.1234 H   0  0  0  0  0  0  0  0  0  0  0  0
   -4.1352   -3.2385   -0.2156 H   0  0  0  0  0  0  0  0  0  0  0  0
   -2.6362   -2.3395    1.0094 C   0  0  0  0  0  0  0  0  0  0  0  0
   -1.8292   -2.8395    1.7814 O   0  0  0  0  0  0  0  0  0  0  0  0
   -2.3832   -1.2445    0.2964 N   0  0  0  0  0  0  0  0  0  0  0  0
   -3.1102   -0.8685   -0.2946 H   0  0  0  0  0  0  0  0  0  0  0  0
   -1.1292   -0.4875    0.3524 C   0  0  1  0  0  0  0  0  0  0  0  0
   -0.4343   -0.9134   -0.3723 H   0  0  0  0  0  0  0  0  0  0  0  0
   -1.3983    0.9761   -0.0381 C   0  0  0  0  0  0  0  0  0  0  0  0
   -2.1984    1.3692    0.5905 H   0  0  0  0  0  0  0  0  0  0  0  0
   -0.5032    1.5663    0.1650 H   0  0  0  0  0  0  0  0  0  0  0  0
   -1.8040    1.1618   -1.4875 C   0  0  0  0  0  0  0  0  0  0  0  0
   -0.8259    1.1917   -2.5017 C   0  0  0  0  0  0  0  0  0  0  0  0
    0.2222    1.1081   -2.2457 H   0  0  0  0  0  0  0  0  0  0  0  0
   -1.2106    1.3237   -3.8502 C   0  0  0  0  0  0  0  0  0  0  0  0
   -0.4589    1.3478   -4.6242 H   0  0  0  0  0  0  0  0  0  0  0  0
   -2.5786    1.4225   -4.1854 C   0  0  0  0  0  0  0  0  0  0  0  0
   -2.9600    1.5472   -5.4831 O   0  0  0  0  0  0  0  0  0  0  0  0
   -2.2107    1.6483   -6.0716 H   0  0  0  0  0  0  0  0  0  0  0  0
   -3.5563    1.3875   -3.1696 C   0  0  0  0  0  0  0  0  0  0  0  0
   -4.5988    1.4683   -3.4381 H   0  0  0  0  0  0  0  0  0  0  0  0
   -3.1683    1.2600   -1.8223 C   0  0  0  0  0  0  0  0  0  0  0  0
   -3.9195    1.2425   -1.0416 H   0  0  0  0  0  0  0  0  0  0  0  0
   -0.4816   -0.5974    1.7428 C   0  0  0  0  0  0  0  0  0  0  0  0
    0.6944   -0.2711    1.9063 O   0  0  0  0  0  0  0  0  0  0  0  0
   -1.2443   -1.0586    2.7421 N   0  0  0  0  0  0  0  0  0  0  0  0
   -2.1804   -1.3600    2.5135 H   0  0  0  0  0  0  0  0  0  0  0  0
   -0.7860   -1.2265    4.1193 C   0  0  0  0  0  0  0  0  0  0  0  0
   -0.3118   -0.3070    4.4668 H   0  0  0  0  0  0  0  0  0  0  0  0
   -1.6294   -1.4640    4.7697 H   0  0  0  0  0  0  0  0  0  0  0  0
   -0.0547   -2.0360    4.1669 H   0  0  0  0  0  0  0  0  0  0  0  0
  5  6  2  0  0  0  0
  5  7  1  0  0  0  0
  2  3  1  0  0  0  0
  2  4  1  0  0  0  0
  2  5  1  0  0  0  0
  1  2  1  0  0  0  0
 26 27  2  0  0  0  0
 26 28  1  0  0  0  0
 24 25  1  0  0  0  0
 22 23  1  0  0  0  0
 22 24  2  0  0  0  0
 20 21  1  0  0  0  0
 19 20  1  0  0  0  0
 19 22  1  0  0  0  0
 17 18  1  0  0  0  0
 17 19  2  0  0  0  0
 15 16  1  0  0  0  0
 15 17  1  0  0  0  0
 14 15  2  0  0  0  0
 14 24  1  0  0  0  0
 11 12  1  0  0  0  0
 11 13  1  0  0  0  0
 11 14  1  0  0  0  0
  9 10  1  0  0  0  0
  9 11  1  0  0  0  0
  9 26  1  0  0  0  0
  7  8  1  0  0  0  0
  7  9  1  0  0  0  0
 30 31  1  0  0  0  0
 30 32  1  0  0  0  0
 30 33  1  0  0  0  0
 28 29  1  0  0  0  0
 28 30  1  0  0  0  0
M  END
$$$$
default_name
  -OEChem-01062215323D

 33 33  0     1  0  0  0  0  0999 V2000
   -4.0702   -3.8485    1.4554 H   0  0  0  0  0  0  0  0  0  0  0  0
   -4.0012   -2.9605    0.8284 C   0  0  0  0  0  0  0  0  0  0  0  0
   -4.7652   -2.2435    1.1234 H   0  0  0  0  0  0  0  0  0  0  0  0
   -4.1352   -3.2385   -0.2156 H   0  0  0  0  0  0  0  0  0  0  0  0
   -2.6362   -2.3395    1.0094 C   0  0  0  0  0  0  0  0  0  0  0  0
   -1.8292   -2.8395    1.7814 O   0  0  0  0  0  0  0  0  0  0  0  0
   -2.3832   -1.2445    0.2964 N   0  0  0  0  0  0  0  0  0  0  0  0
   -3.1102   -0.8685   -0.2946 H   0  0  0  0  0  0  0  0  0  0  0  0
   -1.1292   -0.4875    0.3524 C   0  0  1  0  0  0  0  0  0  0  0  0
   -0.4343   -0.9134   -0.3723 H   0  0  0  0  0  0  0  0  0  0  0  0
   -1.3983    0.9761   -0.0381 C   0  0  0  0  0  0  0  0  0  0  0  0
   -2.1984    1.3692    0.5905 H   0  0  0  0  0  0  0  0  0  0  0  0
   -0.5032    1.5663    0.1650 H   0  0  0  0  0  0  0  0  0  0  0  0
   -1.8040    1.1618   -1.4875 C   0  0  0  0  0  0  0  0  0  0  0  0
   -0.8259    1.1917   -2.5017 C   0  0  0  0  0  0  0  0  0  0  0  0
    0.2222    1.1081   -2.2457 H   0  0  0  0  0  0  0  0  0  0  0  0
   -1.2106    1.3237   -3.8502 C   0  0  0  0  0  0  0  0  0  0  0  0
   -0.4589    1.3478   -4.6242 H   0  0  0  0  0  0  0  0  0  0  0  0
   -2.5786    1.4225   -4.1854 C   0  0  0  0  0  0  0  0  0  0  0  0
   -2.9600    1.5472   -5.4831 O   0  0  0  0  0  0  0  0  0  0  0  0
   -2.2107    1.6483   -6.0716 H   0  0  0  0  0  0  0  0  0  0  0  0
   -3.5563    1.3875   -3.1696 C   0  0  0  0  0  0  0  0  0  0  0  0
   -4.5988    1.4683   -3.4381 H   0  0  0  0  0  0  0  0  0  0  0  0
   -3.1683    1.2600   -1.8223 C   0  0  0  0  0  0  0  0  0  0  0  0
   -3.9195    1.2425   -1.0416 H   0  0  0  0  0  0  0  0  0  0  0  0
   -0.4816   -0.5974    1.7428 C   0  0  0  0  0  0  0  0  0  0  0  0
    0.5839   -0.0264    1.9772 O   0  0  0  0  0  0  0  0  0  0  0  0
   -1.1200   -1.3318    2.6626 N   0  0  0  0  0  0  0  0  0  0  0  0
   -1.9578   -1.8157    2.3737 H   0  0  0  0  0  0  0  0  0  0  0  0
   -0.6428   -1.5404    4.0277 C   0  0  0  0  0  0  0  0  0  0  0  0
   -0.3999   -0.5802    4.4862 H   0  0  0  0  0  0  0  0  0  0  0  0
   -1.4103   -2.0387    4.6222 H   0  0  0  0  0  0  0  0  0  0  0  0
    0.2580   -2.1574    4.0116 H   0  0  0  0  0  0  0  0  0  0  0  0
  5  6  2  0  0  0  0
  5  7  1  0  0  0  0
  2  3  1  0  0  0  0
  2  4  1  0  0  0  0
  2  5  1  0  0  0  0
  1  2  1  0  0  0  0
 26 27  2  0  0  0  0
 26 28  1  0  0  0  0
 24 25  1  0  0  0  0
 22 23  1  0  0  0  0
 22 24  2  0  0  0  0
 20 21  1  0  0  0  0
 19 20  1  0  0  0  0
 19 22  1  0  0  0  0
 17 18  1  0  0  0  0
 17 19  2  0  0  0  0
 15 16  1  0  0  0  0
 15 17  1  0  0  0  0
 14 15  2  0  0  0  0
 14 24  1  0  0  0  0
 11 12  1  0  0  0  0
 11 13  1  0  0  0  0
 11 14  1  0  0  0  0
  9 10  1  0  0  0  0
  9 11  1  0  0  0  0
  9 26  1  0  0  0  0
  7  8  1  0  0  0  0
  7  9  1  0  0  0  0
 30 31  1  0  0  0  0
 30 32  1  0  0  0  0
 30 33  1  0  0  0  0
 28 29  1  0  0  0  0
 28 30  1  0  0  0  0
M  END
$$$$
default_name
  -OEChem-01062215323D

 33 33  0     1  0  0  0  0  0999 V2000
   -4.0702   -3.8485    1.4554 H   0  0  0  0  0  0  0  0  0  0  0  0
   -4.0012   -2.9605    0.8284 C   0  0  0  0  0  0  0  0  0  0  0  0
   -4.7652   -2.2435    1.1234 H   0  0  0  0  0  0  0  0  0  0  0  0
   -4.1352   -3.2385   -0.2156 H   0  0  0  0  0  0  0  0  0  0  0  0
   -2.6362   -2.3395    1.0094 C   0  0  0  0  0  0  0  0  0  0  0  0
   -1.8292   -2.8395    1.7814 O   0  0  0  0  0  0  0  0  0  0  0  0
   -2.3832   -1.2445    0.2964 N   0  0  0  0  0  0  0  0  0  0  0  0
   -3.1102   -0.8685   -0.2946 H   0  0  0  0  0  0  0  0  0  0  0  0
   -1.1292   -0.4875    0.3524 C   0  0  1  0  0  0  0  0  0  0  0  0
   -0.4343   -0.9134   -0.3723 H   0  0  0  0  0  0  0  0  0  0  0  0
   -1.3983    0.9761   -0.0381 C   0  0  0  0  0  0  0  0  0  0  0  0
   -2.1984    1.3692    0.5905 H   0  0  0  0  0  0  0  0  0  0  0  0
   -0.5032    1.5663    0.1650 H   0  0  0  0  0  0  0  0  0  0  0  0
   -1.8040    1.1618   -1.4875 C   0  0  0  0  0  0  0  0  0  0  0  0
   -0.8259    1.1917   -2.5017 C   0  0  0  0  0  0  0  0  0  0  0  0
    0.2222    1.1081   -2.2457 H   0  0  0  0  0  0  0  0  0  0  0  0
   -1.2106    1.3237   -3.8502 C   0  0  0  0  0  0  0  0  0  0  0  0
   -0.4589    1.3478   -4.6242 H   0  0  0  0  0  0  0  0  0  0  0  0
   -2.5786    1.4225   -4.1854 C   0  0  0  0  0  0  0  0  0  0  0  0
   -2.9600    1.5472   -5.4831 O   0  0  0  0  0  0  0  0  0  0  0  0
   -2.2107    1.6483   -6.0716 H   0  0  0  0  0  0  0  0  0  0  0  0
   -3.5563    1.3875   -3.1696 C   0  0  0  0  0  0  0  0  0  0  0  0
   -4.5988    1.4683   -3.4381 H   0  0  0  0  0  0  0  0  0  0  0  0
   -3.1683    1.2600   -1.8223 C   0  0  0  0  0  0  0  0  0  0  0  0
   -3.9195    1.2425   -1.0416 H   0  0  0  0  0  0  0  0  0  0  0  0
   -0.4816   -0.5974    1.7428 C   0  0  0  0  0  0  0  0  0  0  0  0
    0.4185    0.1764    2.0702 O   0  0  0  0  0  0  0  0  0  0  0  0
   -0.9346   -1.5579    2.5584 N   0  0  0  0  0  0  0  0  0  0  0  0
   -1.6336   -2.1885    2.1932 H   0  0  0  0  0  0  0  0  0  0  0  0
   -0.4293   -1.8001    3.9077 C   0  0  0  0  0  0  0  0  0  0  0  0
   -0.4214   -0.8668    4.4736 H   0  0  0  0  0  0  0  0  0  0  0  0
   -1.0614   -2.5264    4.4211 H   0  0  0  0  0  0  0  0  0  0  0  0
    0.5914   -2.1845    3.8542 H   0  0  0  0  0  0  0  0  0  0  0  0
  5  6  2  0  0  0  0
  5  7  1  0  0  0  0
  2  3  1  0  0  0  0
  2  4  1  0  0  0  0
  2  5  1  0  0  0  0
  1  2  1  0  0  0  0
 26 27  2  0  0  0  0
 26 28  1  0  0  0  0
 24 25  1  0  0  0  0
 22 23  1  0  0  0  0
 22 24  2  0  0  0  0
 20 21  1  0  0  0  0
 19 20  1  0  0  0  0
 19 22  1  0  0  0  0
 17 18  1  0  0  0  0
 17 19  2  0  0  0  0
 15 16  1  0  0  0  0
 15 17  1  0  0  0  0
 14 15  2  0  0  0  0
 14 24  1  0  0  0  0
 11 12  1  0  0  0  0
 11 13  1  0  0  0  0
 11 14  1  0  0  0  0
  9 10  1  0  0  0  0
  9 11  1  0  0  0  0
  9 26  1  0  0  0  0
  7  8  1  0  0  0  0
  7  9  1  0  0  0  0
 30 31  1  0  0  0  0
 30 32  1  0  0  0  0
 30 33  1  0  0  0  0
 28 29  1  0  0  0  0
 28 30  1  0  0  0  0
M  END
$$$$
default_name
  -OEChem-01062215323D

 33 33  0     1  0  0  0  0  0999 V2000
   -4.0702   -3.8485    1.4554 H   0  0  0  0  0  0  0  0  0  0  0  0
   -4.0012   -2.9605    0.8284 C   0  0  0  0  0  0  0  0  0  0  0  0
   -4.7652   -2.2435    1.1234 H   0  0  0  0  0  0  0  0  0  0  0  0
   -4.1352   -3.2385   -0.2156 H   0  0  0  0  0  0  0  0  0  0  0  0
   -2.6362   -2.3395    1.0094 C   0  0  0  0  0  0  0  0  0  0  0  0
   -1.8292   -2.8395    1.7814 O   0  0  0  0  0  0  0  0  0  0  0  0
   -2.3832   -1.2445    0.2964 N   0  0  0  0  0  0  0  0  0  0  0  0
   -3.1102   -0.8685   -0.2946 H   0  0  0  0  0  0  0  0  0  0  0  0
   -1.1292   -0.4875    0.3524 C   0  0  1  0  0  0  0  0  0  0  0  0
   -0.4343   -0.9134   -0.3723 H   0  0  0  0  0  0  0  0  0  0  0  0
   -1.3983    0.9761   -0.0381 C   0  0  0  0  0  0  0  0  0  0  0  0
   -2.1984    1.3692    0.5905 H   0  0  0  0  0  0  0  0  0  0  0  0
   -0.5032    1.5663    0.1650 H   0  0  0  0  0  0  0  0  0  0  0  0
   -1.8040    1.1618   -1.4875 C   0  0  0  0  0  0  0  0  0  0  0  0
   -0.8259    1.1917   -2.5017 C   0  0  0  0  0  0  0  0  0  0  0  0
    0.2222    1.1081   -2.2457 H   0  0  0  0  0  0  0  0  0  0  0  0
   -1.2106    1.3237   -3.8502 C   0  0  0  0  0  0  0  0  0  0  0  0
   -0.4589    1.3478   -4.6242 H   0  0  0  0  0  0  0  0  0  0  0  0
   -2.5786    1.4225   -4.1854 C   0  0  0  0  0  0  0  0  0  0  0  0
   -2.9600    1.5472   -5.4831 O   0  0  0  0  0  0  0  0  0  0  0  0
   -2.2107    1.6483   -6.0716 H   0  0  0  0  0  0  0  0  0  0  0  0
   -3.5563    1.3875   -3.1696 C   0  0  0  0  0  0  0  0  0  0  0  0
   -4.5988    1.4683   -3.4381 H   0  0  0  0  0  0  0  0  0  0  0  0
   -3.1683    1.2600   -1.8223 C   0  0  0  0  0  0  0  0  0  0  0  0
   -3.9195    1.2425   -1.0416 H   0  0  0  0  0  0  0  0  0  0  0  0
   -0.4816   -0.5974    1.7428 C   0  0  0  0  0  0  0  0  0  0  0  0
    0.2095    0.3235    2.1792 O   0  0  0  0  0  0  0  0  0  0  0  0
   -0.7007   -1.7216    2.4365 N   0  0  0  0  0  0  0  0  0  0  0  0
   -1.2299   -2.4530    1.9842 H   0  0  0  0  0  0  0  0  0  0  0  0
   -0.1601   -1.9879    3.7675 C   0  0  0  0  0  0  0  0  0  0  0  0
   -0.3749   -1.1474    4.4297 H   0  0  0  0  0  0  0  0  0  0  0  0
   -0.6066   -2.8940    4.1802 H   0  0  0  0  0  0  0  0  0  0  0  0
    0.9226   -2.1155    3.7053 H   0  0  0  0  0  0  0  0  0  0  0  0
  5  6  2  0  0  0  0
  5  7  1  0  0  0  0
  2  3  1  0  0  0  0
  2  4  1  0  0  0  0
  2  5  1  0  0  0  0
  1  2  1  0  0  0  0
 26 27  2  0  0  0  0
 26 28  1  0  0  0  0
 24 25  1  0  0  0  0
 22 23  1  0  0  0  0
 22 24  2  0  0  0  0
 20 21  1  0  0  0  0
 19 20  1  0  0  0  0
 19 22  1  0  0  0  0
 17 18  1  0  0  0  0
 17 19  2  0  0  0  0
 15 16  1  0  0  0  0
 15 17  1  0  0  0  0
 14 15  2  0  0  0  0
 14 24  1  0  0  0  0
 11 12  1  0  0  0  0
 11 13  1  0  0  0  0
 11 14  1  0  0  0  0
  9 10  1  0  0  0  0
  9 11  1  0  0  0  0
  9 26  1  0  0  0  0
  7  8  1  0  0  0  0
  7  9  1  0  0  0  0
 30 31  1  0  0  0  0
 30 32  1  0  0  0  0
 30 33  1  0  0  0  0
 28 29  1  0  0  0  0
 28 30  1  0  0  0  0
M  END
$$$$
default_name
  -OEChem-01062215323D

 33 33  0     1  0  0  0  0  0999 V2000
   -4.0702   -3.8485    1.4554 H   0  0  0  0  0  0  0  0  0  0  0  0
   -4.0012   -2.9605    0.8284 C   0  0  0  0  0  0  0  0  0  0  0  0
   -4.7652   -2.2435    1.1234 H   0  0  0  0  0  0  0  0  0  0  0  0
   -4.1352   -3.2385   -0.2156 H   0  0  0  0  0  0  0  0  0  0  0  0
   -2.6362   -2.3395    1.0094 C   0  0  0  0  0  0  0  0  0  0  0  0
   -1.8292   -2.8395    1.7814 O   0  0  0  0  0  0  0  0  0  0  0  0
   -2.3832   -1.2445    0.2964 N   0  0  0  0  0  0  0  0  0  0  0  0
   -3.1102   -0.8685   -0.2946 H   0  0  0  0  0  0  0  0  0  0  0  0
   -1.1292   -0.4875    0.3524 C   0  0  1  0  0  0  0  0  0  0  0  0
   -0.4343   -0.9134   -0.3723 H   0  0  0  0  0  0  0  0  0  0  0  0
   -1.3983    0.9761   -0.0381 C   0  0  0  0  0  0  0  0  0  0  0  0
   -2.1984    1.3692    0.5905 H   0  0  0  0  0  0  0  0  0  0  0  0
   -0.5032    1.5663    0.1650 H   0  0  0  0  0  0  0  0  0  0  0  0
   -1.8040    1.1618   -1.4875 C   0  0  0  0  0  0  0  0  0  0  0  0
   -0.8259    1.1917   -2.5017 C   0  0  0  0  0  0  0  0  0  0  0  0
    0.2222    1.1081   -2.2457 H   0  0  0  0  0  0  0  0  0  0  0  0
   -1.2106    1.3237   -3.8502 C   0  0  0  0  0  0  0  0  0  0  0  0
   -0.4589    1.3478   -4.6242 H   0  0  0  0  0  0  0  0  0  0  0  0
   -2.5786    1.4225   -4.1854 C   0  0  0  0  0  0  0  0  0  0  0  0
   -2.9600    1.5472   -5.4831 O   0  0  0  0  0  0  0  0  0  0  0  0
   -2.2107    1.6483   -6.0716 H   0  0  0  0  0  0  0  0  0  0  0  0
   -3.5563    1.3875   -3.1696 C   0  0  0  0  0  0  0  0  0  0  0  0
   -4.5988    1.4683   -3.4381 H   0  0  0  0  0  0  0  0  0  0  0  0
   -3.1683    1.2600   -1.8223 C   0  0  0  0  0  0  0  0  0  0  0  0
   -3.9195    1.2425   -1.0416 H   0  0  0  0  0  0  0  0  0  0  0  0
   -0.4816   -0.5974    1.7428 C   0  0  0  0  0  0  0  0  0  0  0  0
   -0.0287    0.4048    2.2966 O   0  0  0  0  0  0  0  0  0  0  0  0
   -0.4342   -1.8117    2.3052 N   0  0  0  0  0  0  0  0  0  0  0  0
   -0.7741   -2.5913    1.7610 H   0  0  0  0  0  0  0  0  0  0  0  0
    0.1465   -2.0910    3.6165 C   0  0  0  0  0  0  0  0  0  0  0  0
   -0.2635   -1.4027    4.3576 H   0  0  0  0  0  0  0  0  0  0  0  0
   -0.0768   -3.1163    3.9159 H   0  0  0  0  0  0  0  0  0  0  0  0
    1.2292   -1.9551    3.5752 H   0  0  0  0  0  0  0  0  0  0  0  0
  5  6  2  0  0  0  0
  5  7  1  0  0  0  0
  2  3  1  0  0  0  0
  2  4  1  0  0  0  0
  2  5  1  0  0  0  0
  1  2  1  0  0  0  0
 26 27  2  0  0  0  0
 26 28  1  0  0  0  0
 24 25  1  0  0  0  0
 22 23  1  0  0  0  0
 22 24  2  0  0  0  0
 20 21  1  0  0  0  0
 19 20  1  0  0  0  0
 19 22  1  0  0  0  0
 17 18  1  0  0  0  0
 17 19  2  0  0  0  0
 15 16  1  0  0  0  0
 15 17  1  0  0  0  0
 14 15  2  0  0  0  0
 14 24  1  0  0  0  0
 11 12  1  0  0  0  0
 11 13  1  0  0  0  0
 11 14  1  0  0  0  0
  9 10  1  0  0  0  0
  9 11  1  0  0  0  0
  9 26  1  0  0  0  0
  7  8  1  0  0  0  0
  7  9  1  0  0  0  0
 30 31  1  0  0  0  0
 30 32  1  0  0  0  0
 30 33  1  0  0  0  0
 28 29  1  0  0  0  0
 28 30  1  0  0  0  0
M  END
$$$$
default_name
  -OEChem-01062215323D

 33 33  0     1  0  0  0  0  0999 V2000
   -4.0702   -3.8485    1.4554 H   0  0  0  0  0  0  0  0  0  0  0  0
   -4.0012   -2.9605    0.8284 C   0  0  0  0  0  0  0  0  0  0  0  0
   -4.7652   -2.2435    1.1234 H   0  0  0  0  0  0  0  0  0  0  0  0
   -4.1352   -3.2385   -0.2156 H   0  0  0  0  0  0  0  0  0  0  0  0
   -2.6362   -2.3395    1.0094 C   0  0  0  0  0  0  0  0  0  0  0  0
   -1.8292   -2.8395    1.7814 O   0  0  0  0  0  0  0  0  0  0  0  0
   -2.3832   -1.2445    0.2964 N   0  0  0  0  0  0  0  0  0  0  0  0
   -3.1102   -0.8685   -0.2946 H   0  0  0  0  0  0  0  0  0  0  0  0
   -1.1292   -0.4875    0.3524 C   0  0  1  0  0  0  0  0  0  0  0  0
   -0.4343   -0.9134   -0.3723 H   0  0  0  0  0  0  0  0  0  0  0  0
   -1.3983    0.9761   -0.0381 C   0  0  0  0  0  0  0  0  0  0  0  0
   -2.1984    1.3692    0.5905 H   0  0  0  0  0  0  0  0  0  0  0  0
   -0.5032    1.5663    0.1650 H   0  0  0  0  0  0  0  0  0  0  0  0
   -1.8040    1.1618   -1.4875 C   0  0  0  0  0  0  0  0  0  0  0  0
   -0.8259    1.1917   -2.5017 C   0  0  0  0  0  0  0  0  0  0  0  0
    0.2222    1.1081   -2.2457 H   0  0  0  0  0  0  0  0  0  0  0  0
   -1.2106    1.3237   -3.8502 C   0  0  0  0  0  0  0  0  0  0  0  0
   -0.4589    1.3478   -4.6242 H   0  0  0  0  0  0  0  0  0  0  0  0
   -2.5786    1.4225   -4.1854 C   0  0  0  0  0  0  0  0  0  0  0  0
   -2.9600    1.5472   -5.4831 O   0  0  0  0  0  0  0  0  0  0  0  0
   -2.2107    1.6483   -6.0716 H   0  0  0  0  0  0  0  0  0  0  0  0
   -3.5563    1.3875   -3.1696 C   0  0  0  0  0  0  0  0  0  0  0  0
   -4.5988    1.4683   -3.4381 H   0  0  0  0  0  0  0  0  0  0  0  0
   -3.1683    1.2600   -1.8223 C   0  0  0  0  0  0  0  0  0  0  0  0
   -3.9195    1.2425   -1.0416 H   0  0  0  0  0  0  0  0  0  0  0  0
   -0.4816   -0.5974    1.7428 C   0  0  0  0  0  0  0  0  0  0  0  0
   -0.2800    0.4147    2.4144 O   0  0  0  0  0  0  0  0  0  0  0  0
   -0.1532   -1.8220    2.1735 N   0  0  0  0  0  0  0  0  0  0  0  0
   -0.2973   -2.5939    1.5387 H   0  0  0  0  0  0  0  0  0  0  0  0
    0.4696   -2.1024    3.4651 C   0  0  0  0  0  0  0  0  0  0  0  0
   -0.0948   -1.6153    4.2622 H   0  0  0  0  0  0  0  0  0  0  0  0
    0.4919   -3.1783    3.6461 H   0  0  0  0  0  0  0  0  0  0  0  0
    1.4903   -1.7143    3.4727 H   0  0  0  0  0  0  0  0  0  0  0  0
  5  6  2  0  0  0  0
  5  7  1  0  0  0  0
  2  3  1  0  0  0  0
  2  4  1  0  0  0  0
  2  5  1  0  0  0  0
  1  2  1  0  0  0  0
 26 27  2  0  0  0  0
 26 28  1  0  0  0  0
 24 25  1  0  0  0  0
 22 23  1  0  0  0  0
 22 24  2  0  0  0  0
 20 21  1  0  0  0  0
 19 20  1  0  0  0  0
 19 22  1  0  0  0  0
 17 18  1  0  0  0  0
 17 19  2  0  0  0  0
 15 16  1  0  0  0  0
 15 17  1  0  0  0  0
 14 15  2  0  0  0  0
 14 24  1  0  0  0  0
 11 12  1  0  0  0  0
 11 13  1  0  0  0  0
 11 14  1  0  0  0  0
  9 10  1  0  0  0  0
  9 11  1  0  0  0  0
  9 26  1  0  0  0  0
  7  8  1  0  0  0  0
  7  9  1  0  0  0  0
 30 31  1  0  0  0  0
 30 32  1  0  0  0  0
 30 33  1  0  0  0  0
 28 29  1  0  0  0  0
 28 30  1  0  0  0  0
M  END
$$$$
default_name
  -OEChem-01062215323D

 33 33  0     1  0  0  0  0  0999 V2000
   -4.0702   -3.8485    1.4554 H   0  0  0  0  0  0  0  0  0  0  0  0
   -4.0012   -2.9605    0.8284 C   0  0  0  0  0  0  0  0  0  0  0  0
   -4.7652   -2.2435    1.1234 H   0  0  0  0  0  0  0  0  0  0  0  0
   -4.1352   -3.2385   -0.2156 H   0  0  0  0  0  0  0  0  0  0  0  0
   -2.6362   -2.3395    1.0094 C   0  0  0  0  0  0  0  0  0  0  0  0
   -1.8292   -2.8395    1.7814 O   0  0  0  0  0  0  0  0  0  0  0  0
   -2.3832   -1.2445    0.2964 N   0  0  0  0  0  0  0  0  0  0  0  0
   -3.1102   -0.8685   -0.2946 H   0  0  0  0  0  0  0  0  0  0  0  0
   -1.1292   -0.4875    0.3524 C   0  0  1  0  0  0  0  0  0  0  0  0
   -0.4343   -0.9134   -0.3723 H   0  0  0  0  0  0  0  0  0  0  0  0
   -1.3983    0.9761   -0.0381 C   0  0  0  0  0  0  0  0  0  0  0  0
   -2.1984    1.3692    0.5905 H   0  0  0  0  0  0  0  0  0  0  0  0
   -0.5032    1.5663    0.1650 H   0  0  0  0  0  0  0  0  0  0  0  0
   -1.8040    1.1618   -1.4875 C   0  0  0  0  0  0  0  0  0  0  0  0
   -0.8259    1.1917   -2.5017 C   0  0  0  0  0  0  0  0  0  0  0  0
    0.2222    1.1081   -2.2457 H   0  0  0  0  0  0  0  0  0  0  0  0
   -1.2106    1.3237   -3.8502 C   0  0  0  0  0  0  0  0  0  0  0  0
   -0.4589    1.3478   -4.6242 H   0  0  0  0  0  0  0  0  0  0  0  0
   -2.5786    1.4225   -4.1854 C   0  0  0  0  0  0  0  0  0  0  0  0
   -2.9600    1.5472   -5.4831 O   0  0  0  0  0  0  0  0  0  0  0  0
   -2.2107    1.6483   -6.0716 H   0  0  0  0  0  0  0  0  0  0  0  0
   -3.5563    1.3875   -3.1696 C   0  0  0  0  0  0  0  0  0  0  0  0
   -4.5988    1.4683   -3.4381 H   0  0  0  0  0  0  0  0  0  0  0  0
   -3.1683    1.2600   -1.8223 C   0  0  0  0  0  0  0  0  0  0  0  0
   -3.9195    1.2425   -1.0416 H   0  0  0  0  0  0  0  0  0  0  0  0
   -0.4816   -0.5974    1.7428 C   0  0  0  0  0  0  0  0  0  0  0  0
   -0.5273    0.3527    2.5247 O   0  0  0  0  0  0  0  0  0  0  0  0
    0.1231   -1.7519    2.0504 N   0  0  0  0  0  0  0  0  0  0  0  0
    0.1679   -2.4606    1.3326 H   0  0  0  0  0  0  0  0  0  0  0  0
    0.7871   -2.0213    3.3236 C   0  0  0  0  0  0  0  0  0  0  0  0
    0.1197   -1.7709    4.1500 H   0  0  0  0  0  0  0  0  0  0  0  0
    1.0607   -3.0756    3.3892 H   0  0  0  0  0  0  0  0  0  0  0  0
    1.6879   -1.4094    3.4047 H   0  0  0  0  0  0  0  0  0  0  0  0
  5  6  2  0  0  0  0
  5  7  1  0  0  0  0
  2  3  1  0  0  0  0
  2  4  1  0  0  0  0
  2  5  1  0  0  0  0
  1  2  1  0  0  0  0
 26 27  2  0  0  0  0
 26 28  1  0  0  0  0
 24 25  1  0  0  0  0
 22 23  1  0  0  0  0
 22 24  2  0  0  0  0
 20 21  1  0  0  0  0
 19 20  1  0  0  0  0
 19 22  1  0  0  0  0
 17 18  1  0  0  0  0
 17 19  2  0  0  0  0
 15 16  1  0  0  0  0
 15 17  1  0  0  0  0
 14 15  2  0  0  0  0
 14 24  1  0  0  0  0
 11 12  1  0  0  0  0
 11 13  1  0  0  0  0
 11 14  1  0  0  0  0
  9 10  1  0  0  0  0
  9 11  1  0  0  0  0
  9 26  1  0  0  0  0
  7  8  1  0  0  0  0
  7  9  1  0  0  0  0
 30 31  1  0  0  0  0
 30 32  1  0  0  0  0
 30 33  1  0  0  0  0
 28 29  1  0  0  0  0
 28 30  1  0  0  0  0
M  END
$$$$
default_name
  -OEChem-01062215323D

 33 33  0     1  0  0  0  0  0999 V2000
   -4.0702   -3.8485    1.4554 H   0  0  0  0  0  0  0  0  0  0  0  0
   -4.0012   -2.9605    0.8284 C   0  0  0  0  0  0  0  0  0  0  0  0
   -4.7652   -2.2435    1.1234 H   0  0  0  0  0  0  0  0  0  0  0  0
   -4.1352   -3.2385   -0.2156 H   0  0  0  0  0  0  0  0  0  0  0  0
   -2.6362   -2.3395    1.0094 C   0  0  0  0  0  0  0  0  0  0  0  0
   -1.8292   -2.8395    1.7814 O   0  0  0  0  0  0  0  0  0  0  0  0
   -2.3832   -1.2445    0.2964 N   0  0  0  0  0  0  0  0  0  0  0  0
   -3.1102   -0.8685   -0.2946 H   0  0  0  0  0  0  0  0  0  0  0  0
   -1.1292   -0.4875    0.3524 C   0  0  1  0  0  0  0  0  0  0  0  0
   -0.4343   -0.9134   -0.3723 H   0  0  0  0  0  0  0  0  0  0  0  0
   -1.3983    0.9761   -0.0381 C   0  0  0  0  0  0  0  0  0  0  0  0
   -2.1984    1.3692    0.5905 H   0  0  0  0  0  0  0  0  0  0  0  0
   -0.5032    1.5663    0.1650 H   0  0  0  0  0  0  0  0  0  0  0  0
   -1.8040    1.1618   -1.4875 C   0  0  0  0  0  0  0  0  0  0  0  0
   -0.8259    1.1917   -2.5017 C   0  0  0  0  0  0  0  0  0  0  0  0
    0.2222    1.1081   -2.2457 H   0  0  0  0  0  0  0  0  0  0  0  0
   -1.2106    1.3237   -3.8502 C   0  0  0  0  0  0  0  0  0  0  0  0
   -0.4589    1.3478   -4.6242 H   0  0  0  0  0  0  0  0  0  0  0  0
   -2.5786    1.4225   -4.1854 C   0  0  0  0  0  0  0  0  0  0  0  0
   -2.9600    1.5472   -5.4831 O   0  0  0  0  0  0  0  0  0  0  0  0
   -2.2107    1.6483   -6.0716 H   0  0  0  0  0  0  0  0  0  0  0  0
   -3.5563    1.3875   -3.1696 C   0  0  0  0  0  0  0  0  0  0  0  0
   -4.5988    1.4683   -3.4381 H   0  0  0  0  0  0  0  0  0  0  0  0
   -3.1683    1.2600   -1.8223 C   0  0  0  0  0  0  0  0  0  0  0  0
   -3.9195    1.2425   -1.0416 H   0  0  0  0  0  0  0  0  0  0  0  0
   -0.4816   -0.5974    1.7428 C   0  0  0  0  0  0  0  0  0  0  0  0
   -0.7536    0.2229    2.6199 O   0  0  0  0  0  0  0  0  0  0  0  0
    0.3758   -1.6061    1.9442 N   0  0  0  0  0  0  0  0  0  0  0  0
    0.5899   -2.2005    1.1566 H   0  0  0  0  0  0  0  0  0  0  0  0
    1.0775   -1.8532    3.2017 C   0  0  0  0  0  0  0  0  0  0  0  0
    0.3653   -1.8587    4.0286 H   0  0  0  0  0  0  0  0  0  0  0  0
    1.5908   -2.8154    3.1629 H   0  0  0  0  0  0  0  0  0  0  0  0
    1.8088   -1.0612    3.3760 H   0  0  0  0  0  0  0  0  0  0  0  0
  5  6  2  0  0  0  0
  5  7  1  0  0  0  0
  2  3  1  0  0  0  0
  2  4  1  0  0  0  0
  2  5  1  0  0  0  0
  1  2  1  0  0  0  0
 26 27  2  0  0  0  0
 26 28  1  0  0  0  0
 24 25  1  0  0  0  0
 22 23  1  0  0  0  0
 22 24  2  0  0  0  0
 20 21  1  0  0  0  0
 19 20  1  0  0  0  0
 19 22  1  0  0  0  0
 17 18  1  0  0  0  0
 17 19  2  0  0  0  0
 15 16  1  0  0  0  0
 15 17  1  0  0  0  0
 14 15  2  0  0  0  0
 14 24  1  0  0  0  0
 11 12  1  0  0  0  0
 11 13  1  0  0  0  0
 11 14  1  0  0  0  0
  9 10  1  0  0  0  0
  9 11  1  0  0  0  0
  9 26  1  0  0  0  0
  7  8  1  0  0  0  0
  7  9  1  0  0  0  0
 30 31  1  0  0  0  0
 30 32  1  0  0  0  0
 30 33  1  0  0  0  0
 28 29  1  0  0  0  0
 28 30  1  0  0  0  0
M  END
$$$$
default_name
  -OEChem-01062215323D

 33 33  0     1  0  0  0  0  0999 V2000
   -4.0702   -3.8485    1.4554 H   0  0  0  0  0  0  0  0  0  0  0  0
   -4.0012   -2.9605    0.8284 C   0  0  0  0  0  0  0  0  0  0  0  0
   -4.7652   -2.2435    1.1234 H   0  0  0  0  0  0  0  0  0  0  0  0
   -4.1352   -3.2385   -0.2156 H   0  0  0  0  0  0  0  0  0  0  0  0
   -2.6362   -2.3395    1.0094 C   0  0  0  0  0  0  0  0  0  0  0  0
   -1.8292   -2.8395    1.7814 O   0  0  0  0  0  0  0  0  0  0  0  0
   -2.3832   -1.2445    0.2964 N   0  0  0  0  0  0  0  0  0  0  0  0
   -3.1102   -0.8685   -0.2946 H   0  0  0  0  0  0  0  0  0  0  0  0
   -1.1292   -0.4875    0.3524 C   0  0  1  0  0  0  0  0  0  0  0  0
   -0.4343   -0.9134   -0.3723 H   0  0  0  0  0  0  0  0  0  0  0  0
   -1.3983    0.9761   -0.0381 C   0  0  0  0  0  0  0  0  0  0  0  0
   -2.1984    1.3692    0.5905 H   0  0  0  0  0  0  0  0  0  0  0  0
   -0.5032    1.5663    0.1650 H   0  0  0  0  0  0  0  0  0  0  0  0
   -1.8040    1.1618   -1.4875 C   0  0  0  0  0  0  0  0  0  0  0  0
   -0.8259    1.1917   -2.5017 C   0  0  0  0  0  0  0  0  0  0  0  0
    0.2222    1.1081   -2.2457 H   0  0  0  0  0  0  0  0  0  0  0  0
   -1.2106    1.3237   -3.8502 C   0  0  0  0  0  0  0  0  0  0  0  0
   -0.4589    1.3478   -4.6242 H   0  0  0  0  0  0  0  0  0  0  0  0
   -2.5786    1.4225   -4.1854 C   0  0  0  0  0  0  0  0  0  0  0  0
   -2.9600    1.5472   -5.4831 O   0  0  0  0  0  0  0  0  0  0  0  0
   -2.2107    1.6483   -6.0716 H   0  0  0  0  0  0  0  0  0  0  0  0
   -3.5563    1.3875   -3.1696 C   0  0  0  0  0  0  0  0  0  0  0  0
   -4.5988    1.4683   -3.4381 H   0  0  0  0  0  0  0  0  0  0  0  0
   -3.1683    1.2600   -1.8223 C   0  0  0  0  0  0  0  0  0  0  0  0
   -3.9195    1.2425   -1.0416 H   0  0  0  0  0  0  0  0  0  0  0  0
   -0.4816   -0.5974    1.7428 C   0  0  0  0  0  0  0  0  0  0  0  0
   -0.9436    0.0341    2.6935 O   0  0  0  0  0  0  0  0  0  0  0  0
    0.5877   -1.3946    1.8622 N   0  0  0  0  0  0  0  0  0  0  0  0
    0.9399   -1.8313    1.0227 H   0  0  0  0  0  0  0  0  0  0  0  0
    1.3209   -1.6096    3.1076 C   0  0  0  0  0  0  0  0  0  0  0  0
    0.6254   -1.8728    3.9064 H   0  0  0  0  0  0  0  0  0  0  0  0
    2.0462   -2.4153    2.9824 H   0  0  0  0  0  0  0  0  0  0  0  0
    1.8445   -0.6935    3.3884 H   0  0  0  0  0  0  0  0  0  0  0  0
  5  6  2  0  0  0  0
  5  7  1  0  0  0  0
  2  3  1  0  0  0  0
  2  4  1  0  0  0  0
  2  5  1  0  0  0  0
  1  2  1  0  0  0  0
 26 27  2  0  0  0  0
 26 28  1  0  0  0  0
 24 25  1  0  0  0  0
 22 23  1  0  0  0  0
 22 24  2  0  0  0  0
 20 21  1  0  0  0  0
 19 20  1  0  0  0  0
 19 22  1  0  0  0  0
 17 18  1  0  0  0  0
 17 19  2  0  0  0  0
 15 16  1  0  0  0  0
 15 17  1  0  0  0  0
 14 15  2  0  0  0  0
 14 24  1  0  0  0  0
 11 12  1  0  0  0  0
 11 13  1  0  0  0  0
 11 14  1  0  0  0  0
  9 10  1  0  0  0  0
  9 11  1  0  0  0  0
  9 26  1  0  0  0  0
  7  8  1  0  0  0  0
  7  9  1  0  0  0  0
 30 31  1  0  0  0  0
 30 32  1  0  0  0  0
 30 33  1  0  0  0  0
 28 29  1  0  0  0  0
 28 30  1  0  0  0  0
M  END
$$$$
default_name
  -OEChem-01062215323D

 33 33  0     1  0  0  0  0  0999 V2000
   -4.0702   -3.8485    1.4554 H   0  0  0  0  0  0  0  0  0  0  0  0
   -4.0012   -2.9605    0.8284 C   0  0  0  0  0  0  0  0  0  0  0  0
   -4.7652   -2.2435    1.1234 H   0  0  0  0  0  0  0  0  0  0  0  0
   -4.1352   -3.2385   -0.2156 H   0  0  0  0  0  0  0  0  0  0  0  0
   -2.6362   -2.3395    1.0094 C   0  0  0  0  0  0  0  0  0  0  0  0
   -1.8292   -2.8395    1.7814 O   0  0  0  0  0  0  0  0  0  0  0  0
   -2.3832   -1.2445    0.2964 N   0  0  0  0  0  0  0  0  0  0  0  0
   -3.1102   -0.8685   -0.2946 H   0  0  0  0  0  0  0  0  0  0  0  0
   -1.1292   -0.4875    0.3524 C   0  0  1  0  0  0  0  0  0  0  0  0
   -0.4343   -0.9134   -0.3723 H   0  0  0  0  0  0  0  0  0  0  0  0
   -1.3983    0.9761   -0.0381 C   0  0  0  0  0  0  0  0  0  0  0  0
   -2.1984    1.3692    0.5905 H   0  0  0  0  0  0  0  0  0  0  0  0
   -0.5032    1.5663    0.1650 H   0  0  0  0  0  0  0  0  0  0  0  0
   -1.8040    1.1618   -1.4875 C   0  0  0  0  0  0  0  0  0  0  0  0
   -0.8259    1.1917   -2.5017 C   0  0  0  0  0  0  0  0  0  0  0  0
    0.2222    1.1081   -2.2457 H   0  0  0  0  0  0  0  0  0  0  0  0
   -1.2106    1.3237   -3.8502 C   0  0  0  0  0  0  0  0  0  0  0  0
   -0.4589    1.3478   -4.6242 H   0  0  0  0  0  0  0  0  0  0  0  0
   -2.5786    1.4225   -4.1854 C   0  0  0  0  0  0  0  0  0  0  0  0
   -2.9600    1.5472   -5.4831 O   0  0  0  0  0  0  0  0  0  0  0  0
   -2.2107    1.6483   -6.0716 H   0  0  0  0  0  0  0  0  0  0  0  0
   -3.5563    1.3875   -3.1696 C   0  0  0  0  0  0  0  0  0  0  0  0
   -4.5988    1.4683   -3.4381 H   0  0  0  0  0  0  0  0  0  0  0  0
   -3.1683    1.2600   -1.8223 C   0  0  0  0  0  0  0  0  0  0  0  0
   -3.9195    1.2425   -1.0416 H   0  0  0  0  0  0  0  0  0  0  0  0
   -0.4816   -0.5974    1.7428 C   0  0  0  0  0  0  0  0  0  0  0  0
   -1.0844   -0.2006    2.7405 O   0  0  0  0  0  0  0  0  0  0  0  0
    0.7444   -1.1317    1.8100 N   0  0  0  0  0  0  0  0  0  0  0  0
    1.1940   -1.3782    0.9402 H   0  0  0  0  0  0  0  0  0  0  0  0
    1.5007   -1.3071    3.0477 C   0  0  0  0  0  0  0  0  0  0  0  0
    0.8822   -1.8123    3.7916 H   0  0  0  0  0  0  0  0  0  0  0  0
    2.3957   -1.9026    2.8601 H   0  0  0  0  0  0  0  0  0  0  0  0
    1.7928   -0.3313    3.4411 H   0  0  0  0  0  0  0  0  0  0  0  0
  5  6  2  0  0  0  0
  5  7  1  0  0  0  0
  2  3  1  0  0  0  0
  2  4  1  0  0  0  0
  2  5  1  0  0  0  0
  1  2  1  0  0  0  0
 26 27  2  0  0  0  0
 26 28  1  0  0  0  0
 24 25  1  0  0  0  0
 22 23  1  0  0  0  0
 22 24  2  0  0  0  0
 20 21  1  0  0  0  0
 19 20  1  0  0  0  0
 19 22  1  0  0  0  0
 17 18  1  0  0  0  0
 17 19  2  0  0  0  0
 15 16  1  0  0  0  0
 15 17  1  0  0  0  0
 14 15  2  0  0  0  0
 14 24  1  0  0  0  0
 11 12  1  0  0  0  0
 11 13  1  0  0  0  0
 11 14  1  0  0  0  0
  9 10  1  0  0  0  0
  9 11  1  0  0  0  0
  9 26  1  0  0  0  0
  7  8  1  0  0  0  0
  7  9  1  0  0  0  0
 30 31  1  0  0  0  0
 30 32  1  0  0  0  0
 30 33  1  0  0  0  0
 28 29  1  0  0  0  0
 28 30  1  0  0  0  0
M  END
$$$$
default_name
  -OEChem-01062215323D

 33 33  0     1  0  0  0  0  0999 V2000
   -4.0702   -3.8485    1.4554 H   0  0  0  0  0  0  0  0  0  0  0  0
   -4.0012   -2.9605    0.8284 C   0  0  0  0  0  0  0  0  0  0  0  0
   -4.7652   -2.2435    1.1234 H   0  0  0  0  0  0  0  0  0  0  0  0
   -4.1352   -3.2385   -0.2156 H   0  0  0  0  0  0  0  0  0  0  0  0
   -2.6362   -2.3395    1.0094 C   0  0  0  0  0  0  0  0  0  0  0  0
   -1.8292   -2.8395    1.7814 O   0  0  0  0  0  0  0  0  0  0  0  0
   -2.3832   -1.2445    0.2964 N   0  0  0  0  0  0  0  0  0  0  0  0
   -3.1102   -0.8685   -0.2946 H   0  0  0  0  0  0  0  0  0  0  0  0
   -1.1292   -0.4875    0.3524 C   0  0  1  0  0  0  0  0  0  0  0  0
   -0.4343   -0.9134   -0.3723 H   0  0  0  0  0  0  0  0  0  0  0  0
   -1.3983    0.9761   -0.0381 C   0  0  0  0  0  0  0  0  0  0  0  0
   -2.1984    1.3692    0.5905 H   0  0  0  0  0  0  0  0  0  0  0  0
   -0.5032    1.5663    0.1650 H   0  0  0  0  0  0  0  0  0  0  0  0
   -1.8040    1.1618   -1.4875 C   0  0  0  0  0  0  0  0  0  0  0  0
   -0.8259    1.1917   -2.5017 C   0  0  0  0  0  0  0  0  0  0  0  0
    0.2222    1.1081   -2.2457 H   0  0  0  0  0  0  0  0  0  0  0  0
   -1.2106    1.3237   -3.8502 C   0  0  0  0  0  0  0  0  0  0  0  0
   -0.4589    1.3478   -4.6242 H   0  0  0  0  0  0  0  0  0  0  0  0
   -2.5786    1.4225   -4.1854 C   0  0  0  0  0  0  0  0  0  0  0  0
   -2.9600    1.5472   -5.4831 O   0  0  0  0  0  0  0  0  0  0  0  0
   -2.2107    1.6483   -6.0716 H   0  0  0  0  0  0  0  0  0  0  0  0
   -3.5563    1.3875   -3.1696 C   0  0  0  0  0  0  0  0  0  0  0  0
   -4.5988    1.4683   -3.4381 H   0  0  0  0  0  0  0  0  0  0  0  0
   -3.1683    1.2600   -1.8223 C   0  0  0  0  0  0  0  0  0  0  0  0
   -3.9195    1.2425   -1.0416 H   0  0  0  0  0  0  0  0  0  0  0  0
   -0.4816   -0.5974    1.7428 C   0  0  0  0  0  0  0  0  0  0  0  0
   -1.1663   -0.4655    2.7577 O   0  0  0  0  0  0  0  0  0  0  0  0
    0.8353   -0.8354    1.7911 N   0  0  0  0  0  0  0  0  0  0  0  0
    1.3350   -0.8721    0.9145 H   0  0  0  0  0  0  0  0  0  0  0  0
    1.6048   -0.9663    3.0262 C   0  0  0  0  0  0  0  0  0  0  0  0
    1.1182   -1.6812    3.6920 H   0  0  0  0  0  0  0  0  0  0  0  0
    2.6157   -1.3122    2.8044 H   0  0  0  0  0  0  0  0  0  0  0  0
    1.6571    0.0007    3.5306 H   0  0  0  0  0  0  0  0  0  0  0  0
  5  6  2  0  0  0  0
  5  7  1  0  0  0  0
  2  3  1  0  0  0  0
  2  4  1  0  0  0  0
  2  5  1  0  0  0  0
  1  2  1  0  0  0  0
 26 27  2  0  0  0  0
 26 28  1  0  0  0  0
 24 25  1  0  0  0  0
 22 23  1  0  0  0  0
 22 24  2  0  0  0  0
 20 21  1  0  0  0  0
 19 20  1  0  0  0  0
 19 22  1  0  0  0  0
 17 18  1  0  0  0  0
 17 19  2  0  0  0  0
 15 16  1  0  0  0  0
 15 17  1  0  0  0  0
 14 15  2  0  0  0  0
 14 24  1  0  0  0  0
 11 12  1  0  0  0  0
 11 13  1  0  0  0  0
 11 14  1  0  0  0  0
  9 10  1  0  0  0  0
  9 11  1  0  0  0  0
  9 26  1  0  0  0  0
  7  8  1  0  0  0  0
  7  9  1  0  0  0  0
 30 31  1  0  0  0  0
 30 32  1  0  0  0  0
 30 33  1  0  0  0  0
 28 29  1  0  0  0  0
 28 30  1  0  0  0  0
M  END
$$$$
default_name
  -OEChem-01062215323D

 33 33  0     1  0  0  0  0  0999 V2000
   -4.0702   -3.8485    1.4554 H   0  0  0  0  0  0  0  0  0  0  0  0
   -4.0012   -2.9605    0.8284 C   0  0  0  0  0  0  0  0  0  0  0  0
   -4.7652   -2.2435    1.1234 H   0  0  0  0  0  0  0  0  0  0  0  0
   -4.1352   -3.2385   -0.2156 H   0  0  0  0  0  0  0  0  0  0  0  0
   -2.6362   -2.3395    1.0094 C   0  0  0  0  0  0  0  0  0  0  0  0
   -1.8292   -2.8395    1.7814 O   0  0  0  0  0  0  0  0  0  0  0  0
   -2.3832   -1.2445    0.2964 N   0  0  0  0  0  0  0  0  0  0  0  0
   -3.1102   -0.8685   -0.2946 H   0  0  0  0  0  0  0  0  0  0  0  0
   -1.1292   -0.4875    0.3524 C   0  0  1  0  0  0  0  0  0  0  0  0
   -0.4343   -0.9134   -0.3723 H   0  0  0  0  0  0  0  0  0  0  0  0
   -1.3983    0.9761   -0.0381 C   0  0  0  0  0  0  0  0  0  0  0  0
   -2.1984    1.3692    0.5905 H   0  0  0  0  0  0  0  0  0  0  0  0
   -0.5032    1.5663    0.1650 H   0  0  0  0  0  0  0  0  0  0  0  0
   -1.8040    1.1618   -1.4875 C   0  0  0  0  0  0  0  0  0  0  0  0
   -0.8259    1.1917   -2.5017 C   0  0  0  0  0  0  0  0  0  0  0  0
    0.2222    1.1081   -2.2457 H   0  0  0  0  0  0  0  0  0  0  0  0
   -1.2106    1.3237   -3.8502 C   0  0  0  0  0  0  0  0  0  0  0  0
   -0.4589    1.3478   -4.6242 H   0  0  0  0  0  0  0  0  0  0  0  0
   -2.5786    1.4225   -4.1854 C   0  0  0  0  0  0  0  0  0  0  0  0
   -2.9600    1.5472   -5.4831 O   0  0  0  0  0  0  0  0  0  0  0  0
   -2.2107    1.6483   -6.0716 H   0  0  0  0  0  0  0  0  0  0  0  0
   -3.5563    1.3875   -3.1696 C   0  0  0  0  0  0  0  0  0  0  0  0
   -4.5988    1.4683   -3.4381 H   0  0  0  0  0  0  0  0  0  0  0  0
   -3.1683    1.2600   -1.8223 C   0  0  0  0  0  0  0  0  0  0  0  0
   -3.9195    1.2425   -1.0416 H   0  0  0  0  0  0  0  0  0  0  0  0
   -0.4816   -0.5974    1.7428 C   0  0  0  0  0  0  0  0  0  0  0  0
   -1.1837   -0.7423    2.7439 O   0  0  0  0  0  0  0  0  0  0  0  0
    0.8540   -0.5259    1.8069 N   0  0  0  0  0  0  0  0  0  0  0  0
    1.3532   -0.3474    0.9475 H   0  0  0  0  0  0  0  0  0  0  0  0
    1.6259   -0.6105    3.0445 C   0  0  0  0  0  0  0  0  0  0  0  0
    1.3173   -1.4885    3.6145 H   0  0  0  0  0  0  0  0  0  0  0  0
    2.6910   -0.6844    2.8190 H   0  0  0  0  0  0  0  0  0  0  0  0
    1.4467    0.2799    3.6507 H   0  0  0  0  0  0  0  0  0  0  0  0
  5  6  2  0  0  0  0
  5  7  1  0  0  0  0
  2  3  1  0  0  0  0
  2  4  1  0  0  0  0
  2  5  1  0  0  0  0
  1  2  1  0  0  0  0
 26 27  2  0  0  0  0
 26 28  1  0  0  0  0
 24 25  1  0  0  0  0
 22 23  1  0  0  0  0
 22 24  2  0  0  0  0
 20 21  1  0  0  0  0
 19 20  1  0  0  0  0
 19 22  1  0  0  0  0
 17 18  1  0  0  0  0
 17 19  2  0  0  0  0
 15 16  1  0  0  0  0
 15 17  1  0  0  0  0
 14 15  2  0  0  0  0
 14 24  1  0  0  0  0
 11 12  1  0  0  0  0
 11 13  1  0  0  0  0
 11 14  1  0  0  0  0
  9 10  1  0  0  0  0
  9 11  1  0  0  0  0
  9 26  1  0  0  0  0
  7  8  1  0  0  0  0
  7  9  1  0  0  0  0
 30 31  1  0  0  0  0
 30 32  1  0  0  0  0
 30 33  1  0  0  0  0
 28 29  1  0  0  0  0
 28 30  1  0  0  0  0
M  END
$$$$
default_name
  -OEChem-01062215323D

 33 33  0     1  0  0  0  0  0999 V2000
   -4.0702   -3.8485    1.4554 H   0  0  0  0  0  0  0  0  0  0  0  0
   -4.0012   -2.9605    0.8284 C   0  0  0  0  0  0  0  0  0  0  0  0
   -4.7652   -2.2435    1.1234 H   0  0  0  0  0  0  0  0  0  0  0  0
   -4.1352   -3.2385   -0.2156 H   0  0  0  0  0  0  0  0  0  0  0  0
   -2.6362   -2.3395    1.0094 C   0  0  0  0  0  0  0  0  0  0  0  0
   -1.8292   -2.8395    1.7814 O   0  0  0  0  0  0  0  0  0  0  0  0
   -2.3832   -1.2445    0.2964 N   0  0  0  0  0  0  0  0  0  0  0  0
   -3.1102   -0.8685   -0.2946 H   0  0  0  0  0  0  0  0  0  0  0  0
   -1.1292   -0.4875    0.3524 C   0  0  1  0  0  0  0  0  0  0  0  0
   -0.4343   -0.9134   -0.3723 H   0  0  0  0  0  0  0  0  0  0  0  0
   -1.3983    0.9761   -0.0381 C   0  0  0  0  0  0  0  0  0  0  0  0
   -2.1984    1.3692    0.5905 H   0  0  0  0  0  0  0  0  0  0  0  0
   -0.5032    1.5663    0.1650 H   0  0  0  0  0  0  0  0  0  0  0  0
   -1.8040    1.1618   -1.4875 C   0  0  0  0  0  0  0  0  0  0  0  0
   -0.8259    1.1917   -2.5017 C   0  0  0  0  0  0  0  0  0  0  0  0
    0.2222    1.1081   -2.2457 H   0  0  0  0  0  0  0  0  0  0  0  0
   -1.2106    1.3237   -3.8502 C   0  0  0  0  0  0  0  0  0  0  0  0
   -0.4589    1.3478   -4.6242 H   0  0  0  0  0  0  0  0  0  0  0  0
   -2.5786    1.4225   -4.1854 C   0  0  0  0  0  0  0  0  0  0  0  0
   -2.9600    1.5472   -5.4831 O   0  0  0  0  0  0  0  0  0  0  0  0
   -2.2107    1.6483   -6.0716 H   0  0  0  0  0  0  0  0  0  0  0  0
   -3.5563    1.3875   -3.1696 C   0  0  0  0  0  0  0  0  0  0  0  0
   -4.5988    1.4683   -3.4381 H   0  0  0  0  0  0  0  0  0  0  0  0
   -3.1683    1.2600   -1.8223 C   0  0  0  0  0  0  0  0  0  0  0  0
   -3.9195    1.2425   -1.0416 H   0  0  0  0  0  0  0  0  0  0  0  0
   -0.4816   -0.5974    1.7428 C   0  0  0  0  0  0  0  0  0  0  0  0
   -1.1355   -1.0124    2.7001 O   0  0  0  0  0  0  0  0  0  0  0  0
    0.7994   -0.2243    1.8561 N   0  0  0  0  0  0  0  0  0  0  0  0
    1.2475    0.1600    1.0369 H   0  0  0  0  0  0  0  0  0  0  0  0
    1.5627   -0.2638    3.1014 C   0  0  0  0  0  0  0  0  0  0  0  0
    1.4659   -1.2474    3.5643 H   0  0  0  0  0  0  0  0  0  0  0  0
    2.6165   -0.0620    2.9029 H   0  0  0  0  0  0  0  0  0  0  0  0
    1.1759    0.4873    3.7933 H   0  0  0  0  0  0  0  0  0  0  0  0
  5  6  2  0  0  0  0
  5  7  1  0  0  0  0
  2  3  1  0  0  0  0
  2  4  1  0  0  0  0
  2  5  1  0  0  0  0
  1  2  1  0  0  0  0
 26 27  2  0  0  0  0
 26 28  1  0  0  0  0
 24 25  1  0  0  0  0
 22 23  1  0  0  0  0
 22 24  2  0  0  0  0
 20 21  1  0  0  0  0
 19 20  1  0  0  0  0
 19 22  1  0  0  0  0
 17 18  1  0  0  0  0
 17 19  2  0  0  0  0
 15 16  1  0  0  0  0
 15 17  1  0  0  0  0
 14 15  2  0  0  0  0
 14 24  1  0  0  0  0
 11 12  1  0  0  0  0
 11 13  1  0  0  0  0
 11 14  1  0  0  0  0
  9 10  1  0  0  0  0
  9 11  1  0  0  0  0
  9 26  1  0  0  0  0
  7  8  1  0  0  0  0
  7  9  1  0  0  0  0
 30 31  1  0  0  0  0
 30 32  1  0  0  0  0
 30 33  1  0  0  0  0
 28 29  1  0  0  0  0
 28 30  1  0  0  0  0
M  END
$$$$
default_name
  -OEChem-01062215323D

 33 33  0     1  0  0  0  0  0999 V2000
   -4.0702   -3.8485    1.4554 H   0  0  0  0  0  0  0  0  0  0  0  0
   -4.0012   -2.9605    0.8284 C   0  0  0  0  0  0  0  0  0  0  0  0
   -4.7652   -2.2435    1.1234 H   0  0  0  0  0  0  0  0  0  0  0  0
   -4.1352   -3.2385   -0.2156 H   0  0  0  0  0  0  0  0  0  0  0  0
   -2.6362   -2.3395    1.0094 C   0  0  0  0  0  0  0  0  0  0  0  0
   -1.8292   -2.8395    1.7814 O   0  0  0  0  0  0  0  0  0  0  0  0
   -2.3832   -1.2445    0.2964 N   0  0  0  0  0  0  0  0  0  0  0  0
   -3.1102   -0.8685   -0.2946 H   0  0  0  0  0  0  0  0  0  0  0  0
   -1.1292   -0.4875    0.3524 C   0  0  1  0  0  0  0  0  0  0  0  0
   -0.5406   -0.7255   -0.5343 H   0  0  0  0  0  0  0  0  0  0  0  0
   -1.4409    1.0190    0.3359 C   0  0  0  0  0  0  0  0  0  0  0  0
   -2.1469    1.2436    1.1364 H   0  0  0  0  0  0  0  0  0  0  0  0
   -0.5235    1.5720    0.5445 H   0  0  0  0  0  0  0  0  0  0  0  0
   -2.0373    1.5099   -0.9692 C   0  0  0  0  0  0  0  0  0  0  0  0
   -1.2047    1.7873   -2.0719 C   0  0  0  0  0  0  0  0  0  0  0  0
   -0.1321    1.6755   -1.9820 H   0  0  0  0  0  0  0  0  0  0  0  0
   -1.7669    2.2042   -3.2942 C   0  0  0  0  0  0  0  0  0  0  0  0
   -1.1262    2.4172   -4.1361 H   0  0  0  0  0  0  0  0  0  0  0  0
   -3.1671    2.3403   -3.4147 C   0  0  0  0  0  0  0  0  0  0  0  0
   -3.7192    2.7388   -4.5901 O   0  0  0  0  0  0  0  0  0  0  0  0
   -3.0556    2.9860   -5.2354 H   0  0  0  0  0  0  0  0  0  0  0  0
   -3.9991    2.0575   -2.3116 C   0  0  0  0  0  0  0  0  0  0  0  0
   -5.0679    2.1696   -2.4149 H   0  0  0  0  0  0  0  0  0  0  0  0
   -3.4338    1.6455   -1.0899 C   0  0  0  0  0  0  0  0  0  0  0  0
   -4.0730    1.4374   -0.2401 H   0  0  0  0  0  0  0  0  0  0  0  0
   -0.3007   -0.8854    1.5852 C   0  0  0  0  0  0  0  0  0  0  0  0
   -0.7230   -1.7379    2.3670 O   0  0  0  0  0  0  0  0  0  0  0  0
    0.8748   -0.2690    1.7617 N   0  0  0  0  0  0  0  0  0  0  0  0
    1.1220    0.4599    1.1081 H   0  0  0  0  0  0  0  0  0  0  0  0
    1.7818   -0.5268    2.8778 C   0  0  0  0  0  0  0  0  0  0  0  0
    1.9573   -1.5998    2.9725 H   0  0  0  0  0  0  0  0  0  0  0  0
    2.7340   -0.0199    2.7132 H   0  0  0  0  0  0  0  0  0  0  0  0
    1.3352   -0.1629    3.8055 H   0  0  0  0  0  0  0  0  0  0  0  0
  5  6  2  0  0  0  0
  5  7  1  0  0  0  0
  2  3  1  0  0  0  0
  2  4  1  0  0  0  0
  2  5  1  0  0  0  0
  1  2  1  0  0  0  0
 26 27  2  0  0  0  0
 26 28  1  0  0  0  0
 24 25  1  0  0  0  0
 22 23  1  0  0  0  0
 22 24  2  0  0  0  0
 20 21  1  0  0  0  0
 19 20  1  0  0  0  0
 19 22  1  0  0  0  0
 17 18  1  0  0  0  0
 17 19  2  0  0  0  0
 15 16  1  0  0  0  0
 15 17  1  0  0  0  0
 14 15  2  0  0  0  0
 14 24  1  0  0  0  0
 11 12  1  0  0  0  0
 11 13  1  0  0  0  0
 11 14  1  0  0  0  0
  9 10  1  0  0  0  0
  9 11  1  0  0  0  0
  9 26  1  0  0  0  0
  7  8  1  0  0  0  0
  7  9  1  0  0  0  0
 30 31  1  0  0  0  0
 30 32  1  0  0  0  0
 30 33  1  0  0  0  0
 28 29  1  0  0  0  0
 28 30  1  0  0  0  0
M  END
$$$$
default_name
  -OEChem-01062215323D

 33 33  0     1  0  0  0  0  0999 V2000
   -4.0702   -3.8485    1.4554 H   0  0  0  0  0  0  0  0  0  0  0  0
   -4.0012   -2.9605    0.8284 C   0  0  0  0  0  0  0  0  0  0  0  0
   -4.7652   -2.2435    1.1234 H   0  0  0  0  0  0  0  0  0  0  0  0
   -4.1352   -3.2385   -0.2156 H   0  0  0  0  0  0  0  0  0  0  0  0
   -2.6362   -2.3395    1.0094 C   0  0  0  0  0  0  0  0  0  0  0  0
   -1.8292   -2.8395    1.7814 O   0  0  0  0  0  0  0  0  0  0  0  0
   -2.3832   -1.2445    0.2964 N   0  0  0  0  0  0  0  0  0  0  0  0
   -3.1102   -0.8685   -0.2946 H   0  0  0  0  0  0  0  0  0  0  0  0
   -1.1292   -0.4875    0.3524 C   0  0  1  0  0  0  0  0  0  0  0  0
   -0.5406   -0.7255   -0.5343 H   0  0  0  0  0  0  0  0  0  0  0  0
   -1.4409    1.0190    0.3359 C   0  0  0  0  0  0  0  0  0  0  0  0
   -2.1469    1.2436    1.1364 H   0  0  0  0  0  0  0  0  0  0  0  0
   -0.5235    1.5720    0.5445 H   0  0  0  0  0  0  0  0  0  0  0  0
   -2.0373    1.5099   -0.9692 C   0  0  0  0  0  0  0  0  0  0  0  0
   -1.2047    1.7873   -2.0719 C   0  0  0  0  0  0  0  0  0  0  0  0
   -0.1321    1.6755   -1.9820 H   0  0  0  0  0  0  0  0  0  0  0  0
   -1.7669    2.2042   -3.2942 C   0  0  0  0  0  0  0  0  0  0  0  0
   -1.1262    2.4172   -4.1361 H   0  0  0  0  0  0  0  0  0  0  0  0
   -3.1671    2.3403   -3.4147 C   0  0  0  0  0  0  0  0  0  0  0  0
   -3.7192    2.7388   -4.5901 O   0  0  0  0  0  0  0  0  0  0  0  0
   -3.0556    2.9860   -5.2354 H   0  0  0  0  0  0  0  0  0  0  0  0
   -3.9991    2.0575   -2.3116 C   0  0  0  0  0  0  0  0  0  0  0  0
   -5.0679    2.1696   -2.4149 H   0  0  0  0  0  0  0  0  0  0  0  0
   -3.4338    1.6455   -1.0899 C   0  0  0  0  0  0  0  0  0  0  0  0
   -4.0730    1.4374   -0.2401 H   0  0  0  0  0  0  0  0  0  0  0  0
   -0.3007   -0.8854    1.5852 C   0  0  0  0  0  0  0  0  0  0  0  0
   -0.5727   -1.9109    2.2101 O   0  0  0  0  0  0  0  0  0  0  0  0
    0.7063   -0.0761    1.9372 N   0  0  0  0  0  0  0  0  0  0  0  0
    0.8270    0.7755    1.4082 H   0  0  0  0  0  0  0  0  0  0  0  0
    1.5877   -0.3054    3.0797 C   0  0  0  0  0  0  0  0  0  0  0  0
    1.9818   -1.3226    3.0456 H   0  0  0  0  0  0  0  0  0  0  0  0
    2.4179    0.4026    3.0620 H   0  0  0  0  0  0  0  0  0  0  0  0
    1.0263   -0.1795    4.0078 H   0  0  0  0  0  0  0  0  0  0  0  0
  5  6  2  0  0  0  0
  5  7  1  0  0  0  0
  2  3  1  0  0  0  0
  2  4  1  0  0  0  0
  2  5  1  0  0  0  0
  1  2  1  0  0  0  0
 26 27  2  0  0  0  0
 26 28  1  0  0  0  0
 24 25  1  0  0  0  0
 22 23  1  0  0  0  0
 22 24  2  0  0  0  0
 20 21  1  0  0  0  0
 19 20  1  0  0  0  0
 19 22  1  0  0  0  0
 17 18  1  0  0  0  0
 17 19  2  0  0  0  0
 15 16  1  0  0  0  0
 15 17  1  0  0  0  0
 14 15  2  0  0  0  0
 14 24  1  0  0  0  0
 11 12  1  0  0  0  0
 11 13  1  0  0  0  0
 11 14  1  0  0  0  0
  9 10  1  0  0  0  0
  9 11  1  0  0  0  0
  9 26  1  0  0  0  0
  7  8  1  0  0  0  0
  7  9  1  0  0  0  0
 30 31  1  0  0  0  0
 30 32  1  0  0  0  0
 30 33  1  0  0  0  0
 28 29  1  0  0  0  0
 28 30  1  0  0  0  0
M  END
$$$$
default_name
  -OEChem-01062215323D

 33 33  0     1  0  0  0  0  0999 V2000
   -4.0702   -3.8485    1.4554 H   0  0  0  0  0  0  0  0  0  0  0  0
   -4.0012   -2.9605    0.8284 C   0  0  0  0  0  0  0  0  0  0  0  0
   -4.7652   -2.2435    1.1234 H   0  0  0  0  0  0  0  0  0  0  0  0
   -4.1352   -3.2385   -0.2156 H   0  0  0  0  0  0  0  0  0  0  0  0
   -2.6362   -2.3395    1.0094 C   0  0  0  0  0  0  0  0  0  0  0  0
   -1.8292   -2.8395    1.7814 O   0  0  0  0  0  0  0  0  0  0  0  0
   -2.3832   -1.2445    0.2964 N   0  0  0  0  0  0  0  0  0  0  0  0
   -3.1102   -0.8685   -0.2946 H   0  0  0  0  0  0  0  0  0  0  0  0
   -1.1292   -0.4875    0.3524 C   0  0  1  0  0  0  0  0  0  0  0  0
   -0.5406   -0.7255   -0.5343 H   0  0  0  0  0  0  0  0  0  0  0  0
   -1.4409    1.0190    0.3359 C   0  0  0  0  0  0  0  0  0  0  0  0
   -2.1469    1.2436    1.1364 H   0  0  0  0  0  0  0  0  0  0  0  0
   -0.5235    1.5720    0.5445 H   0  0  0  0  0  0  0  0  0  0  0  0
   -2.0373    1.5099   -0.9692 C   0  0  0  0  0  0  0  0  0  0  0  0
   -1.2047    1.7873   -2.0719 C   0  0  0  0  0  0  0  0  0  0  0  0
   -0.1321    1.6755   -1.9820 H   0  0  0  0  0  0  0  0  0  0  0  0
   -1.7669    2.2042   -3.2942 C   0  0  0  0  0  0  0  0  0  0  0  0
   -1.1262    2.4172   -4.1361 H   0  0  0  0  0  0  0  0  0  0  0  0
   -3.1671    2.3403   -3.4147 C   0  0  0  0  0  0  0  0  0  0  0  0
   -3.7192    2.7388   -4.5901 O   0  0  0  0  0  0  0  0  0  0  0  0
   -3.0556    2.9860   -5.2354 H   0  0  0  0  0  0  0  0  0  0  0  0
   -3.9991    2.0575   -2.3116 C   0  0  0  0  0  0  0  0  0  0  0  0
   -5.0679    2.1696   -2.4149 H   0  0  0  0  0  0  0  0  0  0  0  0
   -3.4338    1.6455   -1.0899 C   0  0  0  0  0  0  0  0  0  0  0  0
   -4.0730    1.4374   -0.2401 H   0  0  0  0  0  0  0  0  0  0  0  0
   -0.3007   -0.8854    1.5852 C   0  0  0  0  0  0  0  0  0  0  0  0
   -0.3812   -2.0251    2.0445 O   0  0  0  0  0  0  0  0  0  0  0  0
    0.4918    0.0508    2.1224 N   0  0  0  0  0  0  0  0  0  0  0  0
    0.4564    0.9772    1.7224 H   0  0  0  0  0  0  0  0  0  0  0  0
    1.3408   -0.1599    3.2926 C   0  0  0  0  0  0  0  0  0  0  0  0
    1.9430   -1.0599    3.1564 H   0  0  0  0  0  0  0  0  0  0  0  0
    2.0016    0.6964    3.4367 H   0  0  0  0  0  0  0  0  0  0  0  0
    0.7177   -0.2879    4.1802 H   0  0  0  0  0  0  0  0  0  0  0  0
  5  6  2  0  0  0  0
  5  7  1  0  0  0  0
  2  3  1  0  0  0  0
  2  4  1  0  0  0  0
  2  5  1  0  0  0  0
  1  2  1  0  0  0  0
 26 27  2  0  0  0  0
 26 28  1  0  0  0  0
 24 25  1  0  0  0  0
 22 23  1  0  0  0  0
 22 24  2  0  0  0  0
 20 21  1  0  0  0  0
 19 20  1  0  0  0  0
 19 22  1  0  0  0  0
 17 18  1  0  0  0  0
 17 19  2  0  0  0  0
 15 16  1  0  0  0  0
 15 17  1  0  0  0  0
 14 15  2  0  0  0  0
 14 24  1  0  0  0  0
 11 12  1  0  0  0  0
 11 13  1  0  0  0  0
 11 14  1  0  0  0  0
  9 10  1  0  0  0  0
  9 11  1  0  0  0  0
  9 26  1  0  0  0  0
  7  8  1  0  0  0  0
  7  9  1  0  0  0  0
 30 31  1  0  0  0  0
 30 32  1  0  0  0  0
 30 33  1  0  0  0  0
 28 29  1  0  0  0  0
 28 30  1  0  0  0  0
M  END
$$$$
default_name
  -OEChem-01062215323D

 33 33  0     1  0  0  0  0  0999 V2000
   -4.0702   -3.8485    1.4554 H   0  0  0  0  0  0  0  0  0  0  0  0
   -4.0012   -2.9605    0.8284 C   0  0  0  0  0  0  0  0  0  0  0  0
   -4.7652   -2.2435    1.1234 H   0  0  0  0  0  0  0  0  0  0  0  0
   -4.1352   -3.2385   -0.2156 H   0  0  0  0  0  0  0  0  0  0  0  0
   -2.6362   -2.3395    1.0094 C   0  0  0  0  0  0  0  0  0  0  0  0
   -1.8292   -2.8395    1.7814 O   0  0  0  0  0  0  0  0  0  0  0  0
   -2.3832   -1.2445    0.2964 N   0  0  0  0  0  0  0  0  0  0  0  0
   -3.1102   -0.8685   -0.2946 H   0  0  0  0  0  0  0  0  0  0  0  0
   -1.1292   -0.4875    0.3524 C   0  0  1  0  0  0  0  0  0  0  0  0
   -0.5406   -0.7255   -0.5343 H   0  0  0  0  0  0  0  0  0  0  0  0
   -1.4409    1.0190    0.3359 C   0  0  0  0  0  0  0  0  0  0  0  0
   -2.1469    1.2436    1.1364 H   0  0  0  0  0  0  0  0  0  0  0  0
   -0.5235    1.5720    0.5445 H   0  0  0  0  0  0  0  0  0  0  0  0
   -2.0373    1.5099   -0.9692 C   0  0  0  0  0  0  0  0  0  0  0  0
   -1.2047    1.7873   -2.0719 C   0  0  0  0  0  0  0  0  0  0  0  0
   -0.1321    1.6755   -1.9820 H   0  0  0  0  0  0  0  0  0  0  0  0
   -1.7669    2.2042   -3.2942 C   0  0  0  0  0  0  0  0  0  0  0  0
   -1.1262    2.4172   -4.1361 H   0  0  0  0  0  0  0  0  0  0  0  0
   -3.1671    2.3403   -3.4147 C   0  0  0  0  0  0  0  0  0  0  0  0
   -3.7192    2.7388   -4.5901 O   0  0  0  0  0  0  0  0  0  0  0  0
   -3.0556    2.9860   -5.2354 H   0  0  0  0  0  0  0  0  0  0  0  0
   -3.9991    2.0575   -2.3116 C   0  0  0  0  0  0  0  0  0  0  0  0
   -5.0679    2.1696   -2.4149 H   0  0  0  0  0  0  0  0  0  0  0  0
   -3.4338    1.6455   -1.0899 C   0  0  0  0  0  0  0  0  0  0  0  0
   -4.0730    1.4374   -0.2401 H   0  0  0  0  0  0  0  0  0  0  0  0
   -0.3007   -0.8854    1.5852 C   0  0  0  0  0  0  0  0  0  0  0  0
   -0.1614   -2.0724    1.8815 O   0  0  0  0  0  0  0  0  0  0  0  0
    0.2459    0.1030    2.3045 N   0  0  0  0  0  0  0  0  0  0  0  0
    0.0356    1.0514    2.0292 H   0  0  0  0  0  0  0  0  0  0  0  0
    1.0579   -0.1004    3.5020 C   0  0  0  0  0  0  0  0  0  0  0  0
    1.8437   -0.8297    3.2975 H   0  0  0  0  0  0  0  0  0  0  0  0
    1.5135    0.8416    3.8117 H   0  0  0  0  0  0  0  0  0  0  0  0
    0.4307   -0.4806    4.3109 H   0  0  0  0  0  0  0  0  0  0  0  0
  5  6  2  0  0  0  0
  5  7  1  0  0  0  0
  2  3  1  0  0  0  0
  2  4  1  0  0  0  0
  2  5  1  0  0  0  0
  1  2  1  0  0  0  0
 26 27  2  0  0  0  0
 26 28  1  0  0  0  0
 24 25  1  0  0  0  0
 22 23  1  0  0  0  0
 22 24  2  0  0  0  0
 20 21  1  0  0  0  0
 19 20  1  0  0  0  0
 19 22  1  0  0  0  0
 17 18  1  0  0  0  0
 17 19  2  0  0  0  0
 15 16  1  0  0  0  0
 15 17  1  0  0  0  0
 14 15  2  0  0  0  0
 14 24  1  0  0  0  0
 11 12  1  0  0  0  0
 11 13  1  0  0  0  0
 11 14  1  0  0  0  0
  9 10  1  0  0  0  0
  9 11  1  0  0  0  0
  9 26  1  0  0  0  0
  7  8  1  0  0  0  0
  7  9  1  0  0  0  0
 30 31  1  0  0  0  0
 30 32  1  0  0  0  0
 30 33  1  0  0  0  0
 28 29  1  0  0  0  0
 28 30  1  0  0  0  0
M  END
$$$$
default_name
  -OEChem-01062215323D

 33 33  0     1  0  0  0  0  0999 V2000
   -4.0702   -3.8485    1.4554 H   0  0  0  0  0  0  0  0  0  0  0  0
   -4.0012   -2.9605    0.8284 C   0  0  0  0  0  0  0  0  0  0  0  0
   -4.7652   -2.2435    1.1234 H   0  0  0  0  0  0  0  0  0  0  0  0
   -4.1352   -3.2385   -0.2156 H   0  0  0  0  0  0  0  0  0  0  0  0
   -2.6362   -2.3395    1.0094 C   0  0  0  0  0  0  0  0  0  0  0  0
   -1.8292   -2.8395    1.7814 O   0  0  0  0  0  0  0  0  0  0  0  0
   -2.3832   -1.2445    0.2964 N   0  0  0  0  0  0  0  0  0  0  0  0
   -3.1102   -0.8685   -0.2946 H   0  0  0  0  0  0  0  0  0  0  0  0
   -1.1292   -0.4875    0.3524 C   0  0  1  0  0  0  0  0  0  0  0  0
   -0.5406   -0.7255   -0.5343 H   0  0  0  0  0  0  0  0  0  0  0  0
   -1.4409    1.0190    0.3359 C   0  0  0  0  0  0  0  0  0  0  0  0
   -2.1469    1.2436    1.1364 H   0  0  0  0  0  0  0  0  0  0  0  0
   -0.5235    1.5720    0.5445 H   0  0  0  0  0  0  0  0  0  0  0  0
   -2.0373    1.5099   -0.9692 C   0  0  0  0  0  0  0  0  0  0  0  0
   -1.2047    1.7873   -2.0719 C   0  0  0  0  0  0  0  0  0  0  0  0
   -0.1321    1.6755   -1.9820 H   0  0  0  0  0  0  0  0  0  0  0  0
   -1.7669    2.2042   -3.2942 C   0  0  0  0  0  0  0  0  0  0  0  0
   -1.1262    2.4172   -4.1361 H   0  0  0  0  0  0  0  0  0  0  0  0
   -3.1671    2.3403   -3.4147 C   0  0  0  0  0  0  0  0  0  0  0  0
   -3.7192    2.7388   -4.5901 O   0  0  0  0  0  0  0  0  0  0  0  0
   -3.0556    2.9860   -5.2354 H   0  0  0  0  0  0  0  0  0  0  0  0
   -3.9991    2.0575   -2.3116 C   0  0  0  0  0  0  0  0  0  0  0  0
   -5.0679    2.1696   -2.4149 H   0  0  0  0  0  0  0  0  0  0  0  0
   -3.4338    1.6455   -1.0899 C   0  0  0  0  0  0  0  0  0  0  0  0
   -4.0730    1.4374   -0.2401 H   0  0  0  0  0  0  0  0  0  0  0  0
   -0.3007   -0.8854    1.5852 C   0  0  0  0  0  0  0  0  0  0  0  0
    0.0717   -2.0499    1.7321 O   0  0  0  0  0  0  0  0  0  0  0  0
   -0.0147    0.0770    2.4712 N   0  0  0  0  0  0  0  0  0  0  0  0
   -0.4068    0.9930    2.3076 H   0  0  0  0  0  0  0  0  0  0  0  0
    0.7583   -0.1307    3.6936 C   0  0  0  0  0  0  0  0  0  0  0  0
    1.6905   -0.6476    3.4592 H   0  0  0  0  0  0  0  0  0  0  0  0
    0.9867    0.8283    4.1614 H   0  0  0  0  0  0  0  0  0  0  0  0
    0.1846   -0.7446    4.3911 H   0  0  0  0  0  0  0  0  0  0  0  0
  5  6  2  0  0  0  0
  5  7  1  0  0  0  0
  2  3  1  0  0  0  0
  2  4  1  0  0  0  0
  2  5  1  0  0  0  0
  1  2  1  0  0  0  0
 26 27  2  0  0  0  0
 26 28  1  0  0  0  0
 24 25  1  0  0  0  0
 22 23  1  0  0  0  0
 22 24  2  0  0  0  0
 20 21  1  0  0  0  0
 19 20  1  0  0  0  0
 19 22  1  0  0  0  0
 17 18  1  0  0  0  0
 17 19  2  0  0  0  0
 15 16  1  0  0  0  0
 15 17  1  0  0  0  0
 14 15  2  0  0  0  0
 14 24  1  0  0  0  0
 11 12  1  0  0  0  0
 11 13  1  0  0  0  0
 11 14  1  0  0  0  0
  9 10  1  0  0  0  0
  9 11  1  0  0  0  0
  9 26  1  0  0  0  0
  7  8  1  0  0  0  0
  7  9  1  0  0  0  0
 30 31  1  0  0  0  0
 30 32  1  0  0  0  0
 30 33  1  0  0  0  0
 28 29  1  0  0  0  0
 28 30  1  0  0  0  0
M  END
$$$$
default_name
  -OEChem-01062215323D

 33 33  0     1  0  0  0  0  0999 V2000
   -4.0702   -3.8485    1.4554 H   0  0  0  0  0  0  0  0  0  0  0  0
   -4.0012   -2.9605    0.8284 C   0  0  0  0  0  0  0  0  0  0  0  0
   -4.7652   -2.2435    1.1234 H   0  0  0  0  0  0  0  0  0  0  0  0
   -4.1352   -3.2385   -0.2156 H   0  0  0  0  0  0  0  0  0  0  0  0
   -2.6362   -2.3395    1.0094 C   0  0  0  0  0  0  0  0  0  0  0  0
   -1.8292   -2.8395    1.7814 O   0  0  0  0  0  0  0  0  0  0  0  0
   -2.3832   -1.2445    0.2964 N   0  0  0  0  0  0  0  0  0  0  0  0
   -3.1102   -0.8685   -0.2946 H   0  0  0  0  0  0  0  0  0  0  0  0
   -1.1292   -0.4875    0.3524 C   0  0  1  0  0  0  0  0  0  0  0  0
   -0.5406   -0.7255   -0.5343 H   0  0  0  0  0  0  0  0  0  0  0  0
   -1.4409    1.0190    0.3359 C   0  0  0  0  0  0  0  0  0  0  0  0
   -2.1469    1.2436    1.1364 H   0  0  0  0  0  0  0  0  0  0  0  0
   -0.5235    1.5720    0.5445 H   0  0  0  0  0  0  0  0  0  0  0  0
   -2.0373    1.5099   -0.9692 C   0  0  0  0  0  0  0  0  0  0  0  0
   -1.2047    1.7873   -2.0719 C   0  0  0  0  0  0  0  0  0  0  0  0
   -0.1321    1.6755   -1.9820 H   0  0  0  0  0  0  0  0  0  0  0  0
   -1.7669    2.2042   -3.2942 C   0  0  0  0  0  0  0  0  0  0  0  0
   -1.1262    2.4172   -4.1361 H   0  0  0  0  0  0  0  0  0  0  0  0
   -3.1671    2.3403   -3.4147 C   0  0  0  0  0  0  0  0  0  0  0  0
   -3.7192    2.7388   -4.5901 O   0  0  0  0  0  0  0  0  0  0  0  0
   -3.0556    2.9860   -5.2354 H   0  0  0  0  0  0  0  0  0  0  0  0
   -3.9991    2.0575   -2.3116 C   0  0  0  0  0  0  0  0  0  0  0  0
   -5.0679    2.1696   -2.4149 H   0  0  0  0  0  0  0  0  0  0  0  0
   -3.4338    1.6455   -1.0899 C   0  0  0  0  0  0  0  0  0  0  0  0
   -4.0730    1.4374   -0.2401 H   0  0  0  0  0  0  0  0  0  0  0  0
   -0.3007   -0.8854    1.5852 C   0  0  0  0  0  0  0  0  0  0  0  0
    0.3022   -1.9589    1.6066 O   0  0  0  0  0  0  0  0  0  0  0  0
   -0.2722   -0.0255    2.6112 N   0  0  0  0  0  0  0  0  0  0  0  0
   -0.8407    0.8059    2.5388 H   0  0  0  0  0  0  0  0  0  0  0  0
    0.4623   -0.2490    3.8543 C   0  0  0  0  0  0  0  0  0  0  0  0
    1.4939   -0.5260    3.6306 H   0  0  0  0  0  0  0  0  0  0  0  0
    0.4572    0.6573    4.4621 H   0  0  0  0  0  0  0  0  0  0  0  0
   -0.0037   -1.0618    4.4152 H   0  0  0  0  0  0  0  0  0  0  0  0
  5  6  2  0  0  0  0
  5  7  1  0  0  0  0
  2  3  1  0  0  0  0
  2  4  1  0  0  0  0
  2  5  1  0  0  0  0
  1  2  1  0  0  0  0
 26 27  2  0  0  0  0
 26 28  1  0  0  0  0
 24 25  1  0  0  0  0
 22 23  1  0  0  0  0
 22 24  2  0  0  0  0
 20 21  1  0  0  0  0
 19 20  1  0  0  0  0
 19 22  1  0  0  0  0
 17 18  1  0  0  0  0
 17 19  2  0  0  0  0
 15 16  1  0  0  0  0
 15 17  1  0  0  0  0
 14 15  2  0  0  0  0
 14 24  1  0  0  0  0
 11 12  1  0  0  0  0
 11 13  1  0  0  0  0
 11 14  1  0  0  0  0
  9 10  1  0  0  0  0
  9 11  1  0  0  0  0
  9 26  1  0  0  0  0
  7  8  1  0  0  0  0
  7  9  1  0  0  0  0
 30 31  1  0  0  0  0
 30 32  1  0  0  0  0
 30 33  1  0  0  0  0
 28 29  1  0  0  0  0
 28 30  1  0  0  0  0
M  END
$$$$
default_name
  -OEChem-01062215323D

 33 33  0     1  0  0  0  0  0999 V2000
   -4.0702   -3.8485    1.4554 H   0  0  0  0  0  0  0  0  0  0  0  0
   -4.0012   -2.9605    0.8284 C   0  0  0  0  0  0  0  0  0  0  0  0
   -4.7652   -2.2435    1.1234 H   0  0  0  0  0  0  0  0  0  0  0  0
   -4.1352   -3.2385   -0.2156 H   0  0  0  0  0  0  0  0  0  0  0  0
   -2.6362   -2.3395    1.0094 C   0  0  0  0  0  0  0  0  0  0  0  0
   -1.8292   -2.8395    1.7814 O   0  0  0  0  0  0  0  0  0  0  0  0
   -2.3832   -1.2445    0.2964 N   0  0  0  0  0  0  0  0  0  0  0  0
   -3.1102   -0.8685   -0.2946 H   0  0  0  0  0  0  0  0  0  0  0  0
   -1.1292   -0.4875    0.3524 C   0  0  1  0  0  0  0  0  0  0  0  0
   -0.5406   -0.7255   -0.5343 H   0  0  0  0  0  0  0  0  0  0  0  0
   -1.4409    1.0190    0.3359 C   0  0  0  0  0  0  0  0  0  0  0  0
   -2.1469    1.2436    1.1364 H   0  0  0  0  0  0  0  0  0  0  0  0
   -0.5235    1.5720    0.5445 H   0  0  0  0  0  0  0  0  0  0  0  0
   -2.0373    1.5099   -0.9692 C   0  0  0  0  0  0  0  0  0  0  0  0
   -1.2047    1.7873   -2.0719 C   0  0  0  0  0  0  0  0  0  0  0  0
   -0.1321    1.6755   -1.9820 H   0  0  0  0  0  0  0  0  0  0  0  0
   -1.7669    2.2042   -3.2942 C   0  0  0  0  0  0  0  0  0  0  0  0
   -1.1262    2.4172   -4.1361 H   0  0  0  0  0  0  0  0  0  0  0  0
   -3.1671    2.3403   -3.4147 C   0  0  0  0  0  0  0  0  0  0  0  0
   -3.7192    2.7388   -4.5901 O   0  0  0  0  0  0  0  0  0  0  0  0
   -3.0556    2.9860   -5.2354 H   0  0  0  0  0  0  0  0  0  0  0  0
   -3.9991    2.0575   -2.3116 C   0  0  0  0  0  0  0  0  0  0  0  0
   -5.0679    2.1696   -2.4149 H   0  0  0  0  0  0  0  0  0  0  0  0
   -3.4338    1.6455   -1.0899 C   0  0  0  0  0  0  0  0  0  0  0  0
   -4.0730    1.4374   -0.2401 H   0  0  0  0  0  0  0  0  0  0  0  0
   -0.3007   -0.8854    1.5852 C   0  0  0  0  0  0  0  0  0  0  0  0
    0.5143   -1.8057    1.5135 O   0  0  0  0  0  0  0  0  0  0  0  0
   -0.5091   -0.1974    2.7149 N   0  0  0  0  0  0  0  0  0  0  0  0
   -1.2364    0.5029    2.7070 H   0  0  0  0  0  0  0  0  0  0  0  0
    0.1901   -0.4470    3.9733 C   0  0  0  0  0  0  0  0  0  0  0  0
    1.2673   -0.4733    3.7999 H   0  0  0  0  0  0  0  0  0  0  0  0
   -0.0390    0.3404    4.6932 H   0  0  0  0  0  0  0  0  0  0  0  0
   -0.1213   -1.4106    4.3817 H   0  0  0  0  0  0  0  0  0  0  0  0
  5  6  2  0  0  0  0
  5  7  1  0  0  0  0
  2  3  1  0  0  0  0
  2  4  1  0  0  0  0
  2  5  1  0  0  0  0
  1  2  1  0  0  0  0
 26 27  2  0  0  0  0
 26 28  1  0  0  0  0
 24 25  1  0  0  0  0
 22 23  1  0  0  0  0
 22 24  2  0  0  0  0
 20 21  1  0  0  0  0
 19 20  1  0  0  0  0
 19 22  1  0  0  0  0
 17 18  1  0  0  0  0
 17 19  2  0  0  0  0
 15 16  1  0  0  0  0
 15 17  1  0  0  0  0
 14 15  2  0  0  0  0
 14 24  1  0  0  0  0
 11 12  1  0  0  0  0
 11 13  1  0  0  0  0
 11 14  1  0  0  0  0
  9 10  1  0  0  0  0
  9 11  1  0  0  0  0
  9 26  1  0  0  0  0
  7  8  1  0  0  0  0
  7  9  1  0  0  0  0
 30 31  1  0  0  0  0
 30 32  1  0  0  0  0
 30 33  1  0  0  0  0
 28 29  1  0  0  0  0
 28 30  1  0  0  0  0
M  END
$$$$
default_name
  -OEChem-01062215323D

 33 33  0     1  0  0  0  0  0999 V2000
   -4.0702   -3.8485    1.4554 H   0  0  0  0  0  0  0  0  0  0  0  0
   -4.0012   -2.9605    0.8284 C   0  0  0  0  0  0  0  0  0  0  0  0
   -4.7652   -2.2435    1.1234 H   0  0  0  0  0  0  0  0  0  0  0  0
   -4.1352   -3.2385   -0.2156 H   0  0  0  0  0  0  0  0  0  0  0  0
   -2.6362   -2.3395    1.0094 C   0  0  0  0  0  0  0  0  0  0  0  0
   -1.8292   -2.8395    1.7814 O   0  0  0  0  0  0  0  0  0  0  0  0
   -2.3832   -1.2445    0.2964 N   0  0  0  0  0  0  0  0  0  0  0  0
   -3.1102   -0.8685   -0.2946 H   0  0  0  0  0  0  0  0  0  0  0  0
   -1.1292   -0.4875    0.3524 C   0  0  1  0  0  0  0  0  0  0  0  0
   -0.5406   -0.7255   -0.5343 H   0  0  0  0  0  0  0  0  0  0  0  0
   -1.4409    1.0190    0.3359 C   0  0  0  0  0  0  0  0  0  0  0  0
   -2.1469    1.2436    1.1364 H   0  0  0  0  0  0  0  0  0  0  0  0
   -0.5235    1.5720    0.5445 H   0  0  0  0  0  0  0  0  0  0  0  0
   -2.0373    1.5099   -0.9692 C   0  0  0  0  0  0  0  0  0  0  0  0
   -1.2047    1.7873   -2.0719 C   0  0  0  0  0  0  0  0  0  0  0  0
   -0.1321    1.6755   -1.9820 H   0  0  0  0  0  0  0  0  0  0  0  0
   -1.7669    2.2042   -3.2942 C   0  0  0  0  0  0  0  0  0  0  0  0
   -1.1262    2.4172   -4.1361 H   0  0  0  0  0  0  0  0  0  0  0  0
   -3.1671    2.3403   -3.4147 C   0  0  0  0  0  0  0  0  0  0  0  0
   -3.7192    2.7388   -4.5901 O   0  0  0  0  0  0  0  0  0  0  0  0
   -3.0556    2.9860   -5.2354 H   0  0  0  0  0  0  0  0  0  0  0  0
   -3.9991    2.0575   -2.3116 C   0  0  0  0  0  0  0  0  0  0  0  0
   -5.0679    2.1696   -2.4149 H   0  0  0  0  0  0  0  0  0  0  0  0
   -3.4338    1.6455   -1.0899 C   0  0  0  0  0  0  0  0  0  0  0  0
   -4.0730    1.4374   -0.2401 H   0  0  0  0  0  0  0  0  0  0  0  0
   -0.3007   -0.8854    1.5852 C   0  0  0  0  0  0  0  0  0  0  0  0
    0.6937   -1.6007    1.4592 O   0  0  0  0  0  0  0  0  0  0  0  0
   -0.7091   -0.4270    2.7752 N   0  0  0  0  0  0  0  0  0  0  0  0
   -1.5671    0.1047    2.8007 H   0  0  0  0  0  0  0  0  0  0  0  0
   -0.0396   -0.7113    4.0424 C   0  0  0  0  0  0  0  0  0  0  0  0
    1.0262   -0.4930    3.9556 H   0  0  0  0  0  0  0  0  0  0  0  0
   -0.4679   -0.1009    4.8390 H   0  0  0  0  0  0  0  0  0  0  0  0
   -0.1604   -1.7673    4.2927 H   0  0  0  0  0  0  0  0  0  0  0  0
  5  6  2  0  0  0  0
  5  7  1  0  0  0  0
  2  3  1  0  0  0  0
  2  4  1  0  0  0  0
  2  5  1  0  0  0  0
  1  2  1  0  0  0  0
 26 27  2  0  0  0  0
 26 28  1  0  0  0  0
 24 25  1  0  0  0  0
 22 23  1  0  0  0  0
 22 24  2  0  0  0  0
 20 21  1  0  0  0  0
 19 20  1  0  0  0  0
 19 22  1  0  0  0  0
 17 18  1  0  0  0  0
 17 19  2  0  0  0  0
 15 16  1  0  0  0  0
 15 17  1  0  0  0  0
 14 15  2  0  0  0  0
 14 24  1  0  0  0  0
 11 12  1  0  0  0  0
 11 13  1  0  0  0  0
 11 14  1  0  0  0  0
  9 10  1  0  0  0  0
  9 11  1  0  0  0  0
  9 26  1  0  0  0  0
  7  8  1  0  0  0  0
  7  9  1  0  0  0  0
 30 31  1  0  0  0  0
 30 32  1  0  0  0  0
 30 33  1  0  0  0  0
 28 29  1  0  0  0  0
 28 30  1  0  0  0  0
M  END
$$$$
default_name
  -OEChem-01062215323D

 33 33  0     1  0  0  0  0  0999 V2000
   -4.0702   -3.8485    1.4554 H   0  0  0  0  0  0  0  0  0  0  0  0
   -4.0012   -2.9605    0.8284 C   0  0  0  0  0  0  0  0  0  0  0  0
   -4.7652   -2.2435    1.1234 H   0  0  0  0  0  0  0  0  0  0  0  0
   -4.1352   -3.2385   -0.2156 H   0  0  0  0  0  0  0  0  0  0  0  0
   -2.6362   -2.3395    1.0094 C   0  0  0  0  0  0  0  0  0  0  0  0
   -1.8292   -2.8395    1.7814 O   0  0  0  0  0  0  0  0  0  0  0  0
   -2.3832   -1.2445    0.2964 N   0  0  0  0  0  0  0  0  0  0  0  0
   -3.1102   -0.8685   -0.2946 H   0  0  0  0  0  0  0  0  0  0  0  0
   -1.1292   -0.4875    0.3524 C   0  0  1  0  0  0  0  0  0  0  0  0
   -0.5406   -0.7255   -0.5343 H   0  0  0  0  0  0  0  0  0  0  0  0
   -1.4409    1.0190    0.3359 C   0  0  0  0  0  0  0  0  0  0  0  0
   -2.1469    1.2436    1.1364 H   0  0  0  0  0  0  0  0  0  0  0  0
   -0.5235    1.5720    0.5445 H   0  0  0  0  0  0  0  0  0  0  0  0
   -2.0373    1.5099   -0.9692 C   0  0  0  0  0  0  0  0  0  0  0  0
   -1.2047    1.7873   -2.0719 C   0  0  0  0  0  0  0  0  0  0  0  0
   -0.1321    1.6755   -1.9820 H   0  0  0  0  0  0  0  0  0  0  0  0
   -1.7669    2.2042   -3.2942 C   0  0  0  0  0  0  0  0  0  0  0  0
   -1.1262    2.4172   -4.1361 H   0  0  0  0  0  0  0  0  0  0  0  0
   -3.1671    2.3403   -3.4147 C   0  0  0  0  0  0  0  0  0  0  0  0
   -3.7192    2.7388   -4.5901 O   0  0  0  0  0  0  0  0  0  0  0  0
   -3.0556    2.9860   -5.2354 H   0  0  0  0  0  0  0  0  0  0  0  0
   -3.9991    2.0575   -2.3116 C   0  0  0  0  0  0  0  0  0  0  0  0
   -5.0679    2.1696   -2.4149 H   0  0  0  0  0  0  0  0  0  0  0  0
   -3.4338    1.6455   -1.0899 C   0  0  0  0  0  0  0  0  0  0  0  0
   -4.0730    1.4374   -0.2401 H   0  0  0  0  0  0  0  0  0  0  0  0
   -0.3007   -0.8854    1.5852 C   0  0  0  0  0  0  0  0  0  0  0  0
    0.8280   -1.3579    1.4472 O   0  0  0  0  0  0  0  0  0  0  0  0
   -0.8587   -0.6988    2.7880 N   0  0  0  0  0  0  0  0  0  0  0  0
   -1.8101   -0.3617    2.8135 H   0  0  0  0  0  0  0  0  0  0  0  0
   -0.2113   -1.0240    4.0568 C   0  0  0  0  0  0  0  0  0  0  0  0
    0.7869   -0.5838    4.0871 H   0  0  0  0  0  0  0  0  0  0  0  0
   -0.8004   -0.6365    4.8896 H   0  0  0  0  0  0  0  0  0  0  0  0
   -0.1181   -2.1076    4.1545 H   0  0  0  0  0  0  0  0  0  0  0  0
  5  6  2  0  0  0  0
  5  7  1  0  0  0  0
  2  3  1  0  0  0  0
  2  4  1  0  0  0  0
  2  5  1  0  0  0  0
  1  2  1  0  0  0  0
 26 27  2  0  0  0  0
 26 28  1  0  0  0  0
 24 25  1  0  0  0  0
 22 23  1  0  0  0  0
 22 24  2  0  0  0  0
 20 21  1  0  0  0  0
 19 20  1  0  0  0  0
 19 22  1  0  0  0  0
 17 18  1  0  0  0  0
 17 19  2  0  0  0  0
 15 16  1  0  0  0  0
 15 17  1  0  0  0  0
 14 15  2  0  0  0  0
 14 24  1  0  0  0  0
 11 12  1  0  0  0  0
 11 13  1  0  0  0  0
 11 14  1  0  0  0  0
  9 10  1  0  0  0  0
  9 11  1  0  0  0  0
  9 26  1  0  0  0  0
  7  8  1  0  0  0  0
  7  9  1  0  0  0  0
 30 31  1  0  0  0  0
 30 32  1  0  0  0  0
 30 33  1  0  0  0  0
 28 29  1  0  0  0  0
 28 30  1  0  0  0  0
M  END
$$$$
default_name
  -OEChem-01062215323D

 33 33  0     1  0  0  0  0  0999 V2000
   -4.0702   -3.8485    1.4554 H   0  0  0  0  0  0  0  0  0  0  0  0
   -4.0012   -2.9605    0.8284 C   0  0  0  0  0  0  0  0  0  0  0  0
   -4.7652   -2.2435    1.1234 H   0  0  0  0  0  0  0  0  0  0  0  0
   -4.1352   -3.2385   -0.2156 H   0  0  0  0  0  0  0  0  0  0  0  0
   -2.6362   -2.3395    1.0094 C   0  0  0  0  0  0  0  0  0  0  0  0
   -1.8292   -2.8395    1.7814 O   0  0  0  0  0  0  0  0  0  0  0  0
   -2.3832   -1.2445    0.2964 N   0  0  0  0  0  0  0  0  0  0  0  0
   -3.1102   -0.8685   -0.2946 H   0  0  0  0  0  0  0  0  0  0  0  0
   -1.1292   -0.4875    0.3524 C   0  0  1  0  0  0  0  0  0  0  0  0
   -0.5406   -0.7255   -0.5343 H   0  0  0  0  0  0  0  0  0  0  0  0
   -1.4409    1.0190    0.3359 C   0  0  0  0  0  0  0  0  0  0  0  0
   -2.1469    1.2436    1.1364 H   0  0  0  0  0  0  0  0  0  0  0  0
   -0.5235    1.5720    0.5445 H   0  0  0  0  0  0  0  0  0  0  0  0
   -2.0373    1.5099   -0.9692 C   0  0  0  0  0  0  0  0  0  0  0  0
   -1.2047    1.7873   -2.0719 C   0  0  0  0  0  0  0  0  0  0  0  0
   -0.1321    1.6755   -1.9820 H   0  0  0  0  0  0  0  0  0  0  0  0
   -1.7669    2.2042   -3.2942 C   0  0  0  0  0  0  0  0  0  0  0  0
   -1.1262    2.4172   -4.1361 H   0  0  0  0  0  0  0  0  0  0  0  0
   -3.1671    2.3403   -3.4147 C   0  0  0  0  0  0  0  0  0  0  0  0
   -3.7192    2.7388   -4.5901 O   0  0  0  0  0  0  0  0  0  0  0  0
   -3.0556    2.9860   -5.2354 H   0  0  0  0  0  0  0  0  0  0  0  0
   -3.9991    2.0575   -2.3116 C   0  0  0  0  0  0  0  0  0  0  0  0
   -5.0679    2.1696   -2.4149 H   0  0  0  0  0  0  0  0  0  0  0  0
   -3.4338    1.6455   -1.0899 C   0  0  0  0  0  0  0  0  0  0  0  0
   -4.0730    1.4374   -0.2401 H   0  0  0  0  0  0  0  0  0  0  0  0
   -0.3007   -0.8854    1.5852 C   0  0  0  0  0  0  0  0  0  0  0  0
    0.9082   -1.0938    1.4786 O   0  0  0  0  0  0  0  0  0  0  0  0
   -0.9477   -0.9941    2.7525 N   0  0  0  0  0  0  0  0  0  0  0  0
   -1.9490   -0.8643    2.7446 H   0  0  0  0  0  0  0  0  0  0  0  0
   -0.3132   -1.3636    4.0157 C   0  0  0  0  0  0  0  0  0  0  0  0
    0.5658   -0.7394    4.1854 H   0  0  0  0  0  0  0  0  0  0  0  0
   -1.0139   -1.2299    4.8415 H   0  0  0  0  0  0  0  0  0  0  0  0
    0.0026   -2.4081    3.9763 H   0  0  0  0  0  0  0  0  0  0  0  0
  5  6  2  0  0  0  0
  5  7  1  0  0  0  0
  2  3  1  0  0  0  0
  2  4  1  0  0  0  0
  2  5  1  0  0  0  0
  1  2  1  0  0  0  0
 26 27  2  0  0  0  0
 26 28  1  0  0  0  0
 24 25  1  0  0  0  0
 22 23  1  0  0  0  0
 22 24  2  0  0  0  0
 20 21  1  0  0  0  0
 19 20  1  0  0  0  0
 19 22  1  0  0  0  0
 17 18  1  0  0  0  0
 17 19  2  0  0  0  0
 15 16  1  0  0  0  0
 15 17  1  0  0  0  0
 14 15  2  0  0  0  0
 14 24  1  0  0  0  0
 11 12  1  0  0  0  0
 11 13  1  0  0  0  0
 11 14  1  0  0  0  0
  9 10  1  0  0  0  0
  9 11  1  0  0  0  0
  9 26  1  0  0  0  0
  7  8  1  0  0  0  0
  7  9  1  0  0  0  0
 30 31  1  0  0  0  0
 30 32  1  0  0  0  0
 30 33  1  0  0  0  0
 28 29  1  0  0  0  0
 28 30  1  0  0  0  0
M  END
$$$$
default_name
  -OEChem-01062215323D

 33 33  0     1  0  0  0  0  0999 V2000
   -4.0702   -3.8485    1.4554 H   0  0  0  0  0  0  0  0  0  0  0  0
   -4.0012   -2.9605    0.8284 C   0  0  0  0  0  0  0  0  0  0  0  0
   -4.7652   -2.2435    1.1234 H   0  0  0  0  0  0  0  0  0  0  0  0
   -4.1352   -3.2385   -0.2156 H   0  0  0  0  0  0  0  0  0  0  0  0
   -2.6362   -2.3395    1.0094 C   0  0  0  0  0  0  0  0  0  0  0  0
   -1.8292   -2.8395    1.7814 O   0  0  0  0  0  0  0  0  0  0  0  0
   -2.3832   -1.2445    0.2964 N   0  0  0  0  0  0  0  0  0  0  0  0
   -3.1102   -0.8685   -0.2946 H   0  0  0  0  0  0  0  0  0  0  0  0
   -1.1292   -0.4875    0.3524 C   0  0  1  0  0  0  0  0  0  0  0  0
   -0.5406   -0.7255   -0.5343 H   0  0  0  0  0  0  0  0  0  0  0  0
   -1.4409    1.0190    0.3359 C   0  0  0  0  0  0  0  0  0  0  0  0
   -2.1469    1.2436    1.1364 H   0  0  0  0  0  0  0  0  0  0  0  0
   -0.5235    1.5720    0.5445 H   0  0  0  0  0  0  0  0  0  0  0  0
   -2.0373    1.5099   -0.9692 C   0  0  0  0  0  0  0  0  0  0  0  0
   -1.2047    1.7873   -2.0719 C   0  0  0  0  0  0  0  0  0  0  0  0
   -0.1321    1.6755   -1.9820 H   0  0  0  0  0  0  0  0  0  0  0  0
   -1.7669    2.2042   -3.2942 C   0  0  0  0  0  0  0  0  0  0  0  0
   -1.1262    2.4172   -4.1361 H   0  0  0  0  0  0  0  0  0  0  0  0
   -3.1671    2.3403   -3.4147 C   0  0  0  0  0  0  0  0  0  0  0  0
   -3.7192    2.7388   -4.5901 O   0  0  0  0  0  0  0  0  0  0  0  0
   -3.0556    2.9860   -5.2354 H   0  0  0  0  0  0  0  0  0  0  0  0
   -3.9991    2.0575   -2.3116 C   0  0  0  0  0  0  0  0  0  0  0  0
   -5.0679    2.1696   -2.4149 H   0  0  0  0  0  0  0  0  0  0  0  0
   -3.4338    1.6455   -1.0899 C   0  0  0  0  0  0  0  0  0  0  0  0
   -4.0730    1.4374   -0.2401 H   0  0  0  0  0  0  0  0  0  0  0  0
   -0.3007   -0.8854    1.5852 C   0  0  0  0  0  0  0  0  0  0  0  0
    0.9288   -0.8265    1.5511 O   0  0  0  0  0  0  0  0  0  0  0  0
   -0.9700   -1.2928    2.6711 N   0  0  0  0  0  0  0  0  0  0  0  0
   -1.9742   -1.3690    2.5986 H   0  0  0  0  0  0  0  0  0  0  0  0
   -0.3385   -1.7071    3.9218 C   0  0  0  0  0  0  0  0  0  0  0  0
    0.3780   -0.9494    4.2439 H   0  0  0  0  0  0  0  0  0  0  0  0
   -1.0937   -1.8407    4.6980 H   0  0  0  0  0  0  0  0  0  0  0  0
    0.1935   -2.6486    3.7704 H   0  0  0  0  0  0  0  0  0  0  0  0
  5  6  2  0  0  0  0
  5  7  1  0  0  0  0
  2  3  1  0  0  0  0
  2  4  1  0  0  0  0
  2  5  1  0  0  0  0
  1  2  1  0  0  0  0
 26 27  2  0  0  0  0
 26 28  1  0  0  0  0
 24 25  1  0  0  0  0
 22 23  1  0  0  0  0
 22 24  2  0  0  0  0
 20 21  1  0  0  0  0
 19 20  1  0  0  0  0
 19 22  1  0  0  0  0
 17 18  1  0  0  0  0
 17 19  2  0  0  0  0
 15 16  1  0  0  0  0
 15 17  1  0  0  0  0
 14 15  2  0  0  0  0
 14 24  1  0  0  0  0
 11 12  1  0  0  0  0
 11 13  1  0  0  0  0
 11 14  1  0  0  0  0
  9 10  1  0  0  0  0
  9 11  1  0  0  0  0
  9 26  1  0  0  0  0
  7  8  1  0  0  0  0
  7  9  1  0  0  0  0
 30 31  1  0  0  0  0
 30 32  1  0  0  0  0
 30 33  1  0  0  0  0
 28 29  1  0  0  0  0
 28 30  1  0  0  0  0
M  END
$$$$
default_name
  -OEChem-01062215323D

 33 33  0     1  0  0  0  0  0999 V2000
   -4.0702   -3.8485    1.4554 H   0  0  0  0  0  0  0  0  0  0  0  0
   -4.0012   -2.9605    0.8284 C   0  0  0  0  0  0  0  0  0  0  0  0
   -4.7652   -2.2435    1.1234 H   0  0  0  0  0  0  0  0  0  0  0  0
   -4.1352   -3.2385   -0.2156 H   0  0  0  0  0  0  0  0  0  0  0  0
   -2.6362   -2.3395    1.0094 C   0  0  0  0  0  0  0  0  0  0  0  0
   -1.8292   -2.8395    1.7814 O   0  0  0  0  0  0  0  0  0  0  0  0
   -2.3832   -1.2445    0.2964 N   0  0  0  0  0  0  0  0  0  0  0  0
   -3.1102   -0.8685   -0.2946 H   0  0  0  0  0  0  0  0  0  0  0  0
   -1.1292   -0.4875    0.3524 C   0  0  1  0  0  0  0  0  0  0  0  0
   -0.5406   -0.7255   -0.5343 H   0  0  0  0  0  0  0  0  0  0  0  0
   -1.4409    1.0190    0.3359 C   0  0  0  0  0  0  0  0  0  0  0  0
   -2.1469    1.2436    1.1364 H   0  0  0  0  0  0  0  0  0  0  0  0
   -0.5235    1.5720    0.5445 H   0  0  0  0  0  0  0  0  0  0  0  0
   -2.0373    1.5099   -0.9692 C   0  0  0  0  0  0  0  0  0  0  0  0
   -1.2047    1.7873   -2.0719 C   0  0  0  0  0  0  0  0  0  0  0  0
   -0.1321    1.6755   -1.9820 H   0  0  0  0  0  0  0  0  0  0  0  0
   -1.7669    2.2042   -3.2942 C   0  0  0  0  0  0  0  0  0  0  0  0
   -1.1262    2.4172   -4.1361 H   0  0  0  0  0  0  0  0  0  0  0  0
   -3.1671    2.3403   -3.4147 C   0  0  0  0  0  0  0  0  0  0  0  0
   -3.7192    2.7388   -4.5901 O   0  0  0  0  0  0  0  0  0  0  0  0
   -3.0556    2.9860   -5.2354 H   0  0  0  0  0  0  0  0  0  0  0  0
   -3.9991    2.0575   -2.3116 C   0  0  0  0  0  0  0  0  0  0  0  0
   -5.0679    2.1696   -2.4149 H   0  0  0  0  0  0  0  0  0  0  0  0
   -3.4338    1.6455   -1.0899 C   0  0  0  0  0  0  0  0  0  0  0  0
   -4.0730    1.4374   -0.2401 H   0  0  0  0  0  0  0  0  0  0  0  0
   -0.3007   -0.8854    1.5852 C   0  0  0  0  0  0  0  0  0  0  0  0
    0.8883   -0.5741    1.6598 O   0  0  0  0  0  0  0  0  0  0  0  0
   -0.9241   -1.5747    2.5492 N   0  0  0  0  0  0  0  0  0  0  0  0
   -1.8841   -1.8414    2.3855 H   0  0  0  0  0  0  0  0  0  0  0  0
   -0.2853   -2.0310    3.7815 C   0  0  0  0  0  0  0  0  0  0  0  0
    0.2362   -1.1993    4.2585 H   0  0  0  0  0  0  0  0  0  0  0  0
   -1.0345   -2.4272    4.4688 H   0  0  0  0  0  0  0  0  0  0  0  0
    0.4415   -2.8125    3.5508 H   0  0  0  0  0  0  0  0  0  0  0  0
  5  6  2  0  0  0  0
  5  7  1  0  0  0  0
  2  3  1  0  0  0  0
  2  4  1  0  0  0  0
  2  5  1  0  0  0  0
  1  2  1  0  0  0  0
 26 27  2  0  0  0  0
 26 28  1  0  0  0  0
 24 25  1  0  0  0  0
 22 23  1  0  0  0  0
 22 24  2  0  0  0  0
 20 21  1  0  0  0  0
 19 20  1  0  0  0  0
 19 22  1  0  0  0  0
 17 18  1  0  0  0  0
 17 19  2  0  0  0  0
 15 16  1  0  0  0  0
 15 17  1  0  0  0  0
 14 15  2  0  0  0  0
 14 24  1  0  0  0  0
 11 12  1  0  0  0  0
 11 13  1  0  0  0  0
 11 14  1  0  0  0  0
  9 10  1  0  0  0  0
  9 11  1  0  0  0  0
  9 26  1  0  0  0  0
  7  8  1  0  0  0  0
  7  9  1  0  0  0  0
 30 31  1  0  0  0  0
 30 32  1  0  0  0  0
 30 33  1  0  0  0  0
 28 29  1  0  0  0  0
 28 30  1  0  0  0  0
M  END
$$$$
default_name
  -OEChem-01062215323D

 33 33  0     1  0  0  0  0  0999 V2000
   -4.0702   -3.8485    1.4554 H   0  0  0  0  0  0  0  0  0  0  0  0
   -4.0012   -2.9605    0.8284 C   0  0  0  0  0  0  0  0  0  0  0  0
   -4.7652   -2.2435    1.1234 H   0  0  0  0  0  0  0  0  0  0  0  0
   -4.1352   -3.2385   -0.2156 H   0  0  0  0  0  0  0  0  0  0  0  0
   -2.6362   -2.3395    1.0094 C   0  0  0  0  0  0  0  0  0  0  0  0
   -1.8292   -2.8395    1.7814 O   0  0  0  0  0  0  0  0  0  0  0  0
   -2.3832   -1.2445    0.2964 N   0  0  0  0  0  0  0  0  0  0  0  0
   -3.1102   -0.8685   -0.2946 H   0  0  0  0  0  0  0  0  0  0  0  0
   -1.1292   -0.4875    0.3524 C   0  0  1  0  0  0  0  0  0  0  0  0
   -0.5406   -0.7255   -0.5343 H   0  0  0  0  0  0  0  0  0  0  0  0
   -1.4409    1.0190    0.3359 C   0  0  0  0  0  0  0  0  0  0  0  0
   -2.1469    1.2436    1.1364 H   0  0  0  0  0  0  0  0  0  0  0  0
   -0.5235    1.5720    0.5445 H   0  0  0  0  0  0  0  0  0  0  0  0
   -2.0373    1.5099   -0.9692 C   0  0  0  0  0  0  0  0  0  0  0  0
   -1.2047    1.7873   -2.0719 C   0  0  0  0  0  0  0  0  0  0  0  0
   -0.1321    1.6755   -1.9820 H   0  0  0  0  0  0  0  0  0  0  0  0
   -1.7669    2.2042   -3.2942 C   0  0  0  0  0  0  0  0  0  0  0  0
   -1.1262    2.4172   -4.1361 H   0  0  0  0  0  0  0  0  0  0  0  0
   -3.1671    2.3403   -3.4147 C   0  0  0  0  0  0  0  0  0  0  0  0
   -3.7192    2.7388   -4.5901 O   0  0  0  0  0  0  0  0  0  0  0  0
   -3.0556    2.9860   -5.2354 H   0  0  0  0  0  0  0  0  0  0  0  0
   -3.9991    2.0575   -2.3116 C   0  0  0  0  0  0  0  0  0  0  0  0
   -5.0679    2.1696   -2.4149 H   0  0  0  0  0  0  0  0  0  0  0  0
   -3.4338    1.6455   -1.0899 C   0  0  0  0  0  0  0  0  0  0  0  0
   -4.0730    1.4374   -0.2401 H   0  0  0  0  0  0  0  0  0  0  0  0
   -0.3007   -0.8854    1.5852 C   0  0  0  0  0  0  0  0  0  0  0  0
    0.7896   -0.3538    1.7972 O   0  0  0  0  0  0  0  0  0  0  0  0
   -0.8131   -1.8204    2.3953 N   0  0  0  0  0  0  0  0  0  0  0  0
   -1.6847   -2.2493    2.1198 H   0  0  0  0  0  0  0  0  0  0  0  0
   -0.1573   -2.3132    3.6044 C   0  0  0  0  0  0  0  0  0  0  0  0
    0.1501   -1.4722    4.2283 H   0  0  0  0  0  0  0  0  0  0  0  0
   -0.8402   -2.9495    4.1697 H   0  0  0  0  0  0  0  0  0  0  0  0
    0.7299   -2.8888    3.3324 H   0  0  0  0  0  0  0  0  0  0  0  0
  5  6  2  0  0  0  0
  5  7  1  0  0  0  0
  2  3  1  0  0  0  0
  2  4  1  0  0  0  0
  2  5  1  0  0  0  0
  1  2  1  0  0  0  0
 26 27  2  0  0  0  0
 26 28  1  0  0  0  0
 24 25  1  0  0  0  0
 22 23  1  0  0  0  0
 22 24  2  0  0  0  0
 20 21  1  0  0  0  0
 19 20  1  0  0  0  0
 19 22  1  0  0  0  0
 17 18  1  0  0  0  0
 17 19  2  0  0  0  0
 15 16  1  0  0  0  0
 15 17  1  0  0  0  0
 14 15  2  0  0  0  0
 14 24  1  0  0  0  0
 11 12  1  0  0  0  0
 11 13  1  0  0  0  0
 11 14  1  0  0  0  0
  9 10  1  0  0  0  0
  9 11  1  0  0  0  0
  9 26  1  0  0  0  0
  7  8  1  0  0  0  0
  7  9  1  0  0  0  0
 30 31  1  0  0  0  0
 30 32  1  0  0  0  0
 30 33  1  0  0  0  0
 28 29  1  0  0  0  0
 28 30  1  0  0  0  0
M  END
$$$$
default_name
  -OEChem-01062215323D

 33 33  0     1  0  0  0  0  0999 V2000
   -4.0702   -3.8485    1.4554 H   0  0  0  0  0  0  0  0  0  0  0  0
   -4.0012   -2.9605    0.8284 C   0  0  0  0  0  0  0  0  0  0  0  0
   -4.7652   -2.2435    1.1234 H   0  0  0  0  0  0  0  0  0  0  0  0
   -4.1352   -3.2385   -0.2156 H   0  0  0  0  0  0  0  0  0  0  0  0
   -2.6362   -2.3395    1.0094 C   0  0  0  0  0  0  0  0  0  0  0  0
   -1.8292   -2.8395    1.7814 O   0  0  0  0  0  0  0  0  0  0  0  0
   -2.3832   -1.2445    0.2964 N   0  0  0  0  0  0  0  0  0  0  0  0
   -3.1102   -0.8685   -0.2946 H   0  0  0  0  0  0  0  0  0  0  0  0
   -1.1292   -0.4875    0.3524 C   0  0  1  0  0  0  0  0  0  0  0  0
   -0.5406   -0.7255   -0.5343 H   0  0  0  0  0  0  0  0  0  0  0  0
   -1.4409    1.0190    0.3359 C   0  0  0  0  0  0  0  0  0  0  0  0
   -2.1469    1.2436    1.1364 H   0  0  0  0  0  0  0  0  0  0  0  0
   -0.5235    1.5720    0.5445 H   0  0  0  0  0  0  0  0  0  0  0  0
   -2.0373    1.5099   -0.9692 C   0  0  0  0  0  0  0  0  0  0  0  0
   -1.2047    1.7873   -2.0719 C   0  0  0  0  0  0  0  0  0  0  0  0
   -0.1321    1.6755   -1.9820 H   0  0  0  0  0  0  0  0  0  0  0  0
   -1.7669    2.2042   -3.2942 C   0  0  0  0  0  0  0  0  0  0  0  0
   -1.1262    2.4172   -4.1361 H   0  0  0  0  0  0  0  0  0  0  0  0
   -3.1671    2.3403   -3.4147 C   0  0  0  0  0  0  0  0  0  0  0  0
   -3.7192    2.7388   -4.5901 O   0  0  0  0  0  0  0  0  0  0  0  0
   -3.0556    2.9860   -5.2354 H   0  0  0  0  0  0  0  0  0  0  0  0
   -3.9991    2.0575   -2.3116 C   0  0  0  0  0  0  0  0  0  0  0  0
   -5.0679    2.1696   -2.4149 H   0  0  0  0  0  0  0  0  0  0  0  0
   -3.4338    1.6455   -1.0899 C   0  0  0  0  0  0  0  0  0  0  0  0
   -4.0730    1.4374   -0.2401 H   0  0  0  0  0  0  0  0  0  0  0  0
   -0.3007   -0.8854    1.5852 C   0  0  0  0  0  0  0  0  0  0  0  0
    0.6393   -0.1808    1.9541 O   0  0  0  0  0  0  0  0  0  0  0  0
   -0.6446   -2.0133    2.2198 N   0  0  0  0  0  0  0  0  0  0  0  0
   -1.3897   -2.5649    1.8197 H   0  0  0  0  0  0  0  0  0  0  0  0
    0.0367   -2.5346    3.4025 C   0  0  0  0  0  0  0  0  0  0  0  0
    0.1256   -1.7494    4.1553 H   0  0  0  0  0  0  0  0  0  0  0  0
   -0.5242   -3.3719    3.8209 H   0  0  0  0  0  0  0  0  0  0  0  0
    1.0388   -2.8722    3.1301 H   0  0  0  0  0  0  0  0  0  0  0  0
  5  6  2  0  0  0  0
  5  7  1  0  0  0  0
  2  3  1  0  0  0  0
  2  4  1  0  0  0  0
  2  5  1  0  0  0  0
  1  2  1  0  0  0  0
 26 27  2  0  0  0  0
 26 28  1  0  0  0  0
 24 25  1  0  0  0  0
 22 23  1  0  0  0  0
 22 24  2  0  0  0  0
 20 21  1  0  0  0  0
 19 20  1  0  0  0  0
 19 22  1  0  0  0  0
 17 18  1  0  0  0  0
 17 19  2  0  0  0  0
 15 16  1  0  0  0  0
 15 17  1  0  0  0  0
 14 15  2  0  0  0  0
 14 24  1  0  0  0  0
 11 12  1  0  0  0  0
 11 13  1  0  0  0  0
 11 14  1  0  0  0  0
  9 10  1  0  0  0  0
  9 11  1  0  0  0  0
  9 26  1  0  0  0  0
  7  8  1  0  0  0  0
  7  9  1  0  0  0  0
 30 31  1  0  0  0  0
 30 32  1  0  0  0  0
 30 33  1  0  0  0  0
 28 29  1  0  0  0  0
 28 30  1  0  0  0  0
M  END
$$$$
default_name
  -OEChem-01062215323D

 33 33  0     1  0  0  0  0  0999 V2000
   -4.0702   -3.8485    1.4554 H   0  0  0  0  0  0  0  0  0  0  0  0
   -4.0012   -2.9605    0.8284 C   0  0  0  0  0  0  0  0  0  0  0  0
   -4.7652   -2.2435    1.1234 H   0  0  0  0  0  0  0  0  0  0  0  0
   -4.1352   -3.2385   -0.2156 H   0  0  0  0  0  0  0  0  0  0  0  0
   -2.6362   -2.3395    1.0094 C   0  0  0  0  0  0  0  0  0  0  0  0
   -1.8292   -2.8395    1.7814 O   0  0  0  0  0  0  0  0  0  0  0  0
   -2.3832   -1.2445    0.2964 N   0  0  0  0  0  0  0  0  0  0  0  0
   -3.1102   -0.8685   -0.2946 H   0  0  0  0  0  0  0  0  0  0  0  0
   -1.1292   -0.4875    0.3524 C   0  0  1  0  0  0  0  0  0  0  0  0
   -0.5406   -0.7255   -0.5343 H   0  0  0  0  0  0  0  0  0  0  0  0
   -1.4409    1.0190    0.3359 C   0  0  0  0  0  0  0  0  0  0  0  0
   -2.1469    1.2436    1.1364 H   0  0  0  0  0  0  0  0  0  0  0  0
   -0.5235    1.5720    0.5445 H   0  0  0  0  0  0  0  0  0  0  0  0
   -2.0373    1.5099   -0.9692 C   0  0  0  0  0  0  0  0  0  0  0  0
   -1.2047    1.7873   -2.0719 C   0  0  0  0  0  0  0  0  0  0  0  0
   -0.1321    1.6755   -1.9820 H   0  0  0  0  0  0  0  0  0  0  0  0
   -1.7669    2.2042   -3.2942 C   0  0  0  0  0  0  0  0  0  0  0  0
   -1.1262    2.4172   -4.1361 H   0  0  0  0  0  0  0  0  0  0  0  0
   -3.1671    2.3403   -3.4147 C   0  0  0  0  0  0  0  0  0  0  0  0
   -3.7192    2.7388   -4.5901 O   0  0  0  0  0  0  0  0  0  0  0  0
   -3.0556    2.9860   -5.2354 H   0  0  0  0  0  0  0  0  0  0  0  0
   -3.9991    2.0575   -2.3116 C   0  0  0  0  0  0  0  0  0  0  0  0
   -5.0679    2.1696   -2.4149 H   0  0  0  0  0  0  0  0  0  0  0  0
   -3.4338    1.6455   -1.0899 C   0  0  0  0  0  0  0  0  0  0  0  0
   -4.0730    1.4374   -0.2401 H   0  0  0  0  0  0  0  0  0  0  0  0
   -0.3007   -0.8854    1.5852 C   0  0  0  0  0  0  0  0  0  0  0  0
    0.4477   -0.0666    2.1197 O   0  0  0  0  0  0  0  0  0  0  0  0
   -0.4301   -2.1401    2.0347 N   0  0  0  0  0  0  0  0  0  0  0  0
   -1.0192   -2.7666    1.5055 H   0  0  0  0  0  0  0  0  0  0  0  0
    0.2836   -2.6801    3.1896 C   0  0  0  0  0  0  0  0  0  0  0  0
    0.1644   -2.0121    4.0444 H   0  0  0  0  0  0  0  0  0  0  0  0
   -0.1079   -3.6658    3.4462 H   0  0  0  0  0  0  0  0  0  0  0  0
    1.3474   -2.7638    2.9577 H   0  0  0  0  0  0  0  0  0  0  0  0
  5  6  2  0  0  0  0
  5  7  1  0  0  0  0
  2  3  1  0  0  0  0
  2  4  1  0  0  0  0
  2  5  1  0  0  0  0
  1  2  1  0  0  0  0
 26 27  2  0  0  0  0
 26 28  1  0  0  0  0
 24 25  1  0  0  0  0
 22 23  1  0  0  0  0
 22 24  2  0  0  0  0
 20 21  1  0  0  0  0
 19 20  1  0  0  0  0
 19 22  1  0  0  0  0
 17 18  1  0  0  0  0
 17 19  2  0  0  0  0
 15 16  1  0  0  0  0
 15 17  1  0  0  0  0
 14 15  2  0  0  0  0
 14 24  1  0  0  0  0
 11 12  1  0  0  0  0
 11 13  1  0  0  0  0
 11 14  1  0  0  0  0
  9 10  1  0  0  0  0
  9 11  1  0  0  0  0
  9 26  1  0  0  0  0
  7  8  1  0  0  0  0
  7  9  1  0  0  0  0
 30 31  1  0  0  0  0
 30 32  1  0  0  0  0
 30 33  1  0  0  0  0
 28 29  1  0  0  0  0
 28 30  1  0  0  0  0
M  END
$$$$
default_name
  -OEChem-01062215323D

 33 33  0     1  0  0  0  0  0999 V2000
   -4.0702   -3.8485    1.4554 H   0  0  0  0  0  0  0  0  0  0  0  0
   -4.0012   -2.9605    0.8284 C   0  0  0  0  0  0  0  0  0  0  0  0
   -4.7652   -2.2435    1.1234 H   0  0  0  0  0  0  0  0  0  0  0  0
   -4.1352   -3.2385   -0.2156 H   0  0  0  0  0  0  0  0  0  0  0  0
   -2.6362   -2.3395    1.0094 C   0  0  0  0  0  0  0  0  0  0  0  0
   -1.8292   -2.8395    1.7814 O   0  0  0  0  0  0  0  0  0  0  0  0
   -2.3832   -1.2445    0.2964 N   0  0  0  0  0  0  0  0  0  0  0  0
   -3.1102   -0.8685   -0.2946 H   0  0  0  0  0  0  0  0  0  0  0  0
   -1.1292   -0.4875    0.3524 C   0  0  1  0  0  0  0  0  0  0  0  0
   -0.5406   -0.7255   -0.5343 H   0  0  0  0  0  0  0  0  0  0  0  0
   -1.4409    1.0190    0.3359 C   0  0  0  0  0  0  0  0  0  0  0  0
   -2.1469    1.2436    1.1364 H   0  0  0  0  0  0  0  0  0  0  0  0
   -0.5235    1.5720    0.5445 H   0  0  0  0  0  0  0  0  0  0  0  0
   -2.0373    1.5099   -0.9692 C   0  0  0  0  0  0  0  0  0  0  0  0
   -1.2047    1.7873   -2.0719 C   0  0  0  0  0  0  0  0  0  0  0  0
   -0.1321    1.6755   -1.9820 H   0  0  0  0  0  0  0  0  0  0  0  0
   -1.7669    2.2042   -3.2942 C   0  0  0  0  0  0  0  0  0  0  0  0
   -1.1262    2.4172   -4.1361 H   0  0  0  0  0  0  0  0  0  0  0  0
   -3.1671    2.3403   -3.4147 C   0  0  0  0  0  0  0  0  0  0  0  0
   -3.7192    2.7388   -4.5901 O   0  0  0  0  0  0  0  0  0  0  0  0
   -3.0556    2.9860   -5.2354 H   0  0  0  0  0  0  0  0  0  0  0  0
   -3.9991    2.0575   -2.3116 C   0  0  0  0  0  0  0  0  0  0  0  0
   -5.0679    2.1696   -2.4149 H   0  0  0  0  0  0  0  0  0  0  0  0
   -3.4338    1.6455   -1.0899 C   0  0  0  0  0  0  0  0  0  0  0  0
   -4.0730    1.4374   -0.2401 H   0  0  0  0  0  0  0  0  0  0  0  0
   -0.3007   -0.8854    1.5852 C   0  0  0  0  0  0  0  0  0  0  0  0
    0.2279   -0.0193    2.2827 O   0  0  0  0  0  0  0  0  0  0  0  0
   -0.1842   -2.1923    1.8525 N   0  0  0  0  0  0  0  0  0  0  0  0
   -0.5984   -2.8408    1.1987 H   0  0  0  0  0  0  0  0  0  0  0  0
    0.5665   -2.7396    2.9802 C   0  0  0  0  0  0  0  0  0  0  0  0
    0.2637   -2.2423    3.9033 H   0  0  0  0  0  0  0  0  0  0  0  0
    0.3803   -3.8110    3.0713 H   0  0  0  0  0  0  0  0  0  0  0  0
    1.6345   -2.5710    2.8270 H   0  0  0  0  0  0  0  0  0  0  0  0
  5  6  2  0  0  0  0
  5  7  1  0  0  0  0
  2  3  1  0  0  0  0
  2  4  1  0  0  0  0
  2  5  1  0  0  0  0
  1  2  1  0  0  0  0
 26 27  2  0  0  0  0
 26 28  1  0  0  0  0
 24 25  1  0  0  0  0
 22 23  1  0  0  0  0
 22 24  2  0  0  0  0
 20 21  1  0  0  0  0
 19 20  1  0  0  0  0
 19 22  1  0  0  0  0
 17 18  1  0  0  0  0
 17 19  2  0  0  0  0
 15 16  1  0  0  0  0
 15 17  1  0  0  0  0
 14 15  2  0  0  0  0
 14 24  1  0  0  0  0
 11 12  1  0  0  0  0
 11 13  1  0  0  0  0
 11 14  1  0  0  0  0
  9 10  1  0  0  0  0
  9 11  1  0  0  0  0
  9 26  1  0  0  0  0
  7  8  1  0  0  0  0
  7  9  1  0  0  0  0
 30 31  1  0  0  0  0
 30 32  1  0  0  0  0
 30 33  1  0  0  0  0
 28 29  1  0  0  0  0
 28 30  1  0  0  0  0
M  END
$$$$
default_name
  -OEChem-01062215323D

 33 33  0     1  0  0  0  0  0999 V2000
   -4.0702   -3.8485    1.4554 H   0  0  0  0  0  0  0  0  0  0  0  0
   -4.0012   -2.9605    0.8284 C   0  0  0  0  0  0  0  0  0  0  0  0
   -4.7652   -2.2435    1.1234 H   0  0  0  0  0  0  0  0  0  0  0  0
   -4.1352   -3.2385   -0.2156 H   0  0  0  0  0  0  0  0  0  0  0  0
   -2.6362   -2.3395    1.0094 C   0  0  0  0  0  0  0  0  0  0  0  0
   -1.8292   -2.8395    1.7814 O   0  0  0  0  0  0  0  0  0  0  0  0
   -2.3832   -1.2445    0.2964 N   0  0  0  0  0  0  0  0  0  0  0  0
   -3.1102   -0.8685   -0.2946 H   0  0  0  0  0  0  0  0  0  0  0  0
   -1.1292   -0.4875    0.3524 C   0  0  1  0  0  0  0  0  0  0  0  0
   -0.5406   -0.7255   -0.5343 H   0  0  0  0  0  0  0  0  0  0  0  0
   -1.4409    1.0190    0.3359 C   0  0  0  0  0  0  0  0  0  0  0  0
   -2.1469    1.2436    1.1364 H   0  0  0  0  0  0  0  0  0  0  0  0
   -0.5235    1.5720    0.5445 H   0  0  0  0  0  0  0  0  0  0  0  0
   -2.0373    1.5099   -0.9692 C   0  0  0  0  0  0  0  0  0  0  0  0
   -1.2047    1.7873   -2.0719 C   0  0  0  0  0  0  0  0  0  0  0  0
   -0.1321    1.6755   -1.9820 H   0  0  0  0  0  0  0  0  0  0  0  0
   -1.7669    2.2042   -3.2942 C   0  0  0  0  0  0  0  0  0  0  0  0
   -1.1262    2.4172   -4.1361 H   0  0  0  0  0  0  0  0  0  0  0  0
   -3.1671    2.3403   -3.4147 C   0  0  0  0  0  0  0  0  0  0  0  0
   -3.7192    2.7388   -4.5901 O   0  0  0  0  0  0  0  0  0  0  0  0
   -3.0556    2.9860   -5.2354 H   0  0  0  0  0  0  0  0  0  0  0  0
   -3.9991    2.0575   -2.3116 C   0  0  0  0  0  0  0  0  0  0  0  0
   -5.0679    2.1696   -2.4149 H   0  0  0  0  0  0  0  0  0  0  0  0
   -3.4338    1.6455   -1.0899 C   0  0  0  0  0  0  0  0  0  0  0  0
   -4.0730    1.4374   -0.2401 H   0  0  0  0  0  0  0  0  0  0  0  0
   -0.3007   -0.8854    1.5852 C   0  0  0  0  0  0  0  0  0  0  0  0
   -0.0052   -0.0418    2.4321 O   0  0  0  0  0  0  0  0  0  0  0  0
    0.0764   -2.1663    1.6858 N   0  0  0  0  0  0  0  0  0  0  0  0
   -0.1559   -2.7824    0.9203 H   0  0  0  0  0  0  0  0  0  0  0  0
    0.8662   -2.7093    2.7886 C   0  0  0  0  0  0  0  0  0  0  0  0
    0.4169   -2.4244    3.7416 H   0  0  0  0  0  0  0  0  0  0  0  0
    0.9071   -3.7976    2.7215 H   0  0  0  0  0  0  0  0  0  0  0  0
    1.8805   -2.3071    2.7468 H   0  0  0  0  0  0  0  0  0  0  0  0
  5  6  2  0  0  0  0
  5  7  1  0  0  0  0
  2  3  1  0  0  0  0
  2  4  1  0  0  0  0
  2  5  1  0  0  0  0
  1  2  1  0  0  0  0
 26 27  2  0  0  0  0
 26 28  1  0  0  0  0
 24 25  1  0  0  0  0
 22 23  1  0  0  0  0
 22 24  2  0  0  0  0
 20 21  1  0  0  0  0
 19 20  1  0  0  0  0
 19 22  1  0  0  0  0
 17 18  1  0  0  0  0
 17 19  2  0  0  0  0
 15 16  1  0  0  0  0
 15 17  1  0  0  0  0
 14 15  2  0  0  0  0
 14 24  1  0  0  0  0
 11 12  1  0  0  0  0
 11 13  1  0  0  0  0
 11 14  1  0  0  0  0
  9 10  1  0  0  0  0
  9 11  1  0  0  0  0
  9 26  1  0  0  0  0
  7  8  1  0  0  0  0
  7  9  1  0  0  0  0
 30 31  1  0  0  0  0
 30 32  1  0  0  0  0
 30 33  1  0  0  0  0
 28 29  1  0  0  0  0
 28 30  1  0  0  0  0
M  END
$$$$
default_name
  -OEChem-01062215323D

 33 33  0     1  0  0  0  0  0999 V2000
   -4.0702   -3.8485    1.4554 H   0  0  0  0  0  0  0  0  0  0  0  0
   -4.0012   -2.9605    0.8284 C   0  0  0  0  0  0  0  0  0  0  0  0
   -4.7652   -2.2435    1.1234 H   0  0  0  0  0  0  0  0  0  0  0  0
   -4.1352   -3.2385   -0.2156 H   0  0  0  0  0  0  0  0  0  0  0  0
   -2.6362   -2.3395    1.0094 C   0  0  0  0  0  0  0  0  0  0  0  0
   -1.8292   -2.8395    1.7814 O   0  0  0  0  0  0  0  0  0  0  0  0
   -2.3832   -1.2445    0.2964 N   0  0  0  0  0  0  0  0  0  0  0  0
   -3.1102   -0.8685   -0.2946 H   0  0  0  0  0  0  0  0  0  0  0  0
   -1.1292   -0.4875    0.3524 C   0  0  1  0  0  0  0  0  0  0  0  0
   -0.5406   -0.7255   -0.5343 H   0  0  0  0  0  0  0  0  0  0  0  0
   -1.4409    1.0190    0.3359 C   0  0  0  0  0  0  0  0  0  0  0  0
   -2.1469    1.2436    1.1364 H   0  0  0  0  0  0  0  0  0  0  0  0
   -0.5235    1.5720    0.5445 H   0  0  0  0  0  0  0  0  0  0  0  0
   -2.0373    1.5099   -0.9692 C   0  0  0  0  0  0  0  0  0  0  0  0
   -1.2047    1.7873   -2.0719 C   0  0  0  0  0  0  0  0  0  0  0  0
   -0.1321    1.6755   -1.9820 H   0  0  0  0  0  0  0  0  0  0  0  0
   -1.7669    2.2042   -3.2942 C   0  0  0  0  0  0  0  0  0  0  0  0
   -1.1262    2.4172   -4.1361 H   0  0  0  0  0  0  0  0  0  0  0  0
   -3.1671    2.3403   -3.4147 C   0  0  0  0  0  0  0  0  0  0  0  0
   -3.7192    2.7388   -4.5901 O   0  0  0  0  0  0  0  0  0  0  0  0
   -3.0556    2.9860   -5.2354 H   0  0  0  0  0  0  0  0  0  0  0  0
   -3.9991    2.0575   -2.3116 C   0  0  0  0  0  0  0  0  0  0  0  0
   -5.0679    2.1696   -2.4149 H   0  0  0  0  0  0  0  0  0  0  0  0
   -3.4338    1.6455   -1.0899 C   0  0  0  0  0  0  0  0  0  0  0  0
   -4.0730    1.4374   -0.2401 H   0  0  0  0  0  0  0  0  0  0  0  0
   -0.3007   -0.8854    1.5852 C   0  0  0  0  0  0  0  0  0  0  0  0
   -0.2356   -0.1328    2.5576 O   0  0  0  0  0  0  0  0  0  0  0  0
    0.3339   -2.0639    1.5458 N   0  0  0  0  0  0  0  0  0  0  0  0
    0.2779   -2.5953    0.6891 H   0  0  0  0  0  0  0  0  0  0  0  0
    1.1622   -2.5910    2.6279 C   0  0  0  0  0  0  0  0  0  0  0  0
    0.6135   -2.5460    3.5702 H   0  0  0  0  0  0  0  0  0  0  0  0
    1.4366   -3.6267    2.4208 H   0  0  0  0  0  0  0  0  0  0  0  0
    2.0688   -1.9899    2.7227 H   0  0  0  0  0  0  0  0  0  0  0  0
  5  6  2  0  0  0  0
  5  7  1  0  0  0  0
  2  3  1  0  0  0  0
  2  4  1  0  0  0  0
  2  5  1  0  0  0  0
  1  2  1  0  0  0  0
 26 27  2  0  0  0  0
 26 28  1  0  0  0  0
 24 25  1  0  0  0  0
 22 23  1  0  0  0  0
 22 24  2  0  0  0  0
 20 21  1  0  0  0  0
 19 20  1  0  0  0  0
 19 22  1  0  0  0  0
 17 18  1  0  0  0  0
 17 19  2  0  0  0  0
 15 16  1  0  0  0  0
 15 17  1  0  0  0  0
 14 15  2  0  0  0  0
 14 24  1  0  0  0  0
 11 12  1  0  0  0  0
 11 13  1  0  0  0  0
 11 14  1  0  0  0  0
  9 10  1  0  0  0  0
  9 11  1  0  0  0  0
  9 26  1  0  0  0  0
  7  8  1  0  0  0  0
  7  9  1  0  0  0  0
 30 31  1  0  0  0  0
 30 32  1  0  0  0  0
 30 33  1  0  0  0  0
 28 29  1  0  0  0  0
 28 30  1  0  0  0  0
M  END
$$$$
default_name
  -OEChem-01062215323D

 33 33  0     1  0  0  0  0  0999 V2000
   -4.0702   -3.8485    1.4554 H   0  0  0  0  0  0  0  0  0  0  0  0
   -4.0012   -2.9605    0.8284 C   0  0  0  0  0  0  0  0  0  0  0  0
   -4.7652   -2.2435    1.1234 H   0  0  0  0  0  0  0  0  0  0  0  0
   -4.1352   -3.2385   -0.2156 H   0  0  0  0  0  0  0  0  0  0  0  0
   -2.6362   -2.3395    1.0094 C   0  0  0  0  0  0  0  0  0  0  0  0
   -1.8292   -2.8395    1.7814 O   0  0  0  0  0  0  0  0  0  0  0  0
   -2.3832   -1.2445    0.2964 N   0  0  0  0  0  0  0  0  0  0  0  0
   -3.1102   -0.8685   -0.2946 H   0  0  0  0  0  0  0  0  0  0  0  0
   -1.1292   -0.4875    0.3524 C   0  0  1  0  0  0  0  0  0  0  0  0
   -0.5406   -0.7255   -0.5343 H   0  0  0  0  0  0  0  0  0  0  0  0
   -1.4409    1.0190    0.3359 C   0  0  0  0  0  0  0  0  0  0  0  0
   -2.1469    1.2436    1.1364 H   0  0  0  0  0  0  0  0  0  0  0  0
   -0.5235    1.5720    0.5445 H   0  0  0  0  0  0  0  0  0  0  0  0
   -2.0373    1.5099   -0.9692 C   0  0  0  0  0  0  0  0  0  0  0  0
   -1.2047    1.7873   -2.0719 C   0  0  0  0  0  0  0  0  0  0  0  0
   -0.1321    1.6755   -1.9820 H   0  0  0  0  0  0  0  0  0  0  0  0
   -1.7669    2.2042   -3.2942 C   0  0  0  0  0  0  0  0  0  0  0  0
   -1.1262    2.4172   -4.1361 H   0  0  0  0  0  0  0  0  0  0  0  0
   -3.1671    2.3403   -3.4147 C   0  0  0  0  0  0  0  0  0  0  0  0
   -3.7192    2.7388   -4.5901 O   0  0  0  0  0  0  0  0  0  0  0  0
   -3.0556    2.9860   -5.2354 H   0  0  0  0  0  0  0  0  0  0  0  0
   -3.9991    2.0575   -2.3116 C   0  0  0  0  0  0  0  0  0  0  0  0
   -5.0679    2.1696   -2.4149 H   0  0  0  0  0  0  0  0  0  0  0  0
   -3.4338    1.6455   -1.0899 C   0  0  0  0  0  0  0  0  0  0  0  0
   -4.0730    1.4374   -0.2401 H   0  0  0  0  0  0  0  0  0  0  0  0
   -0.3007   -0.8854    1.5852 C   0  0  0  0  0  0  0  0  0  0  0  0
   -0.4478   -0.2860    2.6507 O   0  0  0  0  0  0  0  0  0  0  0  0
    0.5708   -1.8920    1.4421 N   0  0  0  0  0  0  0  0  0  0  0  0
    0.6737   -2.2923    0.5209 H   0  0  0  0  0  0  0  0  0  0  0  0
    1.4343   -2.3930    2.5089 C   0  0  0  0  0  0  0  0  0  0  0  0
    0.8401   -2.5987    3.4009 H   0  0  0  0  0  0  0  0  0  0  0  0
    1.9327   -3.3098    2.1897 H   0  0  0  0  0  0  0  0  0  0  0  0
    2.1865   -1.6410    2.7563 H   0  0  0  0  0  0  0  0  0  0  0  0
  5  6  2  0  0  0  0
  5  7  1  0  0  0  0
  2  3  1  0  0  0  0
  2  4  1  0  0  0  0
  2  5  1  0  0  0  0
  1  2  1  0  0  0  0
 26 27  2  0  0  0  0
 26 28  1  0  0  0  0
 24 25  1  0  0  0  0
 22 23  1  0  0  0  0
 22 24  2  0  0  0  0
 20 21  1  0  0  0  0
 19 20  1  0  0  0  0
 19 22  1  0  0  0  0
 17 18  1  0  0  0  0
 17 19  2  0  0  0  0
 15 16  1  0  0  0  0
 15 17  1  0  0  0  0
 14 15  2  0  0  0  0
 14 24  1  0  0  0  0
 11 12  1  0  0  0  0
 11 13  1  0  0  0  0
 11 14  1  0  0  0  0
  9 10  1  0  0  0  0
  9 11  1  0  0  0  0
  9 26  1  0  0  0  0
  7  8  1  0  0  0  0
  7  9  1  0  0  0  0
 30 31  1  0  0  0  0
 30 32  1  0  0  0  0
 30 33  1  0  0  0  0
 28 29  1  0  0  0  0
 28 30  1  0  0  0  0
M  END
$$$$
default_name
  -OEChem-01062215323D

 33 33  0     1  0  0  0  0  0999 V2000
   -4.0702   -3.8485    1.4554 H   0  0  0  0  0  0  0  0  0  0  0  0
   -4.0012   -2.9605    0.8284 C   0  0  0  0  0  0  0  0  0  0  0  0
   -4.7652   -2.2435    1.1234 H   0  0  0  0  0  0  0  0  0  0  0  0
   -4.1352   -3.2385   -0.2156 H   0  0  0  0  0  0  0  0  0  0  0  0
   -2.6362   -2.3395    1.0094 C   0  0  0  0  0  0  0  0  0  0  0  0
   -1.8292   -2.8395    1.7814 O   0  0  0  0  0  0  0  0  0  0  0  0
   -2.3832   -1.2445    0.2964 N   0  0  0  0  0  0  0  0  0  0  0  0
   -3.1102   -0.8685   -0.2946 H   0  0  0  0  0  0  0  0  0  0  0  0
   -1.1292   -0.4875    0.3524 C   0  0  1  0  0  0  0  0  0  0  0  0
   -0.5406   -0.7255   -0.5343 H   0  0  0  0  0  0  0  0  0  0  0  0
   -1.4409    1.0190    0.3359 C   0  0  0  0  0  0  0  0  0  0  0  0
   -2.1469    1.2436    1.1364 H   0  0  0  0  0  0  0  0  0  0  0  0
   -0.5235    1.5720    0.5445 H   0  0  0  0  0  0  0  0  0  0  0  0
   -2.0373    1.5099   -0.9692 C   0  0  0  0  0  0  0  0  0  0  0  0
   -1.2047    1.7873   -2.0719 C   0  0  0  0  0  0  0  0  0  0  0  0
   -0.1321    1.6755   -1.9820 H   0  0  0  0  0  0  0  0  0  0  0  0
   -1.7669    2.2042   -3.2942 C   0  0  0  0  0  0  0  0  0  0  0  0
   -1.1262    2.4172   -4.1361 H   0  0  0  0  0  0  0  0  0  0  0  0
   -3.1671    2.3403   -3.4147 C   0  0  0  0  0  0  0  0  0  0  0  0
   -3.7192    2.7388   -4.5901 O   0  0  0  0  0  0  0  0  0  0  0  0
   -3.0556    2.9860   -5.2354 H   0  0  0  0  0  0  0  0  0  0  0  0
   -3.9991    2.0575   -2.3116 C   0  0  0  0  0  0  0  0  0  0  0  0
   -5.0679    2.1696   -2.4149 H   0  0  0  0  0  0  0  0  0  0  0  0
   -3.4338    1.6455   -1.0899 C   0  0  0  0  0  0  0  0  0  0  0  0
   -4.0730    1.4374   -0.2401 H   0  0  0  0  0  0  0  0  0  0  0  0
   -0.3007   -0.8854    1.5852 C   0  0  0  0  0  0  0  0  0  0  0  0
   -0.6271   -0.4910    2.7051 O   0  0  0  0  0  0  0  0  0  0  0  0
    0.7708   -1.6623    1.3818 N   0  0  0  0  0  0  0  0  0  0  0  0
    1.0044   -1.8941    0.4272 H   0  0  0  0  0  0  0  0  0  0  0  0
    1.6640   -2.1287    2.4398 C   0  0  0  0  0  0  0  0  0  0  0  0
    1.0812   -2.5790    3.2452 H   0  0  0  0  0  0  0  0  0  0  0  0
    2.3617   -2.8685    2.0439 H   0  0  0  0  0  0  0  0  0  0  0  0
    2.2255   -1.2843    2.8452 H   0  0  0  0  0  0  0  0  0  0  0  0
  5  6  2  0  0  0  0
  5  7  1  0  0  0  0
  2  3  1  0  0  0  0
  2  4  1  0  0  0  0
  2  5  1  0  0  0  0
  1  2  1  0  0  0  0
 26 27  2  0  0  0  0
 26 28  1  0  0  0  0
 24 25  1  0  0  0  0
 22 23  1  0  0  0  0
 22 24  2  0  0  0  0
 20 21  1  0  0  0  0
 19 20  1  0  0  0  0
 19 22  1  0  0  0  0
 17 18  1  0  0  0  0
 17 19  2  0  0  0  0
 15 16  1  0  0  0  0
 15 17  1  0  0  0  0
 14 15  2  0  0  0  0
 14 24  1  0  0  0  0
 11 12  1  0  0  0  0
 11 13  1  0  0  0  0
 11 14  1  0  0  0  0
  9 10  1  0  0  0  0
  9 11  1  0  0  0  0
  9 26  1  0  0  0  0
  7  8  1  0  0  0  0
  7  9  1  0  0  0  0
 30 31  1  0  0  0  0
 30 32  1  0  0  0  0
 30 33  1  0  0  0  0
 28 29  1  0  0  0  0
 28 30  1  0  0  0  0
M  END
$$$$
default_name
  -OEChem-01062215323D

 33 33  0     1  0  0  0  0  0999 V2000
   -4.0702   -3.8485    1.4554 H   0  0  0  0  0  0  0  0  0  0  0  0
   -4.0012   -2.9605    0.8284 C   0  0  0  0  0  0  0  0  0  0  0  0
   -4.7652   -2.2435    1.1234 H   0  0  0  0  0  0  0  0  0  0  0  0
   -4.1352   -3.2385   -0.2156 H   0  0  0  0  0  0  0  0  0  0  0  0
   -2.6362   -2.3395    1.0094 C   0  0  0  0  0  0  0  0  0  0  0  0
   -1.8292   -2.8395    1.7814 O   0  0  0  0  0  0  0  0  0  0  0  0
   -2.3832   -1.2445    0.2964 N   0  0  0  0  0  0  0  0  0  0  0  0
   -3.1102   -0.8685   -0.2946 H   0  0  0  0  0  0  0  0  0  0  0  0
   -1.1292   -0.4875    0.3524 C   0  0  1  0  0  0  0  0  0  0  0  0
   -0.5406   -0.7255   -0.5343 H   0  0  0  0  0  0  0  0  0  0  0  0
   -1.4409    1.0190    0.3359 C   0  0  0  0  0  0  0  0  0  0  0  0
   -2.1469    1.2436    1.1364 H   0  0  0  0  0  0  0  0  0  0  0  0
   -0.5235    1.5720    0.5445 H   0  0  0  0  0  0  0  0  0  0  0  0
   -2.0373    1.5099   -0.9692 C   0  0  0  0  0  0  0  0  0  0  0  0
   -1.2047    1.7873   -2.0719 C   0  0  0  0  0  0  0  0  0  0  0  0
   -0.1321    1.6755   -1.9820 H   0  0  0  0  0  0  0  0  0  0  0  0
   -1.7669    2.2042   -3.2942 C   0  0  0  0  0  0  0  0  0  0  0  0
   -1.1262    2.4172   -4.1361 H   0  0  0  0  0  0  0  0  0  0  0  0
   -3.1671    2.3403   -3.4147 C   0  0  0  0  0  0  0  0  0  0  0  0
   -3.7192    2.7388   -4.5901 O   0  0  0  0  0  0  0  0  0  0  0  0
   -3.0556    2.9860   -5.2354 H   0  0  0  0  0  0  0  0  0  0  0  0
   -3.9991    2.0575   -2.3116 C   0  0  0  0  0  0  0  0  0  0  0  0
   -5.0679    2.1696   -2.4149 H   0  0  0  0  0  0  0  0  0  0  0  0
   -3.4338    1.6455   -1.0899 C   0  0  0  0  0  0  0  0  0  0  0  0
   -4.0730    1.4374   -0.2401 H   0  0  0  0  0  0  0  0  0  0  0  0
   -0.3007   -0.8854    1.5852 C   0  0  0  0  0  0  0  0  0  0  0  0
   -0.7615   -0.7338    2.7170 O   0  0  0  0  0  0  0  0  0  0  0  0
    0.9204   -1.3906    1.3690 N   0  0  0  0  0  0  0  0  0  0  0  0
    1.2474   -1.4278    0.4144 H   0  0  0  0  0  0  0  0  0  0  0  0
    1.8357   -1.8160    2.4254 C   0  0  0  0  0  0  0  0  0  0  0  0
    1.3205   -2.4882    3.1137 H   0  0  0  0  0  0  0  0  0  0  0  0
    2.6942   -2.3329    1.9933 H   0  0  0  0  0  0  0  0  0  0  0  0
    2.1832   -0.9441    2.9834 H   0  0  0  0  0  0  0  0  0  0  0  0
  5  6  2  0  0  0  0
  5  7  1  0  0  0  0
  2  3  1  0  0  0  0
  2  4  1  0  0  0  0
  2  5  1  0  0  0  0
  1  2  1  0  0  0  0
 26 27  2  0  0  0  0
 26 28  1  0  0  0  0
 24 25  1  0  0  0  0
 22 23  1  0  0  0  0
 22 24  2  0  0  0  0
 20 21  1  0  0  0  0
 19 20  1  0  0  0  0
 19 22  1  0  0  0  0
 17 18  1  0  0  0  0
 17 19  2  0  0  0  0
 15 16  1  0  0  0  0
 15 17  1  0  0  0  0
 14 15  2  0  0  0  0
 14 24  1  0  0  0  0
 11 12  1  0  0  0  0
 11 13  1  0  0  0  0
 11 14  1  0  0  0  0
  9 10  1  0  0  0  0
  9 11  1  0  0  0  0
  9 26  1  0  0  0  0
  7  8  1  0  0  0  0
  7  9  1  0  0  0  0
 30 31  1  0  0  0  0
 30 32  1  0  0  0  0
 30 33  1  0  0  0  0
 28 29  1  0  0  0  0
 28 30  1  0  0  0  0
M  END
$$$$
default_name
  -OEChem-01062215323D

 33 33  0     1  0  0  0  0  0999 V2000
   -4.0702   -3.8485    1.4554 H   0  0  0  0  0  0  0  0  0  0  0  0
   -4.0012   -2.9605    0.8284 C   0  0  0  0  0  0  0  0  0  0  0  0
   -4.7652   -2.2435    1.1234 H   0  0  0  0  0  0  0  0  0  0  0  0
   -4.1352   -3.2385   -0.2156 H   0  0  0  0  0  0  0  0  0  0  0  0
   -2.6362   -2.3395    1.0094 C   0  0  0  0  0  0  0  0  0  0  0  0
   -1.8292   -2.8395    1.7814 O   0  0  0  0  0  0  0  0  0  0  0  0
   -2.3832   -1.2445    0.2964 N   0  0  0  0  0  0  0  0  0  0  0  0
   -3.1102   -0.8685   -0.2946 H   0  0  0  0  0  0  0  0  0  0  0  0
   -1.1292   -0.4875    0.3524 C   0  0  1  0  0  0  0  0  0  0  0  0
   -0.5406   -0.7255   -0.5343 H   0  0  0  0  0  0  0  0  0  0  0  0
   -1.4409    1.0190    0.3359 C   0  0  0  0  0  0  0  0  0  0  0  0
   -2.1469    1.2436    1.1364 H   0  0  0  0  0  0  0  0  0  0  0  0
   -0.5235    1.5720    0.5445 H   0  0  0  0  0  0  0  0  0  0  0  0
   -2.0373    1.5099   -0.9692 C   0  0  0  0  0  0  0  0  0  0  0  0
   -1.2047    1.7873   -2.0719 C   0  0  0  0  0  0  0  0  0  0  0  0
   -0.1321    1.6755   -1.9820 H   0  0  0  0  0  0  0  0  0  0  0  0
   -1.7669    2.2042   -3.2942 C   0  0  0  0  0  0  0  0  0  0  0  0
   -1.1262    2.4172   -4.1361 H   0  0  0  0  0  0  0  0  0  0  0  0
   -3.1671    2.3403   -3.4147 C   0  0  0  0  0  0  0  0  0  0  0  0
   -3.7192    2.7388   -4.5901 O   0  0  0  0  0  0  0  0  0  0  0  0
   -3.0556    2.9860   -5.2354 H   0  0  0  0  0  0  0  0  0  0  0  0
   -3.9991    2.0575   -2.3116 C   0  0  0  0  0  0  0  0  0  0  0  0
   -5.0679    2.1696   -2.4149 H   0  0  0  0  0  0  0  0  0  0  0  0
   -3.4338    1.6455   -1.0899 C   0  0  0  0  0  0  0  0  0  0  0  0
   -4.0730    1.4374   -0.2401 H   0  0  0  0  0  0  0  0  0  0  0  0
   -0.3007   -0.8854    1.5852 C   0  0  0  0  0  0  0  0  0  0  0  0
   -0.8417   -0.9979    2.6856 O   0  0  0  0  0  0  0  0  0  0  0  0
    1.0094   -1.0953    1.4045 N   0  0  0  0  0  0  0  0  0  0  0  0
    1.3863   -0.9251    0.4833 H   0  0  0  0  0  0  0  0  0  0  0  0
    1.9377   -1.4764    2.4665 C   0  0  0  0  0  0  0  0  0  0  0  0
    1.5416   -2.3325    3.0154 H   0  0  0  0  0  0  0  0  0  0  0  0
    2.9076   -1.7394    2.0414 H   0  0  0  0  0  0  0  0  0  0  0  0
    2.0625   -0.6435    3.1616 H   0  0  0  0  0  0  0  0  0  0  0  0
  5  6  2  0  0  0  0
  5  7  1  0  0  0  0
  2  3  1  0  0  0  0
  2  4  1  0  0  0  0
  2  5  1  0  0  0  0
  1  2  1  0  0  0  0
 26 27  2  0  0  0  0
 26 28  1  0  0  0  0
 24 25  1  0  0  0  0
 22 23  1  0  0  0  0
 22 24  2  0  0  0  0
 20 21  1  0  0  0  0
 19 20  1  0  0  0  0
 19 22  1  0  0  0  0
 17 18  1  0  0  0  0
 17 19  2  0  0  0  0
 15 16  1  0  0  0  0
 15 17  1  0  0  0  0
 14 15  2  0  0  0  0
 14 24  1  0  0  0  0
 11 12  1  0  0  0  0
 11 13  1  0  0  0  0
 11 14  1  0  0  0  0
  9 10  1  0  0  0  0
  9 11  1  0  0  0  0
  9 26  1  0  0  0  0
  7  8  1  0  0  0  0
  7  9  1  0  0  0  0
 30 31  1  0  0  0  0
 30 32  1  0  0  0  0
 30 33  1  0  0  0  0
 28 29  1  0  0  0  0
 28 30  1  0  0  0  0
M  END
$$$$
default_name
  -OEChem-01062215323D

 33 33  0     1  0  0  0  0  0999 V2000
   -4.0702   -3.8485    1.4554 H   0  0  0  0  0  0  0  0  0  0  0  0
   -4.0012   -2.9605    0.8284 C   0  0  0  0  0  0  0  0  0  0  0  0
   -4.7652   -2.2435    1.1234 H   0  0  0  0  0  0  0  0  0  0  0  0
   -4.1352   -3.2385   -0.2156 H   0  0  0  0  0  0  0  0  0  0  0  0
   -2.6362   -2.3395    1.0094 C   0  0  0  0  0  0  0  0  0  0  0  0
   -1.8292   -2.8395    1.7814 O   0  0  0  0  0  0  0  0  0  0  0  0
   -2.3832   -1.2445    0.2964 N   0  0  0  0  0  0  0  0  0  0  0  0
   -3.1102   -0.8685   -0.2946 H   0  0  0  0  0  0  0  0  0  0  0  0
   -1.1292   -0.4875    0.3524 C   0  0  1  0  0  0  0  0  0  0  0  0
   -0.5406   -0.7255   -0.5343 H   0  0  0  0  0  0  0  0  0  0  0  0
   -1.4409    1.0190    0.3359 C   0  0  0  0  0  0  0  0  0  0  0  0
   -2.1469    1.2436    1.1364 H   0  0  0  0  0  0  0  0  0  0  0  0
   -0.5235    1.5720    0.5445 H   0  0  0  0  0  0  0  0  0  0  0  0
   -2.0373    1.5099   -0.9692 C   0  0  0  0  0  0  0  0  0  0  0  0
   -1.2047    1.7873   -2.0719 C   0  0  0  0  0  0  0  0  0  0  0  0
   -0.1321    1.6755   -1.9820 H   0  0  0  0  0  0  0  0  0  0  0  0
   -1.7669    2.2042   -3.2942 C   0  0  0  0  0  0  0  0  0  0  0  0
   -1.1262    2.4172   -4.1361 H   0  0  0  0  0  0  0  0  0  0  0  0
   -3.1671    2.3403   -3.4147 C   0  0  0  0  0  0  0  0  0  0  0  0
   -3.7192    2.7388   -4.5901 O   0  0  0  0  0  0  0  0  0  0  0  0
   -3.0556    2.9860   -5.2354 H   0  0  0  0  0  0  0  0  0  0  0  0
   -3.9991    2.0575   -2.3116 C   0  0  0  0  0  0  0  0  0  0  0  0
   -5.0679    2.1696   -2.4149 H   0  0  0  0  0  0  0  0  0  0  0  0
   -3.4338    1.6455   -1.0899 C   0  0  0  0  0  0  0  0  0  0  0  0
   -4.0730    1.4374   -0.2401 H   0  0  0  0  0  0  0  0  0  0  0  0
   -0.3007   -0.8854    1.5852 C   0  0  0  0  0  0  0  0  0  0  0  0
   -0.8622   -1.2652    2.6131 O   0  0  0  0  0  0  0  0  0  0  0  0
    1.0317   -0.7965    1.4860 N   0  0  0  0  0  0  0  0  0  0  0  0
    1.4115   -0.4204    0.6293 H   0  0  0  0  0  0  0  0  0  0  0  0
    1.9629   -1.1329    2.5604 C   0  0  0  0  0  0  0  0  0  0  0  0
    1.7294   -2.1226    2.9569 H   0  0  0  0  0  0  0  0  0  0  0  0
    2.9875   -1.1287    2.1849 H   0  0  0  0  0  0  0  0  0  0  0  0
    1.8716   -0.4031    3.3675 H   0  0  0  0  0  0  0  0  0  0  0  0
  5  6  2  0  0  0  0
  5  7  1  0  0  0  0
  2  3  1  0  0  0  0
  2  4  1  0  0  0  0
  2  5  1  0  0  0  0
  1  2  1  0  0  0  0
 26 27  2  0  0  0  0
 26 28  1  0  0  0  0
 24 25  1  0  0  0  0
 22 23  1  0  0  0  0
 22 24  2  0  0  0  0
 20 21  1  0  0  0  0
 19 20  1  0  0  0  0
 19 22  1  0  0  0  0
 17 18  1  0  0  0  0
 17 19  2  0  0  0  0
 15 16  1  0  0  0  0
 15 17  1  0  0  0  0
 14 15  2  0  0  0  0
 14 24  1  0  0  0  0
 11 12  1  0  0  0  0
 11 13  1  0  0  0  0
 11 14  1  0  0  0  0
  9 10  1  0  0  0  0
  9 11  1  0  0  0  0
  9 26  1  0  0  0  0
  7  8  1  0  0  0  0
  7  9  1  0  0  0  0
 30 31  1  0  0  0  0
 30 32  1  0  0  0  0
 30 33  1  0  0  0  0
 28 29  1  0  0  0  0
 28 30  1  0  0  0  0
M  END
$$$$
default_name
  -OEChem-01062215323D

 33 33  0     1  0  0  0  0  0999 V2000
   -4.0702   -3.8485    1.4554 H   0  0  0  0  0  0  0  0  0  0  0  0
   -4.0012   -2.9605    0.8284 C   0  0  0  0  0  0  0  0  0  0  0  0
   -4.7652   -2.2435    1.1234 H   0  0  0  0  0  0  0  0  0  0  0  0
   -4.1352   -3.2385   -0.2156 H   0  0  0  0  0  0  0  0  0  0  0  0
   -2.6362   -2.3395    1.0094 C   0  0  0  0  0  0  0  0  0  0  0  0
   -1.8292   -2.8395    1.7814 O   0  0  0  0  0  0  0  0  0  0  0  0
   -2.3832   -1.2445    0.2964 N   0  0  0  0  0  0  0  0  0  0  0  0
   -3.1102   -0.8685   -0.2946 H   0  0  0  0  0  0  0  0  0  0  0  0
   -1.1292   -0.4875    0.3524 C   0  0  1  0  0  0  0  0  0  0  0  0
   -0.5406   -0.7255   -0.5343 H   0  0  0  0  0  0  0  0  0  0  0  0
   -1.4409    1.0190    0.3359 C   0  0  0  0  0  0  0  0  0  0  0  0
   -2.1469    1.2436    1.1364 H   0  0  0  0  0  0  0  0  0  0  0  0
   -0.5235    1.5720    0.5445 H   0  0  0  0  0  0  0  0  0  0  0  0
   -2.0373    1.5099   -0.9692 C   0  0  0  0  0  0  0  0  0  0  0  0
   -1.2047    1.7873   -2.0719 C   0  0  0  0  0  0  0  0  0  0  0  0
   -0.1321    1.6755   -1.9820 H   0  0  0  0  0  0  0  0  0  0  0  0
   -1.7669    2.2042   -3.2942 C   0  0  0  0  0  0  0  0  0  0  0  0
   -1.1262    2.4172   -4.1361 H   0  0  0  0  0  0  0  0  0  0  0  0
   -3.1671    2.3403   -3.4147 C   0  0  0  0  0  0  0  0  0  0  0  0
   -3.7192    2.7388   -4.5901 O   0  0  0  0  0  0  0  0  0  0  0  0
   -3.0556    2.9860   -5.2354 H   0  0  0  0  0  0  0  0  0  0  0  0
   -3.9991    2.0575   -2.3116 C   0  0  0  0  0  0  0  0  0  0  0  0
   -5.0679    2.1696   -2.4149 H   0  0  0  0  0  0  0  0  0  0  0  0
   -3.4338    1.6455   -1.0899 C   0  0  0  0  0  0  0  0  0  0  0  0
   -4.0730    1.4374   -0.2401 H   0  0  0  0  0  0  0  0  0  0  0  0
   -0.3007   -0.8854    1.5852 C   0  0  0  0  0  0  0  0  0  0  0  0
   -0.8218   -1.5176    2.5045 O   0  0  0  0  0  0  0  0  0  0  0  0
    0.9858   -0.5147    1.6078 N   0  0  0  0  0  0  0  0  0  0  0  0
    1.3213    0.0520    0.8424 H   0  0  0  0  0  0  0  0  0  0  0  0
    1.9097   -0.8090    2.7007 C   0  0  0  0  0  0  0  0  0  0  0  0
    1.8712   -1.8727    2.9423 H   0  0  0  0  0  0  0  0  0  0  0  0
    2.9282   -0.5422    2.4141 H   0  0  0  0  0  0  0  0  0  0  0  0
    1.6236   -0.2391    3.5871 H   0  0  0  0  0  0  0  0  0  0  0  0
  5  6  2  0  0  0  0
  5  7  1  0  0  0  0
  2  3  1  0  0  0  0
  2  4  1  0  0  0  0
  2  5  1  0  0  0  0
  1  2  1  0  0  0  0
 26 27  2  0  0  0  0
 26 28  1  0  0  0  0
 24 25  1  0  0  0  0
 22 23  1  0  0  0  0
 22 24  2  0  0  0  0
 20 21  1  0  0  0  0
 19 20  1  0  0  0  0
 19 22  1  0  0  0  0
 17 18  1  0  0  0  0
 17 19  2  0  0  0  0
 15 16  1  0  0  0  0
 15 17  1  0  0  0  0
 14 15  2  0  0  0  0
 14 24  1  0  0  0  0
 11 12  1  0  0  0  0
 11 13  1  0  0  0  0
 11 14  1  0  0  0  0
  9 10  1  0  0  0  0
  9 11  1  0  0  0  0
  9 26  1  0  0  0  0
  7  8  1  0  0  0  0
  7  9  1  0  0  0  0
 30 31  1  0  0  0  0
 30 32  1  0  0  0  0
 30 33  1  0  0  0  0
 28 29  1  0  0  0  0
 28 30  1  0  0  0  0
M  END
$$$$
default_name
  -OEChem-01062215323D

 33 33  0     1  0  0  0  0  0999 V2000
   -4.0702   -3.8485    1.4554 H   0  0  0  0  0  0  0  0  0  0  0  0
   -4.0012   -2.9605    0.8284 C   0  0  0  0  0  0  0  0  0  0  0  0
   -4.7652   -2.2435    1.1234 H   0  0  0  0  0  0  0  0  0  0  0  0
   -4.1352   -3.2385   -0.2156 H   0  0  0  0  0  0  0  0  0  0  0  0
   -2.6362   -2.3395    1.0094 C   0  0  0  0  0  0  0  0  0  0  0  0
   -1.8292   -2.8395    1.7814 O   0  0  0  0  0  0  0  0  0  0  0  0
   -2.3832   -1.2445    0.2964 N   0  0  0  0  0  0  0  0  0  0  0  0
   -3.1102   -0.8685   -0.2946 H   0  0  0  0  0  0  0  0  0  0  0  0
   -1.1292   -0.4875    0.3524 C   0  0  1  0  0  0  0  0  0  0  0  0
   -0.6667   -0.5091   -0.6350 H   0  0  0  0  0  0  0  0  0  0  0  0
   -1.4325    0.9772    0.7123 C   0  0  0  0  0  0  0  0  0  0  0  0
   -2.0230    1.0019    1.6291 H   0  0  0  0  0  0  0  0  0  0  0  0
   -0.4925    1.4932    0.9151 H   0  0  0  0  0  0  0  0  0  0  0  0
   -2.1968    1.7291   -0.3603 C   0  0  0  0  0  0  0  0  0  0  0  0
   -1.5190    2.2637   -1.4742 C   0  0  0  0  0  0  0  0  0  0  0  0
   -0.4446    2.1616   -1.5544 H   0  0  0  0  0  0  0  0  0  0  0  0
   -2.2386    2.9260   -2.4879 C   0  0  0  0  0  0  0  0  0  0  0  0
   -1.7162    3.3355   -3.3387 H   0  0  0  0  0  0  0  0  0  0  0  0
   -3.6416    3.0504   -2.3884 C   0  0  0  0  0  0  0  0  0  0  0  0
   -4.3450    3.6846   -3.3621 O   0  0  0  0  0  0  0  0  0  0  0  0
   -3.7731    4.0846   -4.0185 H   0  0  0  0  0  0  0  0  0  0  0  0
   -4.3187    2.5104   -1.2754 C   0  0  0  0  0  0  0  0  0  0  0  0
   -5.3911    2.6158   -1.2086 H   0  0  0  0  0  0  0  0  0  0  0  0
   -3.5961    1.8531   -0.2617 C   0  0  0  0  0  0  0  0  0  0  0  0
   -4.1160    1.4467    0.5977 H   0  0  0  0  0  0  0  0  0  0  0  0
   -0.1441   -1.1270    1.3451 C   0  0  0  0  0  0  0  0  0  0  0  0
   -0.4617   -2.1412    1.9669 O   0  0  0  0  0  0  0  0  0  0  0  0
    1.0476   -0.5355    1.4967 N   0  0  0  0  0  0  0  0  0  0  0  0
    1.2081    0.3256    0.9944 H   0  0  0  0  0  0  0  0  0  0  0  0
    2.0953   -1.0107    2.3973 C   0  0  0  0  0  0  0  0  0  0  0  0
    2.2764   -2.0734    2.2272 H   0  0  0  0  0  0  0  0  0  0  0  0
    3.0193   -0.4564    2.2247 H   0  0  0  0  0  0  0  0  0  0  0  0
    1.7798   -0.8718    3.4335 H   0  0  0  0  0  0  0  0  0  0  0  0
  5  6  2  0  0  0  0
  5  7  1  0  0  0  0
  2  3  1  0  0  0  0
  2  4  1  0  0  0  0
  2  5  1  0  0  0  0
  1  2  1  0  0  0  0
 26 27  2  0  0  0  0
 26 28  1  0  0  0  0
 24 25  1  0  0  0  0
 22 23  1  0  0  0  0
 22 24  2  0  0  0  0
 20 21  1  0  0  0  0
 19 20  1  0  0  0  0
 19 22  1  0  0  0  0
 17 18  1  0  0  0  0
 17 19  2  0  0  0  0
 15 16  1  0  0  0  0
 15 17  1  0  0  0  0
 14 15  2  0  0  0  0
 14 24  1  0  0  0  0
 11 12  1  0  0  0  0
 11 13  1  0  0  0  0
 11 14  1  0  0  0  0
  9 10  1  0  0  0  0
  9 11  1  0  0  0  0
  9 26  1  0  0  0  0
  7  8  1  0  0  0  0
  7  9  1  0  0  0  0
 30 31  1  0  0  0  0
 30 32  1  0  0  0  0
 30 33  1  0  0  0  0
 28 29  1  0  0  0  0
 28 30  1  0  0  0  0
M  END
$$$$
default_name
  -OEChem-01062215323D

 33 33  0     1  0  0  0  0  0999 V2000
   -4.0702   -3.8485    1.4554 H   0  0  0  0  0  0  0  0  0  0  0  0
   -4.0012   -2.9605    0.8284 C   0  0  0  0  0  0  0  0  0  0  0  0
   -4.7652   -2.2435    1.1234 H   0  0  0  0  0  0  0  0  0  0  0  0
   -4.1352   -3.2385   -0.2156 H   0  0  0  0  0  0  0  0  0  0  0  0
   -2.6362   -2.3395    1.0094 C   0  0  0  0  0  0  0  0  0  0  0  0
   -1.8292   -2.8395    1.7814 O   0  0  0  0  0  0  0  0  0  0  0  0
   -2.3832   -1.2445    0.2964 N   0  0  0  0  0  0  0  0  0  0  0  0
   -3.1102   -0.8685   -0.2946 H   0  0  0  0  0  0  0  0  0  0  0  0
   -1.1292   -0.4875    0.3524 C   0  0  1  0  0  0  0  0  0  0  0  0
   -0.6667   -0.5091   -0.6350 H   0  0  0  0  0  0  0  0  0  0  0  0
   -1.4325    0.9772    0.7123 C   0  0  0  0  0  0  0  0  0  0  0  0
   -2.0230    1.0019    1.6291 H   0  0  0  0  0  0  0  0  0  0  0  0
   -0.4925    1.4932    0.9151 H   0  0  0  0  0  0  0  0  0  0  0  0
   -2.1968    1.7291   -0.3603 C   0  0  0  0  0  0  0  0  0  0  0  0
   -1.5190    2.2637   -1.4742 C   0  0  0  0  0  0  0  0  0  0  0  0
   -0.4446    2.1616   -1.5544 H   0  0  0  0  0  0  0  0  0  0  0  0
   -2.2386    2.9260   -2.4879 C   0  0  0  0  0  0  0  0  0  0  0  0
   -1.7162    3.3355   -3.3387 H   0  0  0  0  0  0  0  0  0  0  0  0
   -3.6416    3.0504   -2.3884 C   0  0  0  0  0  0  0  0  0  0  0  0
   -4.3450    3.6846   -3.3621 O   0  0  0  0  0  0  0  0  0  0  0  0
   -3.7731    4.0846   -4.0185 H   0  0  0  0  0  0  0  0  0  0  0  0
   -4.3187    2.5104   -1.2754 C   0  0  0  0  0  0  0  0  0  0  0  0
   -5.3911    2.6158   -1.2086 H   0  0  0  0  0  0  0  0  0  0  0  0
   -3.5961    1.8531   -0.2617 C   0  0  0  0  0  0  0  0  0  0  0  0
   -4.1160    1.4467    0.5977 H   0  0  0  0  0  0  0  0  0  0  0  0
   -0.1441   -1.1270    1.3451 C   0  0  0  0  0  0  0  0  0  0  0  0
   -0.3348   -2.2716    1.7570 O   0  0  0  0  0  0  0  0  0  0  0  0
    0.9053   -0.3904    1.7314 N   0  0  0  0  0  0  0  0  0  0  0  0
    0.9579    0.5596    1.3935 H   0  0  0  0  0  0  0  0  0  0  0  0
    1.9314   -0.8442    2.6672 C   0  0  0  0  0  0  0  0  0  0  0  0
    2.3120   -1.8186    2.3561 H   0  0  0  0  0  0  0  0  0  0  0  0
    2.7553   -0.1293    2.6973 H   0  0  0  0  0  0  0  0  0  0  0  0
    1.5008   -0.9403    3.6661 H   0  0  0  0  0  0  0  0  0  0  0  0
  5  6  2  0  0  0  0
  5  7  1  0  0  0  0
  2  3  1  0  0  0  0
  2  4  1  0  0  0  0
  2  5  1  0  0  0  0
  1  2  1  0  0  0  0
 26 27  2  0  0  0  0
 26 28  1  0  0  0  0
 24 25  1  0  0  0  0
 22 23  1  0  0  0  0
 22 24  2  0  0  0  0
 20 21  1  0  0  0  0
 19 20  1  0  0  0  0
 19 22  1  0  0  0  0
 17 18  1  0  0  0  0
 17 19  2  0  0  0  0
 15 16  1  0  0  0  0
 15 17  1  0  0  0  0
 14 15  2  0  0  0  0
 14 24  1  0  0  0  0
 11 12  1  0  0  0  0
 11 13  1  0  0  0  0
 11 14  1  0  0  0  0
  9 10  1  0  0  0  0
  9 11  1  0  0  0  0
  9 26  1  0  0  0  0
  7  8  1  0  0  0  0
  7  9  1  0  0  0  0
 30 31  1  0  0  0  0
 30 32  1  0  0  0  0
 30 33  1  0  0  0  0
 28 29  1  0  0  0  0
 28 30  1  0  0  0  0
M  END
$$$$
default_name
  -OEChem-01062215323D

 33 33  0     1  0  0  0  0  0999 V2000
   -4.0702   -3.8485    1.4554 H   0  0  0  0  0  0  0  0  0  0  0  0
   -4.0012   -2.9605    0.8284 C   0  0  0  0  0  0  0  0  0  0  0  0
   -4.7652   -2.2435    1.1234 H   0  0  0  0  0  0  0  0  0  0  0  0
   -4.1352   -3.2385   -0.2156 H   0  0  0  0  0  0  0  0  0  0  0  0
   -2.6362   -2.3395    1.0094 C   0  0  0  0  0  0  0  0  0  0  0  0
   -1.8292   -2.8395    1.7814 O   0  0  0  0  0  0  0  0  0  0  0  0
   -2.3832   -1.2445    0.2964 N   0  0  0  0  0  0  0  0  0  0  0  0
   -3.1102   -0.8685   -0.2946 H   0  0  0  0  0  0  0  0  0  0  0  0
   -1.1292   -0.4875    0.3524 C   0  0  1  0  0  0  0  0  0  0  0  0
   -0.6667   -0.5091   -0.6350 H   0  0  0  0  0  0  0  0  0  0  0  0
   -1.4325    0.9772    0.7123 C   0  0  0  0  0  0  0  0  0  0  0  0
   -2.0230    1.0019    1.6291 H   0  0  0  0  0  0  0  0  0  0  0  0
   -0.4925    1.4932    0.9151 H   0  0  0  0  0  0  0  0  0  0  0  0
   -2.1968    1.7291   -0.3603 C   0  0  0  0  0  0  0  0  0  0  0  0
   -1.5190    2.2637   -1.4742 C   0  0  0  0  0  0  0  0  0  0  0  0
   -0.4446    2.1616   -1.5544 H   0  0  0  0  0  0  0  0  0  0  0  0
   -2.2386    2.9260   -2.4879 C   0  0  0  0  0  0  0  0  0  0  0  0
   -1.7162    3.3355   -3.3387 H   0  0  0  0  0  0  0  0  0  0  0  0
   -3.6416    3.0504   -2.3884 C   0  0  0  0  0  0  0  0  0  0  0  0
   -4.3450    3.6846   -3.3621 O   0  0  0  0  0  0  0  0  0  0  0  0
   -3.7731    4.0846   -4.0185 H   0  0  0  0  0  0  0  0  0  0  0  0
   -4.3187    2.5104   -1.2754 C   0  0  0  0  0  0  0  0  0  0  0  0
   -5.3911    2.6158   -1.2086 H   0  0  0  0  0  0  0  0  0  0  0  0
   -3.5961    1.8531   -0.2617 C   0  0  0  0  0  0  0  0  0  0  0  0
   -4.1160    1.4467    0.5977 H   0  0  0  0  0  0  0  0  0  0  0  0
   -0.1441   -1.1270    1.3451 C   0  0  0  0  0  0  0  0  0  0  0  0
   -0.1679   -2.3415    1.5463 O   0  0  0  0  0  0  0  0  0  0  0  0
    0.7183   -0.3130    1.9668 N   0  0  0  0  0  0  0  0  0  0  0  0
    0.6341    0.6777    1.7909 H   0  0  0  0  0  0  0  0  0  0  0  0
    1.7162   -0.7556    2.9379 C   0  0  0  0  0  0  0  0  0  0  0  0
    2.2899   -1.5879    2.5266 H   0  0  0  0  0  0  0  0  0  0  0  0
    2.3948    0.0641    3.1797 H   0  0  0  0  0  0  0  0  0  0  0  0
    1.2178   -1.0918    3.8495 H   0  0  0  0  0  0  0  0  0  0  0  0
  5  6  2  0  0  0  0
  5  7  1  0  0  0  0
  2  3  1  0  0  0  0
  2  4  1  0  0  0  0
  2  5  1  0  0  0  0
  1  2  1  0  0  0  0
 26 27  2  0  0  0  0
 26 28  1  0  0  0  0
 24 25  1  0  0  0  0
 22 23  1  0  0  0  0
 22 24  2  0  0  0  0
 20 21  1  0  0  0  0
 19 20  1  0  0  0  0
 19 22  1  0  0  0  0
 17 18  1  0  0  0  0
 17 19  2  0  0  0  0
 15 16  1  0  0  0  0
 15 17  1  0  0  0  0
 14 15  2  0  0  0  0
 14 24  1  0  0  0  0
 11 12  1  0  0  0  0
 11 13  1  0  0  0  0
 11 14  1  0  0  0  0
  9 10  1  0  0  0  0
  9 11  1  0  0  0  0
  9 26  1  0  0  0  0
  7  8  1  0  0  0  0
  7  9  1  0  0  0  0
 30 31  1  0  0  0  0
 30 32  1  0  0  0  0
 30 33  1  0  0  0  0
 28 29  1  0  0  0  0
 28 30  1  0  0  0  0
M  END
$$$$
default_name
  -OEChem-01062215323D

 33 33  0     1  0  0  0  0  0999 V2000
   -4.0702   -3.8485    1.4554 H   0  0  0  0  0  0  0  0  0  0  0  0
   -4.0012   -2.9605    0.8284 C   0  0  0  0  0  0  0  0  0  0  0  0
   -4.7652   -2.2435    1.1234 H   0  0  0  0  0  0  0  0  0  0  0  0
   -4.1352   -3.2385   -0.2156 H   0  0  0  0  0  0  0  0  0  0  0  0
   -2.6362   -2.3395    1.0094 C   0  0  0  0  0  0  0  0  0  0  0  0
   -1.8292   -2.8395    1.7814 O   0  0  0  0  0  0  0  0  0  0  0  0
   -2.3832   -1.2445    0.2964 N   0  0  0  0  0  0  0  0  0  0  0  0
   -3.1102   -0.8685   -0.2946 H   0  0  0  0  0  0  0  0  0  0  0  0
   -1.1292   -0.4875    0.3524 C   0  0  1  0  0  0  0  0  0  0  0  0
   -0.6667   -0.5091   -0.6350 H   0  0  0  0  0  0  0  0  0  0  0  0
   -1.4325    0.9772    0.7123 C   0  0  0  0  0  0  0  0  0  0  0  0
   -2.0230    1.0019    1.6291 H   0  0  0  0  0  0  0  0  0  0  0  0
   -0.4925    1.4932    0.9151 H   0  0  0  0  0  0  0  0  0  0  0  0
   -2.1968    1.7291   -0.3603 C   0  0  0  0  0  0  0  0  0  0  0  0
   -1.5190    2.2637   -1.4742 C   0  0  0  0  0  0  0  0  0  0  0  0
   -0.4446    2.1616   -1.5544 H   0  0  0  0  0  0  0  0  0  0  0  0
   -2.2386    2.9260   -2.4879 C   0  0  0  0  0  0  0  0  0  0  0  0
   -1.7162    3.3355   -3.3387 H   0  0  0  0  0  0  0  0  0  0  0  0
   -3.6416    3.0504   -2.3884 C   0  0  0  0  0  0  0  0  0  0  0  0
   -4.3450    3.6846   -3.3621 O   0  0  0  0  0  0  0  0  0  0  0  0
   -3.7731    4.0846   -4.0185 H   0  0  0  0  0  0  0  0  0  0  0  0
   -4.3187    2.5104   -1.2754 C   0  0  0  0  0  0  0  0  0  0  0  0
   -5.3911    2.6158   -1.2086 H   0  0  0  0  0  0  0  0  0  0  0  0
   -3.5961    1.8531   -0.2617 C   0  0  0  0  0  0  0  0  0  0  0  0
   -4.1160    1.4467    0.5977 H   0  0  0  0  0  0  0  0  0  0  0  0
   -0.1441   -1.1270    1.3451 C   0  0  0  0  0  0  0  0  0  0  0  0
    0.0277   -2.3462    1.3492 O   0  0  0  0  0  0  0  0  0  0  0  0
    0.4994   -0.3084    2.1869 N   0  0  0  0  0  0  0  0  0  0  0  0
    0.2589    0.6719    2.1595 H   0  0  0  0  0  0  0  0  0  0  0  0
    1.4644   -0.7508    3.1909 C   0  0  0  0  0  0  0  0  0  0  0  0
    2.2117   -1.3971    2.7272 H   0  0  0  0  0  0  0  0  0  0  0  0
    1.9624    0.1107    3.6388 H   0  0  0  0  0  0  0  0  0  0  0  0
    0.9499   -1.3157    3.9710 H   0  0  0  0  0  0  0  0  0  0  0  0
  5  6  2  0  0  0  0
  5  7  1  0  0  0  0
  2  3  1  0  0  0  0
  2  4  1  0  0  0  0
  2  5  1  0  0  0  0
  1  2  1  0  0  0  0
 26 27  2  0  0  0  0
 26 28  1  0  0  0  0
 24 25  1  0  0  0  0
 22 23  1  0  0  0  0
 22 24  2  0  0  0  0
 20 21  1  0  0  0  0
 19 20  1  0  0  0  0
 19 22  1  0  0  0  0
 17 18  1  0  0  0  0
 17 19  2  0  0  0  0
 15 16  1  0  0  0  0
 15 17  1  0  0  0  0
 14 15  2  0  0  0  0
 14 24  1  0  0  0  0
 11 12  1  0  0  0  0
 11 13  1  0  0  0  0
 11 14  1  0  0  0  0
  9 10  1  0  0  0  0
  9 11  1  0  0  0  0
  9 26  1  0  0  0  0
  7  8  1  0  0  0  0
  7  9  1  0  0  0  0
 30 31  1  0  0  0  0
 30 32  1  0  0  0  0
 30 33  1  0  0  0  0
 28 29  1  0  0  0  0
 28 30  1  0  0  0  0
M  END
$$$$
default_name
  -OEChem-01062215323D

 33 33  0     1  0  0  0  0  0999 V2000
   -4.0702   -3.8485    1.4554 H   0  0  0  0  0  0  0  0  0  0  0  0
   -4.0012   -2.9605    0.8284 C   0  0  0  0  0  0  0  0  0  0  0  0
   -4.7652   -2.2435    1.1234 H   0  0  0  0  0  0  0  0  0  0  0  0
   -4.1352   -3.2385   -0.2156 H   0  0  0  0  0  0  0  0  0  0  0  0
   -2.6362   -2.3395    1.0094 C   0  0  0  0  0  0  0  0  0  0  0  0
   -1.8292   -2.8395    1.7814 O   0  0  0  0  0  0  0  0  0  0  0  0
   -2.3832   -1.2445    0.2964 N   0  0  0  0  0  0  0  0  0  0  0  0
   -3.1102   -0.8685   -0.2946 H   0  0  0  0  0  0  0  0  0  0  0  0
   -1.1292   -0.4875    0.3524 C   0  0  1  0  0  0  0  0  0  0  0  0
   -0.6667   -0.5091   -0.6350 H   0  0  0  0  0  0  0  0  0  0  0  0
   -1.4325    0.9772    0.7123 C   0  0  0  0  0  0  0  0  0  0  0  0
   -2.0230    1.0019    1.6291 H   0  0  0  0  0  0  0  0  0  0  0  0
   -0.4925    1.4932    0.9151 H   0  0  0  0  0  0  0  0  0  0  0  0
   -2.1968    1.7291   -0.3603 C   0  0  0  0  0  0  0  0  0  0  0  0
   -1.5190    2.2637   -1.4742 C   0  0  0  0  0  0  0  0  0  0  0  0
   -0.4446    2.1616   -1.5544 H   0  0  0  0  0  0  0  0  0  0  0  0
   -2.2386    2.9260   -2.4879 C   0  0  0  0  0  0  0  0  0  0  0  0
   -1.7162    3.3355   -3.3387 H   0  0  0  0  0  0  0  0  0  0  0  0
   -3.6416    3.0504   -2.3884 C   0  0  0  0  0  0  0  0  0  0  0  0
   -4.3450    3.6846   -3.3621 O   0  0  0  0  0  0  0  0  0  0  0  0
   -3.7731    4.0846   -4.0185 H   0  0  0  0  0  0  0  0  0  0  0  0
   -4.3187    2.5104   -1.2754 C   0  0  0  0  0  0  0  0  0  0  0  0
   -5.3911    2.6158   -1.2086 H   0  0  0  0  0  0  0  0  0  0  0  0
   -3.5961    1.8531   -0.2617 C   0  0  0  0  0  0  0  0  0  0  0  0
   -4.1160    1.4467    0.5977 H   0  0  0  0  0  0  0  0  0  0  0  0
   -0.1441   -1.1270    1.3451 C   0  0  0  0  0  0  0  0  0  0  0  0
    0.2386   -2.2854    1.1790 O   0  0  0  0  0  0  0  0  0  0  0  0
    0.2636   -0.3771    2.3768 N   0  0  0  0  0  0  0  0  0  0  0  0
   -0.1422    0.5424    2.4741 H   0  0  0  0  0  0  0  0  0  0  0  0
    1.1932   -0.8301    3.4089 C   0  0  0  0  0  0  0  0  0  0  0  0
    2.0826   -1.2590    2.9442 H   0  0  0  0  0  0  0  0  0  0  0  0
    1.4875    0.0074    4.0435 H   0  0  0  0  0  0  0  0  0  0  0  0
    0.7156   -1.5969    4.0224 H   0  0  0  0  0  0  0  0  0  0  0  0
  5  6  2  0  0  0  0
  5  7  1  0  0  0  0
  2  3  1  0  0  0  0
  2  4  1  0  0  0  0
  2  5  1  0  0  0  0
  1  2  1  0  0  0  0
 26 27  2  0  0  0  0
 26 28  1  0  0  0  0
 24 25  1  0  0  0  0
 22 23  1  0  0  0  0
 22 24  2  0  0  0  0
 20 21  1  0  0  0  0
 19 20  1  0  0  0  0
 19 22  1  0  0  0  0
 17 18  1  0  0  0  0
 17 19  2  0  0  0  0
 15 16  1  0  0  0  0
 15 17  1  0  0  0  0
 14 15  2  0  0  0  0
 14 24  1  0  0  0  0
 11 12  1  0  0  0  0
 11 13  1  0  0  0  0
 11 14  1  0  0  0  0
  9 10  1  0  0  0  0
  9 11  1  0  0  0  0
  9 26  1  0  0  0  0
  7  8  1  0  0  0  0
  7  9  1  0  0  0  0
 30 31  1  0  0  0  0
 30 32  1  0  0  0  0
 30 33  1  0  0  0  0
 28 29  1  0  0  0  0
 28 30  1  0  0  0  0
M  END
$$$$
default_name
  -OEChem-01062215323D

 33 33  0     1  0  0  0  0  0999 V2000
   -4.0702   -3.8485    1.4554 H   0  0  0  0  0  0  0  0  0  0  0  0
   -4.0012   -2.9605    0.8284 C   0  0  0  0  0  0  0  0  0  0  0  0
   -4.7652   -2.2435    1.1234 H   0  0  0  0  0  0  0  0  0  0  0  0
   -4.1352   -3.2385   -0.2156 H   0  0  0  0  0  0  0  0  0  0  0  0
   -2.6362   -2.3395    1.0094 C   0  0  0  0  0  0  0  0  0  0  0  0
   -1.8292   -2.8395    1.7814 O   0  0  0  0  0  0  0  0  0  0  0  0
   -2.3832   -1.2445    0.2964 N   0  0  0  0  0  0  0  0  0  0  0  0
   -3.1102   -0.8685   -0.2946 H   0  0  0  0  0  0  0  0  0  0  0  0
   -1.1292   -0.4875    0.3524 C   0  0  1  0  0  0  0  0  0  0  0  0
   -0.6667   -0.5091   -0.6350 H   0  0  0  0  0  0  0  0  0  0  0  0
   -1.4325    0.9772    0.7123 C   0  0  0  0  0  0  0  0  0  0  0  0
   -2.0230    1.0019    1.6291 H   0  0  0  0  0  0  0  0  0  0  0  0
   -0.4925    1.4932    0.9151 H   0  0  0  0  0  0  0  0  0  0  0  0
   -2.1968    1.7291   -0.3603 C   0  0  0  0  0  0  0  0  0  0  0  0
   -1.5190    2.2637   -1.4742 C   0  0  0  0  0  0  0  0  0  0  0  0
   -0.4446    2.1616   -1.5544 H   0  0  0  0  0  0  0  0  0  0  0  0
   -2.2386    2.9260   -2.4879 C   0  0  0  0  0  0  0  0  0  0  0  0
   -1.7162    3.3355   -3.3387 H   0  0  0  0  0  0  0  0  0  0  0  0
   -3.6416    3.0504   -2.3884 C   0  0  0  0  0  0  0  0  0  0  0  0
   -4.3450    3.6846   -3.3621 O   0  0  0  0  0  0  0  0  0  0  0  0
   -3.7731    4.0846   -4.0185 H   0  0  0  0  0  0  0  0  0  0  0  0
   -4.3187    2.5104   -1.2754 C   0  0  0  0  0  0  0  0  0  0  0  0
   -5.3911    2.6158   -1.2086 H   0  0  0  0  0  0  0  0  0  0  0  0
   -3.5961    1.8531   -0.2617 C   0  0  0  0  0  0  0  0  0  0  0  0
   -4.1160    1.4467    0.5977 H   0  0  0  0  0  0  0  0  0  0  0  0
   -0.1441   -1.1270    1.3451 C   0  0  0  0  0  0  0  0  0  0  0  0
    0.4505   -2.1633    1.0474 O   0  0  0  0  0  0  0  0  0  0  0  0
    0.0268   -0.5143    2.5234 N   0  0  0  0  0  0  0  0  0  0  0  0
   -0.5420    0.2981    2.7134 H   0  0  0  0  0  0  0  0  0  0  0  0
    0.9209   -0.9883    3.5772 C   0  0  0  0  0  0  0  0  0  0  0  0
    1.9116   -1.1833    3.1628 H   0  0  0  0  0  0  0  0  0  0  0  0
    1.0025   -0.2389    4.3662 H   0  0  0  0  0  0  0  0  0  0  0  0
    0.5306   -1.9162    4.0002 H   0  0  0  0  0  0  0  0  0  0  0  0
  5  6  2  0  0  0  0
  5  7  1  0  0  0  0
  2  3  1  0  0  0  0
  2  4  1  0  0  0  0
  2  5  1  0  0  0  0
  1  2  1  0  0  0  0
 26 27  2  0  0  0  0
 26 28  1  0  0  0  0
 24 25  1  0  0  0  0
 22 23  1  0  0  0  0
 22 24  2  0  0  0  0
 20 21  1  0  0  0  0
 19 20  1  0  0  0  0
 19 22  1  0  0  0  0
 17 18  1  0  0  0  0
 17 19  2  0  0  0  0
 15 16  1  0  0  0  0
 15 17  1  0  0  0  0
 14 15  2  0  0  0  0
 14 24  1  0  0  0  0
 11 12  1  0  0  0  0
 11 13  1  0  0  0  0
 11 14  1  0  0  0  0
  9 10  1  0  0  0  0
  9 11  1  0  0  0  0
  9 26  1  0  0  0  0
  7  8  1  0  0  0  0
  7  9  1  0  0  0  0
 30 31  1  0  0  0  0
 30 32  1  0  0  0  0
 30 33  1  0  0  0  0
 28 29  1  0  0  0  0
 28 30  1  0  0  0  0
M  END
$$$$
default_name
  -OEChem-01062215323D

 33 33  0     1  0  0  0  0  0999 V2000
   -4.0702   -3.8485    1.4554 H   0  0  0  0  0  0  0  0  0  0  0  0
   -4.0012   -2.9605    0.8284 C   0  0  0  0  0  0  0  0  0  0  0  0
   -4.7652   -2.2435    1.1234 H   0  0  0  0  0  0  0  0  0  0  0  0
   -4.1352   -3.2385   -0.2156 H   0  0  0  0  0  0  0  0  0  0  0  0
   -2.6362   -2.3395    1.0094 C   0  0  0  0  0  0  0  0  0  0  0  0
   -1.8292   -2.8395    1.7814 O   0  0  0  0  0  0  0  0  0  0  0  0
   -2.3832   -1.2445    0.2964 N   0  0  0  0  0  0  0  0  0  0  0  0
   -3.1102   -0.8685   -0.2946 H   0  0  0  0  0  0  0  0  0  0  0  0
   -1.1292   -0.4875    0.3524 C   0  0  1  0  0  0  0  0  0  0  0  0
   -0.6667   -0.5091   -0.6350 H   0  0  0  0  0  0  0  0  0  0  0  0
   -1.4325    0.9772    0.7123 C   0  0  0  0  0  0  0  0  0  0  0  0
   -2.0230    1.0019    1.6291 H   0  0  0  0  0  0  0  0  0  0  0  0
   -0.4925    1.4932    0.9151 H   0  0  0  0  0  0  0  0  0  0  0  0
   -2.1968    1.7291   -0.3603 C   0  0  0  0  0  0  0  0  0  0  0  0
   -1.5190    2.2637   -1.4742 C   0  0  0  0  0  0  0  0  0  0  0  0
   -0.4446    2.1616   -1.5544 H   0  0  0  0  0  0  0  0  0  0  0  0
   -2.2386    2.9260   -2.4879 C   0  0  0  0  0  0  0  0  0  0  0  0
   -1.7162    3.3355   -3.3387 H   0  0  0  0  0  0  0  0  0  0  0  0
   -3.6416    3.0504   -2.3884 C   0  0  0  0  0  0  0  0  0  0  0  0
   -4.3450    3.6846   -3.3621 O   0  0  0  0  0  0  0  0  0  0  0  0
   -3.7731    4.0846   -4.0185 H   0  0  0  0  0  0  0  0  0  0  0  0
   -4.3187    2.5104   -1.2754 C   0  0  0  0  0  0  0  0  0  0  0  0
   -5.3911    2.6158   -1.2086 H   0  0  0  0  0  0  0  0  0  0  0  0
   -3.5961    1.8531   -0.2617 C   0  0  0  0  0  0  0  0  0  0  0  0
   -4.1160    1.4467    0.5977 H   0  0  0  0  0  0  0  0  0  0  0  0
   -0.1441   -1.1270    1.3451 C   0  0  0  0  0  0  0  0  0  0  0  0
    0.6490   -1.9880    0.9634 O   0  0  0  0  0  0  0  0  0  0  0  0
   -0.1948   -0.7107    2.6167 N   0  0  0  0  0  0  0  0  0  0  0  0
   -0.9130   -0.0443    2.8610 H   0  0  0  0  0  0  0  0  0  0  0  0
    0.6663   -1.2144    3.6842 C   0  0  0  0  0  0  0  0  0  0  0  0
    1.7101   -1.1749    3.3681 H   0  0  0  0  0  0  0  0  0  0  0  0
    0.5404   -0.6113    4.5849 H   0  0  0  0  0  0  0  0  0  0  0  0
    0.4077   -2.2519    3.9059 H   0  0  0  0  0  0  0  0  0  0  0  0
  5  6  2  0  0  0  0
  5  7  1  0  0  0  0
  2  3  1  0  0  0  0
  2  4  1  0  0  0  0
  2  5  1  0  0  0  0
  1  2  1  0  0  0  0
 26 27  2  0  0  0  0
 26 28  1  0  0  0  0
 24 25  1  0  0  0  0
 22 23  1  0  0  0  0
 22 24  2  0  0  0  0
 20 21  1  0  0  0  0
 19 20  1  0  0  0  0
 19 22  1  0  0  0  0
 17 18  1  0  0  0  0
 17 19  2  0  0  0  0
 15 16  1  0  0  0  0
 15 17  1  0  0  0  0
 14 15  2  0  0  0  0
 14 24  1  0  0  0  0
 11 12  1  0  0  0  0
 11 13  1  0  0  0  0
 11 14  1  0  0  0  0
  9 10  1  0  0  0  0
  9 11  1  0  0  0  0
  9 26  1  0  0  0  0
  7  8  1  0  0  0  0
  7  9  1  0  0  0  0
 30 31  1  0  0  0  0
 30 32  1  0  0  0  0
 30 33  1  0  0  0  0
 28 29  1  0  0  0  0
 28 30  1  0  0  0  0
M  END
$$$$
default_name
  -OEChem-01062215323D

 33 33  0     1  0  0  0  0  0999 V2000
   -4.0702   -3.8485    1.4554 H   0  0  0  0  0  0  0  0  0  0  0  0
   -4.0012   -2.9605    0.8284 C   0  0  0  0  0  0  0  0  0  0  0  0
   -4.7652   -2.2435    1.1234 H   0  0  0  0  0  0  0  0  0  0  0  0
   -4.1352   -3.2385   -0.2156 H   0  0  0  0  0  0  0  0  0  0  0  0
   -2.6362   -2.3395    1.0094 C   0  0  0  0  0  0  0  0  0  0  0  0
   -1.8292   -2.8395    1.7814 O   0  0  0  0  0  0  0  0  0  0  0  0
   -2.3832   -1.2445    0.2964 N   0  0  0  0  0  0  0  0  0  0  0  0
   -3.1102   -0.8685   -0.2946 H   0  0  0  0  0  0  0  0  0  0  0  0
   -1.1292   -0.4875    0.3524 C   0  0  1  0  0  0  0  0  0  0  0  0
   -0.6667   -0.5091   -0.6350 H   0  0  0  0  0  0  0  0  0  0  0  0
   -1.4325    0.9772    0.7123 C   0  0  0  0  0  0  0  0  0  0  0  0
   -2.0230    1.0019    1.6291 H   0  0  0  0  0  0  0  0  0  0  0  0
   -0.4925    1.4932    0.9151 H   0  0  0  0  0  0  0  0  0  0  0  0
   -2.1968    1.7291   -0.3603 C   0  0  0  0  0  0  0  0  0  0  0  0
   -1.5190    2.2637   -1.4742 C   0  0  0  0  0  0  0  0  0  0  0  0
   -0.4446    2.1616   -1.5544 H   0  0  0  0  0  0  0  0  0  0  0  0
   -2.2386    2.9260   -2.4879 C   0  0  0  0  0  0  0  0  0  0  0  0
   -1.7162    3.3355   -3.3387 H   0  0  0  0  0  0  0  0  0  0  0  0
   -3.6416    3.0504   -2.3884 C   0  0  0  0  0  0  0  0  0  0  0  0
   -4.3450    3.6846   -3.3621 O   0  0  0  0  0  0  0  0  0  0  0  0
   -3.7731    4.0846   -4.0185 H   0  0  0  0  0  0  0  0  0  0  0  0
   -4.3187    2.5104   -1.2754 C   0  0  0  0  0  0  0  0  0  0  0  0
   -5.3911    2.6158   -1.2086 H   0  0  0  0  0  0  0  0  0  0  0  0
   -3.5961    1.8531   -0.2617 C   0  0  0  0  0  0  0  0  0  0  0  0
   -4.1160    1.4467    0.5977 H   0  0  0  0  0  0  0  0  0  0  0  0
   -0.1441   -1.1270    1.3451 C   0  0  0  0  0  0  0  0  0  0  0  0
    0.8204   -1.7717    0.9326 O   0  0  0  0  0  0  0  0  0  0  0  0
   -0.3861   -0.9529    2.6505 N   0  0  0  0  0  0  0  0  0  0  0  0
   -1.2301   -0.4615    2.9069 H   0  0  0  0  0  0  0  0  0  0  0  0
    0.4466   -1.4931    3.7227 C   0  0  0  0  0  0  0  0  0  0  0  0
    1.4921   -1.2345    3.5461 H   0  0  0  0  0  0  0  0  0  0  0  0
    0.1327   -1.0845    4.6846 H   0  0  0  0  0  0  0  0  0  0  0  0
    0.3552   -2.5810    3.7460 H   0  0  0  0  0  0  0  0  0  0  0  0
  5  6  2  0  0  0  0
  5  7  1  0  0  0  0
  2  3  1  0  0  0  0
  2  4  1  0  0  0  0
  2  5  1  0  0  0  0
  1  2  1  0  0  0  0
 26 27  2  0  0  0  0
 26 28  1  0  0  0  0
 24 25  1  0  0  0  0
 22 23  1  0  0  0  0
 22 24  2  0  0  0  0
 20 21  1  0  0  0  0
 19 20  1  0  0  0  0
 19 22  1  0  0  0  0
 17 18  1  0  0  0  0
 17 19  2  0  0  0  0
 15 16  1  0  0  0  0
 15 17  1  0  0  0  0
 14 15  2  0  0  0  0
 14 24  1  0  0  0  0
 11 12  1  0  0  0  0
 11 13  1  0  0  0  0
 11 14  1  0  0  0  0
  9 10  1  0  0  0  0
  9 11  1  0  0  0  0
  9 26  1  0  0  0  0
  7  8  1  0  0  0  0
  7  9  1  0  0  0  0
 30 31  1  0  0  0  0
 30 32  1  0  0  0  0
 30 33  1  0  0  0  0
 28 29  1  0  0  0  0
 28 30  1  0  0  0  0
M  END
$$$$
default_name
  -OEChem-01062215323D

 33 33  0     1  0  0  0  0  0999 V2000
   -4.0702   -3.8485    1.4554 H   0  0  0  0  0  0  0  0  0  0  0  0
   -4.0012   -2.9605    0.8284 C   0  0  0  0  0  0  0  0  0  0  0  0
   -4.7652   -2.2435    1.1234 H   0  0  0  0  0  0  0  0  0  0  0  0
   -4.1352   -3.2385   -0.2156 H   0  0  0  0  0  0  0  0  0  0  0  0
   -2.6362   -2.3395    1.0094 C   0  0  0  0  0  0  0  0  0  0  0  0
   -1.8292   -2.8395    1.7814 O   0  0  0  0  0  0  0  0  0  0  0  0
   -2.3832   -1.2445    0.2964 N   0  0  0  0  0  0  0  0  0  0  0  0
   -3.1102   -0.8685   -0.2946 H   0  0  0  0  0  0  0  0  0  0  0  0
   -1.1292   -0.4875    0.3524 C   0  0  1  0  0  0  0  0  0  0  0  0
   -0.6667   -0.5091   -0.6350 H   0  0  0  0  0  0  0  0  0  0  0  0
   -1.4325    0.9772    0.7123 C   0  0  0  0  0  0  0  0  0  0  0  0
   -2.0230    1.0019    1.6291 H   0  0  0  0  0  0  0  0  0  0  0  0
   -0.4925    1.4932    0.9151 H   0  0  0  0  0  0  0  0  0  0  0  0
   -2.1968    1.7291   -0.3603 C   0  0  0  0  0  0  0  0  0  0  0  0
   -1.5190    2.2637   -1.4742 C   0  0  0  0  0  0  0  0  0  0  0  0
   -0.4446    2.1616   -1.5544 H   0  0  0  0  0  0  0  0  0  0  0  0
   -2.2386    2.9260   -2.4879 C   0  0  0  0  0  0  0  0  0  0  0  0
   -1.7162    3.3355   -3.3387 H   0  0  0  0  0  0  0  0  0  0  0  0
   -3.6416    3.0504   -2.3884 C   0  0  0  0  0  0  0  0  0  0  0  0
   -4.3450    3.6846   -3.3621 O   0  0  0  0  0  0  0  0  0  0  0  0
   -3.7731    4.0846   -4.0185 H   0  0  0  0  0  0  0  0  0  0  0  0
   -4.3187    2.5104   -1.2754 C   0  0  0  0  0  0  0  0  0  0  0  0
   -5.3911    2.6158   -1.2086 H   0  0  0  0  0  0  0  0  0  0  0  0
   -3.5961    1.8531   -0.2617 C   0  0  0  0  0  0  0  0  0  0  0  0
   -4.1160    1.4467    0.5977 H   0  0  0  0  0  0  0  0  0  0  0  0
   -0.1441   -1.1270    1.3451 C   0  0  0  0  0  0  0  0  0  0  0  0
    0.9532   -1.5290    0.9573 O   0  0  0  0  0  0  0  0  0  0  0  0
   -0.5340   -1.2244    2.6224 N   0  0  0  0  0  0  0  0  0  0  0  0
   -1.4716   -0.9251    2.8480 H   0  0  0  0  0  0  0  0  0  0  0  0
    0.2768   -1.8054    3.6900 C   0  0  0  0  0  0  0  0  0  0  0  0
    1.2723   -1.3580    3.6847 H   0  0  0  0  0  0  0  0  0  0  0  0
   -0.1927   -1.6261    4.6586 H   0  0  0  0  0  0  0  0  0  0  0  0
    0.3767   -2.8811    3.5313 H   0  0  0  0  0  0  0  0  0  0  0  0
  5  6  2  0  0  0  0
  5  7  1  0  0  0  0
  2  3  1  0  0  0  0
  2  4  1  0  0  0  0
  2  5  1  0  0  0  0
  1  2  1  0  0  0  0
 26 27  2  0  0  0  0
 26 28  1  0  0  0  0
 24 25  1  0  0  0  0
 22 23  1  0  0  0  0
 22 24  2  0  0  0  0
 20 21  1  0  0  0  0
 19 20  1  0  0  0  0
 19 22  1  0  0  0  0
 17 18  1  0  0  0  0
 17 19  2  0  0  0  0
 15 16  1  0  0  0  0
 15 17  1  0  0  0  0
 14 15  2  0  0  0  0
 14 24  1  0  0  0  0
 11 12  1  0  0  0  0
 11 13  1  0  0  0  0
 11 14  1  0  0  0  0
  9 10  1  0  0  0  0
  9 11  1  0  0  0  0
  9 26  1  0  0  0  0
  7  8  1  0  0  0  0
  7  9  1  0  0  0  0
 30 31  1  0  0  0  0
 30 32  1  0  0  0  0
 30 33  1  0  0  0  0
 28 29  1  0  0  0  0
 28 30  1  0  0  0  0
M  END
$$$$
default_name
  -OEChem-01062215323D

 33 33  0     1  0  0  0  0  0999 V2000
   -4.0702   -3.8485    1.4554 H   0  0  0  0  0  0  0  0  0  0  0  0
   -4.0012   -2.9605    0.8284 C   0  0  0  0  0  0  0  0  0  0  0  0
   -4.7652   -2.2435    1.1234 H   0  0  0  0  0  0  0  0  0  0  0  0
   -4.1352   -3.2385   -0.2156 H   0  0  0  0  0  0  0  0  0  0  0  0
   -2.6362   -2.3395    1.0094 C   0  0  0  0  0  0  0  0  0  0  0  0
   -1.8292   -2.8395    1.7814 O   0  0  0  0  0  0  0  0  0  0  0  0
   -2.3832   -1.2445    0.2964 N   0  0  0  0  0  0  0  0  0  0  0  0
   -3.1102   -0.8685   -0.2946 H   0  0  0  0  0  0  0  0  0  0  0  0
   -1.1292   -0.4875    0.3524 C   0  0  1  0  0  0  0  0  0  0  0  0
   -0.6667   -0.5091   -0.6350 H   0  0  0  0  0  0  0  0  0  0  0  0
   -1.4325    0.9772    0.7123 C   0  0  0  0  0  0  0  0  0  0  0  0
   -2.0230    1.0019    1.6291 H   0  0  0  0  0  0  0  0  0  0  0  0
   -0.4925    1.4932    0.9151 H   0  0  0  0  0  0  0  0  0  0  0  0
   -2.1968    1.7291   -0.3603 C   0  0  0  0  0  0  0  0  0  0  0  0
   -1.5190    2.2637   -1.4742 C   0  0  0  0  0  0  0  0  0  0  0  0
   -0.4446    2.1616   -1.5544 H   0  0  0  0  0  0  0  0  0  0  0  0
   -2.2386    2.9260   -2.4879 C   0  0  0  0  0  0  0  0  0  0  0  0
   -1.7162    3.3355   -3.3387 H   0  0  0  0  0  0  0  0  0  0  0  0
   -3.6416    3.0504   -2.3884 C   0  0  0  0  0  0  0  0  0  0  0  0
   -4.3450    3.6846   -3.3621 O   0  0  0  0  0  0  0  0  0  0  0  0
   -3.7731    4.0846   -4.0185 H   0  0  0  0  0  0  0  0  0  0  0  0
   -4.3187    2.5104   -1.2754 C   0  0  0  0  0  0  0  0  0  0  0  0
   -5.3911    2.6158   -1.2086 H   0  0  0  0  0  0  0  0  0  0  0  0
   -3.5961    1.8531   -0.2617 C   0  0  0  0  0  0  0  0  0  0  0  0
   -4.1160    1.4467    0.5977 H   0  0  0  0  0  0  0  0  0  0  0  0
   -0.1441   -1.1270    1.3451 C   0  0  0  0  0  0  0  0  0  0  0  0
    1.0382   -1.2764    1.0356 O   0  0  0  0  0  0  0  0  0  0  0  0
   -0.6285   -1.5067    2.5343 N   0  0  0  0  0  0  0  0  0  0  0  0
   -1.6211   -1.4034    2.6881 H   0  0  0  0  0  0  0  0  0  0  0  0
    0.1685   -2.1300    3.5883 C   0  0  0  0  0  0  0  0  0  0  0  0
    1.0656   -1.5370    3.7744 H   0  0  0  0  0  0  0  0  0  0  0  0
   -0.4138   -2.1994    4.5086 H   0  0  0  0  0  0  0  0  0  0  0  0
    0.4708   -3.1319    3.2765 H   0  0  0  0  0  0  0  0  0  0  0  0
  5  6  2  0  0  0  0
  5  7  1  0  0  0  0
  2  3  1  0  0  0  0
  2  4  1  0  0  0  0
  2  5  1  0  0  0  0
  1  2  1  0  0  0  0
 26 27  2  0  0  0  0
 26 28  1  0  0  0  0
 24 25  1  0  0  0  0
 22 23  1  0  0  0  0
 22 24  2  0  0  0  0
 20 21  1  0  0  0  0
 19 20  1  0  0  0  0
 19 22  1  0  0  0  0
 17 18  1  0  0  0  0
 17 19  2  0  0  0  0
 15 16  1  0  0  0  0
 15 17  1  0  0  0  0
 14 15  2  0  0  0  0
 14 24  1  0  0  0  0
 11 12  1  0  0  0  0
 11 13  1  0  0  0  0
 11 14  1  0  0  0  0
  9 10  1  0  0  0  0
  9 11  1  0  0  0  0
  9 26  1  0  0  0  0
  7  8  1  0  0  0  0
  7  9  1  0  0  0  0
 30 31  1  0  0  0  0
 30 32  1  0  0  0  0
 30 33  1  0  0  0  0
 28 29  1  0  0  0  0
 28 30  1  0  0  0  0
M  END
$$$$
default_name
  -OEChem-01062215323D

 33 33  0     1  0  0  0  0  0999 V2000
   -4.0702   -3.8485    1.4554 H   0  0  0  0  0  0  0  0  0  0  0  0
   -4.0012   -2.9605    0.8284 C   0  0  0  0  0  0  0  0  0  0  0  0
   -4.7652   -2.2435    1.1234 H   0  0  0  0  0  0  0  0  0  0  0  0
   -4.1352   -3.2385   -0.2156 H   0  0  0  0  0  0  0  0  0  0  0  0
   -2.6362   -2.3395    1.0094 C   0  0  0  0  0  0  0  0  0  0  0  0
   -1.8292   -2.8395    1.7814 O   0  0  0  0  0  0  0  0  0  0  0  0
   -2.3832   -1.2445    0.2964 N   0  0  0  0  0  0  0  0  0  0  0  0
   -3.1102   -0.8685   -0.2946 H   0  0  0  0  0  0  0  0  0  0  0  0
   -1.1292   -0.4875    0.3524 C   0  0  1  0  0  0  0  0  0  0  0  0
   -0.6667   -0.5091   -0.6350 H   0  0  0  0  0  0  0  0  0  0  0  0
   -1.4325    0.9772    0.7123 C   0  0  0  0  0  0  0  0  0  0  0  0
   -2.0230    1.0019    1.6291 H   0  0  0  0  0  0  0  0  0  0  0  0
   -0.4925    1.4932    0.9151 H   0  0  0  0  0  0  0  0  0  0  0  0
   -2.1968    1.7291   -0.3603 C   0  0  0  0  0  0  0  0  0  0  0  0
   -1.5190    2.2637   -1.4742 C   0  0  0  0  0  0  0  0  0  0  0  0
   -0.4446    2.1616   -1.5544 H   0  0  0  0  0  0  0  0  0  0  0  0
   -2.2386    2.9260   -2.4879 C   0  0  0  0  0  0  0  0  0  0  0  0
   -1.7162    3.3355   -3.3387 H   0  0  0  0  0  0  0  0  0  0  0  0
   -3.6416    3.0504   -2.3884 C   0  0  0  0  0  0  0  0  0  0  0  0
   -4.3450    3.6846   -3.3621 O   0  0  0  0  0  0  0  0  0  0  0  0
   -3.7731    4.0846   -4.0185 H   0  0  0  0  0  0  0  0  0  0  0  0
   -4.3187    2.5104   -1.2754 C   0  0  0  0  0  0  0  0  0  0  0  0
   -5.3911    2.6158   -1.2086 H   0  0  0  0  0  0  0  0  0  0  0  0
   -3.5961    1.8531   -0.2617 C   0  0  0  0  0  0  0  0  0  0  0  0
   -4.1160    1.4467    0.5977 H   0  0  0  0  0  0  0  0  0  0  0  0
   -0.1441   -1.1270    1.3451 C   0  0  0  0  0  0  0  0  0  0  0  0
    1.0698   -1.0313    1.1622 O   0  0  0  0  0  0  0  0  0  0  0  0
   -0.6631   -1.7806    2.3922 N   0  0  0  0  0  0  0  0  0  0  0  0
   -1.6683   -1.8639    2.4384 H   0  0  0  0  0  0  0  0  0  0  0  0
    0.1291   -2.4448    3.4247 C   0  0  0  0  0  0  0  0  0  0  0  0
    0.8863   -1.7593    3.8091 H   0  0  0  0  0  0  0  0  0  0  0  0
   -0.5154   -2.7652    4.2449 H   0  0  0  0  0  0  0  0  0  0  0  0
    0.6309   -3.3161    2.9988 H   0  0  0  0  0  0  0  0  0  0  0  0
  5  6  2  0  0  0  0
  5  7  1  0  0  0  0
  2  3  1  0  0  0  0
  2  4  1  0  0  0  0
  2  5  1  0  0  0  0
  1  2  1  0  0  0  0
 26 27  2  0  0  0  0
 26 28  1  0  0  0  0
 24 25  1  0  0  0  0
 22 23  1  0  0  0  0
 22 24  2  0  0  0  0
 20 21  1  0  0  0  0
 19 20  1  0  0  0  0
 19 22  1  0  0  0  0
 17 18  1  0  0  0  0
 17 19  2  0  0  0  0
 15 16  1  0  0  0  0
 15 17  1  0  0  0  0
 14 15  2  0  0  0  0
 14 24  1  0  0  0  0
 11 12  1  0  0  0  0
 11 13  1  0  0  0  0
 11 14  1  0  0  0  0
  9 10  1  0  0  0  0
  9 11  1  0  0  0  0
  9 26  1  0  0  0  0
  7  8  1  0  0  0  0
  7  9  1  0  0  0  0
 30 31  1  0  0  0  0
 30 32  1  0  0  0  0
 30 33  1  0  0  0  0
 28 29  1  0  0  0  0
 28 30  1  0  0  0  0
M  END
$$$$
default_name
  -OEChem-01062215323D

 33 33  0     1  0  0  0  0  0999 V2000
   -4.0702   -3.8485    1.4554 H   0  0  0  0  0  0  0  0  0  0  0  0
   -4.0012   -2.9605    0.8284 C   0  0  0  0  0  0  0  0  0  0  0  0
   -4.7652   -2.2435    1.1234 H   0  0  0  0  0  0  0  0  0  0  0  0
   -4.1352   -3.2385   -0.2156 H   0  0  0  0  0  0  0  0  0  0  0  0
   -2.6362   -2.3395    1.0094 C   0  0  0  0  0  0  0  0  0  0  0  0
   -1.8292   -2.8395    1.7814 O   0  0  0  0  0  0  0  0  0  0  0  0
   -2.3832   -1.2445    0.2964 N   0  0  0  0  0  0  0  0  0  0  0  0
   -3.1102   -0.8685   -0.2946 H   0  0  0  0  0  0  0  0  0  0  0  0
   -1.1292   -0.4875    0.3524 C   0  0  1  0  0  0  0  0  0  0  0  0
   -0.6667   -0.5091   -0.6350 H   0  0  0  0  0  0  0  0  0  0  0  0
   -1.4325    0.9772    0.7123 C   0  0  0  0  0  0  0  0  0  0  0  0
   -2.0230    1.0019    1.6291 H   0  0  0  0  0  0  0  0  0  0  0  0
   -0.4925    1.4932    0.9151 H   0  0  0  0  0  0  0  0  0  0  0  0
   -2.1968    1.7291   -0.3603 C   0  0  0  0  0  0  0  0  0  0  0  0
   -1.5190    2.2637   -1.4742 C   0  0  0  0  0  0  0  0  0  0  0  0
   -0.4446    2.1616   -1.5544 H   0  0  0  0  0  0  0  0  0  0  0  0
   -2.2386    2.9260   -2.4879 C   0  0  0  0  0  0  0  0  0  0  0  0
   -1.7162    3.3355   -3.3387 H   0  0  0  0  0  0  0  0  0  0  0  0
   -3.6416    3.0504   -2.3884 C   0  0  0  0  0  0  0  0  0  0  0  0
   -4.3450    3.6846   -3.3621 O   0  0  0  0  0  0  0  0  0  0  0  0
   -3.7731    4.0846   -4.0185 H   0  0  0  0  0  0  0  0  0  0  0  0
   -4.3187    2.5104   -1.2754 C   0  0  0  0  0  0  0  0  0  0  0  0
   -5.3911    2.6158   -1.2086 H   0  0  0  0  0  0  0  0  0  0  0  0
   -3.5961    1.8531   -0.2617 C   0  0  0  0  0  0  0  0  0  0  0  0
   -4.1160    1.4467    0.5977 H   0  0  0  0  0  0  0  0  0  0  0  0
   -0.1441   -1.1270    1.3451 C   0  0  0  0  0  0  0  0  0  0  0  0
    1.0456   -0.8102    1.3286 O   0  0  0  0  0  0  0  0  0  0  0  0
   -0.6355   -2.0273    2.2058 N   0  0  0  0  0  0  0  0  0  0  0  0
   -1.6102   -2.2752    2.1157 H   0  0  0  0  0  0  0  0  0  0  0  0
    0.1612   -2.7283    3.2102 C   0  0  0  0  0  0  0  0  0  0  0  0
    0.7465   -2.0097    3.7865 H   0  0  0  0  0  0  0  0  0  0  0  0
   -0.4906   -3.2850    3.8854 H   0  0  0  0  0  0  0  0  0  0  0  0
    0.8462   -3.4213    2.7174 H   0  0  0  0  0  0  0  0  0  0  0  0
  5  6  2  0  0  0  0
  5  7  1  0  0  0  0
  2  3  1  0  0  0  0
  2  4  1  0  0  0  0
  2  5  1  0  0  0  0
  1  2  1  0  0  0  0
 26 27  2  0  0  0  0
 26 28  1  0  0  0  0
 24 25  1  0  0  0  0
 22 23  1  0  0  0  0
 22 24  2  0  0  0  0
 20 21  1  0  0  0  0
 19 20  1  0  0  0  0
 19 22  1  0  0  0  0
 17 18  1  0  0  0  0
 17 19  2  0  0  0  0
 15 16  1  0  0  0  0
 15 17  1  0  0  0  0
 14 15  2  0  0  0  0
 14 24  1  0  0  0  0
 11 12  1  0  0  0  0
 11 13  1  0  0  0  0
 11 14  1  0  0  0  0
  9 10  1  0  0  0  0
  9 11  1  0  0  0  0
  9 26  1  0  0  0  0
  7  8  1  0  0  0  0
  7  9  1  0  0  0  0
 30 31  1  0  0  0  0
 30 32  1  0  0  0  0
 30 33  1  0  0  0  0
 28 29  1  0  0  0  0
 28 30  1  0  0  0  0
M  END
$$$$
default_name
  -OEChem-01062215323D

 33 33  0     1  0  0  0  0  0999 V2000
   -4.0702   -3.8485    1.4554 H   0  0  0  0  0  0  0  0  0  0  0  0
   -4.0012   -2.9605    0.8284 C   0  0  0  0  0  0  0  0  0  0  0  0
   -4.7652   -2.2435    1.1234 H   0  0  0  0  0  0  0  0  0  0  0  0
   -4.1352   -3.2385   -0.2156 H   0  0  0  0  0  0  0  0  0  0  0  0
   -2.6362   -2.3395    1.0094 C   0  0  0  0  0  0  0  0  0  0  0  0
   -1.8292   -2.8395    1.7814 O   0  0  0  0  0  0  0  0  0  0  0  0
   -2.3832   -1.2445    0.2964 N   0  0  0  0  0  0  0  0  0  0  0  0
   -3.1102   -0.8685   -0.2946 H   0  0  0  0  0  0  0  0  0  0  0  0
   -1.1292   -0.4875    0.3524 C   0  0  1  0  0  0  0  0  0  0  0  0
   -0.6667   -0.5091   -0.6350 H   0  0  0  0  0  0  0  0  0  0  0  0
   -1.4325    0.9772    0.7123 C   0  0  0  0  0  0  0  0  0  0  0  0
   -2.0230    1.0019    1.6291 H   0  0  0  0  0  0  0  0  0  0  0  0
   -0.4925    1.4932    0.9151 H   0  0  0  0  0  0  0  0  0  0  0  0
   -2.1968    1.7291   -0.3603 C   0  0  0  0  0  0  0  0  0  0  0  0
   -1.5190    2.2637   -1.4742 C   0  0  0  0  0  0  0  0  0  0  0  0
   -0.4446    2.1616   -1.5544 H   0  0  0  0  0  0  0  0  0  0  0  0
   -2.2386    2.9260   -2.4879 C   0  0  0  0  0  0  0  0  0  0  0  0
   -1.7162    3.3355   -3.3387 H   0  0  0  0  0  0  0  0  0  0  0  0
   -3.6416    3.0504   -2.3884 C   0  0  0  0  0  0  0  0  0  0  0  0
   -4.3450    3.6846   -3.3621 O   0  0  0  0  0  0  0  0  0  0  0  0
   -3.7731    4.0846   -4.0185 H   0  0  0  0  0  0  0  0  0  0  0  0
   -4.3187    2.5104   -1.2754 C   0  0  0  0  0  0  0  0  0  0  0  0
   -5.3911    2.6158   -1.2086 H   0  0  0  0  0  0  0  0  0  0  0  0
   -3.5961    1.8531   -0.2617 C   0  0  0  0  0  0  0  0  0  0  0  0
   -4.1160    1.4467    0.5977 H   0  0  0  0  0  0  0  0  0  0  0  0
   -0.1441   -1.1270    1.3451 C   0  0  0  0  0  0  0  0  0  0  0  0
    0.9674   -0.6282    1.5234 O   0  0  0  0  0  0  0  0  0  0  0  0
   -0.5476   -2.2302    1.9879 N   0  0  0  0  0  0  0  0  0  0  0  0
   -1.4505   -2.6093    1.7420 H   0  0  0  0  0  0  0  0  0  0  0  0
    0.2626   -2.9612    2.9594 C   0  0  0  0  0  0  0  0  0  0  0  0
    0.6557   -2.2713    3.7081 H   0  0  0  0  0  0  0  0  0  0  0  0
   -0.3411   -3.7234    3.4547 H   0  0  0  0  0  0  0  0  0  0  0  0
    1.1021   -3.4402    2.4513 H   0  0  0  0  0  0  0  0  0  0  0  0
  5  6  2  0  0  0  0
  5  7  1  0  0  0  0
  2  3  1  0  0  0  0
  2  4  1  0  0  0  0
  2  5  1  0  0  0  0
  1  2  1  0  0  0  0
 26 27  2  0  0  0  0
 26 28  1  0  0  0  0
 24 25  1  0  0  0  0
 22 23  1  0  0  0  0
 22 24  2  0  0  0  0
 20 21  1  0  0  0  0
 19 20  1  0  0  0  0
 19 22  1  0  0  0  0
 17 18  1  0  0  0  0
 17 19  2  0  0  0  0
 15 16  1  0  0  0  0
 15 17  1  0  0  0  0
 14 15  2  0  0  0  0
 14 24  1  0  0  0  0
 11 12  1  0  0  0  0
 11 13  1  0  0  0  0
 11 14  1  0  0  0  0
  9 10  1  0  0  0  0
  9 11  1  0  0  0  0
  9 26  1  0  0  0  0
  7  8  1  0  0  0  0
  7  9  1  0  0  0  0
 30 31  1  0  0  0  0
 30 32  1  0  0  0  0
 30 33  1  0  0  0  0
 28 29  1  0  0  0  0
 28 30  1  0  0  0  0
M  END
$$$$
default_name
  -OEChem-01062215323D

 33 33  0     1  0  0  0  0  0999 V2000
   -4.0702   -3.8485    1.4554 H   0  0  0  0  0  0  0  0  0  0  0  0
   -4.0012   -2.9605    0.8284 C   0  0  0  0  0  0  0  0  0  0  0  0
   -4.7652   -2.2435    1.1234 H   0  0  0  0  0  0  0  0  0  0  0  0
   -4.1352   -3.2385   -0.2156 H   0  0  0  0  0  0  0  0  0  0  0  0
   -2.6362   -2.3395    1.0094 C   0  0  0  0  0  0  0  0  0  0  0  0
   -1.8292   -2.8395    1.7814 O   0  0  0  0  0  0  0  0  0  0  0  0
   -2.3832   -1.2445    0.2964 N   0  0  0  0  0  0  0  0  0  0  0  0
   -3.1102   -0.8685   -0.2946 H   0  0  0  0  0  0  0  0  0  0  0  0
   -1.1292   -0.4875    0.3524 C   0  0  1  0  0  0  0  0  0  0  0  0
   -0.6667   -0.5091   -0.6350 H   0  0  0  0  0  0  0  0  0  0  0  0
   -1.4325    0.9772    0.7123 C   0  0  0  0  0  0  0  0  0  0  0  0
   -2.0230    1.0019    1.6291 H   0  0  0  0  0  0  0  0  0  0  0  0
   -0.4925    1.4932    0.9151 H   0  0  0  0  0  0  0  0  0  0  0  0
   -2.1968    1.7291   -0.3603 C   0  0  0  0  0  0  0  0  0  0  0  0
   -1.5190    2.2637   -1.4742 C   0  0  0  0  0  0  0  0  0  0  0  0
   -0.4446    2.1616   -1.5544 H   0  0  0  0  0  0  0  0  0  0  0  0
   -2.2386    2.9260   -2.4879 C   0  0  0  0  0  0  0  0  0  0  0  0
   -1.7162    3.3355   -3.3387 H   0  0  0  0  0  0  0  0  0  0  0  0
   -3.6416    3.0504   -2.3884 C   0  0  0  0  0  0  0  0  0  0  0  0
   -4.3450    3.6846   -3.3621 O   0  0  0  0  0  0  0  0  0  0  0  0
   -3.7731    4.0846   -4.0185 H   0  0  0  0  0  0  0  0  0  0  0  0
   -4.3187    2.5104   -1.2754 C   0  0  0  0  0  0  0  0  0  0  0  0
   -5.3911    2.6158   -1.2086 H   0  0  0  0  0  0  0  0  0  0  0  0
   -3.5961    1.8531   -0.2617 C   0  0  0  0  0  0  0  0  0  0  0  0
   -4.1160    1.4467    0.5977 H   0  0  0  0  0  0  0  0  0  0  0  0
   -0.1441   -1.1270    1.3451 C   0  0  0  0  0  0  0  0  0  0  0  0
    0.8406   -0.4979    1.7333 O   0  0  0  0  0  0  0  0  0  0  0  0
   -0.4053   -2.3753    1.7532 N   0  0  0  0  0  0  0  0  0  0  0  0
   -1.2003   -2.8434    1.3429 H   0  0  0  0  0  0  0  0  0  0  0  0
    0.4266   -3.1277    2.6895 C   0  0  0  0  0  0  0  0  0  0  0  0
    0.6202   -2.5260    3.5793 H   0  0  0  0  0  0  0  0  0  0  0  0
   -0.0772   -4.0504    2.9821 H   0  0  0  0  0  0  0  0  0  0  0  0
    1.3811   -3.3717    2.2186 H   0  0  0  0  0  0  0  0  0  0  0  0
  5  6  2  0  0  0  0
  5  7  1  0  0  0  0
  2  3  1  0  0  0  0
  2  4  1  0  0  0  0
  2  5  1  0  0  0  0
  1  2  1  0  0  0  0
 26 27  2  0  0  0  0
 26 28  1  0  0  0  0
 24 25  1  0  0  0  0
 22 23  1  0  0  0  0
 22 24  2  0  0  0  0
 20 21  1  0  0  0  0
 19 20  1  0  0  0  0
 19 22  1  0  0  0  0
 17 18  1  0  0  0  0
 17 19  2  0  0  0  0
 15 16  1  0  0  0  0
 15 17  1  0  0  0  0
 14 15  2  0  0  0  0
 14 24  1  0  0  0  0
 11 12  1  0  0  0  0
 11 13  1  0  0  0  0
 11 14  1  0  0  0  0
  9 10  1  0  0  0  0
  9 11  1  0  0  0  0
  9 26  1  0  0  0  0
  7  8  1  0  0  0  0
  7  9  1  0  0  0  0
 30 31  1  0  0  0  0
 30 32  1  0  0  0  0
 30 33  1  0  0  0  0
 28 29  1  0  0  0  0
 28 30  1  0  0  0  0
M  END
$$$$
default_name
  -OEChem-01062215323D

 33 33  0     1  0  0  0  0  0999 V2000
   -4.0702   -3.8485    1.4554 H   0  0  0  0  0  0  0  0  0  0  0  0
   -4.0012   -2.9605    0.8284 C   0  0  0  0  0  0  0  0  0  0  0  0
   -4.7652   -2.2435    1.1234 H   0  0  0  0  0  0  0  0  0  0  0  0
   -4.1352   -3.2385   -0.2156 H   0  0  0  0  0  0  0  0  0  0  0  0
   -2.6362   -2.3395    1.0094 C   0  0  0  0  0  0  0  0  0  0  0  0
   -1.8292   -2.8395    1.7814 O   0  0  0  0  0  0  0  0  0  0  0  0
   -2.3832   -1.2445    0.2964 N   0  0  0  0  0  0  0  0  0  0  0  0
   -3.1102   -0.8685   -0.2946 H   0  0  0  0  0  0  0  0  0  0  0  0
   -1.1292   -0.4875    0.3524 C   0  0  1  0  0  0  0  0  0  0  0  0
   -0.6667   -0.5091   -0.6350 H   0  0  0  0  0  0  0  0  0  0  0  0
   -1.4325    0.9772    0.7123 C   0  0  0  0  0  0  0  0  0  0  0  0
   -2.0230    1.0019    1.6291 H   0  0  0  0  0  0  0  0  0  0  0  0
   -0.4925    1.4932    0.9151 H   0  0  0  0  0  0  0  0  0  0  0  0
   -2.1968    1.7291   -0.3603 C   0  0  0  0  0  0  0  0  0  0  0  0
   -1.5190    2.2637   -1.4742 C   0  0  0  0  0  0  0  0  0  0  0  0
   -0.4446    2.1616   -1.5544 H   0  0  0  0  0  0  0  0  0  0  0  0
   -2.2386    2.9260   -2.4879 C   0  0  0  0  0  0  0  0  0  0  0  0
   -1.7162    3.3355   -3.3387 H   0  0  0  0  0  0  0  0  0  0  0  0
   -3.6416    3.0504   -2.3884 C   0  0  0  0  0  0  0  0  0  0  0  0
   -4.3450    3.6846   -3.3621 O   0  0  0  0  0  0  0  0  0  0  0  0
   -3.7731    4.0846   -4.0185 H   0  0  0  0  0  0  0  0  0  0  0  0
   -4.3187    2.5104   -1.2754 C   0  0  0  0  0  0  0  0  0  0  0  0
   -5.3911    2.6158   -1.2086 H   0  0  0  0  0  0  0  0  0  0  0  0
   -3.5961    1.8531   -0.2617 C   0  0  0  0  0  0  0  0  0  0  0  0
   -4.1160    1.4467    0.5977 H   0  0  0  0  0  0  0  0  0  0  0  0
   -0.1441   -1.1270    1.3451 C   0  0  0  0  0  0  0  0  0  0  0  0
    0.6737   -0.4279    1.9440 O   0  0  0  0  0  0  0  0  0  0  0  0
   -0.2183   -2.4528    1.5177 N   0  0  0  0  0  0  0  0  0  0  0  0
   -0.8765   -2.9615    0.9455 H   0  0  0  0  0  0  0  0  0  0  0  0
    0.6418   -3.2163    2.4189 C   0  0  0  0  0  0  0  0  0  0  0  0
    0.6422   -2.7567    3.4087 H   0  0  0  0  0  0  0  0  0  0  0  0
    0.2833   -4.2438    2.4997 H   0  0  0  0  0  0  0  0  0  0  0  0
    1.6641   -3.2202    2.0353 H   0  0  0  0  0  0  0  0  0  0  0  0
  5  6  2  0  0  0  0
  5  7  1  0  0  0  0
  2  3  1  0  0  0  0
  2  4  1  0  0  0  0
  2  5  1  0  0  0  0
  1  2  1  0  0  0  0
 26 27  2  0  0  0  0
 26 28  1  0  0  0  0
 24 25  1  0  0  0  0
 22 23  1  0  0  0  0
 22 24  2  0  0  0  0
 20 21  1  0  0  0  0
 19 20  1  0  0  0  0
 19 22  1  0  0  0  0
 17 18  1  0  0  0  0
 17 19  2  0  0  0  0
 15 16  1  0  0  0  0
 15 17  1  0  0  0  0
 14 15  2  0  0  0  0
 14 24  1  0  0  0  0
 11 12  1  0  0  0  0
 11 13  1  0  0  0  0
 11 14  1  0  0  0  0
  9 10  1  0  0  0  0
  9 11  1  0  0  0  0
  9 26  1  0  0  0  0
  7  8  1  0  0  0  0
  7  9  1  0  0  0  0
 30 31  1  0  0  0  0
 30 32  1  0  0  0  0
 30 33  1  0  0  0  0
 28 29  1  0  0  0  0
 28 30  1  0  0  0  0
M  END
$$$$
default_name
  -OEChem-01062215323D

 33 33  0     1  0  0  0  0  0999 V2000
   -4.0702   -3.8485    1.4554 H   0  0  0  0  0  0  0  0  0  0  0  0
   -4.0012   -2.9605    0.8284 C   0  0  0  0  0  0  0  0  0  0  0  0
   -4.7652   -2.2435    1.1234 H   0  0  0  0  0  0  0  0  0  0  0  0
   -4.1352   -3.2385   -0.2156 H   0  0  0  0  0  0  0  0  0  0  0  0
   -2.6362   -2.3395    1.0094 C   0  0  0  0  0  0  0  0  0  0  0  0
   -1.8292   -2.8395    1.7814 O   0  0  0  0  0  0  0  0  0  0  0  0
   -2.3832   -1.2445    0.2964 N   0  0  0  0  0  0  0  0  0  0  0  0
   -3.1102   -0.8685   -0.2946 H   0  0  0  0  0  0  0  0  0  0  0  0
   -1.1292   -0.4875    0.3524 C   0  0  1  0  0  0  0  0  0  0  0  0
   -0.6667   -0.5091   -0.6350 H   0  0  0  0  0  0  0  0  0  0  0  0
   -1.4325    0.9772    0.7123 C   0  0  0  0  0  0  0  0  0  0  0  0
   -2.0230    1.0019    1.6291 H   0  0  0  0  0  0  0  0  0  0  0  0
   -0.4925    1.4932    0.9151 H   0  0  0  0  0  0  0  0  0  0  0  0
   -2.1968    1.7291   -0.3603 C   0  0  0  0  0  0  0  0  0  0  0  0
   -1.5190    2.2637   -1.4742 C   0  0  0  0  0  0  0  0  0  0  0  0
   -0.4446    2.1616   -1.5544 H   0  0  0  0  0  0  0  0  0  0  0  0
   -2.2386    2.9260   -2.4879 C   0  0  0  0  0  0  0  0  0  0  0  0
   -1.7162    3.3355   -3.3387 H   0  0  0  0  0  0  0  0  0  0  0  0
   -3.6416    3.0504   -2.3884 C   0  0  0  0  0  0  0  0  0  0  0  0
   -4.3450    3.6846   -3.3621 O   0  0  0  0  0  0  0  0  0  0  0  0
   -3.7731    4.0846   -4.0185 H   0  0  0  0  0  0  0  0  0  0  0  0
   -4.3187    2.5104   -1.2754 C   0  0  0  0  0  0  0  0  0  0  0  0
   -5.3911    2.6158   -1.2086 H   0  0  0  0  0  0  0  0  0  0  0  0
   -3.5961    1.8531   -0.2617 C   0  0  0  0  0  0  0  0  0  0  0  0
   -4.1160    1.4467    0.5977 H   0  0  0  0  0  0  0  0  0  0  0  0
   -0.1441   -1.1270    1.3451 C   0  0  0  0  0  0  0  0  0  0  0  0
    0.4781   -0.4232    2.1411 O   0  0  0  0  0  0  0  0  0  0  0  0
    0.0006   -2.4573    1.2976 N   0  0  0  0  0  0  0  0  0  0  0  0
   -0.5013   -2.9556    0.5769 H   0  0  0  0  0  0  0  0  0  0  0  0
    0.8936   -3.2211    2.1659 C   0  0  0  0  0  0  0  0  0  0  0  0
    0.7205   -2.9476    3.2081 H   0  0  0  0  0  0  0  0  0  0  0  0
    0.7158   -4.2904    2.0406 H   0  0  0  0  0  0  0  0  0  0  0  0
    1.9320   -2.9963    1.9138 H   0  0  0  0  0  0  0  0  0  0  0  0
  5  6  2  0  0  0  0
  5  7  1  0  0  0  0
  2  3  1  0  0  0  0
  2  4  1  0  0  0  0
  2  5  1  0  0  0  0
  1  2  1  0  0  0  0
 26 27  2  0  0  0  0
 26 28  1  0  0  0  0
 24 25  1  0  0  0  0
 22 23  1  0  0  0  0
 22 24  2  0  0  0  0
 20 21  1  0  0  0  0
 19 20  1  0  0  0  0
 19 22  1  0  0  0  0
 17 18  1  0  0  0  0
 17 19  2  0  0  0  0
 15 16  1  0  0  0  0
 15 17  1  0  0  0  0
 14 15  2  0  0  0  0
 14 24  1  0  0  0  0
 11 12  1  0  0  0  0
 11 13  1  0  0  0  0
 11 14  1  0  0  0  0
  9 10  1  0  0  0  0
  9 11  1  0  0  0  0
  9 26  1  0  0  0  0
  7  8  1  0  0  0  0
  7  9  1  0  0  0  0
 30 31  1  0  0  0  0
 30 32  1  0  0  0  0
 30 33  1  0  0  0  0
 28 29  1  0  0  0  0
 28 30  1  0  0  0  0
M  END
$$$$
default_name
  -OEChem-01062215323D

 33 33  0     1  0  0  0  0  0999 V2000
   -4.0702   -3.8485    1.4554 H   0  0  0  0  0  0  0  0  0  0  0  0
   -4.0012   -2.9605    0.8284 C   0  0  0  0  0  0  0  0  0  0  0  0
   -4.7652   -2.2435    1.1234 H   0  0  0  0  0  0  0  0  0  0  0  0
   -4.1352   -3.2385   -0.2156 H   0  0  0  0  0  0  0  0  0  0  0  0
   -2.6362   -2.3395    1.0094 C   0  0  0  0  0  0  0  0  0  0  0  0
   -1.8292   -2.8395    1.7814 O   0  0  0  0  0  0  0  0  0  0  0  0
   -2.3832   -1.2445    0.2964 N   0  0  0  0  0  0  0  0  0  0  0  0
   -3.1102   -0.8685   -0.2946 H   0  0  0  0  0  0  0  0  0  0  0  0
   -1.1292   -0.4875    0.3524 C   0  0  1  0  0  0  0  0  0  0  0  0
   -0.6667   -0.5091   -0.6350 H   0  0  0  0  0  0  0  0  0  0  0  0
   -1.4325    0.9772    0.7123 C   0  0  0  0  0  0  0  0  0  0  0  0
   -2.0230    1.0019    1.6291 H   0  0  0  0  0  0  0  0  0  0  0  0
   -0.4925    1.4932    0.9151 H   0  0  0  0  0  0  0  0  0  0  0  0
   -2.1968    1.7291   -0.3603 C   0  0  0  0  0  0  0  0  0  0  0  0
   -1.5190    2.2637   -1.4742 C   0  0  0  0  0  0  0  0  0  0  0  0
   -0.4446    2.1616   -1.5544 H   0  0  0  0  0  0  0  0  0  0  0  0
   -2.2386    2.9260   -2.4879 C   0  0  0  0  0  0  0  0  0  0  0  0
   -1.7162    3.3355   -3.3387 H   0  0  0  0  0  0  0  0  0  0  0  0
   -3.6416    3.0504   -2.3884 C   0  0  0  0  0  0  0  0  0  0  0  0
   -4.3450    3.6846   -3.3621 O   0  0  0  0  0  0  0  0  0  0  0  0
   -3.7731    4.0846   -4.0185 H   0  0  0  0  0  0  0  0  0  0  0  0
   -4.3187    2.5104   -1.2754 C   0  0  0  0  0  0  0  0  0  0  0  0
   -5.3911    2.6158   -1.2086 H   0  0  0  0  0  0  0  0  0  0  0  0
   -3.5961    1.8531   -0.2617 C   0  0  0  0  0  0  0  0  0  0  0  0
   -4.1160    1.4467    0.5977 H   0  0  0  0  0  0  0  0  0  0  0  0
   -0.1441   -1.1270    1.3451 C   0  0  0  0  0  0  0  0  0  0  0  0
    0.2671   -0.4840    2.3113 O   0  0  0  0  0  0  0  0  0  0  0  0
    0.2365   -2.3887    1.1077 N   0  0  0  0  0  0  0  0  0  0  0  0
   -0.1001   -2.8261    0.2623 H   0  0  0  0  0  0  0  0  0  0  0  0
    1.1648   -3.1418    1.9478 C   0  0  0  0  0  0  0  0  0  0  0  0
    0.8495   -3.0856    2.9912 H   0  0  0  0  0  0  0  0  0  0  0  0
    1.1907   -4.1871    1.6359 H   0  0  0  0  0  0  0  0  0  0  0  0
    2.1663   -2.7151    1.8623 H   0  0  0  0  0  0  0  0  0  0  0  0
  5  6  2  0  0  0  0
  5  7  1  0  0  0  0
  2  3  1  0  0  0  0
  2  4  1  0  0  0  0
  2  5  1  0  0  0  0
  1  2  1  0  0  0  0
 26 27  2  0  0  0  0
 26 28  1  0  0  0  0
 24 25  1  0  0  0  0
 22 23  1  0  0  0  0
 22 24  2  0  0  0  0
 20 21  1  0  0  0  0
 19 20  1  0  0  0  0
 19 22  1  0  0  0  0
 17 18  1  0  0  0  0
 17 19  2  0  0  0  0
 15 16  1  0  0  0  0
 15 17  1  0  0  0  0
 14 15  2  0  0  0  0
 14 24  1  0  0  0  0
 11 12  1  0  0  0  0
 11 13  1  0  0  0  0
 11 14  1  0  0  0  0
  9 10  1  0  0  0  0
  9 11  1  0  0  0  0
  9 26  1  0  0  0  0
  7  8  1  0  0  0  0
  7  9  1  0  0  0  0
 30 31  1  0  0  0  0
 30 32  1  0  0  0  0
 30 33  1  0  0  0  0
 28 29  1  0  0  0  0
 28 30  1  0  0  0  0
M  END
$$$$
default_name
  -OEChem-01062215323D

 33 33  0     1  0  0  0  0  0999 V2000
   -4.0702   -3.8485    1.4554 H   0  0  0  0  0  0  0  0  0  0  0  0
   -4.0012   -2.9605    0.8284 C   0  0  0  0  0  0  0  0  0  0  0  0
   -4.7652   -2.2435    1.1234 H   0  0  0  0  0  0  0  0  0  0  0  0
   -4.1352   -3.2385   -0.2156 H   0  0  0  0  0  0  0  0  0  0  0  0
   -2.6362   -2.3395    1.0094 C   0  0  0  0  0  0  0  0  0  0  0  0
   -1.8292   -2.8395    1.7814 O   0  0  0  0  0  0  0  0  0  0  0  0
   -2.3832   -1.2445    0.2964 N   0  0  0  0  0  0  0  0  0  0  0  0
   -3.1102   -0.8685   -0.2946 H   0  0  0  0  0  0  0  0  0  0  0  0
   -1.1292   -0.4875    0.3524 C   0  0  1  0  0  0  0  0  0  0  0  0
   -0.6667   -0.5091   -0.6350 H   0  0  0  0  0  0  0  0  0  0  0  0
   -1.4325    0.9772    0.7123 C   0  0  0  0  0  0  0  0  0  0  0  0
   -2.0230    1.0019    1.6291 H   0  0  0  0  0  0  0  0  0  0  0  0
   -0.4925    1.4932    0.9151 H   0  0  0  0  0  0  0  0  0  0  0  0
   -2.1968    1.7291   -0.3603 C   0  0  0  0  0  0  0  0  0  0  0  0
   -1.5190    2.2637   -1.4742 C   0  0  0  0  0  0  0  0  0  0  0  0
   -0.4446    2.1616   -1.5544 H   0  0  0  0  0  0  0  0  0  0  0  0
   -2.2386    2.9260   -2.4879 C   0  0  0  0  0  0  0  0  0  0  0  0
   -1.7162    3.3355   -3.3387 H   0  0  0  0  0  0  0  0  0  0  0  0
   -3.6416    3.0504   -2.3884 C   0  0  0  0  0  0  0  0  0  0  0  0
   -4.3450    3.6846   -3.3621 O   0  0  0  0  0  0  0  0  0  0  0  0
   -3.7731    4.0846   -4.0185 H   0  0  0  0  0  0  0  0  0  0  0  0
   -4.3187    2.5104   -1.2754 C   0  0  0  0  0  0  0  0  0  0  0  0
   -5.3911    2.6158   -1.2086 H   0  0  0  0  0  0  0  0  0  0  0  0
   -3.5961    1.8531   -0.2617 C   0  0  0  0  0  0  0  0  0  0  0  0
   -4.1160    1.4467    0.5977 H   0  0  0  0  0  0  0  0  0  0  0  0
   -0.1441   -1.1270    1.3451 C   0  0  0  0  0  0  0  0  0  0  0  0
    0.0552   -0.6062    2.4429 O   0  0  0  0  0  0  0  0  0  0  0  0
    0.4733   -2.2514    0.9611 N   0  0  0  0  0  0  0  0  0  0  0  0
    0.2996   -2.5819    0.0230 H   0  0  0  0  0  0  0  0  0  0  0  0
    1.4370   -2.9836    1.7796 C   0  0  0  0  0  0  0  0  0  0  0  0
    1.0206   -3.1614    2.7726 H   0  0  0  0  0  0  0  0  0  0  0  0
    1.6757   -3.9408    1.3132 H   0  0  0  0  0  0  0  0  0  0  0  0
    2.3513   -2.3958    1.8845 H   0  0  0  0  0  0  0  0  0  0  0  0
  5  6  2  0  0  0  0
  5  7  1  0  0  0  0
  2  3  1  0  0  0  0
  2  4  1  0  0  0  0
  2  5  1  0  0  0  0
  1  2  1  0  0  0  0
 26 27  2  0  0  0  0
 26 28  1  0  0  0  0
 24 25  1  0  0  0  0
 22 23  1  0  0  0  0
 22 24  2  0  0  0  0
 20 21  1  0  0  0  0
 19 20  1  0  0  0  0
 19 22  1  0  0  0  0
 17 18  1  0  0  0  0
 17 19  2  0  0  0  0
 15 16  1  0  0  0  0
 15 17  1  0  0  0  0
 14 15  2  0  0  0  0
 14 24  1  0  0  0  0
 11 12  1  0  0  0  0
 11 13  1  0  0  0  0
 11 14  1  0  0  0  0
  9 10  1  0  0  0  0
  9 11  1  0  0  0  0
  9 26  1  0  0  0  0
  7  8  1  0  0  0  0
  7  9  1  0  0  0  0
 30 31  1  0  0  0  0
 30 32  1  0  0  0  0
 30 33  1  0  0  0  0
 28 29  1  0  0  0  0
 28 30  1  0  0  0  0
M  END
$$$$
default_name
  -OEChem-01062215323D

 33 33  0     1  0  0  0  0  0999 V2000
   -4.0702   -3.8485    1.4554 H   0  0  0  0  0  0  0  0  0  0  0  0
   -4.0012   -2.9605    0.8284 C   0  0  0  0  0  0  0  0  0  0  0  0
   -4.7652   -2.2435    1.1234 H   0  0  0  0  0  0  0  0  0  0  0  0
   -4.1352   -3.2385   -0.2156 H   0  0  0  0  0  0  0  0  0  0  0  0
   -2.6362   -2.3395    1.0094 C   0  0  0  0  0  0  0  0  0  0  0  0
   -1.8292   -2.8395    1.7814 O   0  0  0  0  0  0  0  0  0  0  0  0
   -2.3832   -1.2445    0.2964 N   0  0  0  0  0  0  0  0  0  0  0  0
   -3.1102   -0.8685   -0.2946 H   0  0  0  0  0  0  0  0  0  0  0  0
   -1.1292   -0.4875    0.3524 C   0  0  1  0  0  0  0  0  0  0  0  0
   -0.6667   -0.5091   -0.6350 H   0  0  0  0  0  0  0  0  0  0  0  0
   -1.4325    0.9772    0.7123 C   0  0  0  0  0  0  0  0  0  0  0  0
   -2.0230    1.0019    1.6291 H   0  0  0  0  0  0  0  0  0  0  0  0
   -0.4925    1.4932    0.9151 H   0  0  0  0  0  0  0  0  0  0  0  0
   -2.1968    1.7291   -0.3603 C   0  0  0  0  0  0  0  0  0  0  0  0
   -1.5190    2.2637   -1.4742 C   0  0  0  0  0  0  0  0  0  0  0  0
   -0.4446    2.1616   -1.5544 H   0  0  0  0  0  0  0  0  0  0  0  0
   -2.2386    2.9260   -2.4879 C   0  0  0  0  0  0  0  0  0  0  0  0
   -1.7162    3.3355   -3.3387 H   0  0  0  0  0  0  0  0  0  0  0  0
   -3.6416    3.0504   -2.3884 C   0  0  0  0  0  0  0  0  0  0  0  0
   -4.3450    3.6846   -3.3621 O   0  0  0  0  0  0  0  0  0  0  0  0
   -3.7731    4.0846   -4.0185 H   0  0  0  0  0  0  0  0  0  0  0  0
   -4.3187    2.5104   -1.2754 C   0  0  0  0  0  0  0  0  0  0  0  0
   -5.3911    2.6158   -1.2086 H   0  0  0  0  0  0  0  0  0  0  0  0
   -3.5961    1.8531   -0.2617 C   0  0  0  0  0  0  0  0  0  0  0  0
   -4.1160    1.4467    0.5977 H   0  0  0  0  0  0  0  0  0  0  0  0
   -0.1441   -1.1270    1.3451 C   0  0  0  0  0  0  0  0  0  0  0  0
   -0.1432   -0.7814    2.5269 O   0  0  0  0  0  0  0  0  0  0  0  0
    0.6948   -2.0550    0.8678 N   0  0  0  0  0  0  0  0  0  0  0  0
    0.6706   -2.2395   -0.1247 H   0  0  0  0  0  0  0  0  0  0  0  0
    1.6917   -2.7575    1.6726 C   0  0  0  0  0  0  0  0  0  0  0  0
    1.2220   -3.1698    2.5673 H   0  0  0  0  0  0  0  0  0  0  0  0
    2.1378   -3.5684    1.0946 H   0  0  0  0  0  0  0  0  0  0  0  0
    2.4742   -2.0601    1.9788 H   0  0  0  0  0  0  0  0  0  0  0  0
  5  6  2  0  0  0  0
  5  7  1  0  0  0  0
  2  3  1  0  0  0  0
  2  4  1  0  0  0  0
  2  5  1  0  0  0  0
  1  2  1  0  0  0  0
 26 27  2  0  0  0  0
 26 28  1  0  0  0  0
 24 25  1  0  0  0  0
 22 23  1  0  0  0  0
 22 24  2  0  0  0  0
 20 21  1  0  0  0  0
 19 20  1  0  0  0  0
 19 22  1  0  0  0  0
 17 18  1  0  0  0  0
 17 19  2  0  0  0  0
 15 16  1  0  0  0  0
 15 17  1  0  0  0  0
 14 15  2  0  0  0  0
 14 24  1  0  0  0  0
 11 12  1  0  0  0  0
 11 13  1  0  0  0  0
 11 14  1  0  0  0  0
  9 10  1  0  0  0  0
  9 11  1  0  0  0  0
  9 26  1  0  0  0  0
  7  8  1  0  0  0  0
  7  9  1  0  0  0  0
 30 31  1  0  0  0  0
 30 32  1  0  0  0  0
 30 33  1  0  0  0  0
 28 29  1  0  0  0  0
 28 30  1  0  0  0  0
M  END
$$$$
default_name
  -OEChem-01062215323D

 33 33  0     1  0  0  0  0  0999 V2000
   -4.0702   -3.8485    1.4554 H   0  0  0  0  0  0  0  0  0  0  0  0
   -4.0012   -2.9605    0.8284 C   0  0  0  0  0  0  0  0  0  0  0  0
   -4.7652   -2.2435    1.1234 H   0  0  0  0  0  0  0  0  0  0  0  0
   -4.1352   -3.2385   -0.2156 H   0  0  0  0  0  0  0  0  0  0  0  0
   -2.6362   -2.3395    1.0094 C   0  0  0  0  0  0  0  0  0  0  0  0
   -1.8292   -2.8395    1.7814 O   0  0  0  0  0  0  0  0  0  0  0  0
   -2.3832   -1.2445    0.2964 N   0  0  0  0  0  0  0  0  0  0  0  0
   -3.1102   -0.8685   -0.2946 H   0  0  0  0  0  0  0  0  0  0  0  0
   -1.1292   -0.4875    0.3524 C   0  0  1  0  0  0  0  0  0  0  0  0
   -0.6667   -0.5091   -0.6350 H   0  0  0  0  0  0  0  0  0  0  0  0
   -1.4325    0.9772    0.7123 C   0  0  0  0  0  0  0  0  0  0  0  0
   -2.0230    1.0019    1.6291 H   0  0  0  0  0  0  0  0  0  0  0  0
   -0.4925    1.4932    0.9151 H   0  0  0  0  0  0  0  0  0  0  0  0
   -2.1968    1.7291   -0.3603 C   0  0  0  0  0  0  0  0  0  0  0  0
   -1.5190    2.2637   -1.4742 C   0  0  0  0  0  0  0  0  0  0  0  0
   -0.4446    2.1616   -1.5544 H   0  0  0  0  0  0  0  0  0  0  0  0
   -2.2386    2.9260   -2.4879 C   0  0  0  0  0  0  0  0  0  0  0  0
   -1.7162    3.3355   -3.3387 H   0  0  0  0  0  0  0  0  0  0  0  0
   -3.6416    3.0504   -2.3884 C   0  0  0  0  0  0  0  0  0  0  0  0
   -4.3450    3.6846   -3.3621 O   0  0  0  0  0  0  0  0  0  0  0  0
   -3.7731    4.0846   -4.0185 H   0  0  0  0  0  0  0  0  0  0  0  0
   -4.3187    2.5104   -1.2754 C   0  0  0  0  0  0  0  0  0  0  0  0
   -5.3911    2.6158   -1.2086 H   0  0  0  0  0  0  0  0  0  0  0  0
   -3.5961    1.8531   -0.2617 C   0  0  0  0  0  0  0  0  0  0  0  0
   -4.1160    1.4467    0.5977 H   0  0  0  0  0  0  0  0  0  0  0  0
   -0.1441   -1.1270    1.3451 C   0  0  0  0  0  0  0  0  0  0  0  0
   -0.3147   -0.9977    2.5577 O   0  0  0  0  0  0  0  0  0  0  0  0
    0.8861   -1.8128    0.8340 N   0  0  0  0  0  0  0  0  0  0  0  0
    0.9877   -1.8223   -0.1705 H   0  0  0  0  0  0  0  0  0  0  0  0
    1.9114   -2.4788    1.6341 C   0  0  0  0  0  0  0  0  0  0  0  0
    1.4401   -3.1102    2.3893 H   0  0  0  0  0  0  0  0  0  0  0  0
    2.5454   -3.0953    0.9948 H   0  0  0  0  0  0  0  0  0  0  0  0
    2.5267   -1.7310    2.1387 H   0  0  0  0  0  0  0  0  0  0  0  0
  5  6  2  0  0  0  0
  5  7  1  0  0  0  0
  2  3  1  0  0  0  0
  2  4  1  0  0  0  0
  2  5  1  0  0  0  0
  1  2  1  0  0  0  0
 26 27  2  0  0  0  0
 26 28  1  0  0  0  0
 24 25  1  0  0  0  0
 22 23  1  0  0  0  0
 22 24  2  0  0  0  0
 20 21  1  0  0  0  0
 19 20  1  0  0  0  0
 19 22  1  0  0  0  0
 17 18  1  0  0  0  0
 17 19  2  0  0  0  0
 15 16  1  0  0  0  0
 15 17  1  0  0  0  0
 14 15  2  0  0  0  0
 14 24  1  0  0  0  0
 11 12  1  0  0  0  0
 11 13  1  0  0  0  0
 11 14  1  0  0  0  0
  9 10  1  0  0  0  0
  9 11  1  0  0  0  0
  9 26  1  0  0  0  0
  7  8  1  0  0  0  0
  7  9  1  0  0  0  0
 30 31  1  0  0  0  0
 30 32  1  0  0  0  0
 30 33  1  0  0  0  0
 28 29  1  0  0  0  0
 28 30  1  0  0  0  0
M  END
$$$$
default_name
  -OEChem-01062215323D

 33 33  0     1  0  0  0  0  0999 V2000
   -4.0702   -3.8485    1.4554 H   0  0  0  0  0  0  0  0  0  0  0  0
   -4.0012   -2.9605    0.8284 C   0  0  0  0  0  0  0  0  0  0  0  0
   -4.7652   -2.2435    1.1234 H   0  0  0  0  0  0  0  0  0  0  0  0
   -4.1352   -3.2385   -0.2156 H   0  0  0  0  0  0  0  0  0  0  0  0
   -2.6362   -2.3395    1.0094 C   0  0  0  0  0  0  0  0  0  0  0  0
   -1.8292   -2.8395    1.7814 O   0  0  0  0  0  0  0  0  0  0  0  0
   -2.3832   -1.2445    0.2964 N   0  0  0  0  0  0  0  0  0  0  0  0
   -3.1102   -0.8685   -0.2946 H   0  0  0  0  0  0  0  0  0  0  0  0
   -1.1292   -0.4875    0.3524 C   0  0  1  0  0  0  0  0  0  0  0  0
   -0.6667   -0.5091   -0.6350 H   0  0  0  0  0  0  0  0  0  0  0  0
   -1.4325    0.9772    0.7123 C   0  0  0  0  0  0  0  0  0  0  0  0
   -2.0230    1.0019    1.6291 H   0  0  0  0  0  0  0  0  0  0  0  0
   -0.4925    1.4932    0.9151 H   0  0  0  0  0  0  0  0  0  0  0  0
   -2.1968    1.7291   -0.3603 C   0  0  0  0  0  0  0  0  0  0  0  0
   -1.5190    2.2637   -1.4742 C   0  0  0  0  0  0  0  0  0  0  0  0
   -0.4446    2.1616   -1.5544 H   0  0  0  0  0  0  0  0  0  0  0  0
   -2.2386    2.9260   -2.4879 C   0  0  0  0  0  0  0  0  0  0  0  0
   -1.7162    3.3355   -3.3387 H   0  0  0  0  0  0  0  0  0  0  0  0
   -3.6416    3.0504   -2.3884 C   0  0  0  0  0  0  0  0  0  0  0  0
   -4.3450    3.6846   -3.3621 O   0  0  0  0  0  0  0  0  0  0  0  0
   -3.7731    4.0846   -4.0185 H   0  0  0  0  0  0  0  0  0  0  0  0
   -4.3187    2.5104   -1.2754 C   0  0  0  0  0  0  0  0  0  0  0  0
   -5.3911    2.6158   -1.2086 H   0  0  0  0  0  0  0  0  0  0  0  0
   -3.5961    1.8531   -0.2617 C   0  0  0  0  0  0  0  0  0  0  0  0
   -4.1160    1.4467    0.5977 H   0  0  0  0  0  0  0  0  0  0  0  0
   -0.1441   -1.1270    1.3451 C   0  0  0  0  0  0  0  0  0  0  0  0
   -0.4474   -1.2405    2.5330 O   0  0  0  0  0  0  0  0  0  0  0  0
    1.0340   -1.5413    0.8621 N   0  0  0  0  0  0  0  0  0  0  0  0
    1.2292   -1.3587   -0.1116 H   0  0  0  0  0  0  0  0  0  0  0  0
    2.0812   -2.1665    1.6668 C   0  0  0  0  0  0  0  0  0  0  0  0
    1.6599   -2.9867    2.2507 H   0  0  0  0  0  0  0  0  0  0  0  0
    2.8709   -2.5536    1.0209 H   0  0  0  0  0  0  0  0  0  0  0  0
    2.5052   -1.4309    2.3534 H   0  0  0  0  0  0  0  0  0  0  0  0
  5  6  2  0  0  0  0
  5  7  1  0  0  0  0
  2  3  1  0  0  0  0
  2  4  1  0  0  0  0
  2  5  1  0  0  0  0
  1  2  1  0  0  0  0
 26 27  2  0  0  0  0
 26 28  1  0  0  0  0
 24 25  1  0  0  0  0
 22 23  1  0  0  0  0
 22 24  2  0  0  0  0
 20 21  1  0  0  0  0
 19 20  1  0  0  0  0
 19 22  1  0  0  0  0
 17 18  1  0  0  0  0
 17 19  2  0  0  0  0
 15 16  1  0  0  0  0
 15 17  1  0  0  0  0
 14 15  2  0  0  0  0
 14 24  1  0  0  0  0
 11 12  1  0  0  0  0
 11 13  1  0  0  0  0
 11 14  1  0  0  0  0
  9 10  1  0  0  0  0
  9 11  1  0  0  0  0
  9 26  1  0  0  0  0
  7  8  1  0  0  0  0
  7  9  1  0  0  0  0
 30 31  1  0  0  0  0
 30 32  1  0  0  0  0
 30 33  1  0  0  0  0
 28 29  1  0  0  0  0
 28 30  1  0  0  0  0
M  END
$$$$
default_name
  -OEChem-01062215323D

 33 33  0     1  0  0  0  0  0999 V2000
   -4.0702   -3.8485    1.4554 H   0  0  0  0  0  0  0  0  0  0  0  0
   -4.0012   -2.9605    0.8284 C   0  0  0  0  0  0  0  0  0  0  0  0
   -4.7652   -2.2435    1.1234 H   0  0  0  0  0  0  0  0  0  0  0  0
   -4.1352   -3.2385   -0.2156 H   0  0  0  0  0  0  0  0  0  0  0  0
   -2.6362   -2.3395    1.0094 C   0  0  0  0  0  0  0  0  0  0  0  0
   -1.8292   -2.8395    1.7814 O   0  0  0  0  0  0  0  0  0  0  0  0
   -2.3832   -1.2445    0.2964 N   0  0  0  0  0  0  0  0  0  0  0  0
   -3.1102   -0.8685   -0.2946 H   0  0  0  0  0  0  0  0  0  0  0  0
   -1.1292   -0.4875    0.3524 C   0  0  1  0  0  0  0  0  0  0  0  0
   -0.6667   -0.5091   -0.6350 H   0  0  0  0  0  0  0  0  0  0  0  0
   -1.4325    0.9772    0.7123 C   0  0  0  0  0  0  0  0  0  0  0  0
   -2.0230    1.0019    1.6291 H   0  0  0  0  0  0  0  0  0  0  0  0
   -0.4925    1.4932    0.9151 H   0  0  0  0  0  0  0  0  0  0  0  0
   -2.1968    1.7291   -0.3603 C   0  0  0  0  0  0  0  0  0  0  0  0
   -1.5190    2.2637   -1.4742 C   0  0  0  0  0  0  0  0  0  0  0  0
   -0.4446    2.1616   -1.5544 H   0  0  0  0  0  0  0  0  0  0  0  0
   -2.2386    2.9260   -2.4879 C   0  0  0  0  0  0  0  0  0  0  0  0
   -1.7162    3.3355   -3.3387 H   0  0  0  0  0  0  0  0  0  0  0  0
   -3.6416    3.0504   -2.3884 C   0  0  0  0  0  0  0  0  0  0  0  0
   -4.3450    3.6846   -3.3621 O   0  0  0  0  0  0  0  0  0  0  0  0
   -3.7731    4.0846   -4.0185 H   0  0  0  0  0  0  0  0  0  0  0  0
   -4.3187    2.5104   -1.2754 C   0  0  0  0  0  0  0  0  0  0  0  0
   -5.3911    2.6158   -1.2086 H   0  0  0  0  0  0  0  0  0  0  0  0
   -3.5961    1.8531   -0.2617 C   0  0  0  0  0  0  0  0  0  0  0  0
   -4.1160    1.4467    0.5977 H   0  0  0  0  0  0  0  0  0  0  0  0
   -0.1441   -1.1270    1.3451 C   0  0  0  0  0  0  0  0  0  0  0  0
   -0.5325   -1.4930    2.4547 O   0  0  0  0  0  0  0  0  0  0  0  0
    1.1285   -1.2590    0.9502 N   0  0  0  0  0  0  0  0  0  0  0  0
    1.3787   -0.8803    0.0483 H   0  0  0  0  0  0  0  0  0  0  0  0
    2.1895   -1.8419    1.7684 C   0  0  0  0  0  0  0  0  0  0  0  0
    1.8665   -2.8077    2.1610 H   0  0  0  0  0  0  0  0  0  0  0  0
    3.0919   -1.9803    1.1708 H   0  0  0  0  0  0  0  0  0  0  0  0
    2.4111   -1.1801    2.6083 H   0  0  0  0  0  0  0  0  0  0  0  0
  5  6  2  0  0  0  0
  5  7  1  0  0  0  0
  2  3  1  0  0  0  0
  2  4  1  0  0  0  0
  2  5  1  0  0  0  0
  1  2  1  0  0  0  0
 26 27  2  0  0  0  0
 26 28  1  0  0  0  0
 24 25  1  0  0  0  0
 22 23  1  0  0  0  0
 22 24  2  0  0  0  0
 20 21  1  0  0  0  0
 19 20  1  0  0  0  0
 19 22  1  0  0  0  0
 17 18  1  0  0  0  0
 17 19  2  0  0  0  0
 15 16  1  0  0  0  0
 15 17  1  0  0  0  0
 14 15  2  0  0  0  0
 14 24  1  0  0  0  0
 11 12  1  0  0  0  0
 11 13  1  0  0  0  0
 11 14  1  0  0  0  0
  9 10  1  0  0  0  0
  9 11  1  0  0  0  0
  9 26  1  0  0  0  0
  7  8  1  0  0  0  0
  7  9  1  0  0  0  0
 30 31  1  0  0  0  0
 30 32  1  0  0  0  0
 30 33  1  0  0  0  0
 28 29  1  0  0  0  0
 28 30  1  0  0  0  0
M  END
$$$$
default_name
  -OEChem-01062215323D

 33 33  0     1  0  0  0  0  0999 V2000
   -4.0702   -3.8485    1.4554 H   0  0  0  0  0  0  0  0  0  0  0  0
   -4.0012   -2.9605    0.8284 C   0  0  0  0  0  0  0  0  0  0  0  0
   -4.7652   -2.2435    1.1234 H   0  0  0  0  0  0  0  0  0  0  0  0
   -4.1352   -3.2385   -0.2156 H   0  0  0  0  0  0  0  0  0  0  0  0
   -2.6362   -2.3395    1.0094 C   0  0  0  0  0  0  0  0  0  0  0  0
   -1.8292   -2.8395    1.7814 O   0  0  0  0  0  0  0  0  0  0  0  0
   -2.3832   -1.2445    0.2964 N   0  0  0  0  0  0  0  0  0  0  0  0
   -3.1102   -0.8685   -0.2946 H   0  0  0  0  0  0  0  0  0  0  0  0
   -1.1292   -0.4875    0.3524 C   0  0  1  0  0  0  0  0  0  0  0  0
   -0.6667   -0.5091   -0.6350 H   0  0  0  0  0  0  0  0  0  0  0  0
   -1.4325    0.9772    0.7123 C   0  0  0  0  0  0  0  0  0  0  0  0
   -2.0230    1.0019    1.6291 H   0  0  0  0  0  0  0  0  0  0  0  0
   -0.4925    1.4932    0.9151 H   0  0  0  0  0  0  0  0  0  0  0  0
   -2.1968    1.7291   -0.3603 C   0  0  0  0  0  0  0  0  0  0  0  0
   -1.5190    2.2637   -1.4742 C   0  0  0  0  0  0  0  0  0  0  0  0
   -0.4446    2.1616   -1.5544 H   0  0  0  0  0  0  0  0  0  0  0  0
   -2.2386    2.9260   -2.4879 C   0  0  0  0  0  0  0  0  0  0  0  0
   -1.7162    3.3355   -3.3387 H   0  0  0  0  0  0  0  0  0  0  0  0
   -3.6416    3.0504   -2.3884 C   0  0  0  0  0  0  0  0  0  0  0  0
   -4.3450    3.6846   -3.3621 O   0  0  0  0  0  0  0  0  0  0  0  0
   -3.7731    4.0846   -4.0185 H   0  0  0  0  0  0  0  0  0  0  0  0
   -4.3187    2.5104   -1.2754 C   0  0  0  0  0  0  0  0  0  0  0  0
   -5.3911    2.6158   -1.2086 H   0  0  0  0  0  0  0  0  0  0  0  0
   -3.5961    1.8531   -0.2617 C   0  0  0  0  0  0  0  0  0  0  0  0
   -4.1160    1.4467    0.5977 H   0  0  0  0  0  0  0  0  0  0  0  0
   -0.1441   -1.1270    1.3451 C   0  0  0  0  0  0  0  0  0  0  0  0
   -0.5640   -1.7382    2.3281 O   0  0  0  0  0  0  0  0  0  0  0  0
    1.1631   -0.9851    1.0923 N   0  0  0  0  0  0  0  0  0  0  0  0
    1.4259   -0.4198    0.2980 H   0  0  0  0  0  0  0  0  0  0  0  0
    2.2289   -1.5271    1.9321 C   0  0  0  0  0  0  0  0  0  0  0  0
    2.0459   -2.5854    2.1262 H   0  0  0  0  0  0  0  0  0  0  0  0
    3.1935   -1.4145    1.4345 H   0  0  0  0  0  0  0  0  0  0  0  0
    2.2510   -0.9959    2.8859 H   0  0  0  0  0  0  0  0  0  0  0  0
  5  6  2  0  0  0  0
  5  7  1  0  0  0  0
  2  3  1  0  0  0  0
  2  4  1  0  0  0  0
  2  5  1  0  0  0  0
  1  2  1  0  0  0  0
 26 27  2  0  0  0  0
 26 28  1  0  0  0  0
 24 25  1  0  0  0  0
 22 23  1  0  0  0  0
 22 24  2  0  0  0  0
 20 21  1  0  0  0  0
 19 20  1  0  0  0  0
 19 22  1  0  0  0  0
 17 18  1  0  0  0  0
 17 19  2  0  0  0  0
 15 16  1  0  0  0  0
 15 17  1  0  0  0  0
 14 15  2  0  0  0  0
 14 24  1  0  0  0  0
 11 12  1  0  0  0  0
 11 13  1  0  0  0  0
 11 14  1  0  0  0  0
  9 10  1  0  0  0  0
  9 11  1  0  0  0  0
  9 26  1  0  0  0  0
  7  8  1  0  0  0  0
  7  9  1  0  0  0  0
 30 31  1  0  0  0  0
 30 32  1  0  0  0  0
 30 33  1  0  0  0  0
 28 29  1  0  0  0  0
 28 30  1  0  0  0  0
M  END
$$$$
default_name
  -OEChem-01062215323D

 33 33  0     1  0  0  0  0  0999 V2000
   -4.0702   -3.8485    1.4554 H   0  0  0  0  0  0  0  0  0  0  0  0
   -4.0012   -2.9605    0.8284 C   0  0  0  0  0  0  0  0  0  0  0  0
   -4.7652   -2.2435    1.1234 H   0  0  0  0  0  0  0  0  0  0  0  0
   -4.1352   -3.2385   -0.2156 H   0  0  0  0  0  0  0  0  0  0  0  0
   -2.6362   -2.3395    1.0094 C   0  0  0  0  0  0  0  0  0  0  0  0
   -1.8292   -2.8395    1.7814 O   0  0  0  0  0  0  0  0  0  0  0  0
   -2.3832   -1.2445    0.2964 N   0  0  0  0  0  0  0  0  0  0  0  0
   -3.1102   -0.8685   -0.2946 H   0  0  0  0  0  0  0  0  0  0  0  0
   -1.1292   -0.4875    0.3524 C   0  0  1  0  0  0  0  0  0  0  0  0
   -0.6667   -0.5091   -0.6350 H   0  0  0  0  0  0  0  0  0  0  0  0
   -1.4325    0.9772    0.7123 C   0  0  0  0  0  0  0  0  0  0  0  0
   -2.0230    1.0019    1.6291 H   0  0  0  0  0  0  0  0  0  0  0  0
   -0.4925    1.4932    0.9151 H   0  0  0  0  0  0  0  0  0  0  0  0
   -2.1968    1.7291   -0.3603 C   0  0  0  0  0  0  0  0  0  0  0  0
   -1.5190    2.2637   -1.4742 C   0  0  0  0  0  0  0  0  0  0  0  0
   -0.4446    2.1616   -1.5544 H   0  0  0  0  0  0  0  0  0  0  0  0
   -2.2386    2.9260   -2.4879 C   0  0  0  0  0  0  0  0  0  0  0  0
   -1.7162    3.3355   -3.3387 H   0  0  0  0  0  0  0  0  0  0  0  0
   -3.6416    3.0504   -2.3884 C   0  0  0  0  0  0  0  0  0  0  0  0
   -4.3450    3.6846   -3.3621 O   0  0  0  0  0  0  0  0  0  0  0  0
   -3.7731    4.0846   -4.0185 H   0  0  0  0  0  0  0  0  0  0  0  0
   -4.3187    2.5104   -1.2754 C   0  0  0  0  0  0  0  0  0  0  0  0
   -5.3911    2.6158   -1.2086 H   0  0  0  0  0  0  0  0  0  0  0  0
   -3.5961    1.8531   -0.2617 C   0  0  0  0  0  0  0  0  0  0  0  0
   -4.1160    1.4467    0.5977 H   0  0  0  0  0  0  0  0  0  0  0  0
   -0.1441   -1.1270    1.3451 C   0  0  0  0  0  0  0  0  0  0  0  0
   -0.5398   -1.9593    2.1617 O   0  0  0  0  0  0  0  0  0  0  0  0
    1.1355   -0.7384    1.2787 N   0  0  0  0  0  0  0  0  0  0  0  0
    1.3678   -0.0085    0.6207 H   0  0  0  0  0  0  0  0  0  0  0  0
    2.1968   -1.2436    2.1466 C   0  0  0  0  0  0  0  0  0  0  0  0
    2.1857   -2.3349    2.1488 H   0  0  0  0  0  0  0  0  0  0  0  0
    3.1687   -0.8947    1.7940 H   0  0  0  0  0  0  0  0  0  0  0  0
    2.0357   -0.8907    3.1673 H   0  0  0  0  0  0  0  0  0  0  0  0
  5  6  2  0  0  0  0
  5  7  1  0  0  0  0
  2  3  1  0  0  0  0
  2  4  1  0  0  0  0
  2  5  1  0  0  0  0
  1  2  1  0  0  0  0
 26 27  2  0  0  0  0
 26 28  1  0  0  0  0
 24 25  1  0  0  0  0
 22 23  1  0  0  0  0
 22 24  2  0  0  0  0
 20 21  1  0  0  0  0
 19 20  1  0  0  0  0
 19 22  1  0  0  0  0
 17 18  1  0  0  0  0
 17 19  2  0  0  0  0
 15 16  1  0  0  0  0
 15 17  1  0  0  0  0
 14 15  2  0  0  0  0
 14 24  1  0  0  0  0
 11 12  1  0  0  0  0
 11 13  1  0  0  0  0
 11 14  1  0  0  0  0
  9 10  1  0  0  0  0
  9 11  1  0  0  0  0
  9 26  1  0  0  0  0
  7  8  1  0  0  0  0
  7  9  1  0  0  0  0
 30 31  1  0  0  0  0
 30 32  1  0  0  0  0
 30 33  1  0  0  0  0
 28 29  1  0  0  0  0
 28 30  1  0  0  0  0
M  END
$$$$
default_name
  -OEChem-01062215323D

 33 33  0     1  0  0  0  0  0999 V2000
   -4.0702   -3.8485    1.4554 H   0  0  0  0  0  0  0  0  0  0  0  0
   -4.0012   -2.9605    0.8284 C   0  0  0  0  0  0  0  0  0  0  0  0
   -4.7652   -2.2435    1.1234 H   0  0  0  0  0  0  0  0  0  0  0  0
   -4.1352   -3.2385   -0.2156 H   0  0  0  0  0  0  0  0  0  0  0  0
   -2.6362   -2.3395    1.0094 C   0  0  0  0  0  0  0  0  0  0  0  0
   -1.8292   -2.8395    1.7814 O   0  0  0  0  0  0  0  0  0  0  0  0
   -2.3832   -1.2445    0.2964 N   0  0  0  0  0  0  0  0  0  0  0  0
   -3.1102   -0.8685   -0.2946 H   0  0  0  0  0  0  0  0  0  0  0  0
   -1.1292   -0.4875    0.3524 C   0  0  1  0  0  0  0  0  0  0  0  0
   -0.8041   -0.2790   -0.6676 H   0  0  0  0  0  0  0  0  0  0  0  0
   -1.3737    0.8536    1.0656 C   0  0  0  0  0  0  0  0  0  0  0  0
   -1.8351    0.6606    2.0349 H   0  0  0  0  0  0  0  0  0  0  0  0
   -0.4123    1.3354    1.2514 H   0  0  0  0  0  0  0  0  0  0  0  0
   -2.2716    1.8044    0.2977 C   0  0  0  0  0  0  0  0  0  0  0  0
   -1.7474    2.5885   -0.7494 C   0  0  0  0  0  0  0  0  0  0  0  0
   -0.6942    2.5334   -0.9920 H   0  0  0  0  0  0  0  0  0  0  0  0
   -2.5937    3.4400   -1.4861 C   0  0  0  0  0  0  0  0  0  0  0  0
   -2.1885    4.0401   -2.2863 H   0  0  0  0  0  0  0  0  0  0  0  0
   -3.9697    3.5043   -1.1765 C   0  0  0  0  0  0  0  0  0  0  0  0
   -4.7947    4.3201   -1.8829 O   0  0  0  0  0  0  0  0  0  0  0  0
   -4.3144    4.8692   -2.5040 H   0  0  0  0  0  0  0  0  0  0  0  0
   -4.4935    2.7153   -0.1315 C   0  0  0  0  0  0  0  0  0  0  0  0
   -5.5465    2.7765    0.0986 H   0  0  0  0  0  0  0  0  0  0  0  0
   -3.6442    1.8686    0.6060 C   0  0  0  0  0  0  0  0  0  0  0  0
   -4.0456    1.2697    1.4148 H   0  0  0  0  0  0  0  0  0  0  0  0
   -0.0227   -1.3055    1.0387 C   0  0  0  0  0  0  0  0  0  0  0  0
   -0.2587   -2.4396    1.4562 O   0  0  0  0  0  0  0  0  0  0  0  0
    1.1817   -0.7326    1.1585 N   0  0  0  0  0  0  0  0  0  0  0  0
    1.2775    0.2218    0.8433 H   0  0  0  0  0  0  0  0  0  0  0  0
    2.3388   -1.3686    1.7842 C   0  0  0  0  0  0  0  0  0  0  0  0
    2.4898   -2.3627    1.3598 H   0  0  0  0  0  0  0  0  0  0  0  0
    3.2339   -0.7670    1.6180 H   0  0  0  0  0  0  0  0  0  0  0  0
    2.1665   -1.4697    2.8577 H   0  0  0  0  0  0  0  0  0  0  0  0
  5  6  2  0  0  0  0
  5  7  1  0  0  0  0
  2  3  1  0  0  0  0
  2  4  1  0  0  0  0
  2  5  1  0  0  0  0
  1  2  1  0  0  0  0
 26 27  2  0  0  0  0
 26 28  1  0  0  0  0
 24 25  1  0  0  0  0
 22 23  1  0  0  0  0
 22 24  2  0  0  0  0
 20 21  1  0  0  0  0
 19 20  1  0  0  0  0
 19 22  1  0  0  0  0
 17 18  1  0  0  0  0
 17 19  2  0  0  0  0
 15 16  1  0  0  0  0
 15 17  1  0  0  0  0
 14 15  2  0  0  0  0
 14 24  1  0  0  0  0
 11 12  1  0  0  0  0
 11 13  1  0  0  0  0
 11 14  1  0  0  0  0
  9 10  1  0  0  0  0
  9 11  1  0  0  0  0
  9 26  1  0  0  0  0
  7  8  1  0  0  0  0
  7  9  1  0  0  0  0
 30 31  1  0  0  0  0
 30 32  1  0  0  0  0
 30 33  1  0  0  0  0
 28 29  1  0  0  0  0
 28 30  1  0  0  0  0
M  END
$$$$
default_name
  -OEChem-01062215323D

 33 33  0     1  0  0  0  0  0999 V2000
   -4.0702   -3.8485    1.4554 H   0  0  0  0  0  0  0  0  0  0  0  0
   -4.0012   -2.9605    0.8284 C   0  0  0  0  0  0  0  0  0  0  0  0
   -4.7652   -2.2435    1.1234 H   0  0  0  0  0  0  0  0  0  0  0  0
   -4.1352   -3.2385   -0.2156 H   0  0  0  0  0  0  0  0  0  0  0  0
   -2.6362   -2.3395    1.0094 C   0  0  0  0  0  0  0  0  0  0  0  0
   -1.8292   -2.8395    1.7814 O   0  0  0  0  0  0  0  0  0  0  0  0
   -2.3832   -1.2445    0.2964 N   0  0  0  0  0  0  0  0  0  0  0  0
   -3.1102   -0.8685   -0.2946 H   0  0  0  0  0  0  0  0  0  0  0  0
   -1.1292   -0.4875    0.3524 C   0  0  1  0  0  0  0  0  0  0  0  0
   -0.8041   -0.2790   -0.6676 H   0  0  0  0  0  0  0  0  0  0  0  0
   -1.3737    0.8536    1.0656 C   0  0  0  0  0  0  0  0  0  0  0  0
   -1.8351    0.6606    2.0349 H   0  0  0  0  0  0  0  0  0  0  0  0
   -0.4123    1.3354    1.2514 H   0  0  0  0  0  0  0  0  0  0  0  0
   -2.2716    1.8044    0.2977 C   0  0  0  0  0  0  0  0  0  0  0  0
   -1.7474    2.5885   -0.7494 C   0  0  0  0  0  0  0  0  0  0  0  0
   -0.6942    2.5334   -0.9920 H   0  0  0  0  0  0  0  0  0  0  0  0
   -2.5937    3.4400   -1.4861 C   0  0  0  0  0  0  0  0  0  0  0  0
   -2.1885    4.0401   -2.2863 H   0  0  0  0  0  0  0  0  0  0  0  0
   -3.9697    3.5043   -1.1765 C   0  0  0  0  0  0  0  0  0  0  0  0
   -4.7947    4.3201   -1.8829 O   0  0  0  0  0  0  0  0  0  0  0  0
   -4.3144    4.8692   -2.5040 H   0  0  0  0  0  0  0  0  0  0  0  0
   -4.4935    2.7153   -0.1315 C   0  0  0  0  0  0  0  0  0  0  0  0
   -5.5465    2.7765    0.0986 H   0  0  0  0  0  0  0  0  0  0  0  0
   -3.6442    1.8686    0.6060 C   0  0  0  0  0  0  0  0  0  0  0  0
   -4.0456    1.2697    1.4148 H   0  0  0  0  0  0  0  0  0  0  0  0
   -0.0227   -1.3055    1.0387 C   0  0  0  0  0  0  0  0  0  0  0  0
   -0.1620   -2.5172    1.2077 O   0  0  0  0  0  0  0  0  0  0  0  0
    1.0730   -0.6465    1.4363 N   0  0  0  0  0  0  0  0  0  0  0  0
    1.0846    0.3557    1.3140 H   0  0  0  0  0  0  0  0  0  0  0  0
    2.2136   -1.2699    2.1036 C   0  0  0  0  0  0  0  0  0  0  0  0
    2.5437   -2.1418    1.5362 H   0  0  0  0  0  0  0  0  0  0  0  0
    3.0377   -0.5590    2.1822 H   0  0  0  0  0  0  0  0  0  0  0  0
    1.9211   -1.5949    3.1042 H   0  0  0  0  0  0  0  0  0  0  0  0
  5  6  2  0  0  0  0
  5  7  1  0  0  0  0
  2  3  1  0  0  0  0
  2  4  1  0  0  0  0
  2  5  1  0  0  0  0
  1  2  1  0  0  0  0
 26 27  2  0  0  0  0
 26 28  1  0  0  0  0
 24 25  1  0  0  0  0
 22 23  1  0  0  0  0
 22 24  2  0  0  0  0
 20 21  1  0  0  0  0
 19 20  1  0  0  0  0
 19 22  1  0  0  0  0
 17 18  1  0  0  0  0
 17 19  2  0  0  0  0
 15 16  1  0  0  0  0
 15 17  1  0  0  0  0
 14 15  2  0  0  0  0
 14 24  1  0  0  0  0
 11 12  1  0  0  0  0
 11 13  1  0  0  0  0
 11 14  1  0  0  0  0
  9 10  1  0  0  0  0
  9 11  1  0  0  0  0
  9 26  1  0  0  0  0
  7  8  1  0  0  0  0
  7  9  1  0  0  0  0
 30 31  1  0  0  0  0
 30 32  1  0  0  0  0
 30 33  1  0  0  0  0
 28 29  1  0  0  0  0
 28 30  1  0  0  0  0
M  END
$$$$
default_name
  -OEChem-01062215323D

 33 33  0     1  0  0  0  0  0999 V2000
   -4.0702   -3.8485    1.4554 H   0  0  0  0  0  0  0  0  0  0  0  0
   -4.0012   -2.9605    0.8284 C   0  0  0  0  0  0  0  0  0  0  0  0
   -4.7652   -2.2435    1.1234 H   0  0  0  0  0  0  0  0  0  0  0  0
   -4.1352   -3.2385   -0.2156 H   0  0  0  0  0  0  0  0  0  0  0  0
   -2.6362   -2.3395    1.0094 C   0  0  0  0  0  0  0  0  0  0  0  0
   -1.8292   -2.8395    1.7814 O   0  0  0  0  0  0  0  0  0  0  0  0
   -2.3832   -1.2445    0.2964 N   0  0  0  0  0  0  0  0  0  0  0  0
   -3.1102   -0.8685   -0.2946 H   0  0  0  0  0  0  0  0  0  0  0  0
   -1.1292   -0.4875    0.3524 C   0  0  1  0  0  0  0  0  0  0  0  0
   -0.8041   -0.2790   -0.6676 H   0  0  0  0  0  0  0  0  0  0  0  0
   -1.3737    0.8536    1.0656 C   0  0  0  0  0  0  0  0  0  0  0  0
   -1.8351    0.6606    2.0349 H   0  0  0  0  0  0  0  0  0  0  0  0
   -0.4123    1.3354    1.2514 H   0  0  0  0  0  0  0  0  0  0  0  0
   -2.2716    1.8044    0.2977 C   0  0  0  0  0  0  0  0  0  0  0  0
   -1.7474    2.5885   -0.7494 C   0  0  0  0  0  0  0  0  0  0  0  0
   -0.6942    2.5334   -0.9920 H   0  0  0  0  0  0  0  0  0  0  0  0
   -2.5937    3.4400   -1.4861 C   0  0  0  0  0  0  0  0  0  0  0  0
   -2.1885    4.0401   -2.2863 H   0  0  0  0  0  0  0  0  0  0  0  0
   -3.9697    3.5043   -1.1765 C   0  0  0  0  0  0  0  0  0  0  0  0
   -4.7947    4.3201   -1.8829 O   0  0  0  0  0  0  0  0  0  0  0  0
   -4.3144    4.8692   -2.5040 H   0  0  0  0  0  0  0  0  0  0  0  0
   -4.4935    2.7153   -0.1315 C   0  0  0  0  0  0  0  0  0  0  0  0
   -5.5465    2.7765    0.0986 H   0  0  0  0  0  0  0  0  0  0  0  0
   -3.6442    1.8686    0.6060 C   0  0  0  0  0  0  0  0  0  0  0  0
   -4.0456    1.2697    1.4148 H   0  0  0  0  0  0  0  0  0  0  0  0
   -0.0227   -1.3055    1.0387 C   0  0  0  0  0  0  0  0  0  0  0  0
   -0.0253   -2.5347    0.9665 O   0  0  0  0  0  0  0  0  0  0  0  0
    0.9199   -0.6276    1.7057 N   0  0  0  0  0  0  0  0  0  0  0  0
    0.8179    0.3751    1.7670 H   0  0  0  0  0  0  0  0  0  0  0  0
    2.0373   -1.2486    2.4132 C   0  0  0  0  0  0  0  0  0  0  0  0
    2.5460   -1.9551    1.7551 H   0  0  0  0  0  0  0  0  0  0  0  0
    2.7465   -0.4859    2.7389 H   0  0  0  0  0  0  0  0  0  0  0  0
    1.6645   -1.7901    3.2852 H   0  0  0  0  0  0  0  0  0  0  0  0
  5  6  2  0  0  0  0
  5  7  1  0  0  0  0
  2  3  1  0  0  0  0
  2  4  1  0  0  0  0
  2  5  1  0  0  0  0
  1  2  1  0  0  0  0
 26 27  2  0  0  0  0
 26 28  1  0  0  0  0
 24 25  1  0  0  0  0
 22 23  1  0  0  0  0
 22 24  2  0  0  0  0
 20 21  1  0  0  0  0
 19 20  1  0  0  0  0
 19 22  1  0  0  0  0
 17 18  1  0  0  0  0
 17 19  2  0  0  0  0
 15 16  1  0  0  0  0
 15 17  1  0  0  0  0
 14 15  2  0  0  0  0
 14 24  1  0  0  0  0
 11 12  1  0  0  0  0
 11 13  1  0  0  0  0
 11 14  1  0  0  0  0
  9 10  1  0  0  0  0
  9 11  1  0  0  0  0
  9 26  1  0  0  0  0
  7  8  1  0  0  0  0
  7  9  1  0  0  0  0
 30 31  1  0  0  0  0
 30 32  1  0  0  0  0
 30 33  1  0  0  0  0
 28 29  1  0  0  0  0
 28 30  1  0  0  0  0
M  END
$$$$
default_name
  -OEChem-01062215323D

 33 33  0     1  0  0  0  0  0999 V2000
   -4.0702   -3.8485    1.4554 H   0  0  0  0  0  0  0  0  0  0  0  0
   -4.0012   -2.9605    0.8284 C   0  0  0  0  0  0  0  0  0  0  0  0
   -4.7652   -2.2435    1.1234 H   0  0  0  0  0  0  0  0  0  0  0  0
   -4.1352   -3.2385   -0.2156 H   0  0  0  0  0  0  0  0  0  0  0  0
   -2.6362   -2.3395    1.0094 C   0  0  0  0  0  0  0  0  0  0  0  0
   -1.8292   -2.8395    1.7814 O   0  0  0  0  0  0  0  0  0  0  0  0
   -2.3832   -1.2445    0.2964 N   0  0  0  0  0  0  0  0  0  0  0  0
   -3.1102   -0.8685   -0.2946 H   0  0  0  0  0  0  0  0  0  0  0  0
   -1.1292   -0.4875    0.3524 C   0  0  1  0  0  0  0  0  0  0  0  0
   -0.8041   -0.2790   -0.6676 H   0  0  0  0  0  0  0  0  0  0  0  0
   -1.3737    0.8536    1.0656 C   0  0  0  0  0  0  0  0  0  0  0  0
   -1.8351    0.6606    2.0349 H   0  0  0  0  0  0  0  0  0  0  0  0
   -0.4123    1.3354    1.2514 H   0  0  0  0  0  0  0  0  0  0  0  0
   -2.2716    1.8044    0.2977 C   0  0  0  0  0  0  0  0  0  0  0  0
   -1.7474    2.5885   -0.7494 C   0  0  0  0  0  0  0  0  0  0  0  0
   -0.6942    2.5334   -0.9920 H   0  0  0  0  0  0  0  0  0  0  0  0
   -2.5937    3.4400   -1.4861 C   0  0  0  0  0  0  0  0  0  0  0  0
   -2.1885    4.0401   -2.2863 H   0  0  0  0  0  0  0  0  0  0  0  0
   -3.9697    3.5043   -1.1765 C   0  0  0  0  0  0  0  0  0  0  0  0
   -4.7947    4.3201   -1.8829 O   0  0  0  0  0  0  0  0  0  0  0  0
   -4.3144    4.8692   -2.5040 H   0  0  0  0  0  0  0  0  0  0  0  0
   -4.4935    2.7153   -0.1315 C   0  0  0  0  0  0  0  0  0  0  0  0
   -5.5465    2.7765    0.0986 H   0  0  0  0  0  0  0  0  0  0  0  0
   -3.6442    1.8686    0.6060 C   0  0  0  0  0  0  0  0  0  0  0  0
   -4.0456    1.2697    1.4148 H   0  0  0  0  0  0  0  0  0  0  0  0
   -0.0227   -1.3055    1.0387 C   0  0  0  0  0  0  0  0  0  0  0  0
    0.1419   -2.4910    0.7491 O   0  0  0  0  0  0  0  0  0  0  0  0
    0.7327   -0.6772    1.9484 N   0  0  0  0  0  0  0  0  0  0  0  0
    0.4958    0.2786    2.1715 H   0  0  0  0  0  0  0  0  0  0  0  0
    1.8219   -1.3061    2.6921 C   0  0  0  0  0  0  0  0  0  0  0  0
    2.4965   -1.8152    2.0016 H   0  0  0  0  0  0  0  0  0  0  0  0
    2.3802   -0.5526    3.2501 H   0  0  0  0  0  0  0  0  0  0  0  0
    1.4144   -2.0419    3.3883 H   0  0  0  0  0  0  0  0  0  0  0  0
  5  6  2  0  0  0  0
  5  7  1  0  0  0  0
  2  3  1  0  0  0  0
  2  4  1  0  0  0  0
  2  5  1  0  0  0  0
  1  2  1  0  0  0  0
 26 27  2  0  0  0  0
 26 28  1  0  0  0  0
 24 25  1  0  0  0  0
 22 23  1  0  0  0  0
 22 24  2  0  0  0  0
 20 21  1  0  0  0  0
 19 20  1  0  0  0  0
 19 22  1  0  0  0  0
 17 18  1  0  0  0  0
 17 19  2  0  0  0  0
 15 16  1  0  0  0  0
 15 17  1  0  0  0  0
 14 15  2  0  0  0  0
 14 24  1  0  0  0  0
 11 12  1  0  0  0  0
 11 13  1  0  0  0  0
 11 14  1  0  0  0  0
  9 10  1  0  0  0  0
  9 11  1  0  0  0  0
  9 26  1  0  0  0  0
  7  8  1  0  0  0  0
  7  9  1  0  0  0  0
 30 31  1  0  0  0  0
 30 32  1  0  0  0  0
 30 33  1  0  0  0  0
 28 29  1  0  0  0  0
 28 30  1  0  0  0  0
M  END
$$$$
default_name
  -OEChem-01062215323D

 33 33  0     1  0  0  0  0  0999 V2000
   -4.0702   -3.8485    1.4554 H   0  0  0  0  0  0  0  0  0  0  0  0
   -4.0012   -2.9605    0.8284 C   0  0  0  0  0  0  0  0  0  0  0  0
   -4.7652   -2.2435    1.1234 H   0  0  0  0  0  0  0  0  0  0  0  0
   -4.1352   -3.2385   -0.2156 H   0  0  0  0  0  0  0  0  0  0  0  0
   -2.6362   -2.3395    1.0094 C   0  0  0  0  0  0  0  0  0  0  0  0
   -1.8292   -2.8395    1.7814 O   0  0  0  0  0  0  0  0  0  0  0  0
   -2.3832   -1.2445    0.2964 N   0  0  0  0  0  0  0  0  0  0  0  0
   -3.1102   -0.8685   -0.2946 H   0  0  0  0  0  0  0  0  0  0  0  0
   -1.1292   -0.4875    0.3524 C   0  0  1  0  0  0  0  0  0  0  0  0
   -0.8041   -0.2790   -0.6676 H   0  0  0  0  0  0  0  0  0  0  0  0
   -1.3737    0.8536    1.0656 C   0  0  0  0  0  0  0  0  0  0  0  0
   -1.8351    0.6606    2.0349 H   0  0  0  0  0  0  0  0  0  0  0  0
   -0.4123    1.3354    1.2514 H   0  0  0  0  0  0  0  0  0  0  0  0
   -2.2716    1.8044    0.2977 C   0  0  0  0  0  0  0  0  0  0  0  0
   -1.7474    2.5885   -0.7494 C   0  0  0  0  0  0  0  0  0  0  0  0
   -0.6942    2.5334   -0.9920 H   0  0  0  0  0  0  0  0  0  0  0  0
   -2.5937    3.4400   -1.4861 C   0  0  0  0  0  0  0  0  0  0  0  0
   -2.1885    4.0401   -2.2863 H   0  0  0  0  0  0  0  0  0  0  0  0
   -3.9697    3.5043   -1.1765 C   0  0  0  0  0  0  0  0  0  0  0  0
   -4.7947    4.3201   -1.8829 O   0  0  0  0  0  0  0  0  0  0  0  0
   -4.3144    4.8692   -2.5040 H   0  0  0  0  0  0  0  0  0  0  0  0
   -4.4935    2.7153   -0.1315 C   0  0  0  0  0  0  0  0  0  0  0  0
   -5.5465    2.7765    0.0986 H   0  0  0  0  0  0  0  0  0  0  0  0
   -3.6442    1.8686    0.6060 C   0  0  0  0  0  0  0  0  0  0  0  0
   -4.0456    1.2697    1.4148 H   0  0  0  0  0  0  0  0  0  0  0  0
   -0.0227   -1.3055    1.0387 C   0  0  0  0  0  0  0  0  0  0  0  0
    0.3283   -2.3889    0.5703 O   0  0  0  0  0  0  0  0  0  0  0  0
    0.5242   -0.7919    2.1478 N   0  0  0  0  0  0  0  0  0  0  0  0
    0.1400    0.0729    2.4998 H   0  0  0  0  0  0  0  0  0  0  0  0
    1.5821   -1.4383    2.9210 C   0  0  0  0  0  0  0  0  0  0  0  0
    2.3986   -1.7318    2.2589 H   0  0  0  0  0  0  0  0  0  0  0  0
    1.9636   -0.7545    3.6810 H   0  0  0  0  0  0  0  0  0  0  0  0
    1.1876   -2.3333    3.4066 H   0  0  0  0  0  0  0  0  0  0  0  0
  5  6  2  0  0  0  0
  5  7  1  0  0  0  0
  2  3  1  0  0  0  0
  2  4  1  0  0  0  0
  2  5  1  0  0  0  0
  1  2  1  0  0  0  0
 26 27  2  0  0  0  0
 26 28  1  0  0  0  0
 24 25  1  0  0  0  0
 22 23  1  0  0  0  0
 22 24  2  0  0  0  0
 20 21  1  0  0  0  0
 19 20  1  0  0  0  0
 19 22  1  0  0  0  0
 17 18  1  0  0  0  0
 17 19  2  0  0  0  0
 15 16  1  0  0  0  0
 15 17  1  0  0  0  0
 14 15  2  0  0  0  0
 14 24  1  0  0  0  0
 11 12  1  0  0  0  0
 11 13  1  0  0  0  0
 11 14  1  0  0  0  0
  9 10  1  0  0  0  0
  9 11  1  0  0  0  0
  9 26  1  0  0  0  0
  7  8  1  0  0  0  0
  7  9  1  0  0  0  0
 30 31  1  0  0  0  0
 30 32  1  0  0  0  0
 30 33  1  0  0  0  0
 28 29  1  0  0  0  0
 28 30  1  0  0  0  0
M  END
$$$$
default_name
  -OEChem-01062215323D

 33 33  0     1  0  0  0  0  0999 V2000
   -4.0702   -3.8485    1.4554 H   0  0  0  0  0  0  0  0  0  0  0  0
   -4.0012   -2.9605    0.8284 C   0  0  0  0  0  0  0  0  0  0  0  0
   -4.7652   -2.2435    1.1234 H   0  0  0  0  0  0  0  0  0  0  0  0
   -4.1352   -3.2385   -0.2156 H   0  0  0  0  0  0  0  0  0  0  0  0
   -2.6362   -2.3395    1.0094 C   0  0  0  0  0  0  0  0  0  0  0  0
   -1.8292   -2.8395    1.7814 O   0  0  0  0  0  0  0  0  0  0  0  0
   -2.3832   -1.2445    0.2964 N   0  0  0  0  0  0  0  0  0  0  0  0
   -3.1102   -0.8685   -0.2946 H   0  0  0  0  0  0  0  0  0  0  0  0
   -1.1292   -0.4875    0.3524 C   0  0  1  0  0  0  0  0  0  0  0  0
   -0.8041   -0.2790   -0.6676 H   0  0  0  0  0  0  0  0  0  0  0  0
   -1.3737    0.8536    1.0656 C   0  0  0  0  0  0  0  0  0  0  0  0
   -1.8351    0.6606    2.0349 H   0  0  0  0  0  0  0  0  0  0  0  0
   -0.4123    1.3354    1.2514 H   0  0  0  0  0  0  0  0  0  0  0  0
   -2.2716    1.8044    0.2977 C   0  0  0  0  0  0  0  0  0  0  0  0
   -1.7474    2.5885   -0.7494 C   0  0  0  0  0  0  0  0  0  0  0  0
   -0.6942    2.5334   -0.9920 H   0  0  0  0  0  0  0  0  0  0  0  0
   -2.5937    3.4400   -1.4861 C   0  0  0  0  0  0  0  0  0  0  0  0
   -2.1885    4.0401   -2.2863 H   0  0  0  0  0  0  0  0  0  0  0  0
   -3.9697    3.5043   -1.1765 C   0  0  0  0  0  0  0  0  0  0  0  0
   -4.7947    4.3201   -1.8829 O   0  0  0  0  0  0  0  0  0  0  0  0
   -4.3144    4.8692   -2.5040 H   0  0  0  0  0  0  0  0  0  0  0  0
   -4.4935    2.7153   -0.1315 C   0  0  0  0  0  0  0  0  0  0  0  0
   -5.5465    2.7765    0.0986 H   0  0  0  0  0  0  0  0  0  0  0  0
   -3.6442    1.8686    0.6060 C   0  0  0  0  0  0  0  0  0  0  0  0
   -4.0456    1.2697    1.4148 H   0  0  0  0  0  0  0  0  0  0  0  0
   -0.0227   -1.3055    1.0387 C   0  0  0  0  0  0  0  0  0  0  0  0
    0.5211   -2.2354    0.4422 O   0  0  0  0  0  0  0  0  0  0  0  0
    0.3087   -0.9640    2.2903 N   0  0  0  0  0  0  0  0  0  0  0  0
   -0.2251   -0.2281    2.7297 H   0  0  0  0  0  0  0  0  0  0  0  0
    1.3342   -1.6365    3.0845 C   0  0  0  0  0  0  0  0  0  0  0  0
    2.2590   -1.7104    2.5096 H   0  0  0  0  0  0  0  0  0  0  0  0
    1.5252   -1.0780    4.0023 H   0  0  0  0  0  0  0  0  0  0  0  0
    0.9997   -2.6443    3.3388 H   0  0  0  0  0  0  0  0  0  0  0  0
  5  6  2  0  0  0  0
  5  7  1  0  0  0  0
  2  3  1  0  0  0  0
  2  4  1  0  0  0  0
  2  5  1  0  0  0  0
  1  2  1  0  0  0  0
 26 27  2  0  0  0  0
 26 28  1  0  0  0  0
 24 25  1  0  0  0  0
 22 23  1  0  0  0  0
 22 24  2  0  0  0  0
 20 21  1  0  0  0  0
 19 20  1  0  0  0  0
 19 22  1  0  0  0  0
 17 18  1  0  0  0  0
 17 19  2  0  0  0  0
 15 16  1  0  0  0  0
 15 17  1  0  0  0  0
 14 15  2  0  0  0  0
 14 24  1  0  0  0  0
 11 12  1  0  0  0  0
 11 13  1  0  0  0  0
 11 14  1  0  0  0  0
  9 10  1  0  0  0  0
  9 11  1  0  0  0  0
  9 26  1  0  0  0  0
  7  8  1  0  0  0  0
  7  9  1  0  0  0  0
 30 31  1  0  0  0  0
 30 32  1  0  0  0  0
 30 33  1  0  0  0  0
 28 29  1  0  0  0  0
 28 30  1  0  0  0  0
M  END
$$$$
default_name
  -OEChem-01062215323D

 33 33  0     1  0  0  0  0  0999 V2000
   -4.0702   -3.8485    1.4554 H   0  0  0  0  0  0  0  0  0  0  0  0
   -4.0012   -2.9605    0.8284 C   0  0  0  0  0  0  0  0  0  0  0  0
   -4.7652   -2.2435    1.1234 H   0  0  0  0  0  0  0  0  0  0  0  0
   -4.1352   -3.2385   -0.2156 H   0  0  0  0  0  0  0  0  0  0  0  0
   -2.6362   -2.3395    1.0094 C   0  0  0  0  0  0  0  0  0  0  0  0
   -1.8292   -2.8395    1.7814 O   0  0  0  0  0  0  0  0  0  0  0  0
   -2.3832   -1.2445    0.2964 N   0  0  0  0  0  0  0  0  0  0  0  0
   -3.1102   -0.8685   -0.2946 H   0  0  0  0  0  0  0  0  0  0  0  0
   -1.1292   -0.4875    0.3524 C   0  0  1  0  0  0  0  0  0  0  0  0
   -0.8041   -0.2790   -0.6676 H   0  0  0  0  0  0  0  0  0  0  0  0
   -1.3737    0.8536    1.0656 C   0  0  0  0  0  0  0  0  0  0  0  0
   -1.8351    0.6606    2.0349 H   0  0  0  0  0  0  0  0  0  0  0  0
   -0.4123    1.3354    1.2514 H   0  0  0  0  0  0  0  0  0  0  0  0
   -2.2716    1.8044    0.2977 C   0  0  0  0  0  0  0  0  0  0  0  0
   -1.7474    2.5885   -0.7494 C   0  0  0  0  0  0  0  0  0  0  0  0
   -0.6942    2.5334   -0.9920 H   0  0  0  0  0  0  0  0  0  0  0  0
   -2.5937    3.4400   -1.4861 C   0  0  0  0  0  0  0  0  0  0  0  0
   -2.1885    4.0401   -2.2863 H   0  0  0  0  0  0  0  0  0  0  0  0
   -3.9697    3.5043   -1.1765 C   0  0  0  0  0  0  0  0  0  0  0  0
   -4.7947    4.3201   -1.8829 O   0  0  0  0  0  0  0  0  0  0  0  0
   -4.3144    4.8692   -2.5040 H   0  0  0  0  0  0  0  0  0  0  0  0
   -4.4935    2.7153   -0.1315 C   0  0  0  0  0  0  0  0  0  0  0  0
   -5.5465    2.7765    0.0986 H   0  0  0  0  0  0  0  0  0  0  0  0
   -3.6442    1.8686    0.6060 C   0  0  0  0  0  0  0  0  0  0  0  0
   -4.0456    1.2697    1.4148 H   0  0  0  0  0  0  0  0  0  0  0  0
   -0.0227   -1.3055    1.0387 C   0  0  0  0  0  0  0  0  0  0  0  0
    0.7073   -2.0411    0.3737 O   0  0  0  0  0  0  0  0  0  0  0  0
    0.1007   -1.1816    2.3663 N   0  0  0  0  0  0  0  0  0  0  0  0
   -0.5746   -0.6037    2.8455 H   0  0  0  0  0  0  0  0  0  0  0  0
    1.0952   -1.8869    3.1714 C   0  0  0  0  0  0  0  0  0  0  0  0
    2.0871   -1.7526    2.7364 H   0  0  0  0  0  0  0  0  0  0  0  0
    1.0949   -1.5008    4.1920 H   0  0  0  0  0  0  0  0  0  0  0  0
    0.8635   -2.9539    3.1895 H   0  0  0  0  0  0  0  0  0  0  0  0
  5  6  2  0  0  0  0
  5  7  1  0  0  0  0
  2  3  1  0  0  0  0
  2  4  1  0  0  0  0
  2  5  1  0  0  0  0
  1  2  1  0  0  0  0
 26 27  2  0  0  0  0
 26 28  1  0  0  0  0
 24 25  1  0  0  0  0
 22 23  1  0  0  0  0
 22 24  2  0  0  0  0
 20 21  1  0  0  0  0
 19 20  1  0  0  0  0
 19 22  1  0  0  0  0
 17 18  1  0  0  0  0
 17 19  2  0  0  0  0
 15 16  1  0  0  0  0
 15 17  1  0  0  0  0
 14 15  2  0  0  0  0
 14 24  1  0  0  0  0
 11 12  1  0  0  0  0
 11 13  1  0  0  0  0
 11 14  1  0  0  0  0
  9 10  1  0  0  0  0
  9 11  1  0  0  0  0
  9 26  1  0  0  0  0
  7  8  1  0  0  0  0
  7  9  1  0  0  0  0
 30 31  1  0  0  0  0
 30 32  1  0  0  0  0
 30 33  1  0  0  0  0
 28 29  1  0  0  0  0
 28 30  1  0  0  0  0
M  END
$$$$
default_name
  -OEChem-01062215323D

 33 33  0     1  0  0  0  0  0999 V2000
   -4.0702   -3.8485    1.4554 H   0  0  0  0  0  0  0  0  0  0  0  0
   -4.0012   -2.9605    0.8284 C   0  0  0  0  0  0  0  0  0  0  0  0
   -4.7652   -2.2435    1.1234 H   0  0  0  0  0  0  0  0  0  0  0  0
   -4.1352   -3.2385   -0.2156 H   0  0  0  0  0  0  0  0  0  0  0  0
   -2.6362   -2.3395    1.0094 C   0  0  0  0  0  0  0  0  0  0  0  0
   -1.8292   -2.8395    1.7814 O   0  0  0  0  0  0  0  0  0  0  0  0
   -2.3832   -1.2445    0.2964 N   0  0  0  0  0  0  0  0  0  0  0  0
   -3.1102   -0.8685   -0.2946 H   0  0  0  0  0  0  0  0  0  0  0  0
   -1.1292   -0.4875    0.3524 C   0  0  1  0  0  0  0  0  0  0  0  0
   -0.8041   -0.2790   -0.6676 H   0  0  0  0  0  0  0  0  0  0  0  0
   -1.3737    0.8536    1.0656 C   0  0  0  0  0  0  0  0  0  0  0  0
   -1.8351    0.6606    2.0349 H   0  0  0  0  0  0  0  0  0  0  0  0
   -0.4123    1.3354    1.2514 H   0  0  0  0  0  0  0  0  0  0  0  0
   -2.2716    1.8044    0.2977 C   0  0  0  0  0  0  0  0  0  0  0  0
   -1.7474    2.5885   -0.7494 C   0  0  0  0  0  0  0  0  0  0  0  0
   -0.6942    2.5334   -0.9920 H   0  0  0  0  0  0  0  0  0  0  0  0
   -2.5937    3.4400   -1.4861 C   0  0  0  0  0  0  0  0  0  0  0  0
   -2.1885    4.0401   -2.2863 H   0  0  0  0  0  0  0  0  0  0  0  0
   -3.9697    3.5043   -1.1765 C   0  0  0  0  0  0  0  0  0  0  0  0
   -4.7947    4.3201   -1.8829 O   0  0  0  0  0  0  0  0  0  0  0  0
   -4.3144    4.8692   -2.5040 H   0  0  0  0  0  0  0  0  0  0  0  0
   -4.4935    2.7153   -0.1315 C   0  0  0  0  0  0  0  0  0  0  0  0
   -5.5465    2.7765    0.0986 H   0  0  0  0  0  0  0  0  0  0  0  0
   -3.6442    1.8686    0.6060 C   0  0  0  0  0  0  0  0  0  0  0  0
   -4.0456    1.2697    1.4148 H   0  0  0  0  0  0  0  0  0  0  0  0
   -0.0227   -1.3055    1.0387 C   0  0  0  0  0  0  0  0  0  0  0  0
    0.8742   -1.8191    0.3693 O   0  0  0  0  0  0  0  0  0  0  0  0
   -0.0856   -1.4300    2.3705 N   0  0  0  0  0  0  0  0  0  0  0  0
   -0.8847   -1.0285    2.8391 H   0  0  0  0  0  0  0  0  0  0  0  0
    0.8812   -2.1726    3.1758 C   0  0  0  0  0  0  0  0  0  0  0  0
    1.8947   -1.8554    2.9241 H   0  0  0  0  0  0  0  0  0  0  0  0
    0.7020   -1.9944    4.2373 H   0  0  0  0  0  0  0  0  0  0  0  0
    0.7882   -3.2408    2.9688 H   0  0  0  0  0  0  0  0  0  0  0  0
  5  6  2  0  0  0  0
  5  7  1  0  0  0  0
  2  3  1  0  0  0  0
  2  4  1  0  0  0  0
  2  5  1  0  0  0  0
  1  2  1  0  0  0  0
 26 27  2  0  0  0  0
 26 28  1  0  0  0  0
 24 25  1  0  0  0  0
 22 23  1  0  0  0  0
 22 24  2  0  0  0  0
 20 21  1  0  0  0  0
 19 20  1  0  0  0  0
 19 22  1  0  0  0  0
 17 18  1  0  0  0  0
 17 19  2  0  0  0  0
 15 16  1  0  0  0  0
 15 17  1  0  0  0  0
 14 15  2  0  0  0  0
 14 24  1  0  0  0  0
 11 12  1  0  0  0  0
 11 13  1  0  0  0  0
 11 14  1  0  0  0  0
  9 10  1  0  0  0  0
  9 11  1  0  0  0  0
  9 26  1  0  0  0  0
  7  8  1  0  0  0  0
  7  9  1  0  0  0  0
 30 31  1  0  0  0  0
 30 32  1  0  0  0  0
 30 33  1  0  0  0  0
 28 29  1  0  0  0  0
 28 30  1  0  0  0  0
M  END
$$$$
default_name
  -OEChem-01062215323D

 33 33  0     1  0  0  0  0  0999 V2000
   -4.0702   -3.8485    1.4554 H   0  0  0  0  0  0  0  0  0  0  0  0
   -4.0012   -2.9605    0.8284 C   0  0  0  0  0  0  0  0  0  0  0  0
   -4.7652   -2.2435    1.1234 H   0  0  0  0  0  0  0  0  0  0  0  0
   -4.1352   -3.2385   -0.2156 H   0  0  0  0  0  0  0  0  0  0  0  0
   -2.6362   -2.3395    1.0094 C   0  0  0  0  0  0  0  0  0  0  0  0
   -1.8292   -2.8395    1.7814 O   0  0  0  0  0  0  0  0  0  0  0  0
   -2.3832   -1.2445    0.2964 N   0  0  0  0  0  0  0  0  0  0  0  0
   -3.1102   -0.8685   -0.2946 H   0  0  0  0  0  0  0  0  0  0  0  0
   -1.1292   -0.4875    0.3524 C   0  0  1  0  0  0  0  0  0  0  0  0
   -0.8041   -0.2790   -0.6676 H   0  0  0  0  0  0  0  0  0  0  0  0
   -1.3737    0.8536    1.0656 C   0  0  0  0  0  0  0  0  0  0  0  0
   -1.8351    0.6606    2.0349 H   0  0  0  0  0  0  0  0  0  0  0  0
   -0.4123    1.3354    1.2514 H   0  0  0  0  0  0  0  0  0  0  0  0
   -2.2716    1.8044    0.2977 C   0  0  0  0  0  0  0  0  0  0  0  0
   -1.7474    2.5885   -0.7494 C   0  0  0  0  0  0  0  0  0  0  0  0
   -0.6942    2.5334   -0.9920 H   0  0  0  0  0  0  0  0  0  0  0  0
   -2.5937    3.4400   -1.4861 C   0  0  0  0  0  0  0  0  0  0  0  0
   -2.1885    4.0401   -2.2863 H   0  0  0  0  0  0  0  0  0  0  0  0
   -3.9697    3.5043   -1.1765 C   0  0  0  0  0  0  0  0  0  0  0  0
   -4.7947    4.3201   -1.8829 O   0  0  0  0  0  0  0  0  0  0  0  0
   -4.3144    4.8692   -2.5040 H   0  0  0  0  0  0  0  0  0  0  0  0
   -4.4935    2.7153   -0.1315 C   0  0  0  0  0  0  0  0  0  0  0  0
   -5.5465    2.7765    0.0986 H   0  0  0  0  0  0  0  0  0  0  0  0
   -3.6442    1.8686    0.6060 C   0  0  0  0  0  0  0  0  0  0  0  0
   -4.0456    1.2697    1.4148 H   0  0  0  0  0  0  0  0  0  0  0  0
   -0.0227   -1.3055    1.0387 C   0  0  0  0  0  0  0  0  0  0  0  0
    1.0103   -1.5845    0.4293 O   0  0  0  0  0  0  0  0  0  0  0  0
   -0.2373   -1.6922    2.3026 N   0  0  0  0  0  0  0  0  0  0  0  0
   -1.1344   -1.4735    2.7112 H   0  0  0  0  0  0  0  0  0  0  0  0
    0.7070   -2.4741    3.0973 C   0  0  0  0  0  0  0  0  0  0  0  0
    1.6949   -2.0119    3.0596 H   0  0  0  0  0  0  0  0  0  0  0  0
    0.3732   -2.5249    4.1350 H   0  0  0  0  0  0  0  0  0  0  0  0
    0.7790   -3.4855    2.6919 H   0  0  0  0  0  0  0  0  0  0  0  0
  5  6  2  0  0  0  0
  5  7  1  0  0  0  0
  2  3  1  0  0  0  0
  2  4  1  0  0  0  0
  2  5  1  0  0  0  0
  1  2  1  0  0  0  0
 26 27  2  0  0  0  0
 26 28  1  0  0  0  0
 24 25  1  0  0  0  0
 22 23  1  0  0  0  0
 22 24  2  0  0  0  0
 20 21  1  0  0  0  0
 19 20  1  0  0  0  0
 19 22  1  0  0  0  0
 17 18  1  0  0  0  0
 17 19  2  0  0  0  0
 15 16  1  0  0  0  0
 15 17  1  0  0  0  0
 14 15  2  0  0  0  0
 14 24  1  0  0  0  0
 11 12  1  0  0  0  0
 11 13  1  0  0  0  0
 11 14  1  0  0  0  0
  9 10  1  0  0  0  0
  9 11  1  0  0  0  0
  9 26  1  0  0  0  0
  7  8  1  0  0  0  0
  7  9  1  0  0  0  0
 30 31  1  0  0  0  0
 30 32  1  0  0  0  0
 30 33  1  0  0  0  0
 28 29  1  0  0  0  0
 28 30  1  0  0  0  0
M  END
$$$$
default_name
  -OEChem-01062215323D

 33 33  0     1  0  0  0  0  0999 V2000
   -4.0702   -3.8485    1.4554 H   0  0  0  0  0  0  0  0  0  0  0  0
   -4.0012   -2.9605    0.8284 C   0  0  0  0  0  0  0  0  0  0  0  0
   -4.7652   -2.2435    1.1234 H   0  0  0  0  0  0  0  0  0  0  0  0
   -4.1352   -3.2385   -0.2156 H   0  0  0  0  0  0  0  0  0  0  0  0
   -2.6362   -2.3395    1.0094 C   0  0  0  0  0  0  0  0  0  0  0  0
   -1.8292   -2.8395    1.7814 O   0  0  0  0  0  0  0  0  0  0  0  0
   -2.3832   -1.2445    0.2964 N   0  0  0  0  0  0  0  0  0  0  0  0
   -3.1102   -0.8685   -0.2946 H   0  0  0  0  0  0  0  0  0  0  0  0
   -1.1292   -0.4875    0.3524 C   0  0  1  0  0  0  0  0  0  0  0  0
   -0.8041   -0.2790   -0.6676 H   0  0  0  0  0  0  0  0  0  0  0  0
   -1.3737    0.8536    1.0656 C   0  0  0  0  0  0  0  0  0  0  0  0
   -1.8351    0.6606    2.0349 H   0  0  0  0  0  0  0  0  0  0  0  0
   -0.4123    1.3354    1.2514 H   0  0  0  0  0  0  0  0  0  0  0  0
   -2.2716    1.8044    0.2977 C   0  0  0  0  0  0  0  0  0  0  0  0
   -1.7474    2.5885   -0.7494 C   0  0  0  0  0  0  0  0  0  0  0  0
   -0.6942    2.5334   -0.9920 H   0  0  0  0  0  0  0  0  0  0  0  0
   -2.5937    3.4400   -1.4861 C   0  0  0  0  0  0  0  0  0  0  0  0
   -2.1885    4.0401   -2.2863 H   0  0  0  0  0  0  0  0  0  0  0  0
   -3.9697    3.5043   -1.1765 C   0  0  0  0  0  0  0  0  0  0  0  0
   -4.7947    4.3201   -1.8829 O   0  0  0  0  0  0  0  0  0  0  0  0
   -4.3144    4.8692   -2.5040 H   0  0  0  0  0  0  0  0  0  0  0  0
   -4.4935    2.7153   -0.1315 C   0  0  0  0  0  0  0  0  0  0  0  0
   -5.5465    2.7765    0.0986 H   0  0  0  0  0  0  0  0  0  0  0  0
   -3.6442    1.8686    0.6060 C   0  0  0  0  0  0  0  0  0  0  0  0
   -4.0456    1.2697    1.4148 H   0  0  0  0  0  0  0  0  0  0  0  0
   -0.0227   -1.3055    1.0387 C   0  0  0  0  0  0  0  0  0  0  0  0
    1.1064   -1.3535    0.5498 O   0  0  0  0  0  0  0  0  0  0  0  0
   -0.3443   -1.9504    2.1673 N   0  0  0  0  0  0  0  0  0  0  0  0
   -1.3065   -1.9084    2.4704 H   0  0  0  0  0  0  0  0  0  0  0  0
    0.5843   -2.7709    2.9414 C   0  0  0  0  0  0  0  0  0  0  0  0
    1.5014   -2.2114    3.1339 H   0  0  0  0  0  0  0  0  0  0  0  0
    0.1310   -3.0562    3.8921 H   0  0  0  0  0  0  0  0  0  0  0  0
    0.8366   -3.6714    2.3776 H   0  0  0  0  0  0  0  0  0  0  0  0
  5  6  2  0  0  0  0
  5  7  1  0  0  0  0
  2  3  1  0  0  0  0
  2  4  1  0  0  0  0
  2  5  1  0  0  0  0
  1  2  1  0  0  0  0
 26 27  2  0  0  0  0
 26 28  1  0  0  0  0
 24 25  1  0  0  0  0
 22 23  1  0  0  0  0
 22 24  2  0  0  0  0
 20 21  1  0  0  0  0
 19 20  1  0  0  0  0
 19 22  1  0  0  0  0
 17 18  1  0  0  0  0
 17 19  2  0  0  0  0
 15 16  1  0  0  0  0
 15 17  1  0  0  0  0
 14 15  2  0  0  0  0
 14 24  1  0  0  0  0
 11 12  1  0  0  0  0
 11 13  1  0  0  0  0
 11 14  1  0  0  0  0
  9 10  1  0  0  0  0
  9 11  1  0  0  0  0
  9 26  1  0  0  0  0
  7  8  1  0  0  0  0
  7  9  1  0  0  0  0
 30 31  1  0  0  0  0
 30 32  1  0  0  0  0
 30 33  1  0  0  0  0
 28 29  1  0  0  0  0
 28 30  1  0  0  0  0
M  END
$$$$
default_name
  -OEChem-01062215323D

 33 33  0     1  0  0  0  0  0999 V2000
   -4.0702   -3.8485    1.4554 H   0  0  0  0  0  0  0  0  0  0  0  0
   -4.0012   -2.9605    0.8284 C   0  0  0  0  0  0  0  0  0  0  0  0
   -4.7652   -2.2435    1.1234 H   0  0  0  0  0  0  0  0  0  0  0  0
   -4.1352   -3.2385   -0.2156 H   0  0  0  0  0  0  0  0  0  0  0  0
   -2.6362   -2.3395    1.0094 C   0  0  0  0  0  0  0  0  0  0  0  0
   -1.8292   -2.8395    1.7814 O   0  0  0  0  0  0  0  0  0  0  0  0
   -2.3832   -1.2445    0.2964 N   0  0  0  0  0  0  0  0  0  0  0  0
   -3.1102   -0.8685   -0.2946 H   0  0  0  0  0  0  0  0  0  0  0  0
   -1.1292   -0.4875    0.3524 C   0  0  1  0  0  0  0  0  0  0  0  0
   -0.8041   -0.2790   -0.6676 H   0  0  0  0  0  0  0  0  0  0  0  0
   -1.3737    0.8536    1.0656 C   0  0  0  0  0  0  0  0  0  0  0  0
   -1.8351    0.6606    2.0349 H   0  0  0  0  0  0  0  0  0  0  0  0
   -0.4123    1.3354    1.2514 H   0  0  0  0  0  0  0  0  0  0  0  0
   -2.2716    1.8044    0.2977 C   0  0  0  0  0  0  0  0  0  0  0  0
   -1.7474    2.5885   -0.7494 C   0  0  0  0  0  0  0  0  0  0  0  0
   -0.6942    2.5334   -0.9920 H   0  0  0  0  0  0  0  0  0  0  0  0
   -2.5937    3.4400   -1.4861 C   0  0  0  0  0  0  0  0  0  0  0  0
   -2.1885    4.0401   -2.2863 H   0  0  0  0  0  0  0  0  0  0  0  0
   -3.9697    3.5043   -1.1765 C   0  0  0  0  0  0  0  0  0  0  0  0
   -4.7947    4.3201   -1.8829 O   0  0  0  0  0  0  0  0  0  0  0  0
   -4.3144    4.8692   -2.5040 H   0  0  0  0  0  0  0  0  0  0  0  0
   -4.4935    2.7153   -0.1315 C   0  0  0  0  0  0  0  0  0  0  0  0
   -5.5465    2.7765    0.0986 H   0  0  0  0  0  0  0  0  0  0  0  0
   -3.6442    1.8686    0.6060 C   0  0  0  0  0  0  0  0  0  0  0  0
   -4.0456    1.2697    1.4148 H   0  0  0  0  0  0  0  0  0  0  0  0
   -0.0227   -1.3055    1.0387 C   0  0  0  0  0  0  0  0  0  0  0  0
    1.1560   -1.1416    0.7224 O   0  0  0  0  0  0  0  0  0  0  0  0
   -0.3992   -2.1869    1.9738 N   0  0  0  0  0  0  0  0  0  0  0  0
   -1.3894   -2.3034    2.1331 H   0  0  0  0  0  0  0  0  0  0  0  0
    0.5215   -3.0427    2.7187 C   0  0  0  0  0  0  0  0  0  0  0  0
    1.3272   -2.4403    3.1419 H   0  0  0  0  0  0  0  0  0  0  0  0
   -0.0081   -3.5523    3.5252 H   0  0  0  0  0  0  0  0  0  0  0  0
    0.9569   -3.7857    2.0473 H   0  0  0  0  0  0  0  0  0  0  0  0
  5  6  2  0  0  0  0
  5  7  1  0  0  0  0
  2  3  1  0  0  0  0
  2  4  1  0  0  0  0
  2  5  1  0  0  0  0
  1  2  1  0  0  0  0
 26 27  2  0  0  0  0
 26 28  1  0  0  0  0
 24 25  1  0  0  0  0
 22 23  1  0  0  0  0
 22 24  2  0  0  0  0
 20 21  1  0  0  0  0
 19 20  1  0  0  0  0
 19 22  1  0  0  0  0
 17 18  1  0  0  0  0
 17 19  2  0  0  0  0
 15 16  1  0  0  0  0
 15 17  1  0  0  0  0
 14 15  2  0  0  0  0
 14 24  1  0  0  0  0
 11 12  1  0  0  0  0
 11 13  1  0  0  0  0
 11 14  1  0  0  0  0
  9 10  1  0  0  0  0
  9 11  1  0  0  0  0
  9 26  1  0  0  0  0
  7  8  1  0  0  0  0
  7  9  1  0  0  0  0
 30 31  1  0  0  0  0
 30 32  1  0  0  0  0
 30 33  1  0  0  0  0
 28 29  1  0  0  0  0
 28 30  1  0  0  0  0
M  END
$$$$
default_name
  -OEChem-01062215323D

 33 33  0     1  0  0  0  0  0999 V2000
   -4.0702   -3.8485    1.4554 H   0  0  0  0  0  0  0  0  0  0  0  0
   -4.0012   -2.9605    0.8284 C   0  0  0  0  0  0  0  0  0  0  0  0
   -4.7652   -2.2435    1.1234 H   0  0  0  0  0  0  0  0  0  0  0  0
   -4.1352   -3.2385   -0.2156 H   0  0  0  0  0  0  0  0  0  0  0  0
   -2.6362   -2.3395    1.0094 C   0  0  0  0  0  0  0  0  0  0  0  0
   -1.8292   -2.8395    1.7814 O   0  0  0  0  0  0  0  0  0  0  0  0
   -2.3832   -1.2445    0.2964 N   0  0  0  0  0  0  0  0  0  0  0  0
   -3.1102   -0.8685   -0.2946 H   0  0  0  0  0  0  0  0  0  0  0  0
   -1.1292   -0.4875    0.3524 C   0  0  1  0  0  0  0  0  0  0  0  0
   -0.8041   -0.2790   -0.6676 H   0  0  0  0  0  0  0  0  0  0  0  0
   -1.3737    0.8536    1.0656 C   0  0  0  0  0  0  0  0  0  0  0  0
   -1.8351    0.6606    2.0349 H   0  0  0  0  0  0  0  0  0  0  0  0
   -0.4123    1.3354    1.2514 H   0  0  0  0  0  0  0  0  0  0  0  0
   -2.2716    1.8044    0.2977 C   0  0  0  0  0  0  0  0  0  0  0  0
   -1.7474    2.5885   -0.7494 C   0  0  0  0  0  0  0  0  0  0  0  0
   -0.6942    2.5334   -0.9920 H   0  0  0  0  0  0  0  0  0  0  0  0
   -2.5937    3.4400   -1.4861 C   0  0  0  0  0  0  0  0  0  0  0  0
   -2.1885    4.0401   -2.2863 H   0  0  0  0  0  0  0  0  0  0  0  0
   -3.9697    3.5043   -1.1765 C   0  0  0  0  0  0  0  0  0  0  0  0
   -4.7947    4.3201   -1.8829 O   0  0  0  0  0  0  0  0  0  0  0  0
   -4.3144    4.8692   -2.5040 H   0  0  0  0  0  0  0  0  0  0  0  0
   -4.4935    2.7153   -0.1315 C   0  0  0  0  0  0  0  0  0  0  0  0
   -5.5465    2.7765    0.0986 H   0  0  0  0  0  0  0  0  0  0  0  0
   -3.6442    1.8686    0.6060 C   0  0  0  0  0  0  0  0  0  0  0  0
   -4.0456    1.2697    1.4148 H   0  0  0  0  0  0  0  0  0  0  0  0
   -0.0227   -1.3055    1.0387 C   0  0  0  0  0  0  0  0  0  0  0  0
    1.1556   -0.9634    0.9355 O   0  0  0  0  0  0  0  0  0  0  0  0
   -0.3982   -2.3857    1.7353 N   0  0  0  0  0  0  0  0  0  0  0  0
   -1.3774   -2.6318    1.7224 H   0  0  0  0  0  0  0  0  0  0  0  0
    0.5230   -3.2709    2.4442 C   0  0  0  0  0  0  0  0  0  0  0  0
    1.1843   -2.6830    3.0830 H   0  0  0  0  0  0  0  0  0  0  0  0
   -0.0347   -3.9791    3.0593 H   0  0  0  0  0  0  0  0  0  0  0  0
    1.1318   -3.8208    1.7235 H   0  0  0  0  0  0  0  0  0  0  0  0
  5  6  2  0  0  0  0
  5  7  1  0  0  0  0
  2  3  1  0  0  0  0
  2  4  1  0  0  0  0
  2  5  1  0  0  0  0
  1  2  1  0  0  0  0
 26 27  2  0  0  0  0
 26 28  1  0  0  0  0
 24 25  1  0  0  0  0
 22 23  1  0  0  0  0
 22 24  2  0  0  0  0
 20 21  1  0  0  0  0
 19 20  1  0  0  0  0
 19 22  1  0  0  0  0
 17 18  1  0  0  0  0
 17 19  2  0  0  0  0
 15 16  1  0  0  0  0
 15 17  1  0  0  0  0
 14 15  2  0  0  0  0
 14 24  1  0  0  0  0
 11 12  1  0  0  0  0
 11 13  1  0  0  0  0
 11 14  1  0  0  0  0
  9 10  1  0  0  0  0
  9 11  1  0  0  0  0
  9 26  1  0  0  0  0
  7  8  1  0  0  0  0
  7  9  1  0  0  0  0
 30 31  1  0  0  0  0
 30 32  1  0  0  0  0
 30 33  1  0  0  0  0
 28 29  1  0  0  0  0
 28 30  1  0  0  0  0
M  END
$$$$
default_name
  -OEChem-01062215323D

 33 33  0     1  0  0  0  0  0999 V2000
   -4.0702   -3.8485    1.4554 H   0  0  0  0  0  0  0  0  0  0  0  0
   -4.0012   -2.9605    0.8284 C   0  0  0  0  0  0  0  0  0  0  0  0
   -4.7652   -2.2435    1.1234 H   0  0  0  0  0  0  0  0  0  0  0  0
   -4.1352   -3.2385   -0.2156 H   0  0  0  0  0  0  0  0  0  0  0  0
   -2.6362   -2.3395    1.0094 C   0  0  0  0  0  0  0  0  0  0  0  0
   -1.8292   -2.8395    1.7814 O   0  0  0  0  0  0  0  0  0  0  0  0
   -2.3832   -1.2445    0.2964 N   0  0  0  0  0  0  0  0  0  0  0  0
   -3.1102   -0.8685   -0.2946 H   0  0  0  0  0  0  0  0  0  0  0  0
   -1.1292   -0.4875    0.3524 C   0  0  1  0  0  0  0  0  0  0  0  0
   -0.8041   -0.2790   -0.6676 H   0  0  0  0  0  0  0  0  0  0  0  0
   -1.3737    0.8536    1.0656 C   0  0  0  0  0  0  0  0  0  0  0  0
   -1.8351    0.6606    2.0349 H   0  0  0  0  0  0  0  0  0  0  0  0
   -0.4123    1.3354    1.2514 H   0  0  0  0  0  0  0  0  0  0  0  0
   -2.2716    1.8044    0.2977 C   0  0  0  0  0  0  0  0  0  0  0  0
   -1.7474    2.5885   -0.7494 C   0  0  0  0  0  0  0  0  0  0  0  0
   -0.6942    2.5334   -0.9920 H   0  0  0  0  0  0  0  0  0  0  0  0
   -2.5937    3.4400   -1.4861 C   0  0  0  0  0  0  0  0  0  0  0  0
   -2.1885    4.0401   -2.2863 H   0  0  0  0  0  0  0  0  0  0  0  0
   -3.9697    3.5043   -1.1765 C   0  0  0  0  0  0  0  0  0  0  0  0
   -4.7947    4.3201   -1.8829 O   0  0  0  0  0  0  0  0  0  0  0  0
   -4.3144    4.8692   -2.5040 H   0  0  0  0  0  0  0  0  0  0  0  0
   -4.4935    2.7153   -0.1315 C   0  0  0  0  0  0  0  0  0  0  0  0
   -5.5465    2.7765    0.0986 H   0  0  0  0  0  0  0  0  0  0  0  0
   -3.6442    1.8686    0.6060 C   0  0  0  0  0  0  0  0  0  0  0  0
   -4.0456    1.2697    1.4148 H   0  0  0  0  0  0  0  0  0  0  0  0
   -0.0227   -1.3055    1.0387 C   0  0  0  0  0  0  0  0  0  0  0  0
    1.1054   -0.8309    1.1744 O   0  0  0  0  0  0  0  0  0  0  0  0
   -0.3415   -2.5332    1.4681 N   0  0  0  0  0  0  0  0  0  0  0  0
   -1.2713   -2.8710    1.2661 H   0  0  0  0  0  0  0  0  0  0  0  0
    0.5885   -3.4402    2.1368 C   0  0  0  0  0  0  0  0  0  0  0  0
    1.0824   -2.9229    2.9612 H   0  0  0  0  0  0  0  0  0  0  0  0
    0.0531   -4.3077    2.5260 H   0  0  0  0  0  0  0  0  0  0  0  0
    1.3493   -3.7741    1.4283 H   0  0  0  0  0  0  0  0  0  0  0  0
  5  6  2  0  0  0  0
  5  7  1  0  0  0  0
  2  3  1  0  0  0  0
  2  4  1  0  0  0  0
  2  5  1  0  0  0  0
  1  2  1  0  0  0  0
 26 27  2  0  0  0  0
 26 28  1  0  0  0  0
 24 25  1  0  0  0  0
 22 23  1  0  0  0  0
 22 24  2  0  0  0  0
 20 21  1  0  0  0  0
 19 20  1  0  0  0  0
 19 22  1  0  0  0  0
 17 18  1  0  0  0  0
 17 19  2  0  0  0  0
 15 16  1  0  0  0  0
 15 17  1  0  0  0  0
 14 15  2  0  0  0  0
 14 24  1  0  0  0  0
 11 12  1  0  0  0  0
 11 13  1  0  0  0  0
 11 14  1  0  0  0  0
  9 10  1  0  0  0  0
  9 11  1  0  0  0  0
  9 26  1  0  0  0  0
  7  8  1  0  0  0  0
  7  9  1  0  0  0  0
 30 31  1  0  0  0  0
 30 32  1  0  0  0  0
 30 33  1  0  0  0  0
 28 29  1  0  0  0  0
 28 30  1  0  0  0  0
M  END
$$$$
default_name
  -OEChem-01062215323D

 33 33  0     1  0  0  0  0  0999 V2000
   -4.0702   -3.8485    1.4554 H   0  0  0  0  0  0  0  0  0  0  0  0
   -4.0012   -2.9605    0.8284 C   0  0  0  0  0  0  0  0  0  0  0  0
   -4.7652   -2.2435    1.1234 H   0  0  0  0  0  0  0  0  0  0  0  0
   -4.1352   -3.2385   -0.2156 H   0  0  0  0  0  0  0  0  0  0  0  0
   -2.6362   -2.3395    1.0094 C   0  0  0  0  0  0  0  0  0  0  0  0
   -1.8292   -2.8395    1.7814 O   0  0  0  0  0  0  0  0  0  0  0  0
   -2.3832   -1.2445    0.2964 N   0  0  0  0  0  0  0  0  0  0  0  0
   -3.1102   -0.8685   -0.2946 H   0  0  0  0  0  0  0  0  0  0  0  0
   -1.1292   -0.4875    0.3524 C   0  0  1  0  0  0  0  0  0  0  0  0
   -0.8041   -0.2790   -0.6676 H   0  0  0  0  0  0  0  0  0  0  0  0
   -1.3737    0.8536    1.0656 C   0  0  0  0  0  0  0  0  0  0  0  0
   -1.8351    0.6606    2.0349 H   0  0  0  0  0  0  0  0  0  0  0  0
   -0.4123    1.3354    1.2514 H   0  0  0  0  0  0  0  0  0  0  0  0
   -2.2716    1.8044    0.2977 C   0  0  0  0  0  0  0  0  0  0  0  0
   -1.7474    2.5885   -0.7494 C   0  0  0  0  0  0  0  0  0  0  0  0
   -0.6942    2.5334   -0.9920 H   0  0  0  0  0  0  0  0  0  0  0  0
   -2.5937    3.4400   -1.4861 C   0  0  0  0  0  0  0  0  0  0  0  0
   -2.1885    4.0401   -2.2863 H   0  0  0  0  0  0  0  0  0  0  0  0
   -3.9697    3.5043   -1.1765 C   0  0  0  0  0  0  0  0  0  0  0  0
   -4.7947    4.3201   -1.8829 O   0  0  0  0  0  0  0  0  0  0  0  0
   -4.3144    4.8692   -2.5040 H   0  0  0  0  0  0  0  0  0  0  0  0
   -4.4935    2.7153   -0.1315 C   0  0  0  0  0  0  0  0  0  0  0  0
   -5.5465    2.7765    0.0986 H   0  0  0  0  0  0  0  0  0  0  0  0
   -3.6442    1.8686    0.6060 C   0  0  0  0  0  0  0  0  0  0  0  0
   -4.0456    1.2697    1.4148 H   0  0  0  0  0  0  0  0  0  0  0  0
   -0.0227   -1.3055    1.0387 C   0  0  0  0  0  0  0  0  0  0  0  0
    1.0086   -0.7533    1.4229 O   0  0  0  0  0  0  0  0  0  0  0  0
   -0.2328   -2.6193    1.1903 N   0  0  0  0  0  0  0  0  0  0  0  0
   -1.0783   -3.0049    0.7954 H   0  0  0  0  0  0  0  0  0  0  0  0
    0.7137   -3.5388    1.8174 C   0  0  0  0  0  0  0  0  0  0  0  0
    1.0285   -3.1438    2.7849 H   0  0  0  0  0  0  0  0  0  0  0  0
    0.2492   -4.5156    1.9619 H   0  0  0  0  0  0  0  0  0  0  0  0
    1.5948   -3.6489    1.1818 H   0  0  0  0  0  0  0  0  0  0  0  0
  5  6  2  0  0  0  0
  5  7  1  0  0  0  0
  2  3  1  0  0  0  0
  2  4  1  0  0  0  0
  2  5  1  0  0  0  0
  1  2  1  0  0  0  0
 26 27  2  0  0  0  0
 26 28  1  0  0  0  0
 24 25  1  0  0  0  0
 22 23  1  0  0  0  0
 22 24  2  0  0  0  0
 20 21  1  0  0  0  0
 19 20  1  0  0  0  0
 19 22  1  0  0  0  0
 17 18  1  0  0  0  0
 17 19  2  0  0  0  0
 15 16  1  0  0  0  0
 15 17  1  0  0  0  0
 14 15  2  0  0  0  0
 14 24  1  0  0  0  0
 11 12  1  0  0  0  0
 11 13  1  0  0  0  0
 11 14  1  0  0  0  0
  9 10  1  0  0  0  0
  9 11  1  0  0  0  0
  9 26  1  0  0  0  0
  7  8  1  0  0  0  0
  7  9  1  0  0  0  0
 30 31  1  0  0  0  0
 30 32  1  0  0  0  0
 30 33  1  0  0  0  0
 28 29  1  0  0  0  0
 28 30  1  0  0  0  0
M  END
$$$$
default_name
  -OEChem-01062215323D

 33 33  0     1  0  0  0  0  0999 V2000
   -4.0702   -3.8485    1.4554 H   0  0  0  0  0  0  0  0  0  0  0  0
   -4.0012   -2.9605    0.8284 C   0  0  0  0  0  0  0  0  0  0  0  0
   -4.7652   -2.2435    1.1234 H   0  0  0  0  0  0  0  0  0  0  0  0
   -4.1352   -3.2385   -0.2156 H   0  0  0  0  0  0  0  0  0  0  0  0
   -2.6362   -2.3395    1.0094 C   0  0  0  0  0  0  0  0  0  0  0  0
   -1.8292   -2.8395    1.7814 O   0  0  0  0  0  0  0  0  0  0  0  0
   -2.3832   -1.2445    0.2964 N   0  0  0  0  0  0  0  0  0  0  0  0
   -3.1102   -0.8685   -0.2946 H   0  0  0  0  0  0  0  0  0  0  0  0
   -1.1292   -0.4875    0.3524 C   0  0  1  0  0  0  0  0  0  0  0  0
   -0.8041   -0.2790   -0.6676 H   0  0  0  0  0  0  0  0  0  0  0  0
   -1.3737    0.8536    1.0656 C   0  0  0  0  0  0  0  0  0  0  0  0
   -1.8351    0.6606    2.0349 H   0  0  0  0  0  0  0  0  0  0  0  0
   -0.4123    1.3354    1.2514 H   0  0  0  0  0  0  0  0  0  0  0  0
   -2.2716    1.8044    0.2977 C   0  0  0  0  0  0  0  0  0  0  0  0
   -1.7474    2.5885   -0.7494 C   0  0  0  0  0  0  0  0  0  0  0  0
   -0.6942    2.5334   -0.9920 H   0  0  0  0  0  0  0  0  0  0  0  0
   -2.5937    3.4400   -1.4861 C   0  0  0  0  0  0  0  0  0  0  0  0
   -2.1885    4.0401   -2.2863 H   0  0  0  0  0  0  0  0  0  0  0  0
   -3.9697    3.5043   -1.1765 C   0  0  0  0  0  0  0  0  0  0  0  0
   -4.7947    4.3201   -1.8829 O   0  0  0  0  0  0  0  0  0  0  0  0
   -4.3144    4.8692   -2.5040 H   0  0  0  0  0  0  0  0  0  0  0  0
   -4.4935    2.7153   -0.1315 C   0  0  0  0  0  0  0  0  0  0  0  0
   -5.5465    2.7765    0.0986 H   0  0  0  0  0  0  0  0  0  0  0  0
   -3.6442    1.8686    0.6060 C   0  0  0  0  0  0  0  0  0  0  0  0
   -4.0456    1.2697    1.4148 H   0  0  0  0  0  0  0  0  0  0  0  0
   -0.0227   -1.3055    1.0387 C   0  0  0  0  0  0  0  0  0  0  0  0
    0.8720   -0.7358    1.6641 O   0  0  0  0  0  0  0  0  0  0  0  0
   -0.0797   -2.6382    0.9209 N   0  0  0  0  0  0  0  0  0  0  0  0
   -0.8117   -3.0243    0.3424 H   0  0  0  0  0  0  0  0  0  0  0  0
    0.8900   -3.5601    1.5078 C   0  0  0  0  0  0  0  0  0  0  0  0
    1.0263   -3.3305    2.5660 H   0  0  0  0  0  0  0  0  0  0  0  0
    0.5404   -4.5887    1.4052 H   0  0  0  0  0  0  0  0  0  0  0  0
    1.8513   -3.4538    1.0008 H   0  0  0  0  0  0  0  0  0  0  0  0
  5  6  2  0  0  0  0
  5  7  1  0  0  0  0
  2  3  1  0  0  0  0
  2  4  1  0  0  0  0
  2  5  1  0  0  0  0
  1  2  1  0  0  0  0
 26 27  2  0  0  0  0
 26 28  1  0  0  0  0
 24 25  1  0  0  0  0
 22 23  1  0  0  0  0
 22 24  2  0  0  0  0
 20 21  1  0  0  0  0
 19 20  1  0  0  0  0
 19 22  1  0  0  0  0
 17 18  1  0  0  0  0
 17 19  2  0  0  0  0
 15 16  1  0  0  0  0
 15 17  1  0  0  0  0
 14 15  2  0  0  0  0
 14 24  1  0  0  0  0
 11 12  1  0  0  0  0
 11 13  1  0  0  0  0
 11 14  1  0  0  0  0
  9 10  1  0  0  0  0
  9 11  1  0  0  0  0
  9 26  1  0  0  0  0
  7  8  1  0  0  0  0
  7  9  1  0  0  0  0
 30 31  1  0  0  0  0
 30 32  1  0  0  0  0
 30 33  1  0  0  0  0
 28 29  1  0  0  0  0
 28 30  1  0  0  0  0
M  END
$$$$
default_name
  -OEChem-01062215323D

 33 33  0     1  0  0  0  0  0999 V2000
   -4.0702   -3.8485    1.4554 H   0  0  0  0  0  0  0  0  0  0  0  0
   -4.0012   -2.9605    0.8284 C   0  0  0  0  0  0  0  0  0  0  0  0
   -4.7652   -2.2435    1.1234 H   0  0  0  0  0  0  0  0  0  0  0  0
   -4.1352   -3.2385   -0.2156 H   0  0  0  0  0  0  0  0  0  0  0  0
   -2.6362   -2.3395    1.0094 C   0  0  0  0  0  0  0  0  0  0  0  0
   -1.8292   -2.8395    1.7814 O   0  0  0  0  0  0  0  0  0  0  0  0
   -2.3832   -1.2445    0.2964 N   0  0  0  0  0  0  0  0  0  0  0  0
   -3.1102   -0.8685   -0.2946 H   0  0  0  0  0  0  0  0  0  0  0  0
   -1.1292   -0.4875    0.3524 C   0  0  1  0  0  0  0  0  0  0  0  0
   -0.8041   -0.2790   -0.6676 H   0  0  0  0  0  0  0  0  0  0  0  0
   -1.3737    0.8536    1.0656 C   0  0  0  0  0  0  0  0  0  0  0  0
   -1.8351    0.6606    2.0349 H   0  0  0  0  0  0  0  0  0  0  0  0
   -0.4123    1.3354    1.2514 H   0  0  0  0  0  0  0  0  0  0  0  0
   -2.2716    1.8044    0.2977 C   0  0  0  0  0  0  0  0  0  0  0  0
   -1.7474    2.5885   -0.7494 C   0  0  0  0  0  0  0  0  0  0  0  0
   -0.6942    2.5334   -0.9920 H   0  0  0  0  0  0  0  0  0  0  0  0
   -2.5937    3.4400   -1.4861 C   0  0  0  0  0  0  0  0  0  0  0  0
   -2.1885    4.0401   -2.2863 H   0  0  0  0  0  0  0  0  0  0  0  0
   -3.9697    3.5043   -1.1765 C   0  0  0  0  0  0  0  0  0  0  0  0
   -4.7947    4.3201   -1.8829 O   0  0  0  0  0  0  0  0  0  0  0  0
   -4.3144    4.8692   -2.5040 H   0  0  0  0  0  0  0  0  0  0  0  0
   -4.4935    2.7153   -0.1315 C   0  0  0  0  0  0  0  0  0  0  0  0
   -5.5465    2.7765    0.0986 H   0  0  0  0  0  0  0  0  0  0  0  0
   -3.6442    1.8686    0.6060 C   0  0  0  0  0  0  0  0  0  0  0  0
   -4.0456    1.2697    1.4148 H   0  0  0  0  0  0  0  0  0  0  0  0
   -0.0227   -1.3055    1.0387 C   0  0  0  0  0  0  0  0  0  0  0  0
    0.7048   -0.7796    1.8815 O   0  0  0  0  0  0  0  0  0  0  0  0
    0.1075   -2.5886    0.6782 N   0  0  0  0  0  0  0  0  0  0  0  0
   -0.4895   -2.9278   -0.0621 H   0  0  0  0  0  0  0  0  0  0  0  0
    1.1054   -3.5027    1.2289 C   0  0  0  0  0  0  0  0  0  0  0  0
    1.0758   -3.4703    2.3194 H   0  0  0  0  0  0  0  0  0  0  0  0
    0.9068   -4.5221    0.8940 H   0  0  0  0  0  0  0  0  0  0  0  0
    2.1015   -3.2019    0.8977 H   0  0  0  0  0  0  0  0  0  0  0  0
  5  6  2  0  0  0  0
  5  7  1  0  0  0  0
  2  3  1  0  0  0  0
  2  4  1  0  0  0  0
  2  5  1  0  0  0  0
  1  2  1  0  0  0  0
 26 27  2  0  0  0  0
 26 28  1  0  0  0  0
 24 25  1  0  0  0  0
 22 23  1  0  0  0  0
 22 24  2  0  0  0  0
 20 21  1  0  0  0  0
 19 20  1  0  0  0  0
 19 22  1  0  0  0  0
 17 18  1  0  0  0  0
 17 19  2  0  0  0  0
 15 16  1  0  0  0  0
 15 17  1  0  0  0  0
 14 15  2  0  0  0  0
 14 24  1  0  0  0  0
 11 12  1  0  0  0  0
 11 13  1  0  0  0  0
 11 14  1  0  0  0  0
  9 10  1  0  0  0  0
  9 11  1  0  0  0  0
  9 26  1  0  0  0  0
  7  8  1  0  0  0  0
  7  9  1  0  0  0  0
 30 31  1  0  0  0  0
 30 32  1  0  0  0  0
 30 33  1  0  0  0  0
 28 29  1  0  0  0  0
 28 30  1  0  0  0  0
M  END
$$$$
default_name
  -OEChem-01062215323D

 33 33  0     1  0  0  0  0  0999 V2000
   -4.0702   -3.8485    1.4554 H   0  0  0  0  0  0  0  0  0  0  0  0
   -4.0012   -2.9605    0.8284 C   0  0  0  0  0  0  0  0  0  0  0  0
   -4.7652   -2.2435    1.1234 H   0  0  0  0  0  0  0  0  0  0  0  0
   -4.1352   -3.2385   -0.2156 H   0  0  0  0  0  0  0  0  0  0  0  0
   -2.6362   -2.3395    1.0094 C   0  0  0  0  0  0  0  0  0  0  0  0
   -1.8292   -2.8395    1.7814 O   0  0  0  0  0  0  0  0  0  0  0  0
   -2.3832   -1.2445    0.2964 N   0  0  0  0  0  0  0  0  0  0  0  0
   -3.1102   -0.8685   -0.2946 H   0  0  0  0  0  0  0  0  0  0  0  0
   -1.1292   -0.4875    0.3524 C   0  0  1  0  0  0  0  0  0  0  0  0
   -0.8041   -0.2790   -0.6676 H   0  0  0  0  0  0  0  0  0  0  0  0
   -1.3737    0.8536    1.0656 C   0  0  0  0  0  0  0  0  0  0  0  0
   -1.8351    0.6606    2.0349 H   0  0  0  0  0  0  0  0  0  0  0  0
   -0.4123    1.3354    1.2514 H   0  0  0  0  0  0  0  0  0  0  0  0
   -2.2716    1.8044    0.2977 C   0  0  0  0  0  0  0  0  0  0  0  0
   -1.7474    2.5885   -0.7494 C   0  0  0  0  0  0  0  0  0  0  0  0
   -0.6942    2.5334   -0.9920 H   0  0  0  0  0  0  0  0  0  0  0  0
   -2.5937    3.4400   -1.4861 C   0  0  0  0  0  0  0  0  0  0  0  0
   -2.1885    4.0401   -2.2863 H   0  0  0  0  0  0  0  0  0  0  0  0
   -3.9697    3.5043   -1.1765 C   0  0  0  0  0  0  0  0  0  0  0  0
   -4.7947    4.3201   -1.8829 O   0  0  0  0  0  0  0  0  0  0  0  0
   -4.3144    4.8692   -2.5040 H   0  0  0  0  0  0  0  0  0  0  0  0
   -4.4935    2.7153   -0.1315 C   0  0  0  0  0  0  0  0  0  0  0  0
   -5.5465    2.7765    0.0986 H   0  0  0  0  0  0  0  0  0  0  0  0
   -3.6442    1.8686    0.6060 C   0  0  0  0  0  0  0  0  0  0  0  0
   -4.0456    1.2697    1.4148 H   0  0  0  0  0  0  0  0  0  0  0  0
   -0.0227   -1.3055    1.0387 C   0  0  0  0  0  0  0  0  0  0  0  0
    0.5184   -0.8817    2.0603 O   0  0  0  0  0  0  0  0  0  0  0  0
    0.3160   -2.4738    0.4788 N   0  0  0  0  0  0  0  0  0  0  0  0
   -0.1338   -2.7221   -0.3905 H   0  0  0  0  0  0  0  0  0  0  0  0
    1.3452   -3.3704    1.0000 C   0  0  0  0  0  0  0  0  0  0  0  0
    1.1737   -3.5538    2.0621 H   0  0  0  0  0  0  0  0  0  0  0  0
    1.3233   -4.3201    0.4631 H   0  0  0  0  0  0  0  0  0  0  0  0
    2.3282   -2.9105    0.8794 H   0  0  0  0  0  0  0  0  0  0  0  0
  5  6  2  0  0  0  0
  5  7  1  0  0  0  0
  2  3  1  0  0  0  0
  2  4  1  0  0  0  0
  2  5  1  0  0  0  0
  1  2  1  0  0  0  0
 26 27  2  0  0  0  0
 26 28  1  0  0  0  0
 24 25  1  0  0  0  0
 22 23  1  0  0  0  0
 22 24  2  0  0  0  0
 20 21  1  0  0  0  0
 19 20  1  0  0  0  0
 19 22  1  0  0  0  0
 17 18  1  0  0  0  0
 17 19  2  0  0  0  0
 15 16  1  0  0  0  0
 15 17  1  0  0  0  0
 14 15  2  0  0  0  0
 14 24  1  0  0  0  0
 11 12  1  0  0  0  0
 11 13  1  0  0  0  0
 11 14  1  0  0  0  0
  9 10  1  0  0  0  0
  9 11  1  0  0  0  0
  9 26  1  0  0  0  0
  7  8  1  0  0  0  0
  7  9  1  0  0  0  0
 30 31  1  0  0  0  0
 30 32  1  0  0  0  0
 30 33  1  0  0  0  0
 28 29  1  0  0  0  0
 28 30  1  0  0  0  0
M  END
$$$$
default_name
  -OEChem-01062215323D

 33 33  0     1  0  0  0  0  0999 V2000
   -4.0702   -3.8485    1.4554 H   0  0  0  0  0  0  0  0  0  0  0  0
   -4.0012   -2.9605    0.8284 C   0  0  0  0  0  0  0  0  0  0  0  0
   -4.7652   -2.2435    1.1234 H   0  0  0  0  0  0  0  0  0  0  0  0
   -4.1352   -3.2385   -0.2156 H   0  0  0  0  0  0  0  0  0  0  0  0
   -2.6362   -2.3395    1.0094 C   0  0  0  0  0  0  0  0  0  0  0  0
   -1.8292   -2.8395    1.7814 O   0  0  0  0  0  0  0  0  0  0  0  0
   -2.3832   -1.2445    0.2964 N   0  0  0  0  0  0  0  0  0  0  0  0
   -3.1102   -0.8685   -0.2946 H   0  0  0  0  0  0  0  0  0  0  0  0
   -1.1292   -0.4875    0.3524 C   0  0  1  0  0  0  0  0  0  0  0  0
   -0.8041   -0.2790   -0.6676 H   0  0  0  0  0  0  0  0  0  0  0  0
   -1.3737    0.8536    1.0656 C   0  0  0  0  0  0  0  0  0  0  0  0
   -1.8351    0.6606    2.0349 H   0  0  0  0  0  0  0  0  0  0  0  0
   -0.4123    1.3354    1.2514 H   0  0  0  0  0  0  0  0  0  0  0  0
   -2.2716    1.8044    0.2977 C   0  0  0  0  0  0  0  0  0  0  0  0
   -1.7474    2.5885   -0.7494 C   0  0  0  0  0  0  0  0  0  0  0  0
   -0.6942    2.5334   -0.9920 H   0  0  0  0  0  0  0  0  0  0  0  0
   -2.5937    3.4400   -1.4861 C   0  0  0  0  0  0  0  0  0  0  0  0
   -2.1885    4.0401   -2.2863 H   0  0  0  0  0  0  0  0  0  0  0  0
   -3.9697    3.5043   -1.1765 C   0  0  0  0  0  0  0  0  0  0  0  0
   -4.7947    4.3201   -1.8829 O   0  0  0  0  0  0  0  0  0  0  0  0
   -4.3144    4.8692   -2.5040 H   0  0  0  0  0  0  0  0  0  0  0  0
   -4.4935    2.7153   -0.1315 C   0  0  0  0  0  0  0  0  0  0  0  0
   -5.5465    2.7765    0.0986 H   0  0  0  0  0  0  0  0  0  0  0  0
   -3.6442    1.8686    0.6060 C   0  0  0  0  0  0  0  0  0  0  0  0
   -4.0456    1.2697    1.4148 H   0  0  0  0  0  0  0  0  0  0  0  0
   -0.0227   -1.3055    1.0387 C   0  0  0  0  0  0  0  0  0  0  0  0
    0.3255   -1.0351    2.1884 O   0  0  0  0  0  0  0  0  0  0  0  0
    0.5315   -2.3018    0.3363 N   0  0  0  0  0  0  0  0  0  0  0  0
    0.2313   -2.4212   -0.6203 H   0  0  0  0  0  0  0  0  0  0  0  0
    1.5930   -3.1723    0.8365 C   0  0  0  0  0  0  0  0  0  0  0  0
    1.3133   -3.5752    1.8114 H   0  0  0  0  0  0  0  0  0  0  0  0
    1.7617   -3.9967    0.1418 H   0  0  0  0  0  0  0  0  0  0  0  0
    2.5161   -2.5995    0.9472 H   0  0  0  0  0  0  0  0  0  0  0  0
  5  6  2  0  0  0  0
  5  7  1  0  0  0  0
  2  3  1  0  0  0  0
  2  4  1  0  0  0  0
  2  5  1  0  0  0  0
  1  2  1  0  0  0  0
 26 27  2  0  0  0  0
 26 28  1  0  0  0  0
 24 25  1  0  0  0  0
 22 23  1  0  0  0  0
 22 24  2  0  0  0  0
 20 21  1  0  0  0  0
 19 20  1  0  0  0  0
 19 22  1  0  0  0  0
 17 18  1  0  0  0  0
 17 19  2  0  0  0  0
 15 16  1  0  0  0  0
 15 17  1  0  0  0  0
 14 15  2  0  0  0  0
 14 24  1  0  0  0  0
 11 12  1  0  0  0  0
 11 13  1  0  0  0  0
 11 14  1  0  0  0  0
  9 10  1  0  0  0  0
  9 11  1  0  0  0  0
  9 26  1  0  0  0  0
  7  8  1  0  0  0  0
  7  9  1  0  0  0  0
 30 31  1  0  0  0  0
 30 32  1  0  0  0  0
 30 33  1  0  0  0  0
 28 29  1  0  0  0  0
 28 30  1  0  0  0  0
M  END
$$$$
default_name
  -OEChem-01062215323D

 33 33  0     1  0  0  0  0  0999 V2000
   -4.0702   -3.8485    1.4554 H   0  0  0  0  0  0  0  0  0  0  0  0
   -4.0012   -2.9605    0.8284 C   0  0  0  0  0  0  0  0  0  0  0  0
   -4.7652   -2.2435    1.1234 H   0  0  0  0  0  0  0  0  0  0  0  0
   -4.1352   -3.2385   -0.2156 H   0  0  0  0  0  0  0  0  0  0  0  0
   -2.6362   -2.3395    1.0094 C   0  0  0  0  0  0  0  0  0  0  0  0
   -1.8292   -2.8395    1.7814 O   0  0  0  0  0  0  0  0  0  0  0  0
   -2.3832   -1.2445    0.2964 N   0  0  0  0  0  0  0  0  0  0  0  0
   -3.1102   -0.8685   -0.2946 H   0  0  0  0  0  0  0  0  0  0  0  0
   -1.1292   -0.4875    0.3524 C   0  0  1  0  0  0  0  0  0  0  0  0
   -0.8041   -0.2790   -0.6676 H   0  0  0  0  0  0  0  0  0  0  0  0
   -1.3737    0.8536    1.0656 C   0  0  0  0  0  0  0  0  0  0  0  0
   -1.8351    0.6606    2.0349 H   0  0  0  0  0  0  0  0  0  0  0  0
   -0.4123    1.3354    1.2514 H   0  0  0  0  0  0  0  0  0  0  0  0
   -2.2716    1.8044    0.2977 C   0  0  0  0  0  0  0  0  0  0  0  0
   -1.7474    2.5885   -0.7494 C   0  0  0  0  0  0  0  0  0  0  0  0
   -0.6942    2.5334   -0.9920 H   0  0  0  0  0  0  0  0  0  0  0  0
   -2.5937    3.4400   -1.4861 C   0  0  0  0  0  0  0  0  0  0  0  0
   -2.1885    4.0401   -2.2863 H   0  0  0  0  0  0  0  0  0  0  0  0
   -3.9697    3.5043   -1.1765 C   0  0  0  0  0  0  0  0  0  0  0  0
   -4.7947    4.3201   -1.8829 O   0  0  0  0  0  0  0  0  0  0  0  0
   -4.3144    4.8692   -2.5040 H   0  0  0  0  0  0  0  0  0  0  0  0
   -4.4935    2.7153   -0.1315 C   0  0  0  0  0  0  0  0  0  0  0  0
   -5.5465    2.7765    0.0986 H   0  0  0  0  0  0  0  0  0  0  0  0
   -3.6442    1.8686    0.6060 C   0  0  0  0  0  0  0  0  0  0  0  0
   -4.0456    1.2697    1.4148 H   0  0  0  0  0  0  0  0  0  0  0  0
   -0.0227   -1.3055    1.0387 C   0  0  0  0  0  0  0  0  0  0  0  0
    0.1393   -1.2295    2.2569 O   0  0  0  0  0  0  0  0  0  0  0  0
    0.7395   -2.0841    0.2603 N   0  0  0  0  0  0  0  0  0  0  0  0
    0.5808   -2.0455   -0.7361 H   0  0  0  0  0  0  0  0  0  0  0  0
    1.8321   -2.9218    0.7496 C   0  0  0  0  0  0  0  0  0  0  0  0
    1.4852   -3.5330    1.5846 H   0  0  0  0  0  0  0  0  0  0  0  0
    2.1920   -3.5738   -0.0480 H   0  0  0  0  0  0  0  0  0  0  0  0
    2.6523   -2.2900    1.0966 H   0  0  0  0  0  0  0  0  0  0  0  0
  5  6  2  0  0  0  0
  5  7  1  0  0  0  0
  2  3  1  0  0  0  0
  2  4  1  0  0  0  0
  2  5  1  0  0  0  0
  1  2  1  0  0  0  0
 26 27  2  0  0  0  0
 26 28  1  0  0  0  0
 24 25  1  0  0  0  0
 22 23  1  0  0  0  0
 22 24  2  0  0  0  0
 20 21  1  0  0  0  0
 19 20  1  0  0  0  0
 19 22  1  0  0  0  0
 17 18  1  0  0  0  0
 17 19  2  0  0  0  0
 15 16  1  0  0  0  0
 15 17  1  0  0  0  0
 14 15  2  0  0  0  0
 14 24  1  0  0  0  0
 11 12  1  0  0  0  0
 11 13  1  0  0  0  0
 11 14  1  0  0  0  0
  9 10  1  0  0  0  0
  9 11  1  0  0  0  0
  9 26  1  0  0  0  0
  7  8  1  0  0  0  0
  7  9  1  0  0  0  0
 30 31  1  0  0  0  0
 30 32  1  0  0  0  0
 30 33  1  0  0  0  0
 28 29  1  0  0  0  0
 28 30  1  0  0  0  0
M  END
$$$$
default_name
  -OEChem-01062215323D

 33 33  0     1  0  0  0  0  0999 V2000
   -4.0702   -3.8485    1.4554 H   0  0  0  0  0  0  0  0  0  0  0  0
   -4.0012   -2.9605    0.8284 C   0  0  0  0  0  0  0  0  0  0  0  0
   -4.7652   -2.2435    1.1234 H   0  0  0  0  0  0  0  0  0  0  0  0
   -4.1352   -3.2385   -0.2156 H   0  0  0  0  0  0  0  0  0  0  0  0
   -2.6362   -2.3395    1.0094 C   0  0  0  0  0  0  0  0  0  0  0  0
   -1.8292   -2.8395    1.7814 O   0  0  0  0  0  0  0  0  0  0  0  0
   -2.3832   -1.2445    0.2964 N   0  0  0  0  0  0  0  0  0  0  0  0
   -3.1102   -0.8685   -0.2946 H   0  0  0  0  0  0  0  0  0  0  0  0
   -1.1292   -0.4875    0.3524 C   0  0  1  0  0  0  0  0  0  0  0  0
   -0.8041   -0.2790   -0.6676 H   0  0  0  0  0  0  0  0  0  0  0  0
   -1.3737    0.8536    1.0656 C   0  0  0  0  0  0  0  0  0  0  0  0
   -1.8351    0.6606    2.0349 H   0  0  0  0  0  0  0  0  0  0  0  0
   -0.4123    1.3354    1.2514 H   0  0  0  0  0  0  0  0  0  0  0  0
   -2.2716    1.8044    0.2977 C   0  0  0  0  0  0  0  0  0  0  0  0
   -1.7474    2.5885   -0.7494 C   0  0  0  0  0  0  0  0  0  0  0  0
   -0.6942    2.5334   -0.9920 H   0  0  0  0  0  0  0  0  0  0  0  0
   -2.5937    3.4400   -1.4861 C   0  0  0  0  0  0  0  0  0  0  0  0
   -2.1885    4.0401   -2.2863 H   0  0  0  0  0  0  0  0  0  0  0  0
   -3.9697    3.5043   -1.1765 C   0  0  0  0  0  0  0  0  0  0  0  0
   -4.7947    4.3201   -1.8829 O   0  0  0  0  0  0  0  0  0  0  0  0
   -4.3144    4.8692   -2.5040 H   0  0  0  0  0  0  0  0  0  0  0  0
   -4.4935    2.7153   -0.1315 C   0  0  0  0  0  0  0  0  0  0  0  0
   -5.5465    2.7765    0.0986 H   0  0  0  0  0  0  0  0  0  0  0  0
   -3.6442    1.8686    0.6060 C   0  0  0  0  0  0  0  0  0  0  0  0
   -4.0456    1.2697    1.4148 H   0  0  0  0  0  0  0  0  0  0  0  0
   -0.0227   -1.3055    1.0387 C   0  0  0  0  0  0  0  0  0  0  0  0
   -0.0275   -1.4515    2.2613 O   0  0  0  0  0  0  0  0  0  0  0  0
    0.9258   -1.8358    0.2561 N   0  0  0  0  0  0  0  0  0  0  0  0
    0.8910   -1.6207   -0.7298 H   0  0  0  0  0  0  0  0  0  0  0  0
    2.0460   -2.6361    0.7452 C   0  0  0  0  0  0  0  0  0  0  0  0
    1.6776   -3.4302    1.3970 H   0  0  0  0  0  0  0  0  0  0  0  0
    2.5850   -3.0803   -0.0932 H   0  0  0  0  0  0  0  0  0  0  0  0
    2.7276   -2.0031    1.3172 H   0  0  0  0  0  0  0  0  0  0  0  0
  5  6  2  0  0  0  0
  5  7  1  0  0  0  0
  2  3  1  0  0  0  0
  2  4  1  0  0  0  0
  2  5  1  0  0  0  0
  1  2  1  0  0  0  0
 26 27  2  0  0  0  0
 26 28  1  0  0  0  0
 24 25  1  0  0  0  0
 22 23  1  0  0  0  0
 22 24  2  0  0  0  0
 20 21  1  0  0  0  0
 19 20  1  0  0  0  0
 19 22  1  0  0  0  0
 17 18  1  0  0  0  0
 17 19  2  0  0  0  0
 15 16  1  0  0  0  0
 15 17  1  0  0  0  0
 14 15  2  0  0  0  0
 14 24  1  0  0  0  0
 11 12  1  0  0  0  0
 11 13  1  0  0  0  0
 11 14  1  0  0  0  0
  9 10  1  0  0  0  0
  9 11  1  0  0  0  0
  9 26  1  0  0  0  0
  7  8  1  0  0  0  0
  7  9  1  0  0  0  0
 30 31  1  0  0  0  0
 30 32  1  0  0  0  0
 30 33  1  0  0  0  0
 28 29  1  0  0  0  0
 28 30  1  0  0  0  0
M  END
$$$$
default_name
  -OEChem-01062215323D

 33 33  0     1  0  0  0  0  0999 V2000
   -4.0702   -3.8485    1.4554 H   0  0  0  0  0  0  0  0  0  0  0  0
   -4.0012   -2.9605    0.8284 C   0  0  0  0  0  0  0  0  0  0  0  0
   -4.7652   -2.2435    1.1234 H   0  0  0  0  0  0  0  0  0  0  0  0
   -4.1352   -3.2385   -0.2156 H   0  0  0  0  0  0  0  0  0  0  0  0
   -2.6362   -2.3395    1.0094 C   0  0  0  0  0  0  0  0  0  0  0  0
   -1.8292   -2.8395    1.7814 O   0  0  0  0  0  0  0  0  0  0  0  0
   -2.3832   -1.2445    0.2964 N   0  0  0  0  0  0  0  0  0  0  0  0
   -3.1102   -0.8685   -0.2946 H   0  0  0  0  0  0  0  0  0  0  0  0
   -1.1292   -0.4875    0.3524 C   0  0  1  0  0  0  0  0  0  0  0  0
   -0.8041   -0.2790   -0.6676 H   0  0  0  0  0  0  0  0  0  0  0  0
   -1.3737    0.8536    1.0656 C   0  0  0  0  0  0  0  0  0  0  0  0
   -1.8351    0.6606    2.0349 H   0  0  0  0  0  0  0  0  0  0  0  0
   -0.4123    1.3354    1.2514 H   0  0  0  0  0  0  0  0  0  0  0  0
   -2.2716    1.8044    0.2977 C   0  0  0  0  0  0  0  0  0  0  0  0
   -1.7474    2.5885   -0.7494 C   0  0  0  0  0  0  0  0  0  0  0  0
   -0.6942    2.5334   -0.9920 H   0  0  0  0  0  0  0  0  0  0  0  0
   -2.5937    3.4400   -1.4861 C   0  0  0  0  0  0  0  0  0  0  0  0
   -2.1885    4.0401   -2.2863 H   0  0  0  0  0  0  0  0  0  0  0  0
   -3.9697    3.5043   -1.1765 C   0  0  0  0  0  0  0  0  0  0  0  0
   -4.7947    4.3201   -1.8829 O   0  0  0  0  0  0  0  0  0  0  0  0
   -4.3144    4.8692   -2.5040 H   0  0  0  0  0  0  0  0  0  0  0  0
   -4.4935    2.7153   -0.1315 C   0  0  0  0  0  0  0  0  0  0  0  0
   -5.5465    2.7765    0.0986 H   0  0  0  0  0  0  0  0  0  0  0  0
   -3.6442    1.8686    0.6060 C   0  0  0  0  0  0  0  0  0  0  0  0
   -4.0456    1.2697    1.4148 H   0  0  0  0  0  0  0  0  0  0  0  0
   -0.0227   -1.3055    1.0387 C   0  0  0  0  0  0  0  0  0  0  0  0
   -0.1637   -1.6860    2.2012 O   0  0  0  0  0  0  0  0  0  0  0  0
    1.0775   -1.5736    0.3240 N   0  0  0  0  0  0  0  0  0  0  0  0
    1.1406   -1.1757   -0.6019 H   0  0  0  0  0  0  0  0  0  0  0  0
    2.2203   -2.3346    0.8237 C   0  0  0  0  0  0  0  0  0  0  0  0
    1.8774   -3.2737    1.2614 H   0  0  0  0  0  0  0  0  0  0  0  0
    2.9137   -2.5498    0.0090 H   0  0  0  0  0  0  0  0  0  0  0  0
    2.7368   -1.7584    1.5941 H   0  0  0  0  0  0  0  0  0  0  0  0
  5  6  2  0  0  0  0
  5  7  1  0  0  0  0
  2  3  1  0  0  0  0
  2  4  1  0  0  0  0
  2  5  1  0  0  0  0
  1  2  1  0  0  0  0
 26 27  2  0  0  0  0
 26 28  1  0  0  0  0
 24 25  1  0  0  0  0
 22 23  1  0  0  0  0
 22 24  2  0  0  0  0
 20 21  1  0  0  0  0
 19 20  1  0  0  0  0
 19 22  1  0  0  0  0
 17 18  1  0  0  0  0
 17 19  2  0  0  0  0
 15 16  1  0  0  0  0
 15 17  1  0  0  0  0
 14 15  2  0  0  0  0
 14 24  1  0  0  0  0
 11 12  1  0  0  0  0
 11 13  1  0  0  0  0
 11 14  1  0  0  0  0
  9 10  1  0  0  0  0
  9 11  1  0  0  0  0
  9 26  1  0  0  0  0
  7  8  1  0  0  0  0
  7  9  1  0  0  0  0
 30 31  1  0  0  0  0
 30 32  1  0  0  0  0
 30 33  1  0  0  0  0
 28 29  1  0  0  0  0
 28 30  1  0  0  0  0
M  END
$$$$
default_name
  -OEChem-01062215323D

 33 33  0     1  0  0  0  0  0999 V2000
   -4.0702   -3.8485    1.4554 H   0  0  0  0  0  0  0  0  0  0  0  0
   -4.0012   -2.9605    0.8284 C   0  0  0  0  0  0  0  0  0  0  0  0
   -4.7652   -2.2435    1.1234 H   0  0  0  0  0  0  0  0  0  0  0  0
   -4.1352   -3.2385   -0.2156 H   0  0  0  0  0  0  0  0  0  0  0  0
   -2.6362   -2.3395    1.0094 C   0  0  0  0  0  0  0  0  0  0  0  0
   -1.8292   -2.8395    1.7814 O   0  0  0  0  0  0  0  0  0  0  0  0
   -2.3832   -1.2445    0.2964 N   0  0  0  0  0  0  0  0  0  0  0  0
   -3.1102   -0.8685   -0.2946 H   0  0  0  0  0  0  0  0  0  0  0  0
   -1.1292   -0.4875    0.3524 C   0  0  1  0  0  0  0  0  0  0  0  0
   -0.8041   -0.2790   -0.6676 H   0  0  0  0  0  0  0  0  0  0  0  0
   -1.3737    0.8536    1.0656 C   0  0  0  0  0  0  0  0  0  0  0  0
   -1.8351    0.6606    2.0349 H   0  0  0  0  0  0  0  0  0  0  0  0
   -0.4123    1.3354    1.2514 H   0  0  0  0  0  0  0  0  0  0  0  0
   -2.2716    1.8044    0.2977 C   0  0  0  0  0  0  0  0  0  0  0  0
   -1.7474    2.5885   -0.7494 C   0  0  0  0  0  0  0  0  0  0  0  0
   -0.6942    2.5334   -0.9920 H   0  0  0  0  0  0  0  0  0  0  0  0
   -2.5937    3.4400   -1.4861 C   0  0  0  0  0  0  0  0  0  0  0  0
   -2.1885    4.0401   -2.2863 H   0  0  0  0  0  0  0  0  0  0  0  0
   -3.9697    3.5043   -1.1765 C   0  0  0  0  0  0  0  0  0  0  0  0
   -4.7947    4.3201   -1.8829 O   0  0  0  0  0  0  0  0  0  0  0  0
   -4.3144    4.8692   -2.5040 H   0  0  0  0  0  0  0  0  0  0  0  0
   -4.4935    2.7153   -0.1315 C   0  0  0  0  0  0  0  0  0  0  0  0
   -5.5465    2.7765    0.0986 H   0  0  0  0  0  0  0  0  0  0  0  0
   -3.6442    1.8686    0.6060 C   0  0  0  0  0  0  0  0  0  0  0  0
   -4.0456    1.2697    1.4148 H   0  0  0  0  0  0  0  0  0  0  0  0
   -0.0227   -1.3055    1.0387 C   0  0  0  0  0  0  0  0  0  0  0  0
   -0.2598   -1.9171    2.0808 O   0  0  0  0  0  0  0  0  0  0  0  0
    1.1845   -1.3154    0.4593 N   0  0  0  0  0  0  0  0  0  0  0  0
    1.3127   -0.7408   -0.3611 H   0  0  0  0  0  0  0  0  0  0  0  0
    2.3430   -2.0378    0.9796 C   0  0  0  0  0  0  0  0  0  0  0  0
    2.0709   -3.0742    1.1871 H   0  0  0  0  0  0  0  0  0  0  0  0
    3.1559   -2.0184    0.2519 H   0  0  0  0  0  0  0  0  0  0  0  0
    2.6792   -1.5725    1.9084 H   0  0  0  0  0  0  0  0  0  0  0  0
  5  6  2  0  0  0  0
  5  7  1  0  0  0  0
  2  3  1  0  0  0  0
  2  4  1  0  0  0  0
  2  5  1  0  0  0  0
  1  2  1  0  0  0  0
 26 27  2  0  0  0  0
 26 28  1  0  0  0  0
 24 25  1  0  0  0  0
 22 23  1  0  0  0  0
 22 24  2  0  0  0  0
 20 21  1  0  0  0  0
 19 20  1  0  0  0  0
 19 22  1  0  0  0  0
 17 18  1  0  0  0  0
 17 19  2  0  0  0  0
 15 16  1  0  0  0  0
 15 17  1  0  0  0  0
 14 15  2  0  0  0  0
 14 24  1  0  0  0  0
 11 12  1  0  0  0  0
 11 13  1  0  0  0  0
 11 14  1  0  0  0  0
  9 10  1  0  0  0  0
  9 11  1  0  0  0  0
  9 26  1  0  0  0  0
  7  8  1  0  0  0  0
  7  9  1  0  0  0  0
 30 31  1  0  0  0  0
 30 32  1  0  0  0  0
 30 33  1  0  0  0  0
 28 29  1  0  0  0  0
 28 30  1  0  0  0  0
M  END
$$$$
default_name
  -OEChem-01062215323D

 33 33  0     1  0  0  0  0  0999 V2000
   -4.0702   -3.8485    1.4554 H   0  0  0  0  0  0  0  0  0  0  0  0
   -4.0012   -2.9605    0.8284 C   0  0  0  0  0  0  0  0  0  0  0  0
   -4.7652   -2.2435    1.1234 H   0  0  0  0  0  0  0  0  0  0  0  0
   -4.1352   -3.2385   -0.2156 H   0  0  0  0  0  0  0  0  0  0  0  0
   -2.6362   -2.3395    1.0094 C   0  0  0  0  0  0  0  0  0  0  0  0
   -1.8292   -2.8395    1.7814 O   0  0  0  0  0  0  0  0  0  0  0  0
   -2.3832   -1.2445    0.2964 N   0  0  0  0  0  0  0  0  0  0  0  0
   -3.1102   -0.8685   -0.2946 H   0  0  0  0  0  0  0  0  0  0  0  0
   -1.1292   -0.4875    0.3524 C   0  0  1  0  0  0  0  0  0  0  0  0
   -0.8041   -0.2790   -0.6676 H   0  0  0  0  0  0  0  0  0  0  0  0
   -1.3737    0.8536    1.0656 C   0  0  0  0  0  0  0  0  0  0  0  0
   -1.8351    0.6606    2.0349 H   0  0  0  0  0  0  0  0  0  0  0  0
   -0.4123    1.3354    1.2514 H   0  0  0  0  0  0  0  0  0  0  0  0
   -2.2716    1.8044    0.2977 C   0  0  0  0  0  0  0  0  0  0  0  0
   -1.7474    2.5885   -0.7494 C   0  0  0  0  0  0  0  0  0  0  0  0
   -0.6942    2.5334   -0.9920 H   0  0  0  0  0  0  0  0  0  0  0  0
   -2.5937    3.4400   -1.4861 C   0  0  0  0  0  0  0  0  0  0  0  0
   -2.1885    4.0401   -2.2863 H   0  0  0  0  0  0  0  0  0  0  0  0
   -3.9697    3.5043   -1.1765 C   0  0  0  0  0  0  0  0  0  0  0  0
   -4.7947    4.3201   -1.8829 O   0  0  0  0  0  0  0  0  0  0  0  0
   -4.3144    4.8692   -2.5040 H   0  0  0  0  0  0  0  0  0  0  0  0
   -4.4935    2.7153   -0.1315 C   0  0  0  0  0  0  0  0  0  0  0  0
   -5.5465    2.7765    0.0986 H   0  0  0  0  0  0  0  0  0  0  0  0
   -3.6442    1.8686    0.6060 C   0  0  0  0  0  0  0  0  0  0  0  0
   -4.0456    1.2697    1.4148 H   0  0  0  0  0  0  0  0  0  0  0  0
   -0.0227   -1.3055    1.0387 C   0  0  0  0  0  0  0  0  0  0  0  0
   -0.3093   -2.1289    1.9082 O   0  0  0  0  0  0  0  0  0  0  0  0
    1.2394   -1.0789    0.6528 N   0  0  0  0  0  0  0  0  0  0  0  0
    1.3956   -0.3458   -0.0238 H   0  0  0  0  0  0  0  0  0  0  0  0
    2.4057   -1.7661    1.2023 C   0  0  0  0  0  0  0  0  0  0  0  0
    2.2451   -2.8453    1.1791 H   0  0  0  0  0  0  0  0  0  0  0  0
    3.2951   -1.5224    0.6188 H   0  0  0  0  0  0  0  0  0  0  0  0
    2.5589   -1.4581    2.2387 H   0  0  0  0  0  0  0  0  0  0  0  0
  5  6  2  0  0  0  0
  5  7  1  0  0  0  0
  2  3  1  0  0  0  0
  2  4  1  0  0  0  0
  2  5  1  0  0  0  0
  1  2  1  0  0  0  0
 26 27  2  0  0  0  0
 26 28  1  0  0  0  0
 24 25  1  0  0  0  0
 22 23  1  0  0  0  0
 22 24  2  0  0  0  0
 20 21  1  0  0  0  0
 19 20  1  0  0  0  0
 19 22  1  0  0  0  0
 17 18  1  0  0  0  0
 17 19  2  0  0  0  0
 15 16  1  0  0  0  0
 15 17  1  0  0  0  0
 14 15  2  0  0  0  0
 14 24  1  0  0  0  0
 11 12  1  0  0  0  0
 11 13  1  0  0  0  0
 11 14  1  0  0  0  0
  9 10  1  0  0  0  0
  9 11  1  0  0  0  0
  9 26  1  0  0  0  0
  7  8  1  0  0  0  0
  7  9  1  0  0  0  0
 30 31  1  0  0  0  0
 30 32  1  0  0  0  0
 30 33  1  0  0  0  0
 28 29  1  0  0  0  0
 28 30  1  0  0  0  0
M  END
$$$$
default_name
  -OEChem-01062215323D

 33 33  0     1  0  0  0  0  0999 V2000
   -4.0702   -3.8485    1.4554 H   0  0  0  0  0  0  0  0  0  0  0  0
   -4.0012   -2.9605    0.8284 C   0  0  0  0  0  0  0  0  0  0  0  0
   -4.7652   -2.2435    1.1234 H   0  0  0  0  0  0  0  0  0  0  0  0
   -4.1352   -3.2385   -0.2156 H   0  0  0  0  0  0  0  0  0  0  0  0
   -2.6362   -2.3395    1.0094 C   0  0  0  0  0  0  0  0  0  0  0  0
   -1.8292   -2.8395    1.7814 O   0  0  0  0  0  0  0  0  0  0  0  0
   -2.3832   -1.2445    0.2964 N   0  0  0  0  0  0  0  0  0  0  0  0
   -3.1102   -0.8685   -0.2946 H   0  0  0  0  0  0  0  0  0  0  0  0
   -1.1292   -0.4875    0.3524 C   0  0  1  0  0  0  0  0  0  0  0  0
   -0.8041   -0.2790   -0.6676 H   0  0  0  0  0  0  0  0  0  0  0  0
   -1.3737    0.8536    1.0656 C   0  0  0  0  0  0  0  0  0  0  0  0
   -1.8351    0.6606    2.0349 H   0  0  0  0  0  0  0  0  0  0  0  0
   -0.4123    1.3354    1.2514 H   0  0  0  0  0  0  0  0  0  0  0  0
   -2.2716    1.8044    0.2977 C   0  0  0  0  0  0  0  0  0  0  0  0
   -1.7474    2.5885   -0.7494 C   0  0  0  0  0  0  0  0  0  0  0  0
   -0.6942    2.5334   -0.9920 H   0  0  0  0  0  0  0  0  0  0  0  0
   -2.5937    3.4400   -1.4861 C   0  0  0  0  0  0  0  0  0  0  0  0
   -2.1885    4.0401   -2.2863 H   0  0  0  0  0  0  0  0  0  0  0  0
   -3.9697    3.5043   -1.1765 C   0  0  0  0  0  0  0  0  0  0  0  0
   -4.7947    4.3201   -1.8829 O   0  0  0  0  0  0  0  0  0  0  0  0
   -4.3144    4.8692   -2.5040 H   0  0  0  0  0  0  0  0  0  0  0  0
   -4.4935    2.7153   -0.1315 C   0  0  0  0  0  0  0  0  0  0  0  0
   -5.5465    2.7765    0.0986 H   0  0  0  0  0  0  0  0  0  0  0  0
   -3.6442    1.8686    0.6060 C   0  0  0  0  0  0  0  0  0  0  0  0
   -4.0456    1.2697    1.4148 H   0  0  0  0  0  0  0  0  0  0  0  0
   -0.0227   -1.3055    1.0387 C   0  0  0  0  0  0  0  0  0  0  0  0
   -0.3090   -2.3072    1.6951 O   0  0  0  0  0  0  0  0  0  0  0  0
    1.2384   -0.8801    0.8913 N   0  0  0  0  0  0  0  0  0  0  0  0
    1.3836   -0.0174    0.3870 H   0  0  0  0  0  0  0  0  0  0  0  0
    2.4043   -1.5378    1.4768 C   0  0  0  0  0  0  0  0  0  0  0  0
    2.3880   -2.6026    1.2380 H   0  0  0  0  0  0  0  0  0  0  0  0
    3.3217   -1.0956    1.0848 H   0  0  0  0  0  0  0  0  0  0  0  0
    2.3840   -1.4231    2.5625 H   0  0  0  0  0  0  0  0  0  0  0  0
  5  6  2  0  0  0  0
  5  7  1  0  0  0  0
  2  3  1  0  0  0  0
  2  4  1  0  0  0  0
  2  5  1  0  0  0  0
  1  2  1  0  0  0  0
 26 27  2  0  0  0  0
 26 28  1  0  0  0  0
 24 25  1  0  0  0  0
 22 23  1  0  0  0  0
 22 24  2  0  0  0  0
 20 21  1  0  0  0  0
 19 20  1  0  0  0  0
 19 22  1  0  0  0  0
 17 18  1  0  0  0  0
 17 19  2  0  0  0  0
 15 16  1  0  0  0  0
 15 17  1  0  0  0  0
 14 15  2  0  0  0  0
 14 24  1  0  0  0  0
 11 12  1  0  0  0  0
 11 13  1  0  0  0  0
 11 14  1  0  0  0  0
  9 10  1  0  0  0  0
  9 11  1  0  0  0  0
  9 26  1  0  0  0  0
  7  8  1  0  0  0  0
  7  9  1  0  0  0  0
 30 31  1  0  0  0  0
 30 32  1  0  0  0  0
 30 33  1  0  0  0  0
 28 29  1  0  0  0  0
 28 30  1  0  0  0  0
M  END
$$$$
default_name
  -OEChem-01062215323D

 33 33  0     1  0  0  0  0  0999 V2000
   -4.0702   -3.8485    1.4554 H   0  0  0  0  0  0  0  0  0  0  0  0
   -4.0012   -2.9605    0.8284 C   0  0  0  0  0  0  0  0  0  0  0  0
   -4.7652   -2.2435    1.1234 H   0  0  0  0  0  0  0  0  0  0  0  0
   -4.1352   -3.2385   -0.2156 H   0  0  0  0  0  0  0  0  0  0  0  0
   -2.6362   -2.3395    1.0094 C   0  0  0  0  0  0  0  0  0  0  0  0
   -1.8292   -2.8395    1.7814 O   0  0  0  0  0  0  0  0  0  0  0  0
   -2.3832   -1.2445    0.2964 N   0  0  0  0  0  0  0  0  0  0  0  0
   -3.1102   -0.8685   -0.2946 H   0  0  0  0  0  0  0  0  0  0  0  0
   -1.1292   -0.4875    0.3524 C   0  0  1  0  0  0  0  0  0  0  0  0
   -0.9435   -0.0510   -0.6297 H   0  0  0  0  0  0  0  0  0  0  0  0
   -1.2684    0.6566    1.3715 C   0  0  0  0  0  0  0  0  0  0  0  0
   -1.5959    0.2429    2.3262 H   0  0  0  0  0  0  0  0  0  0  0  0
   -0.2883    1.1093    1.5306 H   0  0  0  0  0  0  0  0  0  0  0  0
   -2.2567    1.7307    0.9600 C   0  0  0  0  0  0  0  0  0  0  0  0
   -1.8743    2.7394    0.0531 C   0  0  0  0  0  0  0  0  0  0  0  0
   -0.8638    2.7655   -0.3330 H   0  0  0  0  0  0  0  0  0  0  0  0
   -2.8078    3.7111   -0.3572 C   0  0  0  0  0  0  0  0  0  0  0  0
   -2.5111    4.4831   -1.0506 H   0  0  0  0  0  0  0  0  0  0  0  0
   -4.1292    3.6712    0.1386 C   0  0  0  0  0  0  0  0  0  0  0  0
   -5.0376    4.6020   -0.2533 O   0  0  0  0  0  0  0  0  0  0  0  0
   -4.6426    5.2865   -0.7949 H   0  0  0  0  0  0  0  0  0  0  0  0
   -4.5114    2.6582    1.0422 C   0  0  0  0  0  0  0  0  0  0  0  0
   -5.5235    2.6408    1.4176 H   0  0  0  0  0  0  0  0  0  0  0  0
   -3.5749    1.6911    1.4540 C   0  0  0  0  0  0  0  0  0  0  0  0
   -3.8667    0.9185    2.1554 H   0  0  0  0  0  0  0  0  0  0  0  0
    0.0555   -1.4090    0.6870 C   0  0  0  0  0  0  0  0  0  0  0  0
   -0.1280   -2.6128    0.8697 O   0  0  0  0  0  0  0  0  0  0  0  0
    1.2679   -0.8468    0.7703 N   0  0  0  0  0  0  0  0  0  0  0  0
    1.3253    0.1558    0.6651 H   0  0  0  0  0  0  0  0  0  0  0  0
    2.4955   -1.5761    1.0801 C   0  0  0  0  0  0  0  0  0  0  0  0
    2.5828   -2.4479    0.4294 H   0  0  0  0  0  0  0  0  0  0  0  0
    3.3631   -0.9305    0.9346 H   0  0  0  0  0  0  0  0  0  0  0  0
    2.4689   -1.9160    2.1175 H   0  0  0  0  0  0  0  0  0  0  0  0
  5  6  2  0  0  0  0
  5  7  1  0  0  0  0
  2  3  1  0  0  0  0
  2  4  1  0  0  0  0
  2  5  1  0  0  0  0
  1  2  1  0  0  0  0
 26 27  2  0  0  0  0
 26 28  1  0  0  0  0
 24 25  1  0  0  0  0
 22 23  1  0  0  0  0
 22 24  2  0  0  0  0
 20 21  1  0  0  0  0
 19 20  1  0  0  0  0
 19 22  1  0  0  0  0
 17 18  1  0  0  0  0
 17 19  2  0  0  0  0
 15 16  1  0  0  0  0
 15 17  1  0  0  0  0
 14 15  2  0  0  0  0
 14 24  1  0  0  0  0
 11 12  1  0  0  0  0
 11 13  1  0  0  0  0
 11 14  1  0  0  0  0
  9 10  1  0  0  0  0
  9 11  1  0  0  0  0
  9 26  1  0  0  0  0
  7  8  1  0  0  0  0
  7  9  1  0  0  0  0
 30 31  1  0  0  0  0
 30 32  1  0  0  0  0
 30 33  1  0  0  0  0
 28 29  1  0  0  0  0
 28 30  1  0  0  0  0
M  END
$$$$
default_name
  -OEChem-01062215323D

 33 33  0     1  0  0  0  0  0999 V2000
   -4.0702   -3.8485    1.4554 H   0  0  0  0  0  0  0  0  0  0  0  0
   -4.0012   -2.9605    0.8284 C   0  0  0  0  0  0  0  0  0  0  0  0
   -4.7652   -2.2435    1.1234 H   0  0  0  0  0  0  0  0  0  0  0  0
   -4.1352   -3.2385   -0.2156 H   0  0  0  0  0  0  0  0  0  0  0  0
   -2.6362   -2.3395    1.0094 C   0  0  0  0  0  0  0  0  0  0  0  0
   -1.8292   -2.8395    1.7814 O   0  0  0  0  0  0  0  0  0  0  0  0
   -2.3832   -1.2445    0.2964 N   0  0  0  0  0  0  0  0  0  0  0  0
   -3.1102   -0.8685   -0.2946 H   0  0  0  0  0  0  0  0  0  0  0  0
   -1.1292   -0.4875    0.3524 C   0  0  1  0  0  0  0  0  0  0  0  0
   -0.9435   -0.0510   -0.6297 H   0  0  0  0  0  0  0  0  0  0  0  0
   -1.2684    0.6566    1.3715 C   0  0  0  0  0  0  0  0  0  0  0  0
   -1.5959    0.2429    2.3262 H   0  0  0  0  0  0  0  0  0  0  0  0
   -0.2883    1.1093    1.5306 H   0  0  0  0  0  0  0  0  0  0  0  0
   -2.2567    1.7307    0.9600 C   0  0  0  0  0  0  0  0  0  0  0  0
   -1.8743    2.7394    0.0531 C   0  0  0  0  0  0  0  0  0  0  0  0
   -0.8638    2.7655   -0.3330 H   0  0  0  0  0  0  0  0  0  0  0  0
   -2.8078    3.7111   -0.3572 C   0  0  0  0  0  0  0  0  0  0  0  0
   -2.5111    4.4831   -1.0506 H   0  0  0  0  0  0  0  0  0  0  0  0
   -4.1292    3.6712    0.1386 C   0  0  0  0  0  0  0  0  0  0  0  0
   -5.0376    4.6020   -0.2533 O   0  0  0  0  0  0  0  0  0  0  0  0
   -4.6426    5.2865   -0.7949 H   0  0  0  0  0  0  0  0  0  0  0  0
   -4.5114    2.6582    1.0422 C   0  0  0  0  0  0  0  0  0  0  0  0
   -5.5235    2.6408    1.4176 H   0  0  0  0  0  0  0  0  0  0  0  0
   -3.5749    1.6911    1.4540 C   0  0  0  0  0  0  0  0  0  0  0  0
   -3.8667    0.9185    2.1554 H   0  0  0  0  0  0  0  0  0  0  0  0
    0.0555   -1.4090    0.6870 C   0  0  0  0  0  0  0  0  0  0  0  0
   -0.0660   -2.6312    0.5996 O   0  0  0  0  0  0  0  0  0  0  0  0
    1.1982   -0.8269    1.0722 N   0  0  0  0  0  0  0  0  0  0  0  0
    1.1983    0.1776    1.1751 H   0  0  0  0  0  0  0  0  0  0  0  0
    2.4150   -1.5536    1.4271 C   0  0  0  0  0  0  0  0  0  0  0  0
    2.6612   -2.2702    0.6416 H   0  0  0  0  0  0  0  0  0  0  0  0
    3.2459   -0.8572    1.5517 H   0  0  0  0  0  0  0  0  0  0  0  0
    2.2583   -2.0986    2.3603 H   0  0  0  0  0  0  0  0  0  0  0  0
  5  6  2  0  0  0  0
  5  7  1  0  0  0  0
  2  3  1  0  0  0  0
  2  4  1  0  0  0  0
  2  5  1  0  0  0  0
  1  2  1  0  0  0  0
 26 27  2  0  0  0  0
 26 28  1  0  0  0  0
 24 25  1  0  0  0  0
 22 23  1  0  0  0  0
 22 24  2  0  0  0  0
 20 21  1  0  0  0  0
 19 20  1  0  0  0  0
 19 22  1  0  0  0  0
 17 18  1  0  0  0  0
 17 19  2  0  0  0  0
 15 16  1  0  0  0  0
 15 17  1  0  0  0  0
 14 15  2  0  0  0  0
 14 24  1  0  0  0  0
 11 12  1  0  0  0  0
 11 13  1  0  0  0  0
 11 14  1  0  0  0  0
  9 10  1  0  0  0  0
  9 11  1  0  0  0  0
  9 26  1  0  0  0  0
  7  8  1  0  0  0  0
  7  9  1  0  0  0  0
 30 31  1  0  0  0  0
 30 32  1  0  0  0  0
 30 33  1  0  0  0  0
 28 29  1  0  0  0  0
 28 30  1  0  0  0  0
M  END
$$$$
default_name
  -OEChem-01062215323D

 33 33  0     1  0  0  0  0  0999 V2000
   -4.0702   -3.8485    1.4554 H   0  0  0  0  0  0  0  0  0  0  0  0
   -4.0012   -2.9605    0.8284 C   0  0  0  0  0  0  0  0  0  0  0  0
   -4.7652   -2.2435    1.1234 H   0  0  0  0  0  0  0  0  0  0  0  0
   -4.1352   -3.2385   -0.2156 H   0  0  0  0  0  0  0  0  0  0  0  0
   -2.6362   -2.3395    1.0094 C   0  0  0  0  0  0  0  0  0  0  0  0
   -1.8292   -2.8395    1.7814 O   0  0  0  0  0  0  0  0  0  0  0  0
   -2.3832   -1.2445    0.2964 N   0  0  0  0  0  0  0  0  0  0  0  0
   -3.1102   -0.8685   -0.2946 H   0  0  0  0  0  0  0  0  0  0  0  0
   -1.1292   -0.4875    0.3524 C   0  0  1  0  0  0  0  0  0  0  0  0
   -0.9435   -0.0510   -0.6297 H   0  0  0  0  0  0  0  0  0  0  0  0
   -1.2684    0.6566    1.3715 C   0  0  0  0  0  0  0  0  0  0  0  0
   -1.5959    0.2429    2.3262 H   0  0  0  0  0  0  0  0  0  0  0  0
   -0.2883    1.1093    1.5306 H   0  0  0  0  0  0  0  0  0  0  0  0
   -2.2567    1.7307    0.9600 C   0  0  0  0  0  0  0  0  0  0  0  0
   -1.8743    2.7394    0.0531 C   0  0  0  0  0  0  0  0  0  0  0  0
   -0.8638    2.7655   -0.3330 H   0  0  0  0  0  0  0  0  0  0  0  0
   -2.8078    3.7111   -0.3572 C   0  0  0  0  0  0  0  0  0  0  0  0
   -2.5111    4.4831   -1.0506 H   0  0  0  0  0  0  0  0  0  0  0  0
   -4.1292    3.6712    0.1386 C   0  0  0  0  0  0  0  0  0  0  0  0
   -5.0376    4.6020   -0.2533 O   0  0  0  0  0  0  0  0  0  0  0  0
   -4.6426    5.2865   -0.7949 H   0  0  0  0  0  0  0  0  0  0  0  0
   -4.5114    2.6582    1.0422 C   0  0  0  0  0  0  0  0  0  0  0  0
   -5.5235    2.6408    1.4176 H   0  0  0  0  0  0  0  0  0  0  0  0
   -3.5749    1.6911    1.4540 C   0  0  0  0  0  0  0  0  0  0  0  0
   -3.8667    0.9185    2.1554 H   0  0  0  0  0  0  0  0  0  0  0  0
    0.0555   -1.4090    0.6870 C   0  0  0  0  0  0  0  0  0  0  0  0
    0.0368   -2.5916    0.3446 O   0  0  0  0  0  0  0  0  0  0  0  0
    1.0829   -0.8717    1.3570 N   0  0  0  0  0  0  0  0  0  0  0  0
    0.9952    0.0898    1.6523 H   0  0  0  0  0  0  0  0  0  0  0  0
    2.2822   -1.6055    1.7544 C   0  0  0  0  0  0  0  0  0  0  0  0
    2.6939   -2.1364    0.8942 H   0  0  0  0  0  0  0  0  0  0  0  0
    3.0327   -0.9161    2.1443 H   0  0  0  0  0  0  0  0  0  0  0  0
    2.0275   -2.3352    2.5258 H   0  0  0  0  0  0  0  0  0  0  0  0
  5  6  2  0  0  0  0
  5  7  1  0  0  0  0
  2  3  1  0  0  0  0
  2  4  1  0  0  0  0
  2  5  1  0  0  0  0
  1  2  1  0  0  0  0
 26 27  2  0  0  0  0
 26 28  1  0  0  0  0
 24 25  1  0  0  0  0
 22 23  1  0  0  0  0
 22 24  2  0  0  0  0
 20 21  1  0  0  0  0
 19 20  1  0  0  0  0
 19 22  1  0  0  0  0
 17 18  1  0  0  0  0
 17 19  2  0  0  0  0
 15 16  1  0  0  0  0
 15 17  1  0  0  0  0
 14 15  2  0  0  0  0
 14 24  1  0  0  0  0
 11 12  1  0  0  0  0
 11 13  1  0  0  0  0
 11 14  1  0  0  0  0
  9 10  1  0  0  0  0
  9 11  1  0  0  0  0
  9 26  1  0  0  0  0
  7  8  1  0  0  0  0
  7  9  1  0  0  0  0
 30 31  1  0  0  0  0
 30 32  1  0  0  0  0
 30 33  1  0  0  0  0
 28 29  1  0  0  0  0
 28 30  1  0  0  0  0
M  END
$$$$
default_name
  -OEChem-01062215323D

 33 33  0     1  0  0  0  0  0999 V2000
   -4.0702   -3.8485    1.4554 H   0  0  0  0  0  0  0  0  0  0  0  0
   -4.0012   -2.9605    0.8284 C   0  0  0  0  0  0  0  0  0  0  0  0
   -4.7652   -2.2435    1.1234 H   0  0  0  0  0  0  0  0  0  0  0  0
   -4.1352   -3.2385   -0.2156 H   0  0  0  0  0  0  0  0  0  0  0  0
   -2.6362   -2.3395    1.0094 C   0  0  0  0  0  0  0  0  0  0  0  0
   -1.8292   -2.8395    1.7814 O   0  0  0  0  0  0  0  0  0  0  0  0
   -2.3832   -1.2445    0.2964 N   0  0  0  0  0  0  0  0  0  0  0  0
   -3.1102   -0.8685   -0.2946 H   0  0  0  0  0  0  0  0  0  0  0  0
   -1.1292   -0.4875    0.3524 C   0  0  1  0  0  0  0  0  0  0  0  0
   -0.9435   -0.0510   -0.6297 H   0  0  0  0  0  0  0  0  0  0  0  0
   -1.2684    0.6566    1.3715 C   0  0  0  0  0  0  0  0  0  0  0  0
   -1.5959    0.2429    2.3262 H   0  0  0  0  0  0  0  0  0  0  0  0
   -0.2883    1.1093    1.5306 H   0  0  0  0  0  0  0  0  0  0  0  0
   -2.2567    1.7307    0.9600 C   0  0  0  0  0  0  0  0  0  0  0  0
   -1.8743    2.7394    0.0531 C   0  0  0  0  0  0  0  0  0  0  0  0
   -0.8638    2.7655   -0.3330 H   0  0  0  0  0  0  0  0  0  0  0  0
   -2.8078    3.7111   -0.3572 C   0  0  0  0  0  0  0  0  0  0  0  0
   -2.5111    4.4831   -1.0506 H   0  0  0  0  0  0  0  0  0  0  0  0
   -4.1292    3.6712    0.1386 C   0  0  0  0  0  0  0  0  0  0  0  0
   -5.0376    4.6020   -0.2533 O   0  0  0  0  0  0  0  0  0  0  0  0
   -4.6426    5.2865   -0.7949 H   0  0  0  0  0  0  0  0  0  0  0  0
   -4.5114    2.6582    1.0422 C   0  0  0  0  0  0  0  0  0  0  0  0
   -5.5235    2.6408    1.4176 H   0  0  0  0  0  0  0  0  0  0  0  0
   -3.5749    1.6911    1.4540 C   0  0  0  0  0  0  0  0  0  0  0  0
   -3.8667    0.9185    2.1554 H   0  0  0  0  0  0  0  0  0  0  0  0
    0.0555   -1.4090    0.6870 C   0  0  0  0  0  0  0  0  0  0  0  0
    0.1734   -2.4968    0.1222 O   0  0  0  0  0  0  0  0  0  0  0  0
    0.9298   -0.9783    1.6052 N   0  0  0  0  0  0  0  0  0  0  0  0
    0.7300   -0.1015    2.0643 H   0  0  0  0  0  0  0  0  0  0  0  0
    2.1060   -1.7285    2.0395 C   0  0  0  0  0  0  0  0  0  0  0  0
    2.6788   -2.0557    1.1700 H   0  0  0  0  0  0  0  0  0  0  0  0
    2.7383   -1.1031    2.6718 H   0  0  0  0  0  0  0  0  0  0  0  0
    1.7922   -2.6098    2.6026 H   0  0  0  0  0  0  0  0  0  0  0  0
  5  6  2  0  0  0  0
  5  7  1  0  0  0  0
  2  3  1  0  0  0  0
  2  4  1  0  0  0  0
  2  5  1  0  0  0  0
  1  2  1  0  0  0  0
 26 27  2  0  0  0  0
 26 28  1  0  0  0  0
 24 25  1  0  0  0  0
 22 23  1  0  0  0  0
 22 24  2  0  0  0  0
 20 21  1  0  0  0  0
 19 20  1  0  0  0  0
 19 22  1  0  0  0  0
 17 18  1  0  0  0  0
 17 19  2  0  0  0  0
 15 16  1  0  0  0  0
 15 17  1  0  0  0  0
 14 15  2  0  0  0  0
 14 24  1  0  0  0  0
 11 12  1  0  0  0  0
 11 13  1  0  0  0  0
 11 14  1  0  0  0  0
  9 10  1  0  0  0  0
  9 11  1  0  0  0  0
  9 26  1  0  0  0  0
  7  8  1  0  0  0  0
  7  9  1  0  0  0  0
 30 31  1  0  0  0  0
 30 32  1  0  0  0  0
 30 33  1  0  0  0  0
 28 29  1  0  0  0  0
 28 30  1  0  0  0  0
M  END
$$$$
default_name
  -OEChem-01062215323D

 33 33  0     1  0  0  0  0  0999 V2000
   -4.0702   -3.8485    1.4554 H   0  0  0  0  0  0  0  0  0  0  0  0
   -4.0012   -2.9605    0.8284 C   0  0  0  0  0  0  0  0  0  0  0  0
   -4.7652   -2.2435    1.1234 H   0  0  0  0  0  0  0  0  0  0  0  0
   -4.1352   -3.2385   -0.2156 H   0  0  0  0  0  0  0  0  0  0  0  0
   -2.6362   -2.3395    1.0094 C   0  0  0  0  0  0  0  0  0  0  0  0
   -1.8292   -2.8395    1.7814 O   0  0  0  0  0  0  0  0  0  0  0  0
   -2.3832   -1.2445    0.2964 N   0  0  0  0  0  0  0  0  0  0  0  0
   -3.1102   -0.8685   -0.2946 H   0  0  0  0  0  0  0  0  0  0  0  0
   -1.1292   -0.4875    0.3524 C   0  0  1  0  0  0  0  0  0  0  0  0
   -0.9435   -0.0510   -0.6297 H   0  0  0  0  0  0  0  0  0  0  0  0
   -1.2684    0.6566    1.3715 C   0  0  0  0  0  0  0  0  0  0  0  0
   -1.5959    0.2429    2.3262 H   0  0  0  0  0  0  0  0  0  0  0  0
   -0.2883    1.1093    1.5306 H   0  0  0  0  0  0  0  0  0  0  0  0
   -2.2567    1.7307    0.9600 C   0  0  0  0  0  0  0  0  0  0  0  0
   -1.8743    2.7394    0.0531 C   0  0  0  0  0  0  0  0  0  0  0  0
   -0.8638    2.7655   -0.3330 H   0  0  0  0  0  0  0  0  0  0  0  0
   -2.8078    3.7111   -0.3572 C   0  0  0  0  0  0  0  0  0  0  0  0
   -2.5111    4.4831   -1.0506 H   0  0  0  0  0  0  0  0  0  0  0  0
   -4.1292    3.6712    0.1386 C   0  0  0  0  0  0  0  0  0  0  0  0
   -5.0376    4.6020   -0.2533 O   0  0  0  0  0  0  0  0  0  0  0  0
   -4.6426    5.2865   -0.7949 H   0  0  0  0  0  0  0  0  0  0  0  0
   -4.5114    2.6582    1.0422 C   0  0  0  0  0  0  0  0  0  0  0  0
   -5.5235    2.6408    1.4176 H   0  0  0  0  0  0  0  0  0  0  0  0
   -3.5749    1.6911    1.4540 C   0  0  0  0  0  0  0  0  0  0  0  0
   -3.8667    0.9185    2.1554 H   0  0  0  0  0  0  0  0  0  0  0  0
    0.0555   -1.4090    0.6870 C   0  0  0  0  0  0  0  0  0  0  0  0
    0.3345   -2.3531   -0.0526 O   0  0  0  0  0  0  0  0  0  0  0  0
    0.7495   -1.1394    1.7999 N   0  0  0  0  0  0  0  0  0  0  0  0
    0.4207   -0.3835    2.3830 H   0  0  0  0  0  0  0  0  0  0  0  0
    1.8986   -1.9140    2.2630 C   0  0  0  0  0  0  0  0  0  0  0  0
    2.6169   -2.0336    1.4501 H   0  0  0  0  0  0  0  0  0  0  0  0
    2.3826   -1.4055    3.0985 H   0  0  0  0  0  0  0  0  0  0  0  0
    1.5685   -2.9036    2.5857 H   0  0  0  0  0  0  0  0  0  0  0  0
  5  6  2  0  0  0  0
  5  7  1  0  0  0  0
  2  3  1  0  0  0  0
  2  4  1  0  0  0  0
  2  5  1  0  0  0  0
  1  2  1  0  0  0  0
 26 27  2  0  0  0  0
 26 28  1  0  0  0  0
 24 25  1  0  0  0  0
 22 23  1  0  0  0  0
 22 24  2  0  0  0  0
 20 21  1  0  0  0  0
 19 20  1  0  0  0  0
 19 22  1  0  0  0  0
 17 18  1  0  0  0  0
 17 19  2  0  0  0  0
 15 16  1  0  0  0  0
 15 17  1  0  0  0  0
 14 15  2  0  0  0  0
 14 24  1  0  0  0  0
 11 12  1  0  0  0  0
 11 13  1  0  0  0  0
 11 14  1  0  0  0  0
  9 10  1  0  0  0  0
  9 11  1  0  0  0  0
  9 26  1  0  0  0  0
  7  8  1  0  0  0  0
  7  9  1  0  0  0  0
 30 31  1  0  0  0  0
 30 32  1  0  0  0  0
 30 33  1  0  0  0  0
 28 29  1  0  0  0  0
 28 30  1  0  0  0  0
M  END
$$$$
default_name
  -OEChem-01062215323D

 33 33  0     1  0  0  0  0  0999 V2000
   -4.0702   -3.8485    1.4554 H   0  0  0  0  0  0  0  0  0  0  0  0
   -4.0012   -2.9605    0.8284 C   0  0  0  0  0  0  0  0  0  0  0  0
   -4.7652   -2.2435    1.1234 H   0  0  0  0  0  0  0  0  0  0  0  0
   -4.1352   -3.2385   -0.2156 H   0  0  0  0  0  0  0  0  0  0  0  0
   -2.6362   -2.3395    1.0094 C   0  0  0  0  0  0  0  0  0  0  0  0
   -1.8292   -2.8395    1.7814 O   0  0  0  0  0  0  0  0  0  0  0  0
   -2.3832   -1.2445    0.2964 N   0  0  0  0  0  0  0  0  0  0  0  0
   -3.1102   -0.8685   -0.2946 H   0  0  0  0  0  0  0  0  0  0  0  0
   -1.1292   -0.4875    0.3524 C   0  0  1  0  0  0  0  0  0  0  0  0
   -0.9435   -0.0510   -0.6297 H   0  0  0  0  0  0  0  0  0  0  0  0
   -1.2684    0.6566    1.3715 C   0  0  0  0  0  0  0  0  0  0  0  0
   -1.5959    0.2429    2.3262 H   0  0  0  0  0  0  0  0  0  0  0  0
   -0.2883    1.1093    1.5306 H   0  0  0  0  0  0  0  0  0  0  0  0
   -2.2567    1.7307    0.9600 C   0  0  0  0  0  0  0  0  0  0  0  0
   -1.8743    2.7394    0.0531 C   0  0  0  0  0  0  0  0  0  0  0  0
   -0.8638    2.7655   -0.3330 H   0  0  0  0  0  0  0  0  0  0  0  0
   -2.8078    3.7111   -0.3572 C   0  0  0  0  0  0  0  0  0  0  0  0
   -2.5111    4.4831   -1.0506 H   0  0  0  0  0  0  0  0  0  0  0  0
   -4.1292    3.6712    0.1386 C   0  0  0  0  0  0  0  0  0  0  0  0
   -5.0376    4.6020   -0.2533 O   0  0  0  0  0  0  0  0  0  0  0  0
   -4.6426    5.2865   -0.7949 H   0  0  0  0  0  0  0  0  0  0  0  0
   -4.5114    2.6582    1.0422 C   0  0  0  0  0  0  0  0  0  0  0  0
   -5.5235    2.6408    1.4176 H   0  0  0  0  0  0  0  0  0  0  0  0
   -3.5749    1.6911    1.4540 C   0  0  0  0  0  0  0  0  0  0  0  0
   -3.8667    0.9185    2.1554 H   0  0  0  0  0  0  0  0  0  0  0  0
    0.0555   -1.4090    0.6870 C   0  0  0  0  0  0  0  0  0  0  0  0
    0.5091   -2.1704   -0.1678 O   0  0  0  0  0  0  0  0  0  0  0  0
    0.5542   -1.3440    1.9280 N   0  0  0  0  0  0  0  0  0  0  0  0
    0.0884   -0.7368    2.5866 H   0  0  0  0  0  0  0  0  0  0  0  0
    1.6740   -2.1494    2.4098 C   0  0  0  0  0  0  0  0  0  0  0  0
    2.5124   -2.0715    1.7155 H   0  0  0  0  0  0  0  0  0  0  0  0
    1.9898   -1.8027    3.3951 H   0  0  0  0  0  0  0  0  0  0  0  0
    1.3716   -3.1966    2.4760 H   0  0  0  0  0  0  0  0  0  0  0  0
  5  6  2  0  0  0  0
  5  7  1  0  0  0  0
  2  3  1  0  0  0  0
  2  4  1  0  0  0  0
  2  5  1  0  0  0  0
  1  2  1  0  0  0  0
 26 27  2  0  0  0  0
 26 28  1  0  0  0  0
 24 25  1  0  0  0  0
 22 23  1  0  0  0  0
 22 24  2  0  0  0  0
 20 21  1  0  0  0  0
 19 20  1  0  0  0  0
 19 22  1  0  0  0  0
 17 18  1  0  0  0  0
 17 19  2  0  0  0  0
 15 16  1  0  0  0  0
 15 17  1  0  0  0  0
 14 15  2  0  0  0  0
 14 24  1  0  0  0  0
 11 12  1  0  0  0  0
 11 13  1  0  0  0  0
 11 14  1  0  0  0  0
  9 10  1  0  0  0  0
  9 11  1  0  0  0  0
  9 26  1  0  0  0  0
  7  8  1  0  0  0  0
  7  9  1  0  0  0  0
 30 31  1  0  0  0  0
 30 32  1  0  0  0  0
 30 33  1  0  0  0  0
 28 29  1  0  0  0  0
 28 30  1  0  0  0  0
M  END
$$$$
default_name
  -OEChem-01062215323D

 33 33  0     1  0  0  0  0  0999 V2000
   -4.0702   -3.8485    1.4554 H   0  0  0  0  0  0  0  0  0  0  0  0
   -4.0012   -2.9605    0.8284 C   0  0  0  0  0  0  0  0  0  0  0  0
   -4.7652   -2.2435    1.1234 H   0  0  0  0  0  0  0  0  0  0  0  0
   -4.1352   -3.2385   -0.2156 H   0  0  0  0  0  0  0  0  0  0  0  0
   -2.6362   -2.3395    1.0094 C   0  0  0  0  0  0  0  0  0  0  0  0
   -1.8292   -2.8395    1.7814 O   0  0  0  0  0  0  0  0  0  0  0  0
   -2.3832   -1.2445    0.2964 N   0  0  0  0  0  0  0  0  0  0  0  0
   -3.1102   -0.8685   -0.2946 H   0  0  0  0  0  0  0  0  0  0  0  0
   -1.1292   -0.4875    0.3524 C   0  0  1  0  0  0  0  0  0  0  0  0
   -0.9435   -0.0510   -0.6297 H   0  0  0  0  0  0  0  0  0  0  0  0
   -1.2684    0.6566    1.3715 C   0  0  0  0  0  0  0  0  0  0  0  0
   -1.5959    0.2429    2.3262 H   0  0  0  0  0  0  0  0  0  0  0  0
   -0.2883    1.1093    1.5306 H   0  0  0  0  0  0  0  0  0  0  0  0
   -2.2567    1.7307    0.9600 C   0  0  0  0  0  0  0  0  0  0  0  0
   -1.8743    2.7394    0.0531 C   0  0  0  0  0  0  0  0  0  0  0  0
   -0.8638    2.7655   -0.3330 H   0  0  0  0  0  0  0  0  0  0  0  0
   -2.8078    3.7111   -0.3572 C   0  0  0  0  0  0  0  0  0  0  0  0
   -2.5111    4.4831   -1.0506 H   0  0  0  0  0  0  0  0  0  0  0  0
   -4.1292    3.6712    0.1386 C   0  0  0  0  0  0  0  0  0  0  0  0
   -5.0376    4.6020   -0.2533 O   0  0  0  0  0  0  0  0  0  0  0  0
   -4.6426    5.2865   -0.7949 H   0  0  0  0  0  0  0  0  0  0  0  0
   -4.5114    2.6582    1.0422 C   0  0  0  0  0  0  0  0  0  0  0  0
   -5.5235    2.6408    1.4176 H   0  0  0  0  0  0  0  0  0  0  0  0
   -3.5749    1.6911    1.4540 C   0  0  0  0  0  0  0  0  0  0  0  0
   -3.8667    0.9185    2.1554 H   0  0  0  0  0  0  0  0  0  0  0  0
    0.0555   -1.4090    0.6870 C   0  0  0  0  0  0  0  0  0  0  0  0
    0.6854   -1.9611   -0.2155 O   0  0  0  0  0  0  0  0  0  0  0  0
    0.3573   -1.5781    1.9806 N   0  0  0  0  0  0  0  0  0  0  0  0
   -0.2442   -1.1373    2.6613 H   0  0  0  0  0  0  0  0  0  0  0  0
    1.4476   -2.4187    2.4698 C   0  0  0  0  0  0  0  0  0  0  0  0
    2.3725   -2.1670    1.9480 H   0  0  0  0  0  0  0  0  0  0  0  0
    1.5868   -2.2676    3.5415 H   0  0  0  0  0  0  0  0  0  0  0  0
    1.2149   -3.4688    2.2810 H   0  0  0  0  0  0  0  0  0  0  0  0
  5  6  2  0  0  0  0
  5  7  1  0  0  0  0
  2  3  1  0  0  0  0
  2  4  1  0  0  0  0
  2  5  1  0  0  0  0
  1  2  1  0  0  0  0
 26 27  2  0  0  0  0
 26 28  1  0  0  0  0
 24 25  1  0  0  0  0
 22 23  1  0  0  0  0
 22 24  2  0  0  0  0
 20 21  1  0  0  0  0
 19 20  1  0  0  0  0
 19 22  1  0  0  0  0
 17 18  1  0  0  0  0
 17 19  2  0  0  0  0
 15 16  1  0  0  0  0
 15 17  1  0  0  0  0
 14 15  2  0  0  0  0
 14 24  1  0  0  0  0
 11 12  1  0  0  0  0
 11 13  1  0  0  0  0
 11 14  1  0  0  0  0
  9 10  1  0  0  0  0
  9 11  1  0  0  0  0
  9 26  1  0  0  0  0
  7  8  1  0  0  0  0
  7  9  1  0  0  0  0
 30 31  1  0  0  0  0
 30 32  1  0  0  0  0
 30 33  1  0  0  0  0
 28 29  1  0  0  0  0
 28 30  1  0  0  0  0
M  END
$$$$
default_name
  -OEChem-01062215323D

 33 33  0     1  0  0  0  0  0999 V2000
   -4.0702   -3.8485    1.4554 H   0  0  0  0  0  0  0  0  0  0  0  0
   -4.0012   -2.9605    0.8284 C   0  0  0  0  0  0  0  0  0  0  0  0
   -4.7652   -2.2435    1.1234 H   0  0  0  0  0  0  0  0  0  0  0  0
   -4.1352   -3.2385   -0.2156 H   0  0  0  0  0  0  0  0  0  0  0  0
   -2.6362   -2.3395    1.0094 C   0  0  0  0  0  0  0  0  0  0  0  0
   -1.8292   -2.8395    1.7814 O   0  0  0  0  0  0  0  0  0  0  0  0
   -2.3832   -1.2445    0.2964 N   0  0  0  0  0  0  0  0  0  0  0  0
   -3.1102   -0.8685   -0.2946 H   0  0  0  0  0  0  0  0  0  0  0  0
   -1.1292   -0.4875    0.3524 C   0  0  1  0  0  0  0  0  0  0  0  0
   -0.9435   -0.0510   -0.6297 H   0  0  0  0  0  0  0  0  0  0  0  0
   -1.2684    0.6566    1.3715 C   0  0  0  0  0  0  0  0  0  0  0  0
   -1.5959    0.2429    2.3262 H   0  0  0  0  0  0  0  0  0  0  0  0
   -0.2883    1.1093    1.5306 H   0  0  0  0  0  0  0  0  0  0  0  0
   -2.2567    1.7307    0.9600 C   0  0  0  0  0  0  0  0  0  0  0  0
   -1.8743    2.7394    0.0531 C   0  0  0  0  0  0  0  0  0  0  0  0
   -0.8638    2.7655   -0.3330 H   0  0  0  0  0  0  0  0  0  0  0  0
   -2.8078    3.7111   -0.3572 C   0  0  0  0  0  0  0  0  0  0  0  0
   -2.5111    4.4831   -1.0506 H   0  0  0  0  0  0  0  0  0  0  0  0
   -4.1292    3.6712    0.1386 C   0  0  0  0  0  0  0  0  0  0  0  0
   -5.0376    4.6020   -0.2533 O   0  0  0  0  0  0  0  0  0  0  0  0
   -4.6426    5.2865   -0.7949 H   0  0  0  0  0  0  0  0  0  0  0  0
   -4.5114    2.6582    1.0422 C   0  0  0  0  0  0  0  0  0  0  0  0
   -5.5235    2.6408    1.4176 H   0  0  0  0  0  0  0  0  0  0  0  0
   -3.5749    1.6911    1.4540 C   0  0  0  0  0  0  0  0  0  0  0  0
   -3.8667    0.9185    2.1554 H   0  0  0  0  0  0  0  0  0  0  0  0
    0.0555   -1.4090    0.6870 C   0  0  0  0  0  0  0  0  0  0  0  0
    0.8513   -1.7395   -0.1926 O   0  0  0  0  0  0  0  0  0  0  0  0
    0.1720   -1.8259    1.9541 N   0  0  0  0  0  0  0  0  0  0  0  0
   -0.5546   -1.5579    2.6020 H   0  0  0  0  0  0  0  0  0  0  0  0
    1.2347   -2.7036    2.4390 C   0  0  0  0  0  0  0  0  0  0  0  0
    2.2066   -2.3135    2.1319 H   0  0  0  0  0  0  0  0  0  0  0  0
    1.2011   -2.7686    3.5277 H   0  0  0  0  0  0  0  0  0  0  0  0
    1.1091   -3.7017    2.0142 H   0  0  0  0  0  0  0  0  0  0  0  0
  5  6  2  0  0  0  0
  5  7  1  0  0  0  0
  2  3  1  0  0  0  0
  2  4  1  0  0  0  0
  2  5  1  0  0  0  0
  1  2  1  0  0  0  0
 26 27  2  0  0  0  0
 26 28  1  0  0  0  0
 24 25  1  0  0  0  0
 22 23  1  0  0  0  0
 22 24  2  0  0  0  0
 20 21  1  0  0  0  0
 19 20  1  0  0  0  0
 19 22  1  0  0  0  0
 17 18  1  0  0  0  0
 17 19  2  0  0  0  0
 15 16  1  0  0  0  0
 15 17  1  0  0  0  0
 14 15  2  0  0  0  0
 14 24  1  0  0  0  0
 11 12  1  0  0  0  0
 11 13  1  0  0  0  0
 11 14  1  0  0  0  0
  9 10  1  0  0  0  0
  9 11  1  0  0  0  0
  9 26  1  0  0  0  0
  7  8  1  0  0  0  0
  7  9  1  0  0  0  0
 30 31  1  0  0  0  0
 30 32  1  0  0  0  0
 30 33  1  0  0  0  0
 28 29  1  0  0  0  0
 28 30  1  0  0  0  0
M  END
$$$$
default_name
  -OEChem-01062215323D

 33 33  0     1  0  0  0  0  0999 V2000
   -4.0702   -3.8485    1.4554 H   0  0  0  0  0  0  0  0  0  0  0  0
   -4.0012   -2.9605    0.8284 C   0  0  0  0  0  0  0  0  0  0  0  0
   -4.7652   -2.2435    1.1234 H   0  0  0  0  0  0  0  0  0  0  0  0
   -4.1352   -3.2385   -0.2156 H   0  0  0  0  0  0  0  0  0  0  0  0
   -2.6362   -2.3395    1.0094 C   0  0  0  0  0  0  0  0  0  0  0  0
   -1.8292   -2.8395    1.7814 O   0  0  0  0  0  0  0  0  0  0  0  0
   -2.3832   -1.2445    0.2964 N   0  0  0  0  0  0  0  0  0  0  0  0
   -3.1102   -0.8685   -0.2946 H   0  0  0  0  0  0  0  0  0  0  0  0
   -1.1292   -0.4875    0.3524 C   0  0  1  0  0  0  0  0  0  0  0  0
   -0.9435   -0.0510   -0.6297 H   0  0  0  0  0  0  0  0  0  0  0  0
   -1.2684    0.6566    1.3715 C   0  0  0  0  0  0  0  0  0  0  0  0
   -1.5959    0.2429    2.3262 H   0  0  0  0  0  0  0  0  0  0  0  0
   -0.2883    1.1093    1.5306 H   0  0  0  0  0  0  0  0  0  0  0  0
   -2.2567    1.7307    0.9600 C   0  0  0  0  0  0  0  0  0  0  0  0
   -1.8743    2.7394    0.0531 C   0  0  0  0  0  0  0  0  0  0  0  0
   -0.8638    2.7655   -0.3330 H   0  0  0  0  0  0  0  0  0  0  0  0
   -2.8078    3.7111   -0.3572 C   0  0  0  0  0  0  0  0  0  0  0  0
   -2.5111    4.4831   -1.0506 H   0  0  0  0  0  0  0  0  0  0  0  0
   -4.1292    3.6712    0.1386 C   0  0  0  0  0  0  0  0  0  0  0  0
   -5.0376    4.6020   -0.2533 O   0  0  0  0  0  0  0  0  0  0  0  0
   -4.6426    5.2865   -0.7949 H   0  0  0  0  0  0  0  0  0  0  0  0
   -4.5114    2.6582    1.0422 C   0  0  0  0  0  0  0  0  0  0  0  0
   -5.5235    2.6408    1.4176 H   0  0  0  0  0  0  0  0  0  0  0  0
   -3.5749    1.6911    1.4540 C   0  0  0  0  0  0  0  0  0  0  0  0
   -3.8667    0.9185    2.1554 H   0  0  0  0  0  0  0  0  0  0  0  0
    0.0555   -1.4090    0.6870 C   0  0  0  0  0  0  0  0  0  0  0  0
    0.9955   -1.5207   -0.1005 O   0  0  0  0  0  0  0  0  0  0  0  0
    0.0111   -2.0704    1.8505 N   0  0  0  0  0  0  0  0  0  0  0  0
   -0.8215   -1.9697    2.4127 H   0  0  0  0  0  0  0  0  0  0  0  0
    1.0499   -2.9846    2.3193 C   0  0  0  0  0  0  0  0  0  0  0  0
    2.0261   -2.5010    2.2546 H   0  0  0  0  0  0  0  0  0  0  0  0
    0.8588   -3.2715    3.3547 H   0  0  0  0  0  0  0  0  0  0  0  0
    1.0614   -3.8794    1.6936 H   0  0  0  0  0  0  0  0  0  0  0  0
  5  6  2  0  0  0  0
  5  7  1  0  0  0  0
  2  3  1  0  0  0  0
  2  4  1  0  0  0  0
  2  5  1  0  0  0  0
  1  2  1  0  0  0  0
 26 27  2  0  0  0  0
 26 28  1  0  0  0  0
 24 25  1  0  0  0  0
 22 23  1  0  0  0  0
 22 24  2  0  0  0  0
 20 21  1  0  0  0  0
 19 20  1  0  0  0  0
 19 22  1  0  0  0  0
 17 18  1  0  0  0  0
 17 19  2  0  0  0  0
 15 16  1  0  0  0  0
 15 17  1  0  0  0  0
 14 15  2  0  0  0  0
 14 24  1  0  0  0  0
 11 12  1  0  0  0  0
 11 13  1  0  0  0  0
 11 14  1  0  0  0  0
  9 10  1  0  0  0  0
  9 11  1  0  0  0  0
  9 26  1  0  0  0  0
  7  8  1  0  0  0  0
  7  9  1  0  0  0  0
 30 31  1  0  0  0  0
 30 32  1  0  0  0  0
 30 33  1  0  0  0  0
 28 29  1  0  0  0  0
 28 30  1  0  0  0  0
M  END
$$$$
default_name
  -OEChem-01062215323D

 33 33  0     1  0  0  0  0  0999 V2000
   -4.0702   -3.8485    1.4554 H   0  0  0  0  0  0  0  0  0  0  0  0
   -4.0012   -2.9605    0.8284 C   0  0  0  0  0  0  0  0  0  0  0  0
   -4.7652   -2.2435    1.1234 H   0  0  0  0  0  0  0  0  0  0  0  0
   -4.1352   -3.2385   -0.2156 H   0  0  0  0  0  0  0  0  0  0  0  0
   -2.6362   -2.3395    1.0094 C   0  0  0  0  0  0  0  0  0  0  0  0
   -1.8292   -2.8395    1.7814 O   0  0  0  0  0  0  0  0  0  0  0  0
   -2.3832   -1.2445    0.2964 N   0  0  0  0  0  0  0  0  0  0  0  0
   -3.1102   -0.8685   -0.2946 H   0  0  0  0  0  0  0  0  0  0  0  0
   -1.1292   -0.4875    0.3524 C   0  0  1  0  0  0  0  0  0  0  0  0
   -0.9435   -0.0510   -0.6297 H   0  0  0  0  0  0  0  0  0  0  0  0
   -1.2684    0.6566    1.3715 C   0  0  0  0  0  0  0  0  0  0  0  0
   -1.5959    0.2429    2.3262 H   0  0  0  0  0  0  0  0  0  0  0  0
   -0.2883    1.1093    1.5306 H   0  0  0  0  0  0  0  0  0  0  0  0
   -2.2567    1.7307    0.9600 C   0  0  0  0  0  0  0  0  0  0  0  0
   -1.8743    2.7394    0.0531 C   0  0  0  0  0  0  0  0  0  0  0  0
   -0.8638    2.7655   -0.3330 H   0  0  0  0  0  0  0  0  0  0  0  0
   -2.8078    3.7111   -0.3572 C   0  0  0  0  0  0  0  0  0  0  0  0
   -2.5111    4.4831   -1.0506 H   0  0  0  0  0  0  0  0  0  0  0  0
   -4.1292    3.6712    0.1386 C   0  0  0  0  0  0  0  0  0  0  0  0
   -5.0376    4.6020   -0.2533 O   0  0  0  0  0  0  0  0  0  0  0  0
   -4.6426    5.2865   -0.7949 H   0  0  0  0  0  0  0  0  0  0  0  0
   -4.5114    2.6582    1.0422 C   0  0  0  0  0  0  0  0  0  0  0  0
   -5.5235    2.6408    1.4176 H   0  0  0  0  0  0  0  0  0  0  0  0
   -3.5749    1.6911    1.4540 C   0  0  0  0  0  0  0  0  0  0  0  0
   -3.8667    0.9185    2.1554 H   0  0  0  0  0  0  0  0  0  0  0  0
    0.0555   -1.4090    0.6870 C   0  0  0  0  0  0  0  0  0  0  0  0
    1.1081   -1.3196    0.0544 O   0  0  0  0  0  0  0  0  0  0  0  0
   -0.1144   -2.2949    1.6766 N   0  0  0  0  0  0  0  0  0  0  0  0
   -1.0268   -2.3448    2.1063 H   0  0  0  0  0  0  0  0  0  0  0  0
    0.9058   -3.2426    2.1191 C   0  0  0  0  0  0  0  0  0  0  0  0
    1.8433   -2.7167    2.3077 H   0  0  0  0  0  0  0  0  0  0  0  0
    0.5833   -3.7420    3.0342 H   0  0  0  0  0  0  0  0  0  0  0  0
    1.0751   -3.9898    1.3410 H   0  0  0  0  0  0  0  0  0  0  0  0
  5  6  2  0  0  0  0
  5  7  1  0  0  0  0
  2  3  1  0  0  0  0
  2  4  1  0  0  0  0
  2  5  1  0  0  0  0
  1  2  1  0  0  0  0
 26 27  2  0  0  0  0
 26 28  1  0  0  0  0
 24 25  1  0  0  0  0
 22 23  1  0  0  0  0
 22 24  2  0  0  0  0
 20 21  1  0  0  0  0
 19 20  1  0  0  0  0
 19 22  1  0  0  0  0
 17 18  1  0  0  0  0
 17 19  2  0  0  0  0
 15 16  1  0  0  0  0
 15 17  1  0  0  0  0
 14 15  2  0  0  0  0
 14 24  1  0  0  0  0
 11 12  1  0  0  0  0
 11 13  1  0  0  0  0
 11 14  1  0  0  0  0
  9 10  1  0  0  0  0
  9 11  1  0  0  0  0
  9 26  1  0  0  0  0
  7  8  1  0  0  0  0
  7  9  1  0  0  0  0
 30 31  1  0  0  0  0
 30 32  1  0  0  0  0
 30 33  1  0  0  0  0
 28 29  1  0  0  0  0
 28 30  1  0  0  0  0
M  END
$$$$
default_name
  -OEChem-01062215323D

 33 33  0     1  0  0  0  0  0999 V2000
   -4.0702   -3.8485    1.4554 H   0  0  0  0  0  0  0  0  0  0  0  0
   -4.0012   -2.9605    0.8284 C   0  0  0  0  0  0  0  0  0  0  0  0
   -4.7652   -2.2435    1.1234 H   0  0  0  0  0  0  0  0  0  0  0  0
   -4.1352   -3.2385   -0.2156 H   0  0  0  0  0  0  0  0  0  0  0  0
   -2.6362   -2.3395    1.0094 C   0  0  0  0  0  0  0  0  0  0  0  0
   -1.8292   -2.8395    1.7814 O   0  0  0  0  0  0  0  0  0  0  0  0
   -2.3832   -1.2445    0.2964 N   0  0  0  0  0  0  0  0  0  0  0  0
   -3.1102   -0.8685   -0.2946 H   0  0  0  0  0  0  0  0  0  0  0  0
   -1.1292   -0.4875    0.3524 C   0  0  1  0  0  0  0  0  0  0  0  0
   -0.9435   -0.0510   -0.6297 H   0  0  0  0  0  0  0  0  0  0  0  0
   -1.2684    0.6566    1.3715 C   0  0  0  0  0  0  0  0  0  0  0  0
   -1.5959    0.2429    2.3262 H   0  0  0  0  0  0  0  0  0  0  0  0
   -0.2883    1.1093    1.5306 H   0  0  0  0  0  0  0  0  0  0  0  0
   -2.2567    1.7307    0.9600 C   0  0  0  0  0  0  0  0  0  0  0  0
   -1.8743    2.7394    0.0531 C   0  0  0  0  0  0  0  0  0  0  0  0
   -0.8638    2.7655   -0.3330 H   0  0  0  0  0  0  0  0  0  0  0  0
   -2.8078    3.7111   -0.3572 C   0  0  0  0  0  0  0  0  0  0  0  0
   -2.5111    4.4831   -1.0506 H   0  0  0  0  0  0  0  0  0  0  0  0
   -4.1292    3.6712    0.1386 C   0  0  0  0  0  0  0  0  0  0  0  0
   -5.0376    4.6020   -0.2533 O   0  0  0  0  0  0  0  0  0  0  0  0
   -4.6426    5.2865   -0.7949 H   0  0  0  0  0  0  0  0  0  0  0  0
   -4.5114    2.6582    1.0422 C   0  0  0  0  0  0  0  0  0  0  0  0
   -5.5235    2.6408    1.4176 H   0  0  0  0  0  0  0  0  0  0  0  0
   -3.5749    1.6911    1.4540 C   0  0  0  0  0  0  0  0  0  0  0  0
   -3.8667    0.9185    2.1554 H   0  0  0  0  0  0  0  0  0  0  0  0
    0.0555   -1.4090    0.6870 C   0  0  0  0  0  0  0  0  0  0  0  0
    1.1816   -1.1499    0.2617 O   0  0  0  0  0  0  0  0  0  0  0  0
   -0.1961   -2.4842    1.4445 N   0  0  0  0  0  0  0  0  0  0  0  0
   -1.1564   -2.6576    1.7037 H   0  0  0  0  0  0  0  0  0  0  0  0
    0.8122   -3.4600    1.8519 C   0  0  0  0  0  0  0  0  0  0  0  0
    1.6706   -2.9460    2.2877 H   0  0  0  0  0  0  0  0  0  0  0  0
    0.3934   -4.1481    2.5880 H   0  0  0  0  0  0  0  0  0  0  0  0
    1.1492   -4.0254    0.9806 H   0  0  0  0  0  0  0  0  0  0  0  0
  5  6  2  0  0  0  0
  5  7  1  0  0  0  0
  2  3  1  0  0  0  0
  2  4  1  0  0  0  0
  2  5  1  0  0  0  0
  1  2  1  0  0  0  0
 26 27  2  0  0  0  0
 26 28  1  0  0  0  0
 24 25  1  0  0  0  0
 22 23  1  0  0  0  0
 22 24  2  0  0  0  0
 20 21  1  0  0  0  0
 19 20  1  0  0  0  0
 19 22  1  0  0  0  0
 17 18  1  0  0  0  0
 17 19  2  0  0  0  0
 15 16  1  0  0  0  0
 15 17  1  0  0  0  0
 14 15  2  0  0  0  0
 14 24  1  0  0  0  0
 11 12  1  0  0  0  0
 11 13  1  0  0  0  0
 11 14  1  0  0  0  0
  9 10  1  0  0  0  0
  9 11  1  0  0  0  0
  9 26  1  0  0  0  0
  7  8  1  0  0  0  0
  7  9  1  0  0  0  0
 30 31  1  0  0  0  0
 30 32  1  0  0  0  0
 30 33  1  0  0  0  0
 28 29  1  0  0  0  0
 28 30  1  0  0  0  0
M  END
$$$$
default_name
  -OEChem-01062215323D

 33 33  0     1  0  0  0  0  0999 V2000
   -4.0702   -3.8485    1.4554 H   0  0  0  0  0  0  0  0  0  0  0  0
   -4.0012   -2.9605    0.8284 C   0  0  0  0  0  0  0  0  0  0  0  0
   -4.7652   -2.2435    1.1234 H   0  0  0  0  0  0  0  0  0  0  0  0
   -4.1352   -3.2385   -0.2156 H   0  0  0  0  0  0  0  0  0  0  0  0
   -2.6362   -2.3395    1.0094 C   0  0  0  0  0  0  0  0  0  0  0  0
   -1.8292   -2.8395    1.7814 O   0  0  0  0  0  0  0  0  0  0  0  0
   -2.3832   -1.2445    0.2964 N   0  0  0  0  0  0  0  0  0  0  0  0
   -3.1102   -0.8685   -0.2946 H   0  0  0  0  0  0  0  0  0  0  0  0
   -1.1292   -0.4875    0.3524 C   0  0  1  0  0  0  0  0  0  0  0  0
   -0.9435   -0.0510   -0.6297 H   0  0  0  0  0  0  0  0  0  0  0  0
   -1.2684    0.6566    1.3715 C   0  0  0  0  0  0  0  0  0  0  0  0
   -1.5959    0.2429    2.3262 H   0  0  0  0  0  0  0  0  0  0  0  0
   -0.2883    1.1093    1.5306 H   0  0  0  0  0  0  0  0  0  0  0  0
   -2.2567    1.7307    0.9600 C   0  0  0  0  0  0  0  0  0  0  0  0
   -1.8743    2.7394    0.0531 C   0  0  0  0  0  0  0  0  0  0  0  0
   -0.8638    2.7655   -0.3330 H   0  0  0  0  0  0  0  0  0  0  0  0
   -2.8078    3.7111   -0.3572 C   0  0  0  0  0  0  0  0  0  0  0  0
   -2.5111    4.4831   -1.0506 H   0  0  0  0  0  0  0  0  0  0  0  0
   -4.1292    3.6712    0.1386 C   0  0  0  0  0  0  0  0  0  0  0  0
   -5.0376    4.6020   -0.2533 O   0  0  0  0  0  0  0  0  0  0  0  0
   -4.6426    5.2865   -0.7949 H   0  0  0  0  0  0  0  0  0  0  0  0
   -4.5114    2.6582    1.0422 C   0  0  0  0  0  0  0  0  0  0  0  0
   -5.5235    2.6408    1.4176 H   0  0  0  0  0  0  0  0  0  0  0  0
   -3.5749    1.6911    1.4540 C   0  0  0  0  0  0  0  0  0  0  0  0
   -3.8667    0.9185    2.1554 H   0  0  0  0  0  0  0  0  0  0  0  0
    0.0555   -1.4090    0.6870 C   0  0  0  0  0  0  0  0  0  0  0  0
    1.2109   -1.0232    0.5071 O   0  0  0  0  0  0  0  0  0  0  0  0
   -0.2283   -2.6253    1.1698 N   0  0  0  0  0  0  0  0  0  0  0  0
   -1.2015   -2.8868    1.2324 H   0  0  0  0  0  0  0  0  0  0  0  0
    0.7754   -3.6219    1.5359 C   0  0  0  0  0  0  0  0  0  0  0  0
    1.5198   -3.1732    2.1958 H   0  0  0  0  0  0  0  0  0  0  0  0
    0.3021   -4.4621    2.0467 H   0  0  0  0  0  0  0  0  0  0  0  0
    1.2787   -3.9837    0.6369 H   0  0  0  0  0  0  0  0  0  0  0  0
  5  6  2  0  0  0  0
  5  7  1  0  0  0  0
  2  3  1  0  0  0  0
  2  4  1  0  0  0  0
  2  5  1  0  0  0  0
  1  2  1  0  0  0  0
 26 27  2  0  0  0  0
 26 28  1  0  0  0  0
 24 25  1  0  0  0  0
 22 23  1  0  0  0  0
 22 24  2  0  0  0  0
 20 21  1  0  0  0  0
 19 20  1  0  0  0  0
 19 22  1  0  0  0  0
 17 18  1  0  0  0  0
 17 19  2  0  0  0  0
 15 16  1  0  0  0  0
 15 17  1  0  0  0  0
 14 15  2  0  0  0  0
 14 24  1  0  0  0  0
 11 12  1  0  0  0  0
 11 13  1  0  0  0  0
 11 14  1  0  0  0  0
  9 10  1  0  0  0  0
  9 11  1  0  0  0  0
  9 26  1  0  0  0  0
  7  8  1  0  0  0  0
  7  9  1  0  0  0  0
 30 31  1  0  0  0  0
 30 32  1  0  0  0  0
 30 33  1  0  0  0  0
 28 29  1  0  0  0  0
 28 30  1  0  0  0  0
M  END
$$$$
default_name
  -OEChem-01062215323D

 33 33  0     1  0  0  0  0  0999 V2000
   -4.0702   -3.8485    1.4554 H   0  0  0  0  0  0  0  0  0  0  0  0
   -4.0012   -2.9605    0.8284 C   0  0  0  0  0  0  0  0  0  0  0  0
   -4.7652   -2.2435    1.1234 H   0  0  0  0  0  0  0  0  0  0  0  0
   -4.1352   -3.2385   -0.2156 H   0  0  0  0  0  0  0  0  0  0  0  0
   -2.6362   -2.3395    1.0094 C   0  0  0  0  0  0  0  0  0  0  0  0
   -1.8292   -2.8395    1.7814 O   0  0  0  0  0  0  0  0  0  0  0  0
   -2.3832   -1.2445    0.2964 N   0  0  0  0  0  0  0  0  0  0  0  0
   -3.1102   -0.8685   -0.2946 H   0  0  0  0  0  0  0  0  0  0  0  0
   -1.1292   -0.4875    0.3524 C   0  0  1  0  0  0  0  0  0  0  0  0
   -0.9435   -0.0510   -0.6297 H   0  0  0  0  0  0  0  0  0  0  0  0
   -1.2684    0.6566    1.3715 C   0  0  0  0  0  0  0  0  0  0  0  0
   -1.5959    0.2429    2.3262 H   0  0  0  0  0  0  0  0  0  0  0  0
   -0.2883    1.1093    1.5306 H   0  0  0  0  0  0  0  0  0  0  0  0
   -2.2567    1.7307    0.9600 C   0  0  0  0  0  0  0  0  0  0  0  0
   -1.8743    2.7394    0.0531 C   0  0  0  0  0  0  0  0  0  0  0  0
   -0.8638    2.7655   -0.3330 H   0  0  0  0  0  0  0  0  0  0  0  0
   -2.8078    3.7111   -0.3572 C   0  0  0  0  0  0  0  0  0  0  0  0
   -2.5111    4.4831   -1.0506 H   0  0  0  0  0  0  0  0  0  0  0  0
   -4.1292    3.6712    0.1386 C   0  0  0  0  0  0  0  0  0  0  0  0
   -5.0376    4.6020   -0.2533 O   0  0  0  0  0  0  0  0  0  0  0  0
   -4.6426    5.2865   -0.7949 H   0  0  0  0  0  0  0  0  0  0  0  0
   -4.5114    2.6582    1.0422 C   0  0  0  0  0  0  0  0  0  0  0  0
   -5.5235    2.6408    1.4176 H   0  0  0  0  0  0  0  0  0  0  0  0
   -3.5749    1.6911    1.4540 C   0  0  0  0  0  0  0  0  0  0  0  0
   -3.8667    0.9185    2.1554 H   0  0  0  0  0  0  0  0  0  0  0  0
    0.0555   -1.4090    0.6870 C   0  0  0  0  0  0  0  0  0  0  0  0
    1.1940   -0.9481    0.7739 O   0  0  0  0  0  0  0  0  0  0  0  0
   -0.2089   -2.7087    0.8714 N   0  0  0  0  0  0  0  0  0  0  0  0
   -1.1591   -3.0167    0.7245 H   0  0  0  0  0  0  0  0  0  0  0  0
    0.7981   -3.7174    1.1927 C   0  0  0  0  0  0  0  0  0  0  0  0
    1.4013   -3.3828    2.0384 H   0  0  0  0  0  0  0  0  0  0  0  0
    0.3155   -4.6625    1.4470 H   0  0  0  0  0  0  0  0  0  0  0  0
    1.4547   -3.8677    0.3333 H   0  0  0  0  0  0  0  0  0  0  0  0
  5  6  2  0  0  0  0
  5  7  1  0  0  0  0
  2  3  1  0  0  0  0
  2  4  1  0  0  0  0
  2  5  1  0  0  0  0
  1  2  1  0  0  0  0
 26 27  2  0  0  0  0
 26 28  1  0  0  0  0
 24 25  1  0  0  0  0
 22 23  1  0  0  0  0
 22 24  2  0  0  0  0
 20 21  1  0  0  0  0
 19 20  1  0  0  0  0
 19 22  1  0  0  0  0
 17 18  1  0  0  0  0
 17 19  2  0  0  0  0
 15 16  1  0  0  0  0
 15 17  1  0  0  0  0
 14 15  2  0  0  0  0
 14 24  1  0  0  0  0
 11 12  1  0  0  0  0
 11 13  1  0  0  0  0
 11 14  1  0  0  0  0
  9 10  1  0  0  0  0
  9 11  1  0  0  0  0
  9 26  1  0  0  0  0
  7  8  1  0  0  0  0
  7  9  1  0  0  0  0
 30 31  1  0  0  0  0
 30 32  1  0  0  0  0
 30 33  1  0  0  0  0
 28 29  1  0  0  0  0
 28 30  1  0  0  0  0
M  END
$$$$
default_name
  -OEChem-01062215323D

 33 33  0     1  0  0  0  0  0999 V2000
   -4.0702   -3.8485    1.4554 H   0  0  0  0  0  0  0  0  0  0  0  0
   -4.0012   -2.9605    0.8284 C   0  0  0  0  0  0  0  0  0  0  0  0
   -4.7652   -2.2435    1.1234 H   0  0  0  0  0  0  0  0  0  0  0  0
   -4.1352   -3.2385   -0.2156 H   0  0  0  0  0  0  0  0  0  0  0  0
   -2.6362   -2.3395    1.0094 C   0  0  0  0  0  0  0  0  0  0  0  0
   -1.8292   -2.8395    1.7814 O   0  0  0  0  0  0  0  0  0  0  0  0
   -2.3832   -1.2445    0.2964 N   0  0  0  0  0  0  0  0  0  0  0  0
   -3.1102   -0.8685   -0.2946 H   0  0  0  0  0  0  0  0  0  0  0  0
   -1.1292   -0.4875    0.3524 C   0  0  1  0  0  0  0  0  0  0  0  0
   -0.9435   -0.0510   -0.6297 H   0  0  0  0  0  0  0  0  0  0  0  0
   -1.2684    0.6566    1.3715 C   0  0  0  0  0  0  0  0  0  0  0  0
   -1.5959    0.2429    2.3262 H   0  0  0  0  0  0  0  0  0  0  0  0
   -0.2883    1.1093    1.5306 H   0  0  0  0  0  0  0  0  0  0  0  0
   -2.2567    1.7307    0.9600 C   0  0  0  0  0  0  0  0  0  0  0  0
   -1.8743    2.7394    0.0531 C   0  0  0  0  0  0  0  0  0  0  0  0
   -0.8638    2.7655   -0.3330 H   0  0  0  0  0  0  0  0  0  0  0  0
   -2.8078    3.7111   -0.3572 C   0  0  0  0  0  0  0  0  0  0  0  0
   -2.5111    4.4831   -1.0506 H   0  0  0  0  0  0  0  0  0  0  0  0
   -4.1292    3.6712    0.1386 C   0  0  0  0  0  0  0  0  0  0  0  0
   -5.0376    4.6020   -0.2533 O   0  0  0  0  0  0  0  0  0  0  0  0
   -4.6426    5.2865   -0.7949 H   0  0  0  0  0  0  0  0  0  0  0  0
   -4.5114    2.6582    1.0422 C   0  0  0  0  0  0  0  0  0  0  0  0
   -5.5235    2.6408    1.4176 H   0  0  0  0  0  0  0  0  0  0  0  0
   -3.5749    1.6911    1.4540 C   0  0  0  0  0  0  0  0  0  0  0  0
   -3.8667    0.9185    2.1554 H   0  0  0  0  0  0  0  0  0  0  0  0
    0.0555   -1.4090    0.6870 C   0  0  0  0  0  0  0  0  0  0  0  0
    1.1320   -0.9296    1.0441 O   0  0  0  0  0  0  0  0  0  0  0  0
   -0.1391   -2.7286    0.5695 N   0  0  0  0  0  0  0  0  0  0  0  0
   -1.0321   -3.0385    0.2145 H   0  0  0  0  0  0  0  0  0  0  0  0
    0.8785   -3.7400    0.8456 C   0  0  0  0  0  0  0  0  0  0  0  0
    1.3229   -3.5605    1.8262 H   0  0  0  0  0  0  0  0  0  0  0  0
    0.4328   -4.7359    0.8298 H   0  0  0  0  0  0  0  0  0  0  0  0
    1.6653   -3.6851    0.0904 H   0  0  0  0  0  0  0  0  0  0  0  0
  5  6  2  0  0  0  0
  5  7  1  0  0  0  0
  2  3  1  0  0  0  0
  2  4  1  0  0  0  0
  2  5  1  0  0  0  0
  1  2  1  0  0  0  0
 26 27  2  0  0  0  0
 26 28  1  0  0  0  0
 24 25  1  0  0  0  0
 22 23  1  0  0  0  0
 22 24  2  0  0  0  0
 20 21  1  0  0  0  0
 19 20  1  0  0  0  0
 19 22  1  0  0  0  0
 17 18  1  0  0  0  0
 17 19  2  0  0  0  0
 15 16  1  0  0  0  0
 15 17  1  0  0  0  0
 14 15  2  0  0  0  0
 14 24  1  0  0  0  0
 11 12  1  0  0  0  0
 11 13  1  0  0  0  0
 11 14  1  0  0  0  0
  9 10  1  0  0  0  0
  9 11  1  0  0  0  0
  9 26  1  0  0  0  0
  7  8  1  0  0  0  0
  7  9  1  0  0  0  0
 30 31  1  0  0  0  0
 30 32  1  0  0  0  0
 30 33  1  0  0  0  0
 28 29  1  0  0  0  0
 28 30  1  0  0  0  0
M  END
$$$$
default_name
  -OEChem-01062215323D

 33 33  0     1  0  0  0  0  0999 V2000
   -4.0702   -3.8485    1.4554 H   0  0  0  0  0  0  0  0  0  0  0  0
   -4.0012   -2.9605    0.8284 C   0  0  0  0  0  0  0  0  0  0  0  0
   -4.7652   -2.2435    1.1234 H   0  0  0  0  0  0  0  0  0  0  0  0
   -4.1352   -3.2385   -0.2156 H   0  0  0  0  0  0  0  0  0  0  0  0
   -2.6362   -2.3395    1.0094 C   0  0  0  0  0  0  0  0  0  0  0  0
   -1.8292   -2.8395    1.7814 O   0  0  0  0  0  0  0  0  0  0  0  0
   -2.3832   -1.2445    0.2964 N   0  0  0  0  0  0  0  0  0  0  0  0
   -3.1102   -0.8685   -0.2946 H   0  0  0  0  0  0  0  0  0  0  0  0
   -1.1292   -0.4875    0.3524 C   0  0  1  0  0  0  0  0  0  0  0  0
   -0.9435   -0.0510   -0.6297 H   0  0  0  0  0  0  0  0  0  0  0  0
   -1.2684    0.6566    1.3715 C   0  0  0  0  0  0  0  0  0  0  0  0
   -1.5959    0.2429    2.3262 H   0  0  0  0  0  0  0  0  0  0  0  0
   -0.2883    1.1093    1.5306 H   0  0  0  0  0  0  0  0  0  0  0  0
   -2.2567    1.7307    0.9600 C   0  0  0  0  0  0  0  0  0  0  0  0
   -1.8743    2.7394    0.0531 C   0  0  0  0  0  0  0  0  0  0  0  0
   -0.8638    2.7655   -0.3330 H   0  0  0  0  0  0  0  0  0  0  0  0
   -2.8078    3.7111   -0.3572 C   0  0  0  0  0  0  0  0  0  0  0  0
   -2.5111    4.4831   -1.0506 H   0  0  0  0  0  0  0  0  0  0  0  0
   -4.1292    3.6712    0.1386 C   0  0  0  0  0  0  0  0  0  0  0  0
   -5.0376    4.6020   -0.2533 O   0  0  0  0  0  0  0  0  0  0  0  0
   -4.6426    5.2865   -0.7949 H   0  0  0  0  0  0  0  0  0  0  0  0
   -4.5114    2.6582    1.0422 C   0  0  0  0  0  0  0  0  0  0  0  0
   -5.5235    2.6408    1.4176 H   0  0  0  0  0  0  0  0  0  0  0  0
   -3.5749    1.6911    1.4540 C   0  0  0  0  0  0  0  0  0  0  0  0
   -3.8667    0.9185    2.1554 H   0  0  0  0  0  0  0  0  0  0  0  0
    0.0555   -1.4090    0.6870 C   0  0  0  0  0  0  0  0  0  0  0  0
    1.0292   -0.9692    1.2990 O   0  0  0  0  0  0  0  0  0  0  0  0
   -0.0238   -2.6837    0.2848 N   0  0  0  0  0  0  0  0  0  0  0  0
   -0.8290   -2.9508   -0.2628 H   0  0  0  0  0  0  0  0  0  0  0  0
    1.0114   -3.6880    0.5184 C   0  0  0  0  0  0  0  0  0  0  0  0
    1.2902   -3.6943    1.5735 H   0  0  0  0  0  0  0  0  0  0  0  0
    0.6459   -4.6770    0.2372 H   0  0  0  0  0  0  0  0  0  0  0  0
    1.8961   -3.4485   -0.0751 H   0  0  0  0  0  0  0  0  0  0  0  0
  5  6  2  0  0  0  0
  5  7  1  0  0  0  0
  2  3  1  0  0  0  0
  2  4  1  0  0  0  0
  2  5  1  0  0  0  0
  1  2  1  0  0  0  0
 26 27  2  0  0  0  0
 26 28  1  0  0  0  0
 24 25  1  0  0  0  0
 22 23  1  0  0  0  0
 22 24  2  0  0  0  0
 20 21  1  0  0  0  0
 19 20  1  0  0  0  0
 19 22  1  0  0  0  0
 17 18  1  0  0  0  0
 17 19  2  0  0  0  0
 15 16  1  0  0  0  0
 15 17  1  0  0  0  0
 14 15  2  0  0  0  0
 14 24  1  0  0  0  0
 11 12  1  0  0  0  0
 11 13  1  0  0  0  0
 11 14  1  0  0  0  0
  9 10  1  0  0  0  0
  9 11  1  0  0  0  0
  9 26  1  0  0  0  0
  7  8  1  0  0  0  0
  7  9  1  0  0  0  0
 30 31  1  0  0  0  0
 30 32  1  0  0  0  0
 30 33  1  0  0  0  0
 28 29  1  0  0  0  0
 28 30  1  0  0  0  0
M  END
$$$$
default_name
  -OEChem-01062215323D

 33 33  0     1  0  0  0  0  0999 V2000
   -4.0702   -3.8485    1.4554 H   0  0  0  0  0  0  0  0  0  0  0  0
   -4.0012   -2.9605    0.8284 C   0  0  0  0  0  0  0  0  0  0  0  0
   -4.7652   -2.2435    1.1234 H   0  0  0  0  0  0  0  0  0  0  0  0
   -4.1352   -3.2385   -0.2156 H   0  0  0  0  0  0  0  0  0  0  0  0
   -2.6362   -2.3395    1.0094 C   0  0  0  0  0  0  0  0  0  0  0  0
   -1.8292   -2.8395    1.7814 O   0  0  0  0  0  0  0  0  0  0  0  0
   -2.3832   -1.2445    0.2964 N   0  0  0  0  0  0  0  0  0  0  0  0
   -3.1102   -0.8685   -0.2946 H   0  0  0  0  0  0  0  0  0  0  0  0
   -1.1292   -0.4875    0.3524 C   0  0  1  0  0  0  0  0  0  0  0  0
   -0.9435   -0.0510   -0.6297 H   0  0  0  0  0  0  0  0  0  0  0  0
   -1.2684    0.6566    1.3715 C   0  0  0  0  0  0  0  0  0  0  0  0
   -1.5959    0.2429    2.3262 H   0  0  0  0  0  0  0  0  0  0  0  0
   -0.2883    1.1093    1.5306 H   0  0  0  0  0  0  0  0  0  0  0  0
   -2.2567    1.7307    0.9600 C   0  0  0  0  0  0  0  0  0  0  0  0
   -1.8743    2.7394    0.0531 C   0  0  0  0  0  0  0  0  0  0  0  0
   -0.8638    2.7655   -0.3330 H   0  0  0  0  0  0  0  0  0  0  0  0
   -2.8078    3.7111   -0.3572 C   0  0  0  0  0  0  0  0  0  0  0  0
   -2.5111    4.4831   -1.0506 H   0  0  0  0  0  0  0  0  0  0  0  0
   -4.1292    3.6712    0.1386 C   0  0  0  0  0  0  0  0  0  0  0  0
   -5.0376    4.6020   -0.2533 O   0  0  0  0  0  0  0  0  0  0  0  0
   -4.6426    5.2865   -0.7949 H   0  0  0  0  0  0  0  0  0  0  0  0
   -4.5114    2.6582    1.0422 C   0  0  0  0  0  0  0  0  0  0  0  0
   -5.5235    2.6408    1.4176 H   0  0  0  0  0  0  0  0  0  0  0  0
   -3.5749    1.6911    1.4540 C   0  0  0  0  0  0  0  0  0  0  0  0
   -3.8667    0.9185    2.1554 H   0  0  0  0  0  0  0  0  0  0  0  0
    0.0555   -1.4090    0.6870 C   0  0  0  0  0  0  0  0  0  0  0  0
    0.8926   -1.0641    1.5215 O   0  0  0  0  0  0  0  0  0  0  0  0
    0.1292   -2.5771    0.0366 N   0  0  0  0  0  0  0  0  0  0  0  0
   -0.5638   -2.7594   -0.6748 H   0  0  0  0  0  0  0  0  0  0  0  0
    1.1875   -3.5651    0.2333 C   0  0  0  0  0  0  0  0  0  0  0  0
    1.3053   -3.7750    1.2978 H   0  0  0  0  0  0  0  0  0  0  0  0
    0.9403   -4.4900   -0.2903 H   0  0  0  0  0  0  0  0  0  0  0  0
    2.1314   -3.1739   -0.1519 H   0  0  0  0  0  0  0  0  0  0  0  0
  5  6  2  0  0  0  0
  5  7  1  0  0  0  0
  2  3  1  0  0  0  0
  2  4  1  0  0  0  0
  2  5  1  0  0  0  0
  1  2  1  0  0  0  0
 26 27  2  0  0  0  0
 26 28  1  0  0  0  0
 24 25  1  0  0  0  0
 22 23  1  0  0  0  0
 22 24  2  0  0  0  0
 20 21  1  0  0  0  0
 19 20  1  0  0  0  0
 19 22  1  0  0  0  0
 17 18  1  0  0  0  0
 17 19  2  0  0  0  0
 15 16  1  0  0  0  0
 15 17  1  0  0  0  0
 14 15  2  0  0  0  0
 14 24  1  0  0  0  0
 11 12  1  0  0  0  0
 11 13  1  0  0  0  0
 11 14  1  0  0  0  0
  9 10  1  0  0  0  0
  9 11  1  0  0  0  0
  9 26  1  0  0  0  0
  7  8  1  0  0  0  0
  7  9  1  0  0  0  0
 30 31  1  0  0  0  0
 30 32  1  0  0  0  0
 30 33  1  0  0  0  0
 28 29  1  0  0  0  0
 28 30  1  0  0  0  0
M  END
$$$$
default_name
  -OEChem-01062215323D

 33 33  0     1  0  0  0  0  0999 V2000
   -4.0702   -3.8485    1.4554 H   0  0  0  0  0  0  0  0  0  0  0  0
   -4.0012   -2.9605    0.8284 C   0  0  0  0  0  0  0  0  0  0  0  0
   -4.7652   -2.2435    1.1234 H   0  0  0  0  0  0  0  0  0  0  0  0
   -4.1352   -3.2385   -0.2156 H   0  0  0  0  0  0  0  0  0  0  0  0
   -2.6362   -2.3395    1.0094 C   0  0  0  0  0  0  0  0  0  0  0  0
   -1.8292   -2.8395    1.7814 O   0  0  0  0  0  0  0  0  0  0  0  0
   -2.3832   -1.2445    0.2964 N   0  0  0  0  0  0  0  0  0  0  0  0
   -3.1102   -0.8685   -0.2946 H   0  0  0  0  0  0  0  0  0  0  0  0
   -1.1292   -0.4875    0.3524 C   0  0  1  0  0  0  0  0  0  0  0  0
   -0.9435   -0.0510   -0.6297 H   0  0  0  0  0  0  0  0  0  0  0  0
   -1.2684    0.6566    1.3715 C   0  0  0  0  0  0  0  0  0  0  0  0
   -1.5959    0.2429    2.3262 H   0  0  0  0  0  0  0  0  0  0  0  0
   -0.2883    1.1093    1.5306 H   0  0  0  0  0  0  0  0  0  0  0  0
   -2.2567    1.7307    0.9600 C   0  0  0  0  0  0  0  0  0  0  0  0
   -1.8743    2.7394    0.0531 C   0  0  0  0  0  0  0  0  0  0  0  0
   -0.8638    2.7655   -0.3330 H   0  0  0  0  0  0  0  0  0  0  0  0
   -2.8078    3.7111   -0.3572 C   0  0  0  0  0  0  0  0  0  0  0  0
   -2.5111    4.4831   -1.0506 H   0  0  0  0  0  0  0  0  0  0  0  0
   -4.1292    3.6712    0.1386 C   0  0  0  0  0  0  0  0  0  0  0  0
   -5.0376    4.6020   -0.2533 O   0  0  0  0  0  0  0  0  0  0  0  0
   -4.6426    5.2865   -0.7949 H   0  0  0  0  0  0  0  0  0  0  0  0
   -4.5114    2.6582    1.0422 C   0  0  0  0  0  0  0  0  0  0  0  0
   -5.5235    2.6408    1.4176 H   0  0  0  0  0  0  0  0  0  0  0  0
   -3.5749    1.6911    1.4540 C   0  0  0  0  0  0  0  0  0  0  0  0
   -3.8667    0.9185    2.1554 H   0  0  0  0  0  0  0  0  0  0  0  0
    0.0555   -1.4090    0.6870 C   0  0  0  0  0  0  0  0  0  0  0  0
    0.7315   -1.2077    1.6963 O   0  0  0  0  0  0  0  0  0  0  0  0
    0.3095   -2.4160   -0.1582 N   0  0  0  0  0  0  0  0  0  0  0  0
   -0.2545   -2.4775   -0.9934 H   0  0  0  0  0  0  0  0  0  0  0  0
    1.3949   -3.3796    0.0097 C   0  0  0  0  0  0  0  0  0  0  0  0
    1.3672   -3.7972    1.0177 H   0  0  0  0  0  0  0  0  0  0  0  0
    1.2960   -4.1876   -0.7170 H   0  0  0  0  0  0  0  0  0  0  0  0
    2.3551   -2.8801   -0.1349 H   0  0  0  0  0  0  0  0  0  0  0  0
  5  6  2  0  0  0  0
  5  7  1  0  0  0  0
  2  3  1  0  0  0  0
  2  4  1  0  0  0  0
  2  5  1  0  0  0  0
  1  2  1  0  0  0  0
 26 27  2  0  0  0  0
 26 28  1  0  0  0  0
 24 25  1  0  0  0  0
 22 23  1  0  0  0  0
 22 24  2  0  0  0  0
 20 21  1  0  0  0  0
 19 20  1  0  0  0  0
 19 22  1  0  0  0  0
 17 18  1  0  0  0  0
 17 19  2  0  0  0  0
 15 16  1  0  0  0  0
 15 17  1  0  0  0  0
 14 15  2  0  0  0  0
 14 24  1  0  0  0  0
 11 12  1  0  0  0  0
 11 13  1  0  0  0  0
 11 14  1  0  0  0  0
  9 10  1  0  0  0  0
  9 11  1  0  0  0  0
  9 26  1  0  0  0  0
  7  8  1  0  0  0  0
  7  9  1  0  0  0  0
 30 31  1  0  0  0  0
 30 32  1  0  0  0  0
 30 33  1  0  0  0  0
 28 29  1  0  0  0  0
 28 30  1  0  0  0  0
M  END
$$$$
default_name
  -OEChem-01062215323D

 33 33  0     1  0  0  0  0  0999 V2000
   -4.0702   -3.8485    1.4554 H   0  0  0  0  0  0  0  0  0  0  0  0
   -4.0012   -2.9605    0.8284 C   0  0  0  0  0  0  0  0  0  0  0  0
   -4.7652   -2.2435    1.1234 H   0  0  0  0  0  0  0  0  0  0  0  0
   -4.1352   -3.2385   -0.2156 H   0  0  0  0  0  0  0  0  0  0  0  0
   -2.6362   -2.3395    1.0094 C   0  0  0  0  0  0  0  0  0  0  0  0
   -1.8292   -2.8395    1.7814 O   0  0  0  0  0  0  0  0  0  0  0  0
   -2.3832   -1.2445    0.2964 N   0  0  0  0  0  0  0  0  0  0  0  0
   -3.1102   -0.8685   -0.2946 H   0  0  0  0  0  0  0  0  0  0  0  0
   -1.1292   -0.4875    0.3524 C   0  0  1  0  0  0  0  0  0  0  0  0
   -0.9435   -0.0510   -0.6297 H   0  0  0  0  0  0  0  0  0  0  0  0
   -1.2684    0.6566    1.3715 C   0  0  0  0  0  0  0  0  0  0  0  0
   -1.5959    0.2429    2.3262 H   0  0  0  0  0  0  0  0  0  0  0  0
   -0.2883    1.1093    1.5306 H   0  0  0  0  0  0  0  0  0  0  0  0
   -2.2567    1.7307    0.9600 C   0  0  0  0  0  0  0  0  0  0  0  0
   -1.8743    2.7394    0.0531 C   0  0  0  0  0  0  0  0  0  0  0  0
   -0.8638    2.7655   -0.3330 H   0  0  0  0  0  0  0  0  0  0  0  0
   -2.8078    3.7111   -0.3572 C   0  0  0  0  0  0  0  0  0  0  0  0
   -2.5111    4.4831   -1.0506 H   0  0  0  0  0  0  0  0  0  0  0  0
   -4.1292    3.6712    0.1386 C   0  0  0  0  0  0  0  0  0  0  0  0
   -5.0376    4.6020   -0.2533 O   0  0  0  0  0  0  0  0  0  0  0  0
   -4.6426    5.2865   -0.7949 H   0  0  0  0  0  0  0  0  0  0  0  0
   -4.5114    2.6582    1.0422 C   0  0  0  0  0  0  0  0  0  0  0  0
   -5.5235    2.6408    1.4176 H   0  0  0  0  0  0  0  0  0  0  0  0
   -3.5749    1.6911    1.4540 C   0  0  0  0  0  0  0  0  0  0  0  0
   -3.8667    0.9185    2.1554 H   0  0  0  0  0  0  0  0  0  0  0  0
    0.0555   -1.4090    0.6870 C   0  0  0  0  0  0  0  0  0  0  0  0
    0.5569   -1.3904    1.8115 O   0  0  0  0  0  0  0  0  0  0  0  0
    0.5048   -2.2115   -0.2863 N   0  0  0  0  0  0  0  0  0  0  0  0
    0.0778   -2.1242   -1.1970 H   0  0  0  0  0  0  0  0  0  0  0  0
    1.6195   -3.1442   -0.1371 C   0  0  0  0  0  0  0  0  0  0  0  0
    1.4717   -3.7592    0.7523 H   0  0  0  0  0  0  0  0  0  0  0  0
    1.6888   -3.7904   -1.0136 H   0  0  0  0  0  0  0  0  0  0  0  0
    2.5521   -2.5871   -0.0252 H   0  0  0  0  0  0  0  0  0  0  0  0
  5  6  2  0  0  0  0
  5  7  1  0  0  0  0
  2  3  1  0  0  0  0
  2  4  1  0  0  0  0
  2  5  1  0  0  0  0
  1  2  1  0  0  0  0
 26 27  2  0  0  0  0
 26 28  1  0  0  0  0
 24 25  1  0  0  0  0
 22 23  1  0  0  0  0
 22 24  2  0  0  0  0
 20 21  1  0  0  0  0
 19 20  1  0  0  0  0
 19 22  1  0  0  0  0
 17 18  1  0  0  0  0
 17 19  2  0  0  0  0
 15 16  1  0  0  0  0
 15 17  1  0  0  0  0
 14 15  2  0  0  0  0
 14 24  1  0  0  0  0
 11 12  1  0  0  0  0
 11 13  1  0  0  0  0
 11 14  1  0  0  0  0
  9 10  1  0  0  0  0
  9 11  1  0  0  0  0
  9 26  1  0  0  0  0
  7  8  1  0  0  0  0
  7  9  1  0  0  0  0
 30 31  1  0  0  0  0
 30 32  1  0  0  0  0
 30 33  1  0  0  0  0
 28 29  1  0  0  0  0
 28 30  1  0  0  0  0
M  END
$$$$
default_name
  -OEChem-01062215323D

 33 33  0     1  0  0  0  0  0999 V2000
   -4.0702   -3.8485    1.4554 H   0  0  0  0  0  0  0  0  0  0  0  0
   -4.0012   -2.9605    0.8284 C   0  0  0  0  0  0  0  0  0  0  0  0
   -4.7652   -2.2435    1.1234 H   0  0  0  0  0  0  0  0  0  0  0  0
   -4.1352   -3.2385   -0.2156 H   0  0  0  0  0  0  0  0  0  0  0  0
   -2.6362   -2.3395    1.0094 C   0  0  0  0  0  0  0  0  0  0  0  0
   -1.8292   -2.8395    1.7814 O   0  0  0  0  0  0  0  0  0  0  0  0
   -2.3832   -1.2445    0.2964 N   0  0  0  0  0  0  0  0  0  0  0  0
   -3.1102   -0.8685   -0.2946 H   0  0  0  0  0  0  0  0  0  0  0  0
   -1.1292   -0.4875    0.3524 C   0  0  1  0  0  0  0  0  0  0  0  0
   -0.9435   -0.0510   -0.6297 H   0  0  0  0  0  0  0  0  0  0  0  0
   -1.2684    0.6566    1.3715 C   0  0  0  0  0  0  0  0  0  0  0  0
   -1.5959    0.2429    2.3262 H   0  0  0  0  0  0  0  0  0  0  0  0
   -0.2883    1.1093    1.5306 H   0  0  0  0  0  0  0  0  0  0  0  0
   -2.2567    1.7307    0.9600 C   0  0  0  0  0  0  0  0  0  0  0  0
   -1.8743    2.7394    0.0531 C   0  0  0  0  0  0  0  0  0  0  0  0
   -0.8638    2.7655   -0.3330 H   0  0  0  0  0  0  0  0  0  0  0  0
   -2.8078    3.7111   -0.3572 C   0  0  0  0  0  0  0  0  0  0  0  0
   -2.5111    4.4831   -1.0506 H   0  0  0  0  0  0  0  0  0  0  0  0
   -4.1292    3.6712    0.1386 C   0  0  0  0  0  0  0  0  0  0  0  0
   -5.0376    4.6020   -0.2533 O   0  0  0  0  0  0  0  0  0  0  0  0
   -4.6426    5.2865   -0.7949 H   0  0  0  0  0  0  0  0  0  0  0  0
   -4.5114    2.6582    1.0422 C   0  0  0  0  0  0  0  0  0  0  0  0
   -5.5235    2.6408    1.4176 H   0  0  0  0  0  0  0  0  0  0  0  0
   -3.5749    1.6911    1.4540 C   0  0  0  0  0  0  0  0  0  0  0  0
   -3.8667    0.9185    2.1554 H   0  0  0  0  0  0  0  0  0  0  0  0
    0.0555   -1.4090    0.6870 C   0  0  0  0  0  0  0  0  0  0  0  0
    0.3806   -1.5997    1.8592 O   0  0  0  0  0  0  0  0  0  0  0  0
    0.7018   -1.9773   -0.3388 N   0  0  0  0  0  0  0  0  0  0  0  0
    0.4104   -1.7236   -1.2717 H   0  0  0  0  0  0  0  0  0  0  0  0
    1.8460   -2.8748   -0.1971 C   0  0  0  0  0  0  0  0  0  0  0  0
    1.6116   -3.6637    0.5197 H   0  0  0  0  0  0  0  0  0  0  0  0
    2.0918   -3.3255   -1.1600 H   0  0  0  0  0  0  0  0  0  0  0  0
    2.7087   -2.3149    0.1697 H   0  0  0  0  0  0  0  0  0  0  0  0
  5  6  2  0  0  0  0
  5  7  1  0  0  0  0
  2  3  1  0  0  0  0
  2  4  1  0  0  0  0
  2  5  1  0  0  0  0
  1  2  1  0  0  0  0
 26 27  2  0  0  0  0
 26 28  1  0  0  0  0
 24 25  1  0  0  0  0
 22 23  1  0  0  0  0
 22 24  2  0  0  0  0
 20 21  1  0  0  0  0
 19 20  1  0  0  0  0
 19 22  1  0  0  0  0
 17 18  1  0  0  0  0
 17 19  2  0  0  0  0
 15 16  1  0  0  0  0
 15 17  1  0  0  0  0
 14 15  2  0  0  0  0
 14 24  1  0  0  0  0
 11 12  1  0  0  0  0
 11 13  1  0  0  0  0
 11 14  1  0  0  0  0
  9 10  1  0  0  0  0
  9 11  1  0  0  0  0
  9 26  1  0  0  0  0
  7  8  1  0  0  0  0
  7  9  1  0  0  0  0
 30 31  1  0  0  0  0
 30 32  1  0  0  0  0
 30 33  1  0  0  0  0
 28 29  1  0  0  0  0
 28 30  1  0  0  0  0
M  END
$$$$
default_name
  -OEChem-01062215323D

 33 33  0     1  0  0  0  0  0999 V2000
   -4.0702   -3.8485    1.4554 H   0  0  0  0  0  0  0  0  0  0  0  0
   -4.0012   -2.9605    0.8284 C   0  0  0  0  0  0  0  0  0  0  0  0
   -4.7652   -2.2435    1.1234 H   0  0  0  0  0  0  0  0  0  0  0  0
   -4.1352   -3.2385   -0.2156 H   0  0  0  0  0  0  0  0  0  0  0  0
   -2.6362   -2.3395    1.0094 C   0  0  0  0  0  0  0  0  0  0  0  0
   -1.8292   -2.8395    1.7814 O   0  0  0  0  0  0  0  0  0  0  0  0
   -2.3832   -1.2445    0.2964 N   0  0  0  0  0  0  0  0  0  0  0  0
   -3.1102   -0.8685   -0.2946 H   0  0  0  0  0  0  0  0  0  0  0  0
   -1.1292   -0.4875    0.3524 C   0  0  1  0  0  0  0  0  0  0  0  0
   -0.9435   -0.0510   -0.6297 H   0  0  0  0  0  0  0  0  0  0  0  0
   -1.2684    0.6566    1.3715 C   0  0  0  0  0  0  0  0  0  0  0  0
   -1.5959    0.2429    2.3262 H   0  0  0  0  0  0  0  0  0  0  0  0
   -0.2883    1.1093    1.5306 H   0  0  0  0  0  0  0  0  0  0  0  0
   -2.2567    1.7307    0.9600 C   0  0  0  0  0  0  0  0  0  0  0  0
   -1.8743    2.7394    0.0531 C   0  0  0  0  0  0  0  0  0  0  0  0
   -0.8638    2.7655   -0.3330 H   0  0  0  0  0  0  0  0  0  0  0  0
   -2.8078    3.7111   -0.3572 C   0  0  0  0  0  0  0  0  0  0  0  0
   -2.5111    4.4831   -1.0506 H   0  0  0  0  0  0  0  0  0  0  0  0
   -4.1292    3.6712    0.1386 C   0  0  0  0  0  0  0  0  0  0  0  0
   -5.0376    4.6020   -0.2533 O   0  0  0  0  0  0  0  0  0  0  0  0
   -4.6426    5.2865   -0.7949 H   0  0  0  0  0  0  0  0  0  0  0  0
   -4.5114    2.6582    1.0422 C   0  0  0  0  0  0  0  0  0  0  0  0
   -5.5235    2.6408    1.4176 H   0  0  0  0  0  0  0  0  0  0  0  0
   -3.5749    1.6911    1.4540 C   0  0  0  0  0  0  0  0  0  0  0  0
   -3.8667    0.9185    2.1554 H   0  0  0  0  0  0  0  0  0  0  0  0
    0.0555   -1.4090    0.6870 C   0  0  0  0  0  0  0  0  0  0  0  0
    0.2147   -1.8213    1.8363 O   0  0  0  0  0  0  0  0  0  0  0  0
    0.8870   -1.7296   -0.3124 N   0  0  0  0  0  0  0  0  0  0  0  0
    0.7208   -1.3031   -1.2124 H   0  0  0  0  0  0  0  0  0  0  0  0
    2.0589   -2.5899   -0.1662 C   0  0  0  0  0  0  0  0  0  0  0  0
    1.7775   -3.5172    0.3359 H   0  0  0  0  0  0  0  0  0  0  0  0
    2.4776   -2.8245   -1.1462 H   0  0  0  0  0  0  0  0  0  0  0  0
    2.8145   -2.0820    0.4365 H   0  0  0  0  0  0  0  0  0  0  0  0
  5  6  2  0  0  0  0
  5  7  1  0  0  0  0
  2  3  1  0  0  0  0
  2  4  1  0  0  0  0
  2  5  1  0  0  0  0
  1  2  1  0  0  0  0
 26 27  2  0  0  0  0
 26 28  1  0  0  0  0
 24 25  1  0  0  0  0
 22 23  1  0  0  0  0
 22 24  2  0  0  0  0
 20 21  1  0  0  0  0
 19 20  1  0  0  0  0
 19 22  1  0  0  0  0
 17 18  1  0  0  0  0
 17 19  2  0  0  0  0
 15 16  1  0  0  0  0
 15 17  1  0  0  0  0
 14 15  2  0  0  0  0
 14 24  1  0  0  0  0
 11 12  1  0  0  0  0
 11 13  1  0  0  0  0
 11 14  1  0  0  0  0
  9 10  1  0  0  0  0
  9 11  1  0  0  0  0
  9 26  1  0  0  0  0
  7  8  1  0  0  0  0
  7  9  1  0  0  0  0
 30 31  1  0  0  0  0
 30 32  1  0  0  0  0
 30 33  1  0  0  0  0
 28 29  1  0  0  0  0
 28 30  1  0  0  0  0
M  END
$$$$
default_name
  -OEChem-01062215323D

 33 33  0     1  0  0  0  0  0999 V2000
   -4.0702   -3.8485    1.4554 H   0  0  0  0  0  0  0  0  0  0  0  0
   -4.0012   -2.9605    0.8284 C   0  0  0  0  0  0  0  0  0  0  0  0
   -4.7652   -2.2435    1.1234 H   0  0  0  0  0  0  0  0  0  0  0  0
   -4.1352   -3.2385   -0.2156 H   0  0  0  0  0  0  0  0  0  0  0  0
   -2.6362   -2.3395    1.0094 C   0  0  0  0  0  0  0  0  0  0  0  0
   -1.8292   -2.8395    1.7814 O   0  0  0  0  0  0  0  0  0  0  0  0
   -2.3832   -1.2445    0.2964 N   0  0  0  0  0  0  0  0  0  0  0  0
   -3.1102   -0.8685   -0.2946 H   0  0  0  0  0  0  0  0  0  0  0  0
   -1.1292   -0.4875    0.3524 C   0  0  1  0  0  0  0  0  0  0  0  0
   -0.9435   -0.0510   -0.6297 H   0  0  0  0  0  0  0  0  0  0  0  0
   -1.2684    0.6566    1.3715 C   0  0  0  0  0  0  0  0  0  0  0  0
   -1.5959    0.2429    2.3262 H   0  0  0  0  0  0  0  0  0  0  0  0
   -0.2883    1.1093    1.5306 H   0  0  0  0  0  0  0  0  0  0  0  0
   -2.2567    1.7307    0.9600 C   0  0  0  0  0  0  0  0  0  0  0  0
   -1.8743    2.7394    0.0531 C   0  0  0  0  0  0  0  0  0  0  0  0
   -0.8638    2.7655   -0.3330 H   0  0  0  0  0  0  0  0  0  0  0  0
   -2.8078    3.7111   -0.3572 C   0  0  0  0  0  0  0  0  0  0  0  0
   -2.5111    4.4831   -1.0506 H   0  0  0  0  0  0  0  0  0  0  0  0
   -4.1292    3.6712    0.1386 C   0  0  0  0  0  0  0  0  0  0  0  0
   -5.0376    4.6020   -0.2533 O   0  0  0  0  0  0  0  0  0  0  0  0
   -4.6426    5.2865   -0.7949 H   0  0  0  0  0  0  0  0  0  0  0  0
   -4.5114    2.6582    1.0422 C   0  0  0  0  0  0  0  0  0  0  0  0
   -5.5235    2.6408    1.4176 H   0  0  0  0  0  0  0  0  0  0  0  0
   -3.5749    1.6911    1.4540 C   0  0  0  0  0  0  0  0  0  0  0  0
   -3.8667    0.9185    2.1554 H   0  0  0  0  0  0  0  0  0  0  0  0
    0.0555   -1.4090    0.6870 C   0  0  0  0  0  0  0  0  0  0  0  0
    0.0705   -2.0401    1.7442 O   0  0  0  0  0  0  0  0  0  0  0  0
    1.0479   -1.4851   -0.2087 N   0  0  0  0  0  0  0  0  0  0  0  0
    0.9877   -0.8912   -1.0231 H   0  0  0  0  0  0  0  0  0  0  0  0
    2.2437   -2.3089   -0.0466 C   0  0  0  0  0  0  0  0  0  0  0  0
    1.9580   -3.3297    0.2132 H   0  0  0  0  0  0  0  0  0  0  0  0
    2.8199   -2.3216   -0.9732 H   0  0  0  0  0  0  0  0  0  0  0  0
    2.8622   -1.9043    0.7572 H   0  0  0  0  0  0  0  0  0  0  0  0
  5  6  2  0  0  0  0
  5  7  1  0  0  0  0
  2  3  1  0  0  0  0
  2  4  1  0  0  0  0
  2  5  1  0  0  0  0
  1  2  1  0  0  0  0
 26 27  2  0  0  0  0
 26 28  1  0  0  0  0
 24 25  1  0  0  0  0
 22 23  1  0  0  0  0
 22 24  2  0  0  0  0
 20 21  1  0  0  0  0
 19 20  1  0  0  0  0
 19 22  1  0  0  0  0
 17 18  1  0  0  0  0
 17 19  2  0  0  0  0
 15 16  1  0  0  0  0
 15 17  1  0  0  0  0
 14 15  2  0  0  0  0
 14 24  1  0  0  0  0
 11 12  1  0  0  0  0
 11 13  1  0  0  0  0
 11 14  1  0  0  0  0
  9 10  1  0  0  0  0
  9 11  1  0  0  0  0
  9 26  1  0  0  0  0
  7  8  1  0  0  0  0
  7  9  1  0  0  0  0
 30 31  1  0  0  0  0
 30 32  1  0  0  0  0
 30 33  1  0  0  0  0
 28 29  1  0  0  0  0
 28 30  1  0  0  0  0
M  END
$$$$
default_name
  -OEChem-01062215323D

 33 33  0     1  0  0  0  0  0999 V2000
   -4.0702   -3.8485    1.4554 H   0  0  0  0  0  0  0  0  0  0  0  0
   -4.0012   -2.9605    0.8284 C   0  0  0  0  0  0  0  0  0  0  0  0
   -4.7652   -2.2435    1.1234 H   0  0  0  0  0  0  0  0  0  0  0  0
   -4.1352   -3.2385   -0.2156 H   0  0  0  0  0  0  0  0  0  0  0  0
   -2.6362   -2.3395    1.0094 C   0  0  0  0  0  0  0  0  0  0  0  0
   -1.8292   -2.8395    1.7814 O   0  0  0  0  0  0  0  0  0  0  0  0
   -2.3832   -1.2445    0.2964 N   0  0  0  0  0  0  0  0  0  0  0  0
   -3.1102   -0.8685   -0.2946 H   0  0  0  0  0  0  0  0  0  0  0  0
   -1.1292   -0.4875    0.3524 C   0  0  1  0  0  0  0  0  0  0  0  0
   -0.9435   -0.0510   -0.6297 H   0  0  0  0  0  0  0  0  0  0  0  0
   -1.2684    0.6566    1.3715 C   0  0  0  0  0  0  0  0  0  0  0  0
   -1.5959    0.2429    2.3262 H   0  0  0  0  0  0  0  0  0  0  0  0
   -0.2883    1.1093    1.5306 H   0  0  0  0  0  0  0  0  0  0  0  0
   -2.2567    1.7307    0.9600 C   0  0  0  0  0  0  0  0  0  0  0  0
   -1.8743    2.7394    0.0531 C   0  0  0  0  0  0  0  0  0  0  0  0
   -0.8638    2.7655   -0.3330 H   0  0  0  0  0  0  0  0  0  0  0  0
   -2.8078    3.7111   -0.3572 C   0  0  0  0  0  0  0  0  0  0  0  0
   -2.5111    4.4831   -1.0506 H   0  0  0  0  0  0  0  0  0  0  0  0
   -4.1292    3.6712    0.1386 C   0  0  0  0  0  0  0  0  0  0  0  0
   -5.0376    4.6020   -0.2533 O   0  0  0  0  0  0  0  0  0  0  0  0
   -4.6426    5.2865   -0.7949 H   0  0  0  0  0  0  0  0  0  0  0  0
   -4.5114    2.6582    1.0422 C   0  0  0  0  0  0  0  0  0  0  0  0
   -5.5235    2.6408    1.4176 H   0  0  0  0  0  0  0  0  0  0  0  0
   -3.5749    1.6911    1.4540 C   0  0  0  0  0  0  0  0  0  0  0  0
   -3.8667    0.9185    2.1554 H   0  0  0  0  0  0  0  0  0  0  0  0
    0.0555   -1.4090    0.6870 C   0  0  0  0  0  0  0  0  0  0  0  0
   -0.0422   -2.2412    1.5892 O   0  0  0  0  0  0  0  0  0  0  0  0
    1.1735   -1.2606   -0.0349 N   0  0  0  0  0  0  0  0  0  0  0  0
    1.1930   -0.5161   -0.7167 H   0  0  0  0  0  0  0  0  0  0  0  0
    2.3878   -2.0509    0.1537 C   0  0  0  0  0  0  0  0  0  0  0  0
    2.1408   -3.1140    0.1600 H   0  0  0  0  0  0  0  0  0  0  0  0
    3.0953   -1.8511   -0.6526 H   0  0  0  0  0  0  0  0  0  0  0  0
    2.8486   -1.7939    1.1097 H   0  0  0  0  0  0  0  0  0  0  0  0
  5  6  2  0  0  0  0
  5  7  1  0  0  0  0
  2  3  1  0  0  0  0
  2  4  1  0  0  0  0
  2  5  1  0  0  0  0
  1  2  1  0  0  0  0
 26 27  2  0  0  0  0
 26 28  1  0  0  0  0
 24 25  1  0  0  0  0
 22 23  1  0  0  0  0
 22 24  2  0  0  0  0
 20 21  1  0  0  0  0
 19 20  1  0  0  0  0
 19 22  1  0  0  0  0
 17 18  1  0  0  0  0
 17 19  2  0  0  0  0
 15 16  1  0  0  0  0
 15 17  1  0  0  0  0
 14 15  2  0  0  0  0
 14 24  1  0  0  0  0
 11 12  1  0  0  0  0
 11 13  1  0  0  0  0
 11 14  1  0  0  0  0
  9 10  1  0  0  0  0
  9 11  1  0  0  0  0
  9 26  1  0  0  0  0
  7  8  1  0  0  0  0
  7  9  1  0  0  0  0
 30 31  1  0  0  0  0
 30 32  1  0  0  0  0
 30 33  1  0  0  0  0
 28 29  1  0  0  0  0
 28 30  1  0  0  0  0
M  END
$$$$
default_name
  -OEChem-01062215323D

 33 33  0     1  0  0  0  0  0999 V2000
   -4.0702   -3.8485    1.4554 H   0  0  0  0  0  0  0  0  0  0  0  0
   -4.0012   -2.9605    0.8284 C   0  0  0  0  0  0  0  0  0  0  0  0
   -4.7652   -2.2435    1.1234 H   0  0  0  0  0  0  0  0  0  0  0  0
   -4.1352   -3.2385   -0.2156 H   0  0  0  0  0  0  0  0  0  0  0  0
   -2.6362   -2.3395    1.0094 C   0  0  0  0  0  0  0  0  0  0  0  0
   -1.8292   -2.8395    1.7814 O   0  0  0  0  0  0  0  0  0  0  0  0
   -2.3832   -1.2445    0.2964 N   0  0  0  0  0  0  0  0  0  0  0  0
   -3.1102   -0.8685   -0.2946 H   0  0  0  0  0  0  0  0  0  0  0  0
   -1.1292   -0.4875    0.3524 C   0  0  1  0  0  0  0  0  0  0  0  0
   -0.9435   -0.0510   -0.6297 H   0  0  0  0  0  0  0  0  0  0  0  0
   -1.2684    0.6566    1.3715 C   0  0  0  0  0  0  0  0  0  0  0  0
   -1.5959    0.2429    2.3262 H   0  0  0  0  0  0  0  0  0  0  0  0
   -0.2883    1.1093    1.5306 H   0  0  0  0  0  0  0  0  0  0  0  0
   -2.2567    1.7307    0.9600 C   0  0  0  0  0  0  0  0  0  0  0  0
   -1.8743    2.7394    0.0531 C   0  0  0  0  0  0  0  0  0  0  0  0
   -0.8638    2.7655   -0.3330 H   0  0  0  0  0  0  0  0  0  0  0  0
   -2.8078    3.7111   -0.3572 C   0  0  0  0  0  0  0  0  0  0  0  0
   -2.5111    4.4831   -1.0506 H   0  0  0  0  0  0  0  0  0  0  0  0
   -4.1292    3.6712    0.1386 C   0  0  0  0  0  0  0  0  0  0  0  0
   -5.0376    4.6020   -0.2533 O   0  0  0  0  0  0  0  0  0  0  0  0
   -4.6426    5.2865   -0.7949 H   0  0  0  0  0  0  0  0  0  0  0  0
   -4.5114    2.6582    1.0422 C   0  0  0  0  0  0  0  0  0  0  0  0
   -5.5235    2.6408    1.4176 H   0  0  0  0  0  0  0  0  0  0  0  0
   -3.5749    1.6911    1.4540 C   0  0  0  0  0  0  0  0  0  0  0  0
   -3.8667    0.9185    2.1554 H   0  0  0  0  0  0  0  0  0  0  0  0
    0.0555   -1.4090    0.6870 C   0  0  0  0  0  0  0  0  0  0  0  0
   -0.1156   -2.4109    1.3820 O   0  0  0  0  0  0  0  0  0  0  0  0
    1.2551   -1.0713    0.1972 N   0  0  0  0  0  0  0  0  0  0  0  0
    1.3226   -0.2033   -0.3142 H   0  0  0  0  0  0  0  0  0  0  0  0
    2.4814   -1.8336    0.4209 C   0  0  0  0  0  0  0  0  0  0  0  0
    2.3135   -2.8847    0.1801 H   0  0  0  0  0  0  0  0  0  0  0  0
    3.2852   -1.4450   -0.2065 H   0  0  0  0  0  0  0  0  0  0  0  0
    2.7745   -1.7583    1.4701 H   0  0  0  0  0  0  0  0  0  0  0  0
  5  6  2  0  0  0  0
  5  7  1  0  0  0  0
  2  3  1  0  0  0  0
  2  4  1  0  0  0  0
  2  5  1  0  0  0  0
  1  2  1  0  0  0  0
 26 27  2  0  0  0  0
 26 28  1  0  0  0  0
 24 25  1  0  0  0  0
 22 23  1  0  0  0  0
 22 24  2  0  0  0  0
 20 21  1  0  0  0  0
 19 20  1  0  0  0  0
 19 22  1  0  0  0  0
 17 18  1  0  0  0  0
 17 19  2  0  0  0  0
 15 16  1  0  0  0  0
 15 17  1  0  0  0  0
 14 15  2  0  0  0  0
 14 24  1  0  0  0  0
 11 12  1  0  0  0  0
 11 13  1  0  0  0  0
 11 14  1  0  0  0  0
  9 10  1  0  0  0  0
  9 11  1  0  0  0  0
  9 26  1  0  0  0  0
  7  8  1  0  0  0  0
  7  9  1  0  0  0  0
 30 31  1  0  0  0  0
 30 32  1  0  0  0  0
 30 33  1  0  0  0  0
 28 29  1  0  0  0  0
 28 30  1  0  0  0  0
M  END
$$$$
default_name
  -OEChem-01062215323D

 33 33  0     1  0  0  0  0  0999 V2000
   -4.0702   -3.8485    1.4554 H   0  0  0  0  0  0  0  0  0  0  0  0
   -4.0012   -2.9605    0.8284 C   0  0  0  0  0  0  0  0  0  0  0  0
   -4.7652   -2.2435    1.1234 H   0  0  0  0  0  0  0  0  0  0  0  0
   -4.1352   -3.2385   -0.2156 H   0  0  0  0  0  0  0  0  0  0  0  0
   -2.6362   -2.3395    1.0094 C   0  0  0  0  0  0  0  0  0  0  0  0
   -1.8292   -2.8395    1.7814 O   0  0  0  0  0  0  0  0  0  0  0  0
   -2.3832   -1.2445    0.2964 N   0  0  0  0  0  0  0  0  0  0  0  0
   -3.1102   -0.8685   -0.2946 H   0  0  0  0  0  0  0  0  0  0  0  0
   -1.1292   -0.4875    0.3524 C   0  0  1  0  0  0  0  0  0  0  0  0
   -0.9435   -0.0510   -0.6297 H   0  0  0  0  0  0  0  0  0  0  0  0
   -1.2684    0.6566    1.3715 C   0  0  0  0  0  0  0  0  0  0  0  0
   -1.5959    0.2429    2.3262 H   0  0  0  0  0  0  0  0  0  0  0  0
   -0.2883    1.1093    1.5306 H   0  0  0  0  0  0  0  0  0  0  0  0
   -2.2567    1.7307    0.9600 C   0  0  0  0  0  0  0  0  0  0  0  0
   -1.8743    2.7394    0.0531 C   0  0  0  0  0  0  0  0  0  0  0  0
   -0.8638    2.7655   -0.3330 H   0  0  0  0  0  0  0  0  0  0  0  0
   -2.8078    3.7111   -0.3572 C   0  0  0  0  0  0  0  0  0  0  0  0
   -2.5111    4.4831   -1.0506 H   0  0  0  0  0  0  0  0  0  0  0  0
   -4.1292    3.6712    0.1386 C   0  0  0  0  0  0  0  0  0  0  0  0
   -5.0376    4.6020   -0.2533 O   0  0  0  0  0  0  0  0  0  0  0  0
   -4.6426    5.2865   -0.7949 H   0  0  0  0  0  0  0  0  0  0  0  0
   -4.5114    2.6582    1.0422 C   0  0  0  0  0  0  0  0  0  0  0  0
   -5.5235    2.6408    1.4176 H   0  0  0  0  0  0  0  0  0  0  0  0
   -3.5749    1.6911    1.4540 C   0  0  0  0  0  0  0  0  0  0  0  0
   -3.8667    0.9185    2.1554 H   0  0  0  0  0  0  0  0  0  0  0  0
    0.0555   -1.4090    0.6870 C   0  0  0  0  0  0  0  0  0  0  0  0
   -0.1449   -2.5376    1.1366 O   0  0  0  0  0  0  0  0  0  0  0  0
    1.2874   -0.9302    0.4719 N   0  0  0  0  0  0  0  0  0  0  0  0
    1.3677    0.0258    0.1571 H   0  0  0  0  0  0  0  0  0  0  0  0
    2.5181   -1.6716    0.7369 C   0  0  0  0  0  0  0  0  0  0  0  0
    2.4643   -2.6575    0.2720 H   0  0  0  0  0  0  0  0  0  0  0  0
    3.3766   -1.1310    0.3349 H   0  0  0  0  0  0  0  0  0  0  0  0
    2.6450   -1.7999    1.8138 H   0  0  0  0  0  0  0  0  0  0  0  0
  5  6  2  0  0  0  0
  5  7  1  0  0  0  0
  2  3  1  0  0  0  0
  2  4  1  0  0  0  0
  2  5  1  0  0  0  0
  1  2  1  0  0  0  0
 26 27  2  0  0  0  0
 26 28  1  0  0  0  0
 24 25  1  0  0  0  0
 22 23  1  0  0  0  0
 22 24  2  0  0  0  0
 20 21  1  0  0  0  0
 19 20  1  0  0  0  0
 19 22  1  0  0  0  0
 17 18  1  0  0  0  0
 17 19  2  0  0  0  0
 15 16  1  0  0  0  0
 15 17  1  0  0  0  0
 14 15  2  0  0  0  0
 14 24  1  0  0  0  0
 11 12  1  0  0  0  0
 11 13  1  0  0  0  0
 11 14  1  0  0  0  0
  9 10  1  0  0  0  0
  9 11  1  0  0  0  0
  9 26  1  0  0  0  0
  7  8  1  0  0  0  0
  7  9  1  0  0  0  0
 30 31  1  0  0  0  0
 30 32  1  0  0  0  0
 30 33  1  0  0  0  0
 28 29  1  0  0  0  0
 28 30  1  0  0  0  0
M  END
$$$$
default_name
  -OEChem-01062215323D

 33 33  0     1  0  0  0  0  0999 V2000
   -4.0702   -3.8485    1.4554 H   0  0  0  0  0  0  0  0  0  0  0  0
   -4.0012   -2.9605    0.8284 C   0  0  0  0  0  0  0  0  0  0  0  0
   -4.7652   -2.2435    1.1234 H   0  0  0  0  0  0  0  0  0  0  0  0
   -4.1352   -3.2385   -0.2156 H   0  0  0  0  0  0  0  0  0  0  0  0
   -2.6362   -2.3395    1.0094 C   0  0  0  0  0  0  0  0  0  0  0  0
   -1.8292   -2.8395    1.7814 O   0  0  0  0  0  0  0  0  0  0  0  0
   -2.3832   -1.2445    0.2964 N   0  0  0  0  0  0  0  0  0  0  0  0
   -3.1102   -0.8685   -0.2946 H   0  0  0  0  0  0  0  0  0  0  0  0
   -1.1292   -0.4875    0.3524 C   0  0  1  0  0  0  0  0  0  0  0  0
   -1.0753    0.1595   -0.5240 H   0  0  0  0  0  0  0  0  0  0  0  0
   -1.1239    0.3996    1.6094 C   0  0  0  0  0  0  0  0  0  0  0  0
   -1.3219   -0.2227    2.4831 H   0  0  0  0  0  0  0  0  0  0  0  0
   -0.1289    0.8303    1.7337 H   0  0  0  0  0  0  0  0  0  0  0  0
   -2.1530    1.5130    1.5814 C   0  0  0  0  0  0  0  0  0  0  0  0
   -1.8912    2.7063    0.8787 C   0  0  0  0  0  0  0  0  0  0  0  0
   -0.9417    2.8422    0.3776 H   0  0  0  0  0  0  0  0  0  0  0  0
   -2.8664    3.7210    0.8219 C   0  0  0  0  0  0  0  0  0  0  0  0
   -2.6619    4.6341    0.2842 H   0  0  0  0  0  0  0  0  0  0  0  0
   -4.1091    3.5397    1.4671 C   0  0  0  0  0  0  0  0  0  0  0  0
   -5.0573    4.5110    1.4156 O   0  0  0  0  0  0  0  0  0  0  0  0
   -4.7353    5.3078    0.9921 H   0  0  0  0  0  0  0  0  0  0  0  0
   -4.3713    2.3429    2.1656 C   0  0  0  0  0  0  0  0  0  0  0  0
   -5.3236    2.2179    2.6586 H   0  0  0  0  0  0  0  0  0  0  0  0
   -3.3928    1.3325    2.2245 C   0  0  0  0  0  0  0  0  0  0  0  0
   -3.5914    0.4171    2.7692 H   0  0  0  0  0  0  0  0  0  0  0  0
    0.0850   -1.4303    0.3139 C   0  0  0  0  0  0  0  0  0  0  0  0
   -0.0784   -2.6489    0.2474 O   0  0  0  0  0  0  0  0  0  0  0  0
    1.3005   -0.8703    0.3586 N   0  0  0  0  0  0  0  0  0  0  0  0
    1.3484    0.1319    0.4720 H   0  0  0  0  0  0  0  0  0  0  0  0
    2.5548   -1.6191    0.3331 C   0  0  0  0  0  0  0  0  0  0  0  0
    2.5492   -2.3234   -0.5007 H   0  0  0  0  0  0  0  0  0  0  0  0
    3.3983   -0.9359    0.2209 H   0  0  0  0  0  0  0  0  0  0  0  0
    2.6666   -2.1802    1.2632 H   0  0  0  0  0  0  0  0  0  0  0  0
  5  6  2  0  0  0  0
  5  7  1  0  0  0  0
  2  3  1  0  0  0  0
  2  4  1  0  0  0  0
  2  5  1  0  0  0  0
  1  2  1  0  0  0  0
 26 27  2  0  0  0  0
 26 28  1  0  0  0  0
 24 25  1  0  0  0  0
 22 23  1  0  0  0  0
 22 24  2  0  0  0  0
 20 21  1  0  0  0  0
 19 20  1  0  0  0  0
 19 22  1  0  0  0  0
 17 18  1  0  0  0  0
 17 19  2  0  0  0  0
 15 16  1  0  0  0  0
 15 17  1  0  0  0  0
 14 15  2  0  0  0  0
 14 24  1  0  0  0  0
 11 12  1  0  0  0  0
 11 13  1  0  0  0  0
 11 14  1  0  0  0  0
  9 10  1  0  0  0  0
  9 11  1  0  0  0  0
  9 26  1  0  0  0  0
  7  8  1  0  0  0  0
  7  9  1  0  0  0  0
 30 31  1  0  0  0  0
 30 32  1  0  0  0  0
 30 33  1  0  0  0  0
 28 29  1  0  0  0  0
 28 30  1  0  0  0  0
M  END
$$$$
default_name
  -OEChem-01062215323D

 33 33  0     1  0  0  0  0  0999 V2000
   -4.0702   -3.8485    1.4554 H   0  0  0  0  0  0  0  0  0  0  0  0
   -4.0012   -2.9605    0.8284 C   0  0  0  0  0  0  0  0  0  0  0  0
   -4.7652   -2.2435    1.1234 H   0  0  0  0  0  0  0  0  0  0  0  0
   -4.1352   -3.2385   -0.2156 H   0  0  0  0  0  0  0  0  0  0  0  0
   -2.6362   -2.3395    1.0094 C   0  0  0  0  0  0  0  0  0  0  0  0
   -1.8292   -2.8395    1.7814 O   0  0  0  0  0  0  0  0  0  0  0  0
   -2.3832   -1.2445    0.2964 N   0  0  0  0  0  0  0  0  0  0  0  0
   -3.1102   -0.8685   -0.2946 H   0  0  0  0  0  0  0  0  0  0  0  0
   -1.1292   -0.4875    0.3524 C   0  0  1  0  0  0  0  0  0  0  0  0
   -1.0753    0.1595   -0.5240 H   0  0  0  0  0  0  0  0  0  0  0  0
   -1.1239    0.3996    1.6094 C   0  0  0  0  0  0  0  0  0  0  0  0
   -1.3219   -0.2227    2.4831 H   0  0  0  0  0  0  0  0  0  0  0  0
   -0.1289    0.8303    1.7337 H   0  0  0  0  0  0  0  0  0  0  0  0
   -2.1530    1.5130    1.5814 C   0  0  0  0  0  0  0  0  0  0  0  0
   -1.8912    2.7063    0.8787 C   0  0  0  0  0  0  0  0  0  0  0  0
   -0.9417    2.8422    0.3776 H   0  0  0  0  0  0  0  0  0  0  0  0
   -2.8664    3.7210    0.8219 C   0  0  0  0  0  0  0  0  0  0  0  0
   -2.6619    4.6341    0.2842 H   0  0  0  0  0  0  0  0  0  0  0  0
   -4.1091    3.5397    1.4671 C   0  0  0  0  0  0  0  0  0  0  0  0
   -5.0573    4.5110    1.4156 O   0  0  0  0  0  0  0  0  0  0  0  0
   -4.7353    5.3078    0.9921 H   0  0  0  0  0  0  0  0  0  0  0  0
   -4.3713    2.3429    2.1656 C   0  0  0  0  0  0  0  0  0  0  0  0
   -5.3236    2.2179    2.6586 H   0  0  0  0  0  0  0  0  0  0  0  0
   -3.3928    1.3325    2.2245 C   0  0  0  0  0  0  0  0  0  0  0  0
   -3.5914    0.4171    2.7692 H   0  0  0  0  0  0  0  0  0  0  0  0
    0.0850   -1.4303    0.3139 C   0  0  0  0  0  0  0  0  0  0  0  0
   -0.0535   -2.6057   -0.0258 O   0  0  0  0  0  0  0  0  0  0  0  0
    1.2722   -0.9192    0.6638 N   0  0  0  0  0  0  0  0  0  0  0  0
    1.2913    0.0374    0.9863 H   0  0  0  0  0  0  0  0  0  0  0  0
    2.5220   -1.6758    0.6840 C   0  0  0  0  0  0  0  0  0  0  0  0
    2.6563   -2.1949   -0.2665 H   0  0  0  0  0  0  0  0  0  0  0  0
    3.3656   -1.0036    0.8489 H   0  0  0  0  0  0  0  0  0  0  0  0
    2.4897   -2.4171    1.4851 H   0  0  0  0  0  0  0  0  0  0  0  0
  5  6  2  0  0  0  0
  5  7  1  0  0  0  0
  2  3  1  0  0  0  0
  2  4  1  0  0  0  0
  2  5  1  0  0  0  0
  1  2  1  0  0  0  0
 26 27  2  0  0  0  0
 26 28  1  0  0  0  0
 24 25  1  0  0  0  0
 22 23  1  0  0  0  0
 22 24  2  0  0  0  0
 20 21  1  0  0  0  0
 19 20  1  0  0  0  0
 19 22  1  0  0  0  0
 17 18  1  0  0  0  0
 17 19  2  0  0  0  0
 15 16  1  0  0  0  0
 15 17  1  0  0  0  0
 14 15  2  0  0  0  0
 14 24  1  0  0  0  0
 11 12  1  0  0  0  0
 11 13  1  0  0  0  0
 11 14  1  0  0  0  0
  9 10  1  0  0  0  0
  9 11  1  0  0  0  0
  9 26  1  0  0  0  0
  7  8  1  0  0  0  0
  7  9  1  0  0  0  0
 30 31  1  0  0  0  0
 30 32  1  0  0  0  0
 30 33  1  0  0  0  0
 28 29  1  0  0  0  0
 28 30  1  0  0  0  0
M  END
$$$$
default_name
  -OEChem-01062215323D

 33 33  0     1  0  0  0  0  0999 V2000
   -4.0702   -3.8485    1.4554 H   0  0  0  0  0  0  0  0  0  0  0  0
   -4.0012   -2.9605    0.8284 C   0  0  0  0  0  0  0  0  0  0  0  0
   -4.7652   -2.2435    1.1234 H   0  0  0  0  0  0  0  0  0  0  0  0
   -4.1352   -3.2385   -0.2156 H   0  0  0  0  0  0  0  0  0  0  0  0
   -2.6362   -2.3395    1.0094 C   0  0  0  0  0  0  0  0  0  0  0  0
   -1.8292   -2.8395    1.7814 O   0  0  0  0  0  0  0  0  0  0  0  0
   -2.3832   -1.2445    0.2964 N   0  0  0  0  0  0  0  0  0  0  0  0
   -3.1102   -0.8685   -0.2946 H   0  0  0  0  0  0  0  0  0  0  0  0
   -1.1292   -0.4875    0.3524 C   0  0  1  0  0  0  0  0  0  0  0  0
   -1.0753    0.1595   -0.5240 H   0  0  0  0  0  0  0  0  0  0  0  0
   -1.1239    0.3996    1.6094 C   0  0  0  0  0  0  0  0  0  0  0  0
   -1.3219   -0.2227    2.4831 H   0  0  0  0  0  0  0  0  0  0  0  0
   -0.1289    0.8303    1.7337 H   0  0  0  0  0  0  0  0  0  0  0  0
   -2.1530    1.5130    1.5814 C   0  0  0  0  0  0  0  0  0  0  0  0
   -1.8912    2.7063    0.8787 C   0  0  0  0  0  0  0  0  0  0  0  0
   -0.9417    2.8422    0.3776 H   0  0  0  0  0  0  0  0  0  0  0  0
   -2.8664    3.7210    0.8219 C   0  0  0  0  0  0  0  0  0  0  0  0
   -2.6619    4.6341    0.2842 H   0  0  0  0  0  0  0  0  0  0  0  0
   -4.1091    3.5397    1.4671 C   0  0  0  0  0  0  0  0  0  0  0  0
   -5.0573    4.5110    1.4156 O   0  0  0  0  0  0  0  0  0  0  0  0
   -4.7353    5.3078    0.9921 H   0  0  0  0  0  0  0  0  0  0  0  0
   -4.3713    2.3429    2.1656 C   0  0  0  0  0  0  0  0  0  0  0  0
   -5.3236    2.2179    2.6586 H   0  0  0  0  0  0  0  0  0  0  0  0
   -3.3928    1.3325    2.2245 C   0  0  0  0  0  0  0  0  0  0  0  0
   -3.5914    0.4171    2.7692 H   0  0  0  0  0  0  0  0  0  0  0  0
    0.0850   -1.4303    0.3139 C   0  0  0  0  0  0  0  0  0  0  0  0
    0.0142   -2.5083   -0.2770 O   0  0  0  0  0  0  0  0  0  0  0  0
    1.1961   -1.0287    0.9442 N   0  0  0  0  0  0  0  0  0  0  0  0
    1.1540   -0.1586    1.4547 H   0  0  0  0  0  0  0  0  0  0  0  0
    2.4342   -1.8020    1.0062 C   0  0  0  0  0  0  0  0  0  0  0  0
    2.7235   -2.1194    0.0029 H   0  0  0  0  0  0  0  0  0  0  0  0
    3.2340   -1.1971    1.4365 H   0  0  0  0  0  0  0  0  0  0  0  0
    2.2821   -2.6901    1.6230 H   0  0  0  0  0  0  0  0  0  0  0  0
  5  6  2  0  0  0  0
  5  7  1  0  0  0  0
  2  3  1  0  0  0  0
  2  4  1  0  0  0  0
  2  5  1  0  0  0  0
  1  2  1  0  0  0  0
 26 27  2  0  0  0  0
 26 28  1  0  0  0  0
 24 25  1  0  0  0  0
 22 23  1  0  0  0  0
 22 24  2  0  0  0  0
 20 21  1  0  0  0  0
 19 20  1  0  0  0  0
 19 22  1  0  0  0  0
 17 18  1  0  0  0  0
 17 19  2  0  0  0  0
 15 16  1  0  0  0  0
 15 17  1  0  0  0  0
 14 15  2  0  0  0  0
 14 24  1  0  0  0  0
 11 12  1  0  0  0  0
 11 13  1  0  0  0  0
 11 14  1  0  0  0  0
  9 10  1  0  0  0  0
  9 11  1  0  0  0  0
  9 26  1  0  0  0  0
  7  8  1  0  0  0  0
  7  9  1  0  0  0  0
 30 31  1  0  0  0  0
 30 32  1  0  0  0  0
 30 33  1  0  0  0  0
 28 29  1  0  0  0  0
 28 30  1  0  0  0  0
M  END
$$$$
default_name
  -OEChem-01062215323D

 33 33  0     1  0  0  0  0  0999 V2000
   -4.0702   -3.8485    1.4554 H   0  0  0  0  0  0  0  0  0  0  0  0
   -4.0012   -2.9605    0.8284 C   0  0  0  0  0  0  0  0  0  0  0  0
   -4.7652   -2.2435    1.1234 H   0  0  0  0  0  0  0  0  0  0  0  0
   -4.1352   -3.2385   -0.2156 H   0  0  0  0  0  0  0  0  0  0  0  0
   -2.6362   -2.3395    1.0094 C   0  0  0  0  0  0  0  0  0  0  0  0
   -1.8292   -2.8395    1.7814 O   0  0  0  0  0  0  0  0  0  0  0  0
   -2.3832   -1.2445    0.2964 N   0  0  0  0  0  0  0  0  0  0  0  0
   -3.1102   -0.8685   -0.2946 H   0  0  0  0  0  0  0  0  0  0  0  0
   -1.1292   -0.4875    0.3524 C   0  0  1  0  0  0  0  0  0  0  0  0
   -1.0753    0.1595   -0.5240 H   0  0  0  0  0  0  0  0  0  0  0  0
   -1.1239    0.3996    1.6094 C   0  0  0  0  0  0  0  0  0  0  0  0
   -1.3219   -0.2227    2.4831 H   0  0  0  0  0  0  0  0  0  0  0  0
   -0.1289    0.8303    1.7337 H   0  0  0  0  0  0  0  0  0  0  0  0
   -2.1530    1.5130    1.5814 C   0  0  0  0  0  0  0  0  0  0  0  0
   -1.8912    2.7063    0.8787 C   0  0  0  0  0  0  0  0  0  0  0  0
   -0.9417    2.8422    0.3776 H   0  0  0  0  0  0  0  0  0  0  0  0
   -2.8664    3.7210    0.8219 C   0  0  0  0  0  0  0  0  0  0  0  0
   -2.6619    4.6341    0.2842 H   0  0  0  0  0  0  0  0  0  0  0  0
   -4.1091    3.5397    1.4671 C   0  0  0  0  0  0  0  0  0  0  0  0
   -5.0573    4.5110    1.4156 O   0  0  0  0  0  0  0  0  0  0  0  0
   -4.7353    5.3078    0.9921 H   0  0  0  0  0  0  0  0  0  0  0  0
   -4.3713    2.3429    2.1656 C   0  0  0  0  0  0  0  0  0  0  0  0
   -5.3236    2.2179    2.6586 H   0  0  0  0  0  0  0  0  0  0  0  0
   -3.3928    1.3325    2.2245 C   0  0  0  0  0  0  0  0  0  0  0  0
   -3.5914    0.4171    2.7692 H   0  0  0  0  0  0  0  0  0  0  0  0
    0.0850   -1.4303    0.3139 C   0  0  0  0  0  0  0  0  0  0  0  0
    0.1201   -2.3633   -0.4889 O   0  0  0  0  0  0  0  0  0  0  0  0
    1.0773   -1.1913    1.1806 N   0  0  0  0  0  0  0  0  0  0  0  0
    0.9458   -0.4427    1.8453 H   0  0  0  0  0  0  0  0  0  0  0  0
    2.2974   -1.9892    1.2776 C   0  0  0  0  0  0  0  0  0  0  0  0
    2.7461   -2.1020    0.2892 H   0  0  0  0  0  0  0  0  0  0  0  0
    3.0124   -1.5032    1.9436 H   0  0  0  0  0  0  0  0  0  0  0  0
    2.0579   -2.9806    1.6675 H   0  0  0  0  0  0  0  0  0  0  0  0
  5  6  2  0  0  0  0
  5  7  1  0  0  0  0
  2  3  1  0  0  0  0
  2  4  1  0  0  0  0
  2  5  1  0  0  0  0
  1  2  1  0  0  0  0
 26 27  2  0  0  0  0
 26 28  1  0  0  0  0
 24 25  1  0  0  0  0
 22 23  1  0  0  0  0
 22 24  2  0  0  0  0
 20 21  1  0  0  0  0
 19 20  1  0  0  0  0
 19 22  1  0  0  0  0
 17 18  1  0  0  0  0
 17 19  2  0  0  0  0
 15 16  1  0  0  0  0
 15 17  1  0  0  0  0
 14 15  2  0  0  0  0
 14 24  1  0  0  0  0
 11 12  1  0  0  0  0
 11 13  1  0  0  0  0
 11 14  1  0  0  0  0
  9 10  1  0  0  0  0
  9 11  1  0  0  0  0
  9 26  1  0  0  0  0
  7  8  1  0  0  0  0
  7  9  1  0  0  0  0
 30 31  1  0  0  0  0
 30 32  1  0  0  0  0
 30 33  1  0  0  0  0
 28 29  1  0  0  0  0
 28 30  1  0  0  0  0
M  END
$$$$
default_name
  -OEChem-01062215323D

 33 33  0     1  0  0  0  0  0999 V2000
   -4.0702   -3.8485    1.4554 H   0  0  0  0  0  0  0  0  0  0  0  0
   -4.0012   -2.9605    0.8284 C   0  0  0  0  0  0  0  0  0  0  0  0
   -4.7652   -2.2435    1.1234 H   0  0  0  0  0  0  0  0  0  0  0  0
   -4.1352   -3.2385   -0.2156 H   0  0  0  0  0  0  0  0  0  0  0  0
   -2.6362   -2.3395    1.0094 C   0  0  0  0  0  0  0  0  0  0  0  0
   -1.8292   -2.8395    1.7814 O   0  0  0  0  0  0  0  0  0  0  0  0
   -2.3832   -1.2445    0.2964 N   0  0  0  0  0  0  0  0  0  0  0  0
   -3.1102   -0.8685   -0.2946 H   0  0  0  0  0  0  0  0  0  0  0  0
   -1.1292   -0.4875    0.3524 C   0  0  1  0  0  0  0  0  0  0  0  0
   -1.0753    0.1595   -0.5240 H   0  0  0  0  0  0  0  0  0  0  0  0
   -1.1239    0.3996    1.6094 C   0  0  0  0  0  0  0  0  0  0  0  0
   -1.3219   -0.2227    2.4831 H   0  0  0  0  0  0  0  0  0  0  0  0
   -0.1289    0.8303    1.7337 H   0  0  0  0  0  0  0  0  0  0  0  0
   -2.1530    1.5130    1.5814 C   0  0  0  0  0  0  0  0  0  0  0  0
   -1.8912    2.7063    0.8787 C   0  0  0  0  0  0  0  0  0  0  0  0
   -0.9417    2.8422    0.3776 H   0  0  0  0  0  0  0  0  0  0  0  0
   -2.8664    3.7210    0.8219 C   0  0  0  0  0  0  0  0  0  0  0  0
   -2.6619    4.6341    0.2842 H   0  0  0  0  0  0  0  0  0  0  0  0
   -4.1091    3.5397    1.4671 C   0  0  0  0  0  0  0  0  0  0  0  0
   -5.0573    4.5110    1.4156 O   0  0  0  0  0  0  0  0  0  0  0  0
   -4.7353    5.3078    0.9921 H   0  0  0  0  0  0  0  0  0  0  0  0
   -4.3713    2.3429    2.1656 C   0  0  0  0  0  0  0  0  0  0  0  0
   -5.3236    2.2179    2.6586 H   0  0  0  0  0  0  0  0  0  0  0  0
   -3.3928    1.3325    2.2245 C   0  0  0  0  0  0  0  0  0  0  0  0
   -3.5914    0.4171    2.7692 H   0  0  0  0  0  0  0  0  0  0  0  0
    0.0850   -1.4303    0.3139 C   0  0  0  0  0  0  0  0  0  0  0  0
    0.2569   -2.1806   -0.6472 O   0  0  0  0  0  0  0  0  0  0  0  0
    0.9241   -1.3958    1.3569 N   0  0  0  0  0  0  0  0  0  0  0  0
    0.6808   -0.7956    2.1315 H   0  0  0  0  0  0  0  0  0  0  0  0
    2.1211   -2.2246    1.4799 C   0  0  0  0  0  0  0  0  0  0  0  0
    2.7226   -2.1438    0.5729 H   0  0  0  0  0  0  0  0  0  0  0  0
    2.7159   -1.9011    2.3357 H   0  0  0  0  0  0  0  0  0  0  0  0
    1.8324   -3.2689    1.6155 H   0  0  0  0  0  0  0  0  0  0  0  0
  5  6  2  0  0  0  0
  5  7  1  0  0  0  0
  2  3  1  0  0  0  0
  2  4  1  0  0  0  0
  2  5  1  0  0  0  0
  1  2  1  0  0  0  0
 26 27  2  0  0  0  0
 26 28  1  0  0  0  0
 24 25  1  0  0  0  0
 22 23  1  0  0  0  0
 22 24  2  0  0  0  0
 20 21  1  0  0  0  0
 19 20  1  0  0  0  0
 19 22  1  0  0  0  0
 17 18  1  0  0  0  0
 17 19  2  0  0  0  0
 15 16  1  0  0  0  0
 15 17  1  0  0  0  0
 14 15  2  0  0  0  0
 14 24  1  0  0  0  0
 11 12  1  0  0  0  0
 11 13  1  0  0  0  0
 11 14  1  0  0  0  0
  9 10  1  0  0  0  0
  9 11  1  0  0  0  0
  9 26  1  0  0  0  0
  7  8  1  0  0  0  0
  7  9  1  0  0  0  0
 30 31  1  0  0  0  0
 30 32  1  0  0  0  0
 30 33  1  0  0  0  0
 28 29  1  0  0  0  0
 28 30  1  0  0  0  0
M  END
$$$$
default_name
  -OEChem-01062215323D

 33 33  0     1  0  0  0  0  0999 V2000
   -4.0702   -3.8485    1.4554 H   0  0  0  0  0  0  0  0  0  0  0  0
   -4.0012   -2.9605    0.8284 C   0  0  0  0  0  0  0  0  0  0  0  0
   -4.7652   -2.2435    1.1234 H   0  0  0  0  0  0  0  0  0  0  0  0
   -4.1352   -3.2385   -0.2156 H   0  0  0  0  0  0  0  0  0  0  0  0
   -2.6362   -2.3395    1.0094 C   0  0  0  0  0  0  0  0  0  0  0  0
   -1.8292   -2.8395    1.7814 O   0  0  0  0  0  0  0  0  0  0  0  0
   -2.3832   -1.2445    0.2964 N   0  0  0  0  0  0  0  0  0  0  0  0
   -3.1102   -0.8685   -0.2946 H   0  0  0  0  0  0  0  0  0  0  0  0
   -1.1292   -0.4875    0.3524 C   0  0  1  0  0  0  0  0  0  0  0  0
   -1.0753    0.1595   -0.5240 H   0  0  0  0  0  0  0  0  0  0  0  0
   -1.1239    0.3996    1.6094 C   0  0  0  0  0  0  0  0  0  0  0  0
   -1.3219   -0.2227    2.4831 H   0  0  0  0  0  0  0  0  0  0  0  0
   -0.1289    0.8303    1.7337 H   0  0  0  0  0  0  0  0  0  0  0  0
   -2.1530    1.5130    1.5814 C   0  0  0  0  0  0  0  0  0  0  0  0
   -1.8912    2.7063    0.8787 C   0  0  0  0  0  0  0  0  0  0  0  0
   -0.9417    2.8422    0.3776 H   0  0  0  0  0  0  0  0  0  0  0  0
   -2.8664    3.7210    0.8219 C   0  0  0  0  0  0  0  0  0  0  0  0
   -2.6619    4.6341    0.2842 H   0  0  0  0  0  0  0  0  0  0  0  0
   -4.1091    3.5397    1.4671 C   0  0  0  0  0  0  0  0  0  0  0  0
   -5.0573    4.5110    1.4156 O   0  0  0  0  0  0  0  0  0  0  0  0
   -4.7353    5.3078    0.9921 H   0  0  0  0  0  0  0  0  0  0  0  0
   -4.3713    2.3429    2.1656 C   0  0  0  0  0  0  0  0  0  0  0  0
   -5.3236    2.2179    2.6586 H   0  0  0  0  0  0  0  0  0  0  0  0
   -3.3928    1.3325    2.2245 C   0  0  0  0  0  0  0  0  0  0  0  0
   -3.5914    0.4171    2.7692 H   0  0  0  0  0  0  0  0  0  0  0  0
    0.0850   -1.4303    0.3139 C   0  0  0  0  0  0  0  0  0  0  0  0
    0.4153   -1.9727   -0.7410 O   0  0  0  0  0  0  0  0  0  0  0  0
    0.7468   -1.6284    1.4610 N   0  0  0  0  0  0  0  0  0  0  0  0
    0.3771   -1.1933    2.2938 H   0  0  0  0  0  0  0  0  0  0  0  0
    1.9171   -2.4921    1.5992 C   0  0  0  0  0  0  0  0  0  0  0  0
    2.6547   -2.2420    0.8346 H   0  0  0  0  0  0  0  0  0  0  0  0
    2.3646   -2.3637    2.5861 H   0  0  0  0  0  0  0  0  0  0  0  0
    1.6210   -3.5353    1.4706 H   0  0  0  0  0  0  0  0  0  0  0  0
  5  6  2  0  0  0  0
  5  7  1  0  0  0  0
  2  3  1  0  0  0  0
  2  4  1  0  0  0  0
  2  5  1  0  0  0  0
  1  2  1  0  0  0  0
 26 27  2  0  0  0  0
 26 28  1  0  0  0  0
 24 25  1  0  0  0  0
 22 23  1  0  0  0  0
 22 24  2  0  0  0  0
 20 21  1  0  0  0  0
 19 20  1  0  0  0  0
 19 22  1  0  0  0  0
 17 18  1  0  0  0  0
 17 19  2  0  0  0  0
 15 16  1  0  0  0  0
 15 17  1  0  0  0  0
 14 15  2  0  0  0  0
 14 24  1  0  0  0  0
 11 12  1  0  0  0  0
 11 13  1  0  0  0  0
 11 14  1  0  0  0  0
  9 10  1  0  0  0  0
  9 11  1  0  0  0  0
  9 26  1  0  0  0  0
  7  8  1  0  0  0  0
  7  9  1  0  0  0  0
 30 31  1  0  0  0  0
 30 32  1  0  0  0  0
 30 33  1  0  0  0  0
 28 29  1  0  0  0  0
 28 30  1  0  0  0  0
M  END
$$$$
default_name
  -OEChem-01062215323D

 33 33  0     1  0  0  0  0  0999 V2000
   -4.0702   -3.8485    1.4554 H   0  0  0  0  0  0  0  0  0  0  0  0
   -4.0012   -2.9605    0.8284 C   0  0  0  0  0  0  0  0  0  0  0  0
   -4.7652   -2.2435    1.1234 H   0  0  0  0  0  0  0  0  0  0  0  0
   -4.1352   -3.2385   -0.2156 H   0  0  0  0  0  0  0  0  0  0  0  0
   -2.6362   -2.3395    1.0094 C   0  0  0  0  0  0  0  0  0  0  0  0
   -1.8292   -2.8395    1.7814 O   0  0  0  0  0  0  0  0  0  0  0  0
   -2.3832   -1.2445    0.2964 N   0  0  0  0  0  0  0  0  0  0  0  0
   -3.1102   -0.8685   -0.2946 H   0  0  0  0  0  0  0  0  0  0  0  0
   -1.1292   -0.4875    0.3524 C   0  0  1  0  0  0  0  0  0  0  0  0
   -1.0753    0.1595   -0.5240 H   0  0  0  0  0  0  0  0  0  0  0  0
   -1.1239    0.3996    1.6094 C   0  0  0  0  0  0  0  0  0  0  0  0
   -1.3219   -0.2227    2.4831 H   0  0  0  0  0  0  0  0  0  0  0  0
   -0.1289    0.8303    1.7337 H   0  0  0  0  0  0  0  0  0  0  0  0
   -2.1530    1.5130    1.5814 C   0  0  0  0  0  0  0  0  0  0  0  0
   -1.8912    2.7063    0.8787 C   0  0  0  0  0  0  0  0  0  0  0  0
   -0.9417    2.8422    0.3776 H   0  0  0  0  0  0  0  0  0  0  0  0
   -2.8664    3.7210    0.8219 C   0  0  0  0  0  0  0  0  0  0  0  0
   -2.6619    4.6341    0.2842 H   0  0  0  0  0  0  0  0  0  0  0  0
   -4.1091    3.5397    1.4671 C   0  0  0  0  0  0  0  0  0  0  0  0
   -5.0573    4.5110    1.4156 O   0  0  0  0  0  0  0  0  0  0  0  0
   -4.7353    5.3078    0.9921 H   0  0  0  0  0  0  0  0  0  0  0  0
   -4.3713    2.3429    2.1656 C   0  0  0  0  0  0  0  0  0  0  0  0
   -5.3236    2.2179    2.6586 H   0  0  0  0  0  0  0  0  0  0  0  0
   -3.3928    1.3325    2.2245 C   0  0  0  0  0  0  0  0  0  0  0  0
   -3.5914    0.4171    2.7692 H   0  0  0  0  0  0  0  0  0  0  0  0
    0.0850   -1.4303    0.3139 C   0  0  0  0  0  0  0  0  0  0  0  0
    0.5846   -1.7537   -0.7640 O   0  0  0  0  0  0  0  0  0  0  0  0
    0.5575   -1.8732    1.4859 N   0  0  0  0  0  0  0  0  0  0  0  0
    0.0555   -1.6087    2.3211 H   0  0  0  0  0  0  0  0  0  0  0  0
    1.6994   -2.7736    1.6273 C   0  0  0  0  0  0  0  0  0  0  0  0
    2.5468   -2.3899    1.0566 H   0  0  0  0  0  0  0  0  0  0  0  0
    1.9826   -2.8594    2.6777 H   0  0  0  0  0  0  0  0  0  0  0  0
    1.4380   -3.7616    1.2426 H   0  0  0  0  0  0  0  0  0  0  0  0
  5  6  2  0  0  0  0
  5  7  1  0  0  0  0
  2  3  1  0  0  0  0
  2  4  1  0  0  0  0
  2  5  1  0  0  0  0
  1  2  1  0  0  0  0
 26 27  2  0  0  0  0
 26 28  1  0  0  0  0
 24 25  1  0  0  0  0
 22 23  1  0  0  0  0
 22 24  2  0  0  0  0
 20 21  1  0  0  0  0
 19 20  1  0  0  0  0
 19 22  1  0  0  0  0
 17 18  1  0  0  0  0
 17 19  2  0  0  0  0
 15 16  1  0  0  0  0
 15 17  1  0  0  0  0
 14 15  2  0  0  0  0
 14 24  1  0  0  0  0
 11 12  1  0  0  0  0
 11 13  1  0  0  0  0
 11 14  1  0  0  0  0
  9 10  1  0  0  0  0
  9 11  1  0  0  0  0
  9 26  1  0  0  0  0
  7  8  1  0  0  0  0
  7  9  1  0  0  0  0
 30 31  1  0  0  0  0
 30 32  1  0  0  0  0
 30 33  1  0  0  0  0
 28 29  1  0  0  0  0
 28 30  1  0  0  0  0
M  END
$$$$
default_name
  -OEChem-01062215323D

 33 33  0     1  0  0  0  0  0999 V2000
   -4.0702   -3.8485    1.4554 H   0  0  0  0  0  0  0  0  0  0  0  0
   -4.0012   -2.9605    0.8284 C   0  0  0  0  0  0  0  0  0  0  0  0
   -4.7652   -2.2435    1.1234 H   0  0  0  0  0  0  0  0  0  0  0  0
   -4.1352   -3.2385   -0.2156 H   0  0  0  0  0  0  0  0  0  0  0  0
   -2.6362   -2.3395    1.0094 C   0  0  0  0  0  0  0  0  0  0  0  0
   -1.8292   -2.8395    1.7814 O   0  0  0  0  0  0  0  0  0  0  0  0
   -2.3832   -1.2445    0.2964 N   0  0  0  0  0  0  0  0  0  0  0  0
   -3.1102   -0.8685   -0.2946 H   0  0  0  0  0  0  0  0  0  0  0  0
   -1.1292   -0.4875    0.3524 C   0  0  1  0  0  0  0  0  0  0  0  0
   -1.0753    0.1595   -0.5240 H   0  0  0  0  0  0  0  0  0  0  0  0
   -1.1239    0.3996    1.6094 C   0  0  0  0  0  0  0  0  0  0  0  0
   -1.3219   -0.2227    2.4831 H   0  0  0  0  0  0  0  0  0  0  0  0
   -0.1289    0.8303    1.7337 H   0  0  0  0  0  0  0  0  0  0  0  0
   -2.1530    1.5130    1.5814 C   0  0  0  0  0  0  0  0  0  0  0  0
   -1.8912    2.7063    0.8787 C   0  0  0  0  0  0  0  0  0  0  0  0
   -0.9417    2.8422    0.3776 H   0  0  0  0  0  0  0  0  0  0  0  0
   -2.8664    3.7210    0.8219 C   0  0  0  0  0  0  0  0  0  0  0  0
   -2.6619    4.6341    0.2842 H   0  0  0  0  0  0  0  0  0  0  0  0
   -4.1091    3.5397    1.4671 C   0  0  0  0  0  0  0  0  0  0  0  0
   -5.0573    4.5110    1.4156 O   0  0  0  0  0  0  0  0  0  0  0  0
   -4.7353    5.3078    0.9921 H   0  0  0  0  0  0  0  0  0  0  0  0
   -4.3713    2.3429    2.1656 C   0  0  0  0  0  0  0  0  0  0  0  0
   -5.3236    2.2179    2.6586 H   0  0  0  0  0  0  0  0  0  0  0  0
   -3.3928    1.3325    2.2245 C   0  0  0  0  0  0  0  0  0  0  0  0
   -3.5914    0.4171    2.7692 H   0  0  0  0  0  0  0  0  0  0  0  0
    0.0850   -1.4303    0.3139 C   0  0  0  0  0  0  0  0  0  0  0  0
    0.7533   -1.5386   -0.7146 O   0  0  0  0  0  0  0  0  0  0  0  0
    0.3691   -2.1136    1.4299 N   0  0  0  0  0  0  0  0  0  0  0  0
   -0.2622   -2.0134    2.2115 H   0  0  0  0  0  0  0  0  0  0  0  0
    1.4829   -3.0499    1.5625 C   0  0  0  0  0  0  0  0  0  0  0  0
    2.4065   -2.5775    1.2237 H   0  0  0  0  0  0  0  0  0  0  0  0
    1.5959   -3.3544    2.6042 H   0  0  0  0  0  0  0  0  0  0  0  0
    1.2960   -3.9324    0.9471 H   0  0  0  0  0  0  0  0  0  0  0  0
  5  6  2  0  0  0  0
  5  7  1  0  0  0  0
  2  3  1  0  0  0  0
  2  4  1  0  0  0  0
  2  5  1  0  0  0  0
  1  2  1  0  0  0  0
 26 27  2  0  0  0  0
 26 28  1  0  0  0  0
 24 25  1  0  0  0  0
 22 23  1  0  0  0  0
 22 24  2  0  0  0  0
 20 21  1  0  0  0  0
 19 20  1  0  0  0  0
 19 22  1  0  0  0  0
 17 18  1  0  0  0  0
 17 19  2  0  0  0  0
 15 16  1  0  0  0  0
 15 17  1  0  0  0  0
 14 15  2  0  0  0  0
 14 24  1  0  0  0  0
 11 12  1  0  0  0  0
 11 13  1  0  0  0  0
 11 14  1  0  0  0  0
  9 10  1  0  0  0  0
  9 11  1  0  0  0  0
  9 26  1  0  0  0  0
  7  8  1  0  0  0  0
  7  9  1  0  0  0  0
 30 31  1  0  0  0  0
 30 32  1  0  0  0  0
 30 33  1  0  0  0  0
 28 29  1  0  0  0  0
 28 30  1  0  0  0  0
M  END
$$$$
default_name
  -OEChem-01062215323D

 33 33  0     1  0  0  0  0  0999 V2000
   -4.0702   -3.8485    1.4554 H   0  0  0  0  0  0  0  0  0  0  0  0
   -4.0012   -2.9605    0.8284 C   0  0  0  0  0  0  0  0  0  0  0  0
   -4.7652   -2.2435    1.1234 H   0  0  0  0  0  0  0  0  0  0  0  0
   -4.1352   -3.2385   -0.2156 H   0  0  0  0  0  0  0  0  0  0  0  0
   -2.6362   -2.3395    1.0094 C   0  0  0  0  0  0  0  0  0  0  0  0
   -1.8292   -2.8395    1.7814 O   0  0  0  0  0  0  0  0  0  0  0  0
   -2.3832   -1.2445    0.2964 N   0  0  0  0  0  0  0  0  0  0  0  0
   -3.1102   -0.8685   -0.2946 H   0  0  0  0  0  0  0  0  0  0  0  0
   -1.1292   -0.4875    0.3524 C   0  0  1  0  0  0  0  0  0  0  0  0
   -1.0753    0.1595   -0.5240 H   0  0  0  0  0  0  0  0  0  0  0  0
   -1.1239    0.3996    1.6094 C   0  0  0  0  0  0  0  0  0  0  0  0
   -1.3219   -0.2227    2.4831 H   0  0  0  0  0  0  0  0  0  0  0  0
   -0.1289    0.8303    1.7337 H   0  0  0  0  0  0  0  0  0  0  0  0
   -2.1530    1.5130    1.5814 C   0  0  0  0  0  0  0  0  0  0  0  0
   -1.8912    2.7063    0.8787 C   0  0  0  0  0  0  0  0  0  0  0  0
   -0.9417    2.8422    0.3776 H   0  0  0  0  0  0  0  0  0  0  0  0
   -2.8664    3.7210    0.8219 C   0  0  0  0  0  0  0  0  0  0  0  0
   -2.6619    4.6341    0.2842 H   0  0  0  0  0  0  0  0  0  0  0  0
   -4.1091    3.5397    1.4671 C   0  0  0  0  0  0  0  0  0  0  0  0
   -5.0573    4.5110    1.4156 O   0  0  0  0  0  0  0  0  0  0  0  0
   -4.7353    5.3078    0.9921 H   0  0  0  0  0  0  0  0  0  0  0  0
   -4.3713    2.3429    2.1656 C   0  0  0  0  0  0  0  0  0  0  0  0
   -5.3236    2.2179    2.6586 H   0  0  0  0  0  0  0  0  0  0  0  0
   -3.3928    1.3325    2.2245 C   0  0  0  0  0  0  0  0  0  0  0  0
   -3.5914    0.4171    2.7692 H   0  0  0  0  0  0  0  0  0  0  0  0
    0.0850   -1.4303    0.3139 C   0  0  0  0  0  0  0  0  0  0  0  0
    0.9097   -1.3420   -0.5962 O   0  0  0  0  0  0  0  0  0  0  0  0
    0.1944   -2.3330    1.2968 N   0  0  0  0  0  0  0  0  0  0  0  0
   -0.5543   -2.3798    1.9726 H   0  0  0  0  0  0  0  0  0  0  0  0
    1.2822   -3.3021    1.4090 C   0  0  0  0  0  0  0  0  0  0  0  0
    2.2432   -2.7919    1.3245 H   0  0  0  0  0  0  0  0  0  0  0  0
    1.2308   -3.8151    2.3707 H   0  0  0  0  0  0  0  0  0  0  0  0
    1.2046   -4.0361    0.6042 H   0  0  0  0  0  0  0  0  0  0  0  0
  5  6  2  0  0  0  0
  5  7  1  0  0  0  0
  2  3  1  0  0  0  0
  2  4  1  0  0  0  0
  2  5  1  0  0  0  0
  1  2  1  0  0  0  0
 26 27  2  0  0  0  0
 26 28  1  0  0  0  0
 24 25  1  0  0  0  0
 22 23  1  0  0  0  0
 22 24  2  0  0  0  0
 20 21  1  0  0  0  0
 19 20  1  0  0  0  0
 19 22  1  0  0  0  0
 17 18  1  0  0  0  0
 17 19  2  0  0  0  0
 15 16  1  0  0  0  0
 15 17  1  0  0  0  0
 14 15  2  0  0  0  0
 14 24  1  0  0  0  0
 11 12  1  0  0  0  0
 11 13  1  0  0  0  0
 11 14  1  0  0  0  0
  9 10  1  0  0  0  0
  9 11  1  0  0  0  0
  9 26  1  0  0  0  0
  7  8  1  0  0  0  0
  7  9  1  0  0  0  0
 30 31  1  0  0  0  0
 30 32  1  0  0  0  0
 30 33  1  0  0  0  0
 28 29  1  0  0  0  0
 28 30  1  0  0  0  0
M  END
$$$$
default_name
  -OEChem-01062215323D

 33 33  0     1  0  0  0  0  0999 V2000
   -4.0702   -3.8485    1.4554 H   0  0  0  0  0  0  0  0  0  0  0  0
   -4.0012   -2.9605    0.8284 C   0  0  0  0  0  0  0  0  0  0  0  0
   -4.7652   -2.2435    1.1234 H   0  0  0  0  0  0  0  0  0  0  0  0
   -4.1352   -3.2385   -0.2156 H   0  0  0  0  0  0  0  0  0  0  0  0
   -2.6362   -2.3395    1.0094 C   0  0  0  0  0  0  0  0  0  0  0  0
   -1.8292   -2.8395    1.7814 O   0  0  0  0  0  0  0  0  0  0  0  0
   -2.3832   -1.2445    0.2964 N   0  0  0  0  0  0  0  0  0  0  0  0
   -3.1102   -0.8685   -0.2946 H   0  0  0  0  0  0  0  0  0  0  0  0
   -1.1292   -0.4875    0.3524 C   0  0  1  0  0  0  0  0  0  0  0  0
   -1.0753    0.1595   -0.5240 H   0  0  0  0  0  0  0  0  0  0  0  0
   -1.1239    0.3996    1.6094 C   0  0  0  0  0  0  0  0  0  0  0  0
   -1.3219   -0.2227    2.4831 H   0  0  0  0  0  0  0  0  0  0  0  0
   -0.1289    0.8303    1.7337 H   0  0  0  0  0  0  0  0  0  0  0  0
   -2.1530    1.5130    1.5814 C   0  0  0  0  0  0  0  0  0  0  0  0
   -1.8912    2.7063    0.8787 C   0  0  0  0  0  0  0  0  0  0  0  0
   -0.9417    2.8422    0.3776 H   0  0  0  0  0  0  0  0  0  0  0  0
   -2.8664    3.7210    0.8219 C   0  0  0  0  0  0  0  0  0  0  0  0
   -2.6619    4.6341    0.2842 H   0  0  0  0  0  0  0  0  0  0  0  0
   -4.1091    3.5397    1.4671 C   0  0  0  0  0  0  0  0  0  0  0  0
   -5.0573    4.5110    1.4156 O   0  0  0  0  0  0  0  0  0  0  0  0
   -4.7353    5.3078    0.9921 H   0  0  0  0  0  0  0  0  0  0  0  0
   -4.3713    2.3429    2.1656 C   0  0  0  0  0  0  0  0  0  0  0  0
   -5.3236    2.2179    2.6586 H   0  0  0  0  0  0  0  0  0  0  0  0
   -3.3928    1.3325    2.2245 C   0  0  0  0  0  0  0  0  0  0  0  0
   -3.5914    0.4171    2.7692 H   0  0  0  0  0  0  0  0  0  0  0  0
    0.0850   -1.4303    0.3139 C   0  0  0  0  0  0  0  0  0  0  0  0
    1.0432   -1.1773   -0.4168 O   0  0  0  0  0  0  0  0  0  0  0  0
    0.0455   -2.5167    1.0956 N   0  0  0  0  0  0  0  0  0  0  0  0
   -0.8009   -2.6830    1.6205 H   0  0  0  0  0  0  0  0  0  0  0  0
    1.1111   -3.5130    1.1774 C   0  0  0  0  0  0  0  0  0  0  0  0
    2.0681   -3.0185    1.3521 H   0  0  0  0  0  0  0  0  0  0  0  0
    0.9123   -4.2099    1.9931 H   0  0  0  0  0  0  0  0  0  0  0  0
    1.1701   -4.0656    0.2374 H   0  0  0  0  0  0  0  0  0  0  0  0
  5  6  2  0  0  0  0
  5  7  1  0  0  0  0
  2  3  1  0  0  0  0
  2  4  1  0  0  0  0
  2  5  1  0  0  0  0
  1  2  1  0  0  0  0
 26 27  2  0  0  0  0
 26 28  1  0  0  0  0
 24 25  1  0  0  0  0
 22 23  1  0  0  0  0
 22 24  2  0  0  0  0
 20 21  1  0  0  0  0
 19 20  1  0  0  0  0
 19 22  1  0  0  0  0
 17 18  1  0  0  0  0
 17 19  2  0  0  0  0
 15 16  1  0  0  0  0
 15 17  1  0  0  0  0
 14 15  2  0  0  0  0
 14 24  1  0  0  0  0
 11 12  1  0  0  0  0
 11 13  1  0  0  0  0
 11 14  1  0  0  0  0
  9 10  1  0  0  0  0
  9 11  1  0  0  0  0
  9 26  1  0  0  0  0
  7  8  1  0  0  0  0
  7  9  1  0  0  0  0
 30 31  1  0  0  0  0
 30 32  1  0  0  0  0
 30 33  1  0  0  0  0
 28 29  1  0  0  0  0
 28 30  1  0  0  0  0
M  END
$$$$
default_name
  -OEChem-01062215323D

 33 33  0     1  0  0  0  0  0999 V2000
   -4.0702   -3.8485    1.4554 H   0  0  0  0  0  0  0  0  0  0  0  0
   -4.0012   -2.9605    0.8284 C   0  0  0  0  0  0  0  0  0  0  0  0
   -4.7652   -2.2435    1.1234 H   0  0  0  0  0  0  0  0  0  0  0  0
   -4.1352   -3.2385   -0.2156 H   0  0  0  0  0  0  0  0  0  0  0  0
   -2.6362   -2.3395    1.0094 C   0  0  0  0  0  0  0  0  0  0  0  0
   -1.8292   -2.8395    1.7814 O   0  0  0  0  0  0  0  0  0  0  0  0
   -2.3832   -1.2445    0.2964 N   0  0  0  0  0  0  0  0  0  0  0  0
   -3.1102   -0.8685   -0.2946 H   0  0  0  0  0  0  0  0  0  0  0  0
   -1.1292   -0.4875    0.3524 C   0  0  1  0  0  0  0  0  0  0  0  0
   -1.0753    0.1595   -0.5240 H   0  0  0  0  0  0  0  0  0  0  0  0
   -1.1239    0.3996    1.6094 C   0  0  0  0  0  0  0  0  0  0  0  0
   -1.3219   -0.2227    2.4831 H   0  0  0  0  0  0  0  0  0  0  0  0
   -0.1289    0.8303    1.7337 H   0  0  0  0  0  0  0  0  0  0  0  0
   -2.1530    1.5130    1.5814 C   0  0  0  0  0  0  0  0  0  0  0  0
   -1.8912    2.7063    0.8787 C   0  0  0  0  0  0  0  0  0  0  0  0
   -0.9417    2.8422    0.3776 H   0  0  0  0  0  0  0  0  0  0  0  0
   -2.8664    3.7210    0.8219 C   0  0  0  0  0  0  0  0  0  0  0  0
   -2.6619    4.6341    0.2842 H   0  0  0  0  0  0  0  0  0  0  0  0
   -4.1091    3.5397    1.4671 C   0  0  0  0  0  0  0  0  0  0  0  0
   -5.0573    4.5110    1.4156 O   0  0  0  0  0  0  0  0  0  0  0  0
   -4.7353    5.3078    0.9921 H   0  0  0  0  0  0  0  0  0  0  0  0
   -4.3713    2.3429    2.1656 C   0  0  0  0  0  0  0  0  0  0  0  0
   -5.3236    2.2179    2.6586 H   0  0  0  0  0  0  0  0  0  0  0  0
   -3.3928    1.3325    2.2245 C   0  0  0  0  0  0  0  0  0  0  0  0
   -3.5914    0.4171    2.7692 H   0  0  0  0  0  0  0  0  0  0  0  0
    0.0850   -1.4303    0.3139 C   0  0  0  0  0  0  0  0  0  0  0  0
    1.1448   -1.0557   -0.1887 O   0  0  0  0  0  0  0  0  0  0  0  0
   -0.0677   -2.6521    0.8402 N   0  0  0  0  0  0  0  0  0  0  0  0
   -0.9852   -2.9024    1.1794 H   0  0  0  0  0  0  0  0  0  0  0  0
    0.9812   -3.6683    0.8834 C   0  0  0  0  0  0  0  0  0  0  0  0
    1.8932   -3.2419    1.3047 H   0  0  0  0  0  0  0  0  0  0  0  0
    0.6619   -4.5121    1.4972 H   0  0  0  0  0  0  0  0  0  0  0  0
    1.1948   -4.0189   -0.1285 H   0  0  0  0  0  0  0  0  0  0  0  0
  5  6  2  0  0  0  0
  5  7  1  0  0  0  0
  2  3  1  0  0  0  0
  2  4  1  0  0  0  0
  2  5  1  0  0  0  0
  1  2  1  0  0  0  0
 26 27  2  0  0  0  0
 26 28  1  0  0  0  0
 24 25  1  0  0  0  0
 22 23  1  0  0  0  0
 22 24  2  0  0  0  0
 20 21  1  0  0  0  0
 19 20  1  0  0  0  0
 19 22  1  0  0  0  0
 17 18  1  0  0  0  0
 17 19  2  0  0  0  0
 15 16  1  0  0  0  0
 15 17  1  0  0  0  0
 14 15  2  0  0  0  0
 14 24  1  0  0  0  0
 11 12  1  0  0  0  0
 11 13  1  0  0  0  0
 11 14  1  0  0  0  0
  9 10  1  0  0  0  0
  9 11  1  0  0  0  0
  9 26  1  0  0  0  0
  7  8  1  0  0  0  0
  7  9  1  0  0  0  0
 30 31  1  0  0  0  0
 30 32  1  0  0  0  0
 30 33  1  0  0  0  0
 28 29  1  0  0  0  0
 28 30  1  0  0  0  0
M  END
$$$$
default_name
  -OEChem-01062215323D

 33 33  0     1  0  0  0  0  0999 V2000
   -4.0702   -3.8485    1.4554 H   0  0  0  0  0  0  0  0  0  0  0  0
   -4.0012   -2.9605    0.8284 C   0  0  0  0  0  0  0  0  0  0  0  0
   -4.7652   -2.2435    1.1234 H   0  0  0  0  0  0  0  0  0  0  0  0
   -4.1352   -3.2385   -0.2156 H   0  0  0  0  0  0  0  0  0  0  0  0
   -2.6362   -2.3395    1.0094 C   0  0  0  0  0  0  0  0  0  0  0  0
   -1.8292   -2.8395    1.7814 O   0  0  0  0  0  0  0  0  0  0  0  0
   -2.3832   -1.2445    0.2964 N   0  0  0  0  0  0  0  0  0  0  0  0
   -3.1102   -0.8685   -0.2946 H   0  0  0  0  0  0  0  0  0  0  0  0
   -1.1292   -0.4875    0.3524 C   0  0  1  0  0  0  0  0  0  0  0  0
   -1.0753    0.1595   -0.5240 H   0  0  0  0  0  0  0  0  0  0  0  0
   -1.1239    0.3996    1.6094 C   0  0  0  0  0  0  0  0  0  0  0  0
   -1.3219   -0.2227    2.4831 H   0  0  0  0  0  0  0  0  0  0  0  0
   -0.1289    0.8303    1.7337 H   0  0  0  0  0  0  0  0  0  0  0  0
   -2.1530    1.5130    1.5814 C   0  0  0  0  0  0  0  0  0  0  0  0
   -1.8912    2.7063    0.8787 C   0  0  0  0  0  0  0  0  0  0  0  0
   -0.9417    2.8422    0.3776 H   0  0  0  0  0  0  0  0  0  0  0  0
   -2.8664    3.7210    0.8219 C   0  0  0  0  0  0  0  0  0  0  0  0
   -2.6619    4.6341    0.2842 H   0  0  0  0  0  0  0  0  0  0  0  0
   -4.1091    3.5397    1.4671 C   0  0  0  0  0  0  0  0  0  0  0  0
   -5.0573    4.5110    1.4156 O   0  0  0  0  0  0  0  0  0  0  0  0
   -4.7353    5.3078    0.9921 H   0  0  0  0  0  0  0  0  0  0  0  0
   -4.3713    2.3429    2.1656 C   0  0  0  0  0  0  0  0  0  0  0  0
   -5.3236    2.2179    2.6586 H   0  0  0  0  0  0  0  0  0  0  0  0
   -3.3928    1.3325    2.2245 C   0  0  0  0  0  0  0  0  0  0  0  0
   -3.5914    0.4171    2.7692 H   0  0  0  0  0  0  0  0  0  0  0  0
    0.0850   -1.4303    0.3139 C   0  0  0  0  0  0  0  0  0  0  0  0
    1.2076   -0.9856    0.0727 O   0  0  0  0  0  0  0  0  0  0  0  0
   -0.1374   -2.7298    0.5478 N   0  0  0  0  0  0  0  0  0  0  0  0
   -1.0947   -3.0229    0.6792 H   0  0  0  0  0  0  0  0  0  0  0  0
    0.9013   -3.7574    0.5470 C   0  0  0  0  0  0  0  0  0  0  0  0
    1.7302   -3.4469    1.1855 H   0  0  0  0  0  0  0  0  0  0  0  0
    0.4968   -4.7010    0.9166 H   0  0  0  0  0  0  0  0  0  0  0  0
    1.2770   -3.8991   -0.4684 H   0  0  0  0  0  0  0  0  0  0  0  0
  5  6  2  0  0  0  0
  5  7  1  0  0  0  0
  2  3  1  0  0  0  0
  2  4  1  0  0  0  0
  2  5  1  0  0  0  0
  1  2  1  0  0  0  0
 26 27  2  0  0  0  0
 26 28  1  0  0  0  0
 24 25  1  0  0  0  0
 22 23  1  0  0  0  0
 22 24  2  0  0  0  0
 20 21  1  0  0  0  0
 19 20  1  0  0  0  0
 19 22  1  0  0  0  0
 17 18  1  0  0  0  0
 17 19  2  0  0  0  0
 15 16  1  0  0  0  0
 15 17  1  0  0  0  0
 14 15  2  0  0  0  0
 14 24  1  0  0  0  0
 11 12  1  0  0  0  0
 11 13  1  0  0  0  0
 11 14  1  0  0  0  0
  9 10  1  0  0  0  0
  9 11  1  0  0  0  0
  9 26  1  0  0  0  0
  7  8  1  0  0  0  0
  7  9  1  0  0  0  0
 30 31  1  0  0  0  0
 30 32  1  0  0  0  0
 30 33  1  0  0  0  0
 28 29  1  0  0  0  0
 28 30  1  0  0  0  0
M  END
$$$$
default_name
  -OEChem-01062215323D

 33 33  0     1  0  0  0  0  0999 V2000
   -4.0702   -3.8485    1.4554 H   0  0  0  0  0  0  0  0  0  0  0  0
   -4.0012   -2.9605    0.8284 C   0  0  0  0  0  0  0  0  0  0  0  0
   -4.7652   -2.2435    1.1234 H   0  0  0  0  0  0  0  0  0  0  0  0
   -4.1352   -3.2385   -0.2156 H   0  0  0  0  0  0  0  0  0  0  0  0
   -2.6362   -2.3395    1.0094 C   0  0  0  0  0  0  0  0  0  0  0  0
   -1.8292   -2.8395    1.7814 O   0  0  0  0  0  0  0  0  0  0  0  0
   -2.3832   -1.2445    0.2964 N   0  0  0  0  0  0  0  0  0  0  0  0
   -3.1102   -0.8685   -0.2946 H   0  0  0  0  0  0  0  0  0  0  0  0
   -1.1292   -0.4875    0.3524 C   0  0  1  0  0  0  0  0  0  0  0  0
   -1.0753    0.1595   -0.5240 H   0  0  0  0  0  0  0  0  0  0  0  0
   -1.1239    0.3996    1.6094 C   0  0  0  0  0  0  0  0  0  0  0  0
   -1.3219   -0.2227    2.4831 H   0  0  0  0  0  0  0  0  0  0  0  0
   -0.1289    0.8303    1.7337 H   0  0  0  0  0  0  0  0  0  0  0  0
   -2.1530    1.5130    1.5814 C   0  0  0  0  0  0  0  0  0  0  0  0
   -1.8912    2.7063    0.8787 C   0  0  0  0  0  0  0  0  0  0  0  0
   -0.9417    2.8422    0.3776 H   0  0  0  0  0  0  0  0  0  0  0  0
   -2.8664    3.7210    0.8219 C   0  0  0  0  0  0  0  0  0  0  0  0
   -2.6619    4.6341    0.2842 H   0  0  0  0  0  0  0  0  0  0  0  0
   -4.1091    3.5397    1.4671 C   0  0  0  0  0  0  0  0  0  0  0  0
   -5.0573    4.5110    1.4156 O   0  0  0  0  0  0  0  0  0  0  0  0
   -4.7353    5.3078    0.9921 H   0  0  0  0  0  0  0  0  0  0  0  0
   -4.3713    2.3429    2.1656 C   0  0  0  0  0  0  0  0  0  0  0  0
   -5.3236    2.2179    2.6586 H   0  0  0  0  0  0  0  0  0  0  0  0
   -3.3928    1.3325    2.2245 C   0  0  0  0  0  0  0  0  0  0  0  0
   -3.5914    0.4171    2.7692 H   0  0  0  0  0  0  0  0  0  0  0  0
    0.0850   -1.4303    0.3139 C   0  0  0  0  0  0  0  0  0  0  0  0
    1.2272   -0.9717    0.3494 O   0  0  0  0  0  0  0  0  0  0  0  0
   -0.1588   -2.7448    0.2384 N   0  0  0  0  0  0  0  0  0  0  0  0
   -1.1218   -3.0364    0.1541 H   0  0  0  0  0  0  0  0  0  0  0  0
    0.8770   -3.7742    0.1913 C   0  0  0  0  0  0  0  0  0  0  0  0
    1.5904   -3.6195    1.0026 H   0  0  0  0  0  0  0  0  0  0  0  0
    0.4282   -4.7638    0.2910 H   0  0  0  0  0  0  0  0  0  0  0  0
    1.4111   -3.7145   -0.7593 H   0  0  0  0  0  0  0  0  0  0  0  0
  5  6  2  0  0  0  0
  5  7  1  0  0  0  0
  2  3  1  0  0  0  0
  2  4  1  0  0  0  0
  2  5  1  0  0  0  0
  1  2  1  0  0  0  0
 26 27  2  0  0  0  0
 26 28  1  0  0  0  0
 24 25  1  0  0  0  0
 22 23  1  0  0  0  0
 22 24  2  0  0  0  0
 20 21  1  0  0  0  0
 19 20  1  0  0  0  0
 19 22  1  0  0  0  0
 17 18  1  0  0  0  0
 17 19  2  0  0  0  0
 15 16  1  0  0  0  0
 15 17  1  0  0  0  0
 14 15  2  0  0  0  0
 14 24  1  0  0  0  0
 11 12  1  0  0  0  0
 11 13  1  0  0  0  0
 11 14  1  0  0  0  0
  9 10  1  0  0  0  0
  9 11  1  0  0  0  0
  9 26  1  0  0  0  0
  7  8  1  0  0  0  0
  7  9  1  0  0  0  0
 30 31  1  0  0  0  0
 30 32  1  0  0  0  0
 30 33  1  0  0  0  0
 28 29  1  0  0  0  0
 28 30  1  0  0  0  0
M  END
$$$$
default_name
  -OEChem-01062215323D

 33 33  0     1  0  0  0  0  0999 V2000
   -4.0702   -3.8485    1.4554 H   0  0  0  0  0  0  0  0  0  0  0  0
   -4.0012   -2.9605    0.8284 C   0  0  0  0  0  0  0  0  0  0  0  0
   -4.7652   -2.2435    1.1234 H   0  0  0  0  0  0  0  0  0  0  0  0
   -4.1352   -3.2385   -0.2156 H   0  0  0  0  0  0  0  0  0  0  0  0
   -2.6362   -2.3395    1.0094 C   0  0  0  0  0  0  0  0  0  0  0  0
   -1.8292   -2.8395    1.7814 O   0  0  0  0  0  0  0  0  0  0  0  0
   -2.3832   -1.2445    0.2964 N   0  0  0  0  0  0  0  0  0  0  0  0
   -3.1102   -0.8685   -0.2946 H   0  0  0  0  0  0  0  0  0  0  0  0
   -1.1292   -0.4875    0.3524 C   0  0  1  0  0  0  0  0  0  0  0  0
   -1.0753    0.1595   -0.5240 H   0  0  0  0  0  0  0  0  0  0  0  0
   -1.1239    0.3996    1.6094 C   0  0  0  0  0  0  0  0  0  0  0  0
   -1.3219   -0.2227    2.4831 H   0  0  0  0  0  0  0  0  0  0  0  0
   -0.1289    0.8303    1.7337 H   0  0  0  0  0  0  0  0  0  0  0  0
   -2.1530    1.5130    1.5814 C   0  0  0  0  0  0  0  0  0  0  0  0
   -1.8912    2.7063    0.8787 C   0  0  0  0  0  0  0  0  0  0  0  0
   -0.9417    2.8422    0.3776 H   0  0  0  0  0  0  0  0  0  0  0  0
   -2.8664    3.7210    0.8219 C   0  0  0  0  0  0  0  0  0  0  0  0
   -2.6619    4.6341    0.2842 H   0  0  0  0  0  0  0  0  0  0  0  0
   -4.1091    3.5397    1.4671 C   0  0  0  0  0  0  0  0  0  0  0  0
   -5.0573    4.5110    1.4156 O   0  0  0  0  0  0  0  0  0  0  0  0
   -4.7353    5.3078    0.9921 H   0  0  0  0  0  0  0  0  0  0  0  0
   -4.3713    2.3429    2.1656 C   0  0  0  0  0  0  0  0  0  0  0  0
   -5.3236    2.2179    2.6586 H   0  0  0  0  0  0  0  0  0  0  0  0
   -3.3928    1.3325    2.2245 C   0  0  0  0  0  0  0  0  0  0  0  0
   -3.5914    0.4171    2.7692 H   0  0  0  0  0  0  0  0  0  0  0  0
    0.0850   -1.4303    0.3139 C   0  0  0  0  0  0  0  0  0  0  0  0
    1.2023   -1.0149    0.6226 O   0  0  0  0  0  0  0  0  0  0  0  0
   -0.1305   -2.6958   -0.0668 N   0  0  0  0  0  0  0  0  0  0  0  0
   -1.0647   -2.9419   -0.3603 H   0  0  0  0  0  0  0  0  0  0  0  0
    0.9099   -3.7175   -0.1596 C   0  0  0  0  0  0  0  0  0  0  0  0
    1.4833   -3.7479    0.7685 H   0  0  0  0  0  0  0  0  0  0  0  0
    0.4609   -4.6961   -0.3370 H   0  0  0  0  0  0  0  0  0  0  0  0
    1.5880   -3.4777   -0.9812 H   0  0  0  0  0  0  0  0  0  0  0  0
  5  6  2  0  0  0  0
  5  7  1  0  0  0  0
  2  3  1  0  0  0  0
  2  4  1  0  0  0  0
  2  5  1  0  0  0  0
  1  2  1  0  0  0  0
 26 27  2  0  0  0  0
 26 28  1  0  0  0  0
 24 25  1  0  0  0  0
 22 23  1  0  0  0  0
 22 24  2  0  0  0  0
 20 21  1  0  0  0  0
 19 20  1  0  0  0  0
 19 22  1  0  0  0  0
 17 18  1  0  0  0  0
 17 19  2  0  0  0  0
 15 16  1  0  0  0  0
 15 17  1  0  0  0  0
 14 15  2  0  0  0  0
 14 24  1  0  0  0  0
 11 12  1  0  0  0  0
 11 13  1  0  0  0  0
 11 14  1  0  0  0  0
  9 10  1  0  0  0  0
  9 11  1  0  0  0  0
  9 26  1  0  0  0  0
  7  8  1  0  0  0  0
  7  9  1  0  0  0  0
 30 31  1  0  0  0  0
 30 32  1  0  0  0  0
 30 33  1  0  0  0  0
 28 29  1  0  0  0  0
 28 30  1  0  0  0  0
M  END
$$$$
default_name
  -OEChem-01062215323D

 33 33  0     1  0  0  0  0  0999 V2000
   -4.0702   -3.8485    1.4554 H   0  0  0  0  0  0  0  0  0  0  0  0
   -4.0012   -2.9605    0.8284 C   0  0  0  0  0  0  0  0  0  0  0  0
   -4.7652   -2.2435    1.1234 H   0  0  0  0  0  0  0  0  0  0  0  0
   -4.1352   -3.2385   -0.2156 H   0  0  0  0  0  0  0  0  0  0  0  0
   -2.6362   -2.3395    1.0094 C   0  0  0  0  0  0  0  0  0  0  0  0
   -1.8292   -2.8395    1.7814 O   0  0  0  0  0  0  0  0  0  0  0  0
   -2.3832   -1.2445    0.2964 N   0  0  0  0  0  0  0  0  0  0  0  0
   -3.1102   -0.8685   -0.2946 H   0  0  0  0  0  0  0  0  0  0  0  0
   -1.1292   -0.4875    0.3524 C   0  0  1  0  0  0  0  0  0  0  0  0
   -1.0753    0.1595   -0.5240 H   0  0  0  0  0  0  0  0  0  0  0  0
   -1.1239    0.3996    1.6094 C   0  0  0  0  0  0  0  0  0  0  0  0
   -1.3219   -0.2227    2.4831 H   0  0  0  0  0  0  0  0  0  0  0  0
   -0.1289    0.8303    1.7337 H   0  0  0  0  0  0  0  0  0  0  0  0
   -2.1530    1.5130    1.5814 C   0  0  0  0  0  0  0  0  0  0  0  0
   -1.8912    2.7063    0.8787 C   0  0  0  0  0  0  0  0  0  0  0  0
   -0.9417    2.8422    0.3776 H   0  0  0  0  0  0  0  0  0  0  0  0
   -2.8664    3.7210    0.8219 C   0  0  0  0  0  0  0  0  0  0  0  0
   -2.6619    4.6341    0.2842 H   0  0  0  0  0  0  0  0  0  0  0  0
   -4.1091    3.5397    1.4671 C   0  0  0  0  0  0  0  0  0  0  0  0
   -5.0573    4.5110    1.4156 O   0  0  0  0  0  0  0  0  0  0  0  0
   -4.7353    5.3078    0.9921 H   0  0  0  0  0  0  0  0  0  0  0  0
   -4.3713    2.3429    2.1656 C   0  0  0  0  0  0  0  0  0  0  0  0
   -5.3236    2.2179    2.6586 H   0  0  0  0  0  0  0  0  0  0  0  0
   -3.3928    1.3325    2.2245 C   0  0  0  0  0  0  0  0  0  0  0  0
   -3.5914    0.4171    2.7692 H   0  0  0  0  0  0  0  0  0  0  0  0
    0.0850   -1.4303    0.3139 C   0  0  0  0  0  0  0  0  0  0  0  0
    1.1346   -1.1123    0.8737 O   0  0  0  0  0  0  0  0  0  0  0  0
   -0.0544   -2.5864   -0.3472 N   0  0  0  0  0  0  0  0  0  0  0  0
   -0.9274   -2.7460   -0.8287 H   0  0  0  0  0  0  0  0  0  0  0  0
    0.9977   -3.5913   -0.4818 C   0  0  0  0  0  0  0  0  0  0  0  0
    1.4161   -3.8234    0.4991 H   0  0  0  0  0  0  0  0  0  0  0  0
    0.5925   -4.5026   -0.9246 H   0  0  0  0  0  0  0  0  0  0  0  0
    1.7956   -3.2047   -1.1191 H   0  0  0  0  0  0  0  0  0  0  0  0
  5  6  2  0  0  0  0
  5  7  1  0  0  0  0
  2  3  1  0  0  0  0
  2  4  1  0  0  0  0
  2  5  1  0  0  0  0
  1  2  1  0  0  0  0
 26 27  2  0  0  0  0
 26 28  1  0  0  0  0
 24 25  1  0  0  0  0
 22 23  1  0  0  0  0
 22 24  2  0  0  0  0
 20 21  1  0  0  0  0
 19 20  1  0  0  0  0
 19 22  1  0  0  0  0
 17 18  1  0  0  0  0
 17 19  2  0  0  0  0
 15 16  1  0  0  0  0
 15 17  1  0  0  0  0
 14 15  2  0  0  0  0
 14 24  1  0  0  0  0
 11 12  1  0  0  0  0
 11 13  1  0  0  0  0
 11 14  1  0  0  0  0
  9 10  1  0  0  0  0
  9 11  1  0  0  0  0
  9 26  1  0  0  0  0
  7  8  1  0  0  0  0
  7  9  1  0  0  0  0
 30 31  1  0  0  0  0
 30 32  1  0  0  0  0
 30 33  1  0  0  0  0
 28 29  1  0  0  0  0
 28 30  1  0  0  0  0
M  END
$$$$
default_name
  -OEChem-01062215323D

 33 33  0     1  0  0  0  0  0999 V2000
   -4.0702   -3.8485    1.4554 H   0  0  0  0  0  0  0  0  0  0  0  0
   -4.0012   -2.9605    0.8284 C   0  0  0  0  0  0  0  0  0  0  0  0
   -4.7652   -2.2435    1.1234 H   0  0  0  0  0  0  0  0  0  0  0  0
   -4.1352   -3.2385   -0.2156 H   0  0  0  0  0  0  0  0  0  0  0  0
   -2.6362   -2.3395    1.0094 C   0  0  0  0  0  0  0  0  0  0  0  0
   -1.8292   -2.8395    1.7814 O   0  0  0  0  0  0  0  0  0  0  0  0
   -2.3832   -1.2445    0.2964 N   0  0  0  0  0  0  0  0  0  0  0  0
   -3.1102   -0.8685   -0.2946 H   0  0  0  0  0  0  0  0  0  0  0  0
   -1.1292   -0.4875    0.3524 C   0  0  1  0  0  0  0  0  0  0  0  0
   -1.0753    0.1595   -0.5240 H   0  0  0  0  0  0  0  0  0  0  0  0
   -1.1239    0.3996    1.6094 C   0  0  0  0  0  0  0  0  0  0  0  0
   -1.3219   -0.2227    2.4831 H   0  0  0  0  0  0  0  0  0  0  0  0
   -0.1289    0.8303    1.7337 H   0  0  0  0  0  0  0  0  0  0  0  0
   -2.1530    1.5130    1.5814 C   0  0  0  0  0  0  0  0  0  0  0  0
   -1.8912    2.7063    0.8787 C   0  0  0  0  0  0  0  0  0  0  0  0
   -0.9417    2.8422    0.3776 H   0  0  0  0  0  0  0  0  0  0  0  0
   -2.8664    3.7210    0.8219 C   0  0  0  0  0  0  0  0  0  0  0  0
   -2.6619    4.6341    0.2842 H   0  0  0  0  0  0  0  0  0  0  0  0
   -4.1091    3.5397    1.4671 C   0  0  0  0  0  0  0  0  0  0  0  0
   -5.0573    4.5110    1.4156 O   0  0  0  0  0  0  0  0  0  0  0  0
   -4.7353    5.3078    0.9921 H   0  0  0  0  0  0  0  0  0  0  0  0
   -4.3713    2.3429    2.1656 C   0  0  0  0  0  0  0  0  0  0  0  0
   -5.3236    2.2179    2.6586 H   0  0  0  0  0  0  0  0  0  0  0  0
   -3.3928    1.3325    2.2245 C   0  0  0  0  0  0  0  0  0  0  0  0
   -3.5914    0.4171    2.7692 H   0  0  0  0  0  0  0  0  0  0  0  0
    0.0850   -1.4303    0.3139 C   0  0  0  0  0  0  0  0  0  0  0  0
    1.0287   -1.2573    1.0857 O   0  0  0  0  0  0  0  0  0  0  0  0
    0.0644   -2.4238   -0.5836 N   0  0  0  0  0  0  0  0  0  0  0  0
   -0.7192   -2.4618   -1.2193 H   0  0  0  0  0  0  0  0  0  0  0  0
    1.1344   -3.4041   -0.7532 C   0  0  0  0  0  0  0  0  0  0  0  0
    1.3935   -3.8409    0.2128 H   0  0  0  0  0  0  0  0  0  0  0  0
    0.8141   -4.1965   -1.4317 H   0  0  0  0  0  0  0  0  0  0  0  0
    2.0198   -2.9141   -1.1636 H   0  0  0  0  0  0  0  0  0  0  0  0
  5  6  2  0  0  0  0
  5  7  1  0  0  0  0
  2  3  1  0  0  0  0
  2  4  1  0  0  0  0
  2  5  1  0  0  0  0
  1  2  1  0  0  0  0
 26 27  2  0  0  0  0
 26 28  1  0  0  0  0
 24 25  1  0  0  0  0
 22 23  1  0  0  0  0
 22 24  2  0  0  0  0
 20 21  1  0  0  0  0
 19 20  1  0  0  0  0
 19 22  1  0  0  0  0
 17 18  1  0  0  0  0
 17 19  2  0  0  0  0
 15 16  1  0  0  0  0
 15 17  1  0  0  0  0
 14 15  2  0  0  0  0
 14 24  1  0  0  0  0
 11 12  1  0  0  0  0
 11 13  1  0  0  0  0
 11 14  1  0  0  0  0
  9 10  1  0  0  0  0
  9 11  1  0  0  0  0
  9 26  1  0  0  0  0
  7  8  1  0  0  0  0
  7  9  1  0  0  0  0
 30 31  1  0  0  0  0
 30 32  1  0  0  0  0
 30 33  1  0  0  0  0
 28 29  1  0  0  0  0
 28 30  1  0  0  0  0
M  END
$$$$
default_name
  -OEChem-01062215323D

 33 33  0     1  0  0  0  0  0999 V2000
   -4.0702   -3.8485    1.4554 H   0  0  0  0  0  0  0  0  0  0  0  0
   -4.0012   -2.9605    0.8284 C   0  0  0  0  0  0  0  0  0  0  0  0
   -4.7652   -2.2435    1.1234 H   0  0  0  0  0  0  0  0  0  0  0  0
   -4.1352   -3.2385   -0.2156 H   0  0  0  0  0  0  0  0  0  0  0  0
   -2.6362   -2.3395    1.0094 C   0  0  0  0  0  0  0  0  0  0  0  0
   -1.8292   -2.8395    1.7814 O   0  0  0  0  0  0  0  0  0  0  0  0
   -2.3832   -1.2445    0.2964 N   0  0  0  0  0  0  0  0  0  0  0  0
   -3.1102   -0.8685   -0.2946 H   0  0  0  0  0  0  0  0  0  0  0  0
   -1.1292   -0.4875    0.3524 C   0  0  1  0  0  0  0  0  0  0  0  0
   -1.0753    0.1595   -0.5240 H   0  0  0  0  0  0  0  0  0  0  0  0
   -1.1239    0.3996    1.6094 C   0  0  0  0  0  0  0  0  0  0  0  0
   -1.3219   -0.2227    2.4831 H   0  0  0  0  0  0  0  0  0  0  0  0
   -0.1289    0.8303    1.7337 H   0  0  0  0  0  0  0  0  0  0  0  0
   -2.1530    1.5130    1.5814 C   0  0  0  0  0  0  0  0  0  0  0  0
   -1.8912    2.7063    0.8787 C   0  0  0  0  0  0  0  0  0  0  0  0
   -0.9417    2.8422    0.3776 H   0  0  0  0  0  0  0  0  0  0  0  0
   -2.8664    3.7210    0.8219 C   0  0  0  0  0  0  0  0  0  0  0  0
   -2.6619    4.6341    0.2842 H   0  0  0  0  0  0  0  0  0  0  0  0
   -4.1091    3.5397    1.4671 C   0  0  0  0  0  0  0  0  0  0  0  0
   -5.0573    4.5110    1.4156 O   0  0  0  0  0  0  0  0  0  0  0  0
   -4.7353    5.3078    0.9921 H   0  0  0  0  0  0  0  0  0  0  0  0
   -4.3713    2.3429    2.1656 C   0  0  0  0  0  0  0  0  0  0  0  0
   -5.3236    2.2179    2.6586 H   0  0  0  0  0  0  0  0  0  0  0  0
   -3.3928    1.3325    2.2245 C   0  0  0  0  0  0  0  0  0  0  0  0
   -3.5914    0.4171    2.7692 H   0  0  0  0  0  0  0  0  0  0  0  0
    0.0850   -1.4303    0.3139 C   0  0  0  0  0  0  0  0  0  0  0  0
    0.8919   -1.4400    1.2439 O   0  0  0  0  0  0  0  0  0  0  0  0
    0.2176   -2.2193   -0.7599 N   0  0  0  0  0  0  0  0  0  0  0  0
   -0.4542   -2.1089   -1.5055 H   0  0  0  0  0  0  0  0  0  0  0  0
    1.3108   -3.1687   -0.9555 C   0  0  0  0  0  0  0  0  0  0  0  0
    1.4170   -3.7990   -0.0709 H   0  0  0  0  0  0  0  0  0  0  0  0
    1.1106   -3.7986   -1.8238 H   0  0  0  0  0  0  0  0  0  0  0  0
    2.2453   -2.6258   -1.1116 H   0  0  0  0  0  0  0  0  0  0  0  0
  5  6  2  0  0  0  0
  5  7  1  0  0  0  0
  2  3  1  0  0  0  0
  2  4  1  0  0  0  0
  2  5  1  0  0  0  0
  1  2  1  0  0  0  0
 26 27  2  0  0  0  0
 26 28  1  0  0  0  0
 24 25  1  0  0  0  0
 22 23  1  0  0  0  0
 22 24  2  0  0  0  0
 20 21  1  0  0  0  0
 19 20  1  0  0  0  0
 19 22  1  0  0  0  0
 17 18  1  0  0  0  0
 17 19  2  0  0  0  0
 15 16  1  0  0  0  0
 15 17  1  0  0  0  0
 14 15  2  0  0  0  0
 14 24  1  0  0  0  0
 11 12  1  0  0  0  0
 11 13  1  0  0  0  0
 11 14  1  0  0  0  0
  9 10  1  0  0  0  0
  9 11  1  0  0  0  0
  9 26  1  0  0  0  0
  7  8  1  0  0  0  0
  7  9  1  0  0  0  0
 30 31  1  0  0  0  0
 30 32  1  0  0  0  0
 30 33  1  0  0  0  0
 28 29  1  0  0  0  0
 28 30  1  0  0  0  0
M  END
$$$$
default_name
  -OEChem-01062215323D

 33 33  0     1  0  0  0  0  0999 V2000
   -4.0702   -3.8485    1.4554 H   0  0  0  0  0  0  0  0  0  0  0  0
   -4.0012   -2.9605    0.8284 C   0  0  0  0  0  0  0  0  0  0  0  0
   -4.7652   -2.2435    1.1234 H   0  0  0  0  0  0  0  0  0  0  0  0
   -4.1352   -3.2385   -0.2156 H   0  0  0  0  0  0  0  0  0  0  0  0
   -2.6362   -2.3395    1.0094 C   0  0  0  0  0  0  0  0  0  0  0  0
   -1.8292   -2.8395    1.7814 O   0  0  0  0  0  0  0  0  0  0  0  0
   -2.3832   -1.2445    0.2964 N   0  0  0  0  0  0  0  0  0  0  0  0
   -3.1102   -0.8685   -0.2946 H   0  0  0  0  0  0  0  0  0  0  0  0
   -1.1292   -0.4875    0.3524 C   0  0  1  0  0  0  0  0  0  0  0  0
   -1.0753    0.1595   -0.5240 H   0  0  0  0  0  0  0  0  0  0  0  0
   -1.1239    0.3996    1.6094 C   0  0  0  0  0  0  0  0  0  0  0  0
   -1.3219   -0.2227    2.4831 H   0  0  0  0  0  0  0  0  0  0  0  0
   -0.1289    0.8303    1.7337 H   0  0  0  0  0  0  0  0  0  0  0  0
   -2.1530    1.5130    1.5814 C   0  0  0  0  0  0  0  0  0  0  0  0
   -1.8912    2.7063    0.8787 C   0  0  0  0  0  0  0  0  0  0  0  0
   -0.9417    2.8422    0.3776 H   0  0  0  0  0  0  0  0  0  0  0  0
   -2.8664    3.7210    0.8219 C   0  0  0  0  0  0  0  0  0  0  0  0
   -2.6619    4.6341    0.2842 H   0  0  0  0  0  0  0  0  0  0  0  0
   -4.1091    3.5397    1.4671 C   0  0  0  0  0  0  0  0  0  0  0  0
   -5.0573    4.5110    1.4156 O   0  0  0  0  0  0  0  0  0  0  0  0
   -4.7353    5.3078    0.9921 H   0  0  0  0  0  0  0  0  0  0  0  0
   -4.3713    2.3429    2.1656 C   0  0  0  0  0  0  0  0  0  0  0  0
   -5.3236    2.2179    2.6586 H   0  0  0  0  0  0  0  0  0  0  0  0
   -3.3928    1.3325    2.2245 C   0  0  0  0  0  0  0  0  0  0  0  0
   -3.5914    0.4171    2.7692 H   0  0  0  0  0  0  0  0  0  0  0  0
    0.0850   -1.4303    0.3139 C   0  0  0  0  0  0  0  0  0  0  0  0
    0.7334   -1.6479    1.3378 O   0  0  0  0  0  0  0  0  0  0  0  0
    0.3949   -1.9867   -0.8640 N   0  0  0  0  0  0  0  0  0  0  0  0
   -0.1505   -1.7112   -1.6678 H   0  0  0  0  0  0  0  0  0  0  0  0
    1.5147   -2.9012   -1.0748 C   0  0  0  0  0  0  0  0  0  0  0  0
    1.4849   -3.7008   -0.3327 H   0  0  0  0  0  0  0  0  0  0  0  0
    1.4619   -3.3361   -2.0742 H   0  0  0  0  0  0  0  0  0  0  0  0
    2.4567   -2.3595   -0.9666 H   0  0  0  0  0  0  0  0  0  0  0  0
  5  6  2  0  0  0  0
  5  7  1  0  0  0  0
  2  3  1  0  0  0  0
  2  4  1  0  0  0  0
  2  5  1  0  0  0  0
  1  2  1  0  0  0  0
 26 27  2  0  0  0  0
 26 28  1  0  0  0  0
 24 25  1  0  0  0  0
 22 23  1  0  0  0  0
 22 24  2  0  0  0  0
 20 21  1  0  0  0  0
 19 20  1  0  0  0  0
 19 22  1  0  0  0  0
 17 18  1  0  0  0  0
 17 19  2  0  0  0  0
 15 16  1  0  0  0  0
 15 17  1  0  0  0  0
 14 15  2  0  0  0  0
 14 24  1  0  0  0  0
 11 12  1  0  0  0  0
 11 13  1  0  0  0  0
 11 14  1  0  0  0  0
  9 10  1  0  0  0  0
  9 11  1  0  0  0  0
  9 26  1  0  0  0  0
  7  8  1  0  0  0  0
  7  9  1  0  0  0  0
 30 31  1  0  0  0  0
 30 32  1  0  0  0  0
 30 33  1  0  0  0  0
 28 29  1  0  0  0  0
 28 30  1  0  0  0  0
M  END
$$$$
default_name
  -OEChem-01062215323D

 33 33  0     1  0  0  0  0  0999 V2000
   -4.0702   -3.8485    1.4554 H   0  0  0  0  0  0  0  0  0  0  0  0
   -4.0012   -2.9605    0.8284 C   0  0  0  0  0  0  0  0  0  0  0  0
   -4.7652   -2.2435    1.1234 H   0  0  0  0  0  0  0  0  0  0  0  0
   -4.1352   -3.2385   -0.2156 H   0  0  0  0  0  0  0  0  0  0  0  0
   -2.6362   -2.3395    1.0094 C   0  0  0  0  0  0  0  0  0  0  0  0
   -1.8292   -2.8395    1.7814 O   0  0  0  0  0  0  0  0  0  0  0  0
   -2.3832   -1.2445    0.2964 N   0  0  0  0  0  0  0  0  0  0  0  0
   -3.1102   -0.8685   -0.2946 H   0  0  0  0  0  0  0  0  0  0  0  0
   -1.1292   -0.4875    0.3524 C   0  0  1  0  0  0  0  0  0  0  0  0
   -1.0753    0.1595   -0.5240 H   0  0  0  0  0  0  0  0  0  0  0  0
   -1.1239    0.3996    1.6094 C   0  0  0  0  0  0  0  0  0  0  0  0
   -1.3219   -0.2227    2.4831 H   0  0  0  0  0  0  0  0  0  0  0  0
   -0.1289    0.8303    1.7337 H   0  0  0  0  0  0  0  0  0  0  0  0
   -2.1530    1.5130    1.5814 C   0  0  0  0  0  0  0  0  0  0  0  0
   -1.8912    2.7063    0.8787 C   0  0  0  0  0  0  0  0  0  0  0  0
   -0.9417    2.8422    0.3776 H   0  0  0  0  0  0  0  0  0  0  0  0
   -2.8664    3.7210    0.8219 C   0  0  0  0  0  0  0  0  0  0  0  0
   -2.6619    4.6341    0.2842 H   0  0  0  0  0  0  0  0  0  0  0  0
   -4.1091    3.5397    1.4671 C   0  0  0  0  0  0  0  0  0  0  0  0
   -5.0573    4.5110    1.4156 O   0  0  0  0  0  0  0  0  0  0  0  0
   -4.7353    5.3078    0.9921 H   0  0  0  0  0  0  0  0  0  0  0  0
   -4.3713    2.3429    2.1656 C   0  0  0  0  0  0  0  0  0  0  0  0
   -5.3236    2.2179    2.6586 H   0  0  0  0  0  0  0  0  0  0  0  0
   -3.3928    1.3325    2.2245 C   0  0  0  0  0  0  0  0  0  0  0  0
   -3.5914    0.4171    2.7692 H   0  0  0  0  0  0  0  0  0  0  0  0
    0.0850   -1.4303    0.3139 C   0  0  0  0  0  0  0  0  0  0  0  0
    0.5641   -1.8669    1.3608 O   0  0  0  0  0  0  0  0  0  0  0  0
    0.5842   -1.7418   -0.8889 N   0  0  0  0  0  0  0  0  0  0  0  0
    0.1711   -1.2958   -1.6951 H   0  0  0  0  0  0  0  0  0  0  0  0
    1.7324   -2.6197   -1.1029 C   0  0  0  0  0  0  0  0  0  0  0  0
    1.5927   -3.5529   -0.5546 H   0  0  0  0  0  0  0  0  0  0  0  0
    1.8439   -2.8404   -2.1658 H   0  0  0  0  0  0  0  0  0  0  0  0
    2.6396   -2.1332   -0.7387 H   0  0  0  0  0  0  0  0  0  0  0  0
  5  6  2  0  0  0  0
  5  7  1  0  0  0  0
  2  3  1  0  0  0  0
  2  4  1  0  0  0  0
  2  5  1  0  0  0  0
  1  2  1  0  0  0  0
 26 27  2  0  0  0  0
 26 28  1  0  0  0  0
 24 25  1  0  0  0  0
 22 23  1  0  0  0  0
 22 24  2  0  0  0  0
 20 21  1  0  0  0  0
 19 20  1  0  0  0  0
 19 22  1  0  0  0  0
 17 18  1  0  0  0  0
 17 19  2  0  0  0  0
 15 16  1  0  0  0  0
 15 17  1  0  0  0  0
 14 15  2  0  0  0  0
 14 24  1  0  0  0  0
 11 12  1  0  0  0  0
 11 13  1  0  0  0  0
 11 14  1  0  0  0  0
  9 10  1  0  0  0  0
  9 11  1  0  0  0  0
  9 26  1  0  0  0  0
  7  8  1  0  0  0  0
  7  9  1  0  0  0  0
 30 31  1  0  0  0  0
 30 32  1  0  0  0  0
 30 33  1  0  0  0  0
 28 29  1  0  0  0  0
 28 30  1  0  0  0  0
M  END
$$$$
default_name
  -OEChem-01062215323D

 33 33  0     1  0  0  0  0  0999 V2000
   -4.0702   -3.8485    1.4554 H   0  0  0  0  0  0  0  0  0  0  0  0
   -4.0012   -2.9605    0.8284 C   0  0  0  0  0  0  0  0  0  0  0  0
   -4.7652   -2.2435    1.1234 H   0  0  0  0  0  0  0  0  0  0  0  0
   -4.1352   -3.2385   -0.2156 H   0  0  0  0  0  0  0  0  0  0  0  0
   -2.6362   -2.3395    1.0094 C   0  0  0  0  0  0  0  0  0  0  0  0
   -1.8292   -2.8395    1.7814 O   0  0  0  0  0  0  0  0  0  0  0  0
   -2.3832   -1.2445    0.2964 N   0  0  0  0  0  0  0  0  0  0  0  0
   -3.1102   -0.8685   -0.2946 H   0  0  0  0  0  0  0  0  0  0  0  0
   -1.1292   -0.4875    0.3524 C   0  0  1  0  0  0  0  0  0  0  0  0
   -1.0753    0.1595   -0.5240 H   0  0  0  0  0  0  0  0  0  0  0  0
   -1.1239    0.3996    1.6094 C   0  0  0  0  0  0  0  0  0  0  0  0
   -1.3219   -0.2227    2.4831 H   0  0  0  0  0  0  0  0  0  0  0  0
   -0.1289    0.8303    1.7337 H   0  0  0  0  0  0  0  0  0  0  0  0
   -2.1530    1.5130    1.5814 C   0  0  0  0  0  0  0  0  0  0  0  0
   -1.8912    2.7063    0.8787 C   0  0  0  0  0  0  0  0  0  0  0  0
   -0.9417    2.8422    0.3776 H   0  0  0  0  0  0  0  0  0  0  0  0
   -2.8664    3.7210    0.8219 C   0  0  0  0  0  0  0  0  0  0  0  0
   -2.6619    4.6341    0.2842 H   0  0  0  0  0  0  0  0  0  0  0  0
   -4.1091    3.5397    1.4671 C   0  0  0  0  0  0  0  0  0  0  0  0
   -5.0573    4.5110    1.4156 O   0  0  0  0  0  0  0  0  0  0  0  0
   -4.7353    5.3078    0.9921 H   0  0  0  0  0  0  0  0  0  0  0  0
   -4.3713    2.3429    2.1656 C   0  0  0  0  0  0  0  0  0  0  0  0
   -5.3236    2.2179    2.6586 H   0  0  0  0  0  0  0  0  0  0  0  0
   -3.3928    1.3325    2.2245 C   0  0  0  0  0  0  0  0  0  0  0  0
   -3.5914    0.4171    2.7692 H   0  0  0  0  0  0  0  0  0  0  0  0
    0.0850   -1.4303    0.3139 C   0  0  0  0  0  0  0  0  0  0  0  0
    0.3955   -2.0820    1.3114 O   0  0  0  0  0  0  0  0  0  0  0  0
    0.7726   -1.5015   -0.8329 N   0  0  0  0  0  0  0  0  0  0  0  0
    0.4888   -0.8911   -1.5855 H   0  0  0  0  0  0  0  0  0  0  0  0
    1.9490   -2.3434   -1.0381 C   0  0  0  0  0  0  0  0  0  0  0  0
    1.7331   -3.3654   -0.7217 H   0  0  0  0  0  0  0  0  0  0  0  0
    2.2306   -2.3453   -2.0923 H   0  0  0  0  0  0  0  0  0  0  0  0
    2.7816   -1.9624   -0.4432 H   0  0  0  0  0  0  0  0  0  0  0  0
  5  6  2  0  0  0  0
  5  7  1  0  0  0  0
  2  3  1  0  0  0  0
  2  4  1  0  0  0  0
  2  5  1  0  0  0  0
  1  2  1  0  0  0  0
 26 27  2  0  0  0  0
 26 28  1  0  0  0  0
 24 25  1  0  0  0  0
 22 23  1  0  0  0  0
 22 24  2  0  0  0  0
 20 21  1  0  0  0  0
 19 20  1  0  0  0  0
 19 22  1  0  0  0  0
 17 18  1  0  0  0  0
 17 19  2  0  0  0  0
 15 16  1  0  0  0  0
 15 17  1  0  0  0  0
 14 15  2  0  0  0  0
 14 24  1  0  0  0  0
 11 12  1  0  0  0  0
 11 13  1  0  0  0  0
 11 14  1  0  0  0  0
  9 10  1  0  0  0  0
  9 11  1  0  0  0  0
  9 26  1  0  0  0  0
  7  8  1  0  0  0  0
  7  9  1  0  0  0  0
 30 31  1  0  0  0  0
 30 32  1  0  0  0  0
 30 33  1  0  0  0  0
 28 29  1  0  0  0  0
 28 30  1  0  0  0  0
M  END
$$$$
default_name
  -OEChem-01062215323D

 33 33  0     1  0  0  0  0  0999 V2000
   -4.0702   -3.8485    1.4554 H   0  0  0  0  0  0  0  0  0  0  0  0
   -4.0012   -2.9605    0.8284 C   0  0  0  0  0  0  0  0  0  0  0  0
   -4.7652   -2.2435    1.1234 H   0  0  0  0  0  0  0  0  0  0  0  0
   -4.1352   -3.2385   -0.2156 H   0  0  0  0  0  0  0  0  0  0  0  0
   -2.6362   -2.3395    1.0094 C   0  0  0  0  0  0  0  0  0  0  0  0
   -1.8292   -2.8395    1.7814 O   0  0  0  0  0  0  0  0  0  0  0  0
   -2.3832   -1.2445    0.2964 N   0  0  0  0  0  0  0  0  0  0  0  0
   -3.1102   -0.8685   -0.2946 H   0  0  0  0  0  0  0  0  0  0  0  0
   -1.1292   -0.4875    0.3524 C   0  0  1  0  0  0  0  0  0  0  0  0
   -1.0753    0.1595   -0.5240 H   0  0  0  0  0  0  0  0  0  0  0  0
   -1.1239    0.3996    1.6094 C   0  0  0  0  0  0  0  0  0  0  0  0
   -1.3219   -0.2227    2.4831 H   0  0  0  0  0  0  0  0  0  0  0  0
   -0.1289    0.8303    1.7337 H   0  0  0  0  0  0  0  0  0  0  0  0
   -2.1530    1.5130    1.5814 C   0  0  0  0  0  0  0  0  0  0  0  0
   -1.8912    2.7063    0.8787 C   0  0  0  0  0  0  0  0  0  0  0  0
   -0.9417    2.8422    0.3776 H   0  0  0  0  0  0  0  0  0  0  0  0
   -2.8664    3.7210    0.8219 C   0  0  0  0  0  0  0  0  0  0  0  0
   -2.6619    4.6341    0.2842 H   0  0  0  0  0  0  0  0  0  0  0  0
   -4.1091    3.5397    1.4671 C   0  0  0  0  0  0  0  0  0  0  0  0
   -5.0573    4.5110    1.4156 O   0  0  0  0  0  0  0  0  0  0  0  0
   -4.7353    5.3078    0.9921 H   0  0  0  0  0  0  0  0  0  0  0  0
   -4.3713    2.3429    2.1656 C   0  0  0  0  0  0  0  0  0  0  0  0
   -5.3236    2.2179    2.6586 H   0  0  0  0  0  0  0  0  0  0  0  0
   -3.3928    1.3325    2.2245 C   0  0  0  0  0  0  0  0  0  0  0  0
   -3.5914    0.4171    2.7692 H   0  0  0  0  0  0  0  0  0  0  0  0
    0.0850   -1.4303    0.3139 C   0  0  0  0  0  0  0  0  0  0  0  0
    0.2391   -2.2786    1.1930 O   0  0  0  0  0  0  0  0  0  0  0  0
    0.9472   -1.2820   -0.6998 N   0  0  0  0  0  0  0  0  0  0  0  0
    0.7809   -0.5247   -1.3466 H   0  0  0  0  0  0  0  0  0  0  0  0
    2.1497   -2.0912   -0.8846 C   0  0  0  0  0  0  0  0  0  0  0  0
    1.8963   -3.1510   -0.8225 H   0  0  0  0  0  0  0  0  0  0  0  0
    2.5957   -1.8847   -1.8589 H   0  0  0  0  0  0  0  0  0  0  0  0
    2.8730   -1.8587   -0.1003 H   0  0  0  0  0  0  0  0  0  0  0  0
  5  6  2  0  0  0  0
  5  7  1  0  0  0  0
  2  3  1  0  0  0  0
  2  4  1  0  0  0  0
  2  5  1  0  0  0  0
  1  2  1  0  0  0  0
 26 27  2  0  0  0  0
 26 28  1  0  0  0  0
 24 25  1  0  0  0  0
 22 23  1  0  0  0  0
 22 24  2  0  0  0  0
 20 21  1  0  0  0  0
 19 20  1  0  0  0  0
 19 22  1  0  0  0  0
 17 18  1  0  0  0  0
 17 19  2  0  0  0  0
 15 16  1  0  0  0  0
 15 17  1  0  0  0  0
 14 15  2  0  0  0  0
 14 24  1  0  0  0  0
 11 12  1  0  0  0  0
 11 13  1  0  0  0  0
 11 14  1  0  0  0  0
  9 10  1  0  0  0  0
  9 11  1  0  0  0  0
  9 26  1  0  0  0  0
  7  8  1  0  0  0  0
  7  9  1  0  0  0  0
 30 31  1  0  0  0  0
 30 32  1  0  0  0  0
 30 33  1  0  0  0  0
 28 29  1  0  0  0  0
 28 30  1  0  0  0  0
M  END
$$$$
default_name
  -OEChem-01062215323D

 33 33  0     1  0  0  0  0  0999 V2000
   -4.0702   -3.8485    1.4554 H   0  0  0  0  0  0  0  0  0  0  0  0
   -4.0012   -2.9605    0.8284 C   0  0  0  0  0  0  0  0  0  0  0  0
   -4.7652   -2.2435    1.1234 H   0  0  0  0  0  0  0  0  0  0  0  0
   -4.1352   -3.2385   -0.2156 H   0  0  0  0  0  0  0  0  0  0  0  0
   -2.6362   -2.3395    1.0094 C   0  0  0  0  0  0  0  0  0  0  0  0
   -1.8292   -2.8395    1.7814 O   0  0  0  0  0  0  0  0  0  0  0  0
   -2.3832   -1.2445    0.2964 N   0  0  0  0  0  0  0  0  0  0  0  0
   -3.1102   -0.8685   -0.2946 H   0  0  0  0  0  0  0  0  0  0  0  0
   -1.1292   -0.4875    0.3524 C   0  0  1  0  0  0  0  0  0  0  0  0
   -1.0753    0.1595   -0.5240 H   0  0  0  0  0  0  0  0  0  0  0  0
   -1.1239    0.3996    1.6094 C   0  0  0  0  0  0  0  0  0  0  0  0
   -1.3219   -0.2227    2.4831 H   0  0  0  0  0  0  0  0  0  0  0  0
   -0.1289    0.8303    1.7337 H   0  0  0  0  0  0  0  0  0  0  0  0
   -2.1530    1.5130    1.5814 C   0  0  0  0  0  0  0  0  0  0  0  0
   -1.8912    2.7063    0.8787 C   0  0  0  0  0  0  0  0  0  0  0  0
   -0.9417    2.8422    0.3776 H   0  0  0  0  0  0  0  0  0  0  0  0
   -2.8664    3.7210    0.8219 C   0  0  0  0  0  0  0  0  0  0  0  0
   -2.6619    4.6341    0.2842 H   0  0  0  0  0  0  0  0  0  0  0  0
   -4.1091    3.5397    1.4671 C   0  0  0  0  0  0  0  0  0  0  0  0
   -5.0573    4.5110    1.4156 O   0  0  0  0  0  0  0  0  0  0  0  0
   -4.7353    5.3078    0.9921 H   0  0  0  0  0  0  0  0  0  0  0  0
   -4.3713    2.3429    2.1656 C   0  0  0  0  0  0  0  0  0  0  0  0
   -5.3236    2.2179    2.6586 H   0  0  0  0  0  0  0  0  0  0  0  0
   -3.3928    1.3325    2.2245 C   0  0  0  0  0  0  0  0  0  0  0  0
   -3.5914    0.4171    2.7692 H   0  0  0  0  0  0  0  0  0  0  0  0
    0.0850   -1.4303    0.3139 C   0  0  0  0  0  0  0  0  0  0  0  0
    0.1055   -2.4433    1.0136 O   0  0  0  0  0  0  0  0  0  0  0  0
    1.0962   -1.0983   -0.4986 N   0  0  0  0  0  0  0  0  0  0  0  0
    1.0275   -0.2215   -0.9945 H   0  0  0  0  0  0  0  0  0  0  0  0
    2.3208   -1.8803   -0.6530 C   0  0  0  0  0  0  0  0  0  0  0  0
    2.0714   -2.9243   -0.8502 H   0  0  0  0  0  0  0  0  0  0  0  0
    2.9142   -1.4898   -1.4813 H   0  0  0  0  0  0  0  0  0  0  0  0
    2.9075   -1.8292    0.2665 H   0  0  0  0  0  0  0  0  0  0  0  0
  5  6  2  0  0  0  0
  5  7  1  0  0  0  0
  2  3  1  0  0  0  0
  2  4  1  0  0  0  0
  2  5  1  0  0  0  0
  1  2  1  0  0  0  0
 26 27  2  0  0  0  0
 26 28  1  0  0  0  0
 24 25  1  0  0  0  0
 22 23  1  0  0  0  0
 22 24  2  0  0  0  0
 20 21  1  0  0  0  0
 19 20  1  0  0  0  0
 19 22  1  0  0  0  0
 17 18  1  0  0  0  0
 17 19  2  0  0  0  0
 15 16  1  0  0  0  0
 15 17  1  0  0  0  0
 14 15  2  0  0  0  0
 14 24  1  0  0  0  0
 11 12  1  0  0  0  0
 11 13  1  0  0  0  0
 11 14  1  0  0  0  0
  9 10  1  0  0  0  0
  9 11  1  0  0  0  0
  9 26  1  0  0  0  0
  7  8  1  0  0  0  0
  7  9  1  0  0  0  0
 30 31  1  0  0  0  0
 30 32  1  0  0  0  0
 30 33  1  0  0  0  0
 28 29  1  0  0  0  0
 28 30  1  0  0  0  0
M  END
$$$$
default_name
  -OEChem-01062215323D

 33 33  0     1  0  0  0  0  0999 V2000
   -4.0702   -3.8485    1.4554 H   0  0  0  0  0  0  0  0  0  0  0  0
   -4.0012   -2.9605    0.8284 C   0  0  0  0  0  0  0  0  0  0  0  0
   -4.7652   -2.2435    1.1234 H   0  0  0  0  0  0  0  0  0  0  0  0
   -4.1352   -3.2385   -0.2156 H   0  0  0  0  0  0  0  0  0  0  0  0
   -2.6362   -2.3395    1.0094 C   0  0  0  0  0  0  0  0  0  0  0  0
   -1.8292   -2.8395    1.7814 O   0  0  0  0  0  0  0  0  0  0  0  0
   -2.3832   -1.2445    0.2964 N   0  0  0  0  0  0  0  0  0  0  0  0
   -3.1102   -0.8685   -0.2946 H   0  0  0  0  0  0  0  0  0  0  0  0
   -1.1292   -0.4875    0.3524 C   0  0  1  0  0  0  0  0  0  0  0  0
   -1.0753    0.1595   -0.5240 H   0  0  0  0  0  0  0  0  0  0  0  0
   -1.1239    0.3996    1.6094 C   0  0  0  0  0  0  0  0  0  0  0  0
   -1.3219   -0.2227    2.4831 H   0  0  0  0  0  0  0  0  0  0  0  0
   -0.1289    0.8303    1.7337 H   0  0  0  0  0  0  0  0  0  0  0  0
   -2.1530    1.5130    1.5814 C   0  0  0  0  0  0  0  0  0  0  0  0
   -1.8912    2.7063    0.8787 C   0  0  0  0  0  0  0  0  0  0  0  0
   -0.9417    2.8422    0.3776 H   0  0  0  0  0  0  0  0  0  0  0  0
   -2.8664    3.7210    0.8219 C   0  0  0  0  0  0  0  0  0  0  0  0
   -2.6619    4.6341    0.2842 H   0  0  0  0  0  0  0  0  0  0  0  0
   -4.1091    3.5397    1.4671 C   0  0  0  0  0  0  0  0  0  0  0  0
   -5.0573    4.5110    1.4156 O   0  0  0  0  0  0  0  0  0  0  0  0
   -4.7353    5.3078    0.9921 H   0  0  0  0  0  0  0  0  0  0  0  0
   -4.3713    2.3429    2.1656 C   0  0  0  0  0  0  0  0  0  0  0  0
   -5.3236    2.2179    2.6586 H   0  0  0  0  0  0  0  0  0  0  0  0
   -3.3928    1.3325    2.2245 C   0  0  0  0  0  0  0  0  0  0  0  0
   -3.5914    0.4171    2.7692 H   0  0  0  0  0  0  0  0  0  0  0  0
    0.0850   -1.4303    0.3139 C   0  0  0  0  0  0  0  0  0  0  0  0
    0.0039   -2.5648    0.7854 O   0  0  0  0  0  0  0  0  0  0  0  0
    1.2094   -0.9630   -0.2432 N   0  0  0  0  0  0  0  0  0  0  0  0
    1.2118   -0.0021   -0.5534 H   0  0  0  0  0  0  0  0  0  0  0  0
    2.4507   -1.7250   -0.3590 C   0  0  0  0  0  0  0  0  0  0  0  0
    2.2464   -2.7009   -0.8028 H   0  0  0  0  0  0  0  0  0  0  0  0
    3.1646   -1.1876   -0.9853 H   0  0  0  0  0  0  0  0  0  0  0  0
    2.8829   -1.8759    0.6324 H   0  0  0  0  0  0  0  0  0  0  0  0
  5  6  2  0  0  0  0
  5  7  1  0  0  0  0
  2  3  1  0  0  0  0
  2  4  1  0  0  0  0
  2  5  1  0  0  0  0
  1  2  1  0  0  0  0
 26 27  2  0  0  0  0
 26 28  1  0  0  0  0
 24 25  1  0  0  0  0
 22 23  1  0  0  0  0
 22 24  2  0  0  0  0
 20 21  1  0  0  0  0
 19 20  1  0  0  0  0
 19 22  1  0  0  0  0
 17 18  1  0  0  0  0
 17 19  2  0  0  0  0
 15 16  1  0  0  0  0
 15 17  1  0  0  0  0
 14 15  2  0  0  0  0
 14 24  1  0  0  0  0
 11 12  1  0  0  0  0
 11 13  1  0  0  0  0
 11 14  1  0  0  0  0
  9 10  1  0  0  0  0
  9 11  1  0  0  0  0
  9 26  1  0  0  0  0
  7  8  1  0  0  0  0
  7  9  1  0  0  0  0
 30 31  1  0  0  0  0
 30 32  1  0  0  0  0
 30 33  1  0  0  0  0
 28 29  1  0  0  0  0
 28 30  1  0  0  0  0
M  END
$$$$
default_name
  -OEChem-01062215323D

 33 33  0     1  0  0  0  0  0999 V2000
   -4.0702   -3.8485    1.4554 H   0  0  0  0  0  0  0  0  0  0  0  0
   -4.0012   -2.9605    0.8284 C   0  0  0  0  0  0  0  0  0  0  0  0
   -4.7652   -2.2435    1.1234 H   0  0  0  0  0  0  0  0  0  0  0  0
   -4.1352   -3.2385   -0.2156 H   0  0  0  0  0  0  0  0  0  0  0  0
   -2.6362   -2.3395    1.0094 C   0  0  0  0  0  0  0  0  0  0  0  0
   -1.8292   -2.8395    1.7814 O   0  0  0  0  0  0  0  0  0  0  0  0
   -2.3832   -1.2445    0.2964 N   0  0  0  0  0  0  0  0  0  0  0  0
   -3.1102   -0.8685   -0.2946 H   0  0  0  0  0  0  0  0  0  0  0  0
   -1.1292   -0.4875    0.3524 C   0  0  1  0  0  0  0  0  0  0  0  0
   -1.0753    0.1595   -0.5240 H   0  0  0  0  0  0  0  0  0  0  0  0
   -1.1239    0.3996    1.6094 C   0  0  0  0  0  0  0  0  0  0  0  0
   -1.3219   -0.2227    2.4831 H   0  0  0  0  0  0  0  0  0  0  0  0
   -0.1289    0.8303    1.7337 H   0  0  0  0  0  0  0  0  0  0  0  0
   -2.1530    1.5130    1.5814 C   0  0  0  0  0  0  0  0  0  0  0  0
   -1.8912    2.7063    0.8787 C   0  0  0  0  0  0  0  0  0  0  0  0
   -0.9417    2.8422    0.3776 H   0  0  0  0  0  0  0  0  0  0  0  0
   -2.8664    3.7210    0.8219 C   0  0  0  0  0  0  0  0  0  0  0  0
   -2.6619    4.6341    0.2842 H   0  0  0  0  0  0  0  0  0  0  0  0
   -4.1091    3.5397    1.4671 C   0  0  0  0  0  0  0  0  0  0  0  0
   -5.0573    4.5110    1.4156 O   0  0  0  0  0  0  0  0  0  0  0  0
   -4.7353    5.3078    0.9921 H   0  0  0  0  0  0  0  0  0  0  0  0
   -4.3713    2.3429    2.1656 C   0  0  0  0  0  0  0  0  0  0  0  0
   -5.3236    2.2179    2.6586 H   0  0  0  0  0  0  0  0  0  0  0  0
   -3.3928    1.3325    2.2245 C   0  0  0  0  0  0  0  0  0  0  0  0
   -3.5914    0.4171    2.7692 H   0  0  0  0  0  0  0  0  0  0  0  0
    0.0850   -1.4303    0.3139 C   0  0  0  0  0  0  0  0  0  0  0  0
   -0.0588   -2.6350    0.5241 O   0  0  0  0  0  0  0  0  0  0  0  0
    1.2791   -0.8852    0.0492 N   0  0  0  0  0  0  0  0  0  0  0  0
    1.3213    0.1184   -0.0532 H   0  0  0  0  0  0  0  0  0  0  0  0
    2.5305   -1.6359   -0.0226 C   0  0  0  0  0  0  0  0  0  0  0  0
    2.4094   -2.4959   -0.6836 H   0  0  0  0  0  0  0  0  0  0  0  0
    3.3297   -0.9987   -0.4047 H   0  0  0  0  0  0  0  0  0  0  0  0
    2.8007   -1.9956    0.9724 H   0  0  0  0  0  0  0  0  0  0  0  0
  5  6  2  0  0  0  0
  5  7  1  0  0  0  0
  2  3  1  0  0  0  0
  2  4  1  0  0  0  0
  2  5  1  0  0  0  0
  1  2  1  0  0  0  0
 26 27  2  0  0  0  0
 26 28  1  0  0  0  0
 24 25  1  0  0  0  0
 22 23  1  0  0  0  0
 22 24  2  0  0  0  0
 20 21  1  0  0  0  0
 19 20  1  0  0  0  0
 19 22  1  0  0  0  0
 17 18  1  0  0  0  0
 17 19  2  0  0  0  0
 15 16  1  0  0  0  0
 15 17  1  0  0  0  0
 14 15  2  0  0  0  0
 14 24  1  0  0  0  0
 11 12  1  0  0  0  0
 11 13  1  0  0  0  0
 11 14  1  0  0  0  0
  9 10  1  0  0  0  0
  9 11  1  0  0  0  0
  9 26  1  0  0  0  0
  7  8  1  0  0  0  0
  7  9  1  0  0  0  0
 30 31  1  0  0  0  0
 30 32  1  0  0  0  0
 30 33  1  0  0  0  0
 28 29  1  0  0  0  0
 28 30  1  0  0  0  0
M  END
$$$$
default_name
  -OEChem-01062215323D

 33 33  0     1  0  0  0  0  0999 V2000
   -4.0702   -3.8485    1.4554 H   0  0  0  0  0  0  0  0  0  0  0  0
   -4.0012   -2.9605    0.8284 C   0  0  0  0  0  0  0  0  0  0  0  0
   -4.7652   -2.2435    1.1234 H   0  0  0  0  0  0  0  0  0  0  0  0
   -4.1352   -3.2385   -0.2156 H   0  0  0  0  0  0  0  0  0  0  0  0
   -2.6362   -2.3395    1.0094 C   0  0  0  0  0  0  0  0  0  0  0  0
   -1.8292   -2.8395    1.7814 O   0  0  0  0  0  0  0  0  0  0  0  0
   -2.3832   -1.2445    0.2964 N   0  0  0  0  0  0  0  0  0  0  0  0
   -3.1102   -0.8685   -0.2946 H   0  0  0  0  0  0  0  0  0  0  0  0
   -1.1292   -0.4875    0.3524 C   0  0  1  0  0  0  0  0  0  0  0  0
   -1.1905    0.3381   -0.3576 H   0  0  0  0  0  0  0  0  0  0  0  0
   -0.9499    0.1001    1.7629 C   0  0  0  0  0  0  0  0  0  0  0  0
   -1.0316   -0.7044    2.4949 H   0  0  0  0  0  0  0  0  0  0  0  0
    0.0549    0.5174    1.8467 H   0  0  0  0  0  0  0  0  0  0  0  0
   -1.9677    1.1662    2.1196 C   0  0  0  0  0  0  0  0  0  0  0  0
   -1.7968    2.4913    1.6711 C   0  0  0  0  0  0  0  0  0  0  0  0
   -0.9229    2.7581    1.0913 H   0  0  0  0  0  0  0  0  0  0  0  0
   -2.7655    3.4689    1.9708 C   0  0  0  0  0  0  0  0  0  0  0  0
   -2.6306    4.4829    1.6271 H   0  0  0  0  0  0  0  0  0  0  0  0
   -3.9109    3.1187    2.7185 C   0  0  0  0  0  0  0  0  0  0  0  0
   -4.8522    4.0535    3.0102 O   0  0  0  0  0  0  0  0  0  0  0  0
   -4.5862    4.9319    2.7354 H   0  0  0  0  0  0  0  0  0  0  0  0
   -4.0827    1.7911    3.1622 C   0  0  0  0  0  0  0  0  0  0  0  0
   -4.9605    1.5366    3.7369 H   0  0  0  0  0  0  0  0  0  0  0  0
   -3.1104    0.8173    2.8650 C   0  0  0  0  0  0  0  0  0  0  0  0
   -3.2386   -0.2004    3.2142 H   0  0  0  0  0  0  0  0  0  0  0  0
    0.0638   -1.3679   -0.0551 C   0  0  0  0  0  0  0  0  0  0  0  0
   -0.1133   -2.5455   -0.3683 O   0  0  0  0  0  0  0  0  0  0  0  0
    1.2772   -0.8015   -0.0487 N   0  0  0  0  0  0  0  0  0  0  0  0
    1.3451    0.1518    0.2770 H   0  0  0  0  0  0  0  0  0  0  0  0
    2.5127   -1.4947   -0.4059 C   0  0  0  0  0  0  0  0  0  0  0  0
    2.3911   -1.9974   -1.3669 H   0  0  0  0  0  0  0  0  0  0  0  0
    3.3369   -0.7828   -0.4743 H   0  0  0  0  0  0  0  0  0  0  0  0
    2.7459   -2.2443    0.3532 H   0  0  0  0  0  0  0  0  0  0  0  0
  5  6  2  0  0  0  0
  5  7  1  0  0  0  0
  2  3  1  0  0  0  0
  2  4  1  0  0  0  0
  2  5  1  0  0  0  0
  1  2  1  0  0  0  0
 26 27  2  0  0  0  0
 26 28  1  0  0  0  0
 24 25  1  0  0  0  0
 22 23  1  0  0  0  0
 22 24  2  0  0  0  0
 20 21  1  0  0  0  0
 19 20  1  0  0  0  0
 19 22  1  0  0  0  0
 17 18  1  0  0  0  0
 17 19  2  0  0  0  0
 15 16  1  0  0  0  0
 15 17  1  0  0  0  0
 14 15  2  0  0  0  0
 14 24  1  0  0  0  0
 11 12  1  0  0  0  0
 11 13  1  0  0  0  0
 11 14  1  0  0  0  0
  9 10  1  0  0  0  0
  9 11  1  0  0  0  0
  9 26  1  0  0  0  0
  7  8  1  0  0  0  0
  7  9  1  0  0  0  0
 30 31  1  0  0  0  0
 30 32  1  0  0  0  0
 30 33  1  0  0  0  0
 28 29  1  0  0  0  0
 28 30  1  0  0  0  0
M  END
$$$$
default_name
  -OEChem-01062215323D

 33 33  0     1  0  0  0  0  0999 V2000
   -4.0702   -3.8485    1.4554 H   0  0  0  0  0  0  0  0  0  0  0  0
   -4.0012   -2.9605    0.8284 C   0  0  0  0  0  0  0  0  0  0  0  0
   -4.7652   -2.2435    1.1234 H   0  0  0  0  0  0  0  0  0  0  0  0
   -4.1352   -3.2385   -0.2156 H   0  0  0  0  0  0  0  0  0  0  0  0
   -2.6362   -2.3395    1.0094 C   0  0  0  0  0  0  0  0  0  0  0  0
   -1.8292   -2.8395    1.7814 O   0  0  0  0  0  0  0  0  0  0  0  0
   -2.3832   -1.2445    0.2964 N   0  0  0  0  0  0  0  0  0  0  0  0
   -3.1102   -0.8685   -0.2946 H   0  0  0  0  0  0  0  0  0  0  0  0
   -1.1292   -0.4875    0.3524 C   0  0  1  0  0  0  0  0  0  0  0  0
   -1.1905    0.3381   -0.3576 H   0  0  0  0  0  0  0  0  0  0  0  0
   -0.9499    0.1001    1.7629 C   0  0  0  0  0  0  0  0  0  0  0  0
   -1.0316   -0.7044    2.4949 H   0  0  0  0  0  0  0  0  0  0  0  0
    0.0549    0.5174    1.8467 H   0  0  0  0  0  0  0  0  0  0  0  0
   -1.9677    1.1662    2.1196 C   0  0  0  0  0  0  0  0  0  0  0  0
   -1.7968    2.4913    1.6711 C   0  0  0  0  0  0  0  0  0  0  0  0
   -0.9229    2.7581    1.0913 H   0  0  0  0  0  0  0  0  0  0  0  0
   -2.7655    3.4689    1.9708 C   0  0  0  0  0  0  0  0  0  0  0  0
   -2.6306    4.4829    1.6271 H   0  0  0  0  0  0  0  0  0  0  0  0
   -3.9109    3.1187    2.7185 C   0  0  0  0  0  0  0  0  0  0  0  0
   -4.8522    4.0535    3.0102 O   0  0  0  0  0  0  0  0  0  0  0  0
   -4.5862    4.9319    2.7354 H   0  0  0  0  0  0  0  0  0  0  0  0
   -4.0827    1.7911    3.1622 C   0  0  0  0  0  0  0  0  0  0  0  0
   -4.9605    1.5366    3.7369 H   0  0  0  0  0  0  0  0  0  0  0  0
   -3.1104    0.8173    2.8650 C   0  0  0  0  0  0  0  0  0  0  0  0
   -3.2386   -0.2004    3.2142 H   0  0  0  0  0  0  0  0  0  0  0  0
    0.0638   -1.3679   -0.0551 C   0  0  0  0  0  0  0  0  0  0  0  0
   -0.1252   -2.4424   -0.6260 O   0  0  0  0  0  0  0  0  0  0  0  0
    1.2900   -0.9173    0.2391 N   0  0  0  0  0  0  0  0  0  0  0  0
    1.3574   -0.0552    0.7604 H   0  0  0  0  0  0  0  0  0  0  0  0
    2.5272   -1.6282   -0.0751 C   0  0  0  0  0  0  0  0  0  0  0  0
    2.5295   -1.9212   -1.1264 H   0  0  0  0  0  0  0  0  0  0  0  0
    3.3888   -0.9882    0.1216 H   0  0  0  0  0  0  0  0  0  0  0  0
    2.5993   -2.5286    0.5384 H   0  0  0  0  0  0  0  0  0  0  0  0
  5  6  2  0  0  0  0
  5  7  1  0  0  0  0
  2  3  1  0  0  0  0
  2  4  1  0  0  0  0
  2  5  1  0  0  0  0
  1  2  1  0  0  0  0
 26 27  2  0  0  0  0
 26 28  1  0  0  0  0
 24 25  1  0  0  0  0
 22 23  1  0  0  0  0
 22 24  2  0  0  0  0
 20 21  1  0  0  0  0
 19 20  1  0  0  0  0
 19 22  1  0  0  0  0
 17 18  1  0  0  0  0
 17 19  2  0  0  0  0
 15 16  1  0  0  0  0
 15 17  1  0  0  0  0
 14 15  2  0  0  0  0
 14 24  1  0  0  0  0
 11 12  1  0  0  0  0
 11 13  1  0  0  0  0
 11 14  1  0  0  0  0
  9 10  1  0  0  0  0
  9 11  1  0  0  0  0
  9 26  1  0  0  0  0
  7  8  1  0  0  0  0
  7  9  1  0  0  0  0
 30 31  1  0  0  0  0
 30 32  1  0  0  0  0
 30 33  1  0  0  0  0
 28 29  1  0  0  0  0
 28 30  1  0  0  0  0
M  END
$$$$
default_name
  -OEChem-01062215323D

 33 33  0     1  0  0  0  0  0999 V2000
   -4.0702   -3.8485    1.4554 H   0  0  0  0  0  0  0  0  0  0  0  0
   -4.0012   -2.9605    0.8284 C   0  0  0  0  0  0  0  0  0  0  0  0
   -4.7652   -2.2435    1.1234 H   0  0  0  0  0  0  0  0  0  0  0  0
   -4.1352   -3.2385   -0.2156 H   0  0  0  0  0  0  0  0  0  0  0  0
   -2.6362   -2.3395    1.0094 C   0  0  0  0  0  0  0  0  0  0  0  0
   -1.8292   -2.8395    1.7814 O   0  0  0  0  0  0  0  0  0  0  0  0
   -2.3832   -1.2445    0.2964 N   0  0  0  0  0  0  0  0  0  0  0  0
   -3.1102   -0.8685   -0.2946 H   0  0  0  0  0  0  0  0  0  0  0  0
   -1.1292   -0.4875    0.3524 C   0  0  1  0  0  0  0  0  0  0  0  0
   -1.1905    0.3381   -0.3576 H   0  0  0  0  0  0  0  0  0  0  0  0
   -0.9499    0.1001    1.7629 C   0  0  0  0  0  0  0  0  0  0  0  0
   -1.0316   -0.7044    2.4949 H   0  0  0  0  0  0  0  0  0  0  0  0
    0.0549    0.5174    1.8467 H   0  0  0  0  0  0  0  0  0  0  0  0
   -1.9677    1.1662    2.1196 C   0  0  0  0  0  0  0  0  0  0  0  0
   -1.7968    2.4913    1.6711 C   0  0  0  0  0  0  0  0  0  0  0  0
   -0.9229    2.7581    1.0913 H   0  0  0  0  0  0  0  0  0  0  0  0
   -2.7655    3.4689    1.9708 C   0  0  0  0  0  0  0  0  0  0  0  0
   -2.6306    4.4829    1.6271 H   0  0  0  0  0  0  0  0  0  0  0  0
   -3.9109    3.1187    2.7185 C   0  0  0  0  0  0  0  0  0  0  0  0
   -4.8522    4.0535    3.0102 O   0  0  0  0  0  0  0  0  0  0  0  0
   -4.5862    4.9319    2.7354 H   0  0  0  0  0  0  0  0  0  0  0  0
   -4.0827    1.7911    3.1622 C   0  0  0  0  0  0  0  0  0  0  0  0
   -4.9605    1.5366    3.7369 H   0  0  0  0  0  0  0  0  0  0  0  0
   -3.1104    0.8173    2.8650 C   0  0  0  0  0  0  0  0  0  0  0  0
   -3.2386   -0.2004    3.2142 H   0  0  0  0  0  0  0  0  0  0  0  0
    0.0638   -1.3679   -0.0551 C   0  0  0  0  0  0  0  0  0  0  0  0
   -0.0915   -2.2903   -0.8559 O   0  0  0  0  0  0  0  0  0  0  0  0
    1.2518   -1.0878    0.4957 N   0  0  0  0  0  0  0  0  0  0  0  0
    1.2834   -0.3532    1.1876 H   0  0  0  0  0  0  0  0  0  0  0  0
    2.4829   -1.8246    0.2197 C   0  0  0  0  0  0  0  0  0  0  0  0
    2.6327   -1.9054   -0.8584 H   0  0  0  0  0  0  0  0  0  0  0  0
    3.3366   -1.3098    0.6636 H   0  0  0  0  0  0  0  0  0  0  0  0
    2.4108   -2.8305    0.6385 H   0  0  0  0  0  0  0  0  0  0  0  0
  5  6  2  0  0  0  0
  5  7  1  0  0  0  0
  2  3  1  0  0  0  0
  2  4  1  0  0  0  0
  2  5  1  0  0  0  0
  1  2  1  0  0  0  0
 26 27  2  0  0  0  0
 26 28  1  0  0  0  0
 24 25  1  0  0  0  0
 22 23  1  0  0  0  0
 22 24  2  0  0  0  0
 20 21  1  0  0  0  0
 19 20  1  0  0  0  0
 19 22  1  0  0  0  0
 17 18  1  0  0  0  0
 17 19  2  0  0  0  0
 15 16  1  0  0  0  0
 15 17  1  0  0  0  0
 14 15  2  0  0  0  0
 14 24  1  0  0  0  0
 11 12  1  0  0  0  0
 11 13  1  0  0  0  0
 11 14  1  0  0  0  0
  9 10  1  0  0  0  0
  9 11  1  0  0  0  0
  9 26  1  0  0  0  0
  7  8  1  0  0  0  0
  7  9  1  0  0  0  0
 30 31  1  0  0  0  0
 30 32  1  0  0  0  0
 30 33  1  0  0  0  0
 28 29  1  0  0  0  0
 28 30  1  0  0  0  0
M  END
$$$$
default_name
  -OEChem-01062215323D

 33 33  0     1  0  0  0  0  0999 V2000
   -4.0702   -3.8485    1.4554 H   0  0  0  0  0  0  0  0  0  0  0  0
   -4.0012   -2.9605    0.8284 C   0  0  0  0  0  0  0  0  0  0  0  0
   -4.7652   -2.2435    1.1234 H   0  0  0  0  0  0  0  0  0  0  0  0
   -4.1352   -3.2385   -0.2156 H   0  0  0  0  0  0  0  0  0  0  0  0
   -2.6362   -2.3395    1.0094 C   0  0  0  0  0  0  0  0  0  0  0  0
   -1.8292   -2.8395    1.7814 O   0  0  0  0  0  0  0  0  0  0  0  0
   -2.3832   -1.2445    0.2964 N   0  0  0  0  0  0  0  0  0  0  0  0
   -3.1102   -0.8685   -0.2946 H   0  0  0  0  0  0  0  0  0  0  0  0
   -1.1292   -0.4875    0.3524 C   0  0  1  0  0  0  0  0  0  0  0  0
   -1.1905    0.3381   -0.3576 H   0  0  0  0  0  0  0  0  0  0  0  0
   -0.9499    0.1001    1.7629 C   0  0  0  0  0  0  0  0  0  0  0  0
   -1.0316   -0.7044    2.4949 H   0  0  0  0  0  0  0  0  0  0  0  0
    0.0549    0.5174    1.8467 H   0  0  0  0  0  0  0  0  0  0  0  0
   -1.9677    1.1662    2.1196 C   0  0  0  0  0  0  0  0  0  0  0  0
   -1.7968    2.4913    1.6711 C   0  0  0  0  0  0  0  0  0  0  0  0
   -0.9229    2.7581    1.0913 H   0  0  0  0  0  0  0  0  0  0  0  0
   -2.7655    3.4689    1.9708 C   0  0  0  0  0  0  0  0  0  0  0  0
   -2.6306    4.4829    1.6271 H   0  0  0  0  0  0  0  0  0  0  0  0
   -3.9109    3.1187    2.7185 C   0  0  0  0  0  0  0  0  0  0  0  0
   -4.8522    4.0535    3.0102 O   0  0  0  0  0  0  0  0  0  0  0  0
   -4.5862    4.9319    2.7354 H   0  0  0  0  0  0  0  0  0  0  0  0
   -4.0827    1.7911    3.1622 C   0  0  0  0  0  0  0  0  0  0  0  0
   -4.9605    1.5366    3.7369 H   0  0  0  0  0  0  0  0  0  0  0  0
   -3.1104    0.8173    2.8650 C   0  0  0  0  0  0  0  0  0  0  0  0
   -3.2386   -0.2004    3.2142 H   0  0  0  0  0  0  0  0  0  0  0  0
    0.0638   -1.3679   -0.0551 C   0  0  0  0  0  0  0  0  0  0  0  0
   -0.0144   -2.0995   -1.0425 O   0  0  0  0  0  0  0  0  0  0  0  0
    1.1652   -1.3015    0.7036 N   0  0  0  0  0  0  0  0  0  0  0  0
    1.1282   -0.7216    1.5294 H   0  0  0  0  0  0  0  0  0  0  0  0
    2.3831   -2.0704    0.4584 C   0  0  0  0  0  0  0  0  0  0  0  0
    2.6938   -1.9510   -0.5809 H   0  0  0  0  0  0  0  0  0  0  0  0
    3.1837   -1.7258    1.1149 H   0  0  0  0  0  0  0  0  0  0  0  0
    2.1931   -3.1291    0.6466 H   0  0  0  0  0  0  0  0  0  0  0  0
  5  6  2  0  0  0  0
  5  7  1  0  0  0  0
  2  3  1  0  0  0  0
  2  4  1  0  0  0  0
  2  5  1  0  0  0  0
  1  2  1  0  0  0  0
 26 27  2  0  0  0  0
 26 28  1  0  0  0  0
 24 25  1  0  0  0  0
 22 23  1  0  0  0  0
 22 24  2  0  0  0  0
 20 21  1  0  0  0  0
 19 20  1  0  0  0  0
 19 22  1  0  0  0  0
 17 18  1  0  0  0  0
 17 19  2  0  0  0  0
 15 16  1  0  0  0  0
 15 17  1  0  0  0  0
 14 15  2  0  0  0  0
 14 24  1  0  0  0  0
 11 12  1  0  0  0  0
 11 13  1  0  0  0  0
 11 14  1  0  0  0  0
  9 10  1  0  0  0  0
  9 11  1  0  0  0  0
  9 26  1  0  0  0  0
  7  8  1  0  0  0  0
  7  9  1  0  0  0  0
 30 31  1  0  0  0  0
 30 32  1  0  0  0  0
 30 33  1  0  0  0  0
 28 29  1  0  0  0  0
 28 30  1  0  0  0  0
M  END
$$$$
default_name
  -OEChem-01062215323D

 33 33  0     1  0  0  0  0  0999 V2000
   -4.0702   -3.8485    1.4554 H   0  0  0  0  0  0  0  0  0  0  0  0
   -4.0012   -2.9605    0.8284 C   0  0  0  0  0  0  0  0  0  0  0  0
   -4.7652   -2.2435    1.1234 H   0  0  0  0  0  0  0  0  0  0  0  0
   -4.1352   -3.2385   -0.2156 H   0  0  0  0  0  0  0  0  0  0  0  0
   -2.6362   -2.3395    1.0094 C   0  0  0  0  0  0  0  0  0  0  0  0
   -1.8292   -2.8395    1.7814 O   0  0  0  0  0  0  0  0  0  0  0  0
   -2.3832   -1.2445    0.2964 N   0  0  0  0  0  0  0  0  0  0  0  0
   -3.1102   -0.8685   -0.2946 H   0  0  0  0  0  0  0  0  0  0  0  0
   -1.1292   -0.4875    0.3524 C   0  0  1  0  0  0  0  0  0  0  0  0
   -1.1905    0.3381   -0.3576 H   0  0  0  0  0  0  0  0  0  0  0  0
   -0.9499    0.1001    1.7629 C   0  0  0  0  0  0  0  0  0  0  0  0
   -1.0316   -0.7044    2.4949 H   0  0  0  0  0  0  0  0  0  0  0  0
    0.0549    0.5174    1.8467 H   0  0  0  0  0  0  0  0  0  0  0  0
   -1.9677    1.1662    2.1196 C   0  0  0  0  0  0  0  0  0  0  0  0
   -1.7968    2.4913    1.6711 C   0  0  0  0  0  0  0  0  0  0  0  0
   -0.9229    2.7581    1.0913 H   0  0  0  0  0  0  0  0  0  0  0  0
   -2.7655    3.4689    1.9708 C   0  0  0  0  0  0  0  0  0  0  0  0
   -2.6306    4.4829    1.6271 H   0  0  0  0  0  0  0  0  0  0  0  0
   -3.9109    3.1187    2.7185 C   0  0  0  0  0  0  0  0  0  0  0  0
   -4.8522    4.0535    3.0102 O   0  0  0  0  0  0  0  0  0  0  0  0
   -4.5862    4.9319    2.7354 H   0  0  0  0  0  0  0  0  0  0  0  0
   -4.0827    1.7911    3.1622 C   0  0  0  0  0  0  0  0  0  0  0  0
   -4.9605    1.5366    3.7369 H   0  0  0  0  0  0  0  0  0  0  0  0
   -3.1104    0.8173    2.8650 C   0  0  0  0  0  0  0  0  0  0  0  0
   -3.2386   -0.2004    3.2142 H   0  0  0  0  0  0  0  0  0  0  0  0
    0.0638   -1.3679   -0.0551 C   0  0  0  0  0  0  0  0  0  0  0  0
    0.1008   -1.8831   -1.1729 O   0  0  0  0  0  0  0  0  0  0  0  0
    1.0360   -1.5436    0.8488 N   0  0  0  0  0  0  0  0  0  0  0  0
    0.9024   -1.1355    1.7626 H   0  0  0  0  0  0  0  0  0  0  0  0
    2.2344   -2.3490    0.6249 C   0  0  0  0  0  0  0  0  0  0  0  0
    2.7086   -2.0550   -0.3131 H   0  0  0  0  0  0  0  0  0  0  0  0
    2.9407   -2.2077    1.4446 H   0  0  0  0  0  0  0  0  0  0  0  0
    1.9612   -3.4044    0.5622 H   0  0  0  0  0  0  0  0  0  0  0  0
  5  6  2  0  0  0  0
  5  7  1  0  0  0  0
  2  3  1  0  0  0  0
  2  4  1  0  0  0  0
  2  5  1  0  0  0  0
  1  2  1  0  0  0  0
 26 27  2  0  0  0  0
 26 28  1  0  0  0  0
 24 25  1  0  0  0  0
 22 23  1  0  0  0  0
 22 24  2  0  0  0  0
 20 21  1  0  0  0  0
 19 20  1  0  0  0  0
 19 22  1  0  0  0  0
 17 18  1  0  0  0  0
 17 19  2  0  0  0  0
 15 16  1  0  0  0  0
 15 17  1  0  0  0  0
 14 15  2  0  0  0  0
 14 24  1  0  0  0  0
 11 12  1  0  0  0  0
 11 13  1  0  0  0  0
 11 14  1  0  0  0  0
  9 10  1  0  0  0  0
  9 11  1  0  0  0  0
  9 26  1  0  0  0  0
  7  8  1  0  0  0  0
  7  9  1  0  0  0  0
 30 31  1  0  0  0  0
 30 32  1  0  0  0  0
 30 33  1  0  0  0  0
 28 29  1  0  0  0  0
 28 30  1  0  0  0  0
M  END
$$$$
default_name
  -OEChem-01062215323D

 33 33  0     1  0  0  0  0  0999 V2000
   -4.0702   -3.8485    1.4554 H   0  0  0  0  0  0  0  0  0  0  0  0
   -4.0012   -2.9605    0.8284 C   0  0  0  0  0  0  0  0  0  0  0  0
   -4.7652   -2.2435    1.1234 H   0  0  0  0  0  0  0  0  0  0  0  0
   -4.1352   -3.2385   -0.2156 H   0  0  0  0  0  0  0  0  0  0  0  0
   -2.6362   -2.3395    1.0094 C   0  0  0  0  0  0  0  0  0  0  0  0
   -1.8292   -2.8395    1.7814 O   0  0  0  0  0  0  0  0  0  0  0  0
   -2.3832   -1.2445    0.2964 N   0  0  0  0  0  0  0  0  0  0  0  0
   -3.1102   -0.8685   -0.2946 H   0  0  0  0  0  0  0  0  0  0  0  0
   -1.1292   -0.4875    0.3524 C   0  0  1  0  0  0  0  0  0  0  0  0
   -1.1905    0.3381   -0.3576 H   0  0  0  0  0  0  0  0  0  0  0  0
   -0.9499    0.1001    1.7629 C   0  0  0  0  0  0  0  0  0  0  0  0
   -1.0316   -0.7044    2.4949 H   0  0  0  0  0  0  0  0  0  0  0  0
    0.0549    0.5174    1.8467 H   0  0  0  0  0  0  0  0  0  0  0  0
   -1.9677    1.1662    2.1196 C   0  0  0  0  0  0  0  0  0  0  0  0
   -1.7968    2.4913    1.6711 C   0  0  0  0  0  0  0  0  0  0  0  0
   -0.9229    2.7581    1.0913 H   0  0  0  0  0  0  0  0  0  0  0  0
   -2.7655    3.4689    1.9708 C   0  0  0  0  0  0  0  0  0  0  0  0
   -2.6306    4.4829    1.6271 H   0  0  0  0  0  0  0  0  0  0  0  0
   -3.9109    3.1187    2.7185 C   0  0  0  0  0  0  0  0  0  0  0  0
   -4.8522    4.0535    3.0102 O   0  0  0  0  0  0  0  0  0  0  0  0
   -4.5862    4.9319    2.7354 H   0  0  0  0  0  0  0  0  0  0  0  0
   -4.0827    1.7911    3.1622 C   0  0  0  0  0  0  0  0  0  0  0  0
   -4.9605    1.5366    3.7369 H   0  0  0  0  0  0  0  0  0  0  0  0
   -3.1104    0.8173    2.8650 C   0  0  0  0  0  0  0  0  0  0  0  0
   -3.2386   -0.2004    3.2142 H   0  0  0  0  0  0  0  0  0  0  0  0
    0.0638   -1.3679   -0.0551 C   0  0  0  0  0  0  0  0  0  0  0  0
    0.2462   -1.6557   -1.2384 O   0  0  0  0  0  0  0  0  0  0  0  0
    0.8732   -1.7978    0.9212 N   0  0  0  0  0  0  0  0  0  0  0  0
    0.6214   -1.5667    1.8713 H   0  0  0  0  0  0  0  0  0  0  0  0
    2.0469   -2.6413    0.7078 C   0  0  0  0  0  0  0  0  0  0  0  0
    2.6760   -2.2102   -0.0730 H   0  0  0  0  0  0  0  0  0  0  0  0
    2.6241   -2.7227    1.6303 H   0  0  0  0  0  0  0  0  0  0  0  0
    1.7308   -3.6373    0.3911 H   0  0  0  0  0  0  0  0  0  0  0  0
  5  6  2  0  0  0  0
  5  7  1  0  0  0  0
  2  3  1  0  0  0  0
  2  4  1  0  0  0  0
  2  5  1  0  0  0  0
  1  2  1  0  0  0  0
 26 27  2  0  0  0  0
 26 28  1  0  0  0  0
 24 25  1  0  0  0  0
 22 23  1  0  0  0  0
 22 24  2  0  0  0  0
 20 21  1  0  0  0  0
 19 20  1  0  0  0  0
 19 22  1  0  0  0  0
 17 18  1  0  0  0  0
 17 19  2  0  0  0  0
 15 16  1  0  0  0  0
 15 17  1  0  0  0  0
 14 15  2  0  0  0  0
 14 24  1  0  0  0  0
 11 12  1  0  0  0  0
 11 13  1  0  0  0  0
 11 14  1  0  0  0  0
  9 10  1  0  0  0  0
  9 11  1  0  0  0  0
  9 26  1  0  0  0  0
  7  8  1  0  0  0  0
  7  9  1  0  0  0  0
 30 31  1  0  0  0  0
 30 32  1  0  0  0  0
 30 33  1  0  0  0  0
 28 29  1  0  0  0  0
 28 30  1  0  0  0  0
M  END
$$$$
default_name
  -OEChem-01062215323D

 33 33  0     1  0  0  0  0  0999 V2000
   -4.0702   -3.8485    1.4554 H   0  0  0  0  0  0  0  0  0  0  0  0
   -4.0012   -2.9605    0.8284 C   0  0  0  0  0  0  0  0  0  0  0  0
   -4.7652   -2.2435    1.1234 H   0  0  0  0  0  0  0  0  0  0  0  0
   -4.1352   -3.2385   -0.2156 H   0  0  0  0  0  0  0  0  0  0  0  0
   -2.6362   -2.3395    1.0094 C   0  0  0  0  0  0  0  0  0  0  0  0
   -1.8292   -2.8395    1.7814 O   0  0  0  0  0  0  0  0  0  0  0  0
   -2.3832   -1.2445    0.2964 N   0  0  0  0  0  0  0  0  0  0  0  0
   -3.1102   -0.8685   -0.2946 H   0  0  0  0  0  0  0  0  0  0  0  0
   -1.1292   -0.4875    0.3524 C   0  0  1  0  0  0  0  0  0  0  0  0
   -1.1905    0.3381   -0.3576 H   0  0  0  0  0  0  0  0  0  0  0  0
   -0.9499    0.1001    1.7629 C   0  0  0  0  0  0  0  0  0  0  0  0
   -1.0316   -0.7044    2.4949 H   0  0  0  0  0  0  0  0  0  0  0  0
    0.0549    0.5174    1.8467 H   0  0  0  0  0  0  0  0  0  0  0  0
   -1.9677    1.1662    2.1196 C   0  0  0  0  0  0  0  0  0  0  0  0
   -1.7968    2.4913    1.6711 C   0  0  0  0  0  0  0  0  0  0  0  0
   -0.9229    2.7581    1.0913 H   0  0  0  0  0  0  0  0  0  0  0  0
   -2.7655    3.4689    1.9708 C   0  0  0  0  0  0  0  0  0  0  0  0
   -2.6306    4.4829    1.6271 H   0  0  0  0  0  0  0  0  0  0  0  0
   -3.9109    3.1187    2.7185 C   0  0  0  0  0  0  0  0  0  0  0  0
   -4.8522    4.0535    3.0102 O   0  0  0  0  0  0  0  0  0  0  0  0
   -4.5862    4.9319    2.7354 H   0  0  0  0  0  0  0  0  0  0  0  0
   -4.0827    1.7911    3.1622 C   0  0  0  0  0  0  0  0  0  0  0  0
   -4.9605    1.5366    3.7369 H   0  0  0  0  0  0  0  0  0  0  0  0
   -3.1104    0.8173    2.8650 C   0  0  0  0  0  0  0  0  0  0  0  0
   -3.2386   -0.2004    3.2142 H   0  0  0  0  0  0  0  0  0  0  0  0
    0.0638   -1.3679   -0.0551 C   0  0  0  0  0  0  0  0  0  0  0  0
    0.4120   -1.4329   -1.2344 O   0  0  0  0  0  0  0  0  0  0  0  0
    0.6877   -2.0467    0.9160 N   0  0  0  0  0  0  0  0  0  0  0  0
    0.3042   -1.9857    1.8481 H   0  0  0  0  0  0  0  0  0  0  0  0
    1.8336   -2.9274    0.7013 C   0  0  0  0  0  0  0  0  0  0  0  0
    2.5983   -2.4062    0.1229 H   0  0  0  0  0  0  0  0  0  0  0  0
    2.2553   -3.2358    1.6593 H   0  0  0  0  0  0  0  0  0  0  0  0
    1.5176   -3.8122    0.1449 H   0  0  0  0  0  0  0  0  0  0  0  0
  5  6  2  0  0  0  0
  5  7  1  0  0  0  0
  2  3  1  0  0  0  0
  2  4  1  0  0  0  0
  2  5  1  0  0  0  0
  1  2  1  0  0  0  0
 26 27  2  0  0  0  0
 26 28  1  0  0  0  0
 24 25  1  0  0  0  0
 22 23  1  0  0  0  0
 22 24  2  0  0  0  0
 20 21  1  0  0  0  0
 19 20  1  0  0  0  0
 19 22  1  0  0  0  0
 17 18  1  0  0  0  0
 17 19  2  0  0  0  0
 15 16  1  0  0  0  0
 15 17  1  0  0  0  0
 14 15  2  0  0  0  0
 14 24  1  0  0  0  0
 11 12  1  0  0  0  0
 11 13  1  0  0  0  0
 11 14  1  0  0  0  0
  9 10  1  0  0  0  0
  9 11  1  0  0  0  0
  9 26  1  0  0  0  0
  7  8  1  0  0  0  0
  7  9  1  0  0  0  0
 30 31  1  0  0  0  0
 30 32  1  0  0  0  0
 30 33  1  0  0  0  0
 28 29  1  0  0  0  0
 28 30  1  0  0  0  0
M  END
$$$$
default_name
  -OEChem-01062215323D

 33 33  0     1  0  0  0  0  0999 V2000
   -4.0702   -3.8485    1.4554 H   0  0  0  0  0  0  0  0  0  0  0  0
   -4.0012   -2.9605    0.8284 C   0  0  0  0  0  0  0  0  0  0  0  0
   -4.7652   -2.2435    1.1234 H   0  0  0  0  0  0  0  0  0  0  0  0
   -4.1352   -3.2385   -0.2156 H   0  0  0  0  0  0  0  0  0  0  0  0
   -2.6362   -2.3395    1.0094 C   0  0  0  0  0  0  0  0  0  0  0  0
   -1.8292   -2.8395    1.7814 O   0  0  0  0  0  0  0  0  0  0  0  0
   -2.3832   -1.2445    0.2964 N   0  0  0  0  0  0  0  0  0  0  0  0
   -3.1102   -0.8685   -0.2946 H   0  0  0  0  0  0  0  0  0  0  0  0
   -1.1292   -0.4875    0.3524 C   0  0  1  0  0  0  0  0  0  0  0  0
   -1.1905    0.3381   -0.3576 H   0  0  0  0  0  0  0  0  0  0  0  0
   -0.9499    0.1001    1.7629 C   0  0  0  0  0  0  0  0  0  0  0  0
   -1.0316   -0.7044    2.4949 H   0  0  0  0  0  0  0  0  0  0  0  0
    0.0549    0.5174    1.8467 H   0  0  0  0  0  0  0  0  0  0  0  0
   -1.9677    1.1662    2.1196 C   0  0  0  0  0  0  0  0  0  0  0  0
   -1.7968    2.4913    1.6711 C   0  0  0  0  0  0  0  0  0  0  0  0
   -0.9229    2.7581    1.0913 H   0  0  0  0  0  0  0  0  0  0  0  0
   -2.7655    3.4689    1.9708 C   0  0  0  0  0  0  0  0  0  0  0  0
   -2.6306    4.4829    1.6271 H   0  0  0  0  0  0  0  0  0  0  0  0
   -3.9109    3.1187    2.7185 C   0  0  0  0  0  0  0  0  0  0  0  0
   -4.8522    4.0535    3.0102 O   0  0  0  0  0  0  0  0  0  0  0  0
   -4.5862    4.9319    2.7354 H   0  0  0  0  0  0  0  0  0  0  0  0
   -4.0827    1.7911    3.1622 C   0  0  0  0  0  0  0  0  0  0  0  0
   -4.9605    1.5366    3.7369 H   0  0  0  0  0  0  0  0  0  0  0  0
   -3.1104    0.8173    2.8650 C   0  0  0  0  0  0  0  0  0  0  0  0
   -3.2386   -0.2004    3.2142 H   0  0  0  0  0  0  0  0  0  0  0  0
    0.0638   -1.3679   -0.0551 C   0  0  0  0  0  0  0  0  0  0  0  0
    0.5868   -1.2298   -1.1613 O   0  0  0  0  0  0  0  0  0  0  0  0
    0.4922   -2.2734    0.8335 N   0  0  0  0  0  0  0  0  0  0  0  0
   -0.0274   -2.3640    1.6945 H   0  0  0  0  0  0  0  0  0  0  0  0
    1.6088   -3.1878    0.6060 C   0  0  0  0  0  0  0  0  0  0  0  0
    2.4808   -2.6294    0.2612 H   0  0  0  0  0  0  0  0  0  0  0  0
    1.8597   -3.7119    1.5297 H   0  0  0  0  0  0  0  0  0  0  0  0
    1.3362   -3.9171   -0.1597 H   0  0  0  0  0  0  0  0  0  0  0  0
  5  6  2  0  0  0  0
  5  7  1  0  0  0  0
  2  3  1  0  0  0  0
  2  4  1  0  0  0  0
  2  5  1  0  0  0  0
  1  2  1  0  0  0  0
 26 27  2  0  0  0  0
 26 28  1  0  0  0  0
 24 25  1  0  0  0  0
 22 23  1  0  0  0  0
 22 24  2  0  0  0  0
 20 21  1  0  0  0  0
 19 20  1  0  0  0  0
 19 22  1  0  0  0  0
 17 18  1  0  0  0  0
 17 19  2  0  0  0  0
 15 16  1  0  0  0  0
 15 17  1  0  0  0  0
 14 15  2  0  0  0  0
 14 24  1  0  0  0  0
 11 12  1  0  0  0  0
 11 13  1  0  0  0  0
 11 14  1  0  0  0  0
  9 10  1  0  0  0  0
  9 11  1  0  0  0  0
  9 26  1  0  0  0  0
  7  8  1  0  0  0  0
  7  9  1  0  0  0  0
 30 31  1  0  0  0  0
 30 32  1  0  0  0  0
 30 33  1  0  0  0  0
 28 29  1  0  0  0  0
 28 30  1  0  0  0  0
M  END
$$$$
default_name
  -OEChem-01062215323D

 33 33  0     1  0  0  0  0  0999 V2000
   -4.0702   -3.8485    1.4554 H   0  0  0  0  0  0  0  0  0  0  0  0
   -4.0012   -2.9605    0.8284 C   0  0  0  0  0  0  0  0  0  0  0  0
   -4.7652   -2.2435    1.1234 H   0  0  0  0  0  0  0  0  0  0  0  0
   -4.1352   -3.2385   -0.2156 H   0  0  0  0  0  0  0  0  0  0  0  0
   -2.6362   -2.3395    1.0094 C   0  0  0  0  0  0  0  0  0  0  0  0
   -1.8292   -2.8395    1.7814 O   0  0  0  0  0  0  0  0  0  0  0  0
   -2.3832   -1.2445    0.2964 N   0  0  0  0  0  0  0  0  0  0  0  0
   -3.1102   -0.8685   -0.2946 H   0  0  0  0  0  0  0  0  0  0  0  0
   -1.1292   -0.4875    0.3524 C   0  0  1  0  0  0  0  0  0  0  0  0
   -1.1905    0.3381   -0.3576 H   0  0  0  0  0  0  0  0  0  0  0  0
   -0.9499    0.1001    1.7629 C   0  0  0  0  0  0  0  0  0  0  0  0
   -1.0316   -0.7044    2.4949 H   0  0  0  0  0  0  0  0  0  0  0  0
    0.0549    0.5174    1.8467 H   0  0  0  0  0  0  0  0  0  0  0  0
   -1.9677    1.1662    2.1196 C   0  0  0  0  0  0  0  0  0  0  0  0
   -1.7968    2.4913    1.6711 C   0  0  0  0  0  0  0  0  0  0  0  0
   -0.9229    2.7581    1.0913 H   0  0  0  0  0  0  0  0  0  0  0  0
   -2.7655    3.4689    1.9708 C   0  0  0  0  0  0  0  0  0  0  0  0
   -2.6306    4.4829    1.6271 H   0  0  0  0  0  0  0  0  0  0  0  0
   -3.9109    3.1187    2.7185 C   0  0  0  0  0  0  0  0  0  0  0  0
   -4.8522    4.0535    3.0102 O   0  0  0  0  0  0  0  0  0  0  0  0
   -4.5862    4.9319    2.7354 H   0  0  0  0  0  0  0  0  0  0  0  0
   -4.0827    1.7911    3.1622 C   0  0  0  0  0  0  0  0  0  0  0  0
   -4.9605    1.5366    3.7369 H   0  0  0  0  0  0  0  0  0  0  0  0
   -3.1104    0.8173    2.8650 C   0  0  0  0  0  0  0  0  0  0  0  0
   -3.2386   -0.2004    3.2142 H   0  0  0  0  0  0  0  0  0  0  0  0
    0.0638   -1.3679   -0.0551 C   0  0  0  0  0  0  0  0  0  0  0  0
    0.7588   -1.0604   -1.0239 O   0  0  0  0  0  0  0  0  0  0  0  0
    0.3001   -2.4624    0.6793 N   0  0  0  0  0  0  0  0  0  0  0  0
   -0.3510   -2.6758    1.4210 H   0  0  0  0  0  0  0  0  0  0  0  0
    1.3880   -3.4048    0.4283 C   0  0  0  0  0  0  0  0  0  0  0  0
    2.3315   -2.8648    0.3326 H   0  0  0  0  0  0  0  0  0  0  0  0
    1.4641   -4.1186    1.2502 H   0  0  0  0  0  0  0  0  0  0  0  0
    1.1989   -3.9448   -0.5018 H   0  0  0  0  0  0  0  0  0  0  0  0
  5  6  2  0  0  0  0
  5  7  1  0  0  0  0
  2  3  1  0  0  0  0
  2  4  1  0  0  0  0
  2  5  1  0  0  0  0
  1  2  1  0  0  0  0
 26 27  2  0  0  0  0
 26 28  1  0  0  0  0
 24 25  1  0  0  0  0
 22 23  1  0  0  0  0
 22 24  2  0  0  0  0
 20 21  1  0  0  0  0
 19 20  1  0  0  0  0
 19 22  1  0  0  0  0
 17 18  1  0  0  0  0
 17 19  2  0  0  0  0
 15 16  1  0  0  0  0
 15 17  1  0  0  0  0
 14 15  2  0  0  0  0
 14 24  1  0  0  0  0
 11 12  1  0  0  0  0
 11 13  1  0  0  0  0
 11 14  1  0  0  0  0
  9 10  1  0  0  0  0
  9 11  1  0  0  0  0
  9 26  1  0  0  0  0
  7  8  1  0  0  0  0
  7  9  1  0  0  0  0
 30 31  1  0  0  0  0
 30 32  1  0  0  0  0
 30 33  1  0  0  0  0
 28 29  1  0  0  0  0
 28 30  1  0  0  0  0
M  END
$$$$
default_name
  -OEChem-01062215323D

 33 33  0     1  0  0  0  0  0999 V2000
   -4.0702   -3.8485    1.4554 H   0  0  0  0  0  0  0  0  0  0  0  0
   -4.0012   -2.9605    0.8284 C   0  0  0  0  0  0  0  0  0  0  0  0
   -4.7652   -2.2435    1.1234 H   0  0  0  0  0  0  0  0  0  0  0  0
   -4.1352   -3.2385   -0.2156 H   0  0  0  0  0  0  0  0  0  0  0  0
   -2.6362   -2.3395    1.0094 C   0  0  0  0  0  0  0  0  0  0  0  0
   -1.8292   -2.8395    1.7814 O   0  0  0  0  0  0  0  0  0  0  0  0
   -2.3832   -1.2445    0.2964 N   0  0  0  0  0  0  0  0  0  0  0  0
   -3.1102   -0.8685   -0.2946 H   0  0  0  0  0  0  0  0  0  0  0  0
   -1.1292   -0.4875    0.3524 C   0  0  1  0  0  0  0  0  0  0  0  0
   -1.1905    0.3381   -0.3576 H   0  0  0  0  0  0  0  0  0  0  0  0
   -0.9499    0.1001    1.7629 C   0  0  0  0  0  0  0  0  0  0  0  0
   -1.0316   -0.7044    2.4949 H   0  0  0  0  0  0  0  0  0  0  0  0
    0.0549    0.5174    1.8467 H   0  0  0  0  0  0  0  0  0  0  0  0
   -1.9677    1.1662    2.1196 C   0  0  0  0  0  0  0  0  0  0  0  0
   -1.7968    2.4913    1.6711 C   0  0  0  0  0  0  0  0  0  0  0  0
   -0.9229    2.7581    1.0913 H   0  0  0  0  0  0  0  0  0  0  0  0
   -2.7655    3.4689    1.9708 C   0  0  0  0  0  0  0  0  0  0  0  0
   -2.6306    4.4829    1.6271 H   0  0  0  0  0  0  0  0  0  0  0  0
   -3.9109    3.1187    2.7185 C   0  0  0  0  0  0  0  0  0  0  0  0
   -4.8522    4.0535    3.0102 O   0  0  0  0  0  0  0  0  0  0  0  0
   -4.5862    4.9319    2.7354 H   0  0  0  0  0  0  0  0  0  0  0  0
   -4.0827    1.7911    3.1622 C   0  0  0  0  0  0  0  0  0  0  0  0
   -4.9605    1.5366    3.7369 H   0  0  0  0  0  0  0  0  0  0  0  0
   -3.1104    0.8173    2.8650 C   0  0  0  0  0  0  0  0  0  0  0  0
   -3.2386   -0.2004    3.2142 H   0  0  0  0  0  0  0  0  0  0  0  0
    0.0638   -1.3679   -0.0551 C   0  0  0  0  0  0  0  0  0  0  0  0
    0.9162   -0.9360   -0.8318 O   0  0  0  0  0  0  0  0  0  0  0  0
    0.1244   -2.6008    0.4640 N   0  0  0  0  0  0  0  0  0  0  0  0
   -0.6443   -2.8999    1.0463 H   0  0  0  0  0  0  0  0  0  0  0  0
    1.1861   -3.5636    0.1804 C   0  0  0  0  0  0  0  0  0  0  0  0
    2.1606   -3.0962    0.3322 H   0  0  0  0  0  0  0  0  0  0  0  0
    1.0955   -4.4282    0.8400 H   0  0  0  0  0  0  0  0  0  0  0  0
    1.1151   -3.8934   -0.8581 H   0  0  0  0  0  0  0  0  0  0  0  0
  5  6  2  0  0  0  0
  5  7  1  0  0  0  0
  2  3  1  0  0  0  0
  2  4  1  0  0  0  0
  2  5  1  0  0  0  0
  1  2  1  0  0  0  0
 26 27  2  0  0  0  0
 26 28  1  0  0  0  0
 24 25  1  0  0  0  0
 22 23  1  0  0  0  0
 22 24  2  0  0  0  0
 20 21  1  0  0  0  0
 19 20  1  0  0  0  0
 19 22  1  0  0  0  0
 17 18  1  0  0  0  0
 17 19  2  0  0  0  0
 15 16  1  0  0  0  0
 15 17  1  0  0  0  0
 14 15  2  0  0  0  0
 14 24  1  0  0  0  0
 11 12  1  0  0  0  0
 11 13  1  0  0  0  0
 11 14  1  0  0  0  0
  9 10  1  0  0  0  0
  9 11  1  0  0  0  0
  9 26  1  0  0  0  0
  7  8  1  0  0  0  0
  7  9  1  0  0  0  0
 30 31  1  0  0  0  0
 30 32  1  0  0  0  0
 30 33  1  0  0  0  0
 28 29  1  0  0  0  0
 28 30  1  0  0  0  0
M  END
$$$$
default_name
  -OEChem-01062215323D

 33 33  0     1  0  0  0  0  0999 V2000
   -4.0702   -3.8485    1.4554 H   0  0  0  0  0  0  0  0  0  0  0  0
   -4.0012   -2.9605    0.8284 C   0  0  0  0  0  0  0  0  0  0  0  0
   -4.7652   -2.2435    1.1234 H   0  0  0  0  0  0  0  0  0  0  0  0
   -4.1352   -3.2385   -0.2156 H   0  0  0  0  0  0  0  0  0  0  0  0
   -2.6362   -2.3395    1.0094 C   0  0  0  0  0  0  0  0  0  0  0  0
   -1.8292   -2.8395    1.7814 O   0  0  0  0  0  0  0  0  0  0  0  0
   -2.3832   -1.2445    0.2964 N   0  0  0  0  0  0  0  0  0  0  0  0
   -3.1102   -0.8685   -0.2946 H   0  0  0  0  0  0  0  0  0  0  0  0
   -1.1292   -0.4875    0.3524 C   0  0  1  0  0  0  0  0  0  0  0  0
   -1.1905    0.3381   -0.3576 H   0  0  0  0  0  0  0  0  0  0  0  0
   -0.9499    0.1001    1.7629 C   0  0  0  0  0  0  0  0  0  0  0  0
   -1.0316   -0.7044    2.4949 H   0  0  0  0  0  0  0  0  0  0  0  0
    0.0549    0.5174    1.8467 H   0  0  0  0  0  0  0  0  0  0  0  0
   -1.9677    1.1662    2.1196 C   0  0  0  0  0  0  0  0  0  0  0  0
   -1.7968    2.4913    1.6711 C   0  0  0  0  0  0  0  0  0  0  0  0
   -0.9229    2.7581    1.0913 H   0  0  0  0  0  0  0  0  0  0  0  0
   -2.7655    3.4689    1.9708 C   0  0  0  0  0  0  0  0  0  0  0  0
   -2.6306    4.4829    1.6271 H   0  0  0  0  0  0  0  0  0  0  0  0
   -3.9109    3.1187    2.7185 C   0  0  0  0  0  0  0  0  0  0  0  0
   -4.8522    4.0535    3.0102 O   0  0  0  0  0  0  0  0  0  0  0  0
   -4.5862    4.9319    2.7354 H   0  0  0  0  0  0  0  0  0  0  0  0
   -4.0827    1.7911    3.1622 C   0  0  0  0  0  0  0  0  0  0  0  0
   -4.9605    1.5366    3.7369 H   0  0  0  0  0  0  0  0  0  0  0  0
   -3.1104    0.8173    2.8650 C   0  0  0  0  0  0  0  0  0  0  0  0
   -3.2386   -0.2004    3.2142 H   0  0  0  0  0  0  0  0  0  0  0  0
    0.0638   -1.3679   -0.0551 C   0  0  0  0  0  0  0  0  0  0  0  0
    1.0482   -0.8654   -0.5979 O   0  0  0  0  0  0  0  0  0  0  0  0
   -0.0229   -2.6792    0.2022 N   0  0  0  0  0  0  0  0  0  0  0  0
   -0.8876   -3.0210    0.5958 H   0  0  0  0  0  0  0  0  0  0  0  0
    1.0170   -3.6534   -0.1208 C   0  0  0  0  0  0  0  0  0  0  0  0
    1.9797   -3.3079    0.2600 H   0  0  0  0  0  0  0  0  0  0  0  0
    0.7790   -4.6196    0.3270 H   0  0  0  0  0  0  0  0  0  0  0  0
    1.0905   -3.7665   -1.2044 H   0  0  0  0  0  0  0  0  0  0  0  0
  5  6  2  0  0  0  0
  5  7  1  0  0  0  0
  2  3  1  0  0  0  0
  2  4  1  0  0  0  0
  2  5  1  0  0  0  0
  1  2  1  0  0  0  0
 26 27  2  0  0  0  0
 26 28  1  0  0  0  0
 24 25  1  0  0  0  0
 22 23  1  0  0  0  0
 22 24  2  0  0  0  0
 20 21  1  0  0  0  0
 19 20  1  0  0  0  0
 19 22  1  0  0  0  0
 17 18  1  0  0  0  0
 17 19  2  0  0  0  0
 15 16  1  0  0  0  0
 15 17  1  0  0  0  0
 14 15  2  0  0  0  0
 14 24  1  0  0  0  0
 11 12  1  0  0  0  0
 11 13  1  0  0  0  0
 11 14  1  0  0  0  0
  9 10  1  0  0  0  0
  9 11  1  0  0  0  0
  9 26  1  0  0  0  0
  7  8  1  0  0  0  0
  7  9  1  0  0  0  0
 30 31  1  0  0  0  0
 30 32  1  0  0  0  0
 30 33  1  0  0  0  0
 28 29  1  0  0  0  0
 28 30  1  0  0  0  0
M  END
$$$$
default_name
  -OEChem-01062215323D

 33 33  0     1  0  0  0  0  0999 V2000
   -4.0702   -3.8485    1.4554 H   0  0  0  0  0  0  0  0  0  0  0  0
   -4.0012   -2.9605    0.8284 C   0  0  0  0  0  0  0  0  0  0  0  0
   -4.7652   -2.2435    1.1234 H   0  0  0  0  0  0  0  0  0  0  0  0
   -4.1352   -3.2385   -0.2156 H   0  0  0  0  0  0  0  0  0  0  0  0
   -2.6362   -2.3395    1.0094 C   0  0  0  0  0  0  0  0  0  0  0  0
   -1.8292   -2.8395    1.7814 O   0  0  0  0  0  0  0  0  0  0  0  0
   -2.3832   -1.2445    0.2964 N   0  0  0  0  0  0  0  0  0  0  0  0
   -3.1102   -0.8685   -0.2946 H   0  0  0  0  0  0  0  0  0  0  0  0
   -1.1292   -0.4875    0.3524 C   0  0  1  0  0  0  0  0  0  0  0  0
   -1.1905    0.3381   -0.3576 H   0  0  0  0  0  0  0  0  0  0  0  0
   -0.9499    0.1001    1.7629 C   0  0  0  0  0  0  0  0  0  0  0  0
   -1.0316   -0.7044    2.4949 H   0  0  0  0  0  0  0  0  0  0  0  0
    0.0549    0.5174    1.8467 H   0  0  0  0  0  0  0  0  0  0  0  0
   -1.9677    1.1662    2.1196 C   0  0  0  0  0  0  0  0  0  0  0  0
   -1.7968    2.4913    1.6711 C   0  0  0  0  0  0  0  0  0  0  0  0
   -0.9229    2.7581    1.0913 H   0  0  0  0  0  0  0  0  0  0  0  0
   -2.7655    3.4689    1.9708 C   0  0  0  0  0  0  0  0  0  0  0  0
   -2.6306    4.4829    1.6271 H   0  0  0  0  0  0  0  0  0  0  0  0
   -3.9109    3.1187    2.7185 C   0  0  0  0  0  0  0  0  0  0  0  0
   -4.8522    4.0535    3.0102 O   0  0  0  0  0  0  0  0  0  0  0  0
   -4.5862    4.9319    2.7354 H   0  0  0  0  0  0  0  0  0  0  0  0
   -4.0827    1.7911    3.1622 C   0  0  0  0  0  0  0  0  0  0  0  0
   -4.9605    1.5366    3.7369 H   0  0  0  0  0  0  0  0  0  0  0  0
   -3.1104    0.8173    2.8650 C   0  0  0  0  0  0  0  0  0  0  0  0
   -3.2386   -0.2004    3.2142 H   0  0  0  0  0  0  0  0  0  0  0  0
    0.0638   -1.3679   -0.0551 C   0  0  0  0  0  0  0  0  0  0  0  0
    1.1460   -0.8531   -0.3382 O   0  0  0  0  0  0  0  0  0  0  0  0
   -0.1317   -2.6922   -0.0883 N   0  0  0  0  0  0  0  0  0  0  0  0
   -1.0640   -3.0308    0.1004 H   0  0  0  0  0  0  0  0  0  0  0  0
    0.8921   -3.6680   -0.4549 C   0  0  0  0  0  0  0  0  0  0  0  0
    1.8011   -3.4855    0.1209 H   0  0  0  0  0  0  0  0  0  0  0  0
    0.5362   -4.6797   -0.2539 H   0  0  0  0  0  0  0  0  0  0  0  0
    1.1267   -3.5727   -1.5171 H   0  0  0  0  0  0  0  0  0  0  0  0
  5  6  2  0  0  0  0
  5  7  1  0  0  0  0
  2  3  1  0  0  0  0
  2  4  1  0  0  0  0
  2  5  1  0  0  0  0
  1  2  1  0  0  0  0
 26 27  2  0  0  0  0
 26 28  1  0  0  0  0
 24 25  1  0  0  0  0
 22 23  1  0  0  0  0
 22 24  2  0  0  0  0
 20 21  1  0  0  0  0
 19 20  1  0  0  0  0
 19 22  1  0  0  0  0
 17 18  1  0  0  0  0
 17 19  2  0  0  0  0
 15 16  1  0  0  0  0
 15 17  1  0  0  0  0
 14 15  2  0  0  0  0
 14 24  1  0  0  0  0
 11 12  1  0  0  0  0
 11 13  1  0  0  0  0
 11 14  1  0  0  0  0
  9 10  1  0  0  0  0
  9 11  1  0  0  0  0
  9 26  1  0  0  0  0
  7  8  1  0  0  0  0
  7  9  1  0  0  0  0
 30 31  1  0  0  0  0
 30 32  1  0  0  0  0
 30 33  1  0  0  0  0
 28 29  1  0  0  0  0
 28 30  1  0  0  0  0
M  END
$$$$
default_name
  -OEChem-01062215323D

 33 33  0     1  0  0  0  0  0999 V2000
   -4.0702   -3.8485    1.4554 H   0  0  0  0  0  0  0  0  0  0  0  0
   -4.0012   -2.9605    0.8284 C   0  0  0  0  0  0  0  0  0  0  0  0
   -4.7652   -2.2435    1.1234 H   0  0  0  0  0  0  0  0  0  0  0  0
   -4.1352   -3.2385   -0.2156 H   0  0  0  0  0  0  0  0  0  0  0  0
   -2.6362   -2.3395    1.0094 C   0  0  0  0  0  0  0  0  0  0  0  0
   -1.8292   -2.8395    1.7814 O   0  0  0  0  0  0  0  0  0  0  0  0
   -2.3832   -1.2445    0.2964 N   0  0  0  0  0  0  0  0  0  0  0  0
   -3.1102   -0.8685   -0.2946 H   0  0  0  0  0  0  0  0  0  0  0  0
   -1.1292   -0.4875    0.3524 C   0  0  1  0  0  0  0  0  0  0  0  0
   -1.1905    0.3381   -0.3576 H   0  0  0  0  0  0  0  0  0  0  0  0
   -0.9499    0.1001    1.7629 C   0  0  0  0  0  0  0  0  0  0  0  0
   -1.0316   -0.7044    2.4949 H   0  0  0  0  0  0  0  0  0  0  0  0
    0.0549    0.5174    1.8467 H   0  0  0  0  0  0  0  0  0  0  0  0
   -1.9677    1.1662    2.1196 C   0  0  0  0  0  0  0  0  0  0  0  0
   -1.7968    2.4913    1.6711 C   0  0  0  0  0  0  0  0  0  0  0  0
   -0.9229    2.7581    1.0913 H   0  0  0  0  0  0  0  0  0  0  0  0
   -2.7655    3.4689    1.9708 C   0  0  0  0  0  0  0  0  0  0  0  0
   -2.6306    4.4829    1.6271 H   0  0  0  0  0  0  0  0  0  0  0  0
   -3.9109    3.1187    2.7185 C   0  0  0  0  0  0  0  0  0  0  0  0
   -4.8522    4.0535    3.0102 O   0  0  0  0  0  0  0  0  0  0  0  0
   -4.5862    4.9319    2.7354 H   0  0  0  0  0  0  0  0  0  0  0  0
   -4.0827    1.7911    3.1622 C   0  0  0  0  0  0  0  0  0  0  0  0
   -4.9605    1.5366    3.7369 H   0  0  0  0  0  0  0  0  0  0  0  0
   -3.1104    0.8173    2.8650 C   0  0  0  0  0  0  0  0  0  0  0  0
   -3.2386   -0.2004    3.2142 H   0  0  0  0  0  0  0  0  0  0  0  0
    0.0638   -1.3679   -0.0551 C   0  0  0  0  0  0  0  0  0  0  0  0
    1.2027   -0.9001   -0.0704 O   0  0  0  0  0  0  0  0  0  0  0  0
   -0.1947   -2.6390   -0.3876 N   0  0  0  0  0  0  0  0  0  0  0  0
   -1.1618   -2.9287   -0.4063 H   0  0  0  0  0  0  0  0  0  0  0  0
    0.8200   -3.6064   -0.7991 C   0  0  0  0  0  0  0  0  0  0  0  0
    1.6370   -3.6169   -0.0756 H   0  0  0  0  0  0  0  0  0  0  0  0
    0.3836   -4.6046   -0.8631 H   0  0  0  0  0  0  0  0  0  0  0  0
    1.2214   -3.3251   -1.7749 H   0  0  0  0  0  0  0  0  0  0  0  0
  5  6  2  0  0  0  0
  5  7  1  0  0  0  0
  2  3  1  0  0  0  0
  2  4  1  0  0  0  0
  2  5  1  0  0  0  0
  1  2  1  0  0  0  0
 26 27  2  0  0  0  0
 26 28  1  0  0  0  0
 24 25  1  0  0  0  0
 22 23  1  0  0  0  0
 22 24  2  0  0  0  0
 20 21  1  0  0  0  0
 19 20  1  0  0  0  0
 19 22  1  0  0  0  0
 17 18  1  0  0  0  0
 17 19  2  0  0  0  0
 15 16  1  0  0  0  0
 15 17  1  0  0  0  0
 14 15  2  0  0  0  0
 14 24  1  0  0  0  0
 11 12  1  0  0  0  0
 11 13  1  0  0  0  0
 11 14  1  0  0  0  0
  9 10  1  0  0  0  0
  9 11  1  0  0  0  0
  9 26  1  0  0  0  0
  7  8  1  0  0  0  0
  7  9  1  0  0  0  0
 30 31  1  0  0  0  0
 30 32  1  0  0  0  0
 30 33  1  0  0  0  0
 28 29  1  0  0  0  0
 28 30  1  0  0  0  0
M  END
$$$$
default_name
  -OEChem-01062215323D

 33 33  0     1  0  0  0  0  0999 V2000
   -4.0702   -3.8485    1.4554 H   0  0  0  0  0  0  0  0  0  0  0  0
   -4.0012   -2.9605    0.8284 C   0  0  0  0  0  0  0  0  0  0  0  0
   -4.7652   -2.2435    1.1234 H   0  0  0  0  0  0  0  0  0  0  0  0
   -4.1352   -3.2385   -0.2156 H   0  0  0  0  0  0  0  0  0  0  0  0
   -2.6362   -2.3395    1.0094 C   0  0  0  0  0  0  0  0  0  0  0  0
   -1.8292   -2.8395    1.7814 O   0  0  0  0  0  0  0  0  0  0  0  0
   -2.3832   -1.2445    0.2964 N   0  0  0  0  0  0  0  0  0  0  0  0
   -3.1102   -0.8685   -0.2946 H   0  0  0  0  0  0  0  0  0  0  0  0
   -1.1292   -0.4875    0.3524 C   0  0  1  0  0  0  0  0  0  0  0  0
   -1.1905    0.3381   -0.3576 H   0  0  0  0  0  0  0  0  0  0  0  0
   -0.9499    0.1001    1.7629 C   0  0  0  0  0  0  0  0  0  0  0  0
   -1.0316   -0.7044    2.4949 H   0  0  0  0  0  0  0  0  0  0  0  0
    0.0549    0.5174    1.8467 H   0  0  0  0  0  0  0  0  0  0  0  0
   -1.9677    1.1662    2.1196 C   0  0  0  0  0  0  0  0  0  0  0  0
   -1.7968    2.4913    1.6711 C   0  0  0  0  0  0  0  0  0  0  0  0
   -0.9229    2.7581    1.0913 H   0  0  0  0  0  0  0  0  0  0  0  0
   -2.7655    3.4689    1.9708 C   0  0  0  0  0  0  0  0  0  0  0  0
   -2.6306    4.4829    1.6271 H   0  0  0  0  0  0  0  0  0  0  0  0
   -3.9109    3.1187    2.7185 C   0  0  0  0  0  0  0  0  0  0  0  0
   -4.8522    4.0535    3.0102 O   0  0  0  0  0  0  0  0  0  0  0  0
   -4.5862    4.9319    2.7354 H   0  0  0  0  0  0  0  0  0  0  0  0
   -4.0827    1.7911    3.1622 C   0  0  0  0  0  0  0  0  0  0  0  0
   -4.9605    1.5366    3.7369 H   0  0  0  0  0  0  0  0  0  0  0  0
   -3.1104    0.8173    2.8650 C   0  0  0  0  0  0  0  0  0  0  0  0
   -3.2386   -0.2004    3.2142 H   0  0  0  0  0  0  0  0  0  0  0  0
    0.0638   -1.3679   -0.0551 C   0  0  0  0  0  0  0  0  0  0  0  0
    1.2147   -1.0032    0.1872 O   0  0  0  0  0  0  0  0  0  0  0  0
   -0.2075   -2.5232   -0.6754 N   0  0  0  0  0  0  0  0  0  0  0  0
   -1.1741   -2.7217   -0.8897 H   0  0  0  0  0  0  0  0  0  0  0  0
    0.8055   -3.4729   -1.1298 C   0  0  0  0  0  0  0  0  0  0  0  0
    1.4986   -3.6931   -0.3160 H   0  0  0  0  0  0  0  0  0  0  0  0
    0.3317   -4.3991   -1.4590 H   0  0  0  0  0  0  0  0  0  0  0  0
    1.3680   -3.0408   -1.9601 H   0  0  0  0  0  0  0  0  0  0  0  0
  5  6  2  0  0  0  0
  5  7  1  0  0  0  0
  2  3  1  0  0  0  0
  2  4  1  0  0  0  0
  2  5  1  0  0  0  0
  1  2  1  0  0  0  0
 26 27  2  0  0  0  0
 26 28  1  0  0  0  0
 24 25  1  0  0  0  0
 22 23  1  0  0  0  0
 22 24  2  0  0  0  0
 20 21  1  0  0  0  0
 19 20  1  0  0  0  0
 19 22  1  0  0  0  0
 17 18  1  0  0  0  0
 17 19  2  0  0  0  0
 15 16  1  0  0  0  0
 15 17  1  0  0  0  0
 14 15  2  0  0  0  0
 14 24  1  0  0  0  0
 11 12  1  0  0  0  0
 11 13  1  0  0  0  0
 11 14  1  0  0  0  0
  9 10  1  0  0  0  0
  9 11  1  0  0  0  0
  9 26  1  0  0  0  0
  7  8  1  0  0  0  0
  7  9  1  0  0  0  0
 30 31  1  0  0  0  0
 30 32  1  0  0  0  0
 30 33  1  0  0  0  0
 28 29  1  0  0  0  0
 28 30  1  0  0  0  0
M  END
$$$$
default_name
  -OEChem-01062215323D

 33 33  0     1  0  0  0  0  0999 V2000
   -4.0702   -3.8485    1.4554 H   0  0  0  0  0  0  0  0  0  0  0  0
   -4.0012   -2.9605    0.8284 C   0  0  0  0  0  0  0  0  0  0  0  0
   -4.7652   -2.2435    1.1234 H   0  0  0  0  0  0  0  0  0  0  0  0
   -4.1352   -3.2385   -0.2156 H   0  0  0  0  0  0  0  0  0  0  0  0
   -2.6362   -2.3395    1.0094 C   0  0  0  0  0  0  0  0  0  0  0  0
   -1.8292   -2.8395    1.7814 O   0  0  0  0  0  0  0  0  0  0  0  0
   -2.3832   -1.2445    0.2964 N   0  0  0  0  0  0  0  0  0  0  0  0
   -3.1102   -0.8685   -0.2946 H   0  0  0  0  0  0  0  0  0  0  0  0
   -1.1292   -0.4875    0.3524 C   0  0  1  0  0  0  0  0  0  0  0  0
   -1.1905    0.3381   -0.3576 H   0  0  0  0  0  0  0  0  0  0  0  0
   -0.9499    0.1001    1.7629 C   0  0  0  0  0  0  0  0  0  0  0  0
   -1.0316   -0.7044    2.4949 H   0  0  0  0  0  0  0  0  0  0  0  0
    0.0549    0.5174    1.8467 H   0  0  0  0  0  0  0  0  0  0  0  0
   -1.9677    1.1662    2.1196 C   0  0  0  0  0  0  0  0  0  0  0  0
   -1.7968    2.4913    1.6711 C   0  0  0  0  0  0  0  0  0  0  0  0
   -0.9229    2.7581    1.0913 H   0  0  0  0  0  0  0  0  0  0  0  0
   -2.7655    3.4689    1.9708 C   0  0  0  0  0  0  0  0  0  0  0  0
   -2.6306    4.4829    1.6271 H   0  0  0  0  0  0  0  0  0  0  0  0
   -3.9109    3.1187    2.7185 C   0  0  0  0  0  0  0  0  0  0  0  0
   -4.8522    4.0535    3.0102 O   0  0  0  0  0  0  0  0  0  0  0  0
   -4.5862    4.9319    2.7354 H   0  0  0  0  0  0  0  0  0  0  0  0
   -4.0827    1.7911    3.1622 C   0  0  0  0  0  0  0  0  0  0  0  0
   -4.9605    1.5366    3.7369 H   0  0  0  0  0  0  0  0  0  0  0  0
   -3.1104    0.8173    2.8650 C   0  0  0  0  0  0  0  0  0  0  0  0
   -3.2386   -0.2004    3.2142 H   0  0  0  0  0  0  0  0  0  0  0  0
    0.0638   -1.3679   -0.0551 C   0  0  0  0  0  0  0  0  0  0  0  0
    1.1809   -1.1553    0.4172 O   0  0  0  0  0  0  0  0  0  0  0  0
   -0.1693   -2.3527   -0.9320 N   0  0  0  0  0  0  0  0  0  0  0  0
   -1.1001   -2.4238   -1.3168 H   0  0  0  0  0  0  0  0  0  0  0  0
    0.8498   -3.2766   -1.4246 C   0  0  0  0  0  0  0  0  0  0  0  0
    1.3954   -3.7090   -0.5841 H   0  0  0  0  0  0  0  0  0  0  0  0
    0.3839   -4.0775   -2.0010 H   0  0  0  0  0  0  0  0  0  0  0  0
    1.5565   -2.7390   -2.0602 H   0  0  0  0  0  0  0  0  0  0  0  0
  5  6  2  0  0  0  0
  5  7  1  0  0  0  0
  2  3  1  0  0  0  0
  2  4  1  0  0  0  0
  2  5  1  0  0  0  0
  1  2  1  0  0  0  0
 26 27  2  0  0  0  0
 26 28  1  0  0  0  0
 24 25  1  0  0  0  0
 22 23  1  0  0  0  0
 22 24  2  0  0  0  0
 20 21  1  0  0  0  0
 19 20  1  0  0  0  0
 19 22  1  0  0  0  0
 17 18  1  0  0  0  0
 17 19  2  0  0  0  0
 15 16  1  0  0  0  0
 15 17  1  0  0  0  0
 14 15  2  0  0  0  0
 14 24  1  0  0  0  0
 11 12  1  0  0  0  0
 11 13  1  0  0  0  0
 11 14  1  0  0  0  0
  9 10  1  0  0  0  0
  9 11  1  0  0  0  0
  9 26  1  0  0  0  0
  7  8  1  0  0  0  0
  7  9  1  0  0  0  0
 30 31  1  0  0  0  0
 30 32  1  0  0  0  0
 30 33  1  0  0  0  0
 28 29  1  0  0  0  0
 28 30  1  0  0  0  0
M  END
$$$$
default_name
  -OEChem-01062215323D

 33 33  0     1  0  0  0  0  0999 V2000
   -4.0702   -3.8485    1.4554 H   0  0  0  0  0  0  0  0  0  0  0  0
   -4.0012   -2.9605    0.8284 C   0  0  0  0  0  0  0  0  0  0  0  0
   -4.7652   -2.2435    1.1234 H   0  0  0  0  0  0  0  0  0  0  0  0
   -4.1352   -3.2385   -0.2156 H   0  0  0  0  0  0  0  0  0  0  0  0
   -2.6362   -2.3395    1.0094 C   0  0  0  0  0  0  0  0  0  0  0  0
   -1.8292   -2.8395    1.7814 O   0  0  0  0  0  0  0  0  0  0  0  0
   -2.3832   -1.2445    0.2964 N   0  0  0  0  0  0  0  0  0  0  0  0
   -3.1102   -0.8685   -0.2946 H   0  0  0  0  0  0  0  0  0  0  0  0
   -1.1292   -0.4875    0.3524 C   0  0  1  0  0  0  0  0  0  0  0  0
   -1.1905    0.3381   -0.3576 H   0  0  0  0  0  0  0  0  0  0  0  0
   -0.9499    0.1001    1.7629 C   0  0  0  0  0  0  0  0  0  0  0  0
   -1.0316   -0.7044    2.4949 H   0  0  0  0  0  0  0  0  0  0  0  0
    0.0549    0.5174    1.8467 H   0  0  0  0  0  0  0  0  0  0  0  0
   -1.9677    1.1662    2.1196 C   0  0  0  0  0  0  0  0  0  0  0  0
   -1.7968    2.4913    1.6711 C   0  0  0  0  0  0  0  0  0  0  0  0
   -0.9229    2.7581    1.0913 H   0  0  0  0  0  0  0  0  0  0  0  0
   -2.7655    3.4689    1.9708 C   0  0  0  0  0  0  0  0  0  0  0  0
   -2.6306    4.4829    1.6271 H   0  0  0  0  0  0  0  0  0  0  0  0
   -3.9109    3.1187    2.7185 C   0  0  0  0  0  0  0  0  0  0  0  0
   -4.8522    4.0535    3.0102 O   0  0  0  0  0  0  0  0  0  0  0  0
   -4.5862    4.9319    2.7354 H   0  0  0  0  0  0  0  0  0  0  0  0
   -4.0827    1.7911    3.1622 C   0  0  0  0  0  0  0  0  0  0  0  0
   -4.9605    1.5366    3.7369 H   0  0  0  0  0  0  0  0  0  0  0  0
   -3.1104    0.8173    2.8650 C   0  0  0  0  0  0  0  0  0  0  0  0
   -3.2386   -0.2004    3.2142 H   0  0  0  0  0  0  0  0  0  0  0  0
    0.0638   -1.3679   -0.0551 C   0  0  0  0  0  0  0  0  0  0  0  0
    1.1039   -1.3461    0.6037 O   0  0  0  0  0  0  0  0  0  0  0  0
   -0.0827   -2.1390   -1.1400 N   0  0  0  0  0  0  0  0  0  0  0  0
   -0.9449   -2.0553   -1.6587 H   0  0  0  0  0  0  0  0  0  0  0  0
    0.9496   -3.0307   -1.6634 C   0  0  0  0  0  0  0  0  0  0  0  0
    1.3343   -3.6633   -0.8616 H   0  0  0  0  0  0  0  0  0  0  0  0
    0.5368   -3.6615   -2.4523 H   0  0  0  0  0  0  0  0  0  0  0  0
    1.7741   -2.4403   -2.0683 H   0  0  0  0  0  0  0  0  0  0  0  0
  5  6  2  0  0  0  0
  5  7  1  0  0  0  0
  2  3  1  0  0  0  0
  2  4  1  0  0  0  0
  2  5  1  0  0  0  0
  1  2  1  0  0  0  0
 26 27  2  0  0  0  0
 26 28  1  0  0  0  0
 24 25  1  0  0  0  0
 22 23  1  0  0  0  0
 22 24  2  0  0  0  0
 20 21  1  0  0  0  0
 19 20  1  0  0  0  0
 19 22  1  0  0  0  0
 17 18  1  0  0  0  0
 17 19  2  0  0  0  0
 15 16  1  0  0  0  0
 15 17  1  0  0  0  0
 14 15  2  0  0  0  0
 14 24  1  0  0  0  0
 11 12  1  0  0  0  0
 11 13  1  0  0  0  0
 11 14  1  0  0  0  0
  9 10  1  0  0  0  0
  9 11  1  0  0  0  0
  9 26  1  0  0  0  0
  7  8  1  0  0  0  0
  7  9  1  0  0  0  0
 30 31  1  0  0  0  0
 30 32  1  0  0  0  0
 30 33  1  0  0  0  0
 28 29  1  0  0  0  0
 28 30  1  0  0  0  0
M  END
$$$$
default_name
  -OEChem-01062215323D

 33 33  0     1  0  0  0  0  0999 V2000
   -4.0702   -3.8485    1.4554 H   0  0  0  0  0  0  0  0  0  0  0  0
   -4.0012   -2.9605    0.8284 C   0  0  0  0  0  0  0  0  0  0  0  0
   -4.7652   -2.2435    1.1234 H   0  0  0  0  0  0  0  0  0  0  0  0
   -4.1352   -3.2385   -0.2156 H   0  0  0  0  0  0  0  0  0  0  0  0
   -2.6362   -2.3395    1.0094 C   0  0  0  0  0  0  0  0  0  0  0  0
   -1.8292   -2.8395    1.7814 O   0  0  0  0  0  0  0  0  0  0  0  0
   -2.3832   -1.2445    0.2964 N   0  0  0  0  0  0  0  0  0  0  0  0
   -3.1102   -0.8685   -0.2946 H   0  0  0  0  0  0  0  0  0  0  0  0
   -1.1292   -0.4875    0.3524 C   0  0  1  0  0  0  0  0  0  0  0  0
   -1.1905    0.3381   -0.3576 H   0  0  0  0  0  0  0  0  0  0  0  0
   -0.9499    0.1001    1.7629 C   0  0  0  0  0  0  0  0  0  0  0  0
   -1.0316   -0.7044    2.4949 H   0  0  0  0  0  0  0  0  0  0  0  0
    0.0549    0.5174    1.8467 H   0  0  0  0  0  0  0  0  0  0  0  0
   -1.9677    1.1662    2.1196 C   0  0  0  0  0  0  0  0  0  0  0  0
   -1.7968    2.4913    1.6711 C   0  0  0  0  0  0  0  0  0  0  0  0
   -0.9229    2.7581    1.0913 H   0  0  0  0  0  0  0  0  0  0  0  0
   -2.7655    3.4689    1.9708 C   0  0  0  0  0  0  0  0  0  0  0  0
   -2.6306    4.4829    1.6271 H   0  0  0  0  0  0  0  0  0  0  0  0
   -3.9109    3.1187    2.7185 C   0  0  0  0  0  0  0  0  0  0  0  0
   -4.8522    4.0535    3.0102 O   0  0  0  0  0  0  0  0  0  0  0  0
   -4.5862    4.9319    2.7354 H   0  0  0  0  0  0  0  0  0  0  0  0
   -4.0827    1.7911    3.1622 C   0  0  0  0  0  0  0  0  0  0  0  0
   -4.9605    1.5366    3.7369 H   0  0  0  0  0  0  0  0  0  0  0  0
   -3.1104    0.8173    2.8650 C   0  0  0  0  0  0  0  0  0  0  0  0
   -3.2386   -0.2004    3.2142 H   0  0  0  0  0  0  0  0  0  0  0  0
    0.0638   -1.3679   -0.0551 C   0  0  0  0  0  0  0  0  0  0  0  0
    0.9887   -1.5626    0.7342 O   0  0  0  0  0  0  0  0  0  0  0  0
    0.0464   -1.8969   -1.2851 N   0  0  0  0  0  0  0  0  0  0  0  0
   -0.7191   -1.6414   -1.8919 H   0  0  0  0  0  0  0  0  0  0  0  0
    1.0983   -2.7522   -1.8299 C   0  0  0  0  0  0  0  0  0  0  0  0
    1.3195   -3.5594   -1.1294 H   0  0  0  0  0  0  0  0  0  0  0  0
    0.7798   -3.1796   -2.7820 H   0  0  0  0  0  0  0  0  0  0  0  0
    2.0061   -2.1651   -1.9839 H   0  0  0  0  0  0  0  0  0  0  0  0
  5  6  2  0  0  0  0
  5  7  1  0  0  0  0
  2  3  1  0  0  0  0
  2  4  1  0  0  0  0
  2  5  1  0  0  0  0
  1  2  1  0  0  0  0
 26 27  2  0  0  0  0
 26 28  1  0  0  0  0
 24 25  1  0  0  0  0
 22 23  1  0  0  0  0
 22 24  2  0  0  0  0
 20 21  1  0  0  0  0
 19 20  1  0  0  0  0
 19 22  1  0  0  0  0
 17 18  1  0  0  0  0
 17 19  2  0  0  0  0
 15 16  1  0  0  0  0
 15 17  1  0  0  0  0
 14 15  2  0  0  0  0
 14 24  1  0  0  0  0
 11 12  1  0  0  0  0
 11 13  1  0  0  0  0
 11 14  1  0  0  0  0
  9 10  1  0  0  0  0
  9 11  1  0  0  0  0
  9 26  1  0  0  0  0
  7  8  1  0  0  0  0
  7  9  1  0  0  0  0
 30 31  1  0  0  0  0
 30 32  1  0  0  0  0
 30 33  1  0  0  0  0
 28 29  1  0  0  0  0
 28 30  1  0  0  0  0
M  END
$$$$
default_name
  -OEChem-01062215323D

 33 33  0     1  0  0  0  0  0999 V2000
   -4.0702   -3.8485    1.4554 H   0  0  0  0  0  0  0  0  0  0  0  0
   -4.0012   -2.9605    0.8284 C   0  0  0  0  0  0  0  0  0  0  0  0
   -4.7652   -2.2435    1.1234 H   0  0  0  0  0  0  0  0  0  0  0  0
   -4.1352   -3.2385   -0.2156 H   0  0  0  0  0  0  0  0  0  0  0  0
   -2.6362   -2.3395    1.0094 C   0  0  0  0  0  0  0  0  0  0  0  0
   -1.8292   -2.8395    1.7814 O   0  0  0  0  0  0  0  0  0  0  0  0
   -2.3832   -1.2445    0.2964 N   0  0  0  0  0  0  0  0  0  0  0  0
   -3.1102   -0.8685   -0.2946 H   0  0  0  0  0  0  0  0  0  0  0  0
   -1.1292   -0.4875    0.3524 C   0  0  1  0  0  0  0  0  0  0  0  0
   -1.1905    0.3381   -0.3576 H   0  0  0  0  0  0  0  0  0  0  0  0
   -0.9499    0.1001    1.7629 C   0  0  0  0  0  0  0  0  0  0  0  0
   -1.0316   -0.7044    2.4949 H   0  0  0  0  0  0  0  0  0  0  0  0
    0.0549    0.5174    1.8467 H   0  0  0  0  0  0  0  0  0  0  0  0
   -1.9677    1.1662    2.1196 C   0  0  0  0  0  0  0  0  0  0  0  0
   -1.7968    2.4913    1.6711 C   0  0  0  0  0  0  0  0  0  0  0  0
   -0.9229    2.7581    1.0913 H   0  0  0  0  0  0  0  0  0  0  0  0
   -2.7655    3.4689    1.9708 C   0  0  0  0  0  0  0  0  0  0  0  0
   -2.6306    4.4829    1.6271 H   0  0  0  0  0  0  0  0  0  0  0  0
   -3.9109    3.1187    2.7185 C   0  0  0  0  0  0  0  0  0  0  0  0
   -4.8522    4.0535    3.0102 O   0  0  0  0  0  0  0  0  0  0  0  0
   -4.5862    4.9319    2.7354 H   0  0  0  0  0  0  0  0  0  0  0  0
   -4.0827    1.7911    3.1622 C   0  0  0  0  0  0  0  0  0  0  0  0
   -4.9605    1.5366    3.7369 H   0  0  0  0  0  0  0  0  0  0  0  0
   -3.1104    0.8173    2.8650 C   0  0  0  0  0  0  0  0  0  0  0  0
   -3.2386   -0.2004    3.2142 H   0  0  0  0  0  0  0  0  0  0  0  0
    0.0638   -1.3679   -0.0551 C   0  0  0  0  0  0  0  0  0  0  0  0
    0.8432   -1.7900    0.7997 O   0  0  0  0  0  0  0  0  0  0  0  0
    0.2093   -1.6427   -1.3576 N   0  0  0  0  0  0  0  0  0  0  0  0
   -0.4381   -1.2102   -2.0006 H   0  0  0  0  0  0  0  0  0  0  0  0
    1.2858   -2.4599   -1.9127 C   0  0  0  0  0  0  0  0  0  0  0  0
    1.3521   -3.4041   -1.3695 H   0  0  0  0  0  0  0  0  0  0  0  0
    1.0964   -2.6646   -2.9677 H   0  0  0  0  0  0  0  0  0  0  0  0
    2.2365   -1.9321   -1.8128 H   0  0  0  0  0  0  0  0  0  0  0  0
  5  6  2  0  0  0  0
  5  7  1  0  0  0  0
  2  3  1  0  0  0  0
  2  4  1  0  0  0  0
  2  5  1  0  0  0  0
  1  2  1  0  0  0  0
 26 27  2  0  0  0  0
 26 28  1  0  0  0  0
 24 25  1  0  0  0  0
 22 23  1  0  0  0  0
 22 24  2  0  0  0  0
 20 21  1  0  0  0  0
 19 20  1  0  0  0  0
 19 22  1  0  0  0  0
 17 18  1  0  0  0  0
 17 19  2  0  0  0  0
 15 16  1  0  0  0  0
 15 17  1  0  0  0  0
 14 15  2  0  0  0  0
 14 24  1  0  0  0  0
 11 12  1  0  0  0  0
 11 13  1  0  0  0  0
 11 14  1  0  0  0  0
  9 10  1  0  0  0  0
  9 11  1  0  0  0  0
  9 26  1  0  0  0  0
  7  8  1  0  0  0  0
  7  9  1  0  0  0  0
 30 31  1  0  0  0  0
 30 32  1  0  0  0  0
 30 33  1  0  0  0  0
 28 29  1  0  0  0  0
 28 30  1  0  0  0  0
M  END
$$$$
default_name
  -OEChem-01062215323D

 33 33  0     1  0  0  0  0  0999 V2000
   -4.0702   -3.8485    1.4554 H   0  0  0  0  0  0  0  0  0  0  0  0
   -4.0012   -2.9605    0.8284 C   0  0  0  0  0  0  0  0  0  0  0  0
   -4.7652   -2.2435    1.1234 H   0  0  0  0  0  0  0  0  0  0  0  0
   -4.1352   -3.2385   -0.2156 H   0  0  0  0  0  0  0  0  0  0  0  0
   -2.6362   -2.3395    1.0094 C   0  0  0  0  0  0  0  0  0  0  0  0
   -1.8292   -2.8395    1.7814 O   0  0  0  0  0  0  0  0  0  0  0  0
   -2.3832   -1.2445    0.2964 N   0  0  0  0  0  0  0  0  0  0  0  0
   -3.1102   -0.8685   -0.2946 H   0  0  0  0  0  0  0  0  0  0  0  0
   -1.1292   -0.4875    0.3524 C   0  0  1  0  0  0  0  0  0  0  0  0
   -1.1905    0.3381   -0.3576 H   0  0  0  0  0  0  0  0  0  0  0  0
   -0.9499    0.1001    1.7629 C   0  0  0  0  0  0  0  0  0  0  0  0
   -1.0316   -0.7044    2.4949 H   0  0  0  0  0  0  0  0  0  0  0  0
    0.0549    0.5174    1.8467 H   0  0  0  0  0  0  0  0  0  0  0  0
   -1.9677    1.1662    2.1196 C   0  0  0  0  0  0  0  0  0  0  0  0
   -1.7968    2.4913    1.6711 C   0  0  0  0  0  0  0  0  0  0  0  0
   -0.9229    2.7581    1.0913 H   0  0  0  0  0  0  0  0  0  0  0  0
   -2.7655    3.4689    1.9708 C   0  0  0  0  0  0  0  0  0  0  0  0
   -2.6306    4.4829    1.6271 H   0  0  0  0  0  0  0  0  0  0  0  0
   -3.9109    3.1187    2.7185 C   0  0  0  0  0  0  0  0  0  0  0  0
   -4.8522    4.0535    3.0102 O   0  0  0  0  0  0  0  0  0  0  0  0
   -4.5862    4.9319    2.7354 H   0  0  0  0  0  0  0  0  0  0  0  0
   -4.0827    1.7911    3.1622 C   0  0  0  0  0  0  0  0  0  0  0  0
   -4.9605    1.5366    3.7369 H   0  0  0  0  0  0  0  0  0  0  0  0
   -3.1104    0.8173    2.8650 C   0  0  0  0  0  0  0  0  0  0  0  0
   -3.2386   -0.2004    3.2142 H   0  0  0  0  0  0  0  0  0  0  0  0
    0.0638   -1.3679   -0.0551 C   0  0  0  0  0  0  0  0  0  0  0  0
    0.6774   -2.0128    0.7957 O   0  0  0  0  0  0  0  0  0  0  0  0
    0.3948   -1.3937   -1.3524 N   0  0  0  0  0  0  0  0  0  0  0  0
   -0.1209   -0.7912   -1.9773 H   0  0  0  0  0  0  0  0  0  0  0  0
    1.4991   -2.1738   -1.9063 C   0  0  0  0  0  0  0  0  0  0  0  0
    1.4298   -3.2082   -1.5654 H   0  0  0  0  0  0  0  0  0  0  0  0
    1.4651   -2.1516   -2.9967 H   0  0  0  0  0  0  0  0  0  0  0  0
    2.4496   -1.7572   -1.5666 H   0  0  0  0  0  0  0  0  0  0  0  0
  5  6  2  0  0  0  0
  5  7  1  0  0  0  0
  2  3  1  0  0  0  0
  2  4  1  0  0  0  0
  2  5  1  0  0  0  0
  1  2  1  0  0  0  0
 26 27  2  0  0  0  0
 26 28  1  0  0  0  0
 24 25  1  0  0  0  0
 22 23  1  0  0  0  0
 22 24  2  0  0  0  0
 20 21  1  0  0  0  0
 19 20  1  0  0  0  0
 19 22  1  0  0  0  0
 17 18  1  0  0  0  0
 17 19  2  0  0  0  0
 15 16  1  0  0  0  0
 15 17  1  0  0  0  0
 14 15  2  0  0  0  0
 14 24  1  0  0  0  0
 11 12  1  0  0  0  0
 11 13  1  0  0  0  0
 11 14  1  0  0  0  0
  9 10  1  0  0  0  0
  9 11  1  0  0  0  0
  9 26  1  0  0  0  0
  7  8  1  0  0  0  0
  7  9  1  0  0  0  0
 30 31  1  0  0  0  0
 30 32  1  0  0  0  0
 30 33  1  0  0  0  0
 28 29  1  0  0  0  0
 28 30  1  0  0  0  0
M  END
$$$$
default_name
  -OEChem-01062215323D

 33 33  0     1  0  0  0  0  0999 V2000
   -4.0702   -3.8485    1.4554 H   0  0  0  0  0  0  0  0  0  0  0  0
   -4.0012   -2.9605    0.8284 C   0  0  0  0  0  0  0  0  0  0  0  0
   -4.7652   -2.2435    1.1234 H   0  0  0  0  0  0  0  0  0  0  0  0
   -4.1352   -3.2385   -0.2156 H   0  0  0  0  0  0  0  0  0  0  0  0
   -2.6362   -2.3395    1.0094 C   0  0  0  0  0  0  0  0  0  0  0  0
   -1.8292   -2.8395    1.7814 O   0  0  0  0  0  0  0  0  0  0  0  0
   -2.3832   -1.2445    0.2964 N   0  0  0  0  0  0  0  0  0  0  0  0
   -3.1102   -0.8685   -0.2946 H   0  0  0  0  0  0  0  0  0  0  0  0
   -1.1292   -0.4875    0.3524 C   0  0  1  0  0  0  0  0  0  0  0  0
   -1.1905    0.3381   -0.3576 H   0  0  0  0  0  0  0  0  0  0  0  0
   -0.9499    0.1001    1.7629 C   0  0  0  0  0  0  0  0  0  0  0  0
   -1.0316   -0.7044    2.4949 H   0  0  0  0  0  0  0  0  0  0  0  0
    0.0549    0.5174    1.8467 H   0  0  0  0  0  0  0  0  0  0  0  0
   -1.9677    1.1662    2.1196 C   0  0  0  0  0  0  0  0  0  0  0  0
   -1.7968    2.4913    1.6711 C   0  0  0  0  0  0  0  0  0  0  0  0
   -0.9229    2.7581    1.0913 H   0  0  0  0  0  0  0  0  0  0  0  0
   -2.7655    3.4689    1.9708 C   0  0  0  0  0  0  0  0  0  0  0  0
   -2.6306    4.4829    1.6271 H   0  0  0  0  0  0  0  0  0  0  0  0
   -3.9109    3.1187    2.7185 C   0  0  0  0  0  0  0  0  0  0  0  0
   -4.8522    4.0535    3.0102 O   0  0  0  0  0  0  0  0  0  0  0  0
   -4.5862    4.9319    2.7354 H   0  0  0  0  0  0  0  0  0  0  0  0
   -4.0827    1.7911    3.1622 C   0  0  0  0  0  0  0  0  0  0  0  0
   -4.9605    1.5366    3.7369 H   0  0  0  0  0  0  0  0  0  0  0  0
   -3.1104    0.8173    2.8650 C   0  0  0  0  0  0  0  0  0  0  0  0
   -3.2386   -0.2004    3.2142 H   0  0  0  0  0  0  0  0  0  0  0  0
    0.0638   -1.3679   -0.0551 C   0  0  0  0  0  0  0  0  0  0  0  0
    0.5026   -2.2158    0.7225 O   0  0  0  0  0  0  0  0  0  0  0  0
    0.5902   -1.1671   -1.2699 N   0  0  0  0  0  0  0  0  0  0  0  0
    0.2107   -0.4129   -1.8237 H   0  0  0  0  0  0  0  0  0  0  0  0
    1.7239   -1.9133   -1.8110 C   0  0  0  0  0  0  0  0  0  0  0  0
    1.5473   -2.9850   -1.7037 H   0  0  0  0  0  0  0  0  0  0  0  0
    1.8608   -1.6755   -2.8671 H   0  0  0  0  0  0  0  0  0  0  0  0
    2.6310   -1.6523   -1.2620 H   0  0  0  0  0  0  0  0  0  0  0  0
  5  6  2  0  0  0  0
  5  7  1  0  0  0  0
  2  3  1  0  0  0  0
  2  4  1  0  0  0  0
  2  5  1  0  0  0  0
  1  2  1  0  0  0  0
 26 27  2  0  0  0  0
 26 28  1  0  0  0  0
 24 25  1  0  0  0  0
 22 23  1  0  0  0  0
 22 24  2  0  0  0  0
 20 21  1  0  0  0  0
 19 20  1  0  0  0  0
 19 22  1  0  0  0  0
 17 18  1  0  0  0  0
 17 19  2  0  0  0  0
 15 16  1  0  0  0  0
 15 17  1  0  0  0  0
 14 15  2  0  0  0  0
 14 24  1  0  0  0  0
 11 12  1  0  0  0  0
 11 13  1  0  0  0  0
 11 14  1  0  0  0  0
  9 10  1  0  0  0  0
  9 11  1  0  0  0  0
  9 26  1  0  0  0  0
  7  8  1  0  0  0  0
  7  9  1  0  0  0  0
 30 31  1  0  0  0  0
 30 32  1  0  0  0  0
 30 33  1  0  0  0  0
 28 29  1  0  0  0  0
 28 30  1  0  0  0  0
M  END
$$$$
default_name
  -OEChem-01062215323D

 33 33  0     1  0  0  0  0  0999 V2000
   -4.0702   -3.8485    1.4554 H   0  0  0  0  0  0  0  0  0  0  0  0
   -4.0012   -2.9605    0.8284 C   0  0  0  0  0  0  0  0  0  0  0  0
   -4.7652   -2.2435    1.1234 H   0  0  0  0  0  0  0  0  0  0  0  0
   -4.1352   -3.2385   -0.2156 H   0  0  0  0  0  0  0  0  0  0  0  0
   -2.6362   -2.3395    1.0094 C   0  0  0  0  0  0  0  0  0  0  0  0
   -1.8292   -2.8395    1.7814 O   0  0  0  0  0  0  0  0  0  0  0  0
   -2.3832   -1.2445    0.2964 N   0  0  0  0  0  0  0  0  0  0  0  0
   -3.1102   -0.8685   -0.2946 H   0  0  0  0  0  0  0  0  0  0  0  0
   -1.1292   -0.4875    0.3524 C   0  0  1  0  0  0  0  0  0  0  0  0
   -1.1905    0.3381   -0.3576 H   0  0  0  0  0  0  0  0  0  0  0  0
   -0.9499    0.1001    1.7629 C   0  0  0  0  0  0  0  0  0  0  0  0
   -1.0316   -0.7044    2.4949 H   0  0  0  0  0  0  0  0  0  0  0  0
    0.0549    0.5174    1.8467 H   0  0  0  0  0  0  0  0  0  0  0  0
   -1.9677    1.1662    2.1196 C   0  0  0  0  0  0  0  0  0  0  0  0
   -1.7968    2.4913    1.6711 C   0  0  0  0  0  0  0  0  0  0  0  0
   -0.9229    2.7581    1.0913 H   0  0  0  0  0  0  0  0  0  0  0  0
   -2.7655    3.4689    1.9708 C   0  0  0  0  0  0  0  0  0  0  0  0
   -2.6306    4.4829    1.6271 H   0  0  0  0  0  0  0  0  0  0  0  0
   -3.9109    3.1187    2.7185 C   0  0  0  0  0  0  0  0  0  0  0  0
   -4.8522    4.0535    3.0102 O   0  0  0  0  0  0  0  0  0  0  0  0
   -4.5862    4.9319    2.7354 H   0  0  0  0  0  0  0  0  0  0  0  0
   -4.0827    1.7911    3.1622 C   0  0  0  0  0  0  0  0  0  0  0  0
   -4.9605    1.5366    3.7369 H   0  0  0  0  0  0  0  0  0  0  0  0
   -3.1104    0.8173    2.8650 C   0  0  0  0  0  0  0  0  0  0  0  0
   -3.2386   -0.2004    3.2142 H   0  0  0  0  0  0  0  0  0  0  0  0
    0.0638   -1.3679   -0.0551 C   0  0  0  0  0  0  0  0  0  0  0  0
    0.3306   -2.3853    0.5852 O   0  0  0  0  0  0  0  0  0  0  0  0
    0.7824   -0.9781   -1.1157 N   0  0  0  0  0  0  0  0  0  0  0  0
    0.5343   -0.1011   -1.5502 H   0  0  0  0  0  0  0  0  0  0  0  0
    1.9447   -1.6963   -1.6333 C   0  0  0  0  0  0  0  0  0  0  0  0
    1.6966   -2.7496   -1.7751 H   0  0  0  0  0  0  0  0  0  0  0  0
    2.2564   -1.2687   -2.5876 H   0  0  0  0  0  0  0  0  0  0  0  0
    2.7683   -1.6247   -0.9199 H   0  0  0  0  0  0  0  0  0  0  0  0
  5  6  2  0  0  0  0
  5  7  1  0  0  0  0
  2  3  1  0  0  0  0
  2  4  1  0  0  0  0
  2  5  1  0  0  0  0
  1  2  1  0  0  0  0
 26 27  2  0  0  0  0
 26 28  1  0  0  0  0
 24 25  1  0  0  0  0
 22 23  1  0  0  0  0
 22 24  2  0  0  0  0
 20 21  1  0  0  0  0
 19 20  1  0  0  0  0
 19 22  1  0  0  0  0
 17 18  1  0  0  0  0
 17 19  2  0  0  0  0
 15 16  1  0  0  0  0
 15 17  1  0  0  0  0
 14 15  2  0  0  0  0
 14 24  1  0  0  0  0
 11 12  1  0  0  0  0
 11 13  1  0  0  0  0
 11 14  1  0  0  0  0
  9 10  1  0  0  0  0
  9 11  1  0  0  0  0
  9 26  1  0  0  0  0
  7  8  1  0  0  0  0
  7  9  1  0  0  0  0
 30 31  1  0  0  0  0
 30 32  1  0  0  0  0
 30 33  1  0  0  0  0
 28 29  1  0  0  0  0
 28 30  1  0  0  0  0
M  END
$$$$
default_name
  -OEChem-01062215323D

 33 33  0     1  0  0  0  0  0999 V2000
   -4.0702   -3.8485    1.4554 H   0  0  0  0  0  0  0  0  0  0  0  0
   -4.0012   -2.9605    0.8284 C   0  0  0  0  0  0  0  0  0  0  0  0
   -4.7652   -2.2435    1.1234 H   0  0  0  0  0  0  0  0  0  0  0  0
   -4.1352   -3.2385   -0.2156 H   0  0  0  0  0  0  0  0  0  0  0  0
   -2.6362   -2.3395    1.0094 C   0  0  0  0  0  0  0  0  0  0  0  0
   -1.8292   -2.8395    1.7814 O   0  0  0  0  0  0  0  0  0  0  0  0
   -2.3832   -1.2445    0.2964 N   0  0  0  0  0  0  0  0  0  0  0  0
   -3.1102   -0.8685   -0.2946 H   0  0  0  0  0  0  0  0  0  0  0  0
   -1.1292   -0.4875    0.3524 C   0  0  1  0  0  0  0  0  0  0  0  0
   -1.1905    0.3381   -0.3576 H   0  0  0  0  0  0  0  0  0  0  0  0
   -0.9499    0.1001    1.7629 C   0  0  0  0  0  0  0  0  0  0  0  0
   -1.0316   -0.7044    2.4949 H   0  0  0  0  0  0  0  0  0  0  0  0
    0.0549    0.5174    1.8467 H   0  0  0  0  0  0  0  0  0  0  0  0
   -1.9677    1.1662    2.1196 C   0  0  0  0  0  0  0  0  0  0  0  0
   -1.7968    2.4913    1.6711 C   0  0  0  0  0  0  0  0  0  0  0  0
   -0.9229    2.7581    1.0913 H   0  0  0  0  0  0  0  0  0  0  0  0
   -2.7655    3.4689    1.9708 C   0  0  0  0  0  0  0  0  0  0  0  0
   -2.6306    4.4829    1.6271 H   0  0  0  0  0  0  0  0  0  0  0  0
   -3.9109    3.1187    2.7185 C   0  0  0  0  0  0  0  0  0  0  0  0
   -4.8522    4.0535    3.0102 O   0  0  0  0  0  0  0  0  0  0  0  0
   -4.5862    4.9319    2.7354 H   0  0  0  0  0  0  0  0  0  0  0  0
   -4.0827    1.7911    3.1622 C   0  0  0  0  0  0  0  0  0  0  0  0
   -4.9605    1.5366    3.7369 H   0  0  0  0  0  0  0  0  0  0  0  0
   -3.1104    0.8173    2.8650 C   0  0  0  0  0  0  0  0  0  0  0  0
   -3.2386   -0.2004    3.2142 H   0  0  0  0  0  0  0  0  0  0  0  0
    0.0638   -1.3679   -0.0551 C   0  0  0  0  0  0  0  0  0  0  0  0
    0.1733   -2.5096    0.3930 O   0  0  0  0  0  0  0  0  0  0  0  0
    0.9581   -0.8397   -0.9003 N   0  0  0  0  0  0  0  0  0  0  0  0
    0.8276    0.1230   -1.1755 H   0  0  0  0  0  0  0  0  0  0  0  0
    2.1466   -1.5375   -1.3854 C   0  0  0  0  0  0  0  0  0  0  0  0
    1.8675   -2.5182   -1.7747 H   0  0  0  0  0  0  0  0  0  0  0  0
    2.6250   -0.9591   -2.1774 H   0  0  0  0  0  0  0  0  0  0  0  0
    2.8521   -1.6760   -0.5636 H   0  0  0  0  0  0  0  0  0  0  0  0
  5  6  2  0  0  0  0
  5  7  1  0  0  0  0
  2  3  1  0  0  0  0
  2  4  1  0  0  0  0
  2  5  1  0  0  0  0
  1  2  1  0  0  0  0
 26 27  2  0  0  0  0
 26 28  1  0  0  0  0
 24 25  1  0  0  0  0
 22 23  1  0  0  0  0
 22 24  2  0  0  0  0
 20 21  1  0  0  0  0
 19 20  1  0  0  0  0
 19 22  1  0  0  0  0
 17 18  1  0  0  0  0
 17 19  2  0  0  0  0
 15 16  1  0  0  0  0
 15 17  1  0  0  0  0
 14 15  2  0  0  0  0
 14 24  1  0  0  0  0
 11 12  1  0  0  0  0
 11 13  1  0  0  0  0
 11 14  1  0  0  0  0
  9 10  1  0  0  0  0
  9 11  1  0  0  0  0
  9 26  1  0  0  0  0
  7  8  1  0  0  0  0
  7  9  1  0  0  0  0
 30 31  1  0  0  0  0
 30 32  1  0  0  0  0
 30 33  1  0  0  0  0
 28 29  1  0  0  0  0
 28 30  1  0  0  0  0
M  END
$$$$
default_name
  -OEChem-01062215323D

 33 33  0     1  0  0  0  0  0999 V2000
   -4.0702   -3.8485    1.4554 H   0  0  0  0  0  0  0  0  0  0  0  0
   -4.0012   -2.9605    0.8284 C   0  0  0  0  0  0  0  0  0  0  0  0
   -4.7652   -2.2435    1.1234 H   0  0  0  0  0  0  0  0  0  0  0  0
   -4.1352   -3.2385   -0.2156 H   0  0  0  0  0  0  0  0  0  0  0  0
   -2.6362   -2.3395    1.0094 C   0  0  0  0  0  0  0  0  0  0  0  0
   -1.8292   -2.8395    1.7814 O   0  0  0  0  0  0  0  0  0  0  0  0
   -2.3832   -1.2445    0.2964 N   0  0  0  0  0  0  0  0  0  0  0  0
   -3.1102   -0.8685   -0.2946 H   0  0  0  0  0  0  0  0  0  0  0  0
   -1.1292   -0.4875    0.3524 C   0  0  1  0  0  0  0  0  0  0  0  0
   -1.1905    0.3381   -0.3576 H   0  0  0  0  0  0  0  0  0  0  0  0
   -0.9499    0.1001    1.7629 C   0  0  0  0  0  0  0  0  0  0  0  0
   -1.0316   -0.7044    2.4949 H   0  0  0  0  0  0  0  0  0  0  0  0
    0.0549    0.5174    1.8467 H   0  0  0  0  0  0  0  0  0  0  0  0
   -1.9677    1.1662    2.1196 C   0  0  0  0  0  0  0  0  0  0  0  0
   -1.7968    2.4913    1.6711 C   0  0  0  0  0  0  0  0  0  0  0  0
   -0.9229    2.7581    1.0913 H   0  0  0  0  0  0  0  0  0  0  0  0
   -2.7655    3.4689    1.9708 C   0  0  0  0  0  0  0  0  0  0  0  0
   -2.6306    4.4829    1.6271 H   0  0  0  0  0  0  0  0  0  0  0  0
   -3.9109    3.1187    2.7185 C   0  0  0  0  0  0  0  0  0  0  0  0
   -4.8522    4.0535    3.0102 O   0  0  0  0  0  0  0  0  0  0  0  0
   -4.5862    4.9319    2.7354 H   0  0  0  0  0  0  0  0  0  0  0  0
   -4.0827    1.7911    3.1622 C   0  0  0  0  0  0  0  0  0  0  0  0
   -4.9605    1.5366    3.7369 H   0  0  0  0  0  0  0  0  0  0  0  0
   -3.1104    0.8173    2.8650 C   0  0  0  0  0  0  0  0  0  0  0  0
   -3.2386   -0.2004    3.2142 H   0  0  0  0  0  0  0  0  0  0  0  0
    0.0638   -1.3679   -0.0551 C   0  0  0  0  0  0  0  0  0  0  0  0
    0.0412   -2.5803    0.1592 O   0  0  0  0  0  0  0  0  0  0  0  0
    1.1053   -0.7613   -0.6385 N   0  0  0  0  0  0  0  0  0  0  0  0
    1.0709    0.2441   -0.7251 H   0  0  0  0  0  0  0  0  0  0  0  0
    2.3157   -1.4478   -1.0841 C   0  0  0  0  0  0  0  0  0  0  0  0
    2.0485   -2.3064   -1.7025 H   0  0  0  0  0  0  0  0  0  0  0  0
    2.9415   -0.7677   -1.6644 H   0  0  0  0  0  0  0  0  0  0  0  0
    2.8768   -1.8029   -0.2173 H   0  0  0  0  0  0  0  0  0  0  0  0
  5  6  2  0  0  0  0
  5  7  1  0  0  0  0
  2  3  1  0  0  0  0
  2  4  1  0  0  0  0
  2  5  1  0  0  0  0
  1  2  1  0  0  0  0
 26 27  2  0  0  0  0
 26 28  1  0  0  0  0
 24 25  1  0  0  0  0
 22 23  1  0  0  0  0
 22 24  2  0  0  0  0
 20 21  1  0  0  0  0
 19 20  1  0  0  0  0
 19 22  1  0  0  0  0
 17 18  1  0  0  0  0
 17 19  2  0  0  0  0
 15 16  1  0  0  0  0
 15 17  1  0  0  0  0
 14 15  2  0  0  0  0
 14 24  1  0  0  0  0
 11 12  1  0  0  0  0
 11 13  1  0  0  0  0
 11 14  1  0  0  0  0
  9 10  1  0  0  0  0
  9 11  1  0  0  0  0
  9 26  1  0  0  0  0
  7  8  1  0  0  0  0
  7  9  1  0  0  0  0
 30 31  1  0  0  0  0
 30 32  1  0  0  0  0
 30 33  1  0  0  0  0
 28 29  1  0  0  0  0
 28 30  1  0  0  0  0
M  END
$$$$
default_name
  -OEChem-01062215323D

 33 33  0     1  0  0  0  0  0999 V2000
   -4.0702   -3.8485    1.4554 H   0  0  0  0  0  0  0  0  0  0  0  0
   -4.0012   -2.9605    0.8284 C   0  0  0  0  0  0  0  0  0  0  0  0
   -4.7652   -2.2435    1.1234 H   0  0  0  0  0  0  0  0  0  0  0  0
   -4.1352   -3.2385   -0.2156 H   0  0  0  0  0  0  0  0  0  0  0  0
   -2.6362   -2.3395    1.0094 C   0  0  0  0  0  0  0  0  0  0  0  0
   -1.8292   -2.8395    1.7814 O   0  0  0  0  0  0  0  0  0  0  0  0
   -2.3832   -1.2445    0.2964 N   0  0  0  0  0  0  0  0  0  0  0  0
   -3.1102   -0.8685   -0.2946 H   0  0  0  0  0  0  0  0  0  0  0  0
   -1.1292   -0.4875    0.3524 C   0  0  1  0  0  0  0  0  0  0  0  0
   -1.1905    0.3381   -0.3576 H   0  0  0  0  0  0  0  0  0  0  0  0
   -0.9499    0.1001    1.7629 C   0  0  0  0  0  0  0  0  0  0  0  0
   -1.0316   -0.7044    2.4949 H   0  0  0  0  0  0  0  0  0  0  0  0
    0.0549    0.5174    1.8467 H   0  0  0  0  0  0  0  0  0  0  0  0
   -1.9677    1.1662    2.1196 C   0  0  0  0  0  0  0  0  0  0  0  0
   -1.7968    2.4913    1.6711 C   0  0  0  0  0  0  0  0  0  0  0  0
   -0.9229    2.7581    1.0913 H   0  0  0  0  0  0  0  0  0  0  0  0
   -2.7655    3.4689    1.9708 C   0  0  0  0  0  0  0  0  0  0  0  0
   -2.6306    4.4829    1.6271 H   0  0  0  0  0  0  0  0  0  0  0  0
   -3.9109    3.1187    2.7185 C   0  0  0  0  0  0  0  0  0  0  0  0
   -4.8522    4.0535    3.0102 O   0  0  0  0  0  0  0  0  0  0  0  0
   -4.5862    4.9319    2.7354 H   0  0  0  0  0  0  0  0  0  0  0  0
   -4.0827    1.7911    3.1622 C   0  0  0  0  0  0  0  0  0  0  0  0
   -4.9605    1.5366    3.7369 H   0  0  0  0  0  0  0  0  0  0  0  0
   -3.1104    0.8173    2.8650 C   0  0  0  0  0  0  0  0  0  0  0  0
   -3.2386   -0.2004    3.2142 H   0  0  0  0  0  0  0  0  0  0  0  0
    0.0638   -1.3679   -0.0551 C   0  0  0  0  0  0  0  0  0  0  0  0
   -0.0565   -2.5925   -0.1005 O   0  0  0  0  0  0  0  0  0  0  0  0
    1.2142   -0.7483   -0.3480 N   0  0  0  0  0  0  0  0  0  0  0  0
    1.2473    0.2539   -0.2296 H   0  0  0  0  0  0  0  0  0  0  0  0
    2.4406   -1.4332   -0.7500 C   0  0  0  0  0  0  0  0  0  0  0  0
    2.2270   -2.1288   -1.5634 H   0  0  0  0  0  0  0  0  0  0  0  0
    3.1843   -0.7076   -1.0835 H   0  0  0  0  0  0  0  0  0  0  0  0
    2.8405   -1.9968    0.0954 H   0  0  0  0  0  0  0  0  0  0  0  0
  5  6  2  0  0  0  0
  5  7  1  0  0  0  0
  2  3  1  0  0  0  0
  2  4  1  0  0  0  0
  2  5  1  0  0  0  0
  1  2  1  0  0  0  0
 26 27  2  0  0  0  0
 26 28  1  0  0  0  0
 24 25  1  0  0  0  0
 22 23  1  0  0  0  0
 22 24  2  0  0  0  0
 20 21  1  0  0  0  0
 19 20  1  0  0  0  0
 19 22  1  0  0  0  0
 17 18  1  0  0  0  0
 17 19  2  0  0  0  0
 15 16  1  0  0  0  0
 15 17  1  0  0  0  0
 14 15  2  0  0  0  0
 14 24  1  0  0  0  0
 11 12  1  0  0  0  0
 11 13  1  0  0  0  0
 11 14  1  0  0  0  0
  9 10  1  0  0  0  0
  9 11  1  0  0  0  0
  9 26  1  0  0  0  0
  7  8  1  0  0  0  0
  7  9  1  0  0  0  0
 30 31  1  0  0  0  0
 30 32  1  0  0  0  0
 30 33  1  0  0  0  0
 28 29  1  0  0  0  0
 28 30  1  0  0  0  0
M  END
$$$$
default_name
  -OEChem-01062215323D

 33 33  0     1  0  0  0  0  0999 V2000
   -4.0702   -3.8485    1.4554 H   0  0  0  0  0  0  0  0  0  0  0  0
   -4.0012   -2.9605    0.8284 C   0  0  0  0  0  0  0  0  0  0  0  0
   -4.7652   -2.2435    1.1234 H   0  0  0  0  0  0  0  0  0  0  0  0
   -4.1352   -3.2385   -0.2156 H   0  0  0  0  0  0  0  0  0  0  0  0
   -2.6362   -2.3395    1.0094 C   0  0  0  0  0  0  0  0  0  0  0  0
   -1.8292   -2.8395    1.7814 O   0  0  0  0  0  0  0  0  0  0  0  0
   -2.3832   -1.2445    0.2964 N   0  0  0  0  0  0  0  0  0  0  0  0
   -3.1102   -0.8685   -0.2946 H   0  0  0  0  0  0  0  0  0  0  0  0
   -1.1292   -0.4875    0.3524 C   0  0  1  0  0  0  0  0  0  0  0  0
   -1.2814    0.4727   -0.1420 H   0  0  0  0  0  0  0  0  0  0  0  0
   -0.7584   -0.2215    1.8216 C   0  0  0  0  0  0  0  0  0  0  0  0
   -0.7449   -1.1695    2.3609 H   0  0  0  0  0  0  0  0  0  0  0  0
    0.2507    0.1920    1.8621 H   0  0  0  0  0  0  0  0  0  0  0  0
   -1.7133    0.7139    2.5378 C   0  0  0  0  0  0  0  0  0  0  0  0
   -1.5976    2.1091    2.3762 C   0  0  0  0  0  0  0  0  0  0  0  0
   -0.8084    2.5190    1.7596 H   0  0  0  0  0  0  0  0  0  0  0  0
   -2.5120    2.9720    3.0113 C   0  0  0  0  0  0  0  0  0  0  0  0
   -2.4194    4.0399    2.8866 H   0  0  0  0  0  0  0  0  0  0  0  0
   -3.5479    2.4369    3.8075 C   0  0  0  0  0  0  0  0  0  0  0  0
   -4.4366    3.2605    4.4217 O   0  0  0  0  0  0  0  0  0  0  0  0
   -4.2054    4.1842    4.3161 H   0  0  0  0  0  0  0  0  0  0  0  0
   -3.6652    1.0403    3.9641 C   0  0  0  0  0  0  0  0  0  0  0  0
   -4.4589    0.6434    4.5791 H   0  0  0  0  0  0  0  0  0  0  0  0
   -2.7469    0.1806    3.3319 C   0  0  0  0  0  0  0  0  0  0  0  0
   -2.8321   -0.8919    3.4602 H   0  0  0  0  0  0  0  0  0  0  0  0
   -0.0065   -1.2262   -0.3949 C   0  0  0  0  0  0  0  0  0  0  0  0
   -0.2304   -2.3097   -0.9355 O   0  0  0  0  0  0  0  0  0  0  0  0
    1.1995   -0.6451   -0.4238 N   0  0  0  0  0  0  0  0  0  0  0  0
    1.3156    0.2142    0.0936 H   0  0  0  0  0  0  0  0  0  0  0  0
    2.3720   -1.2113   -1.0865 C   0  0  0  0  0  0  0  0  0  0  0  0
    2.1194   -1.4924   -2.1104 H   0  0  0  0  0  0  0  0  0  0  0  0
    3.1831   -0.4815   -1.1038 H   0  0  0  0  0  0  0  0  0  0  0  0
    2.7015   -2.1039   -0.5507 H   0  0  0  0  0  0  0  0  0  0  0  0
  5  6  2  0  0  0  0
  5  7  1  0  0  0  0
  2  3  1  0  0  0  0
  2  4  1  0  0  0  0
  2  5  1  0  0  0  0
  1  2  1  0  0  0  0
 26 27  2  0  0  0  0
 26 28  1  0  0  0  0
 24 25  1  0  0  0  0
 22 23  1  0  0  0  0
 22 24  2  0  0  0  0
 20 21  1  0  0  0  0
 19 20  1  0  0  0  0
 19 22  1  0  0  0  0
 17 18  1  0  0  0  0
 17 19  2  0  0  0  0
 15 16  1  0  0  0  0
 15 17  1  0  0  0  0
 14 15  2  0  0  0  0
 14 24  1  0  0  0  0
 11 12  1  0  0  0  0
 11 13  1  0  0  0  0
 11 14  1  0  0  0  0
  9 10  1  0  0  0  0
  9 11  1  0  0  0  0
  9 26  1  0  0  0  0
  7  8  1  0  0  0  0
  7  9  1  0  0  0  0
 30 31  1  0  0  0  0
 30 32  1  0  0  0  0
 30 33  1  0  0  0  0
 28 29  1  0  0  0  0
 28 30  1  0  0  0  0
M  END
$$$$
default_name
  -OEChem-01062215323D

 33 33  0     1  0  0  0  0  0999 V2000
   -4.0702   -3.8485    1.4554 H   0  0  0  0  0  0  0  0  0  0  0  0
   -4.0012   -2.9605    0.8284 C   0  0  0  0  0  0  0  0  0  0  0  0
   -4.7652   -2.2435    1.1234 H   0  0  0  0  0  0  0  0  0  0  0  0
   -4.1352   -3.2385   -0.2156 H   0  0  0  0  0  0  0  0  0  0  0  0
   -2.6362   -2.3395    1.0094 C   0  0  0  0  0  0  0  0  0  0  0  0
   -1.8292   -2.8395    1.7814 O   0  0  0  0  0  0  0  0  0  0  0  0
   -2.3832   -1.2445    0.2964 N   0  0  0  0  0  0  0  0  0  0  0  0
   -3.1102   -0.8685   -0.2946 H   0  0  0  0  0  0  0  0  0  0  0  0
   -1.1292   -0.4875    0.3524 C   0  0  1  0  0  0  0  0  0  0  0  0
   -1.2814    0.4727   -0.1420 H   0  0  0  0  0  0  0  0  0  0  0  0
   -0.7584   -0.2215    1.8216 C   0  0  0  0  0  0  0  0  0  0  0  0
   -0.7449   -1.1695    2.3609 H   0  0  0  0  0  0  0  0  0  0  0  0
    0.2507    0.1920    1.8621 H   0  0  0  0  0  0  0  0  0  0  0  0
   -1.7133    0.7139    2.5378 C   0  0  0  0  0  0  0  0  0  0  0  0
   -1.5976    2.1091    2.3762 C   0  0  0  0  0  0  0  0  0  0  0  0
   -0.8084    2.5190    1.7596 H   0  0  0  0  0  0  0  0  0  0  0  0
   -2.5120    2.9720    3.0113 C   0  0  0  0  0  0  0  0  0  0  0  0
   -2.4194    4.0399    2.8866 H   0  0  0  0  0  0  0  0  0  0  0  0
   -3.5479    2.4369    3.8075 C   0  0  0  0  0  0  0  0  0  0  0  0
   -4.4366    3.2605    4.4217 O   0  0  0  0  0  0  0  0  0  0  0  0
   -4.2054    4.1842    4.3161 H   0  0  0  0  0  0  0  0  0  0  0  0
   -3.6652    1.0403    3.9641 C   0  0  0  0  0  0  0  0  0  0  0  0
   -4.4589    0.6434    4.5791 H   0  0  0  0  0  0  0  0  0  0  0  0
   -2.7469    0.1806    3.3319 C   0  0  0  0  0  0  0  0  0  0  0  0
   -2.8321   -0.8919    3.4602 H   0  0  0  0  0  0  0  0  0  0  0  0
   -0.0065   -1.2262   -0.3949 C   0  0  0  0  0  0  0  0  0  0  0  0
   -0.2764   -2.1526   -1.1599 O   0  0  0  0  0  0  0  0  0  0  0  0
    1.2504   -0.8212   -0.1732 N   0  0  0  0  0  0  0  0  0  0  0  0
    1.3919   -0.0941    0.5129 H   0  0  0  0  0  0  0  0  0  0  0  0
    2.4302   -1.4141   -0.7986 C   0  0  0  0  0  0  0  0  0  0  0  0
    2.2893   -1.4677   -1.8795 H   0  0  0  0  0  0  0  0  0  0  0  0
    3.3138   -0.8121   -0.5806 H   0  0  0  0  0  0  0  0  0  0  0  0
    2.5798   -2.4257   -0.4155 H   0  0  0  0  0  0  0  0  0  0  0  0
  5  6  2  0  0  0  0
  5  7  1  0  0  0  0
  2  3  1  0  0  0  0
  2  4  1  0  0  0  0
  2  5  1  0  0  0  0
  1  2  1  0  0  0  0
 26 27  2  0  0  0  0
 26 28  1  0  0  0  0
 24 25  1  0  0  0  0
 22 23  1  0  0  0  0
 22 24  2  0  0  0  0
 20 21  1  0  0  0  0
 19 20  1  0  0  0  0
 19 22  1  0  0  0  0
 17 18  1  0  0  0  0
 17 19  2  0  0  0  0
 15 16  1  0  0  0  0
 15 17  1  0  0  0  0
 14 15  2  0  0  0  0
 14 24  1  0  0  0  0
 11 12  1  0  0  0  0
 11 13  1  0  0  0  0
 11 14  1  0  0  0  0
  9 10  1  0  0  0  0
  9 11  1  0  0  0  0
  9 26  1  0  0  0  0
  7  8  1  0  0  0  0
  7  9  1  0  0  0  0
 30 31  1  0  0  0  0
 30 32  1  0  0  0  0
 30 33  1  0  0  0  0
 28 29  1  0  0  0  0
 28 30  1  0  0  0  0
M  END
$$$$
default_name
  -OEChem-01062215323D

 33 33  0     1  0  0  0  0  0999 V2000
   -4.0702   -3.8485    1.4554 H   0  0  0  0  0  0  0  0  0  0  0  0
   -4.0012   -2.9605    0.8284 C   0  0  0  0  0  0  0  0  0  0  0  0
   -4.7652   -2.2435    1.1234 H   0  0  0  0  0  0  0  0  0  0  0  0
   -4.1352   -3.2385   -0.2156 H   0  0  0  0  0  0  0  0  0  0  0  0
   -2.6362   -2.3395    1.0094 C   0  0  0  0  0  0  0  0  0  0  0  0
   -1.8292   -2.8395    1.7814 O   0  0  0  0  0  0  0  0  0  0  0  0
   -2.3832   -1.2445    0.2964 N   0  0  0  0  0  0  0  0  0  0  0  0
   -3.1102   -0.8685   -0.2946 H   0  0  0  0  0  0  0  0  0  0  0  0
   -1.1292   -0.4875    0.3524 C   0  0  1  0  0  0  0  0  0  0  0  0
   -1.2814    0.4727   -0.1420 H   0  0  0  0  0  0  0  0  0  0  0  0
   -0.7584   -0.2215    1.8216 C   0  0  0  0  0  0  0  0  0  0  0  0
   -0.7449   -1.1695    2.3609 H   0  0  0  0  0  0  0  0  0  0  0  0
    0.2507    0.1920    1.8621 H   0  0  0  0  0  0  0  0  0  0  0  0
   -1.7133    0.7139    2.5378 C   0  0  0  0  0  0  0  0  0  0  0  0
   -1.5976    2.1091    2.3762 C   0  0  0  0  0  0  0  0  0  0  0  0
   -0.8084    2.5190    1.7596 H   0  0  0  0  0  0  0  0  0  0  0  0
   -2.5120    2.9720    3.0113 C   0  0  0  0  0  0  0  0  0  0  0  0
   -2.4194    4.0399    2.8866 H   0  0  0  0  0  0  0  0  0  0  0  0
   -3.5479    2.4369    3.8075 C   0  0  0  0  0  0  0  0  0  0  0  0
   -4.4366    3.2605    4.4217 O   0  0  0  0  0  0  0  0  0  0  0  0
   -4.2054    4.1842    4.3161 H   0  0  0  0  0  0  0  0  0  0  0  0
   -3.6652    1.0403    3.9641 C   0  0  0  0  0  0  0  0  0  0  0  0
   -4.4589    0.6434    4.5791 H   0  0  0  0  0  0  0  0  0  0  0  0
   -2.7469    0.1806    3.3319 C   0  0  0  0  0  0  0  0  0  0  0  0
   -2.8321   -0.8919    3.4602 H   0  0  0  0  0  0  0  0  0  0  0  0
   -0.0065   -1.2262   -0.3949 C   0  0  0  0  0  0  0  0  0  0  0  0
   -0.2732   -1.9527   -1.3527 O   0  0  0  0  0  0  0  0  0  0  0  0
    1.2462   -1.0451    0.0419 N   0  0  0  0  0  0  0  0  0  0  0  0
    1.3746   -0.4807    0.8692 H   0  0  0  0  0  0  0  0  0  0  0  0
    2.4251   -1.6718   -0.5516 C   0  0  0  0  0  0  0  0  0  0  0  0
    2.4279   -1.5089   -1.6307 H   0  0  0  0  0  0  0  0  0  0  0  0
    3.3335   -1.2466   -0.1215 H   0  0  0  0  0  0  0  0  0  0  0  0
    2.4049   -2.7468   -0.3608 H   0  0  0  0  0  0  0  0  0  0  0  0
  5  6  2  0  0  0  0
  5  7  1  0  0  0  0
  2  3  1  0  0  0  0
  2  4  1  0  0  0  0
  2  5  1  0  0  0  0
  1  2  1  0  0  0  0
 26 27  2  0  0  0  0
 26 28  1  0  0  0  0
 24 25  1  0  0  0  0
 22 23  1  0  0  0  0
 22 24  2  0  0  0  0
 20 21  1  0  0  0  0
 19 20  1  0  0  0  0
 19 22  1  0  0  0  0
 17 18  1  0  0  0  0
 17 19  2  0  0  0  0
 15 16  1  0  0  0  0
 15 17  1  0  0  0  0
 14 15  2  0  0  0  0
 14 24  1  0  0  0  0
 11 12  1  0  0  0  0
 11 13  1  0  0  0  0
 11 14  1  0  0  0  0
  9 10  1  0  0  0  0
  9 11  1  0  0  0  0
  9 26  1  0  0  0  0
  7  8  1  0  0  0  0
  7  9  1  0  0  0  0
 30 31  1  0  0  0  0
 30 32  1  0  0  0  0
 30 33  1  0  0  0  0
 28 29  1  0  0  0  0
 28 30  1  0  0  0  0
M  END
$$$$
default_name
  -OEChem-01062215323D

 33 33  0     1  0  0  0  0  0999 V2000
   -4.0702   -3.8485    1.4554 H   0  0  0  0  0  0  0  0  0  0  0  0
   -4.0012   -2.9605    0.8284 C   0  0  0  0  0  0  0  0  0  0  0  0
   -4.7652   -2.2435    1.1234 H   0  0  0  0  0  0  0  0  0  0  0  0
   -4.1352   -3.2385   -0.2156 H   0  0  0  0  0  0  0  0  0  0  0  0
   -2.6362   -2.3395    1.0094 C   0  0  0  0  0  0  0  0  0  0  0  0
   -1.8292   -2.8395    1.7814 O   0  0  0  0  0  0  0  0  0  0  0  0
   -2.3832   -1.2445    0.2964 N   0  0  0  0  0  0  0  0  0  0  0  0
   -3.1102   -0.8685   -0.2946 H   0  0  0  0  0  0  0  0  0  0  0  0
   -1.1292   -0.4875    0.3524 C   0  0  1  0  0  0  0  0  0  0  0  0
   -1.2814    0.4727   -0.1420 H   0  0  0  0  0  0  0  0  0  0  0  0
   -0.7584   -0.2215    1.8216 C   0  0  0  0  0  0  0  0  0  0  0  0
   -0.7449   -1.1695    2.3609 H   0  0  0  0  0  0  0  0  0  0  0  0
    0.2507    0.1920    1.8621 H   0  0  0  0  0  0  0  0  0  0  0  0
   -1.7133    0.7139    2.5378 C   0  0  0  0  0  0  0  0  0  0  0  0
   -1.5976    2.1091    2.3762 C   0  0  0  0  0  0  0  0  0  0  0  0
   -0.8084    2.5190    1.7596 H   0  0  0  0  0  0  0  0  0  0  0  0
   -2.5120    2.9720    3.0113 C   0  0  0  0  0  0  0  0  0  0  0  0
   -2.4194    4.0399    2.8866 H   0  0  0  0  0  0  0  0  0  0  0  0
   -3.5479    2.4369    3.8075 C   0  0  0  0  0  0  0  0  0  0  0  0
   -4.4366    3.2605    4.4217 O   0  0  0  0  0  0  0  0  0  0  0  0
   -4.2054    4.1842    4.3161 H   0  0  0  0  0  0  0  0  0  0  0  0
   -3.6652    1.0403    3.9641 C   0  0  0  0  0  0  0  0  0  0  0  0
   -4.4589    0.6434    4.5791 H   0  0  0  0  0  0  0  0  0  0  0  0
   -2.7469    0.1806    3.3319 C   0  0  0  0  0  0  0  0  0  0  0  0
   -2.8321   -0.8919    3.4602 H   0  0  0  0  0  0  0  0  0  0  0  0
   -0.0065   -1.2262   -0.3949 C   0  0  0  0  0  0  0  0  0  0  0  0
   -0.2209   -1.7235   -1.5008 O   0  0  0  0  0  0  0  0  0  0  0  0
    1.1873   -1.3014    0.2068 N   0  0  0  0  0  0  0  0  0  0  0  0
    1.2650   -0.9193    1.1382 H   0  0  0  0  0  0  0  0  0  0  0  0
    2.3571   -1.9667   -0.3623 C   0  0  0  0  0  0  0  0  0  0  0  0
    2.5255   -1.6131   -1.3809 H   0  0  0  0  0  0  0  0  0  0  0  0
    3.2407   -1.7556    0.2423 H   0  0  0  0  0  0  0  0  0  0  0  0
    2.1888   -3.0452   -0.3904 H   0  0  0  0  0  0  0  0  0  0  0  0
  5  6  2  0  0  0  0
  5  7  1  0  0  0  0
  2  3  1  0  0  0  0
  2  4  1  0  0  0  0
  2  5  1  0  0  0  0
  1  2  1  0  0  0  0
 26 27  2  0  0  0  0
 26 28  1  0  0  0  0
 24 25  1  0  0  0  0
 22 23  1  0  0  0  0
 22 24  2  0  0  0  0
 20 21  1  0  0  0  0
 19 20  1  0  0  0  0
 19 22  1  0  0  0  0
 17 18  1  0  0  0  0
 17 19  2  0  0  0  0
 15 16  1  0  0  0  0
 15 17  1  0  0  0  0
 14 15  2  0  0  0  0
 14 24  1  0  0  0  0
 11 12  1  0  0  0  0
 11 13  1  0  0  0  0
 11 14  1  0  0  0  0
  9 10  1  0  0  0  0
  9 11  1  0  0  0  0
  9 26  1  0  0  0  0
  7  8  1  0  0  0  0
  7  9  1  0  0  0  0
 30 31  1  0  0  0  0
 30 32  1  0  0  0  0
 30 33  1  0  0  0  0
 28 29  1  0  0  0  0
 28 30  1  0  0  0  0
M  END
$$$$
default_name
  -OEChem-01062215323D

 33 33  0     1  0  0  0  0  0999 V2000
   -4.0702   -3.8485    1.4554 H   0  0  0  0  0  0  0  0  0  0  0  0
   -4.0012   -2.9605    0.8284 C   0  0  0  0  0  0  0  0  0  0  0  0
   -4.7652   -2.2435    1.1234 H   0  0  0  0  0  0  0  0  0  0  0  0
   -4.1352   -3.2385   -0.2156 H   0  0  0  0  0  0  0  0  0  0  0  0
   -2.6362   -2.3395    1.0094 C   0  0  0  0  0  0  0  0  0  0  0  0
   -1.8292   -2.8395    1.7814 O   0  0  0  0  0  0  0  0  0  0  0  0
   -2.3832   -1.2445    0.2964 N   0  0  0  0  0  0  0  0  0  0  0  0
   -3.1102   -0.8685   -0.2946 H   0  0  0  0  0  0  0  0  0  0  0  0
   -1.1292   -0.4875    0.3524 C   0  0  1  0  0  0  0  0  0  0  0  0
   -1.2814    0.4727   -0.1420 H   0  0  0  0  0  0  0  0  0  0  0  0
   -0.7584   -0.2215    1.8216 C   0  0  0  0  0  0  0  0  0  0  0  0
   -0.7449   -1.1695    2.3609 H   0  0  0  0  0  0  0  0  0  0  0  0
    0.2507    0.1920    1.8621 H   0  0  0  0  0  0  0  0  0  0  0  0
   -1.7133    0.7139    2.5378 C   0  0  0  0  0  0  0  0  0  0  0  0
   -1.5976    2.1091    2.3762 C   0  0  0  0  0  0  0  0  0  0  0  0
   -0.8084    2.5190    1.7596 H   0  0  0  0  0  0  0  0  0  0  0  0
   -2.5120    2.9720    3.0113 C   0  0  0  0  0  0  0  0  0  0  0  0
   -2.4194    4.0399    2.8866 H   0  0  0  0  0  0  0  0  0  0  0  0
   -3.5479    2.4369    3.8075 C   0  0  0  0  0  0  0  0  0  0  0  0
   -4.4366    3.2605    4.4217 O   0  0  0  0  0  0  0  0  0  0  0  0
   -4.2054    4.1842    4.3161 H   0  0  0  0  0  0  0  0  0  0  0  0
   -3.6652    1.0403    3.9641 C   0  0  0  0  0  0  0  0  0  0  0  0
   -4.4589    0.6434    4.5791 H   0  0  0  0  0  0  0  0  0  0  0  0
   -2.7469    0.1806    3.3319 C   0  0  0  0  0  0  0  0  0  0  0  0
   -2.8321   -0.8919    3.4602 H   0  0  0  0  0  0  0  0  0  0  0  0
   -0.0065   -1.2262   -0.3949 C   0  0  0  0  0  0  0  0  0  0  0  0
   -0.1233   -1.4808   -1.5940 O   0  0  0  0  0  0  0  0  0  0  0  0
    1.0777   -1.5728    0.3103 N   0  0  0  0  0  0  0  0  0  0  0  0
    1.0706   -1.3800    1.3014 H   0  0  0  0  0  0  0  0  0  0  0  0
    2.2307   -2.2787   -0.2436 C   0  0  0  0  0  0  0  0  0  0  0  0
    2.5757   -1.7732   -1.1472 H   0  0  0  0  0  0  0  0  0  0  0  0
    3.0418   -2.3043    0.4859 H   0  0  0  0  0  0  0  0  0  0  0  0
    1.9462   -3.3007   -0.5023 H   0  0  0  0  0  0  0  0  0  0  0  0
  5  6  2  0  0  0  0
  5  7  1  0  0  0  0
  2  3  1  0  0  0  0
  2  4  1  0  0  0  0
  2  5  1  0  0  0  0
  1  2  1  0  0  0  0
 26 27  2  0  0  0  0
 26 28  1  0  0  0  0
 24 25  1  0  0  0  0
 22 23  1  0  0  0  0
 22 24  2  0  0  0  0
 20 21  1  0  0  0  0
 19 20  1  0  0  0  0
 19 22  1  0  0  0  0
 17 18  1  0  0  0  0
 17 19  2  0  0  0  0
 15 16  1  0  0  0  0
 15 17  1  0  0  0  0
 14 15  2  0  0  0  0
 14 24  1  0  0  0  0
 11 12  1  0  0  0  0
 11 13  1  0  0  0  0
 11 14  1  0  0  0  0
  9 10  1  0  0  0  0
  9 11  1  0  0  0  0
  9 26  1  0  0  0  0
  7  8  1  0  0  0  0
  7  9  1  0  0  0  0
 30 31  1  0  0  0  0
 30 32  1  0  0  0  0
 30 33  1  0  0  0  0
 28 29  1  0  0  0  0
 28 30  1  0  0  0  0
M  END
$$$$
default_name
  -OEChem-01062215323D

 33 33  0     1  0  0  0  0  0999 V2000
   -4.0702   -3.8485    1.4554 H   0  0  0  0  0  0  0  0  0  0  0  0
   -4.0012   -2.9605    0.8284 C   0  0  0  0  0  0  0  0  0  0  0  0
   -4.7652   -2.2435    1.1234 H   0  0  0  0  0  0  0  0  0  0  0  0
   -4.1352   -3.2385   -0.2156 H   0  0  0  0  0  0  0  0  0  0  0  0
   -2.6362   -2.3395    1.0094 C   0  0  0  0  0  0  0  0  0  0  0  0
   -1.8292   -2.8395    1.7814 O   0  0  0  0  0  0  0  0  0  0  0  0
   -2.3832   -1.2445    0.2964 N   0  0  0  0  0  0  0  0  0  0  0  0
   -3.1102   -0.8685   -0.2946 H   0  0  0  0  0  0  0  0  0  0  0  0
   -1.1292   -0.4875    0.3524 C   0  0  1  0  0  0  0  0  0  0  0  0
   -1.2814    0.4727   -0.1420 H   0  0  0  0  0  0  0  0  0  0  0  0
   -0.7584   -0.2215    1.8216 C   0  0  0  0  0  0  0  0  0  0  0  0
   -0.7449   -1.1695    2.3609 H   0  0  0  0  0  0  0  0  0  0  0  0
    0.2507    0.1920    1.8621 H   0  0  0  0  0  0  0  0  0  0  0  0
   -1.7133    0.7139    2.5378 C   0  0  0  0  0  0  0  0  0  0  0  0
   -1.5976    2.1091    2.3762 C   0  0  0  0  0  0  0  0  0  0  0  0
   -0.8084    2.5190    1.7596 H   0  0  0  0  0  0  0  0  0  0  0  0
   -2.5120    2.9720    3.0113 C   0  0  0  0  0  0  0  0  0  0  0  0
   -2.4194    4.0399    2.8866 H   0  0  0  0  0  0  0  0  0  0  0  0
   -3.5479    2.4369    3.8075 C   0  0  0  0  0  0  0  0  0  0  0  0
   -4.4366    3.2605    4.4217 O   0  0  0  0  0  0  0  0  0  0  0  0
   -4.2054    4.1842    4.3161 H   0  0  0  0  0  0  0  0  0  0  0  0
   -3.6652    1.0403    3.9641 C   0  0  0  0  0  0  0  0  0  0  0  0
   -4.4589    0.6434    4.5791 H   0  0  0  0  0  0  0  0  0  0  0  0
   -2.7469    0.1806    3.3319 C   0  0  0  0  0  0  0  0  0  0  0  0
   -2.8321   -0.8919    3.4602 H   0  0  0  0  0  0  0  0  0  0  0  0
   -0.0065   -1.2262   -0.3949 C   0  0  0  0  0  0  0  0  0  0  0  0
    0.0132   -1.2410   -1.6260 O   0  0  0  0  0  0  0  0  0  0  0  0
    0.9248   -1.8407    0.3454 N   0  0  0  0  0  0  0  0  0  0  0  0
    0.8045   -1.8313    1.3479 H   0  0  0  0  0  0  0  0  0  0  0  0
    2.0547   -2.5867   -0.2037 C   0  0  0  0  0  0  0  0  0  0  0  0
    2.5750   -1.9784   -0.9455 H   0  0  0  0  0  0  0  0  0  0  0  0
    2.7504   -2.8554    0.5929 H   0  0  0  0  0  0  0  0  0  0  0  0
    1.6936   -3.4959   -0.6888 H   0  0  0  0  0  0  0  0  0  0  0  0
  5  6  2  0  0  0  0
  5  7  1  0  0  0  0
  2  3  1  0  0  0  0
  2  4  1  0  0  0  0
  2  5  1  0  0  0  0
  1  2  1  0  0  0  0
 26 27  2  0  0  0  0
 26 28  1  0  0  0  0
 24 25  1  0  0  0  0
 22 23  1  0  0  0  0
 22 24  2  0  0  0  0
 20 21  1  0  0  0  0
 19 20  1  0  0  0  0
 19 22  1  0  0  0  0
 17 18  1  0  0  0  0
 17 19  2  0  0  0  0
 15 16  1  0  0  0  0
 15 17  1  0  0  0  0
 14 15  2  0  0  0  0
 14 24  1  0  0  0  0
 11 12  1  0  0  0  0
 11 13  1  0  0  0  0
 11 14  1  0  0  0  0
  9 10  1  0  0  0  0
  9 11  1  0  0  0  0
  9 26  1  0  0  0  0
  7  8  1  0  0  0  0
  7  9  1  0  0  0  0
 30 31  1  0  0  0  0
 30 32  1  0  0  0  0
 30 33  1  0  0  0  0
 28 29  1  0  0  0  0
 28 30  1  0  0  0  0
M  END
$$$$
default_name
  -OEChem-01062215323D

 33 33  0     1  0  0  0  0  0999 V2000
   -4.0702   -3.8485    1.4554 H   0  0  0  0  0  0  0  0  0  0  0  0
   -4.0012   -2.9605    0.8284 C   0  0  0  0  0  0  0  0  0  0  0  0
   -4.7652   -2.2435    1.1234 H   0  0  0  0  0  0  0  0  0  0  0  0
   -4.1352   -3.2385   -0.2156 H   0  0  0  0  0  0  0  0  0  0  0  0
   -2.6362   -2.3395    1.0094 C   0  0  0  0  0  0  0  0  0  0  0  0
   -1.8292   -2.8395    1.7814 O   0  0  0  0  0  0  0  0  0  0  0  0
   -2.3832   -1.2445    0.2964 N   0  0  0  0  0  0  0  0  0  0  0  0
   -3.1102   -0.8685   -0.2946 H   0  0  0  0  0  0  0  0  0  0  0  0
   -1.1292   -0.4875    0.3524 C   0  0  1  0  0  0  0  0  0  0  0  0
   -1.2814    0.4727   -0.1420 H   0  0  0  0  0  0  0  0  0  0  0  0
   -0.7584   -0.2215    1.8216 C   0  0  0  0  0  0  0  0  0  0  0  0
   -0.7449   -1.1695    2.3609 H   0  0  0  0  0  0  0  0  0  0  0  0
    0.2507    0.1920    1.8621 H   0  0  0  0  0  0  0  0  0  0  0  0
   -1.7133    0.7139    2.5378 C   0  0  0  0  0  0  0  0  0  0  0  0
   -1.5976    2.1091    2.3762 C   0  0  0  0  0  0  0  0  0  0  0  0
   -0.8084    2.5190    1.7596 H   0  0  0  0  0  0  0  0  0  0  0  0
   -2.5120    2.9720    3.0113 C   0  0  0  0  0  0  0  0  0  0  0  0
   -2.4194    4.0399    2.8866 H   0  0  0  0  0  0  0  0  0  0  0  0
   -3.5479    2.4369    3.8075 C   0  0  0  0  0  0  0  0  0  0  0  0
   -4.4366    3.2605    4.4217 O   0  0  0  0  0  0  0  0  0  0  0  0
   -4.2054    4.1842    4.3161 H   0  0  0  0  0  0  0  0  0  0  0  0
   -3.6652    1.0403    3.9641 C   0  0  0  0  0  0  0  0  0  0  0  0
   -4.4589    0.6434    4.5791 H   0  0  0  0  0  0  0  0  0  0  0  0
   -2.7469    0.1806    3.3319 C   0  0  0  0  0  0  0  0  0  0  0  0
   -2.8321   -0.8919    3.4602 H   0  0  0  0  0  0  0  0  0  0  0  0
   -0.0065   -1.2262   -0.3949 C   0  0  0  0  0  0  0  0  0  0  0  0
    0.1792   -1.0205   -1.5947 O   0  0  0  0  0  0  0  0  0  0  0  0
    0.7390   -2.0869    0.3097 N   0  0  0  0  0  0  0  0  0  0  0  0
    0.4849   -2.2427    1.2744 H   0  0  0  0  0  0  0  0  0  0  0  0
    1.8409   -2.8695   -0.2452 C   0  0  0  0  0  0  0  0  0  0  0  0
    2.5234   -2.2146   -0.7895 H   0  0  0  0  0  0  0  0  0  0  0  0
    2.3864   -3.3712    0.5559 H   0  0  0  0  0  0  0  0  0  0  0  0
    1.4483   -3.6173   -0.9373 H   0  0  0  0  0  0  0  0  0  0  0  0
  5  6  2  0  0  0  0
  5  7  1  0  0  0  0
  2  3  1  0  0  0  0
  2  4  1  0  0  0  0
  2  5  1  0  0  0  0
  1  2  1  0  0  0  0
 26 27  2  0  0  0  0
 26 28  1  0  0  0  0
 24 25  1  0  0  0  0
 22 23  1  0  0  0  0
 22 24  2  0  0  0  0
 20 21  1  0  0  0  0
 19 20  1  0  0  0  0
 19 22  1  0  0  0  0
 17 18  1  0  0  0  0
 17 19  2  0  0  0  0
 15 16  1  0  0  0  0
 15 17  1  0  0  0  0
 14 15  2  0  0  0  0
 14 24  1  0  0  0  0
 11 12  1  0  0  0  0
 11 13  1  0  0  0  0
 11 14  1  0  0  0  0
  9 10  1  0  0  0  0
  9 11  1  0  0  0  0
  9 26  1  0  0  0  0
  7  8  1  0  0  0  0
  7  9  1  0  0  0  0
 30 31  1  0  0  0  0
 30 32  1  0  0  0  0
 30 33  1  0  0  0  0
 28 29  1  0  0  0  0
 28 30  1  0  0  0  0
M  END
$$$$
default_name
  -OEChem-01062215323D

 33 33  0     1  0  0  0  0  0999 V2000
   -4.0702   -3.8485    1.4554 H   0  0  0  0  0  0  0  0  0  0  0  0
   -4.0012   -2.9605    0.8284 C   0  0  0  0  0  0  0  0  0  0  0  0
   -4.7652   -2.2435    1.1234 H   0  0  0  0  0  0  0  0  0  0  0  0
   -4.1352   -3.2385   -0.2156 H   0  0  0  0  0  0  0  0  0  0  0  0
   -2.6362   -2.3395    1.0094 C   0  0  0  0  0  0  0  0  0  0  0  0
   -1.8292   -2.8395    1.7814 O   0  0  0  0  0  0  0  0  0  0  0  0
   -2.3832   -1.2445    0.2964 N   0  0  0  0  0  0  0  0  0  0  0  0
   -3.1102   -0.8685   -0.2946 H   0  0  0  0  0  0  0  0  0  0  0  0
   -1.1292   -0.4875    0.3524 C   0  0  1  0  0  0  0  0  0  0  0  0
   -1.2814    0.4727   -0.1420 H   0  0  0  0  0  0  0  0  0  0  0  0
   -0.7584   -0.2215    1.8216 C   0  0  0  0  0  0  0  0  0  0  0  0
   -0.7449   -1.1695    2.3609 H   0  0  0  0  0  0  0  0  0  0  0  0
    0.2507    0.1920    1.8621 H   0  0  0  0  0  0  0  0  0  0  0  0
   -1.7133    0.7139    2.5378 C   0  0  0  0  0  0  0  0  0  0  0  0
   -1.5976    2.1091    2.3762 C   0  0  0  0  0  0  0  0  0  0  0  0
   -0.8084    2.5190    1.7596 H   0  0  0  0  0  0  0  0  0  0  0  0
   -2.5120    2.9720    3.0113 C   0  0  0  0  0  0  0  0  0  0  0  0
   -2.4194    4.0399    2.8866 H   0  0  0  0  0  0  0  0  0  0  0  0
   -3.5479    2.4369    3.8075 C   0  0  0  0  0  0  0  0  0  0  0  0
   -4.4366    3.2605    4.4217 O   0  0  0  0  0  0  0  0  0  0  0  0
   -4.2054    4.1842    4.3161 H   0  0  0  0  0  0  0  0  0  0  0  0
   -3.6652    1.0403    3.9641 C   0  0  0  0  0  0  0  0  0  0  0  0
   -4.4589    0.6434    4.5791 H   0  0  0  0  0  0  0  0  0  0  0  0
   -2.7469    0.1806    3.3319 C   0  0  0  0  0  0  0  0  0  0  0  0
   -2.8321   -0.8919    3.4602 H   0  0  0  0  0  0  0  0  0  0  0  0
   -0.0065   -1.2262   -0.3949 C   0  0  0  0  0  0  0  0  0  0  0  0
    0.3633   -0.8343   -1.5021 O   0  0  0  0  0  0  0  0  0  0  0  0
    0.5330   -2.2945    0.2056 N   0  0  0  0  0  0  0  0  0  0  0  0
    0.1337   -2.5859    1.0860 H   0  0  0  0  0  0  0  0  0  0  0  0
    1.6040   -3.1080   -0.3653 C   0  0  0  0  0  0  0  0  0  0  0  0
    2.4245   -2.4657   -0.6899 H   0  0  0  0  0  0  0  0  0  0  0  0
    1.9744   -3.8166    0.3773 H   0  0  0  0  0  0  0  0  0  0  0  0
    1.2270   -3.6569   -1.2307 H   0  0  0  0  0  0  0  0  0  0  0  0
  5  6  2  0  0  0  0
  5  7  1  0  0  0  0
  2  3  1  0  0  0  0
  2  4  1  0  0  0  0
  2  5  1  0  0  0  0
  1  2  1  0  0  0  0
 26 27  2  0  0  0  0
 26 28  1  0  0  0  0
 24 25  1  0  0  0  0
 22 23  1  0  0  0  0
 22 24  2  0  0  0  0
 20 21  1  0  0  0  0
 19 20  1  0  0  0  0
 19 22  1  0  0  0  0
 17 18  1  0  0  0  0
 17 19  2  0  0  0  0
 15 16  1  0  0  0  0
 15 17  1  0  0  0  0
 14 15  2  0  0  0  0
 14 24  1  0  0  0  0
 11 12  1  0  0  0  0
 11 13  1  0  0  0  0
 11 14  1  0  0  0  0
  9 10  1  0  0  0  0
  9 11  1  0  0  0  0
  9 26  1  0  0  0  0
  7  8  1  0  0  0  0
  7  9  1  0  0  0  0
 30 31  1  0  0  0  0
 30 32  1  0  0  0  0
 30 33  1  0  0  0  0
 28 29  1  0  0  0  0
 28 30  1  0  0  0  0
M  END
$$$$
default_name
  -OEChem-01062215323D

 33 33  0     1  0  0  0  0  0999 V2000
   -4.0702   -3.8485    1.4554 H   0  0  0  0  0  0  0  0  0  0  0  0
   -4.0012   -2.9605    0.8284 C   0  0  0  0  0  0  0  0  0  0  0  0
   -4.7652   -2.2435    1.1234 H   0  0  0  0  0  0  0  0  0  0  0  0
   -4.1352   -3.2385   -0.2156 H   0  0  0  0  0  0  0  0  0  0  0  0
   -2.6362   -2.3395    1.0094 C   0  0  0  0  0  0  0  0  0  0  0  0
   -1.8292   -2.8395    1.7814 O   0  0  0  0  0  0  0  0  0  0  0  0
   -2.3832   -1.2445    0.2964 N   0  0  0  0  0  0  0  0  0  0  0  0
   -3.1102   -0.8685   -0.2946 H   0  0  0  0  0  0  0  0  0  0  0  0
   -1.1292   -0.4875    0.3524 C   0  0  1  0  0  0  0  0  0  0  0  0
   -1.2814    0.4727   -0.1420 H   0  0  0  0  0  0  0  0  0  0  0  0
   -0.7584   -0.2215    1.8216 C   0  0  0  0  0  0  0  0  0  0  0  0
   -0.7449   -1.1695    2.3609 H   0  0  0  0  0  0  0  0  0  0  0  0
    0.2507    0.1920    1.8621 H   0  0  0  0  0  0  0  0  0  0  0  0
   -1.7133    0.7139    2.5378 C   0  0  0  0  0  0  0  0  0  0  0  0
   -1.5976    2.1091    2.3762 C   0  0  0  0  0  0  0  0  0  0  0  0
   -0.8084    2.5190    1.7596 H   0  0  0  0  0  0  0  0  0  0  0  0
   -2.5120    2.9720    3.0113 C   0  0  0  0  0  0  0  0  0  0  0  0
   -2.4194    4.0399    2.8866 H   0  0  0  0  0  0  0  0  0  0  0  0
   -3.5479    2.4369    3.8075 C   0  0  0  0  0  0  0  0  0  0  0  0
   -4.4366    3.2605    4.4217 O   0  0  0  0  0  0  0  0  0  0  0  0
   -4.2054    4.1842    4.3161 H   0  0  0  0  0  0  0  0  0  0  0  0
   -3.6652    1.0403    3.9641 C   0  0  0  0  0  0  0  0  0  0  0  0
   -4.4589    0.6434    4.5791 H   0  0  0  0  0  0  0  0  0  0  0  0
   -2.7469    0.1806    3.3319 C   0  0  0  0  0  0  0  0  0  0  0  0
   -2.8321   -0.8919    3.4602 H   0  0  0  0  0  0  0  0  0  0  0  0
   -0.0065   -1.2262   -0.3949 C   0  0  0  0  0  0  0  0  0  0  0  0
    0.5531   -0.6951   -1.3546 O   0  0  0  0  0  0  0  0  0  0  0  0
    0.3209   -2.4496    0.0401 N   0  0  0  0  0  0  0  0  0  0  0  0
   -0.2254   -2.8376    0.7955 H   0  0  0  0  0  0  0  0  0  0  0  0
    1.3602   -3.2859   -0.5558 C   0  0  0  0  0  0  0  0  0  0  0  0
    2.2850   -2.7147   -0.6534 H   0  0  0  0  0  0  0  0  0  0  0  0
    1.5427   -4.1614    0.0695 H   0  0  0  0  0  0  0  0  0  0  0  0
    1.0447   -3.6118   -1.5491 H   0  0  0  0  0  0  0  0  0  0  0  0
  5  6  2  0  0  0  0
  5  7  1  0  0  0  0
  2  3  1  0  0  0  0
  2  4  1  0  0  0  0
  2  5  1  0  0  0  0
  1  2  1  0  0  0  0
 26 27  2  0  0  0  0
 26 28  1  0  0  0  0
 24 25  1  0  0  0  0
 22 23  1  0  0  0  0
 22 24  2  0  0  0  0
 20 21  1  0  0  0  0
 19 20  1  0  0  0  0
 19 22  1  0  0  0  0
 17 18  1  0  0  0  0
 17 19  2  0  0  0  0
 15 16  1  0  0  0  0
 15 17  1  0  0  0  0
 14 15  2  0  0  0  0
 14 24  1  0  0  0  0
 11 12  1  0  0  0  0
 11 13  1  0  0  0  0
 11 14  1  0  0  0  0
  9 10  1  0  0  0  0
  9 11  1  0  0  0  0
  9 26  1  0  0  0  0
  7  8  1  0  0  0  0
  7  9  1  0  0  0  0
 30 31  1  0  0  0  0
 30 32  1  0  0  0  0
 30 33  1  0  0  0  0
 28 29  1  0  0  0  0
 28 30  1  0  0  0  0
M  END
$$$$
default_name
  -OEChem-01062215323D

 33 33  0     1  0  0  0  0  0999 V2000
   -4.0702   -3.8485    1.4554 H   0  0  0  0  0  0  0  0  0  0  0  0
   -4.0012   -2.9605    0.8284 C   0  0  0  0  0  0  0  0  0  0  0  0
   -4.7652   -2.2435    1.1234 H   0  0  0  0  0  0  0  0  0  0  0  0
   -4.1352   -3.2385   -0.2156 H   0  0  0  0  0  0  0  0  0  0  0  0
   -2.6362   -2.3395    1.0094 C   0  0  0  0  0  0  0  0  0  0  0  0
   -1.8292   -2.8395    1.7814 O   0  0  0  0  0  0  0  0  0  0  0  0
   -2.3832   -1.2445    0.2964 N   0  0  0  0  0  0  0  0  0  0  0  0
   -3.1102   -0.8685   -0.2946 H   0  0  0  0  0  0  0  0  0  0  0  0
   -1.1292   -0.4875    0.3524 C   0  0  1  0  0  0  0  0  0  0  0  0
   -1.2814    0.4727   -0.1420 H   0  0  0  0  0  0  0  0  0  0  0  0
   -0.7584   -0.2215    1.8216 C   0  0  0  0  0  0  0  0  0  0  0  0
   -0.7449   -1.1695    2.3609 H   0  0  0  0  0  0  0  0  0  0  0  0
    0.2507    0.1920    1.8621 H   0  0  0  0  0  0  0  0  0  0  0  0
   -1.7133    0.7139    2.5378 C   0  0  0  0  0  0  0  0  0  0  0  0
   -1.5976    2.1091    2.3762 C   0  0  0  0  0  0  0  0  0  0  0  0
   -0.8084    2.5190    1.7596 H   0  0  0  0  0  0  0  0  0  0  0  0
   -2.5120    2.9720    3.0113 C   0  0  0  0  0  0  0  0  0  0  0  0
   -2.4194    4.0399    2.8866 H   0  0  0  0  0  0  0  0  0  0  0  0
   -3.5479    2.4369    3.8075 C   0  0  0  0  0  0  0  0  0  0  0  0
   -4.4366    3.2605    4.4217 O   0  0  0  0  0  0  0  0  0  0  0  0
   -4.2054    4.1842    4.3161 H   0  0  0  0  0  0  0  0  0  0  0  0
   -3.6652    1.0403    3.9641 C   0  0  0  0  0  0  0  0  0  0  0  0
   -4.4589    0.6434    4.5791 H   0  0  0  0  0  0  0  0  0  0  0  0
   -2.7469    0.1806    3.3319 C   0  0  0  0  0  0  0  0  0  0  0  0
   -2.8321   -0.8919    3.4602 H   0  0  0  0  0  0  0  0  0  0  0  0
   -0.0065   -1.2262   -0.3949 C   0  0  0  0  0  0  0  0  0  0  0  0
    0.7355   -0.6124   -1.1622 O   0  0  0  0  0  0  0  0  0  0  0  0
    0.1171   -2.5413   -0.1753 N   0  0  0  0  0  0  0  0  0  0  0  0
   -0.5677   -2.9807    0.4226 H   0  0  0  0  0  0  0  0  0  0  0  0
    1.1259   -3.3911   -0.8038 C   0  0  0  0  0  0  0  0  0  0  0  0
    2.1143   -2.9445   -0.6825 H   0  0  0  0  0  0  0  0  0  0  0  0
    1.1205   -4.3819   -0.3467 H   0  0  0  0  0  0  0  0  0  0  0  0
    0.9139   -3.4851   -1.8708 H   0  0  0  0  0  0  0  0  0  0  0  0
  5  6  2  0  0  0  0
  5  7  1  0  0  0  0
  2  3  1  0  0  0  0
  2  4  1  0  0  0  0
  2  5  1  0  0  0  0
  1  2  1  0  0  0  0
 26 27  2  0  0  0  0
 26 28  1  0  0  0  0
 24 25  1  0  0  0  0
 22 23  1  0  0  0  0
 22 24  2  0  0  0  0
 20 21  1  0  0  0  0
 19 20  1  0  0  0  0
 19 22  1  0  0  0  0
 17 18  1  0  0  0  0
 17 19  2  0  0  0  0
 15 16  1  0  0  0  0
 15 17  1  0  0  0  0
 14 15  2  0  0  0  0
 14 24  1  0  0  0  0
 11 12  1  0  0  0  0
 11 13  1  0  0  0  0
 11 14  1  0  0  0  0
  9 10  1  0  0  0  0
  9 11  1  0  0  0  0
  9 26  1  0  0  0  0
  7  8  1  0  0  0  0
  7  9  1  0  0  0  0
 30 31  1  0  0  0  0
 30 32  1  0  0  0  0
 30 33  1  0  0  0  0
 28 29  1  0  0  0  0
 28 30  1  0  0  0  0
M  END
$$$$
default_name
  -OEChem-01062215323D

 33 33  0     1  0  0  0  0  0999 V2000
   -4.0702   -3.8485    1.4554 H   0  0  0  0  0  0  0  0  0  0  0  0
   -4.0012   -2.9605    0.8284 C   0  0  0  0  0  0  0  0  0  0  0  0
   -4.7652   -2.2435    1.1234 H   0  0  0  0  0  0  0  0  0  0  0  0
   -4.1352   -3.2385   -0.2156 H   0  0  0  0  0  0  0  0  0  0  0  0
   -2.6362   -2.3395    1.0094 C   0  0  0  0  0  0  0  0  0  0  0  0
   -1.8292   -2.8395    1.7814 O   0  0  0  0  0  0  0  0  0  0  0  0
   -2.3832   -1.2445    0.2964 N   0  0  0  0  0  0  0  0  0  0  0  0
   -3.1102   -0.8685   -0.2946 H   0  0  0  0  0  0  0  0  0  0  0  0
   -1.1292   -0.4875    0.3524 C   0  0  1  0  0  0  0  0  0  0  0  0
   -1.2814    0.4727   -0.1420 H   0  0  0  0  0  0  0  0  0  0  0  0
   -0.7584   -0.2215    1.8216 C   0  0  0  0  0  0  0  0  0  0  0  0
   -0.7449   -1.1695    2.3609 H   0  0  0  0  0  0  0  0  0  0  0  0
    0.2507    0.1920    1.8621 H   0  0  0  0  0  0  0  0  0  0  0  0
   -1.7133    0.7139    2.5378 C   0  0  0  0  0  0  0  0  0  0  0  0
   -1.5976    2.1091    2.3762 C   0  0  0  0  0  0  0  0  0  0  0  0
   -0.8084    2.5190    1.7596 H   0  0  0  0  0  0  0  0  0  0  0  0
   -2.5120    2.9720    3.0113 C   0  0  0  0  0  0  0  0  0  0  0  0
   -2.4194    4.0399    2.8866 H   0  0  0  0  0  0  0  0  0  0  0  0
   -3.5479    2.4369    3.8075 C   0  0  0  0  0  0  0  0  0  0  0  0
   -4.4366    3.2605    4.4217 O   0  0  0  0  0  0  0  0  0  0  0  0
   -4.2054    4.1842    4.3161 H   0  0  0  0  0  0  0  0  0  0  0  0
   -3.6652    1.0403    3.9641 C   0  0  0  0  0  0  0  0  0  0  0  0
   -4.4589    0.6434    4.5791 H   0  0  0  0  0  0  0  0  0  0  0  0
   -2.7469    0.1806    3.3319 C   0  0  0  0  0  0  0  0  0  0  0  0
   -2.8321   -0.8919    3.4602 H   0  0  0  0  0  0  0  0  0  0  0  0
   -0.0065   -1.2262   -0.3949 C   0  0  0  0  0  0  0  0  0  0  0  0
    0.8983   -0.5918   -0.9381 O   0  0  0  0  0  0  0  0  0  0  0  0
   -0.0646   -2.5636   -0.4261 N   0  0  0  0  0  0  0  0  0  0  0  0
   -0.8700   -3.0054   -0.0071 H   0  0  0  0  0  0  0  0  0  0  0  0
    0.9173   -3.4163   -1.0923 C   0  0  0  0  0  0  0  0  0  0  0  0
    1.9242   -3.1395   -0.7753 H   0  0  0  0  0  0  0  0  0  0  0  0
    0.7368   -4.4631   -0.8428 H   0  0  0  0  0  0  0  0  0  0  0  0
    0.8434   -3.2855   -2.1739 H   0  0  0  0  0  0  0  0  0  0  0  0
  5  6  2  0  0  0  0
  5  7  1  0  0  0  0
  2  3  1  0  0  0  0
  2  4  1  0  0  0  0
  2  5  1  0  0  0  0
  1  2  1  0  0  0  0
 26 27  2  0  0  0  0
 26 28  1  0  0  0  0
 24 25  1  0  0  0  0
 22 23  1  0  0  0  0
 22 24  2  0  0  0  0
 20 21  1  0  0  0  0
 19 20  1  0  0  0  0
 19 22  1  0  0  0  0
 17 18  1  0  0  0  0
 17 19  2  0  0  0  0
 15 16  1  0  0  0  0
 15 17  1  0  0  0  0
 14 15  2  0  0  0  0
 14 24  1  0  0  0  0
 11 12  1  0  0  0  0
 11 13  1  0  0  0  0
 11 14  1  0  0  0  0
  9 10  1  0  0  0  0
  9 11  1  0  0  0  0
  9 26  1  0  0  0  0
  7  8  1  0  0  0  0
  7  9  1  0  0  0  0
 30 31  1  0  0  0  0
 30 32  1  0  0  0  0
 30 33  1  0  0  0  0
 28 29  1  0  0  0  0
 28 30  1  0  0  0  0
M  END
$$$$
default_name
  -OEChem-01062215323D

 33 33  0     1  0  0  0  0  0999 V2000
   -4.0702   -3.8485    1.4554 H   0  0  0  0  0  0  0  0  0  0  0  0
   -4.0012   -2.9605    0.8284 C   0  0  0  0  0  0  0  0  0  0  0  0
   -4.7652   -2.2435    1.1234 H   0  0  0  0  0  0  0  0  0  0  0  0
   -4.1352   -3.2385   -0.2156 H   0  0  0  0  0  0  0  0  0  0  0  0
   -2.6362   -2.3395    1.0094 C   0  0  0  0  0  0  0  0  0  0  0  0
   -1.8292   -2.8395    1.7814 O   0  0  0  0  0  0  0  0  0  0  0  0
   -2.3832   -1.2445    0.2964 N   0  0  0  0  0  0  0  0  0  0  0  0
   -3.1102   -0.8685   -0.2946 H   0  0  0  0  0  0  0  0  0  0  0  0
   -1.1292   -0.4875    0.3524 C   0  0  1  0  0  0  0  0  0  0  0  0
   -1.2814    0.4727   -0.1420 H   0  0  0  0  0  0  0  0  0  0  0  0
   -0.7584   -0.2215    1.8216 C   0  0  0  0  0  0  0  0  0  0  0  0
   -0.7449   -1.1695    2.3609 H   0  0  0  0  0  0  0  0  0  0  0  0
    0.2507    0.1920    1.8621 H   0  0  0  0  0  0  0  0  0  0  0  0
   -1.7133    0.7139    2.5378 C   0  0  0  0  0  0  0  0  0  0  0  0
   -1.5976    2.1091    2.3762 C   0  0  0  0  0  0  0  0  0  0  0  0
   -0.8084    2.5190    1.7596 H   0  0  0  0  0  0  0  0  0  0  0  0
   -2.5120    2.9720    3.0113 C   0  0  0  0  0  0  0  0  0  0  0  0
   -2.4194    4.0399    2.8866 H   0  0  0  0  0  0  0  0  0  0  0  0
   -3.5479    2.4369    3.8075 C   0  0  0  0  0  0  0  0  0  0  0  0
   -4.4366    3.2605    4.4217 O   0  0  0  0  0  0  0  0  0  0  0  0
   -4.2054    4.1842    4.3161 H   0  0  0  0  0  0  0  0  0  0  0  0
   -3.6652    1.0403    3.9641 C   0  0  0  0  0  0  0  0  0  0  0  0
   -4.4589    0.6434    4.5791 H   0  0  0  0  0  0  0  0  0  0  0  0
   -2.7469    0.1806    3.3319 C   0  0  0  0  0  0  0  0  0  0  0  0
   -2.8321   -0.8919    3.4602 H   0  0  0  0  0  0  0  0  0  0  0  0
   -0.0065   -1.2262   -0.3949 C   0  0  0  0  0  0  0  0  0  0  0  0
    1.0302   -0.6348   -0.6975 O   0  0  0  0  0  0  0  0  0  0  0  0
   -0.2116   -2.5150   -0.6952 N   0  0  0  0  0  0  0  0  0  0  0  0
   -1.1117   -2.9100   -0.4645 H   0  0  0  0  0  0  0  0  0  0  0  0
    0.7484   -3.3599   -1.4017 C   0  0  0  0  0  0  0  0  0  0  0  0
    1.7276   -3.2864   -0.9255 H   0  0  0  0  0  0  0  0  0  0  0  0
    0.4176   -4.3996   -1.3851 H   0  0  0  0  0  0  0  0  0  0  0  0
    0.8382   -3.0266   -2.4377 H   0  0  0  0  0  0  0  0  0  0  0  0
  5  6  2  0  0  0  0
  5  7  1  0  0  0  0
  2  3  1  0  0  0  0
  2  4  1  0  0  0  0
  2  5  1  0  0  0  0
  1  2  1  0  0  0  0
 26 27  2  0  0  0  0
 26 28  1  0  0  0  0
 24 25  1  0  0  0  0
 22 23  1  0  0  0  0
 22 24  2  0  0  0  0
 20 21  1  0  0  0  0
 19 20  1  0  0  0  0
 19 22  1  0  0  0  0
 17 18  1  0  0  0  0
 17 19  2  0  0  0  0
 15 16  1  0  0  0  0
 15 17  1  0  0  0  0
 14 15  2  0  0  0  0
 14 24  1  0  0  0  0
 11 12  1  0  0  0  0
 11 13  1  0  0  0  0
 11 14  1  0  0  0  0
  9 10  1  0  0  0  0
  9 11  1  0  0  0  0
  9 26  1  0  0  0  0
  7  8  1  0  0  0  0
  7  9  1  0  0  0  0
 30 31  1  0  0  0  0
 30 32  1  0  0  0  0
 30 33  1  0  0  0  0
 28 29  1  0  0  0  0
 28 30  1  0  0  0  0
M  END
$$$$
default_name
  -OEChem-01062215323D

 33 33  0     1  0  0  0  0  0999 V2000
   -4.0702   -3.8485    1.4554 H   0  0  0  0  0  0  0  0  0  0  0  0
   -4.0012   -2.9605    0.8284 C   0  0  0  0  0  0  0  0  0  0  0  0
   -4.7652   -2.2435    1.1234 H   0  0  0  0  0  0  0  0  0  0  0  0
   -4.1352   -3.2385   -0.2156 H   0  0  0  0  0  0  0  0  0  0  0  0
   -2.6362   -2.3395    1.0094 C   0  0  0  0  0  0  0  0  0  0  0  0
   -1.8292   -2.8395    1.7814 O   0  0  0  0  0  0  0  0  0  0  0  0
   -2.3832   -1.2445    0.2964 N   0  0  0  0  0  0  0  0  0  0  0  0
   -3.1102   -0.8685   -0.2946 H   0  0  0  0  0  0  0  0  0  0  0  0
   -1.1292   -0.4875    0.3524 C   0  0  1  0  0  0  0  0  0  0  0  0
   -1.2814    0.4727   -0.1420 H   0  0  0  0  0  0  0  0  0  0  0  0
   -0.7584   -0.2215    1.8216 C   0  0  0  0  0  0  0  0  0  0  0  0
   -0.7449   -1.1695    2.3609 H   0  0  0  0  0  0  0  0  0  0  0  0
    0.2507    0.1920    1.8621 H   0  0  0  0  0  0  0  0  0  0  0  0
   -1.7133    0.7139    2.5378 C   0  0  0  0  0  0  0  0  0  0  0  0
   -1.5976    2.1091    2.3762 C   0  0  0  0  0  0  0  0  0  0  0  0
   -0.8084    2.5190    1.7596 H   0  0  0  0  0  0  0  0  0  0  0  0
   -2.5120    2.9720    3.0113 C   0  0  0  0  0  0  0  0  0  0  0  0
   -2.4194    4.0399    2.8866 H   0  0  0  0  0  0  0  0  0  0  0  0
   -3.5479    2.4369    3.8075 C   0  0  0  0  0  0  0  0  0  0  0  0
   -4.4366    3.2605    4.4217 O   0  0  0  0  0  0  0  0  0  0  0  0
   -4.2054    4.1842    4.3161 H   0  0  0  0  0  0  0  0  0  0  0  0
   -3.6652    1.0403    3.9641 C   0  0  0  0  0  0  0  0  0  0  0  0
   -4.4589    0.6434    4.5791 H   0  0  0  0  0  0  0  0  0  0  0  0
   -2.7469    0.1806    3.3319 C   0  0  0  0  0  0  0  0  0  0  0  0
   -2.8321   -0.8919    3.4602 H   0  0  0  0  0  0  0  0  0  0  0  0
   -0.0065   -1.2262   -0.3949 C   0  0  0  0  0  0  0  0  0  0  0  0
    1.1223   -0.7383   -0.4568 O   0  0  0  0  0  0  0  0  0  0  0  0
   -0.3141   -2.3986   -0.9642 N   0  0  0  0  0  0  0  0  0  0  0  0
   -1.2763   -2.7011   -0.9183 H   0  0  0  0  0  0  0  0  0  0  0  0
    0.6309   -3.2257   -1.7109 C   0  0  0  0  0  0  0  0  0  0  0  0
    1.5379   -3.3753   -1.1227 H   0  0  0  0  0  0  0  0  0  0  0  0
    0.1847   -4.1956   -1.9366 H   0  0  0  0  0  0  0  0  0  0  0  0
    0.8985   -2.7260   -2.6443 H   0  0  0  0  0  0  0  0  0  0  0  0
  5  6  2  0  0  0  0
  5  7  1  0  0  0  0
  2  3  1  0  0  0  0
  2  4  1  0  0  0  0
  2  5  1  0  0  0  0
  1  2  1  0  0  0  0
 26 27  2  0  0  0  0
 26 28  1  0  0  0  0
 24 25  1  0  0  0  0
 22 23  1  0  0  0  0
 22 24  2  0  0  0  0
 20 21  1  0  0  0  0
 19 20  1  0  0  0  0
 19 22  1  0  0  0  0
 17 18  1  0  0  0  0
 17 19  2  0  0  0  0
 15 16  1  0  0  0  0
 15 17  1  0  0  0  0
 14 15  2  0  0  0  0
 14 24  1  0  0  0  0
 11 12  1  0  0  0  0
 11 13  1  0  0  0  0
 11 14  1  0  0  0  0
  9 10  1  0  0  0  0
  9 11  1  0  0  0  0
  9 26  1  0  0  0  0
  7  8  1  0  0  0  0
  7  9  1  0  0  0  0
 30 31  1  0  0  0  0
 30 32  1  0  0  0  0
 30 33  1  0  0  0  0
 28 29  1  0  0  0  0
 28 30  1  0  0  0  0
M  END
$$$$
default_name
  -OEChem-01062215323D

 33 33  0     1  0  0  0  0  0999 V2000
   -4.0702   -3.8485    1.4554 H   0  0  0  0  0  0  0  0  0  0  0  0
   -4.0012   -2.9605    0.8284 C   0  0  0  0  0  0  0  0  0  0  0  0
   -4.7652   -2.2435    1.1234 H   0  0  0  0  0  0  0  0  0  0  0  0
   -4.1352   -3.2385   -0.2156 H   0  0  0  0  0  0  0  0  0  0  0  0
   -2.6362   -2.3395    1.0094 C   0  0  0  0  0  0  0  0  0  0  0  0
   -1.8292   -2.8395    1.7814 O   0  0  0  0  0  0  0  0  0  0  0  0
   -2.3832   -1.2445    0.2964 N   0  0  0  0  0  0  0  0  0  0  0  0
   -3.1102   -0.8685   -0.2946 H   0  0  0  0  0  0  0  0  0  0  0  0
   -1.1292   -0.4875    0.3524 C   0  0  1  0  0  0  0  0  0  0  0  0
   -1.2814    0.4727   -0.1420 H   0  0  0  0  0  0  0  0  0  0  0  0
   -0.7584   -0.2215    1.8216 C   0  0  0  0  0  0  0  0  0  0  0  0
   -0.7449   -1.1695    2.3609 H   0  0  0  0  0  0  0  0  0  0  0  0
    0.2507    0.1920    1.8621 H   0  0  0  0  0  0  0  0  0  0  0  0
   -1.7133    0.7139    2.5378 C   0  0  0  0  0  0  0  0  0  0  0  0
   -1.5976    2.1091    2.3762 C   0  0  0  0  0  0  0  0  0  0  0  0
   -0.8084    2.5190    1.7596 H   0  0  0  0  0  0  0  0  0  0  0  0
   -2.5120    2.9720    3.0113 C   0  0  0  0  0  0  0  0  0  0  0  0
   -2.4194    4.0399    2.8866 H   0  0  0  0  0  0  0  0  0  0  0  0
   -3.5479    2.4369    3.8075 C   0  0  0  0  0  0  0  0  0  0  0  0
   -4.4366    3.2605    4.4217 O   0  0  0  0  0  0  0  0  0  0  0  0
   -4.2054    4.1842    4.3161 H   0  0  0  0  0  0  0  0  0  0  0  0
   -3.6652    1.0403    3.9641 C   0  0  0  0  0  0  0  0  0  0  0  0
   -4.4589    0.6434    4.5791 H   0  0  0  0  0  0  0  0  0  0  0  0
   -2.7469    0.1806    3.3319 C   0  0  0  0  0  0  0  0  0  0  0  0
   -2.8321   -0.8919    3.4602 H   0  0  0  0  0  0  0  0  0  0  0  0
   -0.0065   -1.2262   -0.3949 C   0  0  0  0  0  0  0  0  0  0  0  0
    1.1683   -0.8954   -0.2324 O   0  0  0  0  0  0  0  0  0  0  0  0
   -0.3650   -2.2225   -1.2147 N   0  0  0  0  0  0  0  0  0  0  0  0
   -1.3526   -2.3928   -1.3377 H   0  0  0  0  0  0  0  0  0  0  0  0
    0.5727   -3.0229   -1.9989 C   0  0  0  0  0  0  0  0  0  0  0  0
    1.3680   -3.3999   -1.3536 H   0  0  0  0  0  0  0  0  0  0  0  0
    0.0540   -3.8651   -2.4597 H   0  0  0  0  0  0  0  0  0  0  0  0
    1.0203   -2.4042   -2.7795 H   0  0  0  0  0  0  0  0  0  0  0  0
  5  6  2  0  0  0  0
  5  7  1  0  0  0  0
  2  3  1  0  0  0  0
  2  4  1  0  0  0  0
  2  5  1  0  0  0  0
  1  2  1  0  0  0  0
 26 27  2  0  0  0  0
 26 28  1  0  0  0  0
 24 25  1  0  0  0  0
 22 23  1  0  0  0  0
 22 24  2  0  0  0  0
 20 21  1  0  0  0  0
 19 20  1  0  0  0  0
 19 22  1  0  0  0  0
 17 18  1  0  0  0  0
 17 19  2  0  0  0  0
 15 16  1  0  0  0  0
 15 17  1  0  0  0  0
 14 15  2  0  0  0  0
 14 24  1  0  0  0  0
 11 12  1  0  0  0  0
 11 13  1  0  0  0  0
 11 14  1  0  0  0  0
  9 10  1  0  0  0  0
  9 11  1  0  0  0  0
  9 26  1  0  0  0  0
  7  8  1  0  0  0  0
  7  9  1  0  0  0  0
 30 31  1  0  0  0  0
 30 32  1  0  0  0  0
 30 33  1  0  0  0  0
 28 29  1  0  0  0  0
 28 30  1  0  0  0  0
M  END
$$$$
default_name
  -OEChem-01062215323D

 33 33  0     1  0  0  0  0  0999 V2000
   -4.0702   -3.8485    1.4554 H   0  0  0  0  0  0  0  0  0  0  0  0
   -4.0012   -2.9605    0.8284 C   0  0  0  0  0  0  0  0  0  0  0  0
   -4.7652   -2.2435    1.1234 H   0  0  0  0  0  0  0  0  0  0  0  0
   -4.1352   -3.2385   -0.2156 H   0  0  0  0  0  0  0  0  0  0  0  0
   -2.6362   -2.3395    1.0094 C   0  0  0  0  0  0  0  0  0  0  0  0
   -1.8292   -2.8395    1.7814 O   0  0  0  0  0  0  0  0  0  0  0  0
   -2.3832   -1.2445    0.2964 N   0  0  0  0  0  0  0  0  0  0  0  0
   -3.1102   -0.8685   -0.2946 H   0  0  0  0  0  0  0  0  0  0  0  0
   -1.1292   -0.4875    0.3524 C   0  0  1  0  0  0  0  0  0  0  0  0
   -1.2814    0.4727   -0.1420 H   0  0  0  0  0  0  0  0  0  0  0  0
   -0.7584   -0.2215    1.8216 C   0  0  0  0  0  0  0  0  0  0  0  0
   -0.7449   -1.1695    2.3609 H   0  0  0  0  0  0  0  0  0  0  0  0
    0.2507    0.1920    1.8621 H   0  0  0  0  0  0  0  0  0  0  0  0
   -1.7133    0.7139    2.5378 C   0  0  0  0  0  0  0  0  0  0  0  0
   -1.5976    2.1091    2.3762 C   0  0  0  0  0  0  0  0  0  0  0  0
   -0.8084    2.5190    1.7596 H   0  0  0  0  0  0  0  0  0  0  0  0
   -2.5120    2.9720    3.0113 C   0  0  0  0  0  0  0  0  0  0  0  0
   -2.4194    4.0399    2.8866 H   0  0  0  0  0  0  0  0  0  0  0  0
   -3.5479    2.4369    3.8075 C   0  0  0  0  0  0  0  0  0  0  0  0
   -4.4366    3.2605    4.4217 O   0  0  0  0  0  0  0  0  0  0  0  0
   -4.2054    4.1842    4.3161 H   0  0  0  0  0  0  0  0  0  0  0  0
   -3.6652    1.0403    3.9641 C   0  0  0  0  0  0  0  0  0  0  0  0
   -4.4589    0.6434    4.5791 H   0  0  0  0  0  0  0  0  0  0  0  0
   -2.7469    0.1806    3.3319 C   0  0  0  0  0  0  0  0  0  0  0  0
   -2.8321   -0.8919    3.4602 H   0  0  0  0  0  0  0  0  0  0  0  0
   -0.0065   -1.2262   -0.3949 C   0  0  0  0  0  0  0  0  0  0  0  0
    1.1651   -1.0953   -0.0396 O   0  0  0  0  0  0  0  0  0  0  0  0
   -0.3608   -1.9986   -1.4298 N   0  0  0  0  0  0  0  0  0  0  0  0
   -1.3354   -2.0062   -1.6939 H   0  0  0  0  0  0  0  0  0  0  0  0
    0.5778   -2.7653   -2.2459 C   0  0  0  0  0  0  0  0  0  0  0  0
    1.2295   -3.3588   -1.6024 H   0  0  0  0  0  0  0  0  0  0  0  0
    0.0344   -3.4305   -2.9188 H   0  0  0  0  0  0  0  0  0  0  0  0
    1.1952   -2.0832   -2.8341 H   0  0  0  0  0  0  0  0  0  0  0  0
  5  6  2  0  0  0  0
  5  7  1  0  0  0  0
  2  3  1  0  0  0  0
  2  4  1  0  0  0  0
  2  5  1  0  0  0  0
  1  2  1  0  0  0  0
 26 27  2  0  0  0  0
 26 28  1  0  0  0  0
 24 25  1  0  0  0  0
 22 23  1  0  0  0  0
 22 24  2  0  0  0  0
 20 21  1  0  0  0  0
 19 20  1  0  0  0  0
 19 22  1  0  0  0  0
 17 18  1  0  0  0  0
 17 19  2  0  0  0  0
 15 16  1  0  0  0  0
 15 17  1  0  0  0  0
 14 15  2  0  0  0  0
 14 24  1  0  0  0  0
 11 12  1  0  0  0  0
 11 13  1  0  0  0  0
 11 14  1  0  0  0  0
  9 10  1  0  0  0  0
  9 11  1  0  0  0  0
  9 26  1  0  0  0  0
  7  8  1  0  0  0  0
  7  9  1  0  0  0  0
 30 31  1  0  0  0  0
 30 32  1  0  0  0  0
 30 33  1  0  0  0  0
 28 29  1  0  0  0  0
 28 30  1  0  0  0  0
M  END
$$$$
default_name
  -OEChem-01062215323D

 33 33  0     1  0  0  0  0  0999 V2000
   -4.0702   -3.8485    1.4554 H   0  0  0  0  0  0  0  0  0  0  0  0
   -4.0012   -2.9605    0.8284 C   0  0  0  0  0  0  0  0  0  0  0  0
   -4.7652   -2.2435    1.1234 H   0  0  0  0  0  0  0  0  0  0  0  0
   -4.1352   -3.2385   -0.2156 H   0  0  0  0  0  0  0  0  0  0  0  0
   -2.6362   -2.3395    1.0094 C   0  0  0  0  0  0  0  0  0  0  0  0
   -1.8292   -2.8395    1.7814 O   0  0  0  0  0  0  0  0  0  0  0  0
   -2.3832   -1.2445    0.2964 N   0  0  0  0  0  0  0  0  0  0  0  0
   -3.1102   -0.8685   -0.2946 H   0  0  0  0  0  0  0  0  0  0  0  0
   -1.1292   -0.4875    0.3524 C   0  0  1  0  0  0  0  0  0  0  0  0
   -1.2814    0.4727   -0.1420 H   0  0  0  0  0  0  0  0  0  0  0  0
   -0.7584   -0.2215    1.8216 C   0  0  0  0  0  0  0  0  0  0  0  0
   -0.7449   -1.1695    2.3609 H   0  0  0  0  0  0  0  0  0  0  0  0
    0.2507    0.1920    1.8621 H   0  0  0  0  0  0  0  0  0  0  0  0
   -1.7133    0.7139    2.5378 C   0  0  0  0  0  0  0  0  0  0  0  0
   -1.5976    2.1091    2.3762 C   0  0  0  0  0  0  0  0  0  0  0  0
   -0.8084    2.5190    1.7596 H   0  0  0  0  0  0  0  0  0  0  0  0
   -2.5120    2.9720    3.0113 C   0  0  0  0  0  0  0  0  0  0  0  0
   -2.4194    4.0399    2.8866 H   0  0  0  0  0  0  0  0  0  0  0  0
   -3.5479    2.4369    3.8075 C   0  0  0  0  0  0  0  0  0  0  0  0
   -4.4366    3.2605    4.4217 O   0  0  0  0  0  0  0  0  0  0  0  0
   -4.2054    4.1842    4.3161 H   0  0  0  0  0  0  0  0  0  0  0  0
   -3.6652    1.0403    3.9641 C   0  0  0  0  0  0  0  0  0  0  0  0
   -4.4589    0.6434    4.5791 H   0  0  0  0  0  0  0  0  0  0  0  0
   -2.7469    0.1806    3.3319 C   0  0  0  0  0  0  0  0  0  0  0  0
   -2.8321   -0.8919    3.4602 H   0  0  0  0  0  0  0  0  0  0  0  0
   -0.0065   -1.2262   -0.3949 C   0  0  0  0  0  0  0  0  0  0  0  0
    1.1129   -1.3244    0.1085 O   0  0  0  0  0  0  0  0  0  0  0  0
   -0.3019   -1.7422   -1.5947 N   0  0  0  0  0  0  0  0  0  0  0  0
   -1.2258   -1.5676   -1.9629 H   0  0  0  0  0  0  0  0  0  0  0  0
    0.6458   -2.4704   -2.4352 C   0  0  0  0  0  0  0  0  0  0  0  0
    1.1318   -3.2546   -1.8521 H   0  0  0  0  0  0  0  0  0  0  0  0
    0.1271   -2.9216   -3.2826 H   0  0  0  0  0  0  0  0  0  0  0  0
    1.4113   -1.7847   -2.8045 H   0  0  0  0  0  0  0  0  0  0  0  0
  5  6  2  0  0  0  0
  5  7  1  0  0  0  0
  2  3  1  0  0  0  0
  2  4  1  0  0  0  0
  2  5  1  0  0  0  0
  1  2  1  0  0  0  0
 26 27  2  0  0  0  0
 26 28  1  0  0  0  0
 24 25  1  0  0  0  0
 22 23  1  0  0  0  0
 22 24  2  0  0  0  0
 20 21  1  0  0  0  0
 19 20  1  0  0  0  0
 19 22  1  0  0  0  0
 17 18  1  0  0  0  0
 17 19  2  0  0  0  0
 15 16  1  0  0  0  0
 15 17  1  0  0  0  0
 14 15  2  0  0  0  0
 14 24  1  0  0  0  0
 11 12  1  0  0  0  0
 11 13  1  0  0  0  0
 11 14  1  0  0  0  0
  9 10  1  0  0  0  0
  9 11  1  0  0  0  0
  9 26  1  0  0  0  0
  7  8  1  0  0  0  0
  7  9  1  0  0  0  0
 30 31  1  0  0  0  0
 30 32  1  0  0  0  0
 30 33  1  0  0  0  0
 28 29  1  0  0  0  0
 28 30  1  0  0  0  0
M  END
$$$$
default_name
  -OEChem-01062215323D

 33 33  0     1  0  0  0  0  0999 V2000
   -4.0702   -3.8485    1.4554 H   0  0  0  0  0  0  0  0  0  0  0  0
   -4.0012   -2.9605    0.8284 C   0  0  0  0  0  0  0  0  0  0  0  0
   -4.7652   -2.2435    1.1234 H   0  0  0  0  0  0  0  0  0  0  0  0
   -4.1352   -3.2385   -0.2156 H   0  0  0  0  0  0  0  0  0  0  0  0
   -2.6362   -2.3395    1.0094 C   0  0  0  0  0  0  0  0  0  0  0  0
   -1.8292   -2.8395    1.7814 O   0  0  0  0  0  0  0  0  0  0  0  0
   -2.3832   -1.2445    0.2964 N   0  0  0  0  0  0  0  0  0  0  0  0
   -3.1102   -0.8685   -0.2946 H   0  0  0  0  0  0  0  0  0  0  0  0
   -1.1292   -0.4875    0.3524 C   0  0  1  0  0  0  0  0  0  0  0  0
   -1.2814    0.4727   -0.1420 H   0  0  0  0  0  0  0  0  0  0  0  0
   -0.7584   -0.2215    1.8216 C   0  0  0  0  0  0  0  0  0  0  0  0
   -0.7449   -1.1695    2.3609 H   0  0  0  0  0  0  0  0  0  0  0  0
    0.2507    0.1920    1.8621 H   0  0  0  0  0  0  0  0  0  0  0  0
   -1.7133    0.7139    2.5378 C   0  0  0  0  0  0  0  0  0  0  0  0
   -1.5976    2.1091    2.3762 C   0  0  0  0  0  0  0  0  0  0  0  0
   -0.8084    2.5190    1.7596 H   0  0  0  0  0  0  0  0  0  0  0  0
   -2.5120    2.9720    3.0113 C   0  0  0  0  0  0  0  0  0  0  0  0
   -2.4194    4.0399    2.8866 H   0  0  0  0  0  0  0  0  0  0  0  0
   -3.5479    2.4369    3.8075 C   0  0  0  0  0  0  0  0  0  0  0  0
   -4.4366    3.2605    4.4217 O   0  0  0  0  0  0  0  0  0  0  0  0
   -4.2054    4.1842    4.3161 H   0  0  0  0  0  0  0  0  0  0  0  0
   -3.6652    1.0403    3.9641 C   0  0  0  0  0  0  0  0  0  0  0  0
   -4.4589    0.6434    4.5791 H   0  0  0  0  0  0  0  0  0  0  0  0
   -2.7469    0.1806    3.3319 C   0  0  0  0  0  0  0  0  0  0  0  0
   -2.8321   -0.8919    3.4602 H   0  0  0  0  0  0  0  0  0  0  0  0
   -0.0065   -1.2262   -0.3949 C   0  0  0  0  0  0  0  0  0  0  0  0
    1.0152   -1.5672    0.2017 O   0  0  0  0  0  0  0  0  0  0  0  0
   -0.1923   -1.4709   -1.6983 N   0  0  0  0  0  0  0  0  0  0  0  0
   -1.0313   -1.1069   -2.1262 H   0  0  0  0  0  0  0  0  0  0  0  0
    0.7722   -2.1583   -2.5539 C   0  0  0  0  0  0  0  0  0  0  0  0
    1.0816   -3.0944   -2.0858 H   0  0  0  0  0  0  0  0  0  0  0  0
    0.3260   -2.3729   -3.5263 H   0  0  0  0  0  0  0  0  0  0  0  0
    1.6539   -1.5292   -2.6926 H   0  0  0  0  0  0  0  0  0  0  0  0
  5  6  2  0  0  0  0
  5  7  1  0  0  0  0
  2  3  1  0  0  0  0
  2  4  1  0  0  0  0
  2  5  1  0  0  0  0
  1  2  1  0  0  0  0
 26 27  2  0  0  0  0
 26 28  1  0  0  0  0
 24 25  1  0  0  0  0
 22 23  1  0  0  0  0
 22 24  2  0  0  0  0
 20 21  1  0  0  0  0
 19 20  1  0  0  0  0
 19 22  1  0  0  0  0
 17 18  1  0  0  0  0
 17 19  2  0  0  0  0
 15 16  1  0  0  0  0
 15 17  1  0  0  0  0
 14 15  2  0  0  0  0
 14 24  1  0  0  0  0
 11 12  1  0  0  0  0
 11 13  1  0  0  0  0
 11 14  1  0  0  0  0
  9 10  1  0  0  0  0
  9 11  1  0  0  0  0
  9 26  1  0  0  0  0
  7  8  1  0  0  0  0
  7  9  1  0  0  0  0
 30 31  1  0  0  0  0
 30 32  1  0  0  0  0
 30 33  1  0  0  0  0
 28 29  1  0  0  0  0
 28 30  1  0  0  0  0
M  END
$$$$
default_name
  -OEChem-01062215323D

 33 33  0     1  0  0  0  0  0999 V2000
   -4.0702   -3.8485    1.4554 H   0  0  0  0  0  0  0  0  0  0  0  0
   -4.0012   -2.9605    0.8284 C   0  0  0  0  0  0  0  0  0  0  0  0
   -4.7652   -2.2435    1.1234 H   0  0  0  0  0  0  0  0  0  0  0  0
   -4.1352   -3.2385   -0.2156 H   0  0  0  0  0  0  0  0  0  0  0  0
   -2.6362   -2.3395    1.0094 C   0  0  0  0  0  0  0  0  0  0  0  0
   -1.8292   -2.8395    1.7814 O   0  0  0  0  0  0  0  0  0  0  0  0
   -2.3832   -1.2445    0.2964 N   0  0  0  0  0  0  0  0  0  0  0  0
   -3.1102   -0.8685   -0.2946 H   0  0  0  0  0  0  0  0  0  0  0  0
   -1.1292   -0.4875    0.3524 C   0  0  1  0  0  0  0  0  0  0  0  0
   -1.2814    0.4727   -0.1420 H   0  0  0  0  0  0  0  0  0  0  0  0
   -0.7584   -0.2215    1.8216 C   0  0  0  0  0  0  0  0  0  0  0  0
   -0.7449   -1.1695    2.3609 H   0  0  0  0  0  0  0  0  0  0  0  0
    0.2507    0.1920    1.8621 H   0  0  0  0  0  0  0  0  0  0  0  0
   -1.7133    0.7139    2.5378 C   0  0  0  0  0  0  0  0  0  0  0  0
   -1.5976    2.1091    2.3762 C   0  0  0  0  0  0  0  0  0  0  0  0
   -0.8084    2.5190    1.7596 H   0  0  0  0  0  0  0  0  0  0  0  0
   -2.5120    2.9720    3.0113 C   0  0  0  0  0  0  0  0  0  0  0  0
   -2.4194    4.0399    2.8866 H   0  0  0  0  0  0  0  0  0  0  0  0
   -3.5479    2.4369    3.8075 C   0  0  0  0  0  0  0  0  0  0  0  0
   -4.4366    3.2605    4.4217 O   0  0  0  0  0  0  0  0  0  0  0  0
   -4.2054    4.1842    4.3161 H   0  0  0  0  0  0  0  0  0  0  0  0
   -3.6652    1.0403    3.9641 C   0  0  0  0  0  0  0  0  0  0  0  0
   -4.4589    0.6434    4.5791 H   0  0  0  0  0  0  0  0  0  0  0  0
   -2.7469    0.1806    3.3319 C   0  0  0  0  0  0  0  0  0  0  0  0
   -2.8321   -0.8919    3.4602 H   0  0  0  0  0  0  0  0  0  0  0  0
   -0.0065   -1.2262   -0.3949 C   0  0  0  0  0  0  0  0  0  0  0  0
    0.8787   -1.8069    0.2337 O   0  0  0  0  0  0  0  0  0  0  0  0
   -0.0394   -1.2030   -1.7334 N   0  0  0  0  0  0  0  0  0  0  0  0
   -0.7652   -0.6555   -2.1726 H   0  0  0  0  0  0  0  0  0  0  0  0
    0.9482   -1.8503   -2.5938 C   0  0  0  0  0  0  0  0  0  0  0  0
    1.0823   -2.8893   -2.2876 H   0  0  0  0  0  0  0  0  0  0  0  0
    0.6174   -1.8218   -3.6333 H   0  0  0  0  0  0  0  0  0  0  0  0
    1.9064   -1.3341   -2.5061 H   0  0  0  0  0  0  0  0  0  0  0  0
  5  6  2  0  0  0  0
  5  7  1  0  0  0  0
  2  3  1  0  0  0  0
  2  4  1  0  0  0  0
  2  5  1  0  0  0  0
  1  2  1  0  0  0  0
 26 27  2  0  0  0  0
 26 28  1  0  0  0  0
 24 25  1  0  0  0  0
 22 23  1  0  0  0  0
 22 24  2  0  0  0  0
 20 21  1  0  0  0  0
 19 20  1  0  0  0  0
 19 22  1  0  0  0  0
 17 18  1  0  0  0  0
 17 19  2  0  0  0  0
 15 16  1  0  0  0  0
 15 17  1  0  0  0  0
 14 15  2  0  0  0  0
 14 24  1  0  0  0  0
 11 12  1  0  0  0  0
 11 13  1  0  0  0  0
 11 14  1  0  0  0  0
  9 10  1  0  0  0  0
  9 11  1  0  0  0  0
  9 26  1  0  0  0  0
  7  8  1  0  0  0  0
  7  9  1  0  0  0  0
 30 31  1  0  0  0  0
 30 32  1  0  0  0  0
 30 33  1  0  0  0  0
 28 29  1  0  0  0  0
 28 30  1  0  0  0  0
M  END
$$$$
default_name
  -OEChem-01062215323D

 33 33  0     1  0  0  0  0  0999 V2000
   -4.0702   -3.8485    1.4554 H   0  0  0  0  0  0  0  0  0  0  0  0
   -4.0012   -2.9605    0.8284 C   0  0  0  0  0  0  0  0  0  0  0  0
   -4.7652   -2.2435    1.1234 H   0  0  0  0  0  0  0  0  0  0  0  0
   -4.1352   -3.2385   -0.2156 H   0  0  0  0  0  0  0  0  0  0  0  0
   -2.6362   -2.3395    1.0094 C   0  0  0  0  0  0  0  0  0  0  0  0
   -1.8292   -2.8395    1.7814 O   0  0  0  0  0  0  0  0  0  0  0  0
   -2.3832   -1.2445    0.2964 N   0  0  0  0  0  0  0  0  0  0  0  0
   -3.1102   -0.8685   -0.2946 H   0  0  0  0  0  0  0  0  0  0  0  0
   -1.1292   -0.4875    0.3524 C   0  0  1  0  0  0  0  0  0  0  0  0
   -1.2814    0.4727   -0.1420 H   0  0  0  0  0  0  0  0  0  0  0  0
   -0.7584   -0.2215    1.8216 C   0  0  0  0  0  0  0  0  0  0  0  0
   -0.7449   -1.1695    2.3609 H   0  0  0  0  0  0  0  0  0  0  0  0
    0.2507    0.1920    1.8621 H   0  0  0  0  0  0  0  0  0  0  0  0
   -1.7133    0.7139    2.5378 C   0  0  0  0  0  0  0  0  0  0  0  0
   -1.5976    2.1091    2.3762 C   0  0  0  0  0  0  0  0  0  0  0  0
   -0.8084    2.5190    1.7596 H   0  0  0  0  0  0  0  0  0  0  0  0
   -2.5120    2.9720    3.0113 C   0  0  0  0  0  0  0  0  0  0  0  0
   -2.4194    4.0399    2.8866 H   0  0  0  0  0  0  0  0  0  0  0  0
   -3.5479    2.4369    3.8075 C   0  0  0  0  0  0  0  0  0  0  0  0
   -4.4366    3.2605    4.4217 O   0  0  0  0  0  0  0  0  0  0  0  0
   -4.2054    4.1842    4.3161 H   0  0  0  0  0  0  0  0  0  0  0  0
   -3.6652    1.0403    3.9641 C   0  0  0  0  0  0  0  0  0  0  0  0
   -4.4589    0.6434    4.5791 H   0  0  0  0  0  0  0  0  0  0  0  0
   -2.7469    0.1806    3.3319 C   0  0  0  0  0  0  0  0  0  0  0  0
   -2.8321   -0.8919    3.4602 H   0  0  0  0  0  0  0  0  0  0  0  0
   -0.0065   -1.2262   -0.3949 C   0  0  0  0  0  0  0  0  0  0  0  0
    0.7128   -2.0274    0.2024 O   0  0  0  0  0  0  0  0  0  0  0  0
    0.1464   -0.9568   -1.6976 N   0  0  0  0  0  0  0  0  0  0  0  0
   -0.4457   -0.2442   -2.0992 H   0  0  0  0  0  0  0  0  0  0  0  0
    1.1620   -1.5675   -2.5523 C   0  0  0  0  0  0  0  0  0  0  0  0
    1.1339   -2.6531   -2.4436 H   0  0  0  0  0  0  0  0  0  0  0  0
    0.9815   -1.3060   -3.5962 H   0  0  0  0  0  0  0  0  0  0  0  0
    2.1517   -1.2126   -2.2577 H   0  0  0  0  0  0  0  0  0  0  0  0
  5  6  2  0  0  0  0
  5  7  1  0  0  0  0
  2  3  1  0  0  0  0
  2  4  1  0  0  0  0
  2  5  1  0  0  0  0
  1  2  1  0  0  0  0
 26 27  2  0  0  0  0
 26 28  1  0  0  0  0
 24 25  1  0  0  0  0
 22 23  1  0  0  0  0
 22 24  2  0  0  0  0
 20 21  1  0  0  0  0
 19 20  1  0  0  0  0
 19 22  1  0  0  0  0
 17 18  1  0  0  0  0
 17 19  2  0  0  0  0
 15 16  1  0  0  0  0
 15 17  1  0  0  0  0
 14 15  2  0  0  0  0
 14 24  1  0  0  0  0
 11 12  1  0  0  0  0
 11 13  1  0  0  0  0
 11 14  1  0  0  0  0
  9 10  1  0  0  0  0
  9 11  1  0  0  0  0
  9 26  1  0  0  0  0
  7  8  1  0  0  0  0
  7  9  1  0  0  0  0
 30 31  1  0  0  0  0
 30 32  1  0  0  0  0
 30 33  1  0  0  0  0
 28 29  1  0  0  0  0
 28 30  1  0  0  0  0
M  END
$$$$
default_name
  -OEChem-01062215323D

 33 33  0     1  0  0  0  0  0999 V2000
   -4.0702   -3.8485    1.4554 H   0  0  0  0  0  0  0  0  0  0  0  0
   -4.0012   -2.9605    0.8284 C   0  0  0  0  0  0  0  0  0  0  0  0
   -4.7652   -2.2435    1.1234 H   0  0  0  0  0  0  0  0  0  0  0  0
   -4.1352   -3.2385   -0.2156 H   0  0  0  0  0  0  0  0  0  0  0  0
   -2.6362   -2.3395    1.0094 C   0  0  0  0  0  0  0  0  0  0  0  0
   -1.8292   -2.8395    1.7814 O   0  0  0  0  0  0  0  0  0  0  0  0
   -2.3832   -1.2445    0.2964 N   0  0  0  0  0  0  0  0  0  0  0  0
   -3.1102   -0.8685   -0.2946 H   0  0  0  0  0  0  0  0  0  0  0  0
   -1.1292   -0.4875    0.3524 C   0  0  1  0  0  0  0  0  0  0  0  0
   -1.2814    0.4727   -0.1420 H   0  0  0  0  0  0  0  0  0  0  0  0
   -0.7584   -0.2215    1.8216 C   0  0  0  0  0  0  0  0  0  0  0  0
   -0.7449   -1.1695    2.3609 H   0  0  0  0  0  0  0  0  0  0  0  0
    0.2507    0.1920    1.8621 H   0  0  0  0  0  0  0  0  0  0  0  0
   -1.7133    0.7139    2.5378 C   0  0  0  0  0  0  0  0  0  0  0  0
   -1.5976    2.1091    2.3762 C   0  0  0  0  0  0  0  0  0  0  0  0
   -0.8084    2.5190    1.7596 H   0  0  0  0  0  0  0  0  0  0  0  0
   -2.5120    2.9720    3.0113 C   0  0  0  0  0  0  0  0  0  0  0  0
   -2.4194    4.0399    2.8866 H   0  0  0  0  0  0  0  0  0  0  0  0
   -3.5479    2.4369    3.8075 C   0  0  0  0  0  0  0  0  0  0  0  0
   -4.4366    3.2605    4.4217 O   0  0  0  0  0  0  0  0  0  0  0  0
   -4.2054    4.1842    4.3161 H   0  0  0  0  0  0  0  0  0  0  0  0
   -3.6652    1.0403    3.9641 C   0  0  0  0  0  0  0  0  0  0  0  0
   -4.4589    0.6434    4.5791 H   0  0  0  0  0  0  0  0  0  0  0  0
   -2.7469    0.1806    3.3319 C   0  0  0  0  0  0  0  0  0  0  0  0
   -2.8321   -0.8919    3.4602 H   0  0  0  0  0  0  0  0  0  0  0  0
   -0.0065   -1.2262   -0.3949 C   0  0  0  0  0  0  0  0  0  0  0  0
    0.5286   -2.2136    0.1098 O   0  0  0  0  0  0  0  0  0  0  0  0
    0.3524   -0.7491   -1.5935 N   0  0  0  0  0  0  0  0  0  0  0  0
   -0.0944    0.0990   -1.9107 H   0  0  0  0  0  0  0  0  0  0  0  0
    1.3989   -1.3290   -2.4322 C   0  0  0  0  0  0  0  0  0  0  0  0
    1.2328   -2.4019   -2.5432 H   0  0  0  0  0  0  0  0  0  0  0  0
    1.3934   -0.8605   -3.4177 H   0  0  0  0  0  0  0  0  0  0  0  0
    2.3731   -1.1731   -1.9642 H   0  0  0  0  0  0  0  0  0  0  0  0
  5  6  2  0  0  0  0
  5  7  1  0  0  0  0
  2  3  1  0  0  0  0
  2  4  1  0  0  0  0
  2  5  1  0  0  0  0
  1  2  1  0  0  0  0
 26 27  2  0  0  0  0
 26 28  1  0  0  0  0
 24 25  1  0  0  0  0
 22 23  1  0  0  0  0
 22 24  2  0  0  0  0
 20 21  1  0  0  0  0
 19 20  1  0  0  0  0
 19 22  1  0  0  0  0
 17 18  1  0  0  0  0
 17 19  2  0  0  0  0
 15 16  1  0  0  0  0
 15 17  1  0  0  0  0
 14 15  2  0  0  0  0
 14 24  1  0  0  0  0
 11 12  1  0  0  0  0
 11 13  1  0  0  0  0
 11 14  1  0  0  0  0
  9 10  1  0  0  0  0
  9 11  1  0  0  0  0
  9 26  1  0  0  0  0
  7  8  1  0  0  0  0
  7  9  1  0  0  0  0
 30 31  1  0  0  0  0
 30 32  1  0  0  0  0
 30 33  1  0  0  0  0
 28 29  1  0  0  0  0
 28 30  1  0  0  0  0
M  END
$$$$
default_name
  -OEChem-01062215323D

 33 33  0     1  0  0  0  0  0999 V2000
   -4.0702   -3.8485    1.4554 H   0  0  0  0  0  0  0  0  0  0  0  0
   -4.0012   -2.9605    0.8284 C   0  0  0  0  0  0  0  0  0  0  0  0
   -4.7652   -2.2435    1.1234 H   0  0  0  0  0  0  0  0  0  0  0  0
   -4.1352   -3.2385   -0.2156 H   0  0  0  0  0  0  0  0  0  0  0  0
   -2.6362   -2.3395    1.0094 C   0  0  0  0  0  0  0  0  0  0  0  0
   -1.8292   -2.8395    1.7814 O   0  0  0  0  0  0  0  0  0  0  0  0
   -2.3832   -1.2445    0.2964 N   0  0  0  0  0  0  0  0  0  0  0  0
   -3.1102   -0.8685   -0.2946 H   0  0  0  0  0  0  0  0  0  0  0  0
   -1.1292   -0.4875    0.3524 C   0  0  1  0  0  0  0  0  0  0  0  0
   -1.2814    0.4727   -0.1420 H   0  0  0  0  0  0  0  0  0  0  0  0
   -0.7584   -0.2215    1.8216 C   0  0  0  0  0  0  0  0  0  0  0  0
   -0.7449   -1.1695    2.3609 H   0  0  0  0  0  0  0  0  0  0  0  0
    0.2507    0.1920    1.8621 H   0  0  0  0  0  0  0  0  0  0  0  0
   -1.7133    0.7139    2.5378 C   0  0  0  0  0  0  0  0  0  0  0  0
   -1.5976    2.1091    2.3762 C   0  0  0  0  0  0  0  0  0  0  0  0
   -0.8084    2.5190    1.7596 H   0  0  0  0  0  0  0  0  0  0  0  0
   -2.5120    2.9720    3.0113 C   0  0  0  0  0  0  0  0  0  0  0  0
   -2.4194    4.0399    2.8866 H   0  0  0  0  0  0  0  0  0  0  0  0
   -3.5479    2.4369    3.8075 C   0  0  0  0  0  0  0  0  0  0  0  0
   -4.4366    3.2605    4.4217 O   0  0  0  0  0  0  0  0  0  0  0  0
   -4.2054    4.1842    4.3161 H   0  0  0  0  0  0  0  0  0  0  0  0
   -3.6652    1.0403    3.9641 C   0  0  0  0  0  0  0  0  0  0  0  0
   -4.4589    0.6434    4.5791 H   0  0  0  0  0  0  0  0  0  0  0  0
   -2.7469    0.1806    3.3319 C   0  0  0  0  0  0  0  0  0  0  0  0
   -2.8321   -0.8919    3.4602 H   0  0  0  0  0  0  0  0  0  0  0  0
   -0.0065   -1.2262   -0.3949 C   0  0  0  0  0  0  0  0  0  0  0  0
    0.3389   -2.3528   -0.0377 O   0  0  0  0  0  0  0  0  0  0  0  0
    0.5645   -0.5941   -1.4281 N   0  0  0  0  0  0  0  0  0  0  0  0
    0.2646    0.3507   -1.6202 H   0  0  0  0  0  0  0  0  0  0  0  0
    1.6427   -1.1511   -2.2416 C   0  0  0  0  0  0  0  0  0  0  0  0
    1.3723   -2.1530   -2.5797 H   0  0  0  0  0  0  0  0  0  0  0  0
    1.8252   -0.5158   -3.1099 H   0  0  0  0  0  0  0  0  0  0  0  0
    2.5554   -1.2182   -1.6458 H   0  0  0  0  0  0  0  0  0  0  0  0
  5  6  2  0  0  0  0
  5  7  1  0  0  0  0
  2  3  1  0  0  0  0
  2  4  1  0  0  0  0
  2  5  1  0  0  0  0
  1  2  1  0  0  0  0
 26 27  2  0  0  0  0
 26 28  1  0  0  0  0
 24 25  1  0  0  0  0
 22 23  1  0  0  0  0
 22 24  2  0  0  0  0
 20 21  1  0  0  0  0
 19 20  1  0  0  0  0
 19 22  1  0  0  0  0
 17 18  1  0  0  0  0
 17 19  2  0  0  0  0
 15 16  1  0  0  0  0
 15 17  1  0  0  0  0
 14 15  2  0  0  0  0
 14 24  1  0  0  0  0
 11 12  1  0  0  0  0
 11 13  1  0  0  0  0
 11 14  1  0  0  0  0
  9 10  1  0  0  0  0
  9 11  1  0  0  0  0
  9 26  1  0  0  0  0
  7  8  1  0  0  0  0
  7  9  1  0  0  0  0
 30 31  1  0  0  0  0
 30 32  1  0  0  0  0
 30 33  1  0  0  0  0
 28 29  1  0  0  0  0
 28 30  1  0  0  0  0
M  END
$$$$
default_name
  -OEChem-01062215323D

 33 33  0     1  0  0  0  0  0999 V2000
   -4.0702   -3.8485    1.4554 H   0  0  0  0  0  0  0  0  0  0  0  0
   -4.0012   -2.9605    0.8284 C   0  0  0  0  0  0  0  0  0  0  0  0
   -4.7652   -2.2435    1.1234 H   0  0  0  0  0  0  0  0  0  0  0  0
   -4.1352   -3.2385   -0.2156 H   0  0  0  0  0  0  0  0  0  0  0  0
   -2.6362   -2.3395    1.0094 C   0  0  0  0  0  0  0  0  0  0  0  0
   -1.8292   -2.8395    1.7814 O   0  0  0  0  0  0  0  0  0  0  0  0
   -2.3832   -1.2445    0.2964 N   0  0  0  0  0  0  0  0  0  0  0  0
   -3.1102   -0.8685   -0.2946 H   0  0  0  0  0  0  0  0  0  0  0  0
   -1.1292   -0.4875    0.3524 C   0  0  1  0  0  0  0  0  0  0  0  0
   -1.2814    0.4727   -0.1420 H   0  0  0  0  0  0  0  0  0  0  0  0
   -0.7584   -0.2215    1.8216 C   0  0  0  0  0  0  0  0  0  0  0  0
   -0.7449   -1.1695    2.3609 H   0  0  0  0  0  0  0  0  0  0  0  0
    0.2507    0.1920    1.8621 H   0  0  0  0  0  0  0  0  0  0  0  0
   -1.7133    0.7139    2.5378 C   0  0  0  0  0  0  0  0  0  0  0  0
   -1.5976    2.1091    2.3762 C   0  0  0  0  0  0  0  0  0  0  0  0
   -0.8084    2.5190    1.7596 H   0  0  0  0  0  0  0  0  0  0  0  0
   -2.5120    2.9720    3.0113 C   0  0  0  0  0  0  0  0  0  0  0  0
   -2.4194    4.0399    2.8866 H   0  0  0  0  0  0  0  0  0  0  0  0
   -3.5479    2.4369    3.8075 C   0  0  0  0  0  0  0  0  0  0  0  0
   -4.4366    3.2605    4.4217 O   0  0  0  0  0  0  0  0  0  0  0  0
   -4.2054    4.1842    4.3161 H   0  0  0  0  0  0  0  0  0  0  0  0
   -3.6652    1.0403    3.9641 C   0  0  0  0  0  0  0  0  0  0  0  0
   -4.4589    0.6434    4.5791 H   0  0  0  0  0  0  0  0  0  0  0  0
   -2.7469    0.1806    3.3319 C   0  0  0  0  0  0  0  0  0  0  0  0
   -2.8321   -0.8919    3.4602 H   0  0  0  0  0  0  0  0  0  0  0  0
   -0.0065   -1.2262   -0.3949 C   0  0  0  0  0  0  0  0  0  0  0  0
    0.1564   -2.4355   -0.2301 O   0  0  0  0  0  0  0  0  0  0  0  0
    0.7683   -0.5023   -1.2126 N   0  0  0  0  0  0  0  0  0  0  0  0
    0.6070    0.4938   -1.2473 H   0  0  0  0  0  0  0  0  0  0  0  0
    1.8770   -1.0460   -1.9937 C   0  0  0  0  0  0  0  0  0  0  0  0
    1.5430   -1.9231   -2.5505 H   0  0  0  0  0  0  0  0  0  0  0  0
    2.2473   -0.2953   -2.6937 H   0  0  0  0  0  0  0  0  0  0  0  0
    2.6862   -1.3448   -1.3241 H   0  0  0  0  0  0  0  0  0  0  0  0
  5  6  2  0  0  0  0
  5  7  1  0  0  0  0
  2  3  1  0  0  0  0
  2  4  1  0  0  0  0
  2  5  1  0  0  0  0
  1  2  1  0  0  0  0
 26 27  2  0  0  0  0
 26 28  1  0  0  0  0
 24 25  1  0  0  0  0
 22 23  1  0  0  0  0
 22 24  2  0  0  0  0
 20 21  1  0  0  0  0
 19 20  1  0  0  0  0
 19 22  1  0  0  0  0
 17 18  1  0  0  0  0
 17 19  2  0  0  0  0
 15 16  1  0  0  0  0
 15 17  1  0  0  0  0
 14 15  2  0  0  0  0
 14 24  1  0  0  0  0
 11 12  1  0  0  0  0
 11 13  1  0  0  0  0
 11 14  1  0  0  0  0
  9 10  1  0  0  0  0
  9 11  1  0  0  0  0
  9 26  1  0  0  0  0
  7  8  1  0  0  0  0
  7  9  1  0  0  0  0
 30 31  1  0  0  0  0
 30 32  1  0  0  0  0
 30 33  1  0  0  0  0
 28 29  1  0  0  0  0
 28 30  1  0  0  0  0
M  END
$$$$
default_name
  -OEChem-01062215323D

 33 33  0     1  0  0  0  0  0999 V2000
   -4.0702   -3.8485    1.4554 H   0  0  0  0  0  0  0  0  0  0  0  0
   -4.0012   -2.9605    0.8284 C   0  0  0  0  0  0  0  0  0  0  0  0
   -4.7652   -2.2435    1.1234 H   0  0  0  0  0  0  0  0  0  0  0  0
   -4.1352   -3.2385   -0.2156 H   0  0  0  0  0  0  0  0  0  0  0  0
   -2.6362   -2.3395    1.0094 C   0  0  0  0  0  0  0  0  0  0  0  0
   -1.8292   -2.8395    1.7814 O   0  0  0  0  0  0  0  0  0  0  0  0
   -2.3832   -1.2445    0.2964 N   0  0  0  0  0  0  0  0  0  0  0  0
   -3.1102   -0.8685   -0.2946 H   0  0  0  0  0  0  0  0  0  0  0  0
   -1.1292   -0.4875    0.3524 C   0  0  1  0  0  0  0  0  0  0  0  0
   -1.2814    0.4727   -0.1420 H   0  0  0  0  0  0  0  0  0  0  0  0
   -0.7584   -0.2215    1.8216 C   0  0  0  0  0  0  0  0  0  0  0  0
   -0.7449   -1.1695    2.3609 H   0  0  0  0  0  0  0  0  0  0  0  0
    0.2507    0.1920    1.8621 H   0  0  0  0  0  0  0  0  0  0  0  0
   -1.7133    0.7139    2.5378 C   0  0  0  0  0  0  0  0  0  0  0  0
   -1.5976    2.1091    2.3762 C   0  0  0  0  0  0  0  0  0  0  0  0
   -0.8084    2.5190    1.7596 H   0  0  0  0  0  0  0  0  0  0  0  0
   -2.5120    2.9720    3.0113 C   0  0  0  0  0  0  0  0  0  0  0  0
   -2.4194    4.0399    2.8866 H   0  0  0  0  0  0  0  0  0  0  0  0
   -3.5479    2.4369    3.8075 C   0  0  0  0  0  0  0  0  0  0  0  0
   -4.4366    3.2605    4.4217 O   0  0  0  0  0  0  0  0  0  0  0  0
   -4.2054    4.1842    4.3161 H   0  0  0  0  0  0  0  0  0  0  0  0
   -3.6652    1.0403    3.9641 C   0  0  0  0  0  0  0  0  0  0  0  0
   -4.4589    0.6434    4.5791 H   0  0  0  0  0  0  0  0  0  0  0  0
   -2.7469    0.1806    3.3319 C   0  0  0  0  0  0  0  0  0  0  0  0
   -2.8321   -0.8919    3.4602 H   0  0  0  0  0  0  0  0  0  0  0  0
   -0.0065   -1.2262   -0.3949 C   0  0  0  0  0  0  0  0  0  0  0  0
   -0.0063   -2.4561   -0.4542 O   0  0  0  0  0  0  0  0  0  0  0  0
    0.9500   -0.4800   -0.9618 N   0  0  0  0  0  0  0  0  0  0  0  0
    0.9093    0.5185   -0.8176 H   0  0  0  0  0  0  0  0  0  0  0  0
    2.0857   -1.0207   -1.7051 C   0  0  0  0  0  0  0  0  0  0  0  0
    1.7331   -1.7281   -2.4577 H   0  0  0  0  0  0  0  0  0  0  0  0
    2.6310   -0.2140   -2.1976 H   0  0  0  0  0  0  0  0  0  0  0  0
    2.7566   -1.5444   -1.0210 H   0  0  0  0  0  0  0  0  0  0  0  0
  5  6  2  0  0  0  0
  5  7  1  0  0  0  0
  2  3  1  0  0  0  0
  2  4  1  0  0  0  0
  2  5  1  0  0  0  0
  1  2  1  0  0  0  0
 26 27  2  0  0  0  0
 26 28  1  0  0  0  0
 24 25  1  0  0  0  0
 22 23  1  0  0  0  0
 22 24  2  0  0  0  0
 20 21  1  0  0  0  0
 19 20  1  0  0  0  0
 19 22  1  0  0  0  0
 17 18  1  0  0  0  0
 17 19  2  0  0  0  0
 15 16  1  0  0  0  0
 15 17  1  0  0  0  0
 14 15  2  0  0  0  0
 14 24  1  0  0  0  0
 11 12  1  0  0  0  0
 11 13  1  0  0  0  0
 11 14  1  0  0  0  0
  9 10  1  0  0  0  0
  9 11  1  0  0  0  0
  9 26  1  0  0  0  0
  7  8  1  0  0  0  0
  7  9  1  0  0  0  0
 30 31  1  0  0  0  0
 30 32  1  0  0  0  0
 30 33  1  0  0  0  0
 28 29  1  0  0  0  0
 28 30  1  0  0  0  0
M  END
$$$$
default_name
  -OEChem-01062215323D

 33 33  0     1  0  0  0  0  0999 V2000
   -4.0702   -3.8485    1.4554 H   0  0  0  0  0  0  0  0  0  0  0  0
   -4.0012   -2.9605    0.8284 C   0  0  0  0  0  0  0  0  0  0  0  0
   -4.7652   -2.2435    1.1234 H   0  0  0  0  0  0  0  0  0  0  0  0
   -4.1352   -3.2385   -0.2156 H   0  0  0  0  0  0  0  0  0  0  0  0
   -2.6362   -2.3395    1.0094 C   0  0  0  0  0  0  0  0  0  0  0  0
   -1.8292   -2.8395    1.7814 O   0  0  0  0  0  0  0  0  0  0  0  0
   -2.3832   -1.2445    0.2964 N   0  0  0  0  0  0  0  0  0  0  0  0
   -3.1102   -0.8685   -0.2946 H   0  0  0  0  0  0  0  0  0  0  0  0
   -1.1292   -0.4875    0.3524 C   0  0  1  0  0  0  0  0  0  0  0  0
   -1.2814    0.4727   -0.1420 H   0  0  0  0  0  0  0  0  0  0  0  0
   -0.7584   -0.2215    1.8216 C   0  0  0  0  0  0  0  0  0  0  0  0
   -0.7449   -1.1695    2.3609 H   0  0  0  0  0  0  0  0  0  0  0  0
    0.2507    0.1920    1.8621 H   0  0  0  0  0  0  0  0  0  0  0  0
   -1.7133    0.7139    2.5378 C   0  0  0  0  0  0  0  0  0  0  0  0
   -1.5976    2.1091    2.3762 C   0  0  0  0  0  0  0  0  0  0  0  0
   -0.8084    2.5190    1.7596 H   0  0  0  0  0  0  0  0  0  0  0  0
   -2.5120    2.9720    3.0113 C   0  0  0  0  0  0  0  0  0  0  0  0
   -2.4194    4.0399    2.8866 H   0  0  0  0  0  0  0  0  0  0  0  0
   -3.5479    2.4369    3.8075 C   0  0  0  0  0  0  0  0  0  0  0  0
   -4.4366    3.2605    4.4217 O   0  0  0  0  0  0  0  0  0  0  0  0
   -4.2054    4.1842    4.3161 H   0  0  0  0  0  0  0  0  0  0  0  0
   -3.6652    1.0403    3.9641 C   0  0  0  0  0  0  0  0  0  0  0  0
   -4.4589    0.6434    4.5791 H   0  0  0  0  0  0  0  0  0  0  0  0
   -2.7469    0.1806    3.3319 C   0  0  0  0  0  0  0  0  0  0  0  0
   -2.8321   -0.8919    3.4602 H   0  0  0  0  0  0  0  0  0  0  0  0
   -0.0065   -1.2262   -0.3949 C   0  0  0  0  0  0  0  0  0  0  0  0
   -0.1383   -2.4132   -0.6948 O   0  0  0  0  0  0  0  0  0  0  0  0
    1.0970   -0.5287   -0.6928 N   0  0  0  0  0  0  0  0  0  0  0  0
    1.1510    0.4231   -0.3602 H   0  0  0  0  0  0  0  0  0  0  0  0
    2.2545   -1.0771   -1.3957 C   0  0  0  0  0  0  0  0  0  0  0  0
    1.9297   -1.5812   -2.3076 H   0  0  0  0  0  0  0  0  0  0  0  0
    2.9502   -0.2775   -1.6553 H   0  0  0  0  0  0  0  0  0  0  0  0
    2.7618   -1.8033   -0.7572 H   0  0  0  0  0  0  0  0  0  0  0  0
  5  6  2  0  0  0  0
  5  7  1  0  0  0  0
  2  3  1  0  0  0  0
  2  4  1  0  0  0  0
  2  5  1  0  0  0  0
  1  2  1  0  0  0  0
 26 27  2  0  0  0  0
 26 28  1  0  0  0  0
 24 25  1  0  0  0  0
 22 23  1  0  0  0  0
 22 24  2  0  0  0  0
 20 21  1  0  0  0  0
 19 20  1  0  0  0  0
 19 22  1  0  0  0  0
 17 18  1  0  0  0  0
 17 19  2  0  0  0  0
 15 16  1  0  0  0  0
 15 17  1  0  0  0  0
 14 15  2  0  0  0  0
 14 24  1  0  0  0  0
 11 12  1  0  0  0  0
 11 13  1  0  0  0  0
 11 14  1  0  0  0  0
  9 10  1  0  0  0  0
  9 11  1  0  0  0  0
  9 26  1  0  0  0  0
  7  8  1  0  0  0  0
  7  9  1  0  0  0  0
 30 31  1  0  0  0  0
 30 32  1  0  0  0  0
 30 33  1  0  0  0  0
 28 29  1  0  0  0  0
 28 30  1  0  0  0  0
M  END
$$$$
default_name
  -OEChem-01062215323D

 33 33  0     1  0  0  0  0  0999 V2000
   -4.0702   -3.8485    1.4554 H   0  0  0  0  0  0  0  0  0  0  0  0
   -4.0012   -2.9605    0.8284 C   0  0  0  0  0  0  0  0  0  0  0  0
   -4.7652   -2.2435    1.1234 H   0  0  0  0  0  0  0  0  0  0  0  0
   -4.1352   -3.2385   -0.2156 H   0  0  0  0  0  0  0  0  0  0  0  0
   -2.6362   -2.3395    1.0094 C   0  0  0  0  0  0  0  0  0  0  0  0
   -1.8292   -2.8395    1.7814 O   0  0  0  0  0  0  0  0  0  0  0  0
   -2.3832   -1.2445    0.2964 N   0  0  0  0  0  0  0  0  0  0  0  0
   -3.1102   -0.8685   -0.2946 H   0  0  0  0  0  0  0  0  0  0  0  0
   -1.1292   -0.4875    0.3524 C   0  0  1  0  0  0  0  0  0  0  0  0
   -1.3417    0.5540    0.1083 H   0  0  0  0  0  0  0  0  0  0  0  0
   -0.5624   -0.5432    1.7815 C   0  0  0  0  0  0  0  0  0  0  0  0
   -0.4812   -1.5863    2.0901 H   0  0  0  0  0  0  0  0  0  0  0  0
    0.4451   -0.1239    1.7787 H   0  0  0  0  0  0  0  0  0  0  0  0
   -1.4073    0.1869    2.8077 C   0  0  0  0  0  0  0  0  0  0  0  0
   -1.3071    1.5858    2.9461 C   0  0  0  0  0  0  0  0  0  0  0  0
   -0.6061    2.1413    2.3369 H   0  0  0  0  0  0  0  0  0  0  0  0
   -2.1231    2.2641    3.8724 C   0  0  0  0  0  0  0  0  0  0  0  0
   -2.0427    3.3352    3.9768 H   0  0  0  0  0  0  0  0  0  0  0  0
   -3.0451    1.5408    4.6600 C   0  0  0  0  0  0  0  0  0  0  0  0
   -3.8385    2.1860    5.5540 O   0  0  0  0  0  0  0  0  0  0  0  0
   -3.6190    3.1158    5.6265 H   0  0  0  0  0  0  0  0  0  0  0  0
   -3.1474    0.1416    4.5167 C   0  0  0  0  0  0  0  0  0  0  0  0
   -3.8530   -0.4009    5.1278 H   0  0  0  0  0  0  0  0  0  0  0  0
   -2.3272   -0.5341    3.5933 C   0  0  0  0  0  0  0  0  0  0  0  0
   -2.3998   -1.6103    3.4903 H   0  0  0  0  0  0  0  0  0  0  0  0
   -0.1213   -1.0148   -0.6824 C   0  0  0  0  0  0  0  0  0  0  0  0
   -0.4216   -1.9574   -1.4155 O   0  0  0  0  0  0  0  0  0  0  0  0
    1.0728   -0.4117   -0.7410 N   0  0  0  0  0  0  0  0  0  0  0  0
    1.2620    0.3148   -0.0658 H   0  0  0  0  0  0  0  0  0  0  0  0
    2.1424   -0.7883   -1.6624 C   0  0  0  0  0  0  0  0  0  0  0  0
    1.7526   -0.8426   -2.6804 H   0  0  0  0  0  0  0  0  0  0  0  0
    2.9475   -0.0527   -1.6245 H   0  0  0  0  0  0  0  0  0  0  0  0
    2.5364   -1.7686   -1.3867 H   0  0  0  0  0  0  0  0  0  0  0  0
  5  6  2  0  0  0  0
  5  7  1  0  0  0  0
  2  3  1  0  0  0  0
  2  4  1  0  0  0  0
  2  5  1  0  0  0  0
  1  2  1  0  0  0  0
 26 27  2  0  0  0  0
 26 28  1  0  0  0  0
 24 25  1  0  0  0  0
 22 23  1  0  0  0  0
 22 24  2  0  0  0  0
 20 21  1  0  0  0  0
 19 20  1  0  0  0  0
 19 22  1  0  0  0  0
 17 18  1  0  0  0  0
 17 19  2  0  0  0  0
 15 16  1  0  0  0  0
 15 17  1  0  0  0  0
 14 15  2  0  0  0  0
 14 24  1  0  0  0  0
 11 12  1  0  0  0  0
 11 13  1  0  0  0  0
 11 14  1  0  0  0  0
  9 10  1  0  0  0  0
  9 11  1  0  0  0  0
  9 26  1  0  0  0  0
  7  8  1  0  0  0  0
  7  9  1  0  0  0  0
 30 31  1  0  0  0  0
 30 32  1  0  0  0  0
 30 33  1  0  0  0  0
 28 29  1  0  0  0  0
 28 30  1  0  0  0  0
M  END
$$$$
default_name
  -OEChem-01062215323D

 33 33  0     1  0  0  0  0  0999 V2000
   -4.0702   -3.8485    1.4554 H   0  0  0  0  0  0  0  0  0  0  0  0
   -4.0012   -2.9605    0.8284 C   0  0  0  0  0  0  0  0  0  0  0  0
   -4.7652   -2.2435    1.1234 H   0  0  0  0  0  0  0  0  0  0  0  0
   -4.1352   -3.2385   -0.2156 H   0  0  0  0  0  0  0  0  0  0  0  0
   -2.6362   -2.3395    1.0094 C   0  0  0  0  0  0  0  0  0  0  0  0
   -1.8292   -2.8395    1.7814 O   0  0  0  0  0  0  0  0  0  0  0  0
   -2.3832   -1.2445    0.2964 N   0  0  0  0  0  0  0  0  0  0  0  0
   -3.1102   -0.8685   -0.2946 H   0  0  0  0  0  0  0  0  0  0  0  0
   -1.1292   -0.4875    0.3524 C   0  0  1  0  0  0  0  0  0  0  0  0
   -1.3417    0.5540    0.1083 H   0  0  0  0  0  0  0  0  0  0  0  0
   -0.5624   -0.5432    1.7815 C   0  0  0  0  0  0  0  0  0  0  0  0
   -0.4812   -1.5863    2.0901 H   0  0  0  0  0  0  0  0  0  0  0  0
    0.4451   -0.1239    1.7787 H   0  0  0  0  0  0  0  0  0  0  0  0
   -1.4073    0.1869    2.8077 C   0  0  0  0  0  0  0  0  0  0  0  0
   -1.3071    1.5858    2.9461 C   0  0  0  0  0  0  0  0  0  0  0  0
   -0.6061    2.1413    2.3369 H   0  0  0  0  0  0  0  0  0  0  0  0
   -2.1231    2.2641    3.8724 C   0  0  0  0  0  0  0  0  0  0  0  0
   -2.0427    3.3352    3.9768 H   0  0  0  0  0  0  0  0  0  0  0  0
   -3.0451    1.5408    4.6600 C   0  0  0  0  0  0  0  0  0  0  0  0
   -3.8385    2.1860    5.5540 O   0  0  0  0  0  0  0  0  0  0  0  0
   -3.6190    3.1158    5.6265 H   0  0  0  0  0  0  0  0  0  0  0  0
   -3.1474    0.1416    4.5167 C   0  0  0  0  0  0  0  0  0  0  0  0
   -3.8530   -0.4009    5.1278 H   0  0  0  0  0  0  0  0  0  0  0  0
   -2.3272   -0.5341    3.5933 C   0  0  0  0  0  0  0  0  0  0  0  0
   -2.3998   -1.6103    3.4903 H   0  0  0  0  0  0  0  0  0  0  0  0
   -0.1213   -1.0148   -0.6824 C   0  0  0  0  0  0  0  0  0  0  0  0
   -0.4966   -1.7559   -1.5913 O   0  0  0  0  0  0  0  0  0  0  0  0
    1.1561   -0.6375   -0.5449 N   0  0  0  0  0  0  0  0  0  0  0  0
    1.3925   -0.0765    0.2607 H   0  0  0  0  0  0  0  0  0  0  0  0
    2.2378   -1.0481   -1.4370 C   0  0  0  0  0  0  0  0  0  0  0  0
    1.9522   -0.8653   -2.4744 H   0  0  0  0  0  0  0  0  0  0  0  0
    3.1458   -0.4872   -1.2099 H   0  0  0  0  0  0  0  0  0  0  0  0
    2.4324   -2.1153   -1.3114 H   0  0  0  0  0  0  0  0  0  0  0  0
  5  6  2  0  0  0  0
  5  7  1  0  0  0  0
  2  3  1  0  0  0  0
  2  4  1  0  0  0  0
  2  5  1  0  0  0  0
  1  2  1  0  0  0  0
 26 27  2  0  0  0  0
 26 28  1  0  0  0  0
 24 25  1  0  0  0  0
 22 23  1  0  0  0  0
 22 24  2  0  0  0  0
 20 21  1  0  0  0  0
 19 20  1  0  0  0  0
 19 22  1  0  0  0  0
 17 18  1  0  0  0  0
 17 19  2  0  0  0  0
 15 16  1  0  0  0  0
 15 17  1  0  0  0  0
 14 15  2  0  0  0  0
 14 24  1  0  0  0  0
 11 12  1  0  0  0  0
 11 13  1  0  0  0  0
 11 14  1  0  0  0  0
  9 10  1  0  0  0  0
  9 11  1  0  0  0  0
  9 26  1  0  0  0  0
  7  8  1  0  0  0  0
  7  9  1  0  0  0  0
 30 31  1  0  0  0  0
 30 32  1  0  0  0  0
 30 33  1  0  0  0  0
 28 29  1  0  0  0  0
 28 30  1  0  0  0  0
M  END
$$$$
default_name
  -OEChem-01062215323D

 33 33  0     1  0  0  0  0  0999 V2000
   -4.0702   -3.8485    1.4554 H   0  0  0  0  0  0  0  0  0  0  0  0
   -4.0012   -2.9605    0.8284 C   0  0  0  0  0  0  0  0  0  0  0  0
   -4.7652   -2.2435    1.1234 H   0  0  0  0  0  0  0  0  0  0  0  0
   -4.1352   -3.2385   -0.2156 H   0  0  0  0  0  0  0  0  0  0  0  0
   -2.6362   -2.3395    1.0094 C   0  0  0  0  0  0  0  0  0  0  0  0
   -1.8292   -2.8395    1.7814 O   0  0  0  0  0  0  0  0  0  0  0  0
   -2.3832   -1.2445    0.2964 N   0  0  0  0  0  0  0  0  0  0  0  0
   -3.1102   -0.8685   -0.2946 H   0  0  0  0  0  0  0  0  0  0  0  0
   -1.1292   -0.4875    0.3524 C   0  0  1  0  0  0  0  0  0  0  0  0
   -1.3417    0.5540    0.1083 H   0  0  0  0  0  0  0  0  0  0  0  0
   -0.5624   -0.5432    1.7815 C   0  0  0  0  0  0  0  0  0  0  0  0
   -0.4812   -1.5863    2.0901 H   0  0  0  0  0  0  0  0  0  0  0  0
    0.4451   -0.1239    1.7787 H   0  0  0  0  0  0  0  0  0  0  0  0
   -1.4073    0.1869    2.8077 C   0  0  0  0  0  0  0  0  0  0  0  0
   -1.3071    1.5858    2.9461 C   0  0  0  0  0  0  0  0  0  0  0  0
   -0.6061    2.1413    2.3369 H   0  0  0  0  0  0  0  0  0  0  0  0
   -2.1231    2.2641    3.8724 C   0  0  0  0  0  0  0  0  0  0  0  0
   -2.0427    3.3352    3.9768 H   0  0  0  0  0  0  0  0  0  0  0  0
   -3.0451    1.5408    4.6600 C   0  0  0  0  0  0  0  0  0  0  0  0
   -3.8385    2.1860    5.5540 O   0  0  0  0  0  0  0  0  0  0  0  0
   -3.6190    3.1158    5.6265 H   0  0  0  0  0  0  0  0  0  0  0  0
   -3.1474    0.1416    4.5167 C   0  0  0  0  0  0  0  0  0  0  0  0
   -3.8530   -0.4009    5.1278 H   0  0  0  0  0  0  0  0  0  0  0  0
   -2.3272   -0.5341    3.5933 C   0  0  0  0  0  0  0  0  0  0  0  0
   -2.3998   -1.6103    3.4903 H   0  0  0  0  0  0  0  0  0  0  0  0
   -0.1213   -1.0148   -0.6824 C   0  0  0  0  0  0  0  0  0  0  0  0
   -0.5184   -1.5183   -1.7336 O   0  0  0  0  0  0  0  0  0  0  0  0
    1.1798   -0.9033   -0.3863 N   0  0  0  0  0  0  0  0  0  0  0  0
    1.4214   -0.5325    0.5213 H   0  0  0  0  0  0  0  0  0  0  0  0
    2.2647   -1.3540   -1.2549 C   0  0  0  0  0  0  0  0  0  0  0  0
    2.1228   -0.9569   -2.2616 H   0  0  0  0  0  0  0  0  0  0  0  0
    3.2249   -1.0117   -0.8655 H   0  0  0  0  0  0  0  0  0  0  0  0
    2.2648   -2.4447   -1.3068 H   0  0  0  0  0  0  0  0  0  0  0  0
  5  6  2  0  0  0  0
  5  7  1  0  0  0  0
  2  3  1  0  0  0  0
  2  4  1  0  0  0  0
  2  5  1  0  0  0  0
  1  2  1  0  0  0  0
 26 27  2  0  0  0  0
 26 28  1  0  0  0  0
 24 25  1  0  0  0  0
 22 23  1  0  0  0  0
 22 24  2  0  0  0  0
 20 21  1  0  0  0  0
 19 20  1  0  0  0  0
 19 22  1  0  0  0  0
 17 18  1  0  0  0  0
 17 19  2  0  0  0  0
 15 16  1  0  0  0  0
 15 17  1  0  0  0  0
 14 15  2  0  0  0  0
 14 24  1  0  0  0  0
 11 12  1  0  0  0  0
 11 13  1  0  0  0  0
 11 14  1  0  0  0  0
  9 10  1  0  0  0  0
  9 11  1  0  0  0  0
  9 26  1  0  0  0  0
  7  8  1  0  0  0  0
  7  9  1  0  0  0  0
 30 31  1  0  0  0  0
 30 32  1  0  0  0  0
 30 33  1  0  0  0  0
 28 29  1  0  0  0  0
 28 30  1  0  0  0  0
M  END
$$$$
default_name
  -OEChem-01062215323D

 33 33  0     1  0  0  0  0  0999 V2000
   -4.0702   -3.8485    1.4554 H   0  0  0  0  0  0  0  0  0  0  0  0
   -4.0012   -2.9605    0.8284 C   0  0  0  0  0  0  0  0  0  0  0  0
   -4.7652   -2.2435    1.1234 H   0  0  0  0  0  0  0  0  0  0  0  0
   -4.1352   -3.2385   -0.2156 H   0  0  0  0  0  0  0  0  0  0  0  0
   -2.6362   -2.3395    1.0094 C   0  0  0  0  0  0  0  0  0  0  0  0
   -1.8292   -2.8395    1.7814 O   0  0  0  0  0  0  0  0  0  0  0  0
   -2.3832   -1.2445    0.2964 N   0  0  0  0  0  0  0  0  0  0  0  0
   -3.1102   -0.8685   -0.2946 H   0  0  0  0  0  0  0  0  0  0  0  0
   -1.1292   -0.4875    0.3524 C   0  0  1  0  0  0  0  0  0  0  0  0
   -1.3417    0.5540    0.1083 H   0  0  0  0  0  0  0  0  0  0  0  0
   -0.5624   -0.5432    1.7815 C   0  0  0  0  0  0  0  0  0  0  0  0
   -0.4812   -1.5863    2.0901 H   0  0  0  0  0  0  0  0  0  0  0  0
    0.4451   -0.1239    1.7787 H   0  0  0  0  0  0  0  0  0  0  0  0
   -1.4073    0.1869    2.8077 C   0  0  0  0  0  0  0  0  0  0  0  0
   -1.3071    1.5858    2.9461 C   0  0  0  0  0  0  0  0  0  0  0  0
   -0.6061    2.1413    2.3369 H   0  0  0  0  0  0  0  0  0  0  0  0
   -2.1231    2.2641    3.8724 C   0  0  0  0  0  0  0  0  0  0  0  0
   -2.0427    3.3352    3.9768 H   0  0  0  0  0  0  0  0  0  0  0  0
   -3.0451    1.5408    4.6600 C   0  0  0  0  0  0  0  0  0  0  0  0
   -3.8385    2.1860    5.5540 O   0  0  0  0  0  0  0  0  0  0  0  0
   -3.6190    3.1158    5.6265 H   0  0  0  0  0  0  0  0  0  0  0  0
   -3.1474    0.1416    4.5167 C   0  0  0  0  0  0  0  0  0  0  0  0
   -3.8530   -0.4009    5.1278 H   0  0  0  0  0  0  0  0  0  0  0  0
   -2.3272   -0.5341    3.5933 C   0  0  0  0  0  0  0  0  0  0  0  0
   -2.3998   -1.6103    3.4903 H   0  0  0  0  0  0  0  0  0  0  0  0
   -0.1213   -1.0148   -0.6824 C   0  0  0  0  0  0  0  0  0  0  0  0
   -0.4854   -1.2609   -1.8326 O   0  0  0  0  0  0  0  0  0  0  0  0
    1.1423   -1.1912   -0.2761 N   0  0  0  0  0  0  0  0  0  0  0  0
    1.3468   -1.0222    0.6982 H   0  0  0  0  0  0  0  0  0  0  0  0
    2.2213   -1.6850   -1.1286 C   0  0  0  0  0  0  0  0  0  0  0  0
    2.2527   -1.1112   -2.0564 H   0  0  0  0  0  0  0  0  0  0  0  0
    3.1794   -1.5906   -0.6149 H   0  0  0  0  0  0  0  0  0  0  0  0
    2.0451   -2.7346   -1.3730 H   0  0  0  0  0  0  0  0  0  0  0  0
  5  6  2  0  0  0  0
  5  7  1  0  0  0  0
  2  3  1  0  0  0  0
  2  4  1  0  0  0  0
  2  5  1  0  0  0  0
  1  2  1  0  0  0  0
 26 27  2  0  0  0  0
 26 28  1  0  0  0  0
 24 25  1  0  0  0  0
 22 23  1  0  0  0  0
 22 24  2  0  0  0  0
 20 21  1  0  0  0  0
 19 20  1  0  0  0  0
 19 22  1  0  0  0  0
 17 18  1  0  0  0  0
 17 19  2  0  0  0  0
 15 16  1  0  0  0  0
 15 17  1  0  0  0  0
 14 15  2  0  0  0  0
 14 24  1  0  0  0  0
 11 12  1  0  0  0  0
 11 13  1  0  0  0  0
 11 14  1  0  0  0  0
  9 10  1  0  0  0  0
  9 11  1  0  0  0  0
  9 26  1  0  0  0  0
  7  8  1  0  0  0  0
  7  9  1  0  0  0  0
 30 31  1  0  0  0  0
 30 32  1  0  0  0  0
 30 33  1  0  0  0  0
 28 29  1  0  0  0  0
 28 30  1  0  0  0  0
M  END
$$$$
default_name
  -OEChem-01062215323D

 33 33  0     1  0  0  0  0  0999 V2000
   -4.0702   -3.8485    1.4554 H   0  0  0  0  0  0  0  0  0  0  0  0
   -4.0012   -2.9605    0.8284 C   0  0  0  0  0  0  0  0  0  0  0  0
   -4.7652   -2.2435    1.1234 H   0  0  0  0  0  0  0  0  0  0  0  0
   -4.1352   -3.2385   -0.2156 H   0  0  0  0  0  0  0  0  0  0  0  0
   -2.6362   -2.3395    1.0094 C   0  0  0  0  0  0  0  0  0  0  0  0
   -1.8292   -2.8395    1.7814 O   0  0  0  0  0  0  0  0  0  0  0  0
   -2.3832   -1.2445    0.2964 N   0  0  0  0  0  0  0  0  0  0  0  0
   -3.1102   -0.8685   -0.2946 H   0  0  0  0  0  0  0  0  0  0  0  0
   -1.1292   -0.4875    0.3524 C   0  0  1  0  0  0  0  0  0  0  0  0
   -1.3417    0.5540    0.1083 H   0  0  0  0  0  0  0  0  0  0  0  0
   -0.5624   -0.5432    1.7815 C   0  0  0  0  0  0  0  0  0  0  0  0
   -0.4812   -1.5863    2.0901 H   0  0  0  0  0  0  0  0  0  0  0  0
    0.4451   -0.1239    1.7787 H   0  0  0  0  0  0  0  0  0  0  0  0
   -1.4073    0.1869    2.8077 C   0  0  0  0  0  0  0  0  0  0  0  0
   -1.3071    1.5858    2.9461 C   0  0  0  0  0  0  0  0  0  0  0  0
   -0.6061    2.1413    2.3369 H   0  0  0  0  0  0  0  0  0  0  0  0
   -2.1231    2.2641    3.8724 C   0  0  0  0  0  0  0  0  0  0  0  0
   -2.0427    3.3352    3.9768 H   0  0  0  0  0  0  0  0  0  0  0  0
   -3.0451    1.5408    4.6600 C   0  0  0  0  0  0  0  0  0  0  0  0
   -3.8385    2.1860    5.5540 O   0  0  0  0  0  0  0  0  0  0  0  0
   -3.6190    3.1158    5.6265 H   0  0  0  0  0  0  0  0  0  0  0  0
   -3.1474    0.1416    4.5167 C   0  0  0  0  0  0  0  0  0  0  0  0
   -3.8530   -0.4009    5.1278 H   0  0  0  0  0  0  0  0  0  0  0  0
   -2.3272   -0.5341    3.5933 C   0  0  0  0  0  0  0  0  0  0  0  0
   -2.3998   -1.6103    3.4903 H   0  0  0  0  0  0  0  0  0  0  0  0
   -0.1213   -1.0148   -0.6824 C   0  0  0  0  0  0  0  0  0  0  0  0
   -0.3999   -1.0012   -1.8817 O   0  0  0  0  0  0  0  0  0  0  0  0
    1.0462   -1.4814   -0.2218 N   0  0  0  0  0  0  0  0  0  0  0  0
    1.1738   -1.5123    0.7793 H   0  0  0  0  0  0  0  0  0  0  0  0
    2.1105   -2.0186   -1.0665 C   0  0  0  0  0  0  0  0  0  0  0  0
    2.3331   -1.3177   -1.8728 H   0  0  0  0  0  0  0  0  0  0  0  0
    3.0123   -2.1844   -0.4750 H   0  0  0  0  0  0  0  0  0  0  0  0
    1.7883   -2.9650   -1.5057 H   0  0  0  0  0  0  0  0  0  0  0  0
  5  6  2  0  0  0  0
  5  7  1  0  0  0  0
  2  3  1  0  0  0  0
  2  4  1  0  0  0  0
  2  5  1  0  0  0  0
  1  2  1  0  0  0  0
 26 27  2  0  0  0  0
 26 28  1  0  0  0  0
 24 25  1  0  0  0  0
 22 23  1  0  0  0  0
 22 24  2  0  0  0  0
 20 21  1  0  0  0  0
 19 20  1  0  0  0  0
 19 22  1  0  0  0  0
 17 18  1  0  0  0  0
 17 19  2  0  0  0  0
 15 16  1  0  0  0  0
 15 17  1  0  0  0  0
 14 15  2  0  0  0  0
 14 24  1  0  0  0  0
 11 12  1  0  0  0  0
 11 13  1  0  0  0  0
 11 14  1  0  0  0  0
  9 10  1  0  0  0  0
  9 11  1  0  0  0  0
  9 26  1  0  0  0  0
  7  8  1  0  0  0  0
  7  9  1  0  0  0  0
 30 31  1  0  0  0  0
 30 32  1  0  0  0  0
 30 33  1  0  0  0  0
 28 29  1  0  0  0  0
 28 30  1  0  0  0  0
M  END
$$$$
default_name
  -OEChem-01062215323D

 33 33  0     1  0  0  0  0  0999 V2000
   -4.0702   -3.8485    1.4554 H   0  0  0  0  0  0  0  0  0  0  0  0
   -4.0012   -2.9605    0.8284 C   0  0  0  0  0  0  0  0  0  0  0  0
   -4.7652   -2.2435    1.1234 H   0  0  0  0  0  0  0  0  0  0  0  0
   -4.1352   -3.2385   -0.2156 H   0  0  0  0  0  0  0  0  0  0  0  0
   -2.6362   -2.3395    1.0094 C   0  0  0  0  0  0  0  0  0  0  0  0
   -1.8292   -2.8395    1.7814 O   0  0  0  0  0  0  0  0  0  0  0  0
   -2.3832   -1.2445    0.2964 N   0  0  0  0  0  0  0  0  0  0  0  0
   -3.1102   -0.8685   -0.2946 H   0  0  0  0  0  0  0  0  0  0  0  0
   -1.1292   -0.4875    0.3524 C   0  0  1  0  0  0  0  0  0  0  0  0
   -1.3417    0.5540    0.1083 H   0  0  0  0  0  0  0  0  0  0  0  0
   -0.5624   -0.5432    1.7815 C   0  0  0  0  0  0  0  0  0  0  0  0
   -0.4812   -1.5863    2.0901 H   0  0  0  0  0  0  0  0  0  0  0  0
    0.4451   -0.1239    1.7787 H   0  0  0  0  0  0  0  0  0  0  0  0
   -1.4073    0.1869    2.8077 C   0  0  0  0  0  0  0  0  0  0  0  0
   -1.3071    1.5858    2.9461 C   0  0  0  0  0  0  0  0  0  0  0  0
   -0.6061    2.1413    2.3369 H   0  0  0  0  0  0  0  0  0  0  0  0
   -2.1231    2.2641    3.8724 C   0  0  0  0  0  0  0  0  0  0  0  0
   -2.0427    3.3352    3.9768 H   0  0  0  0  0  0  0  0  0  0  0  0
   -3.0451    1.5408    4.6600 C   0  0  0  0  0  0  0  0  0  0  0  0
   -3.8385    2.1860    5.5540 O   0  0  0  0  0  0  0  0  0  0  0  0
   -3.6190    3.1158    5.6265 H   0  0  0  0  0  0  0  0  0  0  0  0
   -3.1474    0.1416    4.5167 C   0  0  0  0  0  0  0  0  0  0  0  0
   -3.8530   -0.4009    5.1278 H   0  0  0  0  0  0  0  0  0  0  0  0
   -2.3272   -0.5341    3.5933 C   0  0  0  0  0  0  0  0  0  0  0  0
   -2.3998   -1.6103    3.4903 H   0  0  0  0  0  0  0  0  0  0  0  0
   -0.1213   -1.0148   -0.6824 C   0  0  0  0  0  0  0  0  0  0  0  0
   -0.2678   -0.7570   -1.8775 O   0  0  0  0  0  0  0  0  0  0  0  0
    0.8981   -1.7541   -0.2271 N   0  0  0  0  0  0  0  0  0  0  0  0
    0.9141   -1.9693    0.7593 H   0  0  0  0  0  0  0  0  0  0  0  0
    1.9398   -2.3321   -1.0730 C   0  0  0  0  0  0  0  0  0  0  0  0
    2.3585   -1.5622   -1.7235 H   0  0  0  0  0  0  0  0  0  0  0  0
    2.7352   -2.7525   -0.4554 H   0  0  0  0  0  0  0  0  0  0  0  0
    1.5119   -3.1204   -1.6957 H   0  0  0  0  0  0  0  0  0  0  0  0
  5  6  2  0  0  0  0
  5  7  1  0  0  0  0
  2  3  1  0  0  0  0
  2  4  1  0  0  0  0
  2  5  1  0  0  0  0
  1  2  1  0  0  0  0
 26 27  2  0  0  0  0
 26 28  1  0  0  0  0
 24 25  1  0  0  0  0
 22 23  1  0  0  0  0
 22 24  2  0  0  0  0
 20 21  1  0  0  0  0
 19 20  1  0  0  0  0
 19 22  1  0  0  0  0
 17 18  1  0  0  0  0
 17 19  2  0  0  0  0
 15 16  1  0  0  0  0
 15 17  1  0  0  0  0
 14 15  2  0  0  0  0
 14 24  1  0  0  0  0
 11 12  1  0  0  0  0
 11 13  1  0  0  0  0
 11 14  1  0  0  0  0
  9 10  1  0  0  0  0
  9 11  1  0  0  0  0
  9 26  1  0  0  0  0
  7  8  1  0  0  0  0
  7  9  1  0  0  0  0
 30 31  1  0  0  0  0
 30 32  1  0  0  0  0
 30 33  1  0  0  0  0
 28 29  1  0  0  0  0
 28 30  1  0  0  0  0
M  END
$$$$
default_name
  -OEChem-01062215323D

 33 33  0     1  0  0  0  0  0999 V2000
   -4.0702   -3.8485    1.4554 H   0  0  0  0  0  0  0  0  0  0  0  0
   -4.0012   -2.9605    0.8284 C   0  0  0  0  0  0  0  0  0  0  0  0
   -4.7652   -2.2435    1.1234 H   0  0  0  0  0  0  0  0  0  0  0  0
   -4.1352   -3.2385   -0.2156 H   0  0  0  0  0  0  0  0  0  0  0  0
   -2.6362   -2.3395    1.0094 C   0  0  0  0  0  0  0  0  0  0  0  0
   -1.8292   -2.8395    1.7814 O   0  0  0  0  0  0  0  0  0  0  0  0
   -2.3832   -1.2445    0.2964 N   0  0  0  0  0  0  0  0  0  0  0  0
   -3.1102   -0.8685   -0.2946 H   0  0  0  0  0  0  0  0  0  0  0  0
   -1.1292   -0.4875    0.3524 C   0  0  1  0  0  0  0  0  0  0  0  0
   -1.3417    0.5540    0.1083 H   0  0  0  0  0  0  0  0  0  0  0  0
   -0.5624   -0.5432    1.7815 C   0  0  0  0  0  0  0  0  0  0  0  0
   -0.4812   -1.5863    2.0901 H   0  0  0  0  0  0  0  0  0  0  0  0
    0.4451   -0.1239    1.7787 H   0  0  0  0  0  0  0  0  0  0  0  0
   -1.4073    0.1869    2.8077 C   0  0  0  0  0  0  0  0  0  0  0  0
   -1.3071    1.5858    2.9461 C   0  0  0  0  0  0  0  0  0  0  0  0
   -0.6061    2.1413    2.3369 H   0  0  0  0  0  0  0  0  0  0  0  0
   -2.1231    2.2641    3.8724 C   0  0  0  0  0  0  0  0  0  0  0  0
   -2.0427    3.3352    3.9768 H   0  0  0  0  0  0  0  0  0  0  0  0
   -3.0451    1.5408    4.6600 C   0  0  0  0  0  0  0  0  0  0  0  0
   -3.8385    2.1860    5.5540 O   0  0  0  0  0  0  0  0  0  0  0  0
   -3.6190    3.1158    5.6265 H   0  0  0  0  0  0  0  0  0  0  0  0
   -3.1474    0.1416    4.5167 C   0  0  0  0  0  0  0  0  0  0  0  0
   -3.8530   -0.4009    5.1278 H   0  0  0  0  0  0  0  0  0  0  0  0
   -2.3272   -0.5341    3.5933 C   0  0  0  0  0  0  0  0  0  0  0  0
   -2.3998   -1.6103    3.4903 H   0  0  0  0  0  0  0  0  0  0  0  0
   -0.1213   -1.0148   -0.6824 C   0  0  0  0  0  0  0  0  0  0  0  0
   -0.0980   -0.5448   -1.8202 O   0  0  0  0  0  0  0  0  0  0  0  0
    0.7079   -1.9909   -0.2917 N   0  0  0  0  0  0  0  0  0  0  0  0
    0.5854   -2.3621    0.6393 H   0  0  0  0  0  0  0  0  0  0  0  0
    1.7210   -2.6040   -1.1475 C   0  0  0  0  0  0  0  0  0  0  0  0
    2.3272   -1.8283   -1.6184 H   0  0  0  0  0  0  0  0  0  0  0  0
    2.3668   -3.2564   -0.5575 H   0  0  0  0  0  0  0  0  0  0  0  0
    1.2348   -3.1902   -1.9301 H   0  0  0  0  0  0  0  0  0  0  0  0
  5  6  2  0  0  0  0
  5  7  1  0  0  0  0
  2  3  1  0  0  0  0
  2  4  1  0  0  0  0
  2  5  1  0  0  0  0
  1  2  1  0  0  0  0
 26 27  2  0  0  0  0
 26 28  1  0  0  0  0
 24 25  1  0  0  0  0
 22 23  1  0  0  0  0
 22 24  2  0  0  0  0
 20 21  1  0  0  0  0
 19 20  1  0  0  0  0
 19 22  1  0  0  0  0
 17 18  1  0  0  0  0
 17 19  2  0  0  0  0
 15 16  1  0  0  0  0
 15 17  1  0  0  0  0
 14 15  2  0  0  0  0
 14 24  1  0  0  0  0
 11 12  1  0  0  0  0
 11 13  1  0  0  0  0
 11 14  1  0  0  0  0
  9 10  1  0  0  0  0
  9 11  1  0  0  0  0
  9 26  1  0  0  0  0
  7  8  1  0  0  0  0
  7  9  1  0  0  0  0
 30 31  1  0  0  0  0
 30 32  1  0  0  0  0
 30 33  1  0  0  0  0
 28 29  1  0  0  0  0
 28 30  1  0  0  0  0
M  END
$$$$
default_name
  -OEChem-01062215323D

 33 33  0     1  0  0  0  0  0999 V2000
   -4.0702   -3.8485    1.4554 H   0  0  0  0  0  0  0  0  0  0  0  0
   -4.0012   -2.9605    0.8284 C   0  0  0  0  0  0  0  0  0  0  0  0
   -4.7652   -2.2435    1.1234 H   0  0  0  0  0  0  0  0  0  0  0  0
   -4.1352   -3.2385   -0.2156 H   0  0  0  0  0  0  0  0  0  0  0  0
   -2.6362   -2.3395    1.0094 C   0  0  0  0  0  0  0  0  0  0  0  0
   -1.8292   -2.8395    1.7814 O   0  0  0  0  0  0  0  0  0  0  0  0
   -2.3832   -1.2445    0.2964 N   0  0  0  0  0  0  0  0  0  0  0  0
   -3.1102   -0.8685   -0.2946 H   0  0  0  0  0  0  0  0  0  0  0  0
   -1.1292   -0.4875    0.3524 C   0  0  1  0  0  0  0  0  0  0  0  0
   -1.3417    0.5540    0.1083 H   0  0  0  0  0  0  0  0  0  0  0  0
   -0.5624   -0.5432    1.7815 C   0  0  0  0  0  0  0  0  0  0  0  0
   -0.4812   -1.5863    2.0901 H   0  0  0  0  0  0  0  0  0  0  0  0
    0.4451   -0.1239    1.7787 H   0  0  0  0  0  0  0  0  0  0  0  0
   -1.4073    0.1869    2.8077 C   0  0  0  0  0  0  0  0  0  0  0  0
   -1.3071    1.5858    2.9461 C   0  0  0  0  0  0  0  0  0  0  0  0
   -0.6061    2.1413    2.3369 H   0  0  0  0  0  0  0  0  0  0  0  0
   -2.1231    2.2641    3.8724 C   0  0  0  0  0  0  0  0  0  0  0  0
   -2.0427    3.3352    3.9768 H   0  0  0  0  0  0  0  0  0  0  0  0
   -3.0451    1.5408    4.6600 C   0  0  0  0  0  0  0  0  0  0  0  0
   -3.8385    2.1860    5.5540 O   0  0  0  0  0  0  0  0  0  0  0  0
   -3.6190    3.1158    5.6265 H   0  0  0  0  0  0  0  0  0  0  0  0
   -3.1474    0.1416    4.5167 C   0  0  0  0  0  0  0  0  0  0  0  0
   -3.8530   -0.4009    5.1278 H   0  0  0  0  0  0  0  0  0  0  0  0
   -2.3272   -0.5341    3.5933 C   0  0  0  0  0  0  0  0  0  0  0  0
   -2.3998   -1.6103    3.4903 H   0  0  0  0  0  0  0  0  0  0  0  0
   -0.1213   -1.0148   -0.6824 C   0  0  0  0  0  0  0  0  0  0  0  0
    0.0979   -0.3791   -1.7139 O   0  0  0  0  0  0  0  0  0  0  0  0
    0.4887   -2.1755   -0.4111 N   0  0  0  0  0  0  0  0  0  0  0  0
    0.2102   -2.6639    0.4276 H   0  0  0  0  0  0  0  0  0  0  0  0
    1.4688   -2.8160   -1.2851 C   0  0  0  0  0  0  0  0  0  0  0  0
    2.2413   -2.0976   -1.5648 H   0  0  0  0  0  0  0  0  0  0  0  0
    1.9322   -3.6615   -0.7743 H   0  0  0  0  0  0  0  0  0  0  0  0
    0.9757   -3.1695   -2.1930 H   0  0  0  0  0  0  0  0  0  0  0  0
  5  6  2  0  0  0  0
  5  7  1  0  0  0  0
  2  3  1  0  0  0  0
  2  4  1  0  0  0  0
  2  5  1  0  0  0  0
  1  2  1  0  0  0  0
 26 27  2  0  0  0  0
 26 28  1  0  0  0  0
 24 25  1  0  0  0  0
 22 23  1  0  0  0  0
 22 24  2  0  0  0  0
 20 21  1  0  0  0  0
 19 20  1  0  0  0  0
 19 22  1  0  0  0  0
 17 18  1  0  0  0  0
 17 19  2  0  0  0  0
 15 16  1  0  0  0  0
 15 17  1  0  0  0  0
 14 15  2  0  0  0  0
 14 24  1  0  0  0  0
 11 12  1  0  0  0  0
 11 13  1  0  0  0  0
 11 14  1  0  0  0  0
  9 10  1  0  0  0  0
  9 11  1  0  0  0  0
  9 26  1  0  0  0  0
  7  8  1  0  0  0  0
  7  9  1  0  0  0  0
 30 31  1  0  0  0  0
 30 32  1  0  0  0  0
 30 33  1  0  0  0  0
 28 29  1  0  0  0  0
 28 30  1  0  0  0  0
M  END
$$$$
default_name
  -OEChem-01062215323D

 33 33  0     1  0  0  0  0  0999 V2000
   -4.0702   -3.8485    1.4554 H   0  0  0  0  0  0  0  0  0  0  0  0
   -4.0012   -2.9605    0.8284 C   0  0  0  0  0  0  0  0  0  0  0  0
   -4.7652   -2.2435    1.1234 H   0  0  0  0  0  0  0  0  0  0  0  0
   -4.1352   -3.2385   -0.2156 H   0  0  0  0  0  0  0  0  0  0  0  0
   -2.6362   -2.3395    1.0094 C   0  0  0  0  0  0  0  0  0  0  0  0
   -1.8292   -2.8395    1.7814 O   0  0  0  0  0  0  0  0  0  0  0  0
   -2.3832   -1.2445    0.2964 N   0  0  0  0  0  0  0  0  0  0  0  0
   -3.1102   -0.8685   -0.2946 H   0  0  0  0  0  0  0  0  0  0  0  0
   -1.1292   -0.4875    0.3524 C   0  0  1  0  0  0  0  0  0  0  0  0
   -1.3417    0.5540    0.1083 H   0  0  0  0  0  0  0  0  0  0  0  0
   -0.5624   -0.5432    1.7815 C   0  0  0  0  0  0  0  0  0  0  0  0
   -0.4812   -1.5863    2.0901 H   0  0  0  0  0  0  0  0  0  0  0  0
    0.4451   -0.1239    1.7787 H   0  0  0  0  0  0  0  0  0  0  0  0
   -1.4073    0.1869    2.8077 C   0  0  0  0  0  0  0  0  0  0  0  0
   -1.3071    1.5858    2.9461 C   0  0  0  0  0  0  0  0  0  0  0  0
   -0.6061    2.1413    2.3369 H   0  0  0  0  0  0  0  0  0  0  0  0
   -2.1231    2.2641    3.8724 C   0  0  0  0  0  0  0  0  0  0  0  0
   -2.0427    3.3352    3.9768 H   0  0  0  0  0  0  0  0  0  0  0  0
   -3.0451    1.5408    4.6600 C   0  0  0  0  0  0  0  0  0  0  0  0
   -3.8385    2.1860    5.5540 O   0  0  0  0  0  0  0  0  0  0  0  0
   -3.6190    3.1158    5.6265 H   0  0  0  0  0  0  0  0  0  0  0  0
   -3.1474    0.1416    4.5167 C   0  0  0  0  0  0  0  0  0  0  0  0
   -3.8530   -0.4009    5.1278 H   0  0  0  0  0  0  0  0  0  0  0  0
   -2.3272   -0.5341    3.5933 C   0  0  0  0  0  0  0  0  0  0  0  0
   -2.3998   -1.6103    3.4903 H   0  0  0  0  0  0  0  0  0  0  0  0
   -0.1213   -1.0148   -0.6824 C   0  0  0  0  0  0  0  0  0  0  0  0
    0.3066   -0.2712   -1.5656 O   0  0  0  0  0  0  0  0  0  0  0  0
    0.2554   -2.2954   -0.5772 N   0  0  0  0  0  0  0  0  0  0  0  0
   -0.1861   -2.8541    0.1386 H   0  0  0  0  0  0  0  0  0  0  0  0
    1.2006   -2.9534   -1.4764 C   0  0  0  0  0  0  0  0  0  0  0  0
    2.1067   -2.3518   -1.5663 H   0  0  0  0  0  0  0  0  0  0  0  0
    1.4611   -3.9405   -1.0909 H   0  0  0  0  0  0  0  0  0  0  0  0
    0.7524   -3.0597   -2.4664 H   0  0  0  0  0  0  0  0  0  0  0  0
  5  6  2  0  0  0  0
  5  7  1  0  0  0  0
  2  3  1  0  0  0  0
  2  4  1  0  0  0  0
  2  5  1  0  0  0  0
  1  2  1  0  0  0  0
 26 27  2  0  0  0  0
 26 28  1  0  0  0  0
 24 25  1  0  0  0  0
 22 23  1  0  0  0  0
 22 24  2  0  0  0  0
 20 21  1  0  0  0  0
 19 20  1  0  0  0  0
 19 22  1  0  0  0  0
 17 18  1  0  0  0  0
 17 19  2  0  0  0  0
 15 16  1  0  0  0  0
 15 17  1  0  0  0  0
 14 15  2  0  0  0  0
 14 24  1  0  0  0  0
 11 12  1  0  0  0  0
 11 13  1  0  0  0  0
 11 14  1  0  0  0  0
  9 10  1  0  0  0  0
  9 11  1  0  0  0  0
  9 26  1  0  0  0  0
  7  8  1  0  0  0  0
  7  9  1  0  0  0  0
 30 31  1  0  0  0  0
 30 32  1  0  0  0  0
 30 33  1  0  0  0  0
 28 29  1  0  0  0  0
 28 30  1  0  0  0  0
M  END
$$$$
default_name
  -OEChem-01062215323D

 33 33  0     1  0  0  0  0  0999 V2000
   -4.0702   -3.8485    1.4554 H   0  0  0  0  0  0  0  0  0  0  0  0
   -4.0012   -2.9605    0.8284 C   0  0  0  0  0  0  0  0  0  0  0  0
   -4.7652   -2.2435    1.1234 H   0  0  0  0  0  0  0  0  0  0  0  0
   -4.1352   -3.2385   -0.2156 H   0  0  0  0  0  0  0  0  0  0  0  0
   -2.6362   -2.3395    1.0094 C   0  0  0  0  0  0  0  0  0  0  0  0
   -1.8292   -2.8395    1.7814 O   0  0  0  0  0  0  0  0  0  0  0  0
   -2.3832   -1.2445    0.2964 N   0  0  0  0  0  0  0  0  0  0  0  0
   -3.1102   -0.8685   -0.2946 H   0  0  0  0  0  0  0  0  0  0  0  0
   -1.1292   -0.4875    0.3524 C   0  0  1  0  0  0  0  0  0  0  0  0
   -1.3417    0.5540    0.1083 H   0  0  0  0  0  0  0  0  0  0  0  0
   -0.5624   -0.5432    1.7815 C   0  0  0  0  0  0  0  0  0  0  0  0
   -0.4812   -1.5863    2.0901 H   0  0  0  0  0  0  0  0  0  0  0  0
    0.4451   -0.1239    1.7787 H   0  0  0  0  0  0  0  0  0  0  0  0
   -1.4073    0.1869    2.8077 C   0  0  0  0  0  0  0  0  0  0  0  0
   -1.3071    1.5858    2.9461 C   0  0  0  0  0  0  0  0  0  0  0  0
   -0.6061    2.1413    2.3369 H   0  0  0  0  0  0  0  0  0  0  0  0
   -2.1231    2.2641    3.8724 C   0  0  0  0  0  0  0  0  0  0  0  0
   -2.0427    3.3352    3.9768 H   0  0  0  0  0  0  0  0  0  0  0  0
   -3.0451    1.5408    4.6600 C   0  0  0  0  0  0  0  0  0  0  0  0
   -3.8385    2.1860    5.5540 O   0  0  0  0  0  0  0  0  0  0  0  0
   -3.6190    3.1158    5.6265 H   0  0  0  0  0  0  0  0  0  0  0  0
   -3.1474    0.1416    4.5167 C   0  0  0  0  0  0  0  0  0  0  0  0
   -3.8530   -0.4009    5.1278 H   0  0  0  0  0  0  0  0  0  0  0  0
   -2.3272   -0.5341    3.5933 C   0  0  0  0  0  0  0  0  0  0  0  0
   -2.3998   -1.6103    3.4903 H   0  0  0  0  0  0  0  0  0  0  0  0
   -0.1213   -1.0148   -0.6824 C   0  0  0  0  0  0  0  0  0  0  0  0
    0.5137   -0.2285   -1.3856 O   0  0  0  0  0  0  0  0  0  0  0  0
    0.0240   -2.3424   -0.7787 N   0  0  0  0  0  0  0  0  0  0  0  0
   -0.5763   -2.9199   -0.2079 H   0  0  0  0  0  0  0  0  0  0  0  0
    0.9345   -3.0070   -1.7082 C   0  0  0  0  0  0  0  0  0  0  0  0
    1.9325   -2.5737   -1.6229 H   0  0  0  0  0  0  0  0  0  0  0  0
    0.9856   -4.0741   -1.4860 H   0  0  0  0  0  0  0  0  0  0  0  0
    0.5801   -2.8685   -2.7317 H   0  0  0  0  0  0  0  0  0  0  0  0
  5  6  2  0  0  0  0
  5  7  1  0  0  0  0
  2  3  1  0  0  0  0
  2  4  1  0  0  0  0
  2  5  1  0  0  0  0
  1  2  1  0  0  0  0
 26 27  2  0  0  0  0
 26 28  1  0  0  0  0
 24 25  1  0  0  0  0
 22 23  1  0  0  0  0
 22 24  2  0  0  0  0
 20 21  1  0  0  0  0
 19 20  1  0  0  0  0
 19 22  1  0  0  0  0
 17 18  1  0  0  0  0
 17 19  2  0  0  0  0
 15 16  1  0  0  0  0
 15 17  1  0  0  0  0
 14 15  2  0  0  0  0
 14 24  1  0  0  0  0
 11 12  1  0  0  0  0
 11 13  1  0  0  0  0
 11 14  1  0  0  0  0
  9 10  1  0  0  0  0
  9 11  1  0  0  0  0
  9 26  1  0  0  0  0
  7  8  1  0  0  0  0
  7  9  1  0  0  0  0
 30 31  1  0  0  0  0
 30 32  1  0  0  0  0
 30 33  1  0  0  0  0
 28 29  1  0  0  0  0
 28 30  1  0  0  0  0
M  END
$$$$
default_name
  -OEChem-01062215323D

 33 33  0     1  0  0  0  0  0999 V2000
   -4.0702   -3.8485    1.4554 H   0  0  0  0  0  0  0  0  0  0  0  0
   -4.0012   -2.9605    0.8284 C   0  0  0  0  0  0  0  0  0  0  0  0
   -4.7652   -2.2435    1.1234 H   0  0  0  0  0  0  0  0  0  0  0  0
   -4.1352   -3.2385   -0.2156 H   0  0  0  0  0  0  0  0  0  0  0  0
   -2.6362   -2.3395    1.0094 C   0  0  0  0  0  0  0  0  0  0  0  0
   -1.8292   -2.8395    1.7814 O   0  0  0  0  0  0  0  0  0  0  0  0
   -2.3832   -1.2445    0.2964 N   0  0  0  0  0  0  0  0  0  0  0  0
   -3.1102   -0.8685   -0.2946 H   0  0  0  0  0  0  0  0  0  0  0  0
   -1.1292   -0.4875    0.3524 C   0  0  1  0  0  0  0  0  0  0  0  0
   -1.3417    0.5540    0.1083 H   0  0  0  0  0  0  0  0  0  0  0  0
   -0.5624   -0.5432    1.7815 C   0  0  0  0  0  0  0  0  0  0  0  0
   -0.4812   -1.5863    2.0901 H   0  0  0  0  0  0  0  0  0  0  0  0
    0.4451   -0.1239    1.7787 H   0  0  0  0  0  0  0  0  0  0  0  0
   -1.4073    0.1869    2.8077 C   0  0  0  0  0  0  0  0  0  0  0  0
   -1.3071    1.5858    2.9461 C   0  0  0  0  0  0  0  0  0  0  0  0
   -0.6061    2.1413    2.3369 H   0  0  0  0  0  0  0  0  0  0  0  0
   -2.1231    2.2641    3.8724 C   0  0  0  0  0  0  0  0  0  0  0  0
   -2.0427    3.3352    3.9768 H   0  0  0  0  0  0  0  0  0  0  0  0
   -3.0451    1.5408    4.6600 C   0  0  0  0  0  0  0  0  0  0  0  0
   -3.8385    2.1860    5.5540 O   0  0  0  0  0  0  0  0  0  0  0  0
   -3.6190    3.1158    5.6265 H   0  0  0  0  0  0  0  0  0  0  0  0
   -3.1474    0.1416    4.5167 C   0  0  0  0  0  0  0  0  0  0  0  0
   -3.8530   -0.4009    5.1278 H   0  0  0  0  0  0  0  0  0  0  0  0
   -2.3272   -0.5341    3.5933 C   0  0  0  0  0  0  0  0  0  0  0  0
   -2.3998   -1.6103    3.4903 H   0  0  0  0  0  0  0  0  0  0  0  0
   -0.1213   -1.0148   -0.6824 C   0  0  0  0  0  0  0  0  0  0  0  0
    0.7053   -0.2538   -1.1861 O   0  0  0  0  0  0  0  0  0  0  0  0
   -0.1899   -2.3134   -1.0019 N   0  0  0  0  0  0  0  0  0  0  0  0
   -0.9339   -2.8567   -0.5885 H   0  0  0  0  0  0  0  0  0  0  0  0
    0.6887   -2.9731   -1.9649 C   0  0  0  0  0  0  0  0  0  0  0  0
    1.7306   -2.7482   -1.7307 H   0  0  0  0  0  0  0  0  0  0  0  0
    0.5381   -4.0534   -1.9324 H   0  0  0  0  0  0  0  0  0  0  0  0
    0.4705   -2.6088   -2.9709 H   0  0  0  0  0  0  0  0  0  0  0  0
  5  6  2  0  0  0  0
  5  7  1  0  0  0  0
  2  3  1  0  0  0  0
  2  4  1  0  0  0  0
  2  5  1  0  0  0  0
  1  2  1  0  0  0  0
 26 27  2  0  0  0  0
 26 28  1  0  0  0  0
 24 25  1  0  0  0  0
 22 23  1  0  0  0  0
 22 24  2  0  0  0  0
 20 21  1  0  0  0  0
 19 20  1  0  0  0  0
 19 22  1  0  0  0  0
 17 18  1  0  0  0  0
 17 19  2  0  0  0  0
 15 16  1  0  0  0  0
 15 17  1  0  0  0  0
 14 15  2  0  0  0  0
 14 24  1  0  0  0  0
 11 12  1  0  0  0  0
 11 13  1  0  0  0  0
 11 14  1  0  0  0  0
  9 10  1  0  0  0  0
  9 11  1  0  0  0  0
  9 26  1  0  0  0  0
  7  8  1  0  0  0  0
  7  9  1  0  0  0  0
 30 31  1  0  0  0  0
 30 32  1  0  0  0  0
 30 33  1  0  0  0  0
 28 29  1  0  0  0  0
 28 30  1  0  0  0  0
M  END
$$$$
default_name
  -OEChem-01062215323D

 33 33  0     1  0  0  0  0  0999 V2000
   -4.0702   -3.8485    1.4554 H   0  0  0  0  0  0  0  0  0  0  0  0
   -4.0012   -2.9605    0.8284 C   0  0  0  0  0  0  0  0  0  0  0  0
   -4.7652   -2.2435    1.1234 H   0  0  0  0  0  0  0  0  0  0  0  0
   -4.1352   -3.2385   -0.2156 H   0  0  0  0  0  0  0  0  0  0  0  0
   -2.6362   -2.3395    1.0094 C   0  0  0  0  0  0  0  0  0  0  0  0
   -1.8292   -2.8395    1.7814 O   0  0  0  0  0  0  0  0  0  0  0  0
   -2.3832   -1.2445    0.2964 N   0  0  0  0  0  0  0  0  0  0  0  0
   -3.1102   -0.8685   -0.2946 H   0  0  0  0  0  0  0  0  0  0  0  0
   -1.1292   -0.4875    0.3524 C   0  0  1  0  0  0  0  0  0  0  0  0
   -1.3417    0.5540    0.1083 H   0  0  0  0  0  0  0  0  0  0  0  0
   -0.5624   -0.5432    1.7815 C   0  0  0  0  0  0  0  0  0  0  0  0
   -0.4812   -1.5863    2.0901 H   0  0  0  0  0  0  0  0  0  0  0  0
    0.4451   -0.1239    1.7787 H   0  0  0  0  0  0  0  0  0  0  0  0
   -1.4073    0.1869    2.8077 C   0  0  0  0  0  0  0  0  0  0  0  0
   -1.3071    1.5858    2.9461 C   0  0  0  0  0  0  0  0  0  0  0  0
   -0.6061    2.1413    2.3369 H   0  0  0  0  0  0  0  0  0  0  0  0
   -2.1231    2.2641    3.8724 C   0  0  0  0  0  0  0  0  0  0  0  0
   -2.0427    3.3352    3.9768 H   0  0  0  0  0  0  0  0  0  0  0  0
   -3.0451    1.5408    4.6600 C   0  0  0  0  0  0  0  0  0  0  0  0
   -3.8385    2.1860    5.5540 O   0  0  0  0  0  0  0  0  0  0  0  0
   -3.6190    3.1158    5.6265 H   0  0  0  0  0  0  0  0  0  0  0  0
   -3.1474    0.1416    4.5167 C   0  0  0  0  0  0  0  0  0  0  0  0
   -3.8530   -0.4009    5.1278 H   0  0  0  0  0  0  0  0  0  0  0  0
   -2.3272   -0.5341    3.5933 C   0  0  0  0  0  0  0  0  0  0  0  0
   -2.3998   -1.6103    3.4903 H   0  0  0  0  0  0  0  0  0  0  0  0
   -0.1213   -1.0148   -0.6824 C   0  0  0  0  0  0  0  0  0  0  0  0
    0.8682   -0.3455   -0.9807 O   0  0  0  0  0  0  0  0  0  0  0  0
   -0.3717   -2.2102   -1.2315 N   0  0  0  0  0  0  0  0  0  0  0  0
   -1.2345   -2.6687   -0.9771 H   0  0  0  0  0  0  0  0  0  0  0  0
    0.4800   -2.8541   -2.2289 C   0  0  0  0  0  0  0  0  0  0  0  0
    1.5148   -2.8632   -1.8823 H   0  0  0  0  0  0  0  0  0  0  0  0
    0.1491   -3.8797   -2.3999 H   0  0  0  0  0  0  0  0  0  0  0  0
    0.4311   -2.2982   -3.1675 H   0  0  0  0  0  0  0  0  0  0  0  0
  5  6  2  0  0  0  0
  5  7  1  0  0  0  0
  2  3  1  0  0  0  0
  2  4  1  0  0  0  0
  2  5  1  0  0  0  0
  1  2  1  0  0  0  0
 26 27  2  0  0  0  0
 26 28  1  0  0  0  0
 24 25  1  0  0  0  0
 22 23  1  0  0  0  0
 22 24  2  0  0  0  0
 20 21  1  0  0  0  0
 19 20  1  0  0  0  0
 19 22  1  0  0  0  0
 17 18  1  0  0  0  0
 17 19  2  0  0  0  0
 15 16  1  0  0  0  0
 15 17  1  0  0  0  0
 14 15  2  0  0  0  0
 14 24  1  0  0  0  0
 11 12  1  0  0  0  0
 11 13  1  0  0  0  0
 11 14  1  0  0  0  0
  9 10  1  0  0  0  0
  9 11  1  0  0  0  0
  9 26  1  0  0  0  0
  7  8  1  0  0  0  0
  7  9  1  0  0  0  0
 30 31  1  0  0  0  0
 30 32  1  0  0  0  0
 30 33  1  0  0  0  0
 28 29  1  0  0  0  0
 28 30  1  0  0  0  0
M  END
$$$$
default_name
  -OEChem-01062215323D

 33 33  0     1  0  0  0  0  0999 V2000
   -4.0702   -3.8485    1.4554 H   0  0  0  0  0  0  0  0  0  0  0  0
   -4.0012   -2.9605    0.8284 C   0  0  0  0  0  0  0  0  0  0  0  0
   -4.7652   -2.2435    1.1234 H   0  0  0  0  0  0  0  0  0  0  0  0
   -4.1352   -3.2385   -0.2156 H   0  0  0  0  0  0  0  0  0  0  0  0
   -2.6362   -2.3395    1.0094 C   0  0  0  0  0  0  0  0  0  0  0  0
   -1.8292   -2.8395    1.7814 O   0  0  0  0  0  0  0  0  0  0  0  0
   -2.3832   -1.2445    0.2964 N   0  0  0  0  0  0  0  0  0  0  0  0
   -3.1102   -0.8685   -0.2946 H   0  0  0  0  0  0  0  0  0  0  0  0
   -1.1292   -0.4875    0.3524 C   0  0  1  0  0  0  0  0  0  0  0  0
   -1.3417    0.5540    0.1083 H   0  0  0  0  0  0  0  0  0  0  0  0
   -0.5624   -0.5432    1.7815 C   0  0  0  0  0  0  0  0  0  0  0  0
   -0.4812   -1.5863    2.0901 H   0  0  0  0  0  0  0  0  0  0  0  0
    0.4451   -0.1239    1.7787 H   0  0  0  0  0  0  0  0  0  0  0  0
   -1.4073    0.1869    2.8077 C   0  0  0  0  0  0  0  0  0  0  0  0
   -1.3071    1.5858    2.9461 C   0  0  0  0  0  0  0  0  0  0  0  0
   -0.6061    2.1413    2.3369 H   0  0  0  0  0  0  0  0  0  0  0  0
   -2.1231    2.2641    3.8724 C   0  0  0  0  0  0  0  0  0  0  0  0
   -2.0427    3.3352    3.9768 H   0  0  0  0  0  0  0  0  0  0  0  0
   -3.0451    1.5408    4.6600 C   0  0  0  0  0  0  0  0  0  0  0  0
   -3.8385    2.1860    5.5540 O   0  0  0  0  0  0  0  0  0  0  0  0
   -3.6190    3.1158    5.6265 H   0  0  0  0  0  0  0  0  0  0  0  0
   -3.1474    0.1416    4.5167 C   0  0  0  0  0  0  0  0  0  0  0  0
   -3.8530   -0.4009    5.1278 H   0  0  0  0  0  0  0  0  0  0  0  0
   -2.3272   -0.5341    3.5933 C   0  0  0  0  0  0  0  0  0  0  0  0
   -2.3998   -1.6103    3.4903 H   0  0  0  0  0  0  0  0  0  0  0  0
   -0.1213   -1.0148   -0.6824 C   0  0  0  0  0  0  0  0  0  0  0  0
    0.9914   -0.4973   -0.7834 O   0  0  0  0  0  0  0  0  0  0  0  0
   -0.5088   -2.0399   -1.4519 N   0  0  0  0  0  0  0  0  0  0  0  0
   -1.4577   -2.3689   -1.3472 H   0  0  0  0  0  0  0  0  0  0  0  0
    0.3226   -2.6579   -2.4822 C   0  0  0  0  0  0  0  0  0  0  0  0
    1.2998   -2.9110   -2.0674 H   0  0  0  0  0  0  0  0  0  0  0  0
   -0.1549   -3.5649   -2.8564 H   0  0  0  0  0  0  0  0  0  0  0  0
    0.4646   -1.9580   -3.3082 H   0  0  0  0  0  0  0  0  0  0  0  0
  5  6  2  0  0  0  0
  5  7  1  0  0  0  0
  2  3  1  0  0  0  0
  2  4  1  0  0  0  0
  2  5  1  0  0  0  0
  1  2  1  0  0  0  0
 26 27  2  0  0  0  0
 26 28  1  0  0  0  0
 24 25  1  0  0  0  0
 22 23  1  0  0  0  0
 22 24  2  0  0  0  0
 20 21  1  0  0  0  0
 19 20  1  0  0  0  0
 19 22  1  0  0  0  0
 17 18  1  0  0  0  0
 17 19  2  0  0  0  0
 15 16  1  0  0  0  0
 15 17  1  0  0  0  0
 14 15  2  0  0  0  0
 14 24  1  0  0  0  0
 11 12  1  0  0  0  0
 11 13  1  0  0  0  0
 11 14  1  0  0  0  0
  9 10  1  0  0  0  0
  9 11  1  0  0  0  0
  9 26  1  0  0  0  0
  7  8  1  0  0  0  0
  7  9  1  0  0  0  0
 30 31  1  0  0  0  0
 30 32  1  0  0  0  0
 30 33  1  0  0  0  0
 28 29  1  0  0  0  0
 28 30  1  0  0  0  0
M  END
$$$$
default_name
  -OEChem-01062215323D

 33 33  0     1  0  0  0  0  0999 V2000
   -4.0702   -3.8485    1.4554 H   0  0  0  0  0  0  0  0  0  0  0  0
   -4.0012   -2.9605    0.8284 C   0  0  0  0  0  0  0  0  0  0  0  0
   -4.7652   -2.2435    1.1234 H   0  0  0  0  0  0  0  0  0  0  0  0
   -4.1352   -3.2385   -0.2156 H   0  0  0  0  0  0  0  0  0  0  0  0
   -2.6362   -2.3395    1.0094 C   0  0  0  0  0  0  0  0  0  0  0  0
   -1.8292   -2.8395    1.7814 O   0  0  0  0  0  0  0  0  0  0  0  0
   -2.3832   -1.2445    0.2964 N   0  0  0  0  0  0  0  0  0  0  0  0
   -3.1102   -0.8685   -0.2946 H   0  0  0  0  0  0  0  0  0  0  0  0
   -1.1292   -0.4875    0.3524 C   0  0  1  0  0  0  0  0  0  0  0  0
   -1.3417    0.5540    0.1083 H   0  0  0  0  0  0  0  0  0  0  0  0
   -0.5624   -0.5432    1.7815 C   0  0  0  0  0  0  0  0  0  0  0  0
   -0.4812   -1.5863    2.0901 H   0  0  0  0  0  0  0  0  0  0  0  0
    0.4451   -0.1239    1.7787 H   0  0  0  0  0  0  0  0  0  0  0  0
   -1.4073    0.1869    2.8077 C   0  0  0  0  0  0  0  0  0  0  0  0
   -1.3071    1.5858    2.9461 C   0  0  0  0  0  0  0  0  0  0  0  0
   -0.6061    2.1413    2.3369 H   0  0  0  0  0  0  0  0  0  0  0  0
   -2.1231    2.2641    3.8724 C   0  0  0  0  0  0  0  0  0  0  0  0
   -2.0427    3.3352    3.9768 H   0  0  0  0  0  0  0  0  0  0  0  0
   -3.0451    1.5408    4.6600 C   0  0  0  0  0  0  0  0  0  0  0  0
   -3.8385    2.1860    5.5540 O   0  0  0  0  0  0  0  0  0  0  0  0
   -3.6190    3.1158    5.6265 H   0  0  0  0  0  0  0  0  0  0  0  0
   -3.1474    0.1416    4.5167 C   0  0  0  0  0  0  0  0  0  0  0  0
   -3.8530   -0.4009    5.1278 H   0  0  0  0  0  0  0  0  0  0  0  0
   -2.3272   -0.5341    3.5933 C   0  0  0  0  0  0  0  0  0  0  0  0
   -2.3998   -1.6103    3.4903 H   0  0  0  0  0  0  0  0  0  0  0  0
   -0.1213   -1.0148   -0.6824 C   0  0  0  0  0  0  0  0  0  0  0  0
    1.0664   -0.6988   -0.6076 O   0  0  0  0  0  0  0  0  0  0  0  0
   -0.5921   -1.8141   -1.6480 N   0  0  0  0  0  0  0  0  0  0  0  0
   -1.5882   -1.9777   -1.6737 H   0  0  0  0  0  0  0  0  0  0  0  0
    0.2271   -2.3981   -2.7075 C   0  0  0  0  0  0  0  0  0  0  0  0
    1.1002   -2.8883   -2.2733 H   0  0  0  0  0  0  0  0  0  0  0  0
   -0.3533   -3.1304   -3.2710 H   0  0  0  0  0  0  0  0  0  0  0  0
    0.5686   -1.6114   -3.3835 H   0  0  0  0  0  0  0  0  0  0  0  0
  5  6  2  0  0  0  0
  5  7  1  0  0  0  0
  2  3  1  0  0  0  0
  2  4  1  0  0  0  0
  2  5  1  0  0  0  0
  1  2  1  0  0  0  0
 26 27  2  0  0  0  0
 26 28  1  0  0  0  0
 24 25  1  0  0  0  0
 22 23  1  0  0  0  0
 22 24  2  0  0  0  0
 20 21  1  0  0  0  0
 19 20  1  0  0  0  0
 19 22  1  0  0  0  0
 17 18  1  0  0  0  0
 17 19  2  0  0  0  0
 15 16  1  0  0  0  0
 15 17  1  0  0  0  0
 14 15  2  0  0  0  0
 14 24  1  0  0  0  0
 11 12  1  0  0  0  0
 11 13  1  0  0  0  0
 11 14  1  0  0  0  0
  9 10  1  0  0  0  0
  9 11  1  0  0  0  0
  9 26  1  0  0  0  0
  7  8  1  0  0  0  0
  7  9  1  0  0  0  0
 30 31  1  0  0  0  0
 30 32  1  0  0  0  0
 30 33  1  0  0  0  0
 28 29  1  0  0  0  0
 28 30  1  0  0  0  0
M  END
$$$$
default_name
  -OEChem-01062215323D

 33 33  0     1  0  0  0  0  0999 V2000
   -4.0702   -3.8485    1.4554 H   0  0  0  0  0  0  0  0  0  0  0  0
   -4.0012   -2.9605    0.8284 C   0  0  0  0  0  0  0  0  0  0  0  0
   -4.7652   -2.2435    1.1234 H   0  0  0  0  0  0  0  0  0  0  0  0
   -4.1352   -3.2385   -0.2156 H   0  0  0  0  0  0  0  0  0  0  0  0
   -2.6362   -2.3395    1.0094 C   0  0  0  0  0  0  0  0  0  0  0  0
   -1.8292   -2.8395    1.7814 O   0  0  0  0  0  0  0  0  0  0  0  0
   -2.3832   -1.2445    0.2964 N   0  0  0  0  0  0  0  0  0  0  0  0
   -3.1102   -0.8685   -0.2946 H   0  0  0  0  0  0  0  0  0  0  0  0
   -1.1292   -0.4875    0.3524 C   0  0  1  0  0  0  0  0  0  0  0  0
   -1.3417    0.5540    0.1083 H   0  0  0  0  0  0  0  0  0  0  0  0
   -0.5624   -0.5432    1.7815 C   0  0  0  0  0  0  0  0  0  0  0  0
   -0.4812   -1.5863    2.0901 H   0  0  0  0  0  0  0  0  0  0  0  0
    0.4451   -0.1239    1.7787 H   0  0  0  0  0  0  0  0  0  0  0  0
   -1.4073    0.1869    2.8077 C   0  0  0  0  0  0  0  0  0  0  0  0
   -1.3071    1.5858    2.9461 C   0  0  0  0  0  0  0  0  0  0  0  0
   -0.6061    2.1413    2.3369 H   0  0  0  0  0  0  0  0  0  0  0  0
   -2.1231    2.2641    3.8724 C   0  0  0  0  0  0  0  0  0  0  0  0
   -2.0427    3.3352    3.9768 H   0  0  0  0  0  0  0  0  0  0  0  0
   -3.0451    1.5408    4.6600 C   0  0  0  0  0  0  0  0  0  0  0  0
   -3.8385    2.1860    5.5540 O   0  0  0  0  0  0  0  0  0  0  0  0
   -3.6190    3.1158    5.6265 H   0  0  0  0  0  0  0  0  0  0  0  0
   -3.1474    0.1416    4.5167 C   0  0  0  0  0  0  0  0  0  0  0  0
   -3.8530   -0.4009    5.1278 H   0  0  0  0  0  0  0  0  0  0  0  0
   -2.3272   -0.5341    3.5933 C   0  0  0  0  0  0  0  0  0  0  0  0
   -2.3998   -1.6103    3.4903 H   0  0  0  0  0  0  0  0  0  0  0  0
   -0.1213   -1.0148   -0.6824 C   0  0  0  0  0  0  0  0  0  0  0  0
    1.0882   -0.9364   -0.4653 O   0  0  0  0  0  0  0  0  0  0  0  0
   -0.6159   -1.5483   -1.8066 N   0  0  0  0  0  0  0  0  0  0  0  0
   -1.6171   -1.5217   -1.9343 H   0  0  0  0  0  0  0  0  0  0  0  0
    0.2002   -2.0922   -2.8896 C   0  0  0  0  0  0  0  0  0  0  0  0
    0.9296   -2.7967   -2.4862 H   0  0  0  0  0  0  0  0  0  0  0  0
   -0.4324   -2.6059   -3.6154 H   0  0  0  0  0  0  0  0  0  0  0  0
    0.7362   -1.2819   -3.3882 H   0  0  0  0  0  0  0  0  0  0  0  0
  5  6  2  0  0  0  0
  5  7  1  0  0  0  0
  2  3  1  0  0  0  0
  2  4  1  0  0  0  0
  2  5  1  0  0  0  0
  1  2  1  0  0  0  0
 26 27  2  0  0  0  0
 26 28  1  0  0  0  0
 24 25  1  0  0  0  0
 22 23  1  0  0  0  0
 22 24  2  0  0  0  0
 20 21  1  0  0  0  0
 19 20  1  0  0  0  0
 19 22  1  0  0  0  0
 17 18  1  0  0  0  0
 17 19  2  0  0  0  0
 15 16  1  0  0  0  0
 15 17  1  0  0  0  0
 14 15  2  0  0  0  0
 14 24  1  0  0  0  0
 11 12  1  0  0  0  0
 11 13  1  0  0  0  0
 11 14  1  0  0  0  0
  9 10  1  0  0  0  0
  9 11  1  0  0  0  0
  9 26  1  0  0  0  0
  7  8  1  0  0  0  0
  7  9  1  0  0  0  0
 30 31  1  0  0  0  0
 30 32  1  0  0  0  0
 30 33  1  0  0  0  0
 28 29  1  0  0  0  0
 28 30  1  0  0  0  0
M  END
$$$$
default_name
  -OEChem-01062215323D

 33 33  0     1  0  0  0  0  0999 V2000
   -4.0702   -3.8485    1.4554 H   0  0  0  0  0  0  0  0  0  0  0  0
   -4.0012   -2.9605    0.8284 C   0  0  0  0  0  0  0  0  0  0  0  0
   -4.7652   -2.2435    1.1234 H   0  0  0  0  0  0  0  0  0  0  0  0
   -4.1352   -3.2385   -0.2156 H   0  0  0  0  0  0  0  0  0  0  0  0
   -2.6362   -2.3395    1.0094 C   0  0  0  0  0  0  0  0  0  0  0  0
   -1.8292   -2.8395    1.7814 O   0  0  0  0  0  0  0  0  0  0  0  0
   -2.3832   -1.2445    0.2964 N   0  0  0  0  0  0  0  0  0  0  0  0
   -3.1102   -0.8685   -0.2946 H   0  0  0  0  0  0  0  0  0  0  0  0
   -1.1292   -0.4875    0.3524 C   0  0  1  0  0  0  0  0  0  0  0  0
   -1.3417    0.5540    0.1083 H   0  0  0  0  0  0  0  0  0  0  0  0
   -0.5624   -0.5432    1.7815 C   0  0  0  0  0  0  0  0  0  0  0  0
   -0.4812   -1.5863    2.0901 H   0  0  0  0  0  0  0  0  0  0  0  0
    0.4451   -0.1239    1.7787 H   0  0  0  0  0  0  0  0  0  0  0  0
   -1.4073    0.1869    2.8077 C   0  0  0  0  0  0  0  0  0  0  0  0
   -1.3071    1.5858    2.9461 C   0  0  0  0  0  0  0  0  0  0  0  0
   -0.6061    2.1413    2.3369 H   0  0  0  0  0  0  0  0  0  0  0  0
   -2.1231    2.2641    3.8724 C   0  0  0  0  0  0  0  0  0  0  0  0
   -2.0427    3.3352    3.9768 H   0  0  0  0  0  0  0  0  0  0  0  0
   -3.0451    1.5408    4.6600 C   0  0  0  0  0  0  0  0  0  0  0  0
   -3.8385    2.1860    5.5540 O   0  0  0  0  0  0  0  0  0  0  0  0
   -3.6190    3.1158    5.6265 H   0  0  0  0  0  0  0  0  0  0  0  0
   -3.1474    0.1416    4.5167 C   0  0  0  0  0  0  0  0  0  0  0  0
   -3.8530   -0.4009    5.1278 H   0  0  0  0  0  0  0  0  0  0  0  0
   -2.3272   -0.5341    3.5933 C   0  0  0  0  0  0  0  0  0  0  0  0
   -2.3998   -1.6103    3.4903 H   0  0  0  0  0  0  0  0  0  0  0  0
   -0.1213   -1.0148   -0.6824 C   0  0  0  0  0  0  0  0  0  0  0  0
    1.0552   -1.1938   -0.3663 O   0  0  0  0  0  0  0  0  0  0  0  0
   -0.5784   -1.2604   -1.9168 N   0  0  0  0  0  0  0  0  0  0  0  0
   -1.5425   -1.0319   -2.1112 H   0  0  0  0  0  0  0  0  0  0  0  0
    0.2437   -1.7612   -3.0160 C   0  0  0  0  0  0  0  0  0  0  0  0
    0.7997   -2.6424   -2.6913 H   0  0  0  0  0  0  0  0  0  0  0  0
   -0.3868   -2.0270   -3.8661 H   0  0  0  0  0  0  0  0  0  0  0  0
    0.9559   -0.9921   -3.3219 H   0  0  0  0  0  0  0  0  0  0  0  0
  5  6  2  0  0  0  0
  5  7  1  0  0  0  0
  2  3  1  0  0  0  0
  2  4  1  0  0  0  0
  2  5  1  0  0  0  0
  1  2  1  0  0  0  0
 26 27  2  0  0  0  0
 26 28  1  0  0  0  0
 24 25  1  0  0  0  0
 22 23  1  0  0  0  0
 22 24  2  0  0  0  0
 20 21  1  0  0  0  0
 19 20  1  0  0  0  0
 19 22  1  0  0  0  0
 17 18  1  0  0  0  0
 17 19  2  0  0  0  0
 15 16  1  0  0  0  0
 15 17  1  0  0  0  0
 14 15  2  0  0  0  0
 14 24  1  0  0  0  0
 11 12  1  0  0  0  0
 11 13  1  0  0  0  0
 11 14  1  0  0  0  0
  9 10  1  0  0  0  0
  9 11  1  0  0  0  0
  9 26  1  0  0  0  0
  7  8  1  0  0  0  0
  7  9  1  0  0  0  0
 30 31  1  0  0  0  0
 30 32  1  0  0  0  0
 30 33  1  0  0  0  0
 28 29  1  0  0  0  0
 28 30  1  0  0  0  0
M  END
$$$$
default_name
  -OEChem-01062215323D

 33 33  0     1  0  0  0  0  0999 V2000
   -4.0702   -3.8485    1.4554 H   0  0  0  0  0  0  0  0  0  0  0  0
   -4.0012   -2.9605    0.8284 C   0  0  0  0  0  0  0  0  0  0  0  0
   -4.7652   -2.2435    1.1234 H   0  0  0  0  0  0  0  0  0  0  0  0
   -4.1352   -3.2385   -0.2156 H   0  0  0  0  0  0  0  0  0  0  0  0
   -2.6362   -2.3395    1.0094 C   0  0  0  0  0  0  0  0  0  0  0  0
   -1.8292   -2.8395    1.7814 O   0  0  0  0  0  0  0  0  0  0  0  0
   -2.3832   -1.2445    0.2964 N   0  0  0  0  0  0  0  0  0  0  0  0
   -3.1102   -0.8685   -0.2946 H   0  0  0  0  0  0  0  0  0  0  0  0
   -1.1292   -0.4875    0.3524 C   0  0  1  0  0  0  0  0  0  0  0  0
   -1.3417    0.5540    0.1083 H   0  0  0  0  0  0  0  0  0  0  0  0
   -0.5624   -0.5432    1.7815 C   0  0  0  0  0  0  0  0  0  0  0  0
   -0.4812   -1.5863    2.0901 H   0  0  0  0  0  0  0  0  0  0  0  0
    0.4451   -0.1239    1.7787 H   0  0  0  0  0  0  0  0  0  0  0  0
   -1.4073    0.1869    2.8077 C   0  0  0  0  0  0  0  0  0  0  0  0
   -1.3071    1.5858    2.9461 C   0  0  0  0  0  0  0  0  0  0  0  0
   -0.6061    2.1413    2.3369 H   0  0  0  0  0  0  0  0  0  0  0  0
   -2.1231    2.2641    3.8724 C   0  0  0  0  0  0  0  0  0  0  0  0
   -2.0427    3.3352    3.9768 H   0  0  0  0  0  0  0  0  0  0  0  0
   -3.0451    1.5408    4.6600 C   0  0  0  0  0  0  0  0  0  0  0  0
   -3.8385    2.1860    5.5540 O   0  0  0  0  0  0  0  0  0  0  0  0
   -3.6190    3.1158    5.6265 H   0  0  0  0  0  0  0  0  0  0  0  0
   -3.1474    0.1416    4.5167 C   0  0  0  0  0  0  0  0  0  0  0  0
   -3.8530   -0.4009    5.1278 H   0  0  0  0  0  0  0  0  0  0  0  0
   -2.3272   -0.5341    3.5933 C   0  0  0  0  0  0  0  0  0  0  0  0
   -2.3998   -1.6103    3.4903 H   0  0  0  0  0  0  0  0  0  0  0  0
   -0.1213   -1.0148   -0.6824 C   0  0  0  0  0  0  0  0  0  0  0  0
    0.9697   -1.4534   -0.3172 O   0  0  0  0  0  0  0  0  0  0  0  0
   -0.4823   -0.9702   -1.9711 N   0  0  0  0  0  0  0  0  0  0  0  0
   -1.3695   -0.5419   -2.1924 H   0  0  0  0  0  0  0  0  0  0  0  0
    0.3545   -1.4276   -3.0781 C   0  0  0  0  0  0  0  0  0  0  0  0
    0.7193   -2.4359   -2.8749 H   0  0  0  0  0  0  0  0  0  0  0  0
   -0.2198   -1.4333   -4.0059 H   0  0  0  0  0  0  0  0  0  0  0  0
    1.2127   -0.7616   -3.1893 H   0  0  0  0  0  0  0  0  0  0  0  0
  5  6  2  0  0  0  0
  5  7  1  0  0  0  0
  2  3  1  0  0  0  0
  2  4  1  0  0  0  0
  2  5  1  0  0  0  0
  1  2  1  0  0  0  0
 26 27  2  0  0  0  0
 26 28  1  0  0  0  0
 24 25  1  0  0  0  0
 22 23  1  0  0  0  0
 22 24  2  0  0  0  0
 20 21  1  0  0  0  0
 19 20  1  0  0  0  0
 19 22  1  0  0  0  0
 17 18  1  0  0  0  0
 17 19  2  0  0  0  0
 15 16  1  0  0  0  0
 15 17  1  0  0  0  0
 14 15  2  0  0  0  0
 14 24  1  0  0  0  0
 11 12  1  0  0  0  0
 11 13  1  0  0  0  0
 11 14  1  0  0  0  0
  9 10  1  0  0  0  0
  9 11  1  0  0  0  0
  9 26  1  0  0  0  0
  7  8  1  0  0  0  0
  7  9  1  0  0  0  0
 30 31  1  0  0  0  0
 30 32  1  0  0  0  0
 30 33  1  0  0  0  0
 28 29  1  0  0  0  0
 28 30  1  0  0  0  0
M  END
$$$$
default_name
  -OEChem-01062215323D

 33 33  0     1  0  0  0  0  0999 V2000
   -4.0702   -3.8485    1.4554 H   0  0  0  0  0  0  0  0  0  0  0  0
   -4.0012   -2.9605    0.8284 C   0  0  0  0  0  0  0  0  0  0  0  0
   -4.7652   -2.2435    1.1234 H   0  0  0  0  0  0  0  0  0  0  0  0
   -4.1352   -3.2385   -0.2156 H   0  0  0  0  0  0  0  0  0  0  0  0
   -2.6362   -2.3395    1.0094 C   0  0  0  0  0  0  0  0  0  0  0  0
   -1.8292   -2.8395    1.7814 O   0  0  0  0  0  0  0  0  0  0  0  0
   -2.3832   -1.2445    0.2964 N   0  0  0  0  0  0  0  0  0  0  0  0
   -3.1102   -0.8685   -0.2946 H   0  0  0  0  0  0  0  0  0  0  0  0
   -1.1292   -0.4875    0.3524 C   0  0  1  0  0  0  0  0  0  0  0  0
   -1.3417    0.5540    0.1083 H   0  0  0  0  0  0  0  0  0  0  0  0
   -0.5624   -0.5432    1.7815 C   0  0  0  0  0  0  0  0  0  0  0  0
   -0.4812   -1.5863    2.0901 H   0  0  0  0  0  0  0  0  0  0  0  0
    0.4451   -0.1239    1.7787 H   0  0  0  0  0  0  0  0  0  0  0  0
   -1.4073    0.1869    2.8077 C   0  0  0  0  0  0  0  0  0  0  0  0
   -1.3071    1.5858    2.9461 C   0  0  0  0  0  0  0  0  0  0  0  0
   -0.6061    2.1413    2.3369 H   0  0  0  0  0  0  0  0  0  0  0  0
   -2.1231    2.2641    3.8724 C   0  0  0  0  0  0  0  0  0  0  0  0
   -2.0427    3.3352    3.9768 H   0  0  0  0  0  0  0  0  0  0  0  0
   -3.0451    1.5408    4.6600 C   0  0  0  0  0  0  0  0  0  0  0  0
   -3.8385    2.1860    5.5540 O   0  0  0  0  0  0  0  0  0  0  0  0
   -3.6190    3.1158    5.6265 H   0  0  0  0  0  0  0  0  0  0  0  0
   -3.1474    0.1416    4.5167 C   0  0  0  0  0  0  0  0  0  0  0  0
   -3.8530   -0.4009    5.1278 H   0  0  0  0  0  0  0  0  0  0  0  0
   -2.3272   -0.5341    3.5933 C   0  0  0  0  0  0  0  0  0  0  0  0
   -2.3998   -1.6103    3.4903 H   0  0  0  0  0  0  0  0  0  0  0  0
   -0.1213   -1.0148   -0.6824 C   0  0  0  0  0  0  0  0  0  0  0  0
    0.8376   -1.6977   -0.3214 O   0  0  0  0  0  0  0  0  0  0  0  0
   -0.3341   -0.6975   -1.9658 N   0  0  0  0  0  0  0  0  0  0  0  0
   -1.1097   -0.0849   -2.1723 H   0  0  0  0  0  0  0  0  0  0  0  0
    0.5251   -1.1141   -3.0716 C   0  0  0  0  0  0  0  0  0  0  0  0
    0.6939   -2.1913   -3.0243 H   0  0  0  0  0  0  0  0  0  0  0  0
    0.0574   -0.8651   -4.0255 H   0  0  0  0  0  0  0  0  0  0  0  0
    1.4891   -0.6062   -2.9992 H   0  0  0  0  0  0  0  0  0  0  0  0
  5  6  2  0  0  0  0
  5  7  1  0  0  0  0
  2  3  1  0  0  0  0
  2  4  1  0  0  0  0
  2  5  1  0  0  0  0
  1  2  1  0  0  0  0
 26 27  2  0  0  0  0
 26 28  1  0  0  0  0
 24 25  1  0  0  0  0
 22 23  1  0  0  0  0
 22 24  2  0  0  0  0
 20 21  1  0  0  0  0
 19 20  1  0  0  0  0
 19 22  1  0  0  0  0
 17 18  1  0  0  0  0
 17 19  2  0  0  0  0
 15 16  1  0  0  0  0
 15 17  1  0  0  0  0
 14 15  2  0  0  0  0
 14 24  1  0  0  0  0
 11 12  1  0  0  0  0
 11 13  1  0  0  0  0
 11 14  1  0  0  0  0
  9 10  1  0  0  0  0
  9 11  1  0  0  0  0
  9 26  1  0  0  0  0
  7  8  1  0  0  0  0
  7  9  1  0  0  0  0
 30 31  1  0  0  0  0
 30 32  1  0  0  0  0
 30 33  1  0  0  0  0
 28 29  1  0  0  0  0
 28 30  1  0  0  0  0
M  END
$$$$
default_name
  -OEChem-01062215323D

 33 33  0     1  0  0  0  0  0999 V2000
   -4.0702   -3.8485    1.4554 H   0  0  0  0  0  0  0  0  0  0  0  0
   -4.0012   -2.9605    0.8284 C   0  0  0  0  0  0  0  0  0  0  0  0
   -4.7652   -2.2435    1.1234 H   0  0  0  0  0  0  0  0  0  0  0  0
   -4.1352   -3.2385   -0.2156 H   0  0  0  0  0  0  0  0  0  0  0  0
   -2.6362   -2.3395    1.0094 C   0  0  0  0  0  0  0  0  0  0  0  0
   -1.8292   -2.8395    1.7814 O   0  0  0  0  0  0  0  0  0  0  0  0
   -2.3832   -1.2445    0.2964 N   0  0  0  0  0  0  0  0  0  0  0  0
   -3.1102   -0.8685   -0.2946 H   0  0  0  0  0  0  0  0  0  0  0  0
   -1.1292   -0.4875    0.3524 C   0  0  1  0  0  0  0  0  0  0  0  0
   -1.3417    0.5540    0.1083 H   0  0  0  0  0  0  0  0  0  0  0  0
   -0.5624   -0.5432    1.7815 C   0  0  0  0  0  0  0  0  0  0  0  0
   -0.4812   -1.5863    2.0901 H   0  0  0  0  0  0  0  0  0  0  0  0
    0.4451   -0.1239    1.7787 H   0  0  0  0  0  0  0  0  0  0  0  0
   -1.4073    0.1869    2.8077 C   0  0  0  0  0  0  0  0  0  0  0  0
   -1.3071    1.5858    2.9461 C   0  0  0  0  0  0  0  0  0  0  0  0
   -0.6061    2.1413    2.3369 H   0  0  0  0  0  0  0  0  0  0  0  0
   -2.1231    2.2641    3.8724 C   0  0  0  0  0  0  0  0  0  0  0  0
   -2.0427    3.3352    3.9768 H   0  0  0  0  0  0  0  0  0  0  0  0
   -3.0451    1.5408    4.6600 C   0  0  0  0  0  0  0  0  0  0  0  0
   -3.8385    2.1860    5.5540 O   0  0  0  0  0  0  0  0  0  0  0  0
   -3.6190    3.1158    5.6265 H   0  0  0  0  0  0  0  0  0  0  0  0
   -3.1474    0.1416    4.5167 C   0  0  0  0  0  0  0  0  0  0  0  0
   -3.8530   -0.4009    5.1278 H   0  0  0  0  0  0  0  0  0  0  0  0
   -2.3272   -0.5341    3.5933 C   0  0  0  0  0  0  0  0  0  0  0  0
   -2.3998   -1.6103    3.4903 H   0  0  0  0  0  0  0  0  0  0  0  0
   -0.1213   -1.0148   -0.6824 C   0  0  0  0  0  0  0  0  0  0  0  0
    0.6678   -1.9099   -0.3787 O   0  0  0  0  0  0  0  0  0  0  0  0
   -0.1440   -0.4607   -1.9012 N   0  0  0  0  0  0  0  0  0  0  0  0
   -0.7811    0.3079   -2.0523 H   0  0  0  0  0  0  0  0  0  0  0  0
    0.7440   -0.8422   -2.9970 C   0  0  0  0  0  0  0  0  0  0  0  0
    0.7252   -1.9253   -3.1293 H   0  0  0  0  0  0  0  0  0  0  0  0
    0.4258   -0.3613   -3.9234 H   0  0  0  0  0  0  0  0  0  0  0  0
    1.7662   -0.5365   -2.7648 H   0  0  0  0  0  0  0  0  0  0  0  0
  5  6  2  0  0  0  0
  5  7  1  0  0  0  0
  2  3  1  0  0  0  0
  2  4  1  0  0  0  0
  2  5  1  0  0  0  0
  1  2  1  0  0  0  0
 26 27  2  0  0  0  0
 26 28  1  0  0  0  0
 24 25  1  0  0  0  0
 22 23  1  0  0  0  0
 22 24  2  0  0  0  0
 20 21  1  0  0  0  0
 19 20  1  0  0  0  0
 19 22  1  0  0  0  0
 17 18  1  0  0  0  0
 17 19  2  0  0  0  0
 15 16  1  0  0  0  0
 15 17  1  0  0  0  0
 14 15  2  0  0  0  0
 14 24  1  0  0  0  0
 11 12  1  0  0  0  0
 11 13  1  0  0  0  0
 11 14  1  0  0  0  0
  9 10  1  0  0  0  0
  9 11  1  0  0  0  0
  9 26  1  0  0  0  0
  7  8  1  0  0  0  0
  7  9  1  0  0  0  0
 30 31  1  0  0  0  0
 30 32  1  0  0  0  0
 30 33  1  0  0  0  0
 28 29  1  0  0  0  0
 28 30  1  0  0  0  0
M  END
$$$$
default_name
  -OEChem-01062215323D

 33 33  0     1  0  0  0  0  0999 V2000
   -4.0702   -3.8485    1.4554 H   0  0  0  0  0  0  0  0  0  0  0  0
   -4.0012   -2.9605    0.8284 C   0  0  0  0  0  0  0  0  0  0  0  0
   -4.7652   -2.2435    1.1234 H   0  0  0  0  0  0  0  0  0  0  0  0
   -4.1352   -3.2385   -0.2156 H   0  0  0  0  0  0  0  0  0  0  0  0
   -2.6362   -2.3395    1.0094 C   0  0  0  0  0  0  0  0  0  0  0  0
   -1.8292   -2.8395    1.7814 O   0  0  0  0  0  0  0  0  0  0  0  0
   -2.3832   -1.2445    0.2964 N   0  0  0  0  0  0  0  0  0  0  0  0
   -3.1102   -0.8685   -0.2946 H   0  0  0  0  0  0  0  0  0  0  0  0
   -1.1292   -0.4875    0.3524 C   0  0  1  0  0  0  0  0  0  0  0  0
   -1.3417    0.5540    0.1083 H   0  0  0  0  0  0  0  0  0  0  0  0
   -0.5624   -0.5432    1.7815 C   0  0  0  0  0  0  0  0  0  0  0  0
   -0.4812   -1.5863    2.0901 H   0  0  0  0  0  0  0  0  0  0  0  0
    0.4451   -0.1239    1.7787 H   0  0  0  0  0  0  0  0  0  0  0  0
   -1.4073    0.1869    2.8077 C   0  0  0  0  0  0  0  0  0  0  0  0
   -1.3071    1.5858    2.9461 C   0  0  0  0  0  0  0  0  0  0  0  0
   -0.6061    2.1413    2.3369 H   0  0  0  0  0  0  0  0  0  0  0  0
   -2.1231    2.2641    3.8724 C   0  0  0  0  0  0  0  0  0  0  0  0
   -2.0427    3.3352    3.9768 H   0  0  0  0  0  0  0  0  0  0  0  0
   -3.0451    1.5408    4.6600 C   0  0  0  0  0  0  0  0  0  0  0  0
   -3.8385    2.1860    5.5540 O   0  0  0  0  0  0  0  0  0  0  0  0
   -3.6190    3.1158    5.6265 H   0  0  0  0  0  0  0  0  0  0  0  0
   -3.1474    0.1416    4.5167 C   0  0  0  0  0  0  0  0  0  0  0  0
   -3.8530   -0.4009    5.1278 H   0  0  0  0  0  0  0  0  0  0  0  0
   -2.3272   -0.5341    3.5933 C   0  0  0  0  0  0  0  0  0  0  0  0
   -2.3998   -1.6103    3.4903 H   0  0  0  0  0  0  0  0  0  0  0  0
   -0.1213   -1.0148   -0.6824 C   0  0  0  0  0  0  0  0  0  0  0  0
    0.4719   -2.0756   -0.4850 O   0  0  0  0  0  0  0  0  0  0  0  0
    0.0752   -0.2761   -1.7818 N   0  0  0  0  0  0  0  0  0  0  0  0
   -0.4058    0.6097   -1.8406 H   0  0  0  0  0  0  0  0  0  0  0  0
    0.9961   -0.6302   -2.8594 C   0  0  0  0  0  0  0  0  0  0  0  0
    0.8111   -1.6560   -3.1829 H   0  0  0  0  0  0  0  0  0  0  0  0
    0.8603    0.0439   -3.7067 H   0  0  0  0  0  0  0  0  0  0  0  0
    2.0253   -0.5572   -2.5019 H   0  0  0  0  0  0  0  0  0  0  0  0
  5  6  2  0  0  0  0
  5  7  1  0  0  0  0
  2  3  1  0  0  0  0
  2  4  1  0  0  0  0
  2  5  1  0  0  0  0
  1  2  1  0  0  0  0
 26 27  2  0  0  0  0
 26 28  1  0  0  0  0
 24 25  1  0  0  0  0
 22 23  1  0  0  0  0
 22 24  2  0  0  0  0
 20 21  1  0  0  0  0
 19 20  1  0  0  0  0
 19 22  1  0  0  0  0
 17 18  1  0  0  0  0
 17 19  2  0  0  0  0
 15 16  1  0  0  0  0
 15 17  1  0  0  0  0
 14 15  2  0  0  0  0
 14 24  1  0  0  0  0
 11 12  1  0  0  0  0
 11 13  1  0  0  0  0
 11 14  1  0  0  0  0
  9 10  1  0  0  0  0
  9 11  1  0  0  0  0
  9 26  1  0  0  0  0
  7  8  1  0  0  0  0
  7  9  1  0  0  0  0
 30 31  1  0  0  0  0
 30 32  1  0  0  0  0
 30 33  1  0  0  0  0
 28 29  1  0  0  0  0
 28 30  1  0  0  0  0
M  END
$$$$
default_name
  -OEChem-01062215323D

 33 33  0     1  0  0  0  0  0999 V2000
   -4.0702   -3.8485    1.4554 H   0  0  0  0  0  0  0  0  0  0  0  0
   -4.0012   -2.9605    0.8284 C   0  0  0  0  0  0  0  0  0  0  0  0
   -4.7652   -2.2435    1.1234 H   0  0  0  0  0  0  0  0  0  0  0  0
   -4.1352   -3.2385   -0.2156 H   0  0  0  0  0  0  0  0  0  0  0  0
   -2.6362   -2.3395    1.0094 C   0  0  0  0  0  0  0  0  0  0  0  0
   -1.8292   -2.8395    1.7814 O   0  0  0  0  0  0  0  0  0  0  0  0
   -2.3832   -1.2445    0.2964 N   0  0  0  0  0  0  0  0  0  0  0  0
   -3.1102   -0.8685   -0.2946 H   0  0  0  0  0  0  0  0  0  0  0  0
   -1.1292   -0.4875    0.3524 C   0  0  1  0  0  0  0  0  0  0  0  0
   -1.3417    0.5540    0.1083 H   0  0  0  0  0  0  0  0  0  0  0  0
   -0.5624   -0.5432    1.7815 C   0  0  0  0  0  0  0  0  0  0  0  0
   -0.4812   -1.5863    2.0901 H   0  0  0  0  0  0  0  0  0  0  0  0
    0.4451   -0.1239    1.7787 H   0  0  0  0  0  0  0  0  0  0  0  0
   -1.4073    0.1869    2.8077 C   0  0  0  0  0  0  0  0  0  0  0  0
   -1.3071    1.5858    2.9461 C   0  0  0  0  0  0  0  0  0  0  0  0
   -0.6061    2.1413    2.3369 H   0  0  0  0  0  0  0  0  0  0  0  0
   -2.1231    2.2641    3.8724 C   0  0  0  0  0  0  0  0  0  0  0  0
   -2.0427    3.3352    3.9768 H   0  0  0  0  0  0  0  0  0  0  0  0
   -3.0451    1.5408    4.6600 C   0  0  0  0  0  0  0  0  0  0  0  0
   -3.8385    2.1860    5.5540 O   0  0  0  0  0  0  0  0  0  0  0  0
   -3.6190    3.1158    5.6265 H   0  0  0  0  0  0  0  0  0  0  0  0
   -3.1474    0.1416    4.5167 C   0  0  0  0  0  0  0  0  0  0  0  0
   -3.8530   -0.4009    5.1278 H   0  0  0  0  0  0  0  0  0  0  0  0
   -2.3272   -0.5341    3.5933 C   0  0  0  0  0  0  0  0  0  0  0  0
   -2.3998   -1.6103    3.4903 H   0  0  0  0  0  0  0  0  0  0  0  0
   -0.1213   -1.0148   -0.6824 C   0  0  0  0  0  0  0  0  0  0  0  0
    0.2632   -2.1835   -0.6333 O   0  0  0  0  0  0  0  0  0  0  0  0
    0.3085   -0.1562   -1.6157 N   0  0  0  0  0  0  0  0  0  0  0  0
   -0.0096    0.8000   -1.5517 H   0  0  0  0  0  0  0  0  0  0  0  0
    1.2644   -0.4928   -2.6682 C   0  0  0  0  0  0  0  0  0  0  0  0
    0.9457   -1.4017   -3.1814 H   0  0  0  0  0  0  0  0  0  0  0  0
    1.3314    0.3229   -3.3900 H   0  0  0  0  0  0  0  0  0  0  0  0
    2.2486   -0.6669   -2.2285 H   0  0  0  0  0  0  0  0  0  0  0  0
  5  6  2  0  0  0  0
  5  7  1  0  0  0  0
  2  3  1  0  0  0  0
  2  4  1  0  0  0  0
  2  5  1  0  0  0  0
  1  2  1  0  0  0  0
 26 27  2  0  0  0  0
 26 28  1  0  0  0  0
 24 25  1  0  0  0  0
 22 23  1  0  0  0  0
 22 24  2  0  0  0  0
 20 21  1  0  0  0  0
 19 20  1  0  0  0  0
 19 22  1  0  0  0  0
 17 18  1  0  0  0  0
 17 19  2  0  0  0  0
 15 16  1  0  0  0  0
 15 17  1  0  0  0  0
 14 15  2  0  0  0  0
 14 24  1  0  0  0  0
 11 12  1  0  0  0  0
 11 13  1  0  0  0  0
 11 14  1  0  0  0  0
  9 10  1  0  0  0  0
  9 11  1  0  0  0  0
  9 26  1  0  0  0  0
  7  8  1  0  0  0  0
  7  9  1  0  0  0  0
 30 31  1  0  0  0  0
 30 32  1  0  0  0  0
 30 33  1  0  0  0  0
 28 29  1  0  0  0  0
 28 30  1  0  0  0  0
M  END
$$$$
default_name
  -OEChem-01062215323D

 33 33  0     1  0  0  0  0  0999 V2000
   -4.0702   -3.8485    1.4554 H   0  0  0  0  0  0  0  0  0  0  0  0
   -4.0012   -2.9605    0.8284 C   0  0  0  0  0  0  0  0  0  0  0  0
   -4.7652   -2.2435    1.1234 H   0  0  0  0  0  0  0  0  0  0  0  0
   -4.1352   -3.2385   -0.2156 H   0  0  0  0  0  0  0  0  0  0  0  0
   -2.6362   -2.3395    1.0094 C   0  0  0  0  0  0  0  0  0  0  0  0
   -1.8292   -2.8395    1.7814 O   0  0  0  0  0  0  0  0  0  0  0  0
   -2.3832   -1.2445    0.2964 N   0  0  0  0  0  0  0  0  0  0  0  0
   -3.1102   -0.8685   -0.2946 H   0  0  0  0  0  0  0  0  0  0  0  0
   -1.1292   -0.4875    0.3524 C   0  0  1  0  0  0  0  0  0  0  0  0
   -1.3417    0.5540    0.1083 H   0  0  0  0  0  0  0  0  0  0  0  0
   -0.5624   -0.5432    1.7815 C   0  0  0  0  0  0  0  0  0  0  0  0
   -0.4812   -1.5863    2.0901 H   0  0  0  0  0  0  0  0  0  0  0  0
    0.4451   -0.1239    1.7787 H   0  0  0  0  0  0  0  0  0  0  0  0
   -1.4073    0.1869    2.8077 C   0  0  0  0  0  0  0  0  0  0  0  0
   -1.3071    1.5858    2.9461 C   0  0  0  0  0  0  0  0  0  0  0  0
   -0.6061    2.1413    2.3369 H   0  0  0  0  0  0  0  0  0  0  0  0
   -2.1231    2.2641    3.8724 C   0  0  0  0  0  0  0  0  0  0  0  0
   -2.0427    3.3352    3.9768 H   0  0  0  0  0  0  0  0  0  0  0  0
   -3.0451    1.5408    4.6600 C   0  0  0  0  0  0  0  0  0  0  0  0
   -3.8385    2.1860    5.5540 O   0  0  0  0  0  0  0  0  0  0  0  0
   -3.6190    3.1158    5.6265 H   0  0  0  0  0  0  0  0  0  0  0  0
   -3.1474    0.1416    4.5167 C   0  0  0  0  0  0  0  0  0  0  0  0
   -3.8530   -0.4009    5.1278 H   0  0  0  0  0  0  0  0  0  0  0  0
   -2.3272   -0.5341    3.5933 C   0  0  0  0  0  0  0  0  0  0  0  0
   -2.3998   -1.6103    3.4903 H   0  0  0  0  0  0  0  0  0  0  0  0
   -0.1213   -1.0148   -0.6824 C   0  0  0  0  0  0  0  0  0  0  0  0
    0.0561   -2.2262   -0.8133 O   0  0  0  0  0  0  0  0  0  0  0  0
    0.5400   -0.1092   -1.4142 N   0  0  0  0  0  0  0  0  0  0  0  0
    0.3806    0.8657   -1.2051 H   0  0  0  0  0  0  0  0  0  0  0  0
    1.5305   -0.4392   -2.4363 C   0  0  0  0  0  0  0  0  0  0  0  0
    1.1199   -1.1798   -3.1248 H   0  0  0  0  0  0  0  0  0  0  0  0
    1.8069    0.4565   -2.9949 H   0  0  0  0  0  0  0  0  0  0  0  0
    2.4209   -0.8582   -1.9632 H   0  0  0  0  0  0  0  0  0  0  0  0
  5  6  2  0  0  0  0
  5  7  1  0  0  0  0
  2  3  1  0  0  0  0
  2  4  1  0  0  0  0
  2  5  1  0  0  0  0
  1  2  1  0  0  0  0
 26 27  2  0  0  0  0
 26 28  1  0  0  0  0
 24 25  1  0  0  0  0
 22 23  1  0  0  0  0
 22 24  2  0  0  0  0
 20 21  1  0  0  0  0
 19 20  1  0  0  0  0
 19 22  1  0  0  0  0
 17 18  1  0  0  0  0
 17 19  2  0  0  0  0
 15 16  1  0  0  0  0
 15 17  1  0  0  0  0
 14 15  2  0  0  0  0
 14 24  1  0  0  0  0
 11 12  1  0  0  0  0
 11 13  1  0  0  0  0
 11 14  1  0  0  0  0
  9 10  1  0  0  0  0
  9 11  1  0  0  0  0
  9 26  1  0  0  0  0
  7  8  1  0  0  0  0
  7  9  1  0  0  0  0
 30 31  1  0  0  0  0
 30 32  1  0  0  0  0
 30 33  1  0  0  0  0
 28 29  1  0  0  0  0
 28 30  1  0  0  0  0
M  END
$$$$
default_name
  -OEChem-01062215323D

 33 33  0     1  0  0  0  0  0999 V2000
   -4.0702   -3.8485    1.4554 H   0  0  0  0  0  0  0  0  0  0  0  0
   -4.0012   -2.9605    0.8284 C   0  0  0  0  0  0  0  0  0  0  0  0
   -4.7652   -2.2435    1.1234 H   0  0  0  0  0  0  0  0  0  0  0  0
   -4.1352   -3.2385   -0.2156 H   0  0  0  0  0  0  0  0  0  0  0  0
   -2.6362   -2.3395    1.0094 C   0  0  0  0  0  0  0  0  0  0  0  0
   -1.8292   -2.8395    1.7814 O   0  0  0  0  0  0  0  0  0  0  0  0
   -2.3832   -1.2445    0.2964 N   0  0  0  0  0  0  0  0  0  0  0  0
   -3.1102   -0.8685   -0.2946 H   0  0  0  0  0  0  0  0  0  0  0  0
   -1.1292   -0.4875    0.3524 C   0  0  1  0  0  0  0  0  0  0  0  0
   -1.3417    0.5540    0.1083 H   0  0  0  0  0  0  0  0  0  0  0  0
   -0.5624   -0.5432    1.7815 C   0  0  0  0  0  0  0  0  0  0  0  0
   -0.4812   -1.5863    2.0901 H   0  0  0  0  0  0  0  0  0  0  0  0
    0.4451   -0.1239    1.7787 H   0  0  0  0  0  0  0  0  0  0  0  0
   -1.4073    0.1869    2.8077 C   0  0  0  0  0  0  0  0  0  0  0  0
   -1.3071    1.5858    2.9461 C   0  0  0  0  0  0  0  0  0  0  0  0
   -0.6061    2.1413    2.3369 H   0  0  0  0  0  0  0  0  0  0  0  0
   -2.1231    2.2641    3.8724 C   0  0  0  0  0  0  0  0  0  0  0  0
   -2.0427    3.3352    3.9768 H   0  0  0  0  0  0  0  0  0  0  0  0
   -3.0451    1.5408    4.6600 C   0  0  0  0  0  0  0  0  0  0  0  0
   -3.8385    2.1860    5.5540 O   0  0  0  0  0  0  0  0  0  0  0  0
   -3.6190    3.1158    5.6265 H   0  0  0  0  0  0  0  0  0  0  0  0
   -3.1474    0.1416    4.5167 C   0  0  0  0  0  0  0  0  0  0  0  0
   -3.8530   -0.4009    5.1278 H   0  0  0  0  0  0  0  0  0  0  0  0
   -2.3272   -0.5341    3.5933 C   0  0  0  0  0  0  0  0  0  0  0  0
   -2.3998   -1.6103    3.4903 H   0  0  0  0  0  0  0  0  0  0  0  0
   -0.1213   -1.0148   -0.6824 C   0  0  0  0  0  0  0  0  0  0  0  0
   -0.1355   -2.2009   -1.0128 O   0  0  0  0  0  0  0  0  0  0  0  0
    0.7539   -0.1382   -1.1910 N   0  0  0  0  0  0  0  0  0  0  0  0
    0.7382    0.8025   -0.8246 H   0  0  0  0  0  0  0  0  0  0  0  0
    1.7762   -0.4731   -2.1797 C   0  0  0  0  0  0  0  0  0  0  0  0
    1.3218   -1.0054   -3.0170 H   0  0  0  0  0  0  0  0  0  0  0  0
    2.2544    0.4358   -2.5485 H   0  0  0  0  0  0  0  0  0  0  0  0
    2.5305   -1.1179   -1.7241 H   0  0  0  0  0  0  0  0  0  0  0  0
  5  6  2  0  0  0  0
  5  7  1  0  0  0  0
  2  3  1  0  0  0  0
  2  4  1  0  0  0  0
  2  5  1  0  0  0  0
  1  2  1  0  0  0  0
 26 27  2  0  0  0  0
 26 28  1  0  0  0  0
 24 25  1  0  0  0  0
 22 23  1  0  0  0  0
 22 24  2  0  0  0  0
 20 21  1  0  0  0  0
 19 20  1  0  0  0  0
 19 22  1  0  0  0  0
 17 18  1  0  0  0  0
 17 19  2  0  0  0  0
 15 16  1  0  0  0  0
 15 17  1  0  0  0  0
 14 15  2  0  0  0  0
 14 24  1  0  0  0  0
 11 12  1  0  0  0  0
 11 13  1  0  0  0  0
 11 14  1  0  0  0  0
  9 10  1  0  0  0  0
  9 11  1  0  0  0  0
  9 26  1  0  0  0  0
  7  8  1  0  0  0  0
  7  9  1  0  0  0  0
 30 31  1  0  0  0  0
 30 32  1  0  0  0  0
 30 33  1  0  0  0  0
 28 29  1  0  0  0  0
 28 30  1  0  0  0  0
M  END
$$$$
default_name
  -OEChem-01062215323D

 33 33  0     1  0  0  0  0  0999 V2000
   -4.0702   -3.8485    1.4554 H   0  0  0  0  0  0  0  0  0  0  0  0
   -4.0012   -2.9605    0.8284 C   0  0  0  0  0  0  0  0  0  0  0  0
   -4.7652   -2.2435    1.1234 H   0  0  0  0  0  0  0  0  0  0  0  0
   -4.1352   -3.2385   -0.2156 H   0  0  0  0  0  0  0  0  0  0  0  0
   -2.6362   -2.3395    1.0094 C   0  0  0  0  0  0  0  0  0  0  0  0
   -1.8292   -2.8395    1.7814 O   0  0  0  0  0  0  0  0  0  0  0  0
   -2.3832   -1.2445    0.2964 N   0  0  0  0  0  0  0  0  0  0  0  0
   -3.1102   -0.8685   -0.2946 H   0  0  0  0  0  0  0  0  0  0  0  0
   -1.1292   -0.4875    0.3524 C   0  0  1  0  0  0  0  0  0  0  0  0
   -1.3417    0.5540    0.1083 H   0  0  0  0  0  0  0  0  0  0  0  0
   -0.5624   -0.5432    1.7815 C   0  0  0  0  0  0  0  0  0  0  0  0
   -0.4812   -1.5863    2.0901 H   0  0  0  0  0  0  0  0  0  0  0  0
    0.4451   -0.1239    1.7787 H   0  0  0  0  0  0  0  0  0  0  0  0
   -1.4073    0.1869    2.8077 C   0  0  0  0  0  0  0  0  0  0  0  0
   -1.3071    1.5858    2.9461 C   0  0  0  0  0  0  0  0  0  0  0  0
   -0.6061    2.1413    2.3369 H   0  0  0  0  0  0  0  0  0  0  0  0
   -2.1231    2.2641    3.8724 C   0  0  0  0  0  0  0  0  0  0  0  0
   -2.0427    3.3352    3.9768 H   0  0  0  0  0  0  0  0  0  0  0  0
   -3.0451    1.5408    4.6600 C   0  0  0  0  0  0  0  0  0  0  0  0
   -3.8385    2.1860    5.5540 O   0  0  0  0  0  0  0  0  0  0  0  0
   -3.6190    3.1158    5.6265 H   0  0  0  0  0  0  0  0  0  0  0  0
   -3.1474    0.1416    4.5167 C   0  0  0  0  0  0  0  0  0  0  0  0
   -3.8530   -0.4009    5.1278 H   0  0  0  0  0  0  0  0  0  0  0  0
   -2.3272   -0.5341    3.5933 C   0  0  0  0  0  0  0  0  0  0  0  0
   -2.3998   -1.6103    3.4903 H   0  0  0  0  0  0  0  0  0  0  0  0
   -0.1213   -1.0148   -0.6824 C   0  0  0  0  0  0  0  0  0  0  0  0
   -0.2984   -2.1092   -1.2182 O   0  0  0  0  0  0  0  0  0  0  0  0
    0.9356   -0.2414   -0.9614 N   0  0  0  0  0  0  0  0  0  0  0  0
    1.0388    0.6146   -0.4360 H   0  0  0  0  0  0  0  0  0  0  0  0
    1.9849   -0.5921   -1.9157 C   0  0  0  0  0  0  0  0  0  0  0  0
    1.5376   -0.8904   -2.8655 H   0  0  0  0  0  0  0  0  0  0  0  0
    2.6434    0.2621   -2.0811 H   0  0  0  0  0  0  0  0  0  0  0  0
    2.5699   -1.4285   -1.5274 H   0  0  0  0  0  0  0  0  0  0  0  0
  5  6  2  0  0  0  0
  5  7  1  0  0  0  0
  2  3  1  0  0  0  0
  2  4  1  0  0  0  0
  2  5  1  0  0  0  0
  1  2  1  0  0  0  0
 26 27  2  0  0  0  0
 26 28  1  0  0  0  0
 24 25  1  0  0  0  0
 22 23  1  0  0  0  0
 22 24  2  0  0  0  0
 20 21  1  0  0  0  0
 19 20  1  0  0  0  0
 19 22  1  0  0  0  0
 17 18  1  0  0  0  0
 17 19  2  0  0  0  0
 15 16  1  0  0  0  0
 15 17  1  0  0  0  0
 14 15  2  0  0  0  0
 14 24  1  0  0  0  0
 11 12  1  0  0  0  0
 11 13  1  0  0  0  0
 11 14  1  0  0  0  0
  9 10  1  0  0  0  0
  9 11  1  0  0  0  0
  9 26  1  0  0  0  0
  7  8  1  0  0  0  0
  7  9  1  0  0  0  0
 30 31  1  0  0  0  0
 30 32  1  0  0  0  0
 30 33  1  0  0  0  0
 28 29  1  0  0  0  0
 28 30  1  0  0  0  0
M  END
$$$$
default_name
  -OEChem-01062215323D

 33 33  0     1  0  0  0  0  0999 V2000
   -4.0702   -3.8485    1.4554 H   0  0  0  0  0  0  0  0  0  0  0  0
   -4.0012   -2.9605    0.8284 C   0  0  0  0  0  0  0  0  0  0  0  0
   -4.7652   -2.2435    1.1234 H   0  0  0  0  0  0  0  0  0  0  0  0
   -4.1352   -3.2385   -0.2156 H   0  0  0  0  0  0  0  0  0  0  0  0
   -2.6362   -2.3395    1.0094 C   0  0  0  0  0  0  0  0  0  0  0  0
   -1.8292   -2.8395    1.7814 O   0  0  0  0  0  0  0  0  0  0  0  0
   -2.3832   -1.2445    0.2964 N   0  0  0  0  0  0  0  0  0  0  0  0
   -3.1102   -0.8685   -0.2946 H   0  0  0  0  0  0  0  0  0  0  0  0
   -1.1292   -0.4875    0.3524 C   0  0  1  0  0  0  0  0  0  0  0  0
   -1.3672    0.5766    0.3760 H   0  0  0  0  0  0  0  0  0  0  0  0
   -0.3753   -0.8431    1.6454 C   0  0  0  0  0  0  0  0  0  0  0  0
   -0.2586   -1.9262    1.7011 H   0  0  0  0  0  0  0  0  0  0  0  0
    0.6248   -0.4085    1.6023 H   0  0  0  0  0  0  0  0  0  0  0  0
   -1.0703   -0.3789    2.9108 C   0  0  0  0  0  0  0  0  0  0  0  0
   -0.9452    0.9570    3.3419 C   0  0  0  0  0  0  0  0  0  0  0  0
   -0.3299    1.6506    2.7839 H   0  0  0  0  0  0  0  0  0  0  0  0
   -1.6254    1.3936    4.4954 C   0  0  0  0  0  0  0  0  0  0  0  0
   -1.5261    2.4169    4.8236 H   0  0  0  0  0  0  0  0  0  0  0  0
   -2.4365    0.4915    5.2179 C   0  0  0  0  0  0  0  0  0  0  0  0
   -3.0989    0.9035    6.3299 O   0  0  0  0  0  0  0  0  0  0  0  0
   -2.8668    1.7995    6.5773 H   0  0  0  0  0  0  0  0  0  0  0  0
   -2.5645   -0.8437    4.7822 C   0  0  0  0  0  0  0  0  0  0  0  0
   -3.1841   -1.5251    5.3455 H   0  0  0  0  0  0  0  0  0  0  0  0
   -1.8797   -1.2782    3.6314 C   0  0  0  0  0  0  0  0  0  0  0  0
   -1.9711   -2.3066    3.3026 H   0  0  0  0  0  0  0  0  0  0  0  0
   -0.2727   -0.7481   -0.8979 C   0  0  0  0  0  0  0  0  0  0  0  0
   -0.6739   -1.5128   -1.7756 O   0  0  0  0  0  0  0  0  0  0  0  0
    0.9057   -0.1173   -0.9789 N   0  0  0  0  0  0  0  0  0  0  0  0
    1.1879    0.4467   -0.1904 H   0  0  0  0  0  0  0  0  0  0  0  0
    1.8394   -0.2544   -2.0943 C   0  0  0  0  0  0  0  0  0  0  0  0
    1.3157   -0.0924   -3.0380 H   0  0  0  0  0  0  0  0  0  0  0  0
    2.6460    0.4745   -2.0010 H   0  0  0  0  0  0  0  0  0  0  0  0
    2.2619   -1.2613   -2.0979 H   0  0  0  0  0  0  0  0  0  0  0  0
  5  6  2  0  0  0  0
  5  7  1  0  0  0  0
  2  3  1  0  0  0  0
  2  4  1  0  0  0  0
  2  5  1  0  0  0  0
  1  2  1  0  0  0  0
 26 27  2  0  0  0  0
 26 28  1  0  0  0  0
 24 25  1  0  0  0  0
 22 23  1  0  0  0  0
 22 24  2  0  0  0  0
 20 21  1  0  0  0  0
 19 20  1  0  0  0  0
 19 22  1  0  0  0  0
 17 18  1  0  0  0  0
 17 19  2  0  0  0  0
 15 16  1  0  0  0  0
 15 17  1  0  0  0  0
 14 15  2  0  0  0  0
 14 24  1  0  0  0  0
 11 12  1  0  0  0  0
 11 13  1  0  0  0  0
 11 14  1  0  0  0  0
  9 10  1  0  0  0  0
  9 11  1  0  0  0  0
  9 26  1  0  0  0  0
  7  8  1  0  0  0  0
  7  9  1  0  0  0  0
 30 31  1  0  0  0  0
 30 32  1  0  0  0  0
 30 33  1  0  0  0  0
 28 29  1  0  0  0  0
 28 30  1  0  0  0  0
M  END
$$$$
default_name
  -OEChem-01062215323D

 33 33  0     1  0  0  0  0  0999 V2000
   -4.0702   -3.8485    1.4554 H   0  0  0  0  0  0  0  0  0  0  0  0
   -4.0012   -2.9605    0.8284 C   0  0  0  0  0  0  0  0  0  0  0  0
   -4.7652   -2.2435    1.1234 H   0  0  0  0  0  0  0  0  0  0  0  0
   -4.1352   -3.2385   -0.2156 H   0  0  0  0  0  0  0  0  0  0  0  0
   -2.6362   -2.3395    1.0094 C   0  0  0  0  0  0  0  0  0  0  0  0
   -1.8292   -2.8395    1.7814 O   0  0  0  0  0  0  0  0  0  0  0  0
   -2.3832   -1.2445    0.2964 N   0  0  0  0  0  0  0  0  0  0  0  0
   -3.1102   -0.8685   -0.2946 H   0  0  0  0  0  0  0  0  0  0  0  0
   -1.1292   -0.4875    0.3524 C   0  0  1  0  0  0  0  0  0  0  0  0
   -1.3672    0.5766    0.3760 H   0  0  0  0  0  0  0  0  0  0  0  0
   -0.3753   -0.8431    1.6454 C   0  0  0  0  0  0  0  0  0  0  0  0
   -0.2586   -1.9262    1.7011 H   0  0  0  0  0  0  0  0  0  0  0  0
    0.6248   -0.4085    1.6023 H   0  0  0  0  0  0  0  0  0  0  0  0
   -1.0703   -0.3789    2.9108 C   0  0  0  0  0  0  0  0  0  0  0  0
   -0.9452    0.9570    3.3419 C   0  0  0  0  0  0  0  0  0  0  0  0
   -0.3299    1.6506    2.7839 H   0  0  0  0  0  0  0  0  0  0  0  0
   -1.6254    1.3936    4.4954 C   0  0  0  0  0  0  0  0  0  0  0  0
   -1.5261    2.4169    4.8236 H   0  0  0  0  0  0  0  0  0  0  0  0
   -2.4365    0.4915    5.2179 C   0  0  0  0  0  0  0  0  0  0  0  0
   -3.0989    0.9035    6.3299 O   0  0  0  0  0  0  0  0  0  0  0  0
   -2.8668    1.7995    6.5773 H   0  0  0  0  0  0  0  0  0  0  0  0
   -2.5645   -0.8437    4.7822 C   0  0  0  0  0  0  0  0  0  0  0  0
   -3.1841   -1.5251    5.3455 H   0  0  0  0  0  0  0  0  0  0  0  0
   -1.8797   -1.2782    3.6314 C   0  0  0  0  0  0  0  0  0  0  0  0
   -1.9711   -2.3066    3.3026 H   0  0  0  0  0  0  0  0  0  0  0  0
   -0.2727   -0.7481   -0.8979 C   0  0  0  0  0  0  0  0  0  0  0  0
   -0.7709   -1.2793   -1.8907 O   0  0  0  0  0  0  0  0  0  0  0  0
    1.0135   -0.3787   -0.8506 N   0  0  0  0  0  0  0  0  0  0  0  0
    1.3592   -0.0036    0.0208 H   0  0  0  0  0  0  0  0  0  0  0  0
    1.9630   -0.5552   -1.9470 C   0  0  0  0  0  0  0  0  0  0  0  0
    1.5411   -0.1550   -2.8706 H   0  0  0  0  0  0  0  0  0  0  0  0
    2.8962   -0.0357   -1.7233 H   0  0  0  0  0  0  0  0  0  0  0  0
    2.1672   -1.6185   -2.0884 H   0  0  0  0  0  0  0  0  0  0  0  0
  5  6  2  0  0  0  0
  5  7  1  0  0  0  0
  2  3  1  0  0  0  0
  2  4  1  0  0  0  0
  2  5  1  0  0  0  0
  1  2  1  0  0  0  0
 26 27  2  0  0  0  0
 26 28  1  0  0  0  0
 24 25  1  0  0  0  0
 22 23  1  0  0  0  0
 22 24  2  0  0  0  0
 20 21  1  0  0  0  0
 19 20  1  0  0  0  0
 19 22  1  0  0  0  0
 17 18  1  0  0  0  0
 17 19  2  0  0  0  0
 15 16  1  0  0  0  0
 15 17  1  0  0  0  0
 14 15  2  0  0  0  0
 14 24  1  0  0  0  0
 11 12  1  0  0  0  0
 11 13  1  0  0  0  0
 11 14  1  0  0  0  0
  9 10  1  0  0  0  0
  9 11  1  0  0  0  0
  9 26  1  0  0  0  0
  7  8  1  0  0  0  0
  7  9  1  0  0  0  0
 30 31  1  0  0  0  0
 30 32  1  0  0  0  0
 30 33  1  0  0  0  0
 28 29  1  0  0  0  0
 28 30  1  0  0  0  0
M  END
$$$$
default_name
  -OEChem-01062215323D

 33 33  0     1  0  0  0  0  0999 V2000
   -4.0702   -3.8485    1.4554 H   0  0  0  0  0  0  0  0  0  0  0  0
   -4.0012   -2.9605    0.8284 C   0  0  0  0  0  0  0  0  0  0  0  0
   -4.7652   -2.2435    1.1234 H   0  0  0  0  0  0  0  0  0  0  0  0
   -4.1352   -3.2385   -0.2156 H   0  0  0  0  0  0  0  0  0  0  0  0
   -2.6362   -2.3395    1.0094 C   0  0  0  0  0  0  0  0  0  0  0  0
   -1.8292   -2.8395    1.7814 O   0  0  0  0  0  0  0  0  0  0  0  0
   -2.3832   -1.2445    0.2964 N   0  0  0  0  0  0  0  0  0  0  0  0
   -3.1102   -0.8685   -0.2946 H   0  0  0  0  0  0  0  0  0  0  0  0
   -1.1292   -0.4875    0.3524 C   0  0  1  0  0  0  0  0  0  0  0  0
   -1.3672    0.5766    0.3760 H   0  0  0  0  0  0  0  0  0  0  0  0
   -0.3753   -0.8431    1.6454 C   0  0  0  0  0  0  0  0  0  0  0  0
   -0.2586   -1.9262    1.7011 H   0  0  0  0  0  0  0  0  0  0  0  0
    0.6248   -0.4085    1.6023 H   0  0  0  0  0  0  0  0  0  0  0  0
   -1.0703   -0.3789    2.9108 C   0  0  0  0  0  0  0  0  0  0  0  0
   -0.9452    0.9570    3.3419 C   0  0  0  0  0  0  0  0  0  0  0  0
   -0.3299    1.6506    2.7839 H   0  0  0  0  0  0  0  0  0  0  0  0
   -1.6254    1.3936    4.4954 C   0  0  0  0  0  0  0  0  0  0  0  0
   -1.5261    2.4169    4.8236 H   0  0  0  0  0  0  0  0  0  0  0  0
   -2.4365    0.4915    5.2179 C   0  0  0  0  0  0  0  0  0  0  0  0
   -3.0989    0.9035    6.3299 O   0  0  0  0  0  0  0  0  0  0  0  0
   -2.8668    1.7995    6.5773 H   0  0  0  0  0  0  0  0  0  0  0  0
   -2.5645   -0.8437    4.7822 C   0  0  0  0  0  0  0  0  0  0  0  0
   -3.1841   -1.5251    5.3455 H   0  0  0  0  0  0  0  0  0  0  0  0
   -1.8797   -1.2782    3.6314 C   0  0  0  0  0  0  0  0  0  0  0  0
   -1.9711   -2.3066    3.3026 H   0  0  0  0  0  0  0  0  0  0  0  0
   -0.2727   -0.7481   -0.8979 C   0  0  0  0  0  0  0  0  0  0  0  0
   -0.8104   -1.0169   -1.9725 O   0  0  0  0  0  0  0  0  0  0  0  0
    1.0570   -0.6723   -0.7596 N   0  0  0  0  0  0  0  0  0  0  0  0
    1.4207   -0.5050    0.1674 H   0  0  0  0  0  0  0  0  0  0  0  0
    2.0126   -0.8929   -1.8426 C   0  0  0  0  0  0  0  0  0  0  0  0
    1.7384   -0.2870   -2.7079 H   0  0  0  0  0  0  0  0  0  0  0  0
    3.0183   -0.6212   -1.5176 H   0  0  0  0  0  0  0  0  0  0  0  0
    2.0000   -1.9449   -2.1349 H   0  0  0  0  0  0  0  0  0  0  0  0
  5  6  2  0  0  0  0
  5  7  1  0  0  0  0
  2  3  1  0  0  0  0
  2  4  1  0  0  0  0
  2  5  1  0  0  0  0
  1  2  1  0  0  0  0
 26 27  2  0  0  0  0
 26 28  1  0  0  0  0
 24 25  1  0  0  0  0
 22 23  1  0  0  0  0
 22 24  2  0  0  0  0
 20 21  1  0  0  0  0
 19 20  1  0  0  0  0
 19 22  1  0  0  0  0
 17 18  1  0  0  0  0
 17 19  2  0  0  0  0
 15 16  1  0  0  0  0
 15 17  1  0  0  0  0
 14 15  2  0  0  0  0
 14 24  1  0  0  0  0
 11 12  1  0  0  0  0
 11 13  1  0  0  0  0
 11 14  1  0  0  0  0
  9 10  1  0  0  0  0
  9 11  1  0  0  0  0
  9 26  1  0  0  0  0
  7  8  1  0  0  0  0
  7  9  1  0  0  0  0
 30 31  1  0  0  0  0
 30 32  1  0  0  0  0
 30 33  1  0  0  0  0
 28 29  1  0  0  0  0
 28 30  1  0  0  0  0
M  END
$$$$
default_name
  -OEChem-01062215323D

 33 33  0     1  0  0  0  0  0999 V2000
   -4.0702   -3.8485    1.4554 H   0  0  0  0  0  0  0  0  0  0  0  0
   -4.0012   -2.9605    0.8284 C   0  0  0  0  0  0  0  0  0  0  0  0
   -4.7652   -2.2435    1.1234 H   0  0  0  0  0  0  0  0  0  0  0  0
   -4.1352   -3.2385   -0.2156 H   0  0  0  0  0  0  0  0  0  0  0  0
   -2.6362   -2.3395    1.0094 C   0  0  0  0  0  0  0  0  0  0  0  0
   -1.8292   -2.8395    1.7814 O   0  0  0  0  0  0  0  0  0  0  0  0
   -2.3832   -1.2445    0.2964 N   0  0  0  0  0  0  0  0  0  0  0  0
   -3.1102   -0.8685   -0.2946 H   0  0  0  0  0  0  0  0  0  0  0  0
   -1.1292   -0.4875    0.3524 C   0  0  1  0  0  0  0  0  0  0  0  0
   -1.3672    0.5766    0.3760 H   0  0  0  0  0  0  0  0  0  0  0  0
   -0.3753   -0.8431    1.6454 C   0  0  0  0  0  0  0  0  0  0  0  0
   -0.2586   -1.9262    1.7011 H   0  0  0  0  0  0  0  0  0  0  0  0
    0.6248   -0.4085    1.6023 H   0  0  0  0  0  0  0  0  0  0  0  0
   -1.0703   -0.3789    2.9108 C   0  0  0  0  0  0  0  0  0  0  0  0
   -0.9452    0.9570    3.3419 C   0  0  0  0  0  0  0  0  0  0  0  0
   -0.3299    1.6506    2.7839 H   0  0  0  0  0  0  0  0  0  0  0  0
   -1.6254    1.3936    4.4954 C   0  0  0  0  0  0  0  0  0  0  0  0
   -1.5261    2.4169    4.8236 H   0  0  0  0  0  0  0  0  0  0  0  0
   -2.4365    0.4915    5.2179 C   0  0  0  0  0  0  0  0  0  0  0  0
   -3.0989    0.9035    6.3299 O   0  0  0  0  0  0  0  0  0  0  0  0
   -2.8668    1.7995    6.5773 H   0  0  0  0  0  0  0  0  0  0  0  0
   -2.5645   -0.8437    4.7822 C   0  0  0  0  0  0  0  0  0  0  0  0
   -3.1841   -1.5251    5.3455 H   0  0  0  0  0  0  0  0  0  0  0  0
   -1.8797   -1.2782    3.6314 C   0  0  0  0  0  0  0  0  0  0  0  0
   -1.9711   -2.3066    3.3026 H   0  0  0  0  0  0  0  0  0  0  0  0
   -0.2727   -0.7481   -0.8979 C   0  0  0  0  0  0  0  0  0  0  0  0
   -0.7898   -0.7432   -2.0154 O   0  0  0  0  0  0  0  0  0  0  0  0
    1.0332   -0.9782   -0.7121 N   0  0  0  0  0  0  0  0  0  0  0  0
    1.3680   -1.0234    0.2394 H   0  0  0  0  0  0  0  0  0  0  0  0
    1.9849   -1.2446   -1.7882 C   0  0  0  0  0  0  0  0  0  0  0  0
    1.8940   -0.4795   -2.5612 H   0  0  0  0  0  0  0  0  0  0  0  0
    3.0039   -1.2421   -1.3980 H   0  0  0  0  0  0  0  0  0  0  0  0
    1.7720   -2.2184   -2.2341 H   0  0  0  0  0  0  0  0  0  0  0  0
  5  6  2  0  0  0  0
  5  7  1  0  0  0  0
  2  3  1  0  0  0  0
  2  4  1  0  0  0  0
  2  5  1  0  0  0  0
  1  2  1  0  0  0  0
 26 27  2  0  0  0  0
 26 28  1  0  0  0  0
 24 25  1  0  0  0  0
 22 23  1  0  0  0  0
 22 24  2  0  0  0  0
 20 21  1  0  0  0  0
 19 20  1  0  0  0  0
 19 22  1  0  0  0  0
 17 18  1  0  0  0  0
 17 19  2  0  0  0  0
 15 16  1  0  0  0  0
 15 17  1  0  0  0  0
 14 15  2  0  0  0  0
 14 24  1  0  0  0  0
 11 12  1  0  0  0  0
 11 13  1  0  0  0  0
 11 14  1  0  0  0  0
  9 10  1  0  0  0  0
  9 11  1  0  0  0  0
  9 26  1  0  0  0  0
  7  8  1  0  0  0  0
  7  9  1  0  0  0  0
 30 31  1  0  0  0  0
 30 32  1  0  0  0  0
 30 33  1  0  0  0  0
 28 29  1  0  0  0  0
 28 30  1  0  0  0  0
M  END
$$$$
default_name
  -OEChem-01062215323D

 33 33  0     1  0  0  0  0  0999 V2000
   -4.0702   -3.8485    1.4554 H   0  0  0  0  0  0  0  0  0  0  0  0
   -4.0012   -2.9605    0.8284 C   0  0  0  0  0  0  0  0  0  0  0  0
   -4.7652   -2.2435    1.1234 H   0  0  0  0  0  0  0  0  0  0  0  0
   -4.1352   -3.2385   -0.2156 H   0  0  0  0  0  0  0  0  0  0  0  0
   -2.6362   -2.3395    1.0094 C   0  0  0  0  0  0  0  0  0  0  0  0
   -1.8292   -2.8395    1.7814 O   0  0  0  0  0  0  0  0  0  0  0  0
   -2.3832   -1.2445    0.2964 N   0  0  0  0  0  0  0  0  0  0  0  0
   -3.1102   -0.8685   -0.2946 H   0  0  0  0  0  0  0  0  0  0  0  0
   -1.1292   -0.4875    0.3524 C   0  0  1  0  0  0  0  0  0  0  0  0
   -1.3672    0.5766    0.3760 H   0  0  0  0  0  0  0  0  0  0  0  0
   -0.3753   -0.8431    1.6454 C   0  0  0  0  0  0  0  0  0  0  0  0
   -0.2586   -1.9262    1.7011 H   0  0  0  0  0  0  0  0  0  0  0  0
    0.6248   -0.4085    1.6023 H   0  0  0  0  0  0  0  0  0  0  0  0
   -1.0703   -0.3789    2.9108 C   0  0  0  0  0  0  0  0  0  0  0  0
   -0.9452    0.9570    3.3419 C   0  0  0  0  0  0  0  0  0  0  0  0
   -0.3299    1.6506    2.7839 H   0  0  0  0  0  0  0  0  0  0  0  0
   -1.6254    1.3936    4.4954 C   0  0  0  0  0  0  0  0  0  0  0  0
   -1.5261    2.4169    4.8236 H   0  0  0  0  0  0  0  0  0  0  0  0
   -2.4365    0.4915    5.2179 C   0  0  0  0  0  0  0  0  0  0  0  0
   -3.0989    0.9035    6.3299 O   0  0  0  0  0  0  0  0  0  0  0  0
   -2.8668    1.7995    6.5773 H   0  0  0  0  0  0  0  0  0  0  0  0
   -2.5645   -0.8437    4.7822 C   0  0  0  0  0  0  0  0  0  0  0  0
   -3.1841   -1.5251    5.3455 H   0  0  0  0  0  0  0  0  0  0  0  0
   -1.8797   -1.2782    3.6314 C   0  0  0  0  0  0  0  0  0  0  0  0
   -1.9711   -2.3066    3.3026 H   0  0  0  0  0  0  0  0  0  0  0  0
   -0.2727   -0.7481   -0.8979 C   0  0  0  0  0  0  0  0  0  0  0  0
   -0.7103   -0.4771   -2.0165 O   0  0  0  0  0  0  0  0  0  0  0  0
    0.9438   -1.2755   -0.7113 N   0  0  0  0  0  0  0  0  0  0  0  0
    1.2050   -1.5235    0.2320 H   0  0  0  0  0  0  0  0  0  0  0  0
    1.8817   -1.5863   -1.7877 C   0  0  0  0  0  0  0  0  0  0  0  0
    1.9973   -0.7194   -2.4404 H   0  0  0  0  0  0  0  0  0  0  0  0
    2.8542   -1.8560   -1.3726 H   0  0  0  0  0  0  0  0  0  0  0  0
    1.4985   -2.4202   -2.3794 H   0  0  0  0  0  0  0  0  0  0  0  0
  5  6  2  0  0  0  0
  5  7  1  0  0  0  0
  2  3  1  0  0  0  0
  2  4  1  0  0  0  0
  2  5  1  0  0  0  0
  1  2  1  0  0  0  0
 26 27  2  0  0  0  0
 26 28  1  0  0  0  0
 24 25  1  0  0  0  0
 22 23  1  0  0  0  0
 22 24  2  0  0  0  0
 20 21  1  0  0  0  0
 19 20  1  0  0  0  0
 19 22  1  0  0  0  0
 17 18  1  0  0  0  0
 17 19  2  0  0  0  0
 15 16  1  0  0  0  0
 15 17  1  0  0  0  0
 14 15  2  0  0  0  0
 14 24  1  0  0  0  0
 11 12  1  0  0  0  0
 11 13  1  0  0  0  0
 11 14  1  0  0  0  0
  9 10  1  0  0  0  0
  9 11  1  0  0  0  0
  9 26  1  0  0  0  0
  7  8  1  0  0  0  0
  7  9  1  0  0  0  0
 30 31  1  0  0  0  0
 30 32  1  0  0  0  0
 30 33  1  0  0  0  0
 28 29  1  0  0  0  0
 28 30  1  0  0  0  0
M  END
$$$$
default_name
  -OEChem-01062215323D

 33 33  0     1  0  0  0  0  0999 V2000
   -4.0702   -3.8485    1.4554 H   0  0  0  0  0  0  0  0  0  0  0  0
   -4.0012   -2.9605    0.8284 C   0  0  0  0  0  0  0  0  0  0  0  0
   -4.7652   -2.2435    1.1234 H   0  0  0  0  0  0  0  0  0  0  0  0
   -4.1352   -3.2385   -0.2156 H   0  0  0  0  0  0  0  0  0  0  0  0
   -2.6362   -2.3395    1.0094 C   0  0  0  0  0  0  0  0  0  0  0  0
   -1.8292   -2.8395    1.7814 O   0  0  0  0  0  0  0  0  0  0  0  0
   -2.3832   -1.2445    0.2964 N   0  0  0  0  0  0  0  0  0  0  0  0
   -3.1102   -0.8685   -0.2946 H   0  0  0  0  0  0  0  0  0  0  0  0
   -1.1292   -0.4875    0.3524 C   0  0  1  0  0  0  0  0  0  0  0  0
   -1.3672    0.5766    0.3760 H   0  0  0  0  0  0  0  0  0  0  0  0
   -0.3753   -0.8431    1.6454 C   0  0  0  0  0  0  0  0  0  0  0  0
   -0.2586   -1.9262    1.7011 H   0  0  0  0  0  0  0  0  0  0  0  0
    0.6248   -0.4085    1.6023 H   0  0  0  0  0  0  0  0  0  0  0  0
   -1.0703   -0.3789    2.9108 C   0  0  0  0  0  0  0  0  0  0  0  0
   -0.9452    0.9570    3.3419 C   0  0  0  0  0  0  0  0  0  0  0  0
   -0.3299    1.6506    2.7839 H   0  0  0  0  0  0  0  0  0  0  0  0
   -1.6254    1.3936    4.4954 C   0  0  0  0  0  0  0  0  0  0  0  0
   -1.5261    2.4169    4.8236 H   0  0  0  0  0  0  0  0  0  0  0  0
   -2.4365    0.4915    5.2179 C   0  0  0  0  0  0  0  0  0  0  0  0
   -3.0989    0.9035    6.3299 O   0  0  0  0  0  0  0  0  0  0  0  0
   -2.8668    1.7995    6.5773 H   0  0  0  0  0  0  0  0  0  0  0  0
   -2.5645   -0.8437    4.7822 C   0  0  0  0  0  0  0  0  0  0  0  0
   -3.1841   -1.5251    5.3455 H   0  0  0  0  0  0  0  0  0  0  0  0
   -1.8797   -1.2782    3.6314 C   0  0  0  0  0  0  0  0  0  0  0  0
   -1.9711   -2.3066    3.3026 H   0  0  0  0  0  0  0  0  0  0  0  0
   -0.2727   -0.7481   -0.8979 C   0  0  0  0  0  0  0  0  0  0  0  0
   -0.5776   -0.2365   -1.9757 O   0  0  0  0  0  0  0  0  0  0  0  0
    0.7949   -1.5440   -0.7574 N   0  0  0  0  0  0  0  0  0  0  0  0
    0.9426   -1.9711    0.1455 H   0  0  0  0  0  0  0  0  0  0  0  0
    1.7101   -1.8948   -1.8409 C   0  0  0  0  0  0  0  0  0  0  0  0
    2.0413   -0.9902   -2.3538 H   0  0  0  0  0  0  0  0  0  0  0  0
    2.5793   -2.4212   -1.4432 H   0  0  0  0  0  0  0  0  0  0  0  0
    1.1982   -2.5367   -2.5608 H   0  0  0  0  0  0  0  0  0  0  0  0
  5  6  2  0  0  0  0
  5  7  1  0  0  0  0
  2  3  1  0  0  0  0
  2  4  1  0  0  0  0
  2  5  1  0  0  0  0
  1  2  1  0  0  0  0
 26 27  2  0  0  0  0
 26 28  1  0  0  0  0
 24 25  1  0  0  0  0
 22 23  1  0  0  0  0
 22 24  2  0  0  0  0
 20 21  1  0  0  0  0
 19 20  1  0  0  0  0
 19 22  1  0  0  0  0
 17 18  1  0  0  0  0
 17 19  2  0  0  0  0
 15 16  1  0  0  0  0
 15 17  1  0  0  0  0
 14 15  2  0  0  0  0
 14 24  1  0  0  0  0
 11 12  1  0  0  0  0
 11 13  1  0  0  0  0
 11 14  1  0  0  0  0
  9 10  1  0  0  0  0
  9 11  1  0  0  0  0
  9 26  1  0  0  0  0
  7  8  1  0  0  0  0
  7  9  1  0  0  0  0
 30 31  1  0  0  0  0
 30 32  1  0  0  0  0
 30 33  1  0  0  0  0
 28 29  1  0  0  0  0
 28 30  1  0  0  0  0
M  END
$$$$
default_name
  -OEChem-01062215323D

 33 33  0     1  0  0  0  0  0999 V2000
   -4.0702   -3.8485    1.4554 H   0  0  0  0  0  0  0  0  0  0  0  0
   -4.0012   -2.9605    0.8284 C   0  0  0  0  0  0  0  0  0  0  0  0
   -4.7652   -2.2435    1.1234 H   0  0  0  0  0  0  0  0  0  0  0  0
   -4.1352   -3.2385   -0.2156 H   0  0  0  0  0  0  0  0  0  0  0  0
   -2.6362   -2.3395    1.0094 C   0  0  0  0  0  0  0  0  0  0  0  0
   -1.8292   -2.8395    1.7814 O   0  0  0  0  0  0  0  0  0  0  0  0
   -2.3832   -1.2445    0.2964 N   0  0  0  0  0  0  0  0  0  0  0  0
   -3.1102   -0.8685   -0.2946 H   0  0  0  0  0  0  0  0  0  0  0  0
   -1.1292   -0.4875    0.3524 C   0  0  1  0  0  0  0  0  0  0  0  0
   -1.3672    0.5766    0.3760 H   0  0  0  0  0  0  0  0  0  0  0  0
   -0.3753   -0.8431    1.6454 C   0  0  0  0  0  0  0  0  0  0  0  0
   -0.2586   -1.9262    1.7011 H   0  0  0  0  0  0  0  0  0  0  0  0
    0.6248   -0.4085    1.6023 H   0  0  0  0  0  0  0  0  0  0  0  0
   -1.0703   -0.3789    2.9108 C   0  0  0  0  0  0  0  0  0  0  0  0
   -0.9452    0.9570    3.3419 C   0  0  0  0  0  0  0  0  0  0  0  0
   -0.3299    1.6506    2.7839 H   0  0  0  0  0  0  0  0  0  0  0  0
   -1.6254    1.3936    4.4954 C   0  0  0  0  0  0  0  0  0  0  0  0
   -1.5261    2.4169    4.8236 H   0  0  0  0  0  0  0  0  0  0  0  0
   -2.4365    0.4915    5.2179 C   0  0  0  0  0  0  0  0  0  0  0  0
   -3.0989    0.9035    6.3299 O   0  0  0  0  0  0  0  0  0  0  0  0
   -2.8668    1.7995    6.5773 H   0  0  0  0  0  0  0  0  0  0  0  0
   -2.5645   -0.8437    4.7822 C   0  0  0  0  0  0  0  0  0  0  0  0
   -3.1841   -1.5251    5.3455 H   0  0  0  0  0  0  0  0  0  0  0  0
   -1.8797   -1.2782    3.6314 C   0  0  0  0  0  0  0  0  0  0  0  0
   -1.9711   -2.3066    3.3026 H   0  0  0  0  0  0  0  0  0  0  0  0
   -0.2727   -0.7481   -0.8979 C   0  0  0  0  0  0  0  0  0  0  0  0
   -0.4005   -0.0380   -1.8957 O   0  0  0  0  0  0  0  0  0  0  0  0
    0.5965   -1.7653   -0.8472 N   0  0  0  0  0  0  0  0  0  0  0  0
    0.5987   -2.3358   -0.0141 H   0  0  0  0  0  0  0  0  0  0  0  0
    1.4818   -2.1490   -1.9444 C   0  0  0  0  0  0  0  0  0  0  0  0
    2.0231   -1.2735   -2.3072 H   0  0  0  0  0  0  0  0  0  0  0  0
    2.1979   -2.8991   -1.6048 H   0  0  0  0  0  0  0  0  0  0  0  0
    0.8916   -2.5598   -2.7661 H   0  0  0  0  0  0  0  0  0  0  0  0
  5  6  2  0  0  0  0
  5  7  1  0  0  0  0
  2  3  1  0  0  0  0
  2  4  1  0  0  0  0
  2  5  1  0  0  0  0
  1  2  1  0  0  0  0
 26 27  2  0  0  0  0
 26 28  1  0  0  0  0
 24 25  1  0  0  0  0
 22 23  1  0  0  0  0
 22 24  2  0  0  0  0
 20 21  1  0  0  0  0
 19 20  1  0  0  0  0
 19 22  1  0  0  0  0
 17 18  1  0  0  0  0
 17 19  2  0  0  0  0
 15 16  1  0  0  0  0
 15 17  1  0  0  0  0
 14 15  2  0  0  0  0
 14 24  1  0  0  0  0
 11 12  1  0  0  0  0
 11 13  1  0  0  0  0
 11 14  1  0  0  0  0
  9 10  1  0  0  0  0
  9 11  1  0  0  0  0
  9 26  1  0  0  0  0
  7  8  1  0  0  0  0
  7  9  1  0  0  0  0
 30 31  1  0  0  0  0
 30 32  1  0  0  0  0
 30 33  1  0  0  0  0
 28 29  1  0  0  0  0
 28 30  1  0  0  0  0
M  END
$$$$
default_name
  -OEChem-01062215323D

 33 33  0     1  0  0  0  0  0999 V2000
   -4.0702   -3.8485    1.4554 H   0  0  0  0  0  0  0  0  0  0  0  0
   -4.0012   -2.9605    0.8284 C   0  0  0  0  0  0  0  0  0  0  0  0
   -4.7652   -2.2435    1.1234 H   0  0  0  0  0  0  0  0  0  0  0  0
   -4.1352   -3.2385   -0.2156 H   0  0  0  0  0  0  0  0  0  0  0  0
   -2.6362   -2.3395    1.0094 C   0  0  0  0  0  0  0  0  0  0  0  0
   -1.8292   -2.8395    1.7814 O   0  0  0  0  0  0  0  0  0  0  0  0
   -2.3832   -1.2445    0.2964 N   0  0  0  0  0  0  0  0  0  0  0  0
   -3.1102   -0.8685   -0.2946 H   0  0  0  0  0  0  0  0  0  0  0  0
   -1.1292   -0.4875    0.3524 C   0  0  1  0  0  0  0  0  0  0  0  0
   -1.3672    0.5766    0.3760 H   0  0  0  0  0  0  0  0  0  0  0  0
   -0.3753   -0.8431    1.6454 C   0  0  0  0  0  0  0  0  0  0  0  0
   -0.2586   -1.9262    1.7011 H   0  0  0  0  0  0  0  0  0  0  0  0
    0.6248   -0.4085    1.6023 H   0  0  0  0  0  0  0  0  0  0  0  0
   -1.0703   -0.3789    2.9108 C   0  0  0  0  0  0  0  0  0  0  0  0
   -0.9452    0.9570    3.3419 C   0  0  0  0  0  0  0  0  0  0  0  0
   -0.3299    1.6506    2.7839 H   0  0  0  0  0  0  0  0  0  0  0  0
   -1.6254    1.3936    4.4954 C   0  0  0  0  0  0  0  0  0  0  0  0
   -1.5261    2.4169    4.8236 H   0  0  0  0  0  0  0  0  0  0  0  0
   -2.4365    0.4915    5.2179 C   0  0  0  0  0  0  0  0  0  0  0  0
   -3.0989    0.9035    6.3299 O   0  0  0  0  0  0  0  0  0  0  0  0
   -2.8668    1.7995    6.5773 H   0  0  0  0  0  0  0  0  0  0  0  0
   -2.5645   -0.8437    4.7822 C   0  0  0  0  0  0  0  0  0  0  0  0
   -3.1841   -1.5251    5.3455 H   0  0  0  0  0  0  0  0  0  0  0  0
   -1.8797   -1.2782    3.6314 C   0  0  0  0  0  0  0  0  0  0  0  0
   -1.9711   -2.3066    3.3026 H   0  0  0  0  0  0  0  0  0  0  0  0
   -0.2727   -0.7481   -0.8979 C   0  0  0  0  0  0  0  0  0  0  0  0
   -0.1912    0.1049   -1.7822 O   0  0  0  0  0  0  0  0  0  0  0  0
    0.3623   -1.9245   -0.9745 N   0  0  0  0  0  0  0  0  0  0  0  0
    0.1968   -2.5927   -0.2358 H   0  0  0  0  0  0  0  0  0  0  0  0
    1.2123   -2.3315   -2.0909 C   0  0  0  0  0  0  0  0  0  0  0  0
    1.9438   -1.5501   -2.3039 H   0  0  0  0  0  0  0  0  0  0  0  0
    1.7360   -3.2572   -1.8466 H   0  0  0  0  0  0  0  0  0  0  0  0
    0.5995   -2.4881   -2.9811 H   0  0  0  0  0  0  0  0  0  0  0  0
  5  6  2  0  0  0  0
  5  7  1  0  0  0  0
  2  3  1  0  0  0  0
  2  4  1  0  0  0  0
  2  5  1  0  0  0  0
  1  2  1  0  0  0  0
 26 27  2  0  0  0  0
 26 28  1  0  0  0  0
 24 25  1  0  0  0  0
 22 23  1  0  0  0  0
 22 24  2  0  0  0  0
 20 21  1  0  0  0  0
 19 20  1  0  0  0  0
 19 22  1  0  0  0  0
 17 18  1  0  0  0  0
 17 19  2  0  0  0  0
 15 16  1  0  0  0  0
 15 17  1  0  0  0  0
 14 15  2  0  0  0  0
 14 24  1  0  0  0  0
 11 12  1  0  0  0  0
 11 13  1  0  0  0  0
 11 14  1  0  0  0  0
  9 10  1  0  0  0  0
  9 11  1  0  0  0  0
  9 26  1  0  0  0  0
  7  8  1  0  0  0  0
  7  9  1  0  0  0  0
 30 31  1  0  0  0  0
 30 32  1  0  0  0  0
 30 33  1  0  0  0  0
 28 29  1  0  0  0  0
 28 30  1  0  0  0  0
M  END
$$$$
default_name
  -OEChem-01062215323D

 33 33  0     1  0  0  0  0  0999 V2000
   -4.0702   -3.8485    1.4554 H   0  0  0  0  0  0  0  0  0  0  0  0
   -4.0012   -2.9605    0.8284 C   0  0  0  0  0  0  0  0  0  0  0  0
   -4.7652   -2.2435    1.1234 H   0  0  0  0  0  0  0  0  0  0  0  0
   -4.1352   -3.2385   -0.2156 H   0  0  0  0  0  0  0  0  0  0  0  0
   -2.6362   -2.3395    1.0094 C   0  0  0  0  0  0  0  0  0  0  0  0
   -1.8292   -2.8395    1.7814 O   0  0  0  0  0  0  0  0  0  0  0  0
   -2.3832   -1.2445    0.2964 N   0  0  0  0  0  0  0  0  0  0  0  0
   -3.1102   -0.8685   -0.2946 H   0  0  0  0  0  0  0  0  0  0  0  0
   -1.1292   -0.4875    0.3524 C   0  0  1  0  0  0  0  0  0  0  0  0
   -1.3672    0.5766    0.3760 H   0  0  0  0  0  0  0  0  0  0  0  0
   -0.3753   -0.8431    1.6454 C   0  0  0  0  0  0  0  0  0  0  0  0
   -0.2586   -1.9262    1.7011 H   0  0  0  0  0  0  0  0  0  0  0  0
    0.6248   -0.4085    1.6023 H   0  0  0  0  0  0  0  0  0  0  0  0
   -1.0703   -0.3789    2.9108 C   0  0  0  0  0  0  0  0  0  0  0  0
   -0.9452    0.9570    3.3419 C   0  0  0  0  0  0  0  0  0  0  0  0
   -0.3299    1.6506    2.7839 H   0  0  0  0  0  0  0  0  0  0  0  0
   -1.6254    1.3936    4.4954 C   0  0  0  0  0  0  0  0  0  0  0  0
   -1.5261    2.4169    4.8236 H   0  0  0  0  0  0  0  0  0  0  0  0
   -2.4365    0.4915    5.2179 C   0  0  0  0  0  0  0  0  0  0  0  0
   -3.0989    0.9035    6.3299 O   0  0  0  0  0  0  0  0  0  0  0  0
   -2.8668    1.7995    6.5773 H   0  0  0  0  0  0  0  0  0  0  0  0
   -2.5645   -0.8437    4.7822 C   0  0  0  0  0  0  0  0  0  0  0  0
   -3.1841   -1.5251    5.3455 H   0  0  0  0  0  0  0  0  0  0  0  0
   -1.8797   -1.2782    3.6314 C   0  0  0  0  0  0  0  0  0  0  0  0
   -1.9711   -2.3066    3.3026 H   0  0  0  0  0  0  0  0  0  0  0  0
   -0.2727   -0.7481   -0.8979 C   0  0  0  0  0  0  0  0  0  0  0  0
    0.0361    0.1826   -1.6427 O   0  0  0  0  0  0  0  0  0  0  0  0
    0.1081   -2.0105   -1.1306 N   0  0  0  0  0  0  0  0  0  0  0  0
   -0.2357   -2.7243   -0.5047 H   0  0  0  0  0  0  0  0  0  0  0  0
    0.9201   -2.4300   -2.2706 C   0  0  0  0  0  0  0  0  0  0  0  0
    1.8089   -1.8010   -2.3440 H   0  0  0  0  0  0  0  0  0  0  0  0
    1.2251   -3.4710   -2.1521 H   0  0  0  0  0  0  0  0  0  0  0  0
    0.3420   -2.3263   -3.1912 H   0  0  0  0  0  0  0  0  0  0  0  0
  5  6  2  0  0  0  0
  5  7  1  0  0  0  0
  2  3  1  0  0  0  0
  2  4  1  0  0  0  0
  2  5  1  0  0  0  0
  1  2  1  0  0  0  0
 26 27  2  0  0  0  0
 26 28  1  0  0  0  0
 24 25  1  0  0  0  0
 22 23  1  0  0  0  0
 22 24  2  0  0  0  0
 20 21  1  0  0  0  0
 19 20  1  0  0  0  0
 19 22  1  0  0  0  0
 17 18  1  0  0  0  0
 17 19  2  0  0  0  0
 15 16  1  0  0  0  0
 15 17  1  0  0  0  0
 14 15  2  0  0  0  0
 14 24  1  0  0  0  0
 11 12  1  0  0  0  0
 11 13  1  0  0  0  0
 11 14  1  0  0  0  0
  9 10  1  0  0  0  0
  9 11  1  0  0  0  0
  9 26  1  0  0  0  0
  7  8  1  0  0  0  0
  7  9  1  0  0  0  0
 30 31  1  0  0  0  0
 30 32  1  0  0  0  0
 30 33  1  0  0  0  0
 28 29  1  0  0  0  0
 28 30  1  0  0  0  0
M  END
$$$$
default_name
  -OEChem-01062215323D

 33 33  0     1  0  0  0  0  0999 V2000
   -4.0702   -3.8485    1.4554 H   0  0  0  0  0  0  0  0  0  0  0  0
   -4.0012   -2.9605    0.8284 C   0  0  0  0  0  0  0  0  0  0  0  0
   -4.7652   -2.2435    1.1234 H   0  0  0  0  0  0  0  0  0  0  0  0
   -4.1352   -3.2385   -0.2156 H   0  0  0  0  0  0  0  0  0  0  0  0
   -2.6362   -2.3395    1.0094 C   0  0  0  0  0  0  0  0  0  0  0  0
   -1.8292   -2.8395    1.7814 O   0  0  0  0  0  0  0  0  0  0  0  0
   -2.3832   -1.2445    0.2964 N   0  0  0  0  0  0  0  0  0  0  0  0
   -3.1102   -0.8685   -0.2946 H   0  0  0  0  0  0  0  0  0  0  0  0
   -1.1292   -0.4875    0.3524 C   0  0  1  0  0  0  0  0  0  0  0  0
   -1.3672    0.5766    0.3760 H   0  0  0  0  0  0  0  0  0  0  0  0
   -0.3753   -0.8431    1.6454 C   0  0  0  0  0  0  0  0  0  0  0  0
   -0.2586   -1.9262    1.7011 H   0  0  0  0  0  0  0  0  0  0  0  0
    0.6248   -0.4085    1.6023 H   0  0  0  0  0  0  0  0  0  0  0  0
   -1.0703   -0.3789    2.9108 C   0  0  0  0  0  0  0  0  0  0  0  0
   -0.9452    0.9570    3.3419 C   0  0  0  0  0  0  0  0  0  0  0  0
   -0.3299    1.6506    2.7839 H   0  0  0  0  0  0  0  0  0  0  0  0
   -1.6254    1.3936    4.4954 C   0  0  0  0  0  0  0  0  0  0  0  0
   -1.5261    2.4169    4.8236 H   0  0  0  0  0  0  0  0  0  0  0  0
   -2.4365    0.4915    5.2179 C   0  0  0  0  0  0  0  0  0  0  0  0
   -3.0989    0.9035    6.3299 O   0  0  0  0  0  0  0  0  0  0  0  0
   -2.8668    1.7995    6.5773 H   0  0  0  0  0  0  0  0  0  0  0  0
   -2.5645   -0.8437    4.7822 C   0  0  0  0  0  0  0  0  0  0  0  0
   -3.1841   -1.5251    5.3455 H   0  0  0  0  0  0  0  0  0  0  0  0
   -1.8797   -1.2782    3.6314 C   0  0  0  0  0  0  0  0  0  0  0  0
   -1.9711   -2.3066    3.3026 H   0  0  0  0  0  0  0  0  0  0  0  0
   -0.2727   -0.7481   -0.8979 C   0  0  0  0  0  0  0  0  0  0  0  0
    0.2658    0.1897   -1.4867 O   0  0  0  0  0  0  0  0  0  0  0  0
   -0.1486   -2.0176   -1.3050 N   0  0  0  0  0  0  0  0  0  0  0  0
   -0.6694   -2.7216   -0.8024 H   0  0  0  0  0  0  0  0  0  0  0  0
    0.6249   -2.4377   -2.4712 C   0  0  0  0  0  0  0  0  0  0  0  0
    1.6275   -2.0092   -2.4249 H   0  0  0  0  0  0  0  0  0  0  0  0
    0.7000   -3.5260   -2.5003 H   0  0  0  0  0  0  0  0  0  0  0  0
    0.1365   -2.0856   -3.3822 H   0  0  0  0  0  0  0  0  0  0  0  0
  5  6  2  0  0  0  0
  5  7  1  0  0  0  0
  2  3  1  0  0  0  0
  2  4  1  0  0  0  0
  2  5  1  0  0  0  0
  1  2  1  0  0  0  0
 26 27  2  0  0  0  0
 26 28  1  0  0  0  0
 24 25  1  0  0  0  0
 22 23  1  0  0  0  0
 22 24  2  0  0  0  0
 20 21  1  0  0  0  0
 19 20  1  0  0  0  0
 19 22  1  0  0  0  0
 17 18  1  0  0  0  0
 17 19  2  0  0  0  0
 15 16  1  0  0  0  0
 15 17  1  0  0  0  0
 14 15  2  0  0  0  0
 14 24  1  0  0  0  0
 11 12  1  0  0  0  0
 11 13  1  0  0  0  0
 11 14  1  0  0  0  0
  9 10  1  0  0  0  0
  9 11  1  0  0  0  0
  9 26  1  0  0  0  0
  7  8  1  0  0  0  0
  7  9  1  0  0  0  0
 30 31  1  0  0  0  0
 30 32  1  0  0  0  0
 30 33  1  0  0  0  0
 28 29  1  0  0  0  0
 28 30  1  0  0  0  0
M  END
$$$$
default_name
  -OEChem-01062215323D

 33 33  0     1  0  0  0  0  0999 V2000
   -4.0702   -3.8485    1.4554 H   0  0  0  0  0  0  0  0  0  0  0  0
   -4.0012   -2.9605    0.8284 C   0  0  0  0  0  0  0  0  0  0  0  0
   -4.7652   -2.2435    1.1234 H   0  0  0  0  0  0  0  0  0  0  0  0
   -4.1352   -3.2385   -0.2156 H   0  0  0  0  0  0  0  0  0  0  0  0
   -2.6362   -2.3395    1.0094 C   0  0  0  0  0  0  0  0  0  0  0  0
   -1.8292   -2.8395    1.7814 O   0  0  0  0  0  0  0  0  0  0  0  0
   -2.3832   -1.2445    0.2964 N   0  0  0  0  0  0  0  0  0  0  0  0
   -3.1102   -0.8685   -0.2946 H   0  0  0  0  0  0  0  0  0  0  0  0
   -1.1292   -0.4875    0.3524 C   0  0  1  0  0  0  0  0  0  0  0  0
   -1.3672    0.5766    0.3760 H   0  0  0  0  0  0  0  0  0  0  0  0
   -0.3753   -0.8431    1.6454 C   0  0  0  0  0  0  0  0  0  0  0  0
   -0.2586   -1.9262    1.7011 H   0  0  0  0  0  0  0  0  0  0  0  0
    0.6248   -0.4085    1.6023 H   0  0  0  0  0  0  0  0  0  0  0  0
   -1.0703   -0.3789    2.9108 C   0  0  0  0  0  0  0  0  0  0  0  0
   -0.9452    0.9570    3.3419 C   0  0  0  0  0  0  0  0  0  0  0  0
   -0.3299    1.6506    2.7839 H   0  0  0  0  0  0  0  0  0  0  0  0
   -1.6254    1.3936    4.4954 C   0  0  0  0  0  0  0  0  0  0  0  0
   -1.5261    2.4169    4.8236 H   0  0  0  0  0  0  0  0  0  0  0  0
   -2.4365    0.4915    5.2179 C   0  0  0  0  0  0  0  0  0  0  0  0
   -3.0989    0.9035    6.3299 O   0  0  0  0  0  0  0  0  0  0  0  0
   -2.8668    1.7995    6.5773 H   0  0  0  0  0  0  0  0  0  0  0  0
   -2.5645   -0.8437    4.7822 C   0  0  0  0  0  0  0  0  0  0  0  0
   -3.1841   -1.5251    5.3455 H   0  0  0  0  0  0  0  0  0  0  0  0
   -1.8797   -1.2782    3.6314 C   0  0  0  0  0  0  0  0  0  0  0  0
   -1.9711   -2.3066    3.3026 H   0  0  0  0  0  0  0  0  0  0  0  0
   -0.2727   -0.7481   -0.8979 C   0  0  0  0  0  0  0  0  0  0  0  0
    0.4824    0.1257   -1.3250 O   0  0  0  0  0  0  0  0  0  0  0  0
   -0.3905   -1.9454   -1.4858 N   0  0  0  0  0  0  0  0  0  0  0  0
   -1.0747   -2.5849   -1.1085 H   0  0  0  0  0  0  0  0  0  0  0  0
    0.3469   -2.3542   -2.6790 C   0  0  0  0  0  0  0  0  0  0  0  0
    1.4121   -2.1605   -2.5410 H   0  0  0  0  0  0  0  0  0  0  0  0
    0.1965   -3.4184   -2.8676 H   0  0  0  0  0  0  0  0  0  0  0  0
   -0.0030   -1.7823   -3.5409 H   0  0  0  0  0  0  0  0  0  0  0  0
  5  6  2  0  0  0  0
  5  7  1  0  0  0  0
  2  3  1  0  0  0  0
  2  4  1  0  0  0  0
  2  5  1  0  0  0  0
  1  2  1  0  0  0  0
 26 27  2  0  0  0  0
 26 28  1  0  0  0  0
 24 25  1  0  0  0  0
 22 23  1  0  0  0  0
 22 24  2  0  0  0  0
 20 21  1  0  0  0  0
 19 20  1  0  0  0  0
 19 22  1  0  0  0  0
 17 18  1  0  0  0  0
 17 19  2  0  0  0  0
 15 16  1  0  0  0  0
 15 17  1  0  0  0  0
 14 15  2  0  0  0  0
 14 24  1  0  0  0  0
 11 12  1  0  0  0  0
 11 13  1  0  0  0  0
 11 14  1  0  0  0  0
  9 10  1  0  0  0  0
  9 11  1  0  0  0  0
  9 26  1  0  0  0  0
  7  8  1  0  0  0  0
  7  9  1  0  0  0  0
 30 31  1  0  0  0  0
 30 32  1  0  0  0  0
 30 33  1  0  0  0  0
 28 29  1  0  0  0  0
 28 30  1  0  0  0  0
M  END
$$$$
default_name
  -OEChem-01062215323D

 33 33  0     1  0  0  0  0  0999 V2000
   -4.0702   -3.8485    1.4554 H   0  0  0  0  0  0  0  0  0  0  0  0
   -4.0012   -2.9605    0.8284 C   0  0  0  0  0  0  0  0  0  0  0  0
   -4.7652   -2.2435    1.1234 H   0  0  0  0  0  0  0  0  0  0  0  0
   -4.1352   -3.2385   -0.2156 H   0  0  0  0  0  0  0  0  0  0  0  0
   -2.6362   -2.3395    1.0094 C   0  0  0  0  0  0  0  0  0  0  0  0
   -1.8292   -2.8395    1.7814 O   0  0  0  0  0  0  0  0  0  0  0  0
   -2.3832   -1.2445    0.2964 N   0  0  0  0  0  0  0  0  0  0  0  0
   -3.1102   -0.8685   -0.2946 H   0  0  0  0  0  0  0  0  0  0  0  0
   -1.1292   -0.4875    0.3524 C   0  0  1  0  0  0  0  0  0  0  0  0
   -1.3672    0.5766    0.3760 H   0  0  0  0  0  0  0  0  0  0  0  0
   -0.3753   -0.8431    1.6454 C   0  0  0  0  0  0  0  0  0  0  0  0
   -0.2586   -1.9262    1.7011 H   0  0  0  0  0  0  0  0  0  0  0  0
    0.6248   -0.4085    1.6023 H   0  0  0  0  0  0  0  0  0  0  0  0
   -1.0703   -0.3789    2.9108 C   0  0  0  0  0  0  0  0  0  0  0  0
   -0.9452    0.9570    3.3419 C   0  0  0  0  0  0  0  0  0  0  0  0
   -0.3299    1.6506    2.7839 H   0  0  0  0  0  0  0  0  0  0  0  0
   -1.6254    1.3936    4.4954 C   0  0  0  0  0  0  0  0  0  0  0  0
   -1.5261    2.4169    4.8236 H   0  0  0  0  0  0  0  0  0  0  0  0
   -2.4365    0.4915    5.2179 C   0  0  0  0  0  0  0  0  0  0  0  0
   -3.0989    0.9035    6.3299 O   0  0  0  0  0  0  0  0  0  0  0  0
   -2.8668    1.7995    6.5773 H   0  0  0  0  0  0  0  0  0  0  0  0
   -2.5645   -0.8437    4.7822 C   0  0  0  0  0  0  0  0  0  0  0  0
   -3.1841   -1.5251    5.3455 H   0  0  0  0  0  0  0  0  0  0  0  0
   -1.8797   -1.2782    3.6314 C   0  0  0  0  0  0  0  0  0  0  0  0
   -1.9711   -2.3066    3.3026 H   0  0  0  0  0  0  0  0  0  0  0  0
   -0.2727   -0.7481   -0.8979 C   0  0  0  0  0  0  0  0  0  0  0  0
    0.6710   -0.0049   -1.1686 O   0  0  0  0  0  0  0  0  0  0  0  0
   -0.6009   -1.7986   -1.6606 N   0  0  0  0  0  0  0  0  0  0  0  0
   -1.4240   -2.3234   -1.4023 H   0  0  0  0  0  0  0  0  0  0  0  0
    0.1052   -2.1850   -2.8799 C   0  0  0  0  0  0  0  0  0  0  0  0
    1.1772   -2.2446   -2.6843 H   0  0  0  0  0  0  0  0  0  0  0  0
   -0.2510   -3.1556   -3.2290 H   0  0  0  0  0  0  0  0  0  0  0  0
   -0.0669   -1.4371   -3.6567 H   0  0  0  0  0  0  0  0  0  0  0  0
  5  6  2  0  0  0  0
  5  7  1  0  0  0  0
  2  3  1  0  0  0  0
  2  4  1  0  0  0  0
  2  5  1  0  0  0  0
  1  2  1  0  0  0  0
 26 27  2  0  0  0  0
 26 28  1  0  0  0  0
 24 25  1  0  0  0  0
 22 23  1  0  0  0  0
 22 24  2  0  0  0  0
 20 21  1  0  0  0  0
 19 20  1  0  0  0  0
 19 22  1  0  0  0  0
 17 18  1  0  0  0  0
 17 19  2  0  0  0  0
 15 16  1  0  0  0  0
 15 17  1  0  0  0  0
 14 15  2  0  0  0  0
 14 24  1  0  0  0  0
 11 12  1  0  0  0  0
 11 13  1  0  0  0  0
 11 14  1  0  0  0  0
  9 10  1  0  0  0  0
  9 11  1  0  0  0  0
  9 26  1  0  0  0  0
  7  8  1  0  0  0  0
  7  9  1  0  0  0  0
 30 31  1  0  0  0  0
 30 32  1  0  0  0  0
 30 33  1  0  0  0  0
 28 29  1  0  0  0  0
 28 30  1  0  0  0  0
M  END
$$$$
default_name
  -OEChem-01062215323D

 33 33  0     1  0  0  0  0  0999 V2000
   -4.0702   -3.8485    1.4554 H   0  0  0  0  0  0  0  0  0  0  0  0
   -4.0012   -2.9605    0.8284 C   0  0  0  0  0  0  0  0  0  0  0  0
   -4.7652   -2.2435    1.1234 H   0  0  0  0  0  0  0  0  0  0  0  0
   -4.1352   -3.2385   -0.2156 H   0  0  0  0  0  0  0  0  0  0  0  0
   -2.6362   -2.3395    1.0094 C   0  0  0  0  0  0  0  0  0  0  0  0
   -1.8292   -2.8395    1.7814 O   0  0  0  0  0  0  0  0  0  0  0  0
   -2.3832   -1.2445    0.2964 N   0  0  0  0  0  0  0  0  0  0  0  0
   -3.1102   -0.8685   -0.2946 H   0  0  0  0  0  0  0  0  0  0  0  0
   -1.1292   -0.4875    0.3524 C   0  0  1  0  0  0  0  0  0  0  0  0
   -1.3672    0.5766    0.3760 H   0  0  0  0  0  0  0  0  0  0  0  0
   -0.3753   -0.8431    1.6454 C   0  0  0  0  0  0  0  0  0  0  0  0
   -0.2586   -1.9262    1.7011 H   0  0  0  0  0  0  0  0  0  0  0  0
    0.6248   -0.4085    1.6023 H   0  0  0  0  0  0  0  0  0  0  0  0
   -1.0703   -0.3789    2.9108 C   0  0  0  0  0  0  0  0  0  0  0  0
   -0.9452    0.9570    3.3419 C   0  0  0  0  0  0  0  0  0  0  0  0
   -0.3299    1.6506    2.7839 H   0  0  0  0  0  0  0  0  0  0  0  0
   -1.6254    1.3936    4.4954 C   0  0  0  0  0  0  0  0  0  0  0  0
   -1.5261    2.4169    4.8236 H   0  0  0  0  0  0  0  0  0  0  0  0
   -2.4365    0.4915    5.2179 C   0  0  0  0  0  0  0  0  0  0  0  0
   -3.0989    0.9035    6.3299 O   0  0  0  0  0  0  0  0  0  0  0  0
   -2.8668    1.7995    6.5773 H   0  0  0  0  0  0  0  0  0  0  0  0
   -2.5645   -0.8437    4.7822 C   0  0  0  0  0  0  0  0  0  0  0  0
   -3.1841   -1.5251    5.3455 H   0  0  0  0  0  0  0  0  0  0  0  0
   -1.8797   -1.2782    3.6314 C   0  0  0  0  0  0  0  0  0  0  0  0
   -1.9711   -2.3066    3.3026 H   0  0  0  0  0  0  0  0  0  0  0  0
   -0.2727   -0.7481   -0.8979 C   0  0  0  0  0  0  0  0  0  0  0  0
    0.8189   -0.1934   -1.0280 O   0  0  0  0  0  0  0  0  0  0  0  0
   -0.7657   -1.5873   -1.8175 N   0  0  0  0  0  0  0  0  0  0  0  0
   -1.6935   -1.9549   -1.6637 H   0  0  0  0  0  0  0  0  0  0  0  0
   -0.0839   -1.9418   -3.0602 C   0  0  0  0  0  0  0  0  0  0  0  0
    0.9390   -2.2557   -2.8452 H   0  0  0  0  0  0  0  0  0  0  0  0
   -0.6122   -2.7554   -3.5599 H   0  0  0  0  0  0  0  0  0  0  0  0
   -0.0510   -1.0735   -3.7215 H   0  0  0  0  0  0  0  0  0  0  0  0
  5  6  2  0  0  0  0
  5  7  1  0  0  0  0
  2  3  1  0  0  0  0
  2  4  1  0  0  0  0
  2  5  1  0  0  0  0
  1  2  1  0  0  0  0
 26 27  2  0  0  0  0
 26 28  1  0  0  0  0
 24 25  1  0  0  0  0
 22 23  1  0  0  0  0
 22 24  2  0  0  0  0
 20 21  1  0  0  0  0
 19 20  1  0  0  0  0
 19 22  1  0  0  0  0
 17 18  1  0  0  0  0
 17 19  2  0  0  0  0
 15 16  1  0  0  0  0
 15 17  1  0  0  0  0
 14 15  2  0  0  0  0
 14 24  1  0  0  0  0
 11 12  1  0  0  0  0
 11 13  1  0  0  0  0
 11 14  1  0  0  0  0
  9 10  1  0  0  0  0
  9 11  1  0  0  0  0
  9 26  1  0  0  0  0
  7  8  1  0  0  0  0
  7  9  1  0  0  0  0
 30 31  1  0  0  0  0
 30 32  1  0  0  0  0
 30 33  1  0  0  0  0
 28 29  1  0  0  0  0
 28 30  1  0  0  0  0
M  END
$$$$
default_name
  -OEChem-01062215323D

 33 33  0     1  0  0  0  0  0999 V2000
   -4.0702   -3.8485    1.4554 H   0  0  0  0  0  0  0  0  0  0  0  0
   -4.0012   -2.9605    0.8284 C   0  0  0  0  0  0  0  0  0  0  0  0
   -4.7652   -2.2435    1.1234 H   0  0  0  0  0  0  0  0  0  0  0  0
   -4.1352   -3.2385   -0.2156 H   0  0  0  0  0  0  0  0  0  0  0  0
   -2.6362   -2.3395    1.0094 C   0  0  0  0  0  0  0  0  0  0  0  0
   -1.8292   -2.8395    1.7814 O   0  0  0  0  0  0  0  0  0  0  0  0
   -2.3832   -1.2445    0.2964 N   0  0  0  0  0  0  0  0  0  0  0  0
   -3.1102   -0.8685   -0.2946 H   0  0  0  0  0  0  0  0  0  0  0  0
   -1.1292   -0.4875    0.3524 C   0  0  1  0  0  0  0  0  0  0  0  0
   -1.3672    0.5766    0.3760 H   0  0  0  0  0  0  0  0  0  0  0  0
   -0.3753   -0.8431    1.6454 C   0  0  0  0  0  0  0  0  0  0  0  0
   -0.2586   -1.9262    1.7011 H   0  0  0  0  0  0  0  0  0  0  0  0
    0.6248   -0.4085    1.6023 H   0  0  0  0  0  0  0  0  0  0  0  0
   -1.0703   -0.3789    2.9108 C   0  0  0  0  0  0  0  0  0  0  0  0
   -0.9452    0.9570    3.3419 C   0  0  0  0  0  0  0  0  0  0  0  0
   -0.3299    1.6506    2.7839 H   0  0  0  0  0  0  0  0  0  0  0  0
   -1.6254    1.3936    4.4954 C   0  0  0  0  0  0  0  0  0  0  0  0
   -1.5261    2.4169    4.8236 H   0  0  0  0  0  0  0  0  0  0  0  0
   -2.4365    0.4915    5.2179 C   0  0  0  0  0  0  0  0  0  0  0  0
   -3.0989    0.9035    6.3299 O   0  0  0  0  0  0  0  0  0  0  0  0
   -2.8668    1.7995    6.5773 H   0  0  0  0  0  0  0  0  0  0  0  0
   -2.5645   -0.8437    4.7822 C   0  0  0  0  0  0  0  0  0  0  0  0
   -3.1841   -1.5251    5.3455 H   0  0  0  0  0  0  0  0  0  0  0  0
   -1.8797   -1.2782    3.6314 C   0  0  0  0  0  0  0  0  0  0  0  0
   -1.9711   -2.3066    3.3026 H   0  0  0  0  0  0  0  0  0  0  0  0
   -0.2727   -0.7481   -0.8979 C   0  0  0  0  0  0  0  0  0  0  0  0
    0.9159   -0.4269   -0.9129 O   0  0  0  0  0  0  0  0  0  0  0  0
   -0.8735   -1.3260   -1.9458 N   0  0  0  0  0  0  0  0  0  0  0  0
   -1.8647   -1.5047   -1.8749 H   0  0  0  0  0  0  0  0  0  0  0  0
   -0.2075   -1.6410   -3.2075 C   0  0  0  0  0  0  0  0  0  0  0  0
    0.7135   -2.1931   -3.0127 H   0  0  0  0  0  0  0  0  0  0  0  0
   -0.8623   -2.2452   -3.8376 H   0  0  0  0  0  0  0  0  0  0  0  0
    0.0438   -0.7163   -3.7311 H   0  0  0  0  0  0  0  0  0  0  0  0
  5  6  2  0  0  0  0
  5  7  1  0  0  0  0
  2  3  1  0  0  0  0
  2  4  1  0  0  0  0
  2  5  1  0  0  0  0
  1  2  1  0  0  0  0
 26 27  2  0  0  0  0
 26 28  1  0  0  0  0
 24 25  1  0  0  0  0
 22 23  1  0  0  0  0
 22 24  2  0  0  0  0
 20 21  1  0  0  0  0
 19 20  1  0  0  0  0
 19 22  1  0  0  0  0
 17 18  1  0  0  0  0
 17 19  2  0  0  0  0
 15 16  1  0  0  0  0
 15 17  1  0  0  0  0
 14 15  2  0  0  0  0
 14 24  1  0  0  0  0
 11 12  1  0  0  0  0
 11 13  1  0  0  0  0
 11 14  1  0  0  0  0
  9 10  1  0  0  0  0
  9 11  1  0  0  0  0
  9 26  1  0  0  0  0
  7  8  1  0  0  0  0
  7  9  1  0  0  0  0
 30 31  1  0  0  0  0
 30 32  1  0  0  0  0
 30 33  1  0  0  0  0
 28 29  1  0  0  0  0
 28 30  1  0  0  0  0
M  END
$$$$
default_name
  -OEChem-01062215323D

 33 33  0     1  0  0  0  0  0999 V2000
   -4.0702   -3.8485    1.4554 H   0  0  0  0  0  0  0  0  0  0  0  0
   -4.0012   -2.9605    0.8284 C   0  0  0  0  0  0  0  0  0  0  0  0
   -4.7652   -2.2435    1.1234 H   0  0  0  0  0  0  0  0  0  0  0  0
   -4.1352   -3.2385   -0.2156 H   0  0  0  0  0  0  0  0  0  0  0  0
   -2.6362   -2.3395    1.0094 C   0  0  0  0  0  0  0  0  0  0  0  0
   -1.8292   -2.8395    1.7814 O   0  0  0  0  0  0  0  0  0  0  0  0
   -2.3832   -1.2445    0.2964 N   0  0  0  0  0  0  0  0  0  0  0  0
   -3.1102   -0.8685   -0.2946 H   0  0  0  0  0  0  0  0  0  0  0  0
   -1.1292   -0.4875    0.3524 C   0  0  1  0  0  0  0  0  0  0  0  0
   -1.3672    0.5766    0.3760 H   0  0  0  0  0  0  0  0  0  0  0  0
   -0.3753   -0.8431    1.6454 C   0  0  0  0  0  0  0  0  0  0  0  0
   -0.2586   -1.9262    1.7011 H   0  0  0  0  0  0  0  0  0  0  0  0
    0.6248   -0.4085    1.6023 H   0  0  0  0  0  0  0  0  0  0  0  0
   -1.0703   -0.3789    2.9108 C   0  0  0  0  0  0  0  0  0  0  0  0
   -0.9452    0.9570    3.3419 C   0  0  0  0  0  0  0  0  0  0  0  0
   -0.3299    1.6506    2.7839 H   0  0  0  0  0  0  0  0  0  0  0  0
   -1.6254    1.3936    4.4954 C   0  0  0  0  0  0  0  0  0  0  0  0
   -1.5261    2.4169    4.8236 H   0  0  0  0  0  0  0  0  0  0  0  0
   -2.4365    0.4915    5.2179 C   0  0  0  0  0  0  0  0  0  0  0  0
   -3.0989    0.9035    6.3299 O   0  0  0  0  0  0  0  0  0  0  0  0
   -2.8668    1.7995    6.5773 H   0  0  0  0  0  0  0  0  0  0  0  0
   -2.5645   -0.8437    4.7822 C   0  0  0  0  0  0  0  0  0  0  0  0
   -3.1841   -1.5251    5.3455 H   0  0  0  0  0  0  0  0  0  0  0  0
   -1.8797   -1.2782    3.6314 C   0  0  0  0  0  0  0  0  0  0  0  0
   -1.9711   -2.3066    3.3026 H   0  0  0  0  0  0  0  0  0  0  0  0
   -0.2727   -0.7481   -0.8979 C   0  0  0  0  0  0  0  0  0  0  0  0
    0.9554   -0.6893   -0.8311 O   0  0  0  0  0  0  0  0  0  0  0  0
   -0.9170   -1.0324   -2.0368 N   0  0  0  0  0  0  0  0  0  0  0  0
   -1.9262   -1.0032   -2.0215 H   0  0  0  0  0  0  0  0  0  0  0  0
   -0.2572   -1.3033   -3.3119 C   0  0  0  0  0  0  0  0  0  0  0  0
    0.5163   -2.0610   -3.1753 H   0  0  0  0  0  0  0  0  0  0  0  0
   -0.9844   -1.6597   -4.0432 H   0  0  0  0  0  0  0  0  0  0  0  0
    0.2109   -0.3899   -3.6846 H   0  0  0  0  0  0  0  0  0  0  0  0
  5  6  2  0  0  0  0
  5  7  1  0  0  0  0
  2  3  1  0  0  0  0
  2  4  1  0  0  0  0
  2  5  1  0  0  0  0
  1  2  1  0  0  0  0
 26 27  2  0  0  0  0
 26 28  1  0  0  0  0
 24 25  1  0  0  0  0
 22 23  1  0  0  0  0
 22 24  2  0  0  0  0
 20 21  1  0  0  0  0
 19 20  1  0  0  0  0
 19 22  1  0  0  0  0
 17 18  1  0  0  0  0
 17 19  2  0  0  0  0
 15 16  1  0  0  0  0
 15 17  1  0  0  0  0
 14 15  2  0  0  0  0
 14 24  1  0  0  0  0
 11 12  1  0  0  0  0
 11 13  1  0  0  0  0
 11 14  1  0  0  0  0
  9 10  1  0  0  0  0
  9 11  1  0  0  0  0
  9 26  1  0  0  0  0
  7  8  1  0  0  0  0
  7  9  1  0  0  0  0
 30 31  1  0  0  0  0
 30 32  1  0  0  0  0
 30 33  1  0  0  0  0
 28 29  1  0  0  0  0
 28 30  1  0  0  0  0
M  END
$$$$
default_name
  -OEChem-01062215323D

 33 33  0     1  0  0  0  0  0999 V2000
   -4.0702   -3.8485    1.4554 H   0  0  0  0  0  0  0  0  0  0  0  0
   -4.0012   -2.9605    0.8284 C   0  0  0  0  0  0  0  0  0  0  0  0
   -4.7652   -2.2435    1.1234 H   0  0  0  0  0  0  0  0  0  0  0  0
   -4.1352   -3.2385   -0.2156 H   0  0  0  0  0  0  0  0  0  0  0  0
   -2.6362   -2.3395    1.0094 C   0  0  0  0  0  0  0  0  0  0  0  0
   -1.8292   -2.8395    1.7814 O   0  0  0  0  0  0  0  0  0  0  0  0
   -2.3832   -1.2445    0.2964 N   0  0  0  0  0  0  0  0  0  0  0  0
   -3.1102   -0.8685   -0.2946 H   0  0  0  0  0  0  0  0  0  0  0  0
   -1.1292   -0.4875    0.3524 C   0  0  1  0  0  0  0  0  0  0  0  0
   -1.3672    0.5766    0.3760 H   0  0  0  0  0  0  0  0  0  0  0  0
   -0.3753   -0.8431    1.6454 C   0  0  0  0  0  0  0  0  0  0  0  0
   -0.2586   -1.9262    1.7011 H   0  0  0  0  0  0  0  0  0  0  0  0
    0.6248   -0.4085    1.6023 H   0  0  0  0  0  0  0  0  0  0  0  0
   -1.0703   -0.3789    2.9108 C   0  0  0  0  0  0  0  0  0  0  0  0
   -0.9452    0.9570    3.3419 C   0  0  0  0  0  0  0  0  0  0  0  0
   -0.3299    1.6506    2.7839 H   0  0  0  0  0  0  0  0  0  0  0  0
   -1.6254    1.3936    4.4954 C   0  0  0  0  0  0  0  0  0  0  0  0
   -1.5261    2.4169    4.8236 H   0  0  0  0  0  0  0  0  0  0  0  0
   -2.4365    0.4915    5.2179 C   0  0  0  0  0  0  0  0  0  0  0  0
   -3.0989    0.9035    6.3299 O   0  0  0  0  0  0  0  0  0  0  0  0
   -2.8668    1.7995    6.5773 H   0  0  0  0  0  0  0  0  0  0  0  0
   -2.5645   -0.8437    4.7822 C   0  0  0  0  0  0  0  0  0  0  0  0
   -3.1841   -1.5251    5.3455 H   0  0  0  0  0  0  0  0  0  0  0  0
   -1.8797   -1.2782    3.6314 C   0  0  0  0  0  0  0  0  0  0  0  0
   -1.9711   -2.3066    3.3026 H   0  0  0  0  0  0  0  0  0  0  0  0
   -0.2727   -0.7481   -0.8979 C   0  0  0  0  0  0  0  0  0  0  0  0
    0.9347   -0.9630   -0.7882 O   0  0  0  0  0  0  0  0  0  0  0  0
   -0.8932   -0.7265   -2.0843 N   0  0  0  0  0  0  0  0  0  0  0  0
   -1.8736   -0.4848   -2.0935 H   0  0  0  0  0  0  0  0  0  0  0  0
   -0.2294   -0.9516   -3.3663 C   0  0  0  0  0  0  0  0  0  0  0  0
    0.3607   -1.8686   -3.3220 H   0  0  0  0  0  0  0  0  0  0  0  0
   -0.9701   -1.0388   -4.1628 H   0  0  0  0  0  0  0  0  0  0  0  0
    0.4390   -0.1164   -3.5854 H   0  0  0  0  0  0  0  0  0  0  0  0
  5  6  2  0  0  0  0
  5  7  1  0  0  0  0
  2  3  1  0  0  0  0
  2  4  1  0  0  0  0
  2  5  1  0  0  0  0
  1  2  1  0  0  0  0
 26 27  2  0  0  0  0
 26 28  1  0  0  0  0
 24 25  1  0  0  0  0
 22 23  1  0  0  0  0
 22 24  2  0  0  0  0
 20 21  1  0  0  0  0
 19 20  1  0  0  0  0
 19 22  1  0  0  0  0
 17 18  1  0  0  0  0
 17 19  2  0  0  0  0
 15 16  1  0  0  0  0
 15 17  1  0  0  0  0
 14 15  2  0  0  0  0
 14 24  1  0  0  0  0
 11 12  1  0  0  0  0
 11 13  1  0  0  0  0
 11 14  1  0  0  0  0
  9 10  1  0  0  0  0
  9 11  1  0  0  0  0
  9 26  1  0  0  0  0
  7  8  1  0  0  0  0
  7  9  1  0  0  0  0
 30 31  1  0  0  0  0
 30 32  1  0  0  0  0
 30 33  1  0  0  0  0
 28 29  1  0  0  0  0
 28 30  1  0  0  0  0
M  END
$$$$
default_name
  -OEChem-01062215323D

 33 33  0     1  0  0  0  0  0999 V2000
   -4.0702   -3.8485    1.4554 H   0  0  0  0  0  0  0  0  0  0  0  0
   -4.0012   -2.9605    0.8284 C   0  0  0  0  0  0  0  0  0  0  0  0
   -4.7652   -2.2435    1.1234 H   0  0  0  0  0  0  0  0  0  0  0  0
   -4.1352   -3.2385   -0.2156 H   0  0  0  0  0  0  0  0  0  0  0  0
   -2.6362   -2.3395    1.0094 C   0  0  0  0  0  0  0  0  0  0  0  0
   -1.8292   -2.8395    1.7814 O   0  0  0  0  0  0  0  0  0  0  0  0
   -2.3832   -1.2445    0.2964 N   0  0  0  0  0  0  0  0  0  0  0  0
   -3.1102   -0.8685   -0.2946 H   0  0  0  0  0  0  0  0  0  0  0  0
   -1.1292   -0.4875    0.3524 C   0  0  1  0  0  0  0  0  0  0  0  0
   -1.3672    0.5766    0.3760 H   0  0  0  0  0  0  0  0  0  0  0  0
   -0.3753   -0.8431    1.6454 C   0  0  0  0  0  0  0  0  0  0  0  0
   -0.2586   -1.9262    1.7011 H   0  0  0  0  0  0  0  0  0  0  0  0
    0.6248   -0.4085    1.6023 H   0  0  0  0  0  0  0  0  0  0  0  0
   -1.0703   -0.3789    2.9108 C   0  0  0  0  0  0  0  0  0  0  0  0
   -0.9452    0.9570    3.3419 C   0  0  0  0  0  0  0  0  0  0  0  0
   -0.3299    1.6506    2.7839 H   0  0  0  0  0  0  0  0  0  0  0  0
   -1.6254    1.3936    4.4954 C   0  0  0  0  0  0  0  0  0  0  0  0
   -1.5261    2.4169    4.8236 H   0  0  0  0  0  0  0  0  0  0  0  0
   -2.4365    0.4915    5.2179 C   0  0  0  0  0  0  0  0  0  0  0  0
   -3.0989    0.9035    6.3299 O   0  0  0  0  0  0  0  0  0  0  0  0
   -2.8668    1.7995    6.5773 H   0  0  0  0  0  0  0  0  0  0  0  0
   -2.5645   -0.8437    4.7822 C   0  0  0  0  0  0  0  0  0  0  0  0
   -3.1841   -1.5251    5.3455 H   0  0  0  0  0  0  0  0  0  0  0  0
   -1.8797   -1.2782    3.6314 C   0  0  0  0  0  0  0  0  0  0  0  0
   -1.9711   -2.3066    3.3026 H   0  0  0  0  0  0  0  0  0  0  0  0
   -0.2727   -0.7481   -0.8979 C   0  0  0  0  0  0  0  0  0  0  0  0
    0.8553   -1.2291   -0.7872 O   0  0  0  0  0  0  0  0  0  0  0  0
   -0.8038   -0.4292   -2.0850 N   0  0  0  0  0  0  0  0  0  0  0  0
   -1.7105    0.0152   -2.0860 H   0  0  0  0  0  0  0  0  0  0  0  0
   -0.1263   -0.6098   -3.3668 C   0  0  0  0  0  0  0  0  0  0  0  0
    0.2574   -1.6287   -3.4428 H   0  0  0  0  0  0  0  0  0  0  0  0
   -0.8204   -0.4249   -4.1882 H   0  0  0  0  0  0  0  0  0  0  0  0
    0.7125    0.0854   -3.4401 H   0  0  0  0  0  0  0  0  0  0  0  0
  5  6  2  0  0  0  0
  5  7  1  0  0  0  0
  2  3  1  0  0  0  0
  2  4  1  0  0  0  0
  2  5  1  0  0  0  0
  1  2  1  0  0  0  0
 26 27  2  0  0  0  0
 26 28  1  0  0  0  0
 24 25  1  0  0  0  0
 22 23  1  0  0  0  0
 22 24  2  0  0  0  0
 20 21  1  0  0  0  0
 19 20  1  0  0  0  0
 19 22  1  0  0  0  0
 17 18  1  0  0  0  0
 17 19  2  0  0  0  0
 15 16  1  0  0  0  0
 15 17  1  0  0  0  0
 14 15  2  0  0  0  0
 14 24  1  0  0  0  0
 11 12  1  0  0  0  0
 11 13  1  0  0  0  0
 11 14  1  0  0  0  0
  9 10  1  0  0  0  0
  9 11  1  0  0  0  0
  9 26  1  0  0  0  0
  7  8  1  0  0  0  0
  7  9  1  0  0  0  0
 30 31  1  0  0  0  0
 30 32  1  0  0  0  0
 30 33  1  0  0  0  0
 28 29  1  0  0  0  0
 28 30  1  0  0  0  0
M  END
$$$$
default_name
  -OEChem-01062215323D

 33 33  0     1  0  0  0  0  0999 V2000
   -4.0702   -3.8485    1.4554 H   0  0  0  0  0  0  0  0  0  0  0  0
   -4.0012   -2.9605    0.8284 C   0  0  0  0  0  0  0  0  0  0  0  0
   -4.7652   -2.2435    1.1234 H   0  0  0  0  0  0  0  0  0  0  0  0
   -4.1352   -3.2385   -0.2156 H   0  0  0  0  0  0  0  0  0  0  0  0
   -2.6362   -2.3395    1.0094 C   0  0  0  0  0  0  0  0  0  0  0  0
   -1.8292   -2.8395    1.7814 O   0  0  0  0  0  0  0  0  0  0  0  0
   -2.3832   -1.2445    0.2964 N   0  0  0  0  0  0  0  0  0  0  0  0
   -3.1102   -0.8685   -0.2946 H   0  0  0  0  0  0  0  0  0  0  0  0
   -1.1292   -0.4875    0.3524 C   0  0  1  0  0  0  0  0  0  0  0  0
   -1.3672    0.5766    0.3760 H   0  0  0  0  0  0  0  0  0  0  0  0
   -0.3753   -0.8431    1.6454 C   0  0  0  0  0  0  0  0  0  0  0  0
   -0.2586   -1.9262    1.7011 H   0  0  0  0  0  0  0  0  0  0  0  0
    0.6248   -0.4085    1.6023 H   0  0  0  0  0  0  0  0  0  0  0  0
   -1.0703   -0.3789    2.9108 C   0  0  0  0  0  0  0  0  0  0  0  0
   -0.9452    0.9570    3.3419 C   0  0  0  0  0  0  0  0  0  0  0  0
   -0.3299    1.6506    2.7839 H   0  0  0  0  0  0  0  0  0  0  0  0
   -1.6254    1.3936    4.4954 C   0  0  0  0  0  0  0  0  0  0  0  0
   -1.5261    2.4169    4.8236 H   0  0  0  0  0  0  0  0  0  0  0  0
   -2.4365    0.4915    5.2179 C   0  0  0  0  0  0  0  0  0  0  0  0
   -3.0989    0.9035    6.3299 O   0  0  0  0  0  0  0  0  0  0  0  0
   -2.8668    1.7995    6.5773 H   0  0  0  0  0  0  0  0  0  0  0  0
   -2.5645   -0.8437    4.7822 C   0  0  0  0  0  0  0  0  0  0  0  0
   -3.1841   -1.5251    5.3455 H   0  0  0  0  0  0  0  0  0  0  0  0
   -1.8797   -1.2782    3.6314 C   0  0  0  0  0  0  0  0  0  0  0  0
   -1.9711   -2.3066    3.3026 H   0  0  0  0  0  0  0  0  0  0  0  0
   -0.2727   -0.7481   -0.8979 C   0  0  0  0  0  0  0  0  0  0  0  0
    0.7226   -1.4697   -0.8280 O   0  0  0  0  0  0  0  0  0  0  0  0
   -0.6549   -0.1607   -2.0389 N   0  0  0  0  0  0  0  0  0  0  0  0
   -1.4481    0.4629   -1.9996 H   0  0  0  0  0  0  0  0  0  0  0  0
    0.0453   -0.3014   -3.3136 C   0  0  0  0  0  0  0  0  0  0  0  0
    0.2133   -1.3579   -3.5294 H   0  0  0  0  0  0  0  0  0  0  0  0
   -0.5455    0.1403   -4.1177 H   0  0  0  0  0  0  0  0  0  0  0  0
    1.0128    0.2019   -3.2586 H   0  0  0  0  0  0  0  0  0  0  0  0
  5  6  2  0  0  0  0
  5  7  1  0  0  0  0
  2  3  1  0  0  0  0
  2  4  1  0  0  0  0
  2  5  1  0  0  0  0
  1  2  1  0  0  0  0
 26 27  2  0  0  0  0
 26 28  1  0  0  0  0
 24 25  1  0  0  0  0
 22 23  1  0  0  0  0
 22 24  2  0  0  0  0
 20 21  1  0  0  0  0
 19 20  1  0  0  0  0
 19 22  1  0  0  0  0
 17 18  1  0  0  0  0
 17 19  2  0  0  0  0
 15 16  1  0  0  0  0
 15 17  1  0  0  0  0
 14 15  2  0  0  0  0
 14 24  1  0  0  0  0
 11 12  1  0  0  0  0
 11 13  1  0  0  0  0
 11 14  1  0  0  0  0
  9 10  1  0  0  0  0
  9 11  1  0  0  0  0
  9 26  1  0  0  0  0
  7  8  1  0  0  0  0
  7  9  1  0  0  0  0
 30 31  1  0  0  0  0
 30 32  1  0  0  0  0
 30 33  1  0  0  0  0
 28 29  1  0  0  0  0
 28 30  1  0  0  0  0
M  END
$$$$
default_name
  -OEChem-01062215323D

 33 33  0     1  0  0  0  0  0999 V2000
   -4.0702   -3.8485    1.4554 H   0  0  0  0  0  0  0  0  0  0  0  0
   -4.0012   -2.9605    0.8284 C   0  0  0  0  0  0  0  0  0  0  0  0
   -4.7652   -2.2435    1.1234 H   0  0  0  0  0  0  0  0  0  0  0  0
   -4.1352   -3.2385   -0.2156 H   0  0  0  0  0  0  0  0  0  0  0  0
   -2.6362   -2.3395    1.0094 C   0  0  0  0  0  0  0  0  0  0  0  0
   -1.8292   -2.8395    1.7814 O   0  0  0  0  0  0  0  0  0  0  0  0
   -2.3832   -1.2445    0.2964 N   0  0  0  0  0  0  0  0  0  0  0  0
   -3.1102   -0.8685   -0.2946 H   0  0  0  0  0  0  0  0  0  0  0  0
   -1.1292   -0.4875    0.3524 C   0  0  1  0  0  0  0  0  0  0  0  0
   -1.3672    0.5766    0.3760 H   0  0  0  0  0  0  0  0  0  0  0  0
   -0.3753   -0.8431    1.6454 C   0  0  0  0  0  0  0  0  0  0  0  0
   -0.2586   -1.9262    1.7011 H   0  0  0  0  0  0  0  0  0  0  0  0
    0.6248   -0.4085    1.6023 H   0  0  0  0  0  0  0  0  0  0  0  0
   -1.0703   -0.3789    2.9108 C   0  0  0  0  0  0  0  0  0  0  0  0
   -0.9452    0.9570    3.3419 C   0  0  0  0  0  0  0  0  0  0  0  0
   -0.3299    1.6506    2.7839 H   0  0  0  0  0  0  0  0  0  0  0  0
   -1.6254    1.3936    4.4954 C   0  0  0  0  0  0  0  0  0  0  0  0
   -1.5261    2.4169    4.8236 H   0  0  0  0  0  0  0  0  0  0  0  0
   -2.4365    0.4915    5.2179 C   0  0  0  0  0  0  0  0  0  0  0  0
   -3.0989    0.9035    6.3299 O   0  0  0  0  0  0  0  0  0  0  0  0
   -2.8668    1.7995    6.5773 H   0  0  0  0  0  0  0  0  0  0  0  0
   -2.5645   -0.8437    4.7822 C   0  0  0  0  0  0  0  0  0  0  0  0
   -3.1841   -1.5251    5.3455 H   0  0  0  0  0  0  0  0  0  0  0  0
   -1.8797   -1.2782    3.6314 C   0  0  0  0  0  0  0  0  0  0  0  0
   -1.9711   -2.3066    3.3026 H   0  0  0  0  0  0  0  0  0  0  0  0
   -0.2727   -0.7481   -0.8979 C   0  0  0  0  0  0  0  0  0  0  0  0
    0.5455   -1.6682   -0.9079 O   0  0  0  0  0  0  0  0  0  0  0  0
   -0.4565    0.0607   -1.9492 N   0  0  0  0  0  0  0  0  0  0  0  0
   -1.1042    0.8275   -1.8400 H   0  0  0  0  0  0  0  0  0  0  0  0
    0.2736   -0.0472   -3.2101 C   0  0  0  0  0  0  0  0  0  0  0  0
    0.2316   -1.0746   -3.5760 H   0  0  0  0  0  0  0  0  0  0  0  0
   -0.1640    0.6182   -3.9560 H   0  0  0  0  0  0  0  0  0  0  0  0
    1.3194    0.2250   -3.0534 H   0  0  0  0  0  0  0  0  0  0  0  0
  5  6  2  0  0  0  0
  5  7  1  0  0  0  0
  2  3  1  0  0  0  0
  2  4  1  0  0  0  0
  2  5  1  0  0  0  0
  1  2  1  0  0  0  0
 26 27  2  0  0  0  0
 26 28  1  0  0  0  0
 24 25  1  0  0  0  0
 22 23  1  0  0  0  0
 22 24  2  0  0  0  0
 20 21  1  0  0  0  0
 19 20  1  0  0  0  0
 19 22  1  0  0  0  0
 17 18  1  0  0  0  0
 17 19  2  0  0  0  0
 15 16  1  0  0  0  0
 15 17  1  0  0  0  0
 14 15  2  0  0  0  0
 14 24  1  0  0  0  0
 11 12  1  0  0  0  0
 11 13  1  0  0  0  0
 11 14  1  0  0  0  0
  9 10  1  0  0  0  0
  9 11  1  0  0  0  0
  9 26  1  0  0  0  0
  7  8  1  0  0  0  0
  7  9  1  0  0  0  0
 30 31  1  0  0  0  0
 30 32  1  0  0  0  0
 30 33  1  0  0  0  0
 28 29  1  0  0  0  0
 28 30  1  0  0  0  0
M  END
$$$$
default_name
  -OEChem-01062215323D

 33 33  0     1  0  0  0  0  0999 V2000
   -4.0702   -3.8485    1.4554 H   0  0  0  0  0  0  0  0  0  0  0  0
   -4.0012   -2.9605    0.8284 C   0  0  0  0  0  0  0  0  0  0  0  0
   -4.7652   -2.2435    1.1234 H   0  0  0  0  0  0  0  0  0  0  0  0
   -4.1352   -3.2385   -0.2156 H   0  0  0  0  0  0  0  0  0  0  0  0
   -2.6362   -2.3395    1.0094 C   0  0  0  0  0  0  0  0  0  0  0  0
   -1.8292   -2.8395    1.7814 O   0  0  0  0  0  0  0  0  0  0  0  0
   -2.3832   -1.2445    0.2964 N   0  0  0  0  0  0  0  0  0  0  0  0
   -3.1102   -0.8685   -0.2946 H   0  0  0  0  0  0  0  0  0  0  0  0
   -1.1292   -0.4875    0.3524 C   0  0  1  0  0  0  0  0  0  0  0  0
   -1.3672    0.5766    0.3760 H   0  0  0  0  0  0  0  0  0  0  0  0
   -0.3753   -0.8431    1.6454 C   0  0  0  0  0  0  0  0  0  0  0  0
   -0.2586   -1.9262    1.7011 H   0  0  0  0  0  0  0  0  0  0  0  0
    0.6248   -0.4085    1.6023 H   0  0  0  0  0  0  0  0  0  0  0  0
   -1.0703   -0.3789    2.9108 C   0  0  0  0  0  0  0  0  0  0  0  0
   -0.9452    0.9570    3.3419 C   0  0  0  0  0  0  0  0  0  0  0  0
   -0.3299    1.6506    2.7839 H   0  0  0  0  0  0  0  0  0  0  0  0
   -1.6254    1.3936    4.4954 C   0  0  0  0  0  0  0  0  0  0  0  0
   -1.5261    2.4169    4.8236 H   0  0  0  0  0  0  0  0  0  0  0  0
   -2.4365    0.4915    5.2179 C   0  0  0  0  0  0  0  0  0  0  0  0
   -3.0989    0.9035    6.3299 O   0  0  0  0  0  0  0  0  0  0  0  0
   -2.8668    1.7995    6.5773 H   0  0  0  0  0  0  0  0  0  0  0  0
   -2.5645   -0.8437    4.7822 C   0  0  0  0  0  0  0  0  0  0  0  0
   -3.1841   -1.5251    5.3455 H   0  0  0  0  0  0  0  0  0  0  0  0
   -1.8797   -1.2782    3.6314 C   0  0  0  0  0  0  0  0  0  0  0  0
   -1.9711   -2.3066    3.3026 H   0  0  0  0  0  0  0  0  0  0  0  0
   -0.2727   -0.7481   -0.8979 C   0  0  0  0  0  0  0  0  0  0  0  0
    0.3362   -1.8111   -1.0215 O   0  0  0  0  0  0  0  0  0  0  0  0
   -0.2223    0.2198   -1.8219 N   0  0  0  0  0  0  0  0  0  0  0  0
   -0.7023    1.0844   -1.6182 H   0  0  0  0  0  0  0  0  0  0  0  0
    0.5431    0.1353   -3.0636 C   0  0  0  0  0  0  0  0  0  0  0  0
    0.3108   -0.7980   -3.5794 H   0  0  0  0  0  0  0  0  0  0  0  0
    0.2978    0.9763   -3.7142 H   0  0  0  0  0  0  0  0  0  0  0  0
    1.6114    0.1533   -2.8384 H   0  0  0  0  0  0  0  0  0  0  0  0
  5  6  2  0  0  0  0
  5  7  1  0  0  0  0
  2  3  1  0  0  0  0
  2  4  1  0  0  0  0
  2  5  1  0  0  0  0
  1  2  1  0  0  0  0
 26 27  2  0  0  0  0
 26 28  1  0  0  0  0
 24 25  1  0  0  0  0
 22 23  1  0  0  0  0
 22 24  2  0  0  0  0
 20 21  1  0  0  0  0
 19 20  1  0  0  0  0
 19 22  1  0  0  0  0
 17 18  1  0  0  0  0
 17 19  2  0  0  0  0
 15 16  1  0  0  0  0
 15 17  1  0  0  0  0
 14 15  2  0  0  0  0
 14 24  1  0  0  0  0
 11 12  1  0  0  0  0
 11 13  1  0  0  0  0
 11 14  1  0  0  0  0
  9 10  1  0  0  0  0
  9 11  1  0  0  0  0
  9 26  1  0  0  0  0
  7  8  1  0  0  0  0
  7  9  1  0  0  0  0
 30 31  1  0  0  0  0
 30 32  1  0  0  0  0
 30 33  1  0  0  0  0
 28 29  1  0  0  0  0
 28 30  1  0  0  0  0
M  END
$$$$
default_name
  -OEChem-01062215323D

 33 33  0     1  0  0  0  0  0999 V2000
   -4.0702   -3.8485    1.4554 H   0  0  0  0  0  0  0  0  0  0  0  0
   -4.0012   -2.9605    0.8284 C   0  0  0  0  0  0  0  0  0  0  0  0
   -4.7652   -2.2435    1.1234 H   0  0  0  0  0  0  0  0  0  0  0  0
   -4.1352   -3.2385   -0.2156 H   0  0  0  0  0  0  0  0  0  0  0  0
   -2.6362   -2.3395    1.0094 C   0  0  0  0  0  0  0  0  0  0  0  0
   -1.8292   -2.8395    1.7814 O   0  0  0  0  0  0  0  0  0  0  0  0
   -2.3832   -1.2445    0.2964 N   0  0  0  0  0  0  0  0  0  0  0  0
   -3.1102   -0.8685   -0.2946 H   0  0  0  0  0  0  0  0  0  0  0  0
   -1.1292   -0.4875    0.3524 C   0  0  1  0  0  0  0  0  0  0  0  0
   -1.3672    0.5766    0.3760 H   0  0  0  0  0  0  0  0  0  0  0  0
   -0.3753   -0.8431    1.6454 C   0  0  0  0  0  0  0  0  0  0  0  0
   -0.2586   -1.9262    1.7011 H   0  0  0  0  0  0  0  0  0  0  0  0
    0.6248   -0.4085    1.6023 H   0  0  0  0  0  0  0  0  0  0  0  0
   -1.0703   -0.3789    2.9108 C   0  0  0  0  0  0  0  0  0  0  0  0
   -0.9452    0.9570    3.3419 C   0  0  0  0  0  0  0  0  0  0  0  0
   -0.3299    1.6506    2.7839 H   0  0  0  0  0  0  0  0  0  0  0  0
   -1.6254    1.3936    4.4954 C   0  0  0  0  0  0  0  0  0  0  0  0
   -1.5261    2.4169    4.8236 H   0  0  0  0  0  0  0  0  0  0  0  0
   -2.4365    0.4915    5.2179 C   0  0  0  0  0  0  0  0  0  0  0  0
   -3.0989    0.9035    6.3299 O   0  0  0  0  0  0  0  0  0  0  0  0
   -2.8668    1.7995    6.5773 H   0  0  0  0  0  0  0  0  0  0  0  0
   -2.5645   -0.8437    4.7822 C   0  0  0  0  0  0  0  0  0  0  0  0
   -3.1841   -1.5251    5.3455 H   0  0  0  0  0  0  0  0  0  0  0  0
   -1.8797   -1.2782    3.6314 C   0  0  0  0  0  0  0  0  0  0  0  0
   -1.9711   -2.3066    3.3026 H   0  0  0  0  0  0  0  0  0  0  0  0
   -0.2727   -0.7481   -0.8979 C   0  0  0  0  0  0  0  0  0  0  0  0
    0.1089   -1.8888   -1.1610 O   0  0  0  0  0  0  0  0  0  0  0  0
    0.0318    0.3058   -1.6657 N   0  0  0  0  0  0  0  0  0  0  0  0
   -0.2698    1.2160   -1.3494 H   0  0  0  0  0  0  0  0  0  0  0  0
    0.8354    0.2338   -2.8839 C   0  0  0  0  0  0  0  0  0  0  0  0
    0.4458   -0.5471   -3.5392 H   0  0  0  0  0  0  0  0  0  0  0  0
    0.8087    1.1901   -3.4088 H   0  0  0  0  0  0  0  0  0  0  0  0
    1.8690   -0.0085   -2.6283 H   0  0  0  0  0  0  0  0  0  0  0  0
  5  6  2  0  0  0  0
  5  7  1  0  0  0  0
  2  3  1  0  0  0  0
  2  4  1  0  0  0  0
  2  5  1  0  0  0  0
  1  2  1  0  0  0  0
 26 27  2  0  0  0  0
 26 28  1  0  0  0  0
 24 25  1  0  0  0  0
 22 23  1  0  0  0  0
 22 24  2  0  0  0  0
 20 21  1  0  0  0  0
 19 20  1  0  0  0  0
 19 22  1  0  0  0  0
 17 18  1  0  0  0  0
 17 19  2  0  0  0  0
 15 16  1  0  0  0  0
 15 17  1  0  0  0  0
 14 15  2  0  0  0  0
 14 24  1  0  0  0  0
 11 12  1  0  0  0  0
 11 13  1  0  0  0  0
 11 14  1  0  0  0  0
  9 10  1  0  0  0  0
  9 11  1  0  0  0  0
  9 26  1  0  0  0  0
  7  8  1  0  0  0  0
  7  9  1  0  0  0  0
 30 31  1  0  0  0  0
 30 32  1  0  0  0  0
 30 33  1  0  0  0  0
 28 29  1  0  0  0  0
 28 30  1  0  0  0  0
M  END
$$$$
default_name
  -OEChem-01062215323D

 33 33  0     1  0  0  0  0  0999 V2000
   -4.0702   -3.8485    1.4554 H   0  0  0  0  0  0  0  0  0  0  0  0
   -4.0012   -2.9605    0.8284 C   0  0  0  0  0  0  0  0  0  0  0  0
   -4.7652   -2.2435    1.1234 H   0  0  0  0  0  0  0  0  0  0  0  0
   -4.1352   -3.2385   -0.2156 H   0  0  0  0  0  0  0  0  0  0  0  0
   -2.6362   -2.3395    1.0094 C   0  0  0  0  0  0  0  0  0  0  0  0
   -1.8292   -2.8395    1.7814 O   0  0  0  0  0  0  0  0  0  0  0  0
   -2.3832   -1.2445    0.2964 N   0  0  0  0  0  0  0  0  0  0  0  0
   -3.1102   -0.8685   -0.2946 H   0  0  0  0  0  0  0  0  0  0  0  0
   -1.1292   -0.4875    0.3524 C   0  0  1  0  0  0  0  0  0  0  0  0
   -1.3672    0.5766    0.3760 H   0  0  0  0  0  0  0  0  0  0  0  0
   -0.3753   -0.8431    1.6454 C   0  0  0  0  0  0  0  0  0  0  0  0
   -0.2586   -1.9262    1.7011 H   0  0  0  0  0  0  0  0  0  0  0  0
    0.6248   -0.4085    1.6023 H   0  0  0  0  0  0  0  0  0  0  0  0
   -1.0703   -0.3789    2.9108 C   0  0  0  0  0  0  0  0  0  0  0  0
   -0.9452    0.9570    3.3419 C   0  0  0  0  0  0  0  0  0  0  0  0
   -0.3299    1.6506    2.7839 H   0  0  0  0  0  0  0  0  0  0  0  0
   -1.6254    1.3936    4.4954 C   0  0  0  0  0  0  0  0  0  0  0  0
   -1.5261    2.4169    4.8236 H   0  0  0  0  0  0  0  0  0  0  0  0
   -2.4365    0.4915    5.2179 C   0  0  0  0  0  0  0  0  0  0  0  0
   -3.0989    0.9035    6.3299 O   0  0  0  0  0  0  0  0  0  0  0  0
   -2.8668    1.7995    6.5773 H   0  0  0  0  0  0  0  0  0  0  0  0
   -2.5645   -0.8437    4.7822 C   0  0  0  0  0  0  0  0  0  0  0  0
   -3.1841   -1.5251    5.3455 H   0  0  0  0  0  0  0  0  0  0  0  0
   -1.8797   -1.2782    3.6314 C   0  0  0  0  0  0  0  0  0  0  0  0
   -1.9711   -2.3066    3.3026 H   0  0  0  0  0  0  0  0  0  0  0  0
   -0.2727   -0.7481   -0.8979 C   0  0  0  0  0  0  0  0  0  0  0  0
   -0.1208   -1.8959   -1.3169 O   0  0  0  0  0  0  0  0  0  0  0  0
    0.2886    0.3130   -1.4913 N   0  0  0  0  0  0  0  0  0  0  0  0
    0.1639    1.2134   -1.0517 H   0  0  0  0  0  0  0  0  0  0  0  0
    1.1306    0.2416   -2.6833 C   0  0  0  0  0  0  0  0  0  0  0  0
    0.6271   -0.3389   -3.4584 H   0  0  0  0  0  0  0  0  0  0  0  0
    1.3338    1.2451   -3.0606 H   0  0  0  0  0  0  0  0  0  0  0  0
    2.0745   -0.2492   -2.4373 H   0  0  0  0  0  0  0  0  0  0  0  0
  5  6  2  0  0  0  0
  5  7  1  0  0  0  0
  2  3  1  0  0  0  0
  2  4  1  0  0  0  0
  2  5  1  0  0  0  0
  1  2  1  0  0  0  0
 26 27  2  0  0  0  0
 26 28  1  0  0  0  0
 24 25  1  0  0  0  0
 22 23  1  0  0  0  0
 22 24  2  0  0  0  0
 20 21  1  0  0  0  0
 19 20  1  0  0  0  0
 19 22  1  0  0  0  0
 17 18  1  0  0  0  0
 17 19  2  0  0  0  0
 15 16  1  0  0  0  0
 15 17  1  0  0  0  0
 14 15  2  0  0  0  0
 14 24  1  0  0  0  0
 11 12  1  0  0  0  0
 11 13  1  0  0  0  0
 11 14  1  0  0  0  0
  9 10  1  0  0  0  0
  9 11  1  0  0  0  0
  9 26  1  0  0  0  0
  7  8  1  0  0  0  0
  7  9  1  0  0  0  0
 30 31  1  0  0  0  0
 30 32  1  0  0  0  0
 30 33  1  0  0  0  0
 28 29  1  0  0  0  0
 28 30  1  0  0  0  0
M  END
$$$$
default_name
  -OEChem-01062215323D

 33 33  0     1  0  0  0  0  0999 V2000
   -4.0702   -3.8485    1.4554 H   0  0  0  0  0  0  0  0  0  0  0  0
   -4.0012   -2.9605    0.8284 C   0  0  0  0  0  0  0  0  0  0  0  0
   -4.7652   -2.2435    1.1234 H   0  0  0  0  0  0  0  0  0  0  0  0
   -4.1352   -3.2385   -0.2156 H   0  0  0  0  0  0  0  0  0  0  0  0
   -2.6362   -2.3395    1.0094 C   0  0  0  0  0  0  0  0  0  0  0  0
   -1.8292   -2.8395    1.7814 O   0  0  0  0  0  0  0  0  0  0  0  0
   -2.3832   -1.2445    0.2964 N   0  0  0  0  0  0  0  0  0  0  0  0
   -3.1102   -0.8685   -0.2946 H   0  0  0  0  0  0  0  0  0  0  0  0
   -1.1292   -0.4875    0.3524 C   0  0  1  0  0  0  0  0  0  0  0  0
   -1.3672    0.5766    0.3760 H   0  0  0  0  0  0  0  0  0  0  0  0
   -0.3753   -0.8431    1.6454 C   0  0  0  0  0  0  0  0  0  0  0  0
   -0.2586   -1.9262    1.7011 H   0  0  0  0  0  0  0  0  0  0  0  0
    0.6248   -0.4085    1.6023 H   0  0  0  0  0  0  0  0  0  0  0  0
   -1.0703   -0.3789    2.9108 C   0  0  0  0  0  0  0  0  0  0  0  0
   -0.9452    0.9570    3.3419 C   0  0  0  0  0  0  0  0  0  0  0  0
   -0.3299    1.6506    2.7839 H   0  0  0  0  0  0  0  0  0  0  0  0
   -1.6254    1.3936    4.4954 C   0  0  0  0  0  0  0  0  0  0  0  0
   -1.5261    2.4169    4.8236 H   0  0  0  0  0  0  0  0  0  0  0  0
   -2.4365    0.4915    5.2179 C   0  0  0  0  0  0  0  0  0  0  0  0
   -3.0989    0.9035    6.3299 O   0  0  0  0  0  0  0  0  0  0  0  0
   -2.8668    1.7995    6.5773 H   0  0  0  0  0  0  0  0  0  0  0  0
   -2.5645   -0.8437    4.7822 C   0  0  0  0  0  0  0  0  0  0  0  0
   -3.1841   -1.5251    5.3455 H   0  0  0  0  0  0  0  0  0  0  0  0
   -1.8797   -1.2782    3.6314 C   0  0  0  0  0  0  0  0  0  0  0  0
   -1.9711   -2.3066    3.3026 H   0  0  0  0  0  0  0  0  0  0  0  0
   -0.2727   -0.7481   -0.8979 C   0  0  0  0  0  0  0  0  0  0  0  0
   -0.3374   -1.8319   -1.4786 O   0  0  0  0  0  0  0  0  0  0  0  0
    0.5305    0.2407   -1.3106 N   0  0  0  0  0  0  0  0  0  0  0  0
    0.5692    1.0766   -0.7456 H   0  0  0  0  0  0  0  0  0  0  0  0
    1.4085    0.1580   -2.4755 C   0  0  0  0  0  0  0  0  0  0  0  0
    0.8426   -0.1876   -3.3423 H   0  0  0  0  0  0  0  0  0  0  0  0
    1.8373    1.1375   -2.6932 H   0  0  0  0  0  0  0  0  0  0  0  0
    2.2140   -0.5525   -2.2785 H   0  0  0  0  0  0  0  0  0  0  0  0
  5  6  2  0  0  0  0
  5  7  1  0  0  0  0
  2  3  1  0  0  0  0
  2  4  1  0  0  0  0
  2  5  1  0  0  0  0
  1  2  1  0  0  0  0
 26 27  2  0  0  0  0
 26 28  1  0  0  0  0
 24 25  1  0  0  0  0
 22 23  1  0  0  0  0
 22 24  2  0  0  0  0
 20 21  1  0  0  0  0
 19 20  1  0  0  0  0
 19 22  1  0  0  0  0
 17 18  1  0  0  0  0
 17 19  2  0  0  0  0
 15 16  1  0  0  0  0
 15 17  1  0  0  0  0
 14 15  2  0  0  0  0
 14 24  1  0  0  0  0
 11 12  1  0  0  0  0
 11 13  1  0  0  0  0
 11 14  1  0  0  0  0
  9 10  1  0  0  0  0
  9 11  1  0  0  0  0
  9 26  1  0  0  0  0
  7  8  1  0  0  0  0
  7  9  1  0  0  0  0
 30 31  1  0  0  0  0
 30 32  1  0  0  0  0
 30 33  1  0  0  0  0
 28 29  1  0  0  0  0
 28 30  1  0  0  0  0
M  END
$$$$
default_name
  -OEChem-01062215323D

 33 33  0     1  0  0  0  0  0999 V2000
   -4.0702   -3.8485    1.4554 H   0  0  0  0  0  0  0  0  0  0  0  0
   -4.0012   -2.9605    0.8284 C   0  0  0  0  0  0  0  0  0  0  0  0
   -4.7652   -2.2435    1.1234 H   0  0  0  0  0  0  0  0  0  0  0  0
   -4.1352   -3.2385   -0.2156 H   0  0  0  0  0  0  0  0  0  0  0  0
   -2.6362   -2.3395    1.0094 C   0  0  0  0  0  0  0  0  0  0  0  0
   -1.8292   -2.8395    1.7814 O   0  0  0  0  0  0  0  0  0  0  0  0
   -2.3832   -1.2445    0.2964 N   0  0  0  0  0  0  0  0  0  0  0  0
   -3.1102   -0.8685   -0.2946 H   0  0  0  0  0  0  0  0  0  0  0  0
   -1.1292   -0.4875    0.3524 C   0  0  1  0  0  0  0  0  0  0  0  0
   -1.3672    0.5766    0.3760 H   0  0  0  0  0  0  0  0  0  0  0  0
   -0.3753   -0.8431    1.6454 C   0  0  0  0  0  0  0  0  0  0  0  0
   -0.2586   -1.9262    1.7011 H   0  0  0  0  0  0  0  0  0  0  0  0
    0.6248   -0.4085    1.6023 H   0  0  0  0  0  0  0  0  0  0  0  0
   -1.0703   -0.3789    2.9108 C   0  0  0  0  0  0  0  0  0  0  0  0
   -0.9452    0.9570    3.3419 C   0  0  0  0  0  0  0  0  0  0  0  0
   -0.3299    1.6506    2.7839 H   0  0  0  0  0  0  0  0  0  0  0  0
   -1.6254    1.3936    4.4954 C   0  0  0  0  0  0  0  0  0  0  0  0
   -1.5261    2.4169    4.8236 H   0  0  0  0  0  0  0  0  0  0  0  0
   -2.4365    0.4915    5.2179 C   0  0  0  0  0  0  0  0  0  0  0  0
   -3.0989    0.9035    6.3299 O   0  0  0  0  0  0  0  0  0  0  0  0
   -2.8668    1.7995    6.5773 H   0  0  0  0  0  0  0  0  0  0  0  0
   -2.5645   -0.8437    4.7822 C   0  0  0  0  0  0  0  0  0  0  0  0
   -3.1841   -1.5251    5.3455 H   0  0  0  0  0  0  0  0  0  0  0  0
   -1.8797   -1.2782    3.6314 C   0  0  0  0  0  0  0  0  0  0  0  0
   -1.9711   -2.3066    3.3026 H   0  0  0  0  0  0  0  0  0  0  0  0
   -0.2727   -0.7481   -0.8979 C   0  0  0  0  0  0  0  0  0  0  0  0
   -0.5261   -1.7012   -1.6351 O   0  0  0  0  0  0  0  0  0  0  0  0
    0.7409    0.0939   -1.1358 N   0  0  0  0  0  0  0  0  0  0  0  0
    0.9185    0.8151   -0.4518 H   0  0  0  0  0  0  0  0  0  0  0  0
    1.6503   -0.0112   -2.2746 C   0  0  0  0  0  0  0  0  0  0  0  0
    1.0775   -0.1035   -3.1989 H   0  0  0  0  0  0  0  0  0  0  0  0
    2.2849    0.8747   -2.3318 H   0  0  0  0  0  0  0  0  0  0  0  0
    2.2779   -0.8977   -2.1628 H   0  0  0  0  0  0  0  0  0  0  0  0
  5  6  2  0  0  0  0
  5  7  1  0  0  0  0
  2  3  1  0  0  0  0
  2  4  1  0  0  0  0
  2  5  1  0  0  0  0
  1  2  1  0  0  0  0
 26 27  2  0  0  0  0
 26 28  1  0  0  0  0
 24 25  1  0  0  0  0
 22 23  1  0  0  0  0
 22 24  2  0  0  0  0
 20 21  1  0  0  0  0
 19 20  1  0  0  0  0
 19 22  1  0  0  0  0
 17 18  1  0  0  0  0
 17 19  2  0  0  0  0
 15 16  1  0  0  0  0
 15 17  1  0  0  0  0
 14 15  2  0  0  0  0
 14 24  1  0  0  0  0
 11 12  1  0  0  0  0
 11 13  1  0  0  0  0
 11 14  1  0  0  0  0
  9 10  1  0  0  0  0
  9 11  1  0  0  0  0
  9 26  1  0  0  0  0
  7  8  1  0  0  0  0
  7  9  1  0  0  0  0
 30 31  1  0  0  0  0
 30 32  1  0  0  0  0
 30 33  1  0  0  0  0
 28 29  1  0  0  0  0
 28 30  1  0  0  0  0
M  END
$$$$
default_name
  -OEChem-01062215323D

 33 33  0     1  0  0  0  0  0999 V2000
   -4.0702   -3.8485    1.4554 H   0  0  0  0  0  0  0  0  0  0  0  0
   -4.0012   -2.9605    0.8284 C   0  0  0  0  0  0  0  0  0  0  0  0
   -4.7652   -2.2435    1.1234 H   0  0  0  0  0  0  0  0  0  0  0  0
   -4.1352   -3.2385   -0.2156 H   0  0  0  0  0  0  0  0  0  0  0  0
   -2.6362   -2.3395    1.0094 C   0  0  0  0  0  0  0  0  0  0  0  0
   -1.8292   -2.8395    1.7814 O   0  0  0  0  0  0  0  0  0  0  0  0
   -2.3832   -1.2445    0.2964 N   0  0  0  0  0  0  0  0  0  0  0  0
   -3.1102   -0.8685   -0.2946 H   0  0  0  0  0  0  0  0  0  0  0  0
   -1.1292   -0.4875    0.3524 C   0  0  1  0  0  0  0  0  0  0  0  0
   -1.3564    0.5389    0.6431 H   0  0  0  0  0  0  0  0  0  0  0  0
   -0.2097   -1.1009    1.4225 C   0  0  0  0  0  0  0  0  0  0  0  0
   -0.0922   -2.1663    1.2202 H   0  0  0  0  0  0  0  0  0  0  0  0
    0.7776   -0.6426    1.3448 H   0  0  0  0  0  0  0  0  0  0  0  0
   -0.7255   -0.9449    2.8400 C   0  0  0  0  0  0  0  0  0  0  0  0
   -0.5365    0.2656    3.5366 C   0  0  0  0  0  0  0  0  0  0  0  0
    0.0016    1.0804    3.0700 H   0  0  0  0  0  0  0  0  0  0  0  0
   -1.0528    0.4197    4.8380 C   0  0  0  0  0  0  0  0  0  0  0  0
   -0.9049    1.3474    5.3690 H   0  0  0  0  0  0  0  0  0  0  0  0
   -1.7638   -0.6396    5.4430 C   0  0  0  0  0  0  0  0  0  0  0  0
   -2.2681   -0.4999    6.6965 O   0  0  0  0  0  0  0  0  0  0  0  0
   -2.0002    0.3249    7.1037 H   0  0  0  0  0  0  0  0  0  0  0  0
   -1.9562   -1.8485    4.7426 C   0  0  0  0  0  0  0  0  0  0  0  0
   -2.4977   -2.6526    5.2176 H   0  0  0  0  0  0  0  0  0  0  0  0
   -1.4350   -2.0010    3.4437 C   0  0  0  0  0  0  0  0  0  0  0  0
   -1.5752   -2.9334    2.9098 H   0  0  0  0  0  0  0  0  0  0  0  0
   -0.4504   -0.4442   -1.0268 C   0  0  0  0  0  0  0  0  0  0  0  0
   -0.9702   -1.0060   -1.9913 O   0  0  0  0  0  0  0  0  0  0  0  0
    0.7096    0.2180   -1.1211 N   0  0  0  0  0  0  0  0  0  0  0  0
    1.0984    0.6009   -0.2716 H   0  0  0  0  0  0  0  0  0  0  0  0
    1.4837    0.3539   -2.3528 C   0  0  0  0  0  0  0  0  0  0  0  0
    0.8385    0.7071   -3.1590 H   0  0  0  0  0  0  0  0  0  0  0  0
    2.2993    1.0641   -2.2077 H   0  0  0  0  0  0  0  0  0  0  0  0
    1.8967   -0.6165   -2.6359 H   0  0  0  0  0  0  0  0  0  0  0  0
  5  6  2  0  0  0  0
  5  7  1  0  0  0  0
  2  3  1  0  0  0  0
  2  4  1  0  0  0  0
  2  5  1  0  0  0  0
  1  2  1  0  0  0  0
 26 27  2  0  0  0  0
 26 28  1  0  0  0  0
 24 25  1  0  0  0  0
 22 23  1  0  0  0  0
 22 24  2  0  0  0  0
 20 21  1  0  0  0  0
 19 20  1  0  0  0  0
 19 22  1  0  0  0  0
 17 18  1  0  0  0  0
 17 19  2  0  0  0  0
 15 16  1  0  0  0  0
 15 17  1  0  0  0  0
 14 15  2  0  0  0  0
 14 24  1  0  0  0  0
 11 12  1  0  0  0  0
 11 13  1  0  0  0  0
 11 14  1  0  0  0  0
  9 10  1  0  0  0  0
  9 11  1  0  0  0  0
  9 26  1  0  0  0  0
  7  8  1  0  0  0  0
  7  9  1  0  0  0  0
 30 31  1  0  0  0  0
 30 32  1  0  0  0  0
 30 33  1  0  0  0  0
 28 29  1  0  0  0  0
 28 30  1  0  0  0  0
M  END
$$$$
default_name
  -OEChem-01062215323D

 33 33  0     1  0  0  0  0  0999 V2000
   -4.0702   -3.8485    1.4554 H   0  0  0  0  0  0  0  0  0  0  0  0
   -4.0012   -2.9605    0.8284 C   0  0  0  0  0  0  0  0  0  0  0  0
   -4.7652   -2.2435    1.1234 H   0  0  0  0  0  0  0  0  0  0  0  0
   -4.1352   -3.2385   -0.2156 H   0  0  0  0  0  0  0  0  0  0  0  0
   -2.6362   -2.3395    1.0094 C   0  0  0  0  0  0  0  0  0  0  0  0
   -1.8292   -2.8395    1.7814 O   0  0  0  0  0  0  0  0  0  0  0  0
   -2.3832   -1.2445    0.2964 N   0  0  0  0  0  0  0  0  0  0  0  0
   -3.1102   -0.8685   -0.2946 H   0  0  0  0  0  0  0  0  0  0  0  0
   -1.1292   -0.4875    0.3524 C   0  0  1  0  0  0  0  0  0  0  0  0
   -1.3564    0.5389    0.6431 H   0  0  0  0  0  0  0  0  0  0  0  0
   -0.2097   -1.1009    1.4225 C   0  0  0  0  0  0  0  0  0  0  0  0
   -0.0922   -2.1663    1.2202 H   0  0  0  0  0  0  0  0  0  0  0  0
    0.7776   -0.6426    1.3448 H   0  0  0  0  0  0  0  0  0  0  0  0
   -0.7255   -0.9449    2.8400 C   0  0  0  0  0  0  0  0  0  0  0  0
   -0.5365    0.2656    3.5366 C   0  0  0  0  0  0  0  0  0  0  0  0
    0.0016    1.0804    3.0700 H   0  0  0  0  0  0  0  0  0  0  0  0
   -1.0528    0.4197    4.8380 C   0  0  0  0  0  0  0  0  0  0  0  0
   -0.9049    1.3474    5.3690 H   0  0  0  0  0  0  0  0  0  0  0  0
   -1.7638   -0.6396    5.4430 C   0  0  0  0  0  0  0  0  0  0  0  0
   -2.2681   -0.4999    6.6965 O   0  0  0  0  0  0  0  0  0  0  0  0
   -2.0002    0.3249    7.1037 H   0  0  0  0  0  0  0  0  0  0  0  0
   -1.9562   -1.8485    4.7426 C   0  0  0  0  0  0  0  0  0  0  0  0
   -2.4977   -2.6526    5.2176 H   0  0  0  0  0  0  0  0  0  0  0  0
   -1.4350   -2.0010    3.4437 C   0  0  0  0  0  0  0  0  0  0  0  0
   -1.5752   -2.9334    2.9098 H   0  0  0  0  0  0  0  0  0  0  0  0
   -0.4504   -0.4442   -1.0268 C   0  0  0  0  0  0  0  0  0  0  0  0
   -1.0806   -0.7555   -2.0378 O   0  0  0  0  0  0  0  0  0  0  0  0
    0.8323   -0.0624   -1.0695 N   0  0  0  0  0  0  0  0  0  0  0  0
    1.2943    0.1196   -0.1903 H   0  0  0  0  0  0  0  0  0  0  0  0
    1.6245    0.0312   -2.2936 C   0  0  0  0  0  0  0  0  0  0  0  0
    1.0841    0.6147   -3.0410 H   0  0  0  0  0  0  0  0  0  0  0  0
    2.5820    0.5116   -2.0859 H   0  0  0  0  0  0  0  0  0  0  0  0
    1.8023   -0.9692   -2.6935 H   0  0  0  0  0  0  0  0  0  0  0  0
  5  6  2  0  0  0  0
  5  7  1  0  0  0  0
  2  3  1  0  0  0  0
  2  4  1  0  0  0  0
  2  5  1  0  0  0  0
  1  2  1  0  0  0  0
 26 27  2  0  0  0  0
 26 28  1  0  0  0  0
 24 25  1  0  0  0  0
 22 23  1  0  0  0  0
 22 24  2  0  0  0  0
 20 21  1  0  0  0  0
 19 20  1  0  0  0  0
 19 22  1  0  0  0  0
 17 18  1  0  0  0  0
 17 19  2  0  0  0  0
 15 16  1  0  0  0  0
 15 17  1  0  0  0  0
 14 15  2  0  0  0  0
 14 24  1  0  0  0  0
 11 12  1  0  0  0  0
 11 13  1  0  0  0  0
 11 14  1  0  0  0  0
  9 10  1  0  0  0  0
  9 11  1  0  0  0  0
  9 26  1  0  0  0  0
  7  8  1  0  0  0  0
  7  9  1  0  0  0  0
 30 31  1  0  0  0  0
 30 32  1  0  0  0  0
 30 33  1  0  0  0  0
 28 29  1  0  0  0  0
 28 30  1  0  0  0  0
M  END
$$$$
default_name
  -OEChem-01062215323D

 33 33  0     1  0  0  0  0  0999 V2000
   -4.0702   -3.8485    1.4554 H   0  0  0  0  0  0  0  0  0  0  0  0
   -4.0012   -2.9605    0.8284 C   0  0  0  0  0  0  0  0  0  0  0  0
   -4.7652   -2.2435    1.1234 H   0  0  0  0  0  0  0  0  0  0  0  0
   -4.1352   -3.2385   -0.2156 H   0  0  0  0  0  0  0  0  0  0  0  0
   -2.6362   -2.3395    1.0094 C   0  0  0  0  0  0  0  0  0  0  0  0
   -1.8292   -2.8395    1.7814 O   0  0  0  0  0  0  0  0  0  0  0  0
   -2.3832   -1.2445    0.2964 N   0  0  0  0  0  0  0  0  0  0  0  0
   -3.1102   -0.8685   -0.2946 H   0  0  0  0  0  0  0  0  0  0  0  0
   -1.1292   -0.4875    0.3524 C   0  0  1  0  0  0  0  0  0  0  0  0
   -1.3564    0.5389    0.6431 H   0  0  0  0  0  0  0  0  0  0  0  0
   -0.2097   -1.1009    1.4225 C   0  0  0  0  0  0  0  0  0  0  0  0
   -0.0922   -2.1663    1.2202 H   0  0  0  0  0  0  0  0  0  0  0  0
    0.7776   -0.6426    1.3448 H   0  0  0  0  0  0  0  0  0  0  0  0
   -0.7255   -0.9449    2.8400 C   0  0  0  0  0  0  0  0  0  0  0  0
   -0.5365    0.2656    3.5366 C   0  0  0  0  0  0  0  0  0  0  0  0
    0.0016    1.0804    3.0700 H   0  0  0  0  0  0  0  0  0  0  0  0
   -1.0528    0.4197    4.8380 C   0  0  0  0  0  0  0  0  0  0  0  0
   -0.9049    1.3474    5.3690 H   0  0  0  0  0  0  0  0  0  0  0  0
   -1.7638   -0.6396    5.4430 C   0  0  0  0  0  0  0  0  0  0  0  0
   -2.2681   -0.4999    6.6965 O   0  0  0  0  0  0  0  0  0  0  0  0
   -2.0002    0.3249    7.1037 H   0  0  0  0  0  0  0  0  0  0  0  0
   -1.9562   -1.8485    4.7426 C   0  0  0  0  0  0  0  0  0  0  0  0
   -2.4977   -2.6526    5.2176 H   0  0  0  0  0  0  0  0  0  0  0  0
   -1.4350   -2.0010    3.4437 C   0  0  0  0  0  0  0  0  0  0  0  0
   -1.5752   -2.9334    2.9098 H   0  0  0  0  0  0  0  0  0  0  0  0
   -0.4504   -0.4442   -1.0268 C   0  0  0  0  0  0  0  0  0  0  0  0
   -1.1294   -0.4825   -2.0533 O   0  0  0  0  0  0  0  0  0  0  0  0
    0.8862   -0.3677   -1.0526 N   0  0  0  0  0  0  0  0  0  0  0  0
    1.3723   -0.4002   -0.1682 H   0  0  0  0  0  0  0  0  0  0  0  0
    1.6860   -0.3199   -2.2744 C   0  0  0  0  0  0  0  0  0  0  0  0
    1.3008    0.4550   -2.9394 H   0  0  0  0  0  0  0  0  0  0  0  0
    2.7276   -0.1016   -2.0335 H   0  0  0  0  0  0  0  0  0  0  0  0
    1.6287   -1.2814   -2.7887 H   0  0  0  0  0  0  0  0  0  0  0  0
  5  6  2  0  0  0  0
  5  7  1  0  0  0  0
  2  3  1  0  0  0  0
  2  4  1  0  0  0  0
  2  5  1  0  0  0  0
  1  2  1  0  0  0  0
 26 27  2  0  0  0  0
 26 28  1  0  0  0  0
 24 25  1  0  0  0  0
 22 23  1  0  0  0  0
 22 24  2  0  0  0  0
 20 21  1  0  0  0  0
 19 20  1  0  0  0  0
 19 22  1  0  0  0  0
 17 18  1  0  0  0  0
 17 19  2  0  0  0  0
 15 16  1  0  0  0  0
 15 17  1  0  0  0  0
 14 15  2  0  0  0  0
 14 24  1  0  0  0  0
 11 12  1  0  0  0  0
 11 13  1  0  0  0  0
 11 14  1  0  0  0  0
  9 10  1  0  0  0  0
  9 11  1  0  0  0  0
  9 26  1  0  0  0  0
  7  8  1  0  0  0  0
  7  9  1  0  0  0  0
 30 31  1  0  0  0  0
 30 32  1  0  0  0  0
 30 33  1  0  0  0  0
 28 29  1  0  0  0  0
 28 30  1  0  0  0  0
M  END
$$$$
default_name
  -OEChem-01062215323D

 33 33  0     1  0  0  0  0  0999 V2000
   -4.0702   -3.8485    1.4554 H   0  0  0  0  0  0  0  0  0  0  0  0
   -4.0012   -2.9605    0.8284 C   0  0  0  0  0  0  0  0  0  0  0  0
   -4.7652   -2.2435    1.1234 H   0  0  0  0  0  0  0  0  0  0  0  0
   -4.1352   -3.2385   -0.2156 H   0  0  0  0  0  0  0  0  0  0  0  0
   -2.6362   -2.3395    1.0094 C   0  0  0  0  0  0  0  0  0  0  0  0
   -1.8292   -2.8395    1.7814 O   0  0  0  0  0  0  0  0  0  0  0  0
   -2.3832   -1.2445    0.2964 N   0  0  0  0  0  0  0  0  0  0  0  0
   -3.1102   -0.8685   -0.2946 H   0  0  0  0  0  0  0  0  0  0  0  0
   -1.1292   -0.4875    0.3524 C   0  0  1  0  0  0  0  0  0  0  0  0
   -1.3564    0.5389    0.6431 H   0  0  0  0  0  0  0  0  0  0  0  0
   -0.2097   -1.1009    1.4225 C   0  0  0  0  0  0  0  0  0  0  0  0
   -0.0922   -2.1663    1.2202 H   0  0  0  0  0  0  0  0  0  0  0  0
    0.7776   -0.6426    1.3448 H   0  0  0  0  0  0  0  0  0  0  0  0
   -0.7255   -0.9449    2.8400 C   0  0  0  0  0  0  0  0  0  0  0  0
   -0.5365    0.2656    3.5366 C   0  0  0  0  0  0  0  0  0  0  0  0
    0.0016    1.0804    3.0700 H   0  0  0  0  0  0  0  0  0  0  0  0
   -1.0528    0.4197    4.8380 C   0  0  0  0  0  0  0  0  0  0  0  0
   -0.9049    1.3474    5.3690 H   0  0  0  0  0  0  0  0  0  0  0  0
   -1.7638   -0.6396    5.4430 C   0  0  0  0  0  0  0  0  0  0  0  0
   -2.2681   -0.4999    6.6965 O   0  0  0  0  0  0  0  0  0  0  0  0
   -2.0002    0.3249    7.1037 H   0  0  0  0  0  0  0  0  0  0  0  0
   -1.9562   -1.8485    4.7426 C   0  0  0  0  0  0  0  0  0  0  0  0
   -2.4977   -2.6526    5.2176 H   0  0  0  0  0  0  0  0  0  0  0  0
   -1.4350   -2.0010    3.4437 C   0  0  0  0  0  0  0  0  0  0  0  0
   -1.5752   -2.9334    2.9098 H   0  0  0  0  0  0  0  0  0  0  0  0
   -0.4504   -0.4442   -1.0268 C   0  0  0  0  0  0  0  0  0  0  0  0
   -1.1133   -0.2057   -2.0366 O   0  0  0  0  0  0  0  0  0  0  0  0
    0.8675   -0.6770   -1.0715 N   0  0  0  0  0  0  0  0  0  0  0  0
    1.3272   -0.9228   -0.2068 H   0  0  0  0  0  0  0  0  0  0  0  0
    1.6640   -0.6755   -2.2963 C   0  0  0  0  0  0  0  0  0  0  0  0
    1.4737    0.2388   -2.8610 H   0  0  0  0  0  0  0  0  0  0  0  0
    2.7264   -0.7337   -2.0539 H   0  0  0  0  0  0  0  0  0  0  0  0
    1.3879   -1.5318   -2.9151 H   0  0  0  0  0  0  0  0  0  0  0  0
  5  6  2  0  0  0  0
  5  7  1  0  0  0  0
  2  3  1  0  0  0  0
  2  4  1  0  0  0  0
  2  5  1  0  0  0  0
  1  2  1  0  0  0  0
 26 27  2  0  0  0  0
 26 28  1  0  0  0  0
 24 25  1  0  0  0  0
 22 23  1  0  0  0  0
 22 24  2  0  0  0  0
 20 21  1  0  0  0  0
 19 20  1  0  0  0  0
 19 22  1  0  0  0  0
 17 18  1  0  0  0  0
 17 19  2  0  0  0  0
 15 16  1  0  0  0  0
 15 17  1  0  0  0  0
 14 15  2  0  0  0  0
 14 24  1  0  0  0  0
 11 12  1  0  0  0  0
 11 13  1  0  0  0  0
 11 14  1  0  0  0  0
  9 10  1  0  0  0  0
  9 11  1  0  0  0  0
  9 26  1  0  0  0  0
  7  8  1  0  0  0  0
  7  9  1  0  0  0  0
 30 31  1  0  0  0  0
 30 32  1  0  0  0  0
 30 33  1  0  0  0  0
 28 29  1  0  0  0  0
 28 30  1  0  0  0  0
M  END
$$$$
default_name
  -OEChem-01062215323D

 33 33  0     1  0  0  0  0  0999 V2000
   -4.0702   -3.8485    1.4554 H   0  0  0  0  0  0  0  0  0  0  0  0
   -4.0012   -2.9605    0.8284 C   0  0  0  0  0  0  0  0  0  0  0  0
   -4.7652   -2.2435    1.1234 H   0  0  0  0  0  0  0  0  0  0  0  0
   -4.1352   -3.2385   -0.2156 H   0  0  0  0  0  0  0  0  0  0  0  0
   -2.6362   -2.3395    1.0094 C   0  0  0  0  0  0  0  0  0  0  0  0
   -1.8292   -2.8395    1.7814 O   0  0  0  0  0  0  0  0  0  0  0  0
   -2.3832   -1.2445    0.2964 N   0  0  0  0  0  0  0  0  0  0  0  0
   -3.1102   -0.8685   -0.2946 H   0  0  0  0  0  0  0  0  0  0  0  0
   -1.1292   -0.4875    0.3524 C   0  0  1  0  0  0  0  0  0  0  0  0
   -1.3564    0.5389    0.6431 H   0  0  0  0  0  0  0  0  0  0  0  0
   -0.2097   -1.1009    1.4225 C   0  0  0  0  0  0  0  0  0  0  0  0
   -0.0922   -2.1663    1.2202 H   0  0  0  0  0  0  0  0  0  0  0  0
    0.7776   -0.6426    1.3448 H   0  0  0  0  0  0  0  0  0  0  0  0
   -0.7255   -0.9449    2.8400 C   0  0  0  0  0  0  0  0  0  0  0  0
   -0.5365    0.2656    3.5366 C   0  0  0  0  0  0  0  0  0  0  0  0
    0.0016    1.0804    3.0700 H   0  0  0  0  0  0  0  0  0  0  0  0
   -1.0528    0.4197    4.8380 C   0  0  0  0  0  0  0  0  0  0  0  0
   -0.9049    1.3474    5.3690 H   0  0  0  0  0  0  0  0  0  0  0  0
   -1.7638   -0.6396    5.4430 C   0  0  0  0  0  0  0  0  0  0  0  0
   -2.2681   -0.4999    6.6965 O   0  0  0  0  0  0  0  0  0  0  0  0
   -2.0002    0.3249    7.1037 H   0  0  0  0  0  0  0  0  0  0  0  0
   -1.9562   -1.8485    4.7426 C   0  0  0  0  0  0  0  0  0  0  0  0
   -2.4977   -2.6526    5.2176 H   0  0  0  0  0  0  0  0  0  0  0  0
   -1.4350   -2.0010    3.4437 C   0  0  0  0  0  0  0  0  0  0  0  0
   -1.5752   -2.9334    2.9098 H   0  0  0  0  0  0  0  0  0  0  0  0
   -0.4504   -0.4442   -1.0268 C   0  0  0  0  0  0  0  0  0  0  0  0
   -1.0334    0.0560   -1.9891 O   0  0  0  0  0  0  0  0  0  0  0  0
    0.7775   -0.9693   -1.1249 N   0  0  0  0  0  0  0  0  0  0  0  0
    1.1621   -1.4128   -0.3034 H   0  0  0  0  0  0  0  0  0  0  0  0
    1.5601   -1.0114   -2.3580 C   0  0  0  0  0  0  0  0  0  0  0  0
    1.5911   -0.0191   -2.8113 H   0  0  0  0  0  0  0  0  0  0  0  0
    2.5783   -1.3417   -2.1459 H   0  0  0  0  0  0  0  0  0  0  0  0
    1.0963   -1.7034   -3.0640 H   0  0  0  0  0  0  0  0  0  0  0  0
  5  6  2  0  0  0  0
  5  7  1  0  0  0  0
  2  3  1  0  0  0  0
  2  4  1  0  0  0  0
  2  5  1  0  0  0  0
  1  2  1  0  0  0  0
 26 27  2  0  0  0  0
 26 28  1  0  0  0  0
 24 25  1  0  0  0  0
 22 23  1  0  0  0  0
 22 24  2  0  0  0  0
 20 21  1  0  0  0  0
 19 20  1  0  0  0  0
 19 22  1  0  0  0  0
 17 18  1  0  0  0  0
 17 19  2  0  0  0  0
 15 16  1  0  0  0  0
 15 17  1  0  0  0  0
 14 15  2  0  0  0  0
 14 24  1  0  0  0  0
 11 12  1  0  0  0  0
 11 13  1  0  0  0  0
 11 14  1  0  0  0  0
  9 10  1  0  0  0  0
  9 11  1  0  0  0  0
  9 26  1  0  0  0  0
  7  8  1  0  0  0  0
  7  9  1  0  0  0  0
 30 31  1  0  0  0  0
 30 32  1  0  0  0  0
 30 33  1  0  0  0  0
 28 29  1  0  0  0  0
 28 30  1  0  0  0  0
M  END
$$$$
default_name
  -OEChem-01062215323D

 33 33  0     1  0  0  0  0  0999 V2000
   -4.0702   -3.8485    1.4554 H   0  0  0  0  0  0  0  0  0  0  0  0
   -4.0012   -2.9605    0.8284 C   0  0  0  0  0  0  0  0  0  0  0  0
   -4.7652   -2.2435    1.1234 H   0  0  0  0  0  0  0  0  0  0  0  0
   -4.1352   -3.2385   -0.2156 H   0  0  0  0  0  0  0  0  0  0  0  0
   -2.6362   -2.3395    1.0094 C   0  0  0  0  0  0  0  0  0  0  0  0
   -1.8292   -2.8395    1.7814 O   0  0  0  0  0  0  0  0  0  0  0  0
   -2.3832   -1.2445    0.2964 N   0  0  0  0  0  0  0  0  0  0  0  0
   -3.1102   -0.8685   -0.2946 H   0  0  0  0  0  0  0  0  0  0  0  0
   -1.1292   -0.4875    0.3524 C   0  0  1  0  0  0  0  0  0  0  0  0
   -1.3564    0.5389    0.6431 H   0  0  0  0  0  0  0  0  0  0  0  0
   -0.2097   -1.1009    1.4225 C   0  0  0  0  0  0  0  0  0  0  0  0
   -0.0922   -2.1663    1.2202 H   0  0  0  0  0  0  0  0  0  0  0  0
    0.7776   -0.6426    1.3448 H   0  0  0  0  0  0  0  0  0  0  0  0
   -0.7255   -0.9449    2.8400 C   0  0  0  0  0  0  0  0  0  0  0  0
   -0.5365    0.2656    3.5366 C   0  0  0  0  0  0  0  0  0  0  0  0
    0.0016    1.0804    3.0700 H   0  0  0  0  0  0  0  0  0  0  0  0
   -1.0528    0.4197    4.8380 C   0  0  0  0  0  0  0  0  0  0  0  0
   -0.9049    1.3474    5.3690 H   0  0  0  0  0  0  0  0  0  0  0  0
   -1.7638   -0.6396    5.4430 C   0  0  0  0  0  0  0  0  0  0  0  0
   -2.2681   -0.4999    6.6965 O   0  0  0  0  0  0  0  0  0  0  0  0
   -2.0002    0.3249    7.1037 H   0  0  0  0  0  0  0  0  0  0  0  0
   -1.9562   -1.8485    4.7426 C   0  0  0  0  0  0  0  0  0  0  0  0
   -2.4977   -2.6526    5.2176 H   0  0  0  0  0  0  0  0  0  0  0  0
   -1.4350   -2.0010    3.4437 C   0  0  0  0  0  0  0  0  0  0  0  0
   -1.5752   -2.9334    2.9098 H   0  0  0  0  0  0  0  0  0  0  0  0
   -0.4504   -0.4442   -1.0268 C   0  0  0  0  0  0  0  0  0  0  0  0
   -0.8951    0.2849   -1.9138 O   0  0  0  0  0  0  0  0  0  0  0  0
    0.6223   -1.2246   -1.2093 N   0  0  0  0  0  0  0  0  0  0  0  0
    0.8881   -1.8367   -0.4516 H   0  0  0  0  0  0  0  0  0  0  0  0
    1.3813   -1.3047   -2.4552 C   0  0  0  0  0  0  0  0  0  0  0  0
    1.6451   -0.3012   -2.7936 H   0  0  0  0  0  0  0  0  0  0  0  0
    2.2934   -1.8840   -2.3031 H   0  0  0  0  0  0  0  0  0  0  0  0
    0.7737   -1.7843   -3.2253 H   0  0  0  0  0  0  0  0  0  0  0  0
  5  6  2  0  0  0  0
  5  7  1  0  0  0  0
  2  3  1  0  0  0  0
  2  4  1  0  0  0  0
  2  5  1  0  0  0  0
  1  2  1  0  0  0  0
 26 27  2  0  0  0  0
 26 28  1  0  0  0  0
 24 25  1  0  0  0  0
 22 23  1  0  0  0  0
 22 24  2  0  0  0  0
 20 21  1  0  0  0  0
 19 20  1  0  0  0  0
 19 22  1  0  0  0  0
 17 18  1  0  0  0  0
 17 19  2  0  0  0  0
 15 16  1  0  0  0  0
 15 17  1  0  0  0  0
 14 15  2  0  0  0  0
 14 24  1  0  0  0  0
 11 12  1  0  0  0  0
 11 13  1  0  0  0  0
 11 14  1  0  0  0  0
  9 10  1  0  0  0  0
  9 11  1  0  0  0  0
  9 26  1  0  0  0  0
  7  8  1  0  0  0  0
  7  9  1  0  0  0  0
 30 31  1  0  0  0  0
 30 32  1  0  0  0  0
 30 33  1  0  0  0  0
 28 29  1  0  0  0  0
 28 30  1  0  0  0  0
M  END
$$$$
default_name
  -OEChem-01062215323D

 33 33  0     1  0  0  0  0  0999 V2000
   -4.0702   -3.8485    1.4554 H   0  0  0  0  0  0  0  0  0  0  0  0
   -4.0012   -2.9605    0.8284 C   0  0  0  0  0  0  0  0  0  0  0  0
   -4.7652   -2.2435    1.1234 H   0  0  0  0  0  0  0  0  0  0  0  0
   -4.1352   -3.2385   -0.2156 H   0  0  0  0  0  0  0  0  0  0  0  0
   -2.6362   -2.3395    1.0094 C   0  0  0  0  0  0  0  0  0  0  0  0
   -1.8292   -2.8395    1.7814 O   0  0  0  0  0  0  0  0  0  0  0  0
   -2.3832   -1.2445    0.2964 N   0  0  0  0  0  0  0  0  0  0  0  0
   -3.1102   -0.8685   -0.2946 H   0  0  0  0  0  0  0  0  0  0  0  0
   -1.1292   -0.4875    0.3524 C   0  0  1  0  0  0  0  0  0  0  0  0
   -1.3564    0.5389    0.6431 H   0  0  0  0  0  0  0  0  0  0  0  0
   -0.2097   -1.1009    1.4225 C   0  0  0  0  0  0  0  0  0  0  0  0
   -0.0922   -2.1663    1.2202 H   0  0  0  0  0  0  0  0  0  0  0  0
    0.7776   -0.6426    1.3448 H   0  0  0  0  0  0  0  0  0  0  0  0
   -0.7255   -0.9449    2.8400 C   0  0  0  0  0  0  0  0  0  0  0  0
   -0.5365    0.2656    3.5366 C   0  0  0  0  0  0  0  0  0  0  0  0
    0.0016    1.0804    3.0700 H   0  0  0  0  0  0  0  0  0  0  0  0
   -1.0528    0.4197    4.8380 C   0  0  0  0  0  0  0  0  0  0  0  0
   -0.9049    1.3474    5.3690 H   0  0  0  0  0  0  0  0  0  0  0  0
   -1.7638   -0.6396    5.4430 C   0  0  0  0  0  0  0  0  0  0  0  0
   -2.2681   -0.4999    6.6965 O   0  0  0  0  0  0  0  0  0  0  0  0
   -2.0002    0.3249    7.1037 H   0  0  0  0  0  0  0  0  0  0  0  0
   -1.9562   -1.8485    4.7426 C   0  0  0  0  0  0  0  0  0  0  0  0
   -2.4977   -2.6526    5.2176 H   0  0  0  0  0  0  0  0  0  0  0  0
   -1.4350   -2.0010    3.4437 C   0  0  0  0  0  0  0  0  0  0  0  0
   -1.5752   -2.9334    2.9098 H   0  0  0  0  0  0  0  0  0  0  0  0
   -0.4504   -0.4442   -1.0268 C   0  0  0  0  0  0  0  0  0  0  0  0
   -0.7078    0.4652   -1.8160 O   0  0  0  0  0  0  0  0  0  0  0  0
    0.4125   -1.4256   -1.3189 N   0  0  0  0  0  0  0  0  0  0  0  0
    0.5240   -2.1656   -0.6411 H   0  0  0  0  0  0  0  0  0  0  0  0
    1.1398   -1.5353   -2.5813 C   0  0  0  0  0  0  0  0  0  0  0  0
    1.6318   -0.5881   -2.8092 H   0  0  0  0  0  0  0  0  0  0  0  0
    1.8912   -2.3238   -2.5149 H   0  0  0  0  0  0  0  0  0  0  0  0
    0.4421   -1.7693   -3.3881 H   0  0  0  0  0  0  0  0  0  0  0  0
  5  6  2  0  0  0  0
  5  7  1  0  0  0  0
  2  3  1  0  0  0  0
  2  4  1  0  0  0  0
  2  5  1  0  0  0  0
  1  2  1  0  0  0  0
 26 27  2  0  0  0  0
 26 28  1  0  0  0  0
 24 25  1  0  0  0  0
 22 23  1  0  0  0  0
 22 24  2  0  0  0  0
 20 21  1  0  0  0  0
 19 20  1  0  0  0  0
 19 22  1  0  0  0  0
 17 18  1  0  0  0  0
 17 19  2  0  0  0  0
 15 16  1  0  0  0  0
 15 17  1  0  0  0  0
 14 15  2  0  0  0  0
 14 24  1  0  0  0  0
 11 12  1  0  0  0  0
 11 13  1  0  0  0  0
 11 14  1  0  0  0  0
  9 10  1  0  0  0  0
  9 11  1  0  0  0  0
  9 26  1  0  0  0  0
  7  8  1  0  0  0  0
  7  9  1  0  0  0  0
 30 31  1  0  0  0  0
 30 32  1  0  0  0  0
 30 33  1  0  0  0  0
 28 29  1  0  0  0  0
 28 30  1  0  0  0  0
M  END
$$$$
default_name
  -OEChem-01062215323D

 33 33  0     1  0  0  0  0  0999 V2000
   -4.0702   -3.8485    1.4554 H   0  0  0  0  0  0  0  0  0  0  0  0
   -4.0012   -2.9605    0.8284 C   0  0  0  0  0  0  0  0  0  0  0  0
   -4.7652   -2.2435    1.1234 H   0  0  0  0  0  0  0  0  0  0  0  0
   -4.1352   -3.2385   -0.2156 H   0  0  0  0  0  0  0  0  0  0  0  0
   -2.6362   -2.3395    1.0094 C   0  0  0  0  0  0  0  0  0  0  0  0
   -1.8292   -2.8395    1.7814 O   0  0  0  0  0  0  0  0  0  0  0  0
   -2.3832   -1.2445    0.2964 N   0  0  0  0  0  0  0  0  0  0  0  0
   -3.1102   -0.8685   -0.2946 H   0  0  0  0  0  0  0  0  0  0  0  0
   -1.1292   -0.4875    0.3524 C   0  0  1  0  0  0  0  0  0  0  0  0
   -1.3564    0.5389    0.6431 H   0  0  0  0  0  0  0  0  0  0  0  0
   -0.2097   -1.1009    1.4225 C   0  0  0  0  0  0  0  0  0  0  0  0
   -0.0922   -2.1663    1.2202 H   0  0  0  0  0  0  0  0  0  0  0  0
    0.7776   -0.6426    1.3448 H   0  0  0  0  0  0  0  0  0  0  0  0
   -0.7255   -0.9449    2.8400 C   0  0  0  0  0  0  0  0  0  0  0  0
   -0.5365    0.2656    3.5366 C   0  0  0  0  0  0  0  0  0  0  0  0
    0.0016    1.0804    3.0700 H   0  0  0  0  0  0  0  0  0  0  0  0
   -1.0528    0.4197    4.8380 C   0  0  0  0  0  0  0  0  0  0  0  0
   -0.9049    1.3474    5.3690 H   0  0  0  0  0  0  0  0  0  0  0  0
   -1.7638   -0.6396    5.4430 C   0  0  0  0  0  0  0  0  0  0  0  0
   -2.2681   -0.4999    6.6965 O   0  0  0  0  0  0  0  0  0  0  0  0
   -2.0002    0.3249    7.1037 H   0  0  0  0  0  0  0  0  0  0  0  0
   -1.9562   -1.8485    4.7426 C   0  0  0  0  0  0  0  0  0  0  0  0
   -2.4977   -2.6526    5.2176 H   0  0  0  0  0  0  0  0  0  0  0  0
   -1.4350   -2.0010    3.4437 C   0  0  0  0  0  0  0  0  0  0  0  0
   -1.5752   -2.9334    2.9098 H   0  0  0  0  0  0  0  0  0  0  0  0
   -0.4504   -0.4442   -1.0268 C   0  0  0  0  0  0  0  0  0  0  0  0
   -0.4844    0.5847   -1.7023 O   0  0  0  0  0  0  0  0  0  0  0  0
    0.1624   -1.5585   -1.4462 N   0  0  0  0  0  0  0  0  0  0  0  0
    0.0946   -2.3772   -0.8591 H   0  0  0  0  0  0  0  0  0  0  0  0
    0.8521   -1.6877   -2.7277 C   0  0  0  0  0  0  0  0  0  0  0  0
    1.5523   -0.8605   -2.8569 H   0  0  0  0  0  0  0  0  0  0  0  0
    1.3991   -2.6311   -2.7667 H   0  0  0  0  0  0  0  0  0  0  0  0
    0.1241   -1.6591   -3.5411 H   0  0  0  0  0  0  0  0  0  0  0  0
  5  6  2  0  0  0  0
  5  7  1  0  0  0  0
  2  3  1  0  0  0  0
  2  4  1  0  0  0  0
  2  5  1  0  0  0  0
  1  2  1  0  0  0  0
 26 27  2  0  0  0  0
 26 28  1  0  0  0  0
 24 25  1  0  0  0  0
 22 23  1  0  0  0  0
 22 24  2  0  0  0  0
 20 21  1  0  0  0  0
 19 20  1  0  0  0  0
 19 22  1  0  0  0  0
 17 18  1  0  0  0  0
 17 19  2  0  0  0  0
 15 16  1  0  0  0  0
 15 17  1  0  0  0  0
 14 15  2  0  0  0  0
 14 24  1  0  0  0  0
 11 12  1  0  0  0  0
 11 13  1  0  0  0  0
 11 14  1  0  0  0  0
  9 10  1  0  0  0  0
  9 11  1  0  0  0  0
  9 26  1  0  0  0  0
  7  8  1  0  0  0  0
  7  9  1  0  0  0  0
 30 31  1  0  0  0  0
 30 32  1  0  0  0  0
 30 33  1  0  0  0  0
 28 29  1  0  0  0  0
 28 30  1  0  0  0  0
M  END
$$$$
default_name
  -OEChem-01062215323D

 33 33  0     1  0  0  0  0  0999 V2000
   -4.0702   -3.8485    1.4554 H   0  0  0  0  0  0  0  0  0  0  0  0
   -4.0012   -2.9605    0.8284 C   0  0  0  0  0  0  0  0  0  0  0  0
   -4.7652   -2.2435    1.1234 H   0  0  0  0  0  0  0  0  0  0  0  0
   -4.1352   -3.2385   -0.2156 H   0  0  0  0  0  0  0  0  0  0  0  0
   -2.6362   -2.3395    1.0094 C   0  0  0  0  0  0  0  0  0  0  0  0
   -1.8292   -2.8395    1.7814 O   0  0  0  0  0  0  0  0  0  0  0  0
   -2.3832   -1.2445    0.2964 N   0  0  0  0  0  0  0  0  0  0  0  0
   -3.1102   -0.8685   -0.2946 H   0  0  0  0  0  0  0  0  0  0  0  0
   -1.1292   -0.4875    0.3524 C   0  0  1  0  0  0  0  0  0  0  0  0
   -1.3564    0.5389    0.6431 H   0  0  0  0  0  0  0  0  0  0  0  0
   -0.2097   -1.1009    1.4225 C   0  0  0  0  0  0  0  0  0  0  0  0
   -0.0922   -2.1663    1.2202 H   0  0  0  0  0  0  0  0  0  0  0  0
    0.7776   -0.6426    1.3448 H   0  0  0  0  0  0  0  0  0  0  0  0
   -0.7255   -0.9449    2.8400 C   0  0  0  0  0  0  0  0  0  0  0  0
   -0.5365    0.2656    3.5366 C   0  0  0  0  0  0  0  0  0  0  0  0
    0.0016    1.0804    3.0700 H   0  0  0  0  0  0  0  0  0  0  0  0
   -1.0528    0.4197    4.8380 C   0  0  0  0  0  0  0  0  0  0  0  0
   -0.9049    1.3474    5.3690 H   0  0  0  0  0  0  0  0  0  0  0  0
   -1.7638   -0.6396    5.4430 C   0  0  0  0  0  0  0  0  0  0  0  0
   -2.2681   -0.4999    6.6965 O   0  0  0  0  0  0  0  0  0  0  0  0
   -2.0002    0.3249    7.1037 H   0  0  0  0  0  0  0  0  0  0  0  0
   -1.9562   -1.8485    4.7426 C   0  0  0  0  0  0  0  0  0  0  0  0
   -2.4977   -2.6526    5.2176 H   0  0  0  0  0  0  0  0  0  0  0  0
   -1.4350   -2.0010    3.4437 C   0  0  0  0  0  0  0  0  0  0  0  0
   -1.5752   -2.9334    2.9098 H   0  0  0  0  0  0  0  0  0  0  0  0
   -0.4504   -0.4442   -1.0268 C   0  0  0  0  0  0  0  0  0  0  0  0
   -0.2400    0.6353   -1.5804 O   0  0  0  0  0  0  0  0  0  0  0  0
   -0.1109   -1.6142   -1.5824 N   0  0  0  0  0  0  0  0  0  0  0  0
   -0.3709   -2.4569   -1.0908 H   0  0  0  0  0  0  0  0  0  0  0  0
    0.5378   -1.7514   -2.8844 C   0  0  0  0  0  0  0  0  0  0  0  0
    1.4119   -1.0997   -2.9335 H   0  0  0  0  0  0  0  0  0  0  0  0
    0.8506   -2.7849   -3.0415 H   0  0  0  0  0  0  0  0  0  0  0  0
   -0.1585   -1.4614   -3.6740 H   0  0  0  0  0  0  0  0  0  0  0  0
  5  6  2  0  0  0  0
  5  7  1  0  0  0  0
  2  3  1  0  0  0  0
  2  4  1  0  0  0  0
  2  5  1  0  0  0  0
  1  2  1  0  0  0  0
 26 27  2  0  0  0  0
 26 28  1  0  0  0  0
 24 25  1  0  0  0  0
 22 23  1  0  0  0  0
 22 24  2  0  0  0  0
 20 21  1  0  0  0  0
 19 20  1  0  0  0  0
 19 22  1  0  0  0  0
 17 18  1  0  0  0  0
 17 19  2  0  0  0  0
 15 16  1  0  0  0  0
 15 17  1  0  0  0  0
 14 15  2  0  0  0  0
 14 24  1  0  0  0  0
 11 12  1  0  0  0  0
 11 13  1  0  0  0  0
 11 14  1  0  0  0  0
  9 10  1  0  0  0  0
  9 11  1  0  0  0  0
  9 26  1  0  0  0  0
  7  8  1  0  0  0  0
  7  9  1  0  0  0  0
 30 31  1  0  0  0  0
 30 32  1  0  0  0  0
 30 33  1  0  0  0  0
 28 29  1  0  0  0  0
 28 30  1  0  0  0  0
M  END
$$$$
default_name
  -OEChem-01062215323D

 33 33  0     1  0  0  0  0  0999 V2000
   -4.0702   -3.8485    1.4554 H   0  0  0  0  0  0  0  0  0  0  0  0
   -4.0012   -2.9605    0.8284 C   0  0  0  0  0  0  0  0  0  0  0  0
   -4.7652   -2.2435    1.1234 H   0  0  0  0  0  0  0  0  0  0  0  0
   -4.1352   -3.2385   -0.2156 H   0  0  0  0  0  0  0  0  0  0  0  0
   -2.6362   -2.3395    1.0094 C   0  0  0  0  0  0  0  0  0  0  0  0
   -1.8292   -2.8395    1.7814 O   0  0  0  0  0  0  0  0  0  0  0  0
   -2.3832   -1.2445    0.2964 N   0  0  0  0  0  0  0  0  0  0  0  0
   -3.1102   -0.8685   -0.2946 H   0  0  0  0  0  0  0  0  0  0  0  0
   -1.1292   -0.4875    0.3524 C   0  0  1  0  0  0  0  0  0  0  0  0
   -1.3564    0.5389    0.6431 H   0  0  0  0  0  0  0  0  0  0  0  0
   -0.2097   -1.1009    1.4225 C   0  0  0  0  0  0  0  0  0  0  0  0
   -0.0922   -2.1663    1.2202 H   0  0  0  0  0  0  0  0  0  0  0  0
    0.7776   -0.6426    1.3448 H   0  0  0  0  0  0  0  0  0  0  0  0
   -0.7255   -0.9449    2.8400 C   0  0  0  0  0  0  0  0  0  0  0  0
   -0.5365    0.2656    3.5366 C   0  0  0  0  0  0  0  0  0  0  0  0
    0.0016    1.0804    3.0700 H   0  0  0  0  0  0  0  0  0  0  0  0
   -1.0528    0.4197    4.8380 C   0  0  0  0  0  0  0  0  0  0  0  0
   -0.9049    1.3474    5.3690 H   0  0  0  0  0  0  0  0  0  0  0  0
   -1.7638   -0.6396    5.4430 C   0  0  0  0  0  0  0  0  0  0  0  0
   -2.2681   -0.4999    6.6965 O   0  0  0  0  0  0  0  0  0  0  0  0
   -2.0002    0.3249    7.1037 H   0  0  0  0  0  0  0  0  0  0  0  0
   -1.9562   -1.8485    4.7426 C   0  0  0  0  0  0  0  0  0  0  0  0
   -2.4977   -2.6526    5.2176 H   0  0  0  0  0  0  0  0  0  0  0  0
   -1.4350   -2.0010    3.4437 C   0  0  0  0  0  0  0  0  0  0  0  0
   -1.5752   -2.9334    2.9098 H   0  0  0  0  0  0  0  0  0  0  0  0
   -0.4504   -0.4442   -1.0268 C   0  0  0  0  0  0  0  0  0  0  0  0
    0.0087    0.6136   -1.4587 O   0  0  0  0  0  0  0  0  0  0  0  0
   -0.3889   -1.5891   -1.7185 N   0  0  0  0  0  0  0  0  0  0  0  0
   -0.8408   -2.3994   -1.3202 H   0  0  0  0  0  0  0  0  0  0  0  0
    0.2182   -1.7220   -3.0408 C   0  0  0  0  0  0  0  0  0  0  0  0
    1.2202   -1.2894   -3.0338 H   0  0  0  0  0  0  0  0  0  0  0  0
    0.2831   -2.7747   -3.3205 H   0  0  0  0  0  0  0  0  0  0  0  0
   -0.3867   -1.1897   -3.7778 H   0  0  0  0  0  0  0  0  0  0  0  0
  5  6  2  0  0  0  0
  5  7  1  0  0  0  0
  2  3  1  0  0  0  0
  2  4  1  0  0  0  0
  2  5  1  0  0  0  0
  1  2  1  0  0  0  0
 26 27  2  0  0  0  0
 26 28  1  0  0  0  0
 24 25  1  0  0  0  0
 22 23  1  0  0  0  0
 22 24  2  0  0  0  0
 20 21  1  0  0  0  0
 19 20  1  0  0  0  0
 19 22  1  0  0  0  0
 17 18  1  0  0  0  0
 17 19  2  0  0  0  0
 15 16  1  0  0  0  0
 15 17  1  0  0  0  0
 14 15  2  0  0  0  0
 14 24  1  0  0  0  0
 11 12  1  0  0  0  0
 11 13  1  0  0  0  0
 11 14  1  0  0  0  0
  9 10  1  0  0  0  0
  9 11  1  0  0  0  0
  9 26  1  0  0  0  0
  7  8  1  0  0  0  0
  7  9  1  0  0  0  0
 30 31  1  0  0  0  0
 30 32  1  0  0  0  0
 30 33  1  0  0  0  0
 28 29  1  0  0  0  0
 28 30  1  0  0  0  0
M  END
$$$$
default_name
  -OEChem-01062215323D

 33 33  0     1  0  0  0  0  0999 V2000
   -4.0702   -3.8485    1.4554 H   0  0  0  0  0  0  0  0  0  0  0  0
   -4.0012   -2.9605    0.8284 C   0  0  0  0  0  0  0  0  0  0  0  0
   -4.7652   -2.2435    1.1234 H   0  0  0  0  0  0  0  0  0  0  0  0
   -4.1352   -3.2385   -0.2156 H   0  0  0  0  0  0  0  0  0  0  0  0
   -2.6362   -2.3395    1.0094 C   0  0  0  0  0  0  0  0  0  0  0  0
   -1.8292   -2.8395    1.7814 O   0  0  0  0  0  0  0  0  0  0  0  0
   -2.3832   -1.2445    0.2964 N   0  0  0  0  0  0  0  0  0  0  0  0
   -3.1102   -0.8685   -0.2946 H   0  0  0  0  0  0  0  0  0  0  0  0
   -1.1292   -0.4875    0.3524 C   0  0  1  0  0  0  0  0  0  0  0  0
   -1.3564    0.5389    0.6431 H   0  0  0  0  0  0  0  0  0  0  0  0
   -0.2097   -1.1009    1.4225 C   0  0  0  0  0  0  0  0  0  0  0  0
   -0.0922   -2.1663    1.2202 H   0  0  0  0  0  0  0  0  0  0  0  0
    0.7776   -0.6426    1.3448 H   0  0  0  0  0  0  0  0  0  0  0  0
   -0.7255   -0.9449    2.8400 C   0  0  0  0  0  0  0  0  0  0  0  0
   -0.5365    0.2656    3.5366 C   0  0  0  0  0  0  0  0  0  0  0  0
    0.0016    1.0804    3.0700 H   0  0  0  0  0  0  0  0  0  0  0  0
   -1.0528    0.4197    4.8380 C   0  0  0  0  0  0  0  0  0  0  0  0
   -0.9049    1.3474    5.3690 H   0  0  0  0  0  0  0  0  0  0  0  0
   -1.7638   -0.6396    5.4430 C   0  0  0  0  0  0  0  0  0  0  0  0
   -2.2681   -0.4999    6.6965 O   0  0  0  0  0  0  0  0  0  0  0  0
   -2.0002    0.3249    7.1037 H   0  0  0  0  0  0  0  0  0  0  0  0
   -1.9562   -1.8485    4.7426 C   0  0  0  0  0  0  0  0  0  0  0  0
   -2.4977   -2.6526    5.2176 H   0  0  0  0  0  0  0  0  0  0  0  0
   -1.4350   -2.0010    3.4437 C   0  0  0  0  0  0  0  0  0  0  0  0
   -1.5752   -2.9334    2.9098 H   0  0  0  0  0  0  0  0  0  0  0  0
   -0.4504   -0.4442   -1.0268 C   0  0  0  0  0  0  0  0  0  0  0  0
    0.2448    0.5209   -1.3454 O   0  0  0  0  0  0  0  0  0  0  0  0
   -0.6525   -1.4847   -1.8450 N   0  0  0  0  0  0  0  0  0  0  0  0
   -1.2829   -2.2086   -1.5319 H   0  0  0  0  0  0  0  0  0  0  0  0
   -0.0847   -1.6015   -3.1861 C   0  0  0  0  0  0  0  0  0  0  0  0
    0.9903   -1.4166   -3.1509 H   0  0  0  0  0  0  0  0  0  0  0  0
   -0.2647   -2.6013   -3.5847 H   0  0  0  0  0  0  0  0  0  0  0  0
   -0.5447   -0.8624   -3.8453 H   0  0  0  0  0  0  0  0  0  0  0  0
  5  6  2  0  0  0  0
  5  7  1  0  0  0  0
  2  3  1  0  0  0  0
  2  4  1  0  0  0  0
  2  5  1  0  0  0  0
  1  2  1  0  0  0  0
 26 27  2  0  0  0  0
 26 28  1  0  0  0  0
 24 25  1  0  0  0  0
 22 23  1  0  0  0  0
 22 24  2  0  0  0  0
 20 21  1  0  0  0  0
 19 20  1  0  0  0  0
 19 22  1  0  0  0  0
 17 18  1  0  0  0  0
 17 19  2  0  0  0  0
 15 16  1  0  0  0  0
 15 17  1  0  0  0  0
 14 15  2  0  0  0  0
 14 24  1  0  0  0  0
 11 12  1  0  0  0  0
 11 13  1  0  0  0  0
 11 14  1  0  0  0  0
  9 10  1  0  0  0  0
  9 11  1  0  0  0  0
  9 26  1  0  0  0  0
  7  8  1  0  0  0  0
  7  9  1  0  0  0  0
 30 31  1  0  0  0  0
 30 32  1  0  0  0  0
 30 33  1  0  0  0  0
 28 29  1  0  0  0  0
 28 30  1  0  0  0  0
M  END
$$$$
default_name
  -OEChem-01062215323D

 33 33  0     1  0  0  0  0  0999 V2000
   -4.0702   -3.8485    1.4554 H   0  0  0  0  0  0  0  0  0  0  0  0
   -4.0012   -2.9605    0.8284 C   0  0  0  0  0  0  0  0  0  0  0  0
   -4.7652   -2.2435    1.1234 H   0  0  0  0  0  0  0  0  0  0  0  0
   -4.1352   -3.2385   -0.2156 H   0  0  0  0  0  0  0  0  0  0  0  0
   -2.6362   -2.3395    1.0094 C   0  0  0  0  0  0  0  0  0  0  0  0
   -1.8292   -2.8395    1.7814 O   0  0  0  0  0  0  0  0  0  0  0  0
   -2.3832   -1.2445    0.2964 N   0  0  0  0  0  0  0  0  0  0  0  0
   -3.1102   -0.8685   -0.2946 H   0  0  0  0  0  0  0  0  0  0  0  0
   -1.1292   -0.4875    0.3524 C   0  0  1  0  0  0  0  0  0  0  0  0
   -1.3564    0.5389    0.6431 H   0  0  0  0  0  0  0  0  0  0  0  0
   -0.2097   -1.1009    1.4225 C   0  0  0  0  0  0  0  0  0  0  0  0
   -0.0922   -2.1663    1.2202 H   0  0  0  0  0  0  0  0  0  0  0  0
    0.7776   -0.6426    1.3448 H   0  0  0  0  0  0  0  0  0  0  0  0
   -0.7255   -0.9449    2.8400 C   0  0  0  0  0  0  0  0  0  0  0  0
   -0.5365    0.2656    3.5366 C   0  0  0  0  0  0  0  0  0  0  0  0
    0.0016    1.0804    3.0700 H   0  0  0  0  0  0  0  0  0  0  0  0
   -1.0528    0.4197    4.8380 C   0  0  0  0  0  0  0  0  0  0  0  0
   -0.9049    1.3474    5.3690 H   0  0  0  0  0  0  0  0  0  0  0  0
   -1.7638   -0.6396    5.4430 C   0  0  0  0  0  0  0  0  0  0  0  0
   -2.2681   -0.4999    6.6965 O   0  0  0  0  0  0  0  0  0  0  0  0
   -2.0002    0.3249    7.1037 H   0  0  0  0  0  0  0  0  0  0  0  0
   -1.9562   -1.8485    4.7426 C   0  0  0  0  0  0  0  0  0  0  0  0
   -2.4977   -2.6526    5.2176 H   0  0  0  0  0  0  0  0  0  0  0  0
   -1.4350   -2.0010    3.4437 C   0  0  0  0  0  0  0  0  0  0  0  0
   -1.5752   -2.9334    2.9098 H   0  0  0  0  0  0  0  0  0  0  0  0
   -0.4504   -0.4442   -1.0268 C   0  0  0  0  0  0  0  0  0  0  0  0
    0.4521    0.3636   -1.2483 O   0  0  0  0  0  0  0  0  0  0  0  0
   -0.8838   -1.3083   -1.9533 N   0  0  0  0  0  0  0  0  0  0  0  0
   -1.6673   -1.8975   -1.7113 H   0  0  0  0  0  0  0  0  0  0  0  0
   -0.3505   -1.3983   -3.3106 C   0  0  0  0  0  0  0  0  0  0  0  0
    0.7378   -1.4728   -3.2769 H   0  0  0  0  0  0  0  0  0  0  0  0
   -0.7555   -2.2764   -3.8161 H   0  0  0  0  0  0  0  0  0  0  0  0
   -0.6219   -0.5019   -3.8720 H   0  0  0  0  0  0  0  0  0  0  0  0
  5  6  2  0  0  0  0
  5  7  1  0  0  0  0
  2  3  1  0  0  0  0
  2  4  1  0  0  0  0
  2  5  1  0  0  0  0
  1  2  1  0  0  0  0
 26 27  2  0  0  0  0
 26 28  1  0  0  0  0
 24 25  1  0  0  0  0
 22 23  1  0  0  0  0
 22 24  2  0  0  0  0
 20 21  1  0  0  0  0
 19 20  1  0  0  0  0
 19 22  1  0  0  0  0
 17 18  1  0  0  0  0
 17 19  2  0  0  0  0
 15 16  1  0  0  0  0
 15 17  1  0  0  0  0
 14 15  2  0  0  0  0
 14 24  1  0  0  0  0
 11 12  1  0  0  0  0
 11 13  1  0  0  0  0
 11 14  1  0  0  0  0
  9 10  1  0  0  0  0
  9 11  1  0  0  0  0
  9 26  1  0  0  0  0
  7  8  1  0  0  0  0
  7  9  1  0  0  0  0
 30 31  1  0  0  0  0
 30 32  1  0  0  0  0
 30 33  1  0  0  0  0
 28 29  1  0  0  0  0
 28 30  1  0  0  0  0
M  END
$$$$
default_name
  -OEChem-01062215323D

 33 33  0     1  0  0  0  0  0999 V2000
   -4.0702   -3.8485    1.4554 H   0  0  0  0  0  0  0  0  0  0  0  0
   -4.0012   -2.9605    0.8284 C   0  0  0  0  0  0  0  0  0  0  0  0
   -4.7652   -2.2435    1.1234 H   0  0  0  0  0  0  0  0  0  0  0  0
   -4.1352   -3.2385   -0.2156 H   0  0  0  0  0  0  0  0  0  0  0  0
   -2.6362   -2.3395    1.0094 C   0  0  0  0  0  0  0  0  0  0  0  0
   -1.8292   -2.8395    1.7814 O   0  0  0  0  0  0  0  0  0  0  0  0
   -2.3832   -1.2445    0.2964 N   0  0  0  0  0  0  0  0  0  0  0  0
   -3.1102   -0.8685   -0.2946 H   0  0  0  0  0  0  0  0  0  0  0  0
   -1.1292   -0.4875    0.3524 C   0  0  1  0  0  0  0  0  0  0  0  0
   -1.3564    0.5389    0.6431 H   0  0  0  0  0  0  0  0  0  0  0  0
   -0.2097   -1.1009    1.4225 C   0  0  0  0  0  0  0  0  0  0  0  0
   -0.0922   -2.1663    1.2202 H   0  0  0  0  0  0  0  0  0  0  0  0
    0.7776   -0.6426    1.3448 H   0  0  0  0  0  0  0  0  0  0  0  0
   -0.7255   -0.9449    2.8400 C   0  0  0  0  0  0  0  0  0  0  0  0
   -0.5365    0.2656    3.5366 C   0  0  0  0  0  0  0  0  0  0  0  0
    0.0016    1.0804    3.0700 H   0  0  0  0  0  0  0  0  0  0  0  0
   -1.0528    0.4197    4.8380 C   0  0  0  0  0  0  0  0  0  0  0  0
   -0.9049    1.3474    5.3690 H   0  0  0  0  0  0  0  0  0  0  0  0
   -1.7638   -0.6396    5.4430 C   0  0  0  0  0  0  0  0  0  0  0  0
   -2.2681   -0.4999    6.6965 O   0  0  0  0  0  0  0  0  0  0  0  0
   -2.0002    0.3249    7.1037 H   0  0  0  0  0  0  0  0  0  0  0  0
   -1.9562   -1.8485    4.7426 C   0  0  0  0  0  0  0  0  0  0  0  0
   -2.4977   -2.6526    5.2176 H   0  0  0  0  0  0  0  0  0  0  0  0
   -1.4350   -2.0010    3.4437 C   0  0  0  0  0  0  0  0  0  0  0  0
   -1.5752   -2.9334    2.9098 H   0  0  0  0  0  0  0  0  0  0  0  0
   -0.4504   -0.4442   -1.0268 C   0  0  0  0  0  0  0  0  0  0  0  0
    0.6166    0.1525   -1.1739 O   0  0  0  0  0  0  0  0  0  0  0  0
   -1.0671   -1.0718   -2.0361 N   0  0  0  0  0  0  0  0  0  0  0  0
   -1.9676   -1.4873   -1.8462 H   0  0  0  0  0  0  0  0  0  0  0  0
   -0.5609   -1.1261   -3.4056 C   0  0  0  0  0  0  0  0  0  0  0  0
    0.4800   -1.4541   -3.4033 H   0  0  0  0  0  0  0  0  0  0  0  0
   -1.1559   -1.8222   -3.9990 H   0  0  0  0  0  0  0  0  0  0  0  0
   -0.6129   -0.1327   -3.8560 H   0  0  0  0  0  0  0  0  0  0  0  0
  5  6  2  0  0  0  0
  5  7  1  0  0  0  0
  2  3  1  0  0  0  0
  2  4  1  0  0  0  0
  2  5  1  0  0  0  0
  1  2  1  0  0  0  0
 26 27  2  0  0  0  0
 26 28  1  0  0  0  0
 24 25  1  0  0  0  0
 22 23  1  0  0  0  0
 22 24  2  0  0  0  0
 20 21  1  0  0  0  0
 19 20  1  0  0  0  0
 19 22  1  0  0  0  0
 17 18  1  0  0  0  0
 17 19  2  0  0  0  0
 15 16  1  0  0  0  0
 15 17  1  0  0  0  0
 14 15  2  0  0  0  0
 14 24  1  0  0  0  0
 11 12  1  0  0  0  0
 11 13  1  0  0  0  0
 11 14  1  0  0  0  0
  9 10  1  0  0  0  0
  9 11  1  0  0  0  0
  9 26  1  0  0  0  0
  7  8  1  0  0  0  0
  7  9  1  0  0  0  0
 30 31  1  0  0  0  0
 30 32  1  0  0  0  0
 30 33  1  0  0  0  0
 28 29  1  0  0  0  0
 28 30  1  0  0  0  0
M  END
$$$$
default_name
  -OEChem-01062215323D

 33 33  0     1  0  0  0  0  0999 V2000
   -4.0702   -3.8485    1.4554 H   0  0  0  0  0  0  0  0  0  0  0  0
   -4.0012   -2.9605    0.8284 C   0  0  0  0  0  0  0  0  0  0  0  0
   -4.7652   -2.2435    1.1234 H   0  0  0  0  0  0  0  0  0  0  0  0
   -4.1352   -3.2385   -0.2156 H   0  0  0  0  0  0  0  0  0  0  0  0
   -2.6362   -2.3395    1.0094 C   0  0  0  0  0  0  0  0  0  0  0  0
   -1.8292   -2.8395    1.7814 O   0  0  0  0  0  0  0  0  0  0  0  0
   -2.3832   -1.2445    0.2964 N   0  0  0  0  0  0  0  0  0  0  0  0
   -3.1102   -0.8685   -0.2946 H   0  0  0  0  0  0  0  0  0  0  0  0
   -1.1292   -0.4875    0.3524 C   0  0  1  0  0  0  0  0  0  0  0  0
   -1.3564    0.5389    0.6431 H   0  0  0  0  0  0  0  0  0  0  0  0
   -0.2097   -1.1009    1.4225 C   0  0  0  0  0  0  0  0  0  0  0  0
   -0.0922   -2.1663    1.2202 H   0  0  0  0  0  0  0  0  0  0  0  0
    0.7776   -0.6426    1.3448 H   0  0  0  0  0  0  0  0  0  0  0  0
   -0.7255   -0.9449    2.8400 C   0  0  0  0  0  0  0  0  0  0  0  0
   -0.5365    0.2656    3.5366 C   0  0  0  0  0  0  0  0  0  0  0  0
    0.0016    1.0804    3.0700 H   0  0  0  0  0  0  0  0  0  0  0  0
   -1.0528    0.4197    4.8380 C   0  0  0  0  0  0  0  0  0  0  0  0
   -0.9049    1.3474    5.3690 H   0  0  0  0  0  0  0  0  0  0  0  0
   -1.7638   -0.6396    5.4430 C   0  0  0  0  0  0  0  0  0  0  0  0
   -2.2681   -0.4999    6.6965 O   0  0  0  0  0  0  0  0  0  0  0  0
   -2.0002    0.3249    7.1037 H   0  0  0  0  0  0  0  0  0  0  0  0
   -1.9562   -1.8485    4.7426 C   0  0  0  0  0  0  0  0  0  0  0  0
   -2.4977   -2.6526    5.2176 H   0  0  0  0  0  0  0  0  0  0  0  0
   -1.4350   -2.0010    3.4437 C   0  0  0  0  0  0  0  0  0  0  0  0
   -1.5752   -2.9334    2.9098 H   0  0  0  0  0  0  0  0  0  0  0  0
   -0.4504   -0.4442   -1.0268 C   0  0  0  0  0  0  0  0  0  0  0  0
    0.7270   -0.0981   -1.1275 O   0  0  0  0  0  0  0  0  0  0  0  0
   -1.1899   -0.7914   -2.0877 N   0  0  0  0  0  0  0  0  0  0  0  0
   -2.1635   -1.0059   -1.9275 H   0  0  0  0  0  0  0  0  0  0  0  0
   -0.7017   -0.8034   -3.4648 C   0  0  0  0  0  0  0  0  0  0  0  0
    0.2344   -1.3617   -3.5213 H   0  0  0  0  0  0  0  0  0  0  0  0
   -1.4386   -1.2697   -4.1208 H   0  0  0  0  0  0  0  0  0  0  0  0
   -0.5184    0.2201   -3.7984 H   0  0  0  0  0  0  0  0  0  0  0  0
  5  6  2  0  0  0  0
  5  7  1  0  0  0  0
  2  3  1  0  0  0  0
  2  4  1  0  0  0  0
  2  5  1  0  0  0  0
  1  2  1  0  0  0  0
 26 27  2  0  0  0  0
 26 28  1  0  0  0  0
 24 25  1  0  0  0  0
 22 23  1  0  0  0  0
 22 24  2  0  0  0  0
 20 21  1  0  0  0  0
 19 20  1  0  0  0  0
 19 22  1  0  0  0  0
 17 18  1  0  0  0  0
 17 19  2  0  0  0  0
 15 16  1  0  0  0  0
 15 17  1  0  0  0  0
 14 15  2  0  0  0  0
 14 24  1  0  0  0  0
 11 12  1  0  0  0  0
 11 13  1  0  0  0  0
 11 14  1  0  0  0  0
  9 10  1  0  0  0  0
  9 11  1  0  0  0  0
  9 26  1  0  0  0  0
  7  8  1  0  0  0  0
  7  9  1  0  0  0  0
 30 31  1  0  0  0  0
 30 32  1  0  0  0  0
 30 33  1  0  0  0  0
 28 29  1  0  0  0  0
 28 30  1  0  0  0  0
M  END
$$$$
default_name
  -OEChem-01062215323D

 33 33  0     1  0  0  0  0  0999 V2000
   -4.0702   -3.8485    1.4554 H   0  0  0  0  0  0  0  0  0  0  0  0
   -4.0012   -2.9605    0.8284 C   0  0  0  0  0  0  0  0  0  0  0  0
   -4.7652   -2.2435    1.1234 H   0  0  0  0  0  0  0  0  0  0  0  0
   -4.1352   -3.2385   -0.2156 H   0  0  0  0  0  0  0  0  0  0  0  0
   -2.6362   -2.3395    1.0094 C   0  0  0  0  0  0  0  0  0  0  0  0
   -1.8292   -2.8395    1.7814 O   0  0  0  0  0  0  0  0  0  0  0  0
   -2.3832   -1.2445    0.2964 N   0  0  0  0  0  0  0  0  0  0  0  0
   -3.1102   -0.8685   -0.2946 H   0  0  0  0  0  0  0  0  0  0  0  0
   -1.1292   -0.4875    0.3524 C   0  0  1  0  0  0  0  0  0  0  0  0
   -1.3564    0.5389    0.6431 H   0  0  0  0  0  0  0  0  0  0  0  0
   -0.2097   -1.1009    1.4225 C   0  0  0  0  0  0  0  0  0  0  0  0
   -0.0922   -2.1663    1.2202 H   0  0  0  0  0  0  0  0  0  0  0  0
    0.7776   -0.6426    1.3448 H   0  0  0  0  0  0  0  0  0  0  0  0
   -0.7255   -0.9449    2.8400 C   0  0  0  0  0  0  0  0  0  0  0  0
   -0.5365    0.2656    3.5366 C   0  0  0  0  0  0  0  0  0  0  0  0
    0.0016    1.0804    3.0700 H   0  0  0  0  0  0  0  0  0  0  0  0
   -1.0528    0.4197    4.8380 C   0  0  0  0  0  0  0  0  0  0  0  0
   -0.9049    1.3474    5.3690 H   0  0  0  0  0  0  0  0  0  0  0  0
   -1.7638   -0.6396    5.4430 C   0  0  0  0  0  0  0  0  0  0  0  0
   -2.2681   -0.4999    6.6965 O   0  0  0  0  0  0  0  0  0  0  0  0
   -2.0002    0.3249    7.1037 H   0  0  0  0  0  0  0  0  0  0  0  0
   -1.9562   -1.8485    4.7426 C   0  0  0  0  0  0  0  0  0  0  0  0
   -2.4977   -2.6526    5.2176 H   0  0  0  0  0  0  0  0  0  0  0  0
   -1.4350   -2.0010    3.4437 C   0  0  0  0  0  0  0  0  0  0  0  0
   -1.5752   -2.9334    2.9098 H   0  0  0  0  0  0  0  0  0  0  0  0
   -0.4504   -0.4442   -1.0268 C   0  0  0  0  0  0  0  0  0  0  0  0
    0.7758   -0.3710   -1.1120 O   0  0  0  0  0  0  0  0  0  0  0  0
   -1.2438   -0.4861   -2.1047 N   0  0  0  0  0  0  0  0  0  0  0  0
   -2.2415   -0.4862   -1.9496 H   0  0  0  0  0  0  0  0  0  0  0  0
   -0.7632   -0.4523   -3.4840 C   0  0  0  0  0  0  0  0  0  0  0  0
    0.0177   -1.2020   -3.6229 H   0  0  0  0  0  0  0  0  0  0  0  0
   -1.5842   -0.6565   -4.1732 H   0  0  0  0  0  0  0  0  0  0  0  0
   -0.3449    0.5323   -3.7032 H   0  0  0  0  0  0  0  0  0  0  0  0
  5  6  2  0  0  0  0
  5  7  1  0  0  0  0
  2  3  1  0  0  0  0
  2  4  1  0  0  0  0
  2  5  1  0  0  0  0
  1  2  1  0  0  0  0
 26 27  2  0  0  0  0
 26 28  1  0  0  0  0
 24 25  1  0  0  0  0
 22 23  1  0  0  0  0
 22 24  2  0  0  0  0
 20 21  1  0  0  0  0
 19 20  1  0  0  0  0
 19 22  1  0  0  0  0
 17 18  1  0  0  0  0
 17 19  2  0  0  0  0
 15 16  1  0  0  0  0
 15 17  1  0  0  0  0
 14 15  2  0  0  0  0
 14 24  1  0  0  0  0
 11 12  1  0  0  0  0
 11 13  1  0  0  0  0
 11 14  1  0  0  0  0
  9 10  1  0  0  0  0
  9 11  1  0  0  0  0
  9 26  1  0  0  0  0
  7  8  1  0  0  0  0
  7  9  1  0  0  0  0
 30 31  1  0  0  0  0
 30 32  1  0  0  0  0
 30 33  1  0  0  0  0
 28 29  1  0  0  0  0
 28 30  1  0  0  0  0
M  END
$$$$
default_name
  -OEChem-01062215323D

 33 33  0     1  0  0  0  0  0999 V2000
   -4.0702   -3.8485    1.4554 H   0  0  0  0  0  0  0  0  0  0  0  0
   -4.0012   -2.9605    0.8284 C   0  0  0  0  0  0  0  0  0  0  0  0
   -4.7652   -2.2435    1.1234 H   0  0  0  0  0  0  0  0  0  0  0  0
   -4.1352   -3.2385   -0.2156 H   0  0  0  0  0  0  0  0  0  0  0  0
   -2.6362   -2.3395    1.0094 C   0  0  0  0  0  0  0  0  0  0  0  0
   -1.8292   -2.8395    1.7814 O   0  0  0  0  0  0  0  0  0  0  0  0
   -2.3832   -1.2445    0.2964 N   0  0  0  0  0  0  0  0  0  0  0  0
   -3.1102   -0.8685   -0.2946 H   0  0  0  0  0  0  0  0  0  0  0  0
   -1.1292   -0.4875    0.3524 C   0  0  1  0  0  0  0  0  0  0  0  0
   -1.3564    0.5389    0.6431 H   0  0  0  0  0  0  0  0  0  0  0  0
   -0.2097   -1.1009    1.4225 C   0  0  0  0  0  0  0  0  0  0  0  0
   -0.0922   -2.1663    1.2202 H   0  0  0  0  0  0  0  0  0  0  0  0
    0.7776   -0.6426    1.3448 H   0  0  0  0  0  0  0  0  0  0  0  0
   -0.7255   -0.9449    2.8400 C   0  0  0  0  0  0  0  0  0  0  0  0
   -0.5365    0.2656    3.5366 C   0  0  0  0  0  0  0  0  0  0  0  0
    0.0016    1.0804    3.0700 H   0  0  0  0  0  0  0  0  0  0  0  0
   -1.0528    0.4197    4.8380 C   0  0  0  0  0  0  0  0  0  0  0  0
   -0.9049    1.3474    5.3690 H   0  0  0  0  0  0  0  0  0  0  0  0
   -1.7638   -0.6396    5.4430 C   0  0  0  0  0  0  0  0  0  0  0  0
   -2.2681   -0.4999    6.6965 O   0  0  0  0  0  0  0  0  0  0  0  0
   -2.0002    0.3249    7.1037 H   0  0  0  0  0  0  0  0  0  0  0  0
   -1.9562   -1.8485    4.7426 C   0  0  0  0  0  0  0  0  0  0  0  0
   -2.4977   -2.6526    5.2176 H   0  0  0  0  0  0  0  0  0  0  0  0
   -1.4350   -2.0010    3.4437 C   0  0  0  0  0  0  0  0  0  0  0  0
   -1.5752   -2.9334    2.9098 H   0  0  0  0  0  0  0  0  0  0  0  0
   -0.4504   -0.4442   -1.0268 C   0  0  0  0  0  0  0  0  0  0  0  0
    0.7597   -0.6478   -1.1286 O   0  0  0  0  0  0  0  0  0  0  0  0
   -1.2250   -0.1767   -2.0857 N   0  0  0  0  0  0  0  0  0  0  0  0
   -2.1964    0.0365   -1.9111 H   0  0  0  0  0  0  0  0  0  0  0  0
   -0.7412   -0.0967   -3.4621 C   0  0  0  0  0  0  0  0  0  0  0  0
   -0.1552   -0.9858   -3.7012 H   0  0  0  0  0  0  0  0  0  0  0  0
   -1.5829   -0.0244   -4.1528 H   0  0  0  0  0  0  0  0  0  0  0  0
   -0.1041    0.7827   -3.5768 H   0  0  0  0  0  0  0  0  0  0  0  0
  5  6  2  0  0  0  0
  5  7  1  0  0  0  0
  2  3  1  0  0  0  0
  2  4  1  0  0  0  0
  2  5  1  0  0  0  0
  1  2  1  0  0  0  0
 26 27  2  0  0  0  0
 26 28  1  0  0  0  0
 24 25  1  0  0  0  0
 22 23  1  0  0  0  0
 22 24  2  0  0  0  0
 20 21  1  0  0  0  0
 19 20  1  0  0  0  0
 19 22  1  0  0  0  0
 17 18  1  0  0  0  0
 17 19  2  0  0  0  0
 15 16  1  0  0  0  0
 15 17  1  0  0  0  0
 14 15  2  0  0  0  0
 14 24  1  0  0  0  0
 11 12  1  0  0  0  0
 11 13  1  0  0  0  0
 11 14  1  0  0  0  0
  9 10  1  0  0  0  0
  9 11  1  0  0  0  0
  9 26  1  0  0  0  0
  7  8  1  0  0  0  0
  7  9  1  0  0  0  0
 30 31  1  0  0  0  0
 30 32  1  0  0  0  0
 30 33  1  0  0  0  0
 28 29  1  0  0  0  0
 28 30  1  0  0  0  0
M  END
$$$$
default_name
  -OEChem-01062215323D

 33 33  0     1  0  0  0  0  0999 V2000
   -4.0702   -3.8485    1.4554 H   0  0  0  0  0  0  0  0  0  0  0  0
   -4.0012   -2.9605    0.8284 C   0  0  0  0  0  0  0  0  0  0  0  0
   -4.7652   -2.2435    1.1234 H   0  0  0  0  0  0  0  0  0  0  0  0
   -4.1352   -3.2385   -0.2156 H   0  0  0  0  0  0  0  0  0  0  0  0
   -2.6362   -2.3395    1.0094 C   0  0  0  0  0  0  0  0  0  0  0  0
   -1.8292   -2.8395    1.7814 O   0  0  0  0  0  0  0  0  0  0  0  0
   -2.3832   -1.2445    0.2964 N   0  0  0  0  0  0  0  0  0  0  0  0
   -3.1102   -0.8685   -0.2946 H   0  0  0  0  0  0  0  0  0  0  0  0
   -1.1292   -0.4875    0.3524 C   0  0  1  0  0  0  0  0  0  0  0  0
   -1.3564    0.5389    0.6431 H   0  0  0  0  0  0  0  0  0  0  0  0
   -0.2097   -1.1009    1.4225 C   0  0  0  0  0  0  0  0  0  0  0  0
   -0.0922   -2.1663    1.2202 H   0  0  0  0  0  0  0  0  0  0  0  0
    0.7776   -0.6426    1.3448 H   0  0  0  0  0  0  0  0  0  0  0  0
   -0.7255   -0.9449    2.8400 C   0  0  0  0  0  0  0  0  0  0  0  0
   -0.5365    0.2656    3.5366 C   0  0  0  0  0  0  0  0  0  0  0  0
    0.0016    1.0804    3.0700 H   0  0  0  0  0  0  0  0  0  0  0  0
   -1.0528    0.4197    4.8380 C   0  0  0  0  0  0  0  0  0  0  0  0
   -0.9049    1.3474    5.3690 H   0  0  0  0  0  0  0  0  0  0  0  0
   -1.7638   -0.6396    5.4430 C   0  0  0  0  0  0  0  0  0  0  0  0
   -2.2681   -0.4999    6.6965 O   0  0  0  0  0  0  0  0  0  0  0  0
   -2.0002    0.3249    7.1037 H   0  0  0  0  0  0  0  0  0  0  0  0
   -1.9562   -1.8485    4.7426 C   0  0  0  0  0  0  0  0  0  0  0  0
   -2.4977   -2.6526    5.2176 H   0  0  0  0  0  0  0  0  0  0  0  0
   -1.4350   -2.0010    3.4437 C   0  0  0  0  0  0  0  0  0  0  0  0
   -1.5752   -2.9334    2.9098 H   0  0  0  0  0  0  0  0  0  0  0  0
   -0.4504   -0.4442   -1.0268 C   0  0  0  0  0  0  0  0  0  0  0  0
    0.6798   -0.9096   -1.1762 O   0  0  0  0  0  0  0  0  0  0  0  0
   -1.1350    0.1155   -2.0323 N   0  0  0  0  0  0  0  0  0  0  0  0
   -2.0312    0.5264   -1.8144 H   0  0  0  0  0  0  0  0  0  0  0  0
   -0.6373    0.2392   -3.4004 C   0  0  0  0  0  0  0  0  0  0  0  0
   -0.2727   -0.7279   -3.7510 H   0  0  0  0  0  0  0  0  0  0  0  0
   -1.4348    0.5836   -4.0608 H   0  0  0  0  0  0  0  0  0  0  0  0
    0.1875    0.9542   -3.4279 H   0  0  0  0  0  0  0  0  0  0  0  0
  5  6  2  0  0  0  0
  5  7  1  0  0  0  0
  2  3  1  0  0  0  0
  2  4  1  0  0  0  0
  2  5  1  0  0  0  0
  1  2  1  0  0  0  0
 26 27  2  0  0  0  0
 26 28  1  0  0  0  0
 24 25  1  0  0  0  0
 22 23  1  0  0  0  0
 22 24  2  0  0  0  0
 20 21  1  0  0  0  0
 19 20  1  0  0  0  0
 19 22  1  0  0  0  0
 17 18  1  0  0  0  0
 17 19  2  0  0  0  0
 15 16  1  0  0  0  0
 15 17  1  0  0  0  0
 14 15  2  0  0  0  0
 14 24  1  0  0  0  0
 11 12  1  0  0  0  0
 11 13  1  0  0  0  0
 11 14  1  0  0  0  0
  9 10  1  0  0  0  0
  9 11  1  0  0  0  0
  9 26  1  0  0  0  0
  7  8  1  0  0  0  0
  7  9  1  0  0  0  0
 30 31  1  0  0  0  0
 30 32  1  0  0  0  0
 30 33  1  0  0  0  0
 28 29  1  0  0  0  0
 28 30  1  0  0  0  0
M  END
$$$$
default_name
  -OEChem-01062215323D

 33 33  0     1  0  0  0  0  0999 V2000
   -4.0702   -3.8485    1.4554 H   0  0  0  0  0  0  0  0  0  0  0  0
   -4.0012   -2.9605    0.8284 C   0  0  0  0  0  0  0  0  0  0  0  0
   -4.7652   -2.2435    1.1234 H   0  0  0  0  0  0  0  0  0  0  0  0
   -4.1352   -3.2385   -0.2156 H   0  0  0  0  0  0  0  0  0  0  0  0
   -2.6362   -2.3395    1.0094 C   0  0  0  0  0  0  0  0  0  0  0  0
   -1.8292   -2.8395    1.7814 O   0  0  0  0  0  0  0  0  0  0  0  0
   -2.3832   -1.2445    0.2964 N   0  0  0  0  0  0  0  0  0  0  0  0
   -3.1102   -0.8685   -0.2946 H   0  0  0  0  0  0  0  0  0  0  0  0
   -1.1292   -0.4875    0.3524 C   0  0  1  0  0  0  0  0  0  0  0  0
   -1.3564    0.5389    0.6431 H   0  0  0  0  0  0  0  0  0  0  0  0
   -0.2097   -1.1009    1.4225 C   0  0  0  0  0  0  0  0  0  0  0  0
   -0.0922   -2.1663    1.2202 H   0  0  0  0  0  0  0  0  0  0  0  0
    0.7776   -0.6426    1.3448 H   0  0  0  0  0  0  0  0  0  0  0  0
   -0.7255   -0.9449    2.8400 C   0  0  0  0  0  0  0  0  0  0  0  0
   -0.5365    0.2656    3.5366 C   0  0  0  0  0  0  0  0  0  0  0  0
    0.0016    1.0804    3.0700 H   0  0  0  0  0  0  0  0  0  0  0  0
   -1.0528    0.4197    4.8380 C   0  0  0  0  0  0  0  0  0  0  0  0
   -0.9049    1.3474    5.3690 H   0  0  0  0  0  0  0  0  0  0  0  0
   -1.7638   -0.6396    5.4430 C   0  0  0  0  0  0  0  0  0  0  0  0
   -2.2681   -0.4999    6.6965 O   0  0  0  0  0  0  0  0  0  0  0  0
   -2.0002    0.3249    7.1037 H   0  0  0  0  0  0  0  0  0  0  0  0
   -1.9562   -1.8485    4.7426 C   0  0  0  0  0  0  0  0  0  0  0  0
   -2.4977   -2.6526    5.2176 H   0  0  0  0  0  0  0  0  0  0  0  0
   -1.4350   -2.0010    3.4437 C   0  0  0  0  0  0  0  0  0  0  0  0
   -1.5752   -2.9334    2.9098 H   0  0  0  0  0  0  0  0  0  0  0  0
   -0.4504   -0.4442   -1.0268 C   0  0  0  0  0  0  0  0  0  0  0  0
    0.5415   -1.1384   -1.2514 O   0  0  0  0  0  0  0  0  0  0  0  0
   -0.9798    0.3709   -1.9479 N   0  0  0  0  0  0  0  0  0  0  0  0
   -1.7573    0.9503   -1.6662 H   0  0  0  0  0  0  0  0  0  0  0  0
   -0.4585    0.5325   -3.3032 C   0  0  0  0  0  0  0  0  0  0  0  0
   -0.3266   -0.4458   -3.7686 H   0  0  0  0  0  0  0  0  0  0  0  0
   -1.1500    1.1259   -3.9036 H   0  0  0  0  0  0  0  0  0  0  0  0
    0.5101    1.0352   -3.2666 H   0  0  0  0  0  0  0  0  0  0  0  0
  5  6  2  0  0  0  0
  5  7  1  0  0  0  0
  2  3  1  0  0  0  0
  2  4  1  0  0  0  0
  2  5  1  0  0  0  0
  1  2  1  0  0  0  0
 26 27  2  0  0  0  0
 26 28  1  0  0  0  0
 24 25  1  0  0  0  0
 22 23  1  0  0  0  0
 22 24  2  0  0  0  0
 20 21  1  0  0  0  0
 19 20  1  0  0  0  0
 19 22  1  0  0  0  0
 17 18  1  0  0  0  0
 17 19  2  0  0  0  0
 15 16  1  0  0  0  0
 15 17  1  0  0  0  0
 14 15  2  0  0  0  0
 14 24  1  0  0  0  0
 11 12  1  0  0  0  0
 11 13  1  0  0  0  0
 11 14  1  0  0  0  0
  9 10  1  0  0  0  0
  9 11  1  0  0  0  0
  9 26  1  0  0  0  0
  7  8  1  0  0  0  0
  7  9  1  0  0  0  0
 30 31  1  0  0  0  0
 30 32  1  0  0  0  0
 30 33  1  0  0  0  0
 28 29  1  0  0  0  0
 28 30  1  0  0  0  0
M  END
$$$$
default_name
  -OEChem-01062215323D

 33 33  0     1  0  0  0  0  0999 V2000
   -4.0702   -3.8485    1.4554 H   0  0  0  0  0  0  0  0  0  0  0  0
   -4.0012   -2.9605    0.8284 C   0  0  0  0  0  0  0  0  0  0  0  0
   -4.7652   -2.2435    1.1234 H   0  0  0  0  0  0  0  0  0  0  0  0
   -4.1352   -3.2385   -0.2156 H   0  0  0  0  0  0  0  0  0  0  0  0
   -2.6362   -2.3395    1.0094 C   0  0  0  0  0  0  0  0  0  0  0  0
   -1.8292   -2.8395    1.7814 O   0  0  0  0  0  0  0  0  0  0  0  0
   -2.3832   -1.2445    0.2964 N   0  0  0  0  0  0  0  0  0  0  0  0
   -3.1102   -0.8685   -0.2946 H   0  0  0  0  0  0  0  0  0  0  0  0
   -1.1292   -0.4875    0.3524 C   0  0  1  0  0  0  0  0  0  0  0  0
   -1.3564    0.5389    0.6431 H   0  0  0  0  0  0  0  0  0  0  0  0
   -0.2097   -1.1009    1.4225 C   0  0  0  0  0  0  0  0  0  0  0  0
   -0.0922   -2.1663    1.2202 H   0  0  0  0  0  0  0  0  0  0  0  0
    0.7776   -0.6426    1.3448 H   0  0  0  0  0  0  0  0  0  0  0  0
   -0.7255   -0.9449    2.8400 C   0  0  0  0  0  0  0  0  0  0  0  0
   -0.5365    0.2656    3.5366 C   0  0  0  0  0  0  0  0  0  0  0  0
    0.0016    1.0804    3.0700 H   0  0  0  0  0  0  0  0  0  0  0  0
   -1.0528    0.4197    4.8380 C   0  0  0  0  0  0  0  0  0  0  0  0
   -0.9049    1.3474    5.3690 H   0  0  0  0  0  0  0  0  0  0  0  0
   -1.7638   -0.6396    5.4430 C   0  0  0  0  0  0  0  0  0  0  0  0
   -2.2681   -0.4999    6.6965 O   0  0  0  0  0  0  0  0  0  0  0  0
   -2.0002    0.3249    7.1037 H   0  0  0  0  0  0  0  0  0  0  0  0
   -1.9562   -1.8485    4.7426 C   0  0  0  0  0  0  0  0  0  0  0  0
   -2.4977   -2.6526    5.2176 H   0  0  0  0  0  0  0  0  0  0  0  0
   -1.4350   -2.0010    3.4437 C   0  0  0  0  0  0  0  0  0  0  0  0
   -1.5752   -2.9334    2.9098 H   0  0  0  0  0  0  0  0  0  0  0  0
   -0.4504   -0.4442   -1.0268 C   0  0  0  0  0  0  0  0  0  0  0  0
    0.3542   -1.3187   -1.3492 O   0  0  0  0  0  0  0  0  0  0  0  0
   -0.7701    0.5718   -1.8383 N   0  0  0  0  0  0  0  0  0  0  0  0
   -1.3932    1.2793   -1.4767 H   0  0  0  0  0  0  0  0  0  0  0  0
   -0.2171    0.7632   -3.1771 C   0  0  0  0  0  0  0  0  0  0  0  0
   -0.3133   -0.1588   -3.7531 H   0  0  0  0  0  0  0  0  0  0  0  0
   -0.7478    1.5657   -3.6918 H   0  0  0  0  0  0  0  0  0  0  0  0
    0.8417    1.0201   -3.1039 H   0  0  0  0  0  0  0  0  0  0  0  0
  5  6  2  0  0  0  0
  5  7  1  0  0  0  0
  2  3  1  0  0  0  0
  2  4  1  0  0  0  0
  2  5  1  0  0  0  0
  1  2  1  0  0  0  0
 26 27  2  0  0  0  0
 26 28  1  0  0  0  0
 24 25  1  0  0  0  0
 22 23  1  0  0  0  0
 22 24  2  0  0  0  0
 20 21  1  0  0  0  0
 19 20  1  0  0  0  0
 19 22  1  0  0  0  0
 17 18  1  0  0  0  0
 17 19  2  0  0  0  0
 15 16  1  0  0  0  0
 15 17  1  0  0  0  0
 14 15  2  0  0  0  0
 14 24  1  0  0  0  0
 11 12  1  0  0  0  0
 11 13  1  0  0  0  0
 11 14  1  0  0  0  0
  9 10  1  0  0  0  0
  9 11  1  0  0  0  0
  9 26  1  0  0  0  0
  7  8  1  0  0  0  0
  7  9  1  0  0  0  0
 30 31  1  0  0  0  0
 30 32  1  0  0  0  0
 30 33  1  0  0  0  0
 28 29  1  0  0  0  0
 28 30  1  0  0  0  0
M  END
$$$$
default_name
  -OEChem-01062215323D

 33 33  0     1  0  0  0  0  0999 V2000
   -4.0702   -3.8485    1.4554 H   0  0  0  0  0  0  0  0  0  0  0  0
   -4.0012   -2.9605    0.8284 C   0  0  0  0  0  0  0  0  0  0  0  0
   -4.7652   -2.2435    1.1234 H   0  0  0  0  0  0  0  0  0  0  0  0
   -4.1352   -3.2385   -0.2156 H   0  0  0  0  0  0  0  0  0  0  0  0
   -2.6362   -2.3395    1.0094 C   0  0  0  0  0  0  0  0  0  0  0  0
   -1.8292   -2.8395    1.7814 O   0  0  0  0  0  0  0  0  0  0  0  0
   -2.3832   -1.2445    0.2964 N   0  0  0  0  0  0  0  0  0  0  0  0
   -3.1102   -0.8685   -0.2946 H   0  0  0  0  0  0  0  0  0  0  0  0
   -1.1292   -0.4875    0.3524 C   0  0  1  0  0  0  0  0  0  0  0  0
   -1.3564    0.5389    0.6431 H   0  0  0  0  0  0  0  0  0  0  0  0
   -0.2097   -1.1009    1.4225 C   0  0  0  0  0  0  0  0  0  0  0  0
   -0.0922   -2.1663    1.2202 H   0  0  0  0  0  0  0  0  0  0  0  0
    0.7776   -0.6426    1.3448 H   0  0  0  0  0  0  0  0  0  0  0  0
   -0.7255   -0.9449    2.8400 C   0  0  0  0  0  0  0  0  0  0  0  0
   -0.5365    0.2656    3.5366 C   0  0  0  0  0  0  0  0  0  0  0  0
    0.0016    1.0804    3.0700 H   0  0  0  0  0  0  0  0  0  0  0  0
   -1.0528    0.4197    4.8380 C   0  0  0  0  0  0  0  0  0  0  0  0
   -0.9049    1.3474    5.3690 H   0  0  0  0  0  0  0  0  0  0  0  0
   -1.7638   -0.6396    5.4430 C   0  0  0  0  0  0  0  0  0  0  0  0
   -2.2681   -0.4999    6.6965 O   0  0  0  0  0  0  0  0  0  0  0  0
   -2.0002    0.3249    7.1037 H   0  0  0  0  0  0  0  0  0  0  0  0
   -1.9562   -1.8485    4.7426 C   0  0  0  0  0  0  0  0  0  0  0  0
   -2.4977   -2.6526    5.2176 H   0  0  0  0  0  0  0  0  0  0  0  0
   -1.4350   -2.0010    3.4437 C   0  0  0  0  0  0  0  0  0  0  0  0
   -1.5752   -2.9334    2.9098 H   0  0  0  0  0  0  0  0  0  0  0  0
   -0.4504   -0.4442   -1.0268 C   0  0  0  0  0  0  0  0  0  0  0  0
    0.1308   -1.4382   -1.4630 O   0  0  0  0  0  0  0  0  0  0  0  0
   -0.5200    0.7047   -1.7111 N   0  0  0  0  0  0  0  0  0  0  0  0
   -0.9637    1.4908   -1.2587 H   0  0  0  0  0  0  0  0  0  0  0  0
    0.0706    0.9155   -3.0307 C   0  0  0  0  0  0  0  0  0  0  0  0
   -0.2338    0.1136   -3.7054 H   0  0  0  0  0  0  0  0  0  0  0  0
   -0.2557    1.8730   -3.4400 H   0  0  0  0  0  0  0  0  0  0  0  0
    1.1597    0.9100   -2.9508 H   0  0  0  0  0  0  0  0  0  0  0  0
  5  6  2  0  0  0  0
  5  7  1  0  0  0  0
  2  3  1  0  0  0  0
  2  4  1  0  0  0  0
  2  5  1  0  0  0  0
  1  2  1  0  0  0  0
 26 27  2  0  0  0  0
 26 28  1  0  0  0  0
 24 25  1  0  0  0  0
 22 23  1  0  0  0  0
 22 24  2  0  0  0  0
 20 21  1  0  0  0  0
 19 20  1  0  0  0  0
 19 22  1  0  0  0  0
 17 18  1  0  0  0  0
 17 19  2  0  0  0  0
 15 16  1  0  0  0  0
 15 17  1  0  0  0  0
 14 15  2  0  0  0  0
 14 24  1  0  0  0  0
 11 12  1  0  0  0  0
 11 13  1  0  0  0  0
 11 14  1  0  0  0  0
  9 10  1  0  0  0  0
  9 11  1  0  0  0  0
  9 26  1  0  0  0  0
  7  8  1  0  0  0  0
  7  9  1  0  0  0  0
 30 31  1  0  0  0  0
 30 32  1  0  0  0  0
 30 33  1  0  0  0  0
 28 29  1  0  0  0  0
 28 30  1  0  0  0  0
M  END
$$$$
default_name
  -OEChem-01062215323D

 33 33  0     1  0  0  0  0  0999 V2000
   -4.0702   -3.8485    1.4554 H   0  0  0  0  0  0  0  0  0  0  0  0
   -4.0012   -2.9605    0.8284 C   0  0  0  0  0  0  0  0  0  0  0  0
   -4.7652   -2.2435    1.1234 H   0  0  0  0  0  0  0  0  0  0  0  0
   -4.1352   -3.2385   -0.2156 H   0  0  0  0  0  0  0  0  0  0  0  0
   -2.6362   -2.3395    1.0094 C   0  0  0  0  0  0  0  0  0  0  0  0
   -1.8292   -2.8395    1.7814 O   0  0  0  0  0  0  0  0  0  0  0  0
   -2.3832   -1.2445    0.2964 N   0  0  0  0  0  0  0  0  0  0  0  0
   -3.1102   -0.8685   -0.2946 H   0  0  0  0  0  0  0  0  0  0  0  0
   -1.1292   -0.4875    0.3524 C   0  0  1  0  0  0  0  0  0  0  0  0
   -1.3564    0.5389    0.6431 H   0  0  0  0  0  0  0  0  0  0  0  0
   -0.2097   -1.1009    1.4225 C   0  0  0  0  0  0  0  0  0  0  0  0
   -0.0922   -2.1663    1.2202 H   0  0  0  0  0  0  0  0  0  0  0  0
    0.7776   -0.6426    1.3448 H   0  0  0  0  0  0  0  0  0  0  0  0
   -0.7255   -0.9449    2.8400 C   0  0  0  0  0  0  0  0  0  0  0  0
   -0.5365    0.2656    3.5366 C   0  0  0  0  0  0  0  0  0  0  0  0
    0.0016    1.0804    3.0700 H   0  0  0  0  0  0  0  0  0  0  0  0
   -1.0528    0.4197    4.8380 C   0  0  0  0  0  0  0  0  0  0  0  0
   -0.9049    1.3474    5.3690 H   0  0  0  0  0  0  0  0  0  0  0  0
   -1.7638   -0.6396    5.4430 C   0  0  0  0  0  0  0  0  0  0  0  0
   -2.2681   -0.4999    6.6965 O   0  0  0  0  0  0  0  0  0  0  0  0
   -2.0002    0.3249    7.1037 H   0  0  0  0  0  0  0  0  0  0  0  0
   -1.9562   -1.8485    4.7426 C   0  0  0  0  0  0  0  0  0  0  0  0
   -2.4977   -2.6526    5.2176 H   0  0  0  0  0  0  0  0  0  0  0  0
   -1.4350   -2.0010    3.4437 C   0  0  0  0  0  0  0  0  0  0  0  0
   -1.5752   -2.9334    2.9098 H   0  0  0  0  0  0  0  0  0  0  0  0
   -0.4504   -0.4442   -1.0268 C   0  0  0  0  0  0  0  0  0  0  0  0
   -0.1136   -1.4888   -1.5848 O   0  0  0  0  0  0  0  0  0  0  0  0
   -0.2467    0.7605   -1.5748 N   0  0  0  0  0  0  0  0  0  0  0  0
   -0.4982    1.5706   -1.0271 H   0  0  0  0  0  0  0  0  0  0  0  0
    0.3850    0.9792   -2.8740 C   0  0  0  0  0  0  0  0  0  0  0  0
   -0.0934    0.3527   -3.6288 H   0  0  0  0  0  0  0  0  0  0  0  0
    0.2928    2.0268   -3.1652 H   0  0  0  0  0  0  0  0  0  0  0  0
    1.4423    0.7123   -2.8179 H   0  0  0  0  0  0  0  0  0  0  0  0
  5  6  2  0  0  0  0
  5  7  1  0  0  0  0
  2  3  1  0  0  0  0
  2  4  1  0  0  0  0
  2  5  1  0  0  0  0
  1  2  1  0  0  0  0
 26 27  2  0  0  0  0
 26 28  1  0  0  0  0
 24 25  1  0  0  0  0
 22 23  1  0  0  0  0
 22 24  2  0  0  0  0
 20 21  1  0  0  0  0
 19 20  1  0  0  0  0
 19 22  1  0  0  0  0
 17 18  1  0  0  0  0
 17 19  2  0  0  0  0
 15 16  1  0  0  0  0
 15 17  1  0  0  0  0
 14 15  2  0  0  0  0
 14 24  1  0  0  0  0
 11 12  1  0  0  0  0
 11 13  1  0  0  0  0
 11 14  1  0  0  0  0
  9 10  1  0  0  0  0
  9 11  1  0  0  0  0
  9 26  1  0  0  0  0
  7  8  1  0  0  0  0
  7  9  1  0  0  0  0
 30 31  1  0  0  0  0
 30 32  1  0  0  0  0
 30 33  1  0  0  0  0
 28 29  1  0  0  0  0
 28 30  1  0  0  0  0
M  END
$$$$
default_name
  -OEChem-01062215323D

 33 33  0     1  0  0  0  0  0999 V2000
   -4.0702   -3.8485    1.4554 H   0  0  0  0  0  0  0  0  0  0  0  0
   -4.0012   -2.9605    0.8284 C   0  0  0  0  0  0  0  0  0  0  0  0
   -4.7652   -2.2435    1.1234 H   0  0  0  0  0  0  0  0  0  0  0  0
   -4.1352   -3.2385   -0.2156 H   0  0  0  0  0  0  0  0  0  0  0  0
   -2.6362   -2.3395    1.0094 C   0  0  0  0  0  0  0  0  0  0  0  0
   -1.8292   -2.8395    1.7814 O   0  0  0  0  0  0  0  0  0  0  0  0
   -2.3832   -1.2445    0.2964 N   0  0  0  0  0  0  0  0  0  0  0  0
   -3.1102   -0.8685   -0.2946 H   0  0  0  0  0  0  0  0  0  0  0  0
   -1.1292   -0.4875    0.3524 C   0  0  1  0  0  0  0  0  0  0  0  0
   -1.3564    0.5389    0.6431 H   0  0  0  0  0  0  0  0  0  0  0  0
   -0.2097   -1.1009    1.4225 C   0  0  0  0  0  0  0  0  0  0  0  0
   -0.0922   -2.1663    1.2202 H   0  0  0  0  0  0  0  0  0  0  0  0
    0.7776   -0.6426    1.3448 H   0  0  0  0  0  0  0  0  0  0  0  0
   -0.7255   -0.9449    2.8400 C   0  0  0  0  0  0  0  0  0  0  0  0
   -0.5365    0.2656    3.5366 C   0  0  0  0  0  0  0  0  0  0  0  0
    0.0016    1.0804    3.0700 H   0  0  0  0  0  0  0  0  0  0  0  0
   -1.0528    0.4197    4.8380 C   0  0  0  0  0  0  0  0  0  0  0  0
   -0.9049    1.3474    5.3690 H   0  0  0  0  0  0  0  0  0  0  0  0
   -1.7638   -0.6396    5.4430 C   0  0  0  0  0  0  0  0  0  0  0  0
   -2.2681   -0.4999    6.6965 O   0  0  0  0  0  0  0  0  0  0  0  0
   -2.0002    0.3249    7.1037 H   0  0  0  0  0  0  0  0  0  0  0  0
   -1.9562   -1.8485    4.7426 C   0  0  0  0  0  0  0  0  0  0  0  0
   -2.4977   -2.6526    5.2176 H   0  0  0  0  0  0  0  0  0  0  0  0
   -1.4350   -2.0010    3.4437 C   0  0  0  0  0  0  0  0  0  0  0  0
   -1.5752   -2.9334    2.9098 H   0  0  0  0  0  0  0  0  0  0  0  0
   -0.4504   -0.4442   -1.0268 C   0  0  0  0  0  0  0  0  0  0  0  0
   -0.3623   -1.4671   -1.7066 O   0  0  0  0  0  0  0  0  0  0  0  0
    0.0313    0.7353   -1.4387 N   0  0  0  0  0  0  0  0  0  0  0  0
   -0.0284    1.5131   -0.7976 H   0  0  0  0  0  0  0  0  0  0  0  0
    0.7045    0.9498   -2.7176 C   0  0  0  0  0  0  0  0  0  0  0  0
    0.0983    0.5424   -3.5285 H   0  0  0  0  0  0  0  0  0  0  0  0
    0.8603    2.0166   -2.8862 H   0  0  0  0  0  0  0  0  0  0  0  0
    1.6705    0.4405   -2.7141 H   0  0  0  0  0  0  0  0  0  0  0  0
  5  6  2  0  0  0  0
  5  7  1  0  0  0  0
  2  3  1  0  0  0  0
  2  4  1  0  0  0  0
  2  5  1  0  0  0  0
  1  2  1  0  0  0  0
 26 27  2  0  0  0  0
 26 28  1  0  0  0  0
 24 25  1  0  0  0  0
 22 23  1  0  0  0  0
 22 24  2  0  0  0  0
 20 21  1  0  0  0  0
 19 20  1  0  0  0  0
 19 22  1  0  0  0  0
 17 18  1  0  0  0  0
 17 19  2  0  0  0  0
 15 16  1  0  0  0  0
 15 17  1  0  0  0  0
 14 15  2  0  0  0  0
 14 24  1  0  0  0  0
 11 12  1  0  0  0  0
 11 13  1  0  0  0  0
 11 14  1  0  0  0  0
  9 10  1  0  0  0  0
  9 11  1  0  0  0  0
  9 26  1  0  0  0  0
  7  8  1  0  0  0  0
  7  9  1  0  0  0  0
 30 31  1  0  0  0  0
 30 32  1  0  0  0  0
 30 33  1  0  0  0  0
 28 29  1  0  0  0  0
 28 30  1  0  0  0  0
M  END
$$$$
default_name
  -OEChem-01062215323D

 33 33  0     1  0  0  0  0  0999 V2000
   -4.0702   -3.8485    1.4554 H   0  0  0  0  0  0  0  0  0  0  0  0
   -4.0012   -2.9605    0.8284 C   0  0  0  0  0  0  0  0  0  0  0  0
   -4.7652   -2.2435    1.1234 H   0  0  0  0  0  0  0  0  0  0  0  0
   -4.1352   -3.2385   -0.2156 H   0  0  0  0  0  0  0  0  0  0  0  0
   -2.6362   -2.3395    1.0094 C   0  0  0  0  0  0  0  0  0  0  0  0
   -1.8292   -2.8395    1.7814 O   0  0  0  0  0  0  0  0  0  0  0  0
   -2.3832   -1.2445    0.2964 N   0  0  0  0  0  0  0  0  0  0  0  0
   -3.1102   -0.8685   -0.2946 H   0  0  0  0  0  0  0  0  0  0  0  0
   -1.1292   -0.4875    0.3524 C   0  0  1  0  0  0  0  0  0  0  0  0
   -1.3564    0.5389    0.6431 H   0  0  0  0  0  0  0  0  0  0  0  0
   -0.2097   -1.1009    1.4225 C   0  0  0  0  0  0  0  0  0  0  0  0
   -0.0922   -2.1663    1.2202 H   0  0  0  0  0  0  0  0  0  0  0  0
    0.7776   -0.6426    1.3448 H   0  0  0  0  0  0  0  0  0  0  0  0
   -0.7255   -0.9449    2.8400 C   0  0  0  0  0  0  0  0  0  0  0  0
   -0.5365    0.2656    3.5366 C   0  0  0  0  0  0  0  0  0  0  0  0
    0.0016    1.0804    3.0700 H   0  0  0  0  0  0  0  0  0  0  0  0
   -1.0528    0.4197    4.8380 C   0  0  0  0  0  0  0  0  0  0  0  0
   -0.9049    1.3474    5.3690 H   0  0  0  0  0  0  0  0  0  0  0  0
   -1.7638   -0.6396    5.4430 C   0  0  0  0  0  0  0  0  0  0  0  0
   -2.2681   -0.4999    6.6965 O   0  0  0  0  0  0  0  0  0  0  0  0
   -2.0002    0.3249    7.1037 H   0  0  0  0  0  0  0  0  0  0  0  0
   -1.9562   -1.8485    4.7426 C   0  0  0  0  0  0  0  0  0  0  0  0
   -2.4977   -2.6526    5.2176 H   0  0  0  0  0  0  0  0  0  0  0  0
   -1.4350   -2.0010    3.4437 C   0  0  0  0  0  0  0  0  0  0  0  0
   -1.5752   -2.9334    2.9098 H   0  0  0  0  0  0  0  0  0  0  0  0
   -0.4504   -0.4442   -1.0268 C   0  0  0  0  0  0  0  0  0  0  0  0
   -0.5984   -1.3744   -1.8198 O   0  0  0  0  0  0  0  0  0  0  0  0
    0.2949    0.6310   -1.3123 N   0  0  0  0  0  0  0  0  0  0  0  0
    0.4138    1.3223   -0.5860 H   0  0  0  0  0  0  0  0  0  0  0  0
    1.0075    0.8294   -2.5723 C   0  0  0  0  0  0  0  0  0  0  0  0
    0.3282    0.6697   -3.4114 H   0  0  0  0  0  0  0  0  0  0  0  0
    1.4081    1.8432   -2.6219 H   0  0  0  0  0  0  0  0  0  0  0  0
    1.8285    0.1133   -2.6466 H   0  0  0  0  0  0  0  0  0  0  0  0
  5  6  2  0  0  0  0
  5  7  1  0  0  0  0
  2  3  1  0  0  0  0
  2  4  1  0  0  0  0
  2  5  1  0  0  0  0
  1  2  1  0  0  0  0
 26 27  2  0  0  0  0
 26 28  1  0  0  0  0
 24 25  1  0  0  0  0
 22 23  1  0  0  0  0
 22 24  2  0  0  0  0
 20 21  1  0  0  0  0
 19 20  1  0  0  0  0
 19 22  1  0  0  0  0
 17 18  1  0  0  0  0
 17 19  2  0  0  0  0
 15 16  1  0  0  0  0
 15 17  1  0  0  0  0
 14 15  2  0  0  0  0
 14 24  1  0  0  0  0
 11 12  1  0  0  0  0
 11 13  1  0  0  0  0
 11 14  1  0  0  0  0
  9 10  1  0  0  0  0
  9 11  1  0  0  0  0
  9 26  1  0  0  0  0
  7  8  1  0  0  0  0
  7  9  1  0  0  0  0
 30 31  1  0  0  0  0
 30 32  1  0  0  0  0
 30 33  1  0  0  0  0
 28 29  1  0  0  0  0
 28 30  1  0  0  0  0
M  END
$$$$
default_name
  -OEChem-01062215323D

 33 33  0     1  0  0  0  0  0999 V2000
   -4.0702   -3.8485    1.4554 H   0  0  0  0  0  0  0  0  0  0  0  0
   -4.0012   -2.9605    0.8284 C   0  0  0  0  0  0  0  0  0  0  0  0
   -4.7652   -2.2435    1.1234 H   0  0  0  0  0  0  0  0  0  0  0  0
   -4.1352   -3.2385   -0.2156 H   0  0  0  0  0  0  0  0  0  0  0  0
   -2.6362   -2.3395    1.0094 C   0  0  0  0  0  0  0  0  0  0  0  0
   -1.8292   -2.8395    1.7814 O   0  0  0  0  0  0  0  0  0  0  0  0
   -2.3832   -1.2445    0.2964 N   0  0  0  0  0  0  0  0  0  0  0  0
   -3.1102   -0.8685   -0.2946 H   0  0  0  0  0  0  0  0  0  0  0  0
   -1.1292   -0.4875    0.3524 C   0  0  1  0  0  0  0  0  0  0  0  0
   -1.3564    0.5389    0.6431 H   0  0  0  0  0  0  0  0  0  0  0  0
   -0.2097   -1.1009    1.4225 C   0  0  0  0  0  0  0  0  0  0  0  0
   -0.0922   -2.1663    1.2202 H   0  0  0  0  0  0  0  0  0  0  0  0
    0.7776   -0.6426    1.3448 H   0  0  0  0  0  0  0  0  0  0  0  0
   -0.7255   -0.9449    2.8400 C   0  0  0  0  0  0  0  0  0  0  0  0
   -0.5365    0.2656    3.5366 C   0  0  0  0  0  0  0  0  0  0  0  0
    0.0016    1.0804    3.0700 H   0  0  0  0  0  0  0  0  0  0  0  0
   -1.0528    0.4197    4.8380 C   0  0  0  0  0  0  0  0  0  0  0  0
   -0.9049    1.3474    5.3690 H   0  0  0  0  0  0  0  0  0  0  0  0
   -1.7638   -0.6396    5.4430 C   0  0  0  0  0  0  0  0  0  0  0  0
   -2.2681   -0.4999    6.6965 O   0  0  0  0  0  0  0  0  0  0  0  0
   -2.0002    0.3249    7.1037 H   0  0  0  0  0  0  0  0  0  0  0  0
   -1.9562   -1.8485    4.7426 C   0  0  0  0  0  0  0  0  0  0  0  0
   -2.4977   -2.6526    5.2176 H   0  0  0  0  0  0  0  0  0  0  0  0
   -1.4350   -2.0010    3.4437 C   0  0  0  0  0  0  0  0  0  0  0  0
   -1.5752   -2.9334    2.9098 H   0  0  0  0  0  0  0  0  0  0  0  0
   -0.4504   -0.4442   -1.0268 C   0  0  0  0  0  0  0  0  0  0  0  0
   -0.8057   -1.2172   -1.9170 O   0  0  0  0  0  0  0  0  0  0  0  0
    0.5263    0.4546   -1.2039 N   0  0  0  0  0  0  0  0  0  0  0  0
    0.7981    1.0112   -0.4065 H   0  0  0  0  0  0  0  0  0  0  0  0
    1.2733    0.6261   -2.4478 C   0  0  0  0  0  0  0  0  0  0  0  0
    0.5807    0.7259   -3.2853 H   0  0  0  0  0  0  0  0  0  0  0  0
    1.8989    1.5183   -2.3905 H   0  0  0  0  0  0  0  0  0  0  0  0
    1.9057   -0.2473   -2.6199 H   0  0  0  0  0  0  0  0  0  0  0  0
  5  6  2  0  0  0  0
  5  7  1  0  0  0  0
  2  3  1  0  0  0  0
  2  4  1  0  0  0  0
  2  5  1  0  0  0  0
  1  2  1  0  0  0  0
 26 27  2  0  0  0  0
 26 28  1  0  0  0  0
 24 25  1  0  0  0  0
 22 23  1  0  0  0  0
 22 24  2  0  0  0  0
 20 21  1  0  0  0  0
 19 20  1  0  0  0  0
 19 22  1  0  0  0  0
 17 18  1  0  0  0  0
 17 19  2  0  0  0  0
 15 16  1  0  0  0  0
 15 17  1  0  0  0  0
 14 15  2  0  0  0  0
 14 24  1  0  0  0  0
 11 12  1  0  0  0  0
 11 13  1  0  0  0  0
 11 14  1  0  0  0  0
  9 10  1  0  0  0  0
  9 11  1  0  0  0  0
  9 26  1  0  0  0  0
  7  8  1  0  0  0  0
  7  9  1  0  0  0  0
 30 31  1  0  0  0  0
 30 32  1  0  0  0  0
 30 33  1  0  0  0  0
 28 29  1  0  0  0  0
 28 30  1  0  0  0  0
M  END
$$$$
default_name
  -OEChem-01062215323D

 33 33  0     1  0  0  0  0  0999 V2000
   -4.0702   -3.8485    1.4554 H   0  0  0  0  0  0  0  0  0  0  0  0
   -4.0012   -2.9605    0.8284 C   0  0  0  0  0  0  0  0  0  0  0  0
   -4.7652   -2.2435    1.1234 H   0  0  0  0  0  0  0  0  0  0  0  0
   -4.1352   -3.2385   -0.2156 H   0  0  0  0  0  0  0  0  0  0  0  0
   -2.6362   -2.3395    1.0094 C   0  0  0  0  0  0  0  0  0  0  0  0
   -1.8292   -2.8395    1.7814 O   0  0  0  0  0  0  0  0  0  0  0  0
   -2.3832   -1.2445    0.2964 N   0  0  0  0  0  0  0  0  0  0  0  0
   -3.1102   -0.8685   -0.2946 H   0  0  0  0  0  0  0  0  0  0  0  0
   -1.1292   -0.4875    0.3524 C   0  0  1  0  0  0  0  0  0  0  0  0
   -1.3098    0.4434    0.8912 H   0  0  0  0  0  0  0  0  0  0  0  0
   -0.0771   -1.2988    1.1279 C   0  0  0  0  0  0  0  0  0  0  0  0
    0.0066   -2.2900    0.6804 H   0  0  0  0  0  0  0  0  0  0  0  0
    0.8931   -0.8103    1.0238 H   0  0  0  0  0  0  0  0  0  0  0  0
   -0.3963   -1.4725    2.6003 C   0  0  0  0  0  0  0  0  0  0  0  0
   -0.1089   -0.4413    3.5169 C   0  0  0  0  0  0  0  0  0  0  0  0
    0.3656    0.4695    3.1758 H   0  0  0  0  0  0  0  0  0  0  0  0
   -0.4443   -0.5912    4.8767 C   0  0  0  0  0  0  0  0  0  0  0  0
   -0.2213    0.1998    5.5761 H   0  0  0  0  0  0  0  0  0  0  0  0
   -1.0727   -1.7753    5.3201 C   0  0  0  0  0  0  0  0  0  0  0  0
   -1.4028   -1.9284    6.6288 O   0  0  0  0  0  0  0  0  0  0  0  0
   -1.0781   -1.2074    7.1698 H   0  0  0  0  0  0  0  0  0  0  0  0
   -1.3640   -2.8042    4.4006 C   0  0  0  0  0  0  0  0  0  0  0  0
   -1.8407   -3.7066    4.7525 H   0  0  0  0  0  0  0  0  0  0  0  0
   -1.0233   -2.6532    3.0429 C   0  0  0  0  0  0  0  0  0  0  0  0
   -1.2390   -3.4479    2.3387 H   0  0  0  0  0  0  0  0  0  0  0  0
   -0.6423   -0.1239   -1.0602 C   0  0  0  0  0  0  0  0  0  0  0  0
   -1.2902   -0.4718   -2.0478 O   0  0  0  0  0  0  0  0  0  0  0  0
    0.4978    0.5715   -1.1580 N   0  0  0  0  0  0  0  0  0  0  0  0
    0.9996    0.7670   -0.3039 H   0  0  0  0  0  0  0  0  0  0  0  0
    1.0996    0.9952   -2.4202 C   0  0  0  0  0  0  0  0  0  0  0  0
    0.3534    1.5015   -3.0351 H   0  0  0  0  0  0  0  0  0  0  0  0
    1.9310    1.6760   -2.2305 H   0  0  0  0  0  0  0  0  0  0  0  0
    1.4657    0.1218   -2.9640 H   0  0  0  0  0  0  0  0  0  0  0  0
  5  6  2  0  0  0  0
  5  7  1  0  0  0  0
  2  3  1  0  0  0  0
  2  4  1  0  0  0  0
  2  5  1  0  0  0  0
  1  2  1  0  0  0  0
 26 27  2  0  0  0  0
 26 28  1  0  0  0  0
 24 25  1  0  0  0  0
 22 23  1  0  0  0  0
 22 24  2  0  0  0  0
 20 21  1  0  0  0  0
 19 20  1  0  0  0  0
 19 22  1  0  0  0  0
 17 18  1  0  0  0  0
 17 19  2  0  0  0  0
 15 16  1  0  0  0  0
 15 17  1  0  0  0  0
 14 15  2  0  0  0  0
 14 24  1  0  0  0  0
 11 12  1  0  0  0  0
 11 13  1  0  0  0  0
 11 14  1  0  0  0  0
  9 10  1  0  0  0  0
  9 11  1  0  0  0  0
  9 26  1  0  0  0  0
  7  8  1  0  0  0  0
  7  9  1  0  0  0  0
 30 31  1  0  0  0  0
 30 32  1  0  0  0  0
 30 33  1  0  0  0  0
 28 29  1  0  0  0  0
 28 30  1  0  0  0  0
M  END
$$$$
default_name
  -OEChem-01062215323D

 33 33  0     1  0  0  0  0  0999 V2000
   -4.0702   -3.8485    1.4554 H   0  0  0  0  0  0  0  0  0  0  0  0
   -4.0012   -2.9605    0.8284 C   0  0  0  0  0  0  0  0  0  0  0  0
   -4.7652   -2.2435    1.1234 H   0  0  0  0  0  0  0  0  0  0  0  0
   -4.1352   -3.2385   -0.2156 H   0  0  0  0  0  0  0  0  0  0  0  0
   -2.6362   -2.3395    1.0094 C   0  0  0  0  0  0  0  0  0  0  0  0
   -1.8292   -2.8395    1.7814 O   0  0  0  0  0  0  0  0  0  0  0  0
   -2.3832   -1.2445    0.2964 N   0  0  0  0  0  0  0  0  0  0  0  0
   -3.1102   -0.8685   -0.2946 H   0  0  0  0  0  0  0  0  0  0  0  0
   -1.1292   -0.4875    0.3524 C   0  0  1  0  0  0  0  0  0  0  0  0
   -1.3098    0.4434    0.8912 H   0  0  0  0  0  0  0  0  0  0  0  0
   -0.0771   -1.2988    1.1279 C   0  0  0  0  0  0  0  0  0  0  0  0
    0.0066   -2.2900    0.6804 H   0  0  0  0  0  0  0  0  0  0  0  0
    0.8931   -0.8103    1.0238 H   0  0  0  0  0  0  0  0  0  0  0  0
   -0.3963   -1.4725    2.6003 C   0  0  0  0  0  0  0  0  0  0  0  0
   -0.1089   -0.4413    3.5169 C   0  0  0  0  0  0  0  0  0  0  0  0
    0.3656    0.4695    3.1758 H   0  0  0  0  0  0  0  0  0  0  0  0
   -0.4443   -0.5912    4.8767 C   0  0  0  0  0  0  0  0  0  0  0  0
   -0.2213    0.1998    5.5761 H   0  0  0  0  0  0  0  0  0  0  0  0
   -1.0727   -1.7753    5.3201 C   0  0  0  0  0  0  0  0  0  0  0  0
   -1.4028   -1.9284    6.6288 O   0  0  0  0  0  0  0  0  0  0  0  0
   -1.0781   -1.2074    7.1698 H   0  0  0  0  0  0  0  0  0  0  0  0
   -1.3640   -2.8042    4.4006 C   0  0  0  0  0  0  0  0  0  0  0  0
   -1.8407   -3.7066    4.7525 H   0  0  0  0  0  0  0  0  0  0  0  0
   -1.0233   -2.6532    3.0429 C   0  0  0  0  0  0  0  0  0  0  0  0
   -1.2390   -3.4479    2.3387 H   0  0  0  0  0  0  0  0  0  0  0  0
   -0.6423   -0.1239   -1.0602 C   0  0  0  0  0  0  0  0  0  0  0  0
   -1.4045   -0.2199   -2.0224 O   0  0  0  0  0  0  0  0  0  0  0  0
    0.6250    0.2898   -1.1867 N   0  0  0  0  0  0  0  0  0  0  0  0
    1.2022    0.2846   -0.3582 H   0  0  0  0  0  0  0  0  0  0  0  0
    1.2454    0.6710   -2.4534 C   0  0  0  0  0  0  0  0  0  0  0  0
    0.6122    1.3915   -2.9741 H   0  0  0  0  0  0  0  0  0  0  0  0
    2.2246    1.1175   -2.2730 H   0  0  0  0  0  0  0  0  0  0  0  0
    1.3625   -0.2117   -3.0854 H   0  0  0  0  0  0  0  0  0  0  0  0
  5  6  2  0  0  0  0
  5  7  1  0  0  0  0
  2  3  1  0  0  0  0
  2  4  1  0  0  0  0
  2  5  1  0  0  0  0
  1  2  1  0  0  0  0
 26 27  2  0  0  0  0
 26 28  1  0  0  0  0
 24 25  1  0  0  0  0
 22 23  1  0  0  0  0
 22 24  2  0  0  0  0
 20 21  1  0  0  0  0
 19 20  1  0  0  0  0
 19 22  1  0  0  0  0
 17 18  1  0  0  0  0
 17 19  2  0  0  0  0
 15 16  1  0  0  0  0
 15 17  1  0  0  0  0
 14 15  2  0  0  0  0
 14 24  1  0  0  0  0
 11 12  1  0  0  0  0
 11 13  1  0  0  0  0
 11 14  1  0  0  0  0
  9 10  1  0  0  0  0
  9 11  1  0  0  0  0
  9 26  1  0  0  0  0
  7  8  1  0  0  0  0
  7  9  1  0  0  0  0
 30 31  1  0  0  0  0
 30 32  1  0  0  0  0
 30 33  1  0  0  0  0
 28 29  1  0  0  0  0
 28 30  1  0  0  0  0
M  END
$$$$
default_name
  -OEChem-01062215323D

 33 33  0     1  0  0  0  0  0999 V2000
   -4.0702   -3.8485    1.4554 H   0  0  0  0  0  0  0  0  0  0  0  0
   -4.0012   -2.9605    0.8284 C   0  0  0  0  0  0  0  0  0  0  0  0
   -4.7652   -2.2435    1.1234 H   0  0  0  0  0  0  0  0  0  0  0  0
   -4.1352   -3.2385   -0.2156 H   0  0  0  0  0  0  0  0  0  0  0  0
   -2.6362   -2.3395    1.0094 C   0  0  0  0  0  0  0  0  0  0  0  0
   -1.8292   -2.8395    1.7814 O   0  0  0  0  0  0  0  0  0  0  0  0
   -2.3832   -1.2445    0.2964 N   0  0  0  0  0  0  0  0  0  0  0  0
   -3.1102   -0.8685   -0.2946 H   0  0  0  0  0  0  0  0  0  0  0  0
   -1.1292   -0.4875    0.3524 C   0  0  1  0  0  0  0  0  0  0  0  0
   -1.3098    0.4434    0.8912 H   0  0  0  0  0  0  0  0  0  0  0  0
   -0.0771   -1.2988    1.1279 C   0  0  0  0  0  0  0  0  0  0  0  0
    0.0066   -2.2900    0.6804 H   0  0  0  0  0  0  0  0  0  0  0  0
    0.8931   -0.8103    1.0238 H   0  0  0  0  0  0  0  0  0  0  0  0
   -0.3963   -1.4725    2.6003 C   0  0  0  0  0  0  0  0  0  0  0  0
   -0.1089   -0.4413    3.5169 C   0  0  0  0  0  0  0  0  0  0  0  0
    0.3656    0.4695    3.1758 H   0  0  0  0  0  0  0  0  0  0  0  0
   -0.4443   -0.5912    4.8767 C   0  0  0  0  0  0  0  0  0  0  0  0
   -0.2213    0.1998    5.5761 H   0  0  0  0  0  0  0  0  0  0  0  0
   -1.0727   -1.7753    5.3201 C   0  0  0  0  0  0  0  0  0  0  0  0
   -1.4028   -1.9284    6.6288 O   0  0  0  0  0  0  0  0  0  0  0  0
   -1.0781   -1.2074    7.1698 H   0  0  0  0  0  0  0  0  0  0  0  0
   -1.3640   -2.8042    4.4006 C   0  0  0  0  0  0  0  0  0  0  0  0
   -1.8407   -3.7066    4.7525 H   0  0  0  0  0  0  0  0  0  0  0  0
   -1.0233   -2.6532    3.0429 C   0  0  0  0  0  0  0  0  0  0  0  0
   -1.2390   -3.4479    2.3387 H   0  0  0  0  0  0  0  0  0  0  0  0
   -0.6423   -0.1239   -1.0602 C   0  0  0  0  0  0  0  0  0  0  0  0
   -1.4536    0.0484   -1.9703 O   0  0  0  0  0  0  0  0  0  0  0  0
    0.6791   -0.0103   -1.2453 N   0  0  0  0  0  0  0  0  0  0  0  0
    1.2798   -0.2250   -0.4627 H   0  0  0  0  0  0  0  0  0  0  0  0
    1.3071    0.3260   -2.5209 C   0  0  0  0  0  0  0  0  0  0  0  0
    0.8398    1.2187   -2.9402 H   0  0  0  0  0  0  0  0  0  0  0  0
    2.3728    0.5116   -2.3778 H   0  0  0  0  0  0  0  0  0  0  0  0
    1.1761   -0.4994   -3.2237 H   0  0  0  0  0  0  0  0  0  0  0  0
  5  6  2  0  0  0  0
  5  7  1  0  0  0  0
  2  3  1  0  0  0  0
  2  4  1  0  0  0  0
  2  5  1  0  0  0  0
  1  2  1  0  0  0  0
 26 27  2  0  0  0  0
 26 28  1  0  0  0  0
 24 25  1  0  0  0  0
 22 23  1  0  0  0  0
 22 24  2  0  0  0  0
 20 21  1  0  0  0  0
 19 20  1  0  0  0  0
 19 22  1  0  0  0  0
 17 18  1  0  0  0  0
 17 19  2  0  0  0  0
 15 16  1  0  0  0  0
 15 17  1  0  0  0  0
 14 15  2  0  0  0  0
 14 24  1  0  0  0  0
 11 12  1  0  0  0  0
 11 13  1  0  0  0  0
 11 14  1  0  0  0  0
  9 10  1  0  0  0  0
  9 11  1  0  0  0  0
  9 26  1  0  0  0  0
  7  8  1  0  0  0  0
  7  9  1  0  0  0  0
 30 31  1  0  0  0  0
 30 32  1  0  0  0  0
 30 33  1  0  0  0  0
 28 29  1  0  0  0  0
 28 30  1  0  0  0  0
M  END
$$$$
default_name
  -OEChem-01062215323D

 33 33  0     1  0  0  0  0  0999 V2000
   -4.0702   -3.8485    1.4554 H   0  0  0  0  0  0  0  0  0  0  0  0
   -4.0012   -2.9605    0.8284 C   0  0  0  0  0  0  0  0  0  0  0  0
   -4.7652   -2.2435    1.1234 H   0  0  0  0  0  0  0  0  0  0  0  0
   -4.1352   -3.2385   -0.2156 H   0  0  0  0  0  0  0  0  0  0  0  0
   -2.6362   -2.3395    1.0094 C   0  0  0  0  0  0  0  0  0  0  0  0
   -1.8292   -2.8395    1.7814 O   0  0  0  0  0  0  0  0  0  0  0  0
   -2.3832   -1.2445    0.2964 N   0  0  0  0  0  0  0  0  0  0  0  0
   -3.1102   -0.8685   -0.2946 H   0  0  0  0  0  0  0  0  0  0  0  0
   -1.1292   -0.4875    0.3524 C   0  0  1  0  0  0  0  0  0  0  0  0
   -1.3098    0.4434    0.8912 H   0  0  0  0  0  0  0  0  0  0  0  0
   -0.0771   -1.2988    1.1279 C   0  0  0  0  0  0  0  0  0  0  0  0
    0.0066   -2.2900    0.6804 H   0  0  0  0  0  0  0  0  0  0  0  0
    0.8931   -0.8103    1.0238 H   0  0  0  0  0  0  0  0  0  0  0  0
   -0.3963   -1.4725    2.6003 C   0  0  0  0  0  0  0  0  0  0  0  0
   -0.1089   -0.4413    3.5169 C   0  0  0  0  0  0  0  0  0  0  0  0
    0.3656    0.4695    3.1758 H   0  0  0  0  0  0  0  0  0  0  0  0
   -0.4443   -0.5912    4.8767 C   0  0  0  0  0  0  0  0  0  0  0  0
   -0.2213    0.1998    5.5761 H   0  0  0  0  0  0  0  0  0  0  0  0
   -1.0727   -1.7753    5.3201 C   0  0  0  0  0  0  0  0  0  0  0  0
   -1.4028   -1.9284    6.6288 O   0  0  0  0  0  0  0  0  0  0  0  0
   -1.0781   -1.2074    7.1698 H   0  0  0  0  0  0  0  0  0  0  0  0
   -1.3640   -2.8042    4.4006 C   0  0  0  0  0  0  0  0  0  0  0  0
   -1.8407   -3.7066    4.7525 H   0  0  0  0  0  0  0  0  0  0  0  0
   -1.0233   -2.6532    3.0429 C   0  0  0  0  0  0  0  0  0  0  0  0
   -1.2390   -3.4479    2.3387 H   0  0  0  0  0  0  0  0  0  0  0  0
   -0.6423   -0.1239   -1.0602 C   0  0  0  0  0  0  0  0  0  0  0  0
   -1.4340    0.3150   -1.8949 O   0  0  0  0  0  0  0  0  0  0  0  0
    0.6564   -0.3082   -1.3298 N   0  0  0  0  0  0  0  0  0  0  0  0
    1.2272   -0.7273   -0.6100 H   0  0  0  0  0  0  0  0  0  0  0  0
    1.2805   -0.0164   -2.6182 C   0  0  0  0  0  0  0  0  0  0  0  0
    1.0206    0.9949   -2.9354 H   0  0  0  0  0  0  0  0  0  0  0  0
    2.3656   -0.1002   -2.5378 H   0  0  0  0  0  0  0  0  0  0  0  0
    0.9191   -0.7217   -3.3695 H   0  0  0  0  0  0  0  0  0  0  0  0
  5  6  2  0  0  0  0
  5  7  1  0  0  0  0
  2  3  1  0  0  0  0
  2  4  1  0  0  0  0
  2  5  1  0  0  0  0
  1  2  1  0  0  0  0
 26 27  2  0  0  0  0
 26 28  1  0  0  0  0
 24 25  1  0  0  0  0
 22 23  1  0  0  0  0
 22 24  2  0  0  0  0
 20 21  1  0  0  0  0
 19 20  1  0  0  0  0
 19 22  1  0  0  0  0
 17 18  1  0  0  0  0
 17 19  2  0  0  0  0
 15 16  1  0  0  0  0
 15 17  1  0  0  0  0
 14 15  2  0  0  0  0
 14 24  1  0  0  0  0
 11 12  1  0  0  0  0
 11 13  1  0  0  0  0
 11 14  1  0  0  0  0
  9 10  1  0  0  0  0
  9 11  1  0  0  0  0
  9 26  1  0  0  0  0
  7  8  1  0  0  0  0
  7  9  1  0  0  0  0
 30 31  1  0  0  0  0
 30 32  1  0  0  0  0
 30 33  1  0  0  0  0
 28 29  1  0  0  0  0
 28 30  1  0  0  0  0
M  END
$$$$
default_name
  -OEChem-01062215323D

 33 33  0     1  0  0  0  0  0999 V2000
   -4.0702   -3.8485    1.4554 H   0  0  0  0  0  0  0  0  0  0  0  0
   -4.0012   -2.9605    0.8284 C   0  0  0  0  0  0  0  0  0  0  0  0
   -4.7652   -2.2435    1.1234 H   0  0  0  0  0  0  0  0  0  0  0  0
   -4.1352   -3.2385   -0.2156 H   0  0  0  0  0  0  0  0  0  0  0  0
   -2.6362   -2.3395    1.0094 C   0  0  0  0  0  0  0  0  0  0  0  0
   -1.8292   -2.8395    1.7814 O   0  0  0  0  0  0  0  0  0  0  0  0
   -2.3832   -1.2445    0.2964 N   0  0  0  0  0  0  0  0  0  0  0  0
   -3.1102   -0.8685   -0.2946 H   0  0  0  0  0  0  0  0  0  0  0  0
   -1.1292   -0.4875    0.3524 C   0  0  1  0  0  0  0  0  0  0  0  0
   -1.3098    0.4434    0.8912 H   0  0  0  0  0  0  0  0  0  0  0  0
   -0.0771   -1.2988    1.1279 C   0  0  0  0  0  0  0  0  0  0  0  0
    0.0066   -2.2900    0.6804 H   0  0  0  0  0  0  0  0  0  0  0  0
    0.8931   -0.8103    1.0238 H   0  0  0  0  0  0  0  0  0  0  0  0
   -0.3963   -1.4725    2.6003 C   0  0  0  0  0  0  0  0  0  0  0  0
   -0.1089   -0.4413    3.5169 C   0  0  0  0  0  0  0  0  0  0  0  0
    0.3656    0.4695    3.1758 H   0  0  0  0  0  0  0  0  0  0  0  0
   -0.4443   -0.5912    4.8767 C   0  0  0  0  0  0  0  0  0  0  0  0
   -0.2213    0.1998    5.5761 H   0  0  0  0  0  0  0  0  0  0  0  0
   -1.0727   -1.7753    5.3201 C   0  0  0  0  0  0  0  0  0  0  0  0
   -1.4028   -1.9284    6.6288 O   0  0  0  0  0  0  0  0  0  0  0  0
   -1.0781   -1.2074    7.1698 H   0  0  0  0  0  0  0  0  0  0  0  0
   -1.3640   -2.8042    4.4006 C   0  0  0  0  0  0  0  0  0  0  0  0
   -1.8407   -3.7066    4.7525 H   0  0  0  0  0  0  0  0  0  0  0  0
   -1.0233   -2.6532    3.0429 C   0  0  0  0  0  0  0  0  0  0  0  0
   -1.2390   -3.4479    2.3387 H   0  0  0  0  0  0  0  0  0  0  0  0
   -0.6423   -0.1239   -1.0602 C   0  0  0  0  0  0  0  0  0  0  0  0
   -1.3470    0.5617   -1.8014 O   0  0  0  0  0  0  0  0  0  0  0  0
    0.5584   -0.5836   -1.4344 N   0  0  0  0  0  0  0  0  0  0  0  0
    1.0480   -1.1878   -0.7903 H   0  0  0  0  0  0  0  0  0  0  0  0
    1.1675   -0.3329   -2.7386 C   0  0  0  0  0  0  0  0  0  0  0  0
    1.1423    0.7354   -2.9602 H   0  0  0  0  0  0  0  0  0  0  0  0
    2.2033   -0.6764   -2.7420 H   0  0  0  0  0  0  0  0  0  0  0  0
    0.6092   -0.8633   -3.5128 H   0  0  0  0  0  0  0  0  0  0  0  0
  5  6  2  0  0  0  0
  5  7  1  0  0  0  0
  2  3  1  0  0  0  0
  2  4  1  0  0  0  0
  2  5  1  0  0  0  0
  1  2  1  0  0  0  0
 26 27  2  0  0  0  0
 26 28  1  0  0  0  0
 24 25  1  0  0  0  0
 22 23  1  0  0  0  0
 22 24  2  0  0  0  0
 20 21  1  0  0  0  0
 19 20  1  0  0  0  0
 19 22  1  0  0  0  0
 17 18  1  0  0  0  0
 17 19  2  0  0  0  0
 15 16  1  0  0  0  0
 15 17  1  0  0  0  0
 14 15  2  0  0  0  0
 14 24  1  0  0  0  0
 11 12  1  0  0  0  0
 11 13  1  0  0  0  0
 11 14  1  0  0  0  0
  9 10  1  0  0  0  0
  9 11  1  0  0  0  0
  9 26  1  0  0  0  0
  7  8  1  0  0  0  0
  7  9  1  0  0  0  0
 30 31  1  0  0  0  0
 30 32  1  0  0  0  0
 30 33  1  0  0  0  0
 28 29  1  0  0  0  0
 28 30  1  0  0  0  0
M  END
$$$$
default_name
  -OEChem-01062215323D

 33 33  0     1  0  0  0  0  0999 V2000
   -4.0702   -3.8485    1.4554 H   0  0  0  0  0  0  0  0  0  0  0  0
   -4.0012   -2.9605    0.8284 C   0  0  0  0  0  0  0  0  0  0  0  0
   -4.7652   -2.2435    1.1234 H   0  0  0  0  0  0  0  0  0  0  0  0
   -4.1352   -3.2385   -0.2156 H   0  0  0  0  0  0  0  0  0  0  0  0
   -2.6362   -2.3395    1.0094 C   0  0  0  0  0  0  0  0  0  0  0  0
   -1.8292   -2.8395    1.7814 O   0  0  0  0  0  0  0  0  0  0  0  0
   -2.3832   -1.2445    0.2964 N   0  0  0  0  0  0  0  0  0  0  0  0
   -3.1102   -0.8685   -0.2946 H   0  0  0  0  0  0  0  0  0  0  0  0
   -1.1292   -0.4875    0.3524 C   0  0  1  0  0  0  0  0  0  0  0  0
   -1.3098    0.4434    0.8912 H   0  0  0  0  0  0  0  0  0  0  0  0
   -0.0771   -1.2988    1.1279 C   0  0  0  0  0  0  0  0  0  0  0  0
    0.0066   -2.2900    0.6804 H   0  0  0  0  0  0  0  0  0  0  0  0
    0.8931   -0.8103    1.0238 H   0  0  0  0  0  0  0  0  0  0  0  0
   -0.3963   -1.4725    2.6003 C   0  0  0  0  0  0  0  0  0  0  0  0
   -0.1089   -0.4413    3.5169 C   0  0  0  0  0  0  0  0  0  0  0  0
    0.3656    0.4695    3.1758 H   0  0  0  0  0  0  0  0  0  0  0  0
   -0.4443   -0.5912    4.8767 C   0  0  0  0  0  0  0  0  0  0  0  0
   -0.2213    0.1998    5.5761 H   0  0  0  0  0  0  0  0  0  0  0  0
   -1.0727   -1.7753    5.3201 C   0  0  0  0  0  0  0  0  0  0  0  0
   -1.4028   -1.9284    6.6288 O   0  0  0  0  0  0  0  0  0  0  0  0
   -1.0781   -1.2074    7.1698 H   0  0  0  0  0  0  0  0  0  0  0  0
   -1.3640   -2.8042    4.4006 C   0  0  0  0  0  0  0  0  0  0  0  0
   -1.8407   -3.7066    4.7525 H   0  0  0  0  0  0  0  0  0  0  0  0
   -1.0233   -2.6532    3.0429 C   0  0  0  0  0  0  0  0  0  0  0  0
   -1.2390   -3.4479    2.3387 H   0  0  0  0  0  0  0  0  0  0  0  0
   -0.6423   -0.1239   -1.0602 C   0  0  0  0  0  0  0  0  0  0  0  0
   -1.1987    0.7717   -1.6963 O   0  0  0  0  0  0  0  0  0  0  0  0
    0.3920   -0.8178   -1.5521 N   0  0  0  0  0  0  0  0  0  0  0  0
    0.7543   -1.5752   -0.9913 H   0  0  0  0  0  0  0  0  0  0  0  0
    0.9758   -0.6019   -2.8739 C   0  0  0  0  0  0  0  0  0  0  0  0
    1.1967    0.4578   -3.0129 H   0  0  0  0  0  0  0  0  0  0  0  0
    1.8970   -1.1776   -2.9766 H   0  0  0  0  0  0  0  0  0  0  0  0
    0.2674   -0.9147   -3.6438 H   0  0  0  0  0  0  0  0  0  0  0  0
  5  6  2  0  0  0  0
  5  7  1  0  0  0  0
  2  3  1  0  0  0  0
  2  4  1  0  0  0  0
  2  5  1  0  0  0  0
  1  2  1  0  0  0  0
 26 27  2  0  0  0  0
 26 28  1  0  0  0  0
 24 25  1  0  0  0  0
 22 23  1  0  0  0  0
 22 24  2  0  0  0  0
 20 21  1  0  0  0  0
 19 20  1  0  0  0  0
 19 22  1  0  0  0  0
 17 18  1  0  0  0  0
 17 19  2  0  0  0  0
 15 16  1  0  0  0  0
 15 17  1  0  0  0  0
 14 15  2  0  0  0  0
 14 24  1  0  0  0  0
 11 12  1  0  0  0  0
 11 13  1  0  0  0  0
 11 14  1  0  0  0  0
  9 10  1  0  0  0  0
  9 11  1  0  0  0  0
  9 26  1  0  0  0  0
  7  8  1  0  0  0  0
  7  9  1  0  0  0  0
 30 31  1  0  0  0  0
 30 32  1  0  0  0  0
 30 33  1  0  0  0  0
 28 29  1  0  0  0  0
 28 30  1  0  0  0  0
M  END
$$$$
default_name
  -OEChem-01062215323D

 33 33  0     1  0  0  0  0  0999 V2000
   -4.0702   -3.8485    1.4554 H   0  0  0  0  0  0  0  0  0  0  0  0
   -4.0012   -2.9605    0.8284 C   0  0  0  0  0  0  0  0  0  0  0  0
   -4.7652   -2.2435    1.1234 H   0  0  0  0  0  0  0  0  0  0  0  0
   -4.1352   -3.2385   -0.2156 H   0  0  0  0  0  0  0  0  0  0  0  0
   -2.6362   -2.3395    1.0094 C   0  0  0  0  0  0  0  0  0  0  0  0
   -1.8292   -2.8395    1.7814 O   0  0  0  0  0  0  0  0  0  0  0  0
   -2.3832   -1.2445    0.2964 N   0  0  0  0  0  0  0  0  0  0  0  0
   -3.1102   -0.8685   -0.2946 H   0  0  0  0  0  0  0  0  0  0  0  0
   -1.1292   -0.4875    0.3524 C   0  0  1  0  0  0  0  0  0  0  0  0
   -1.3098    0.4434    0.8912 H   0  0  0  0  0  0  0  0  0  0  0  0
   -0.0771   -1.2988    1.1279 C   0  0  0  0  0  0  0  0  0  0  0  0
    0.0066   -2.2900    0.6804 H   0  0  0  0  0  0  0  0  0  0  0  0
    0.8931   -0.8103    1.0238 H   0  0  0  0  0  0  0  0  0  0  0  0
   -0.3963   -1.4725    2.6003 C   0  0  0  0  0  0  0  0  0  0  0  0
   -0.1089   -0.4413    3.5169 C   0  0  0  0  0  0  0  0  0  0  0  0
    0.3656    0.4695    3.1758 H   0  0  0  0  0  0  0  0  0  0  0  0
   -0.4443   -0.5912    4.8767 C   0  0  0  0  0  0  0  0  0  0  0  0
   -0.2213    0.1998    5.5761 H   0  0  0  0  0  0  0  0  0  0  0  0
   -1.0727   -1.7753    5.3201 C   0  0  0  0  0  0  0  0  0  0  0  0
   -1.4028   -1.9284    6.6288 O   0  0  0  0  0  0  0  0  0  0  0  0
   -1.0781   -1.2074    7.1698 H   0  0  0  0  0  0  0  0  0  0  0  0
   -1.3640   -2.8042    4.4006 C   0  0  0  0  0  0  0  0  0  0  0  0
   -1.8407   -3.7066    4.7525 H   0  0  0  0  0  0  0  0  0  0  0  0
   -1.0233   -2.6532    3.0429 C   0  0  0  0  0  0  0  0  0  0  0  0
   -1.2390   -3.4479    2.3387 H   0  0  0  0  0  0  0  0  0  0  0  0
   -0.6423   -0.1239   -1.0602 C   0  0  0  0  0  0  0  0  0  0  0  0
   -0.9990    0.9306   -1.5865 O   0  0  0  0  0  0  0  0  0  0  0  0
    0.1683   -0.9947   -1.6747 N   0  0  0  0  0  0  0  0  0  0  0  0
    0.3663   -1.8632   -1.1991 H   0  0  0  0  0  0  0  0  0  0  0  0
    0.7183   -0.8050   -3.0150 C   0  0  0  0  0  0  0  0  0  0  0  0
    1.1800    0.1811   -3.0899 H   0  0  0  0  0  0  0  0  0  0  0  0
    1.4677   -1.5697   -3.2255 H   0  0  0  0  0  0  0  0  0  0  0  0
   -0.0830   -0.8724   -3.7537 H   0  0  0  0  0  0  0  0  0  0  0  0
  5  6  2  0  0  0  0
  5  7  1  0  0  0  0
  2  3  1  0  0  0  0
  2  4  1  0  0  0  0
  2  5  1  0  0  0  0
  1  2  1  0  0  0  0
 26 27  2  0  0  0  0
 26 28  1  0  0  0  0
 24 25  1  0  0  0  0
 22 23  1  0  0  0  0
 22 24  2  0  0  0  0
 20 21  1  0  0  0  0
 19 20  1  0  0  0  0
 19 22  1  0  0  0  0
 17 18  1  0  0  0  0
 17 19  2  0  0  0  0
 15 16  1  0  0  0  0
 15 17  1  0  0  0  0
 14 15  2  0  0  0  0
 14 24  1  0  0  0  0
 11 12  1  0  0  0  0
 11 13  1  0  0  0  0
 11 14  1  0  0  0  0
  9 10  1  0  0  0  0
  9 11  1  0  0  0  0
  9 26  1  0  0  0  0
  7  8  1  0  0  0  0
  7  9  1  0  0  0  0
 30 31  1  0  0  0  0
 30 32  1  0  0  0  0
 30 33  1  0  0  0  0
 28 29  1  0  0  0  0
 28 30  1  0  0  0  0
M  END
$$$$
default_name
  -OEChem-01062215323D

 33 33  0     1  0  0  0  0  0999 V2000
   -4.0702   -3.8485    1.4554 H   0  0  0  0  0  0  0  0  0  0  0  0
   -4.0012   -2.9605    0.8284 C   0  0  0  0  0  0  0  0  0  0  0  0
   -4.7652   -2.2435    1.1234 H   0  0  0  0  0  0  0  0  0  0  0  0
   -4.1352   -3.2385   -0.2156 H   0  0  0  0  0  0  0  0  0  0  0  0
   -2.6362   -2.3395    1.0094 C   0  0  0  0  0  0  0  0  0  0  0  0
   -1.8292   -2.8395    1.7814 O   0  0  0  0  0  0  0  0  0  0  0  0
   -2.3832   -1.2445    0.2964 N   0  0  0  0  0  0  0  0  0  0  0  0
   -3.1102   -0.8685   -0.2946 H   0  0  0  0  0  0  0  0  0  0  0  0
   -1.1292   -0.4875    0.3524 C   0  0  1  0  0  0  0  0  0  0  0  0
   -1.3098    0.4434    0.8912 H   0  0  0  0  0  0  0  0  0  0  0  0
   -0.0771   -1.2988    1.1279 C   0  0  0  0  0  0  0  0  0  0  0  0
    0.0066   -2.2900    0.6804 H   0  0  0  0  0  0  0  0  0  0  0  0
    0.8931   -0.8103    1.0238 H   0  0  0  0  0  0  0  0  0  0  0  0
   -0.3963   -1.4725    2.6003 C   0  0  0  0  0  0  0  0  0  0  0  0
   -0.1089   -0.4413    3.5169 C   0  0  0  0  0  0  0  0  0  0  0  0
    0.3656    0.4695    3.1758 H   0  0  0  0  0  0  0  0  0  0  0  0
   -0.4443   -0.5912    4.8767 C   0  0  0  0  0  0  0  0  0  0  0  0
   -0.2213    0.1998    5.5761 H   0  0  0  0  0  0  0  0  0  0  0  0
   -1.0727   -1.7753    5.3201 C   0  0  0  0  0  0  0  0  0  0  0  0
   -1.4028   -1.9284    6.6288 O   0  0  0  0  0  0  0  0  0  0  0  0
   -1.0781   -1.2074    7.1698 H   0  0  0  0  0  0  0  0  0  0  0  0
   -1.3640   -2.8042    4.4006 C   0  0  0  0  0  0  0  0  0  0  0  0
   -1.8407   -3.7066    4.7525 H   0  0  0  0  0  0  0  0  0  0  0  0
   -1.0233   -2.6532    3.0429 C   0  0  0  0  0  0  0  0  0  0  0  0
   -1.2390   -3.4479    2.3387 H   0  0  0  0  0  0  0  0  0  0  0  0
   -0.6423   -0.1239   -1.0602 C   0  0  0  0  0  0  0  0  0  0  0  0
   -0.7617    1.0276   -1.4797 O   0  0  0  0  0  0  0  0  0  0  0  0
   -0.0973   -1.1025   -1.7940 N   0  0  0  0  0  0  0  0  0  0  0  0
   -0.0897   -2.0320   -1.3998 H   0  0  0  0  0  0  0  0  0  0  0  0
    0.4127   -0.9284   -3.1521 C   0  0  0  0  0  0  0  0  0  0  0  0
    1.0933   -0.0759   -3.1859 H   0  0  0  0  0  0  0  0  0  0  0  0
    0.9446   -1.8260   -3.4718 H   0  0  0  0  0  0  0  0  0  0  0  0
   -0.4181   -0.7391   -3.8350 H   0  0  0  0  0  0  0  0  0  0  0  0
  5  6  2  0  0  0  0
  5  7  1  0  0  0  0
  2  3  1  0  0  0  0
  2  4  1  0  0  0  0
  2  5  1  0  0  0  0
  1  2  1  0  0  0  0
 26 27  2  0  0  0  0
 26 28  1  0  0  0  0
 24 25  1  0  0  0  0
 22 23  1  0  0  0  0
 22 24  2  0  0  0  0
 20 21  1  0  0  0  0
 19 20  1  0  0  0  0
 19 22  1  0  0  0  0
 17 18  1  0  0  0  0
 17 19  2  0  0  0  0
 15 16  1  0  0  0  0
 15 17  1  0  0  0  0
 14 15  2  0  0  0  0
 14 24  1  0  0  0  0
 11 12  1  0  0  0  0
 11 13  1  0  0  0  0
 11 14  1  0  0  0  0
  9 10  1  0  0  0  0
  9 11  1  0  0  0  0
  9 26  1  0  0  0  0
  7  8  1  0  0  0  0
  7  9  1  0  0  0  0
 30 31  1  0  0  0  0
 30 32  1  0  0  0  0
 30 33  1  0  0  0  0
 28 29  1  0  0  0  0
 28 30  1  0  0  0  0
M  END
$$$$
default_name
  -OEChem-01062215323D

 33 33  0     1  0  0  0  0  0999 V2000
   -4.0702   -3.8485    1.4554 H   0  0  0  0  0  0  0  0  0  0  0  0
   -4.0012   -2.9605    0.8284 C   0  0  0  0  0  0  0  0  0  0  0  0
   -4.7652   -2.2435    1.1234 H   0  0  0  0  0  0  0  0  0  0  0  0
   -4.1352   -3.2385   -0.2156 H   0  0  0  0  0  0  0  0  0  0  0  0
   -2.6362   -2.3395    1.0094 C   0  0  0  0  0  0  0  0  0  0  0  0
   -1.8292   -2.8395    1.7814 O   0  0  0  0  0  0  0  0  0  0  0  0
   -2.3832   -1.2445    0.2964 N   0  0  0  0  0  0  0  0  0  0  0  0
   -3.1102   -0.8685   -0.2946 H   0  0  0  0  0  0  0  0  0  0  0  0
   -1.1292   -0.4875    0.3524 C   0  0  1  0  0  0  0  0  0  0  0  0
   -1.3098    0.4434    0.8912 H   0  0  0  0  0  0  0  0  0  0  0  0
   -0.0771   -1.2988    1.1279 C   0  0  0  0  0  0  0  0  0  0  0  0
    0.0066   -2.2900    0.6804 H   0  0  0  0  0  0  0  0  0  0  0  0
    0.8931   -0.8103    1.0238 H   0  0  0  0  0  0  0  0  0  0  0  0
   -0.3963   -1.4725    2.6003 C   0  0  0  0  0  0  0  0  0  0  0  0
   -0.1089   -0.4413    3.5169 C   0  0  0  0  0  0  0  0  0  0  0  0
    0.3656    0.4695    3.1758 H   0  0  0  0  0  0  0  0  0  0  0  0
   -0.4443   -0.5912    4.8767 C   0  0  0  0  0  0  0  0  0  0  0  0
   -0.2213    0.1998    5.5761 H   0  0  0  0  0  0  0  0  0  0  0  0
   -1.0727   -1.7753    5.3201 C   0  0  0  0  0  0  0  0  0  0  0  0
   -1.4028   -1.9284    6.6288 O   0  0  0  0  0  0  0  0  0  0  0  0
   -1.0781   -1.2074    7.1698 H   0  0  0  0  0  0  0  0  0  0  0  0
   -1.3640   -2.8042    4.4006 C   0  0  0  0  0  0  0  0  0  0  0  0
   -1.8407   -3.7066    4.7525 H   0  0  0  0  0  0  0  0  0  0  0  0
   -1.0233   -2.6532    3.0429 C   0  0  0  0  0  0  0  0  0  0  0  0
   -1.2390   -3.4479    2.3387 H   0  0  0  0  0  0  0  0  0  0  0  0
   -0.6423   -0.1239   -1.0602 C   0  0  0  0  0  0  0  0  0  0  0  0
   -0.5028    1.0561   -1.3832 O   0  0  0  0  0  0  0  0  0  0  0  0
   -0.3868   -1.1336   -1.9018 N   0  0  0  0  0  0  0  0  0  0  0  0
   -0.5825   -2.0702   -1.5796 H   0  0  0  0  0  0  0  0  0  0  0  0
    0.0798   -0.9637   -3.2759 C   0  0  0  0  0  0  0  0  0  0  0  0
    0.9426   -0.2957   -3.2944 H   0  0  0  0  0  0  0  0  0  0  0  0
    0.3633   -1.9289   -3.6987 H   0  0  0  0  0  0  0  0  0  0  0  0
   -0.7151   -0.5241   -3.8820 H   0  0  0  0  0  0  0  0  0  0  0  0
  5  6  2  0  0  0  0
  5  7  1  0  0  0  0
  2  3  1  0  0  0  0
  2  4  1  0  0  0  0
  2  5  1  0  0  0  0
  1  2  1  0  0  0  0
 26 27  2  0  0  0  0
 26 28  1  0  0  0  0
 24 25  1  0  0  0  0
 22 23  1  0  0  0  0
 22 24  2  0  0  0  0
 20 21  1  0  0  0  0
 19 20  1  0  0  0  0
 19 22  1  0  0  0  0
 17 18  1  0  0  0  0
 17 19  2  0  0  0  0
 15 16  1  0  0  0  0
 15 17  1  0  0  0  0
 14 15  2  0  0  0  0
 14 24  1  0  0  0  0
 11 12  1  0  0  0  0
 11 13  1  0  0  0  0
 11 14  1  0  0  0  0
  9 10  1  0  0  0  0
  9 11  1  0  0  0  0
  9 26  1  0  0  0  0
  7  8  1  0  0  0  0
  7  9  1  0  0  0  0
 30 31  1  0  0  0  0
 30 32  1  0  0  0  0
 30 33  1  0  0  0  0
 28 29  1  0  0  0  0
 28 30  1  0  0  0  0
M  END
$$$$
default_name
  -OEChem-01062215323D

 33 33  0     1  0  0  0  0  0999 V2000
   -4.0702   -3.8485    1.4554 H   0  0  0  0  0  0  0  0  0  0  0  0
   -4.0012   -2.9605    0.8284 C   0  0  0  0  0  0  0  0  0  0  0  0
   -4.7652   -2.2435    1.1234 H   0  0  0  0  0  0  0  0  0  0  0  0
   -4.1352   -3.2385   -0.2156 H   0  0  0  0  0  0  0  0  0  0  0  0
   -2.6362   -2.3395    1.0094 C   0  0  0  0  0  0  0  0  0  0  0  0
   -1.8292   -2.8395    1.7814 O   0  0  0  0  0  0  0  0  0  0  0  0
   -2.3832   -1.2445    0.2964 N   0  0  0  0  0  0  0  0  0  0  0  0
   -3.1102   -0.8685   -0.2946 H   0  0  0  0  0  0  0  0  0  0  0  0
   -1.1292   -0.4875    0.3524 C   0  0  1  0  0  0  0  0  0  0  0  0
   -1.3098    0.4434    0.8912 H   0  0  0  0  0  0  0  0  0  0  0  0
   -0.0771   -1.2988    1.1279 C   0  0  0  0  0  0  0  0  0  0  0  0
    0.0066   -2.2900    0.6804 H   0  0  0  0  0  0  0  0  0  0  0  0
    0.8931   -0.8103    1.0238 H   0  0  0  0  0  0  0  0  0  0  0  0
   -0.3963   -1.4725    2.6003 C   0  0  0  0  0  0  0  0  0  0  0  0
   -0.1089   -0.4413    3.5169 C   0  0  0  0  0  0  0  0  0  0  0  0
    0.3656    0.4695    3.1758 H   0  0  0  0  0  0  0  0  0  0  0  0
   -0.4443   -0.5912    4.8767 C   0  0  0  0  0  0  0  0  0  0  0  0
   -0.2213    0.1998    5.5761 H   0  0  0  0  0  0  0  0  0  0  0  0
   -1.0727   -1.7753    5.3201 C   0  0  0  0  0  0  0  0  0  0  0  0
   -1.4028   -1.9284    6.6288 O   0  0  0  0  0  0  0  0  0  0  0  0
   -1.0781   -1.2074    7.1698 H   0  0  0  0  0  0  0  0  0  0  0  0
   -1.3640   -2.8042    4.4006 C   0  0  0  0  0  0  0  0  0  0  0  0
   -1.8407   -3.7066    4.7525 H   0  0  0  0  0  0  0  0  0  0  0  0
   -1.0233   -2.6532    3.0429 C   0  0  0  0  0  0  0  0  0  0  0  0
   -1.2390   -3.4479    2.3387 H   0  0  0  0  0  0  0  0  0  0  0  0
   -0.6423   -0.1239   -1.0602 C   0  0  0  0  0  0  0  0  0  0  0  0
   -0.2401    1.0142   -1.3034 O   0  0  0  0  0  0  0  0  0  0  0  0
   -0.6804   -1.0860   -1.9908 N   0  0  0  0  0  0  0  0  0  0  0  0
   -1.0787   -1.9753   -1.7262 H   0  0  0  0  0  0  0  0  0  0  0  0
   -0.2578   -0.9085   -3.3781 C   0  0  0  0  0  0  0  0  0  0  0  0
    0.7382   -0.4633   -3.4081 H   0  0  0  0  0  0  0  0  0  0  0  0
   -0.2366   -1.8716   -3.8907 H   0  0  0  0  0  0  0  0  0  0  0  0
   -0.9537   -0.2419   -3.8917 H   0  0  0  0  0  0  0  0  0  0  0  0
  5  6  2  0  0  0  0
  5  7  1  0  0  0  0
  2  3  1  0  0  0  0
  2  4  1  0  0  0  0
  2  5  1  0  0  0  0
  1  2  1  0  0  0  0
 26 27  2  0  0  0  0
 26 28  1  0  0  0  0
 24 25  1  0  0  0  0
 22 23  1  0  0  0  0
 22 24  2  0  0  0  0
 20 21  1  0  0  0  0
 19 20  1  0  0  0  0
 19 22  1  0  0  0  0
 17 18  1  0  0  0  0
 17 19  2  0  0  0  0
 15 16  1  0  0  0  0
 15 17  1  0  0  0  0
 14 15  2  0  0  0  0
 14 24  1  0  0  0  0
 11 12  1  0  0  0  0
 11 13  1  0  0  0  0
 11 14  1  0  0  0  0
  9 10  1  0  0  0  0
  9 11  1  0  0  0  0
  9 26  1  0  0  0  0
  7  8  1  0  0  0  0
  7  9  1  0  0  0  0
 30 31  1  0  0  0  0
 30 32  1  0  0  0  0
 30 33  1  0  0  0  0
 28 29  1  0  0  0  0
 28 30  1  0  0  0  0
M  END
$$$$
default_name
  -OEChem-01062215323D

 33 33  0     1  0  0  0  0  0999 V2000
   -4.0702   -3.8485    1.4554 H   0  0  0  0  0  0  0  0  0  0  0  0
   -4.0012   -2.9605    0.8284 C   0  0  0  0  0  0  0  0  0  0  0  0
   -4.7652   -2.2435    1.1234 H   0  0  0  0  0  0  0  0  0  0  0  0
   -4.1352   -3.2385   -0.2156 H   0  0  0  0  0  0  0  0  0  0  0  0
   -2.6362   -2.3395    1.0094 C   0  0  0  0  0  0  0  0  0  0  0  0
   -1.8292   -2.8395    1.7814 O   0  0  0  0  0  0  0  0  0  0  0  0
   -2.3832   -1.2445    0.2964 N   0  0  0  0  0  0  0  0  0  0  0  0
   -3.1102   -0.8685   -0.2946 H   0  0  0  0  0  0  0  0  0  0  0  0
   -1.1292   -0.4875    0.3524 C   0  0  1  0  0  0  0  0  0  0  0  0
   -1.3098    0.4434    0.8912 H   0  0  0  0  0  0  0  0  0  0  0  0
   -0.0771   -1.2988    1.1279 C   0  0  0  0  0  0  0  0  0  0  0  0
    0.0066   -2.2900    0.6804 H   0  0  0  0  0  0  0  0  0  0  0  0
    0.8931   -0.8103    1.0238 H   0  0  0  0  0  0  0  0  0  0  0  0
   -0.3963   -1.4725    2.6003 C   0  0  0  0  0  0  0  0  0  0  0  0
   -0.1089   -0.4413    3.5169 C   0  0  0  0  0  0  0  0  0  0  0  0
    0.3656    0.4695    3.1758 H   0  0  0  0  0  0  0  0  0  0  0  0
   -0.4443   -0.5912    4.8767 C   0  0  0  0  0  0  0  0  0  0  0  0
   -0.2213    0.1998    5.5761 H   0  0  0  0  0  0  0  0  0  0  0  0
   -1.0727   -1.7753    5.3201 C   0  0  0  0  0  0  0  0  0  0  0  0
   -1.4028   -1.9284    6.6288 O   0  0  0  0  0  0  0  0  0  0  0  0
   -1.0781   -1.2074    7.1698 H   0  0  0  0  0  0  0  0  0  0  0  0
   -1.3640   -2.8042    4.4006 C   0  0  0  0  0  0  0  0  0  0  0  0
   -1.8407   -3.7066    4.7525 H   0  0  0  0  0  0  0  0  0  0  0  0
   -1.0233   -2.6532    3.0429 C   0  0  0  0  0  0  0  0  0  0  0  0
   -1.2390   -3.4479    2.3387 H   0  0  0  0  0  0  0  0  0  0  0  0
   -0.6423   -0.1239   -1.0602 C   0  0  0  0  0  0  0  0  0  0  0  0
    0.0086    0.9047   -1.2458 O   0  0  0  0  0  0  0  0  0  0  0  0
   -0.9581   -0.9629   -2.0549 N   0  0  0  0  0  0  0  0  0  0  0  0
   -1.5444   -1.7535   -1.8296 H   0  0  0  0  0  0  0  0  0  0  0  0
   -0.5769   -0.7666   -3.4516 C   0  0  0  0  0  0  0  0  0  0  0  0
    0.4940   -0.5672   -3.5190 H   0  0  0  0  0  0  0  0  0  0  0  0
   -0.8141   -1.6578   -4.0348 H   0  0  0  0  0  0  0  0  0  0  0  0
   -1.1177    0.0882   -3.8632 H   0  0  0  0  0  0  0  0  0  0  0  0
  5  6  2  0  0  0  0
  5  7  1  0  0  0  0
  2  3  1  0  0  0  0
  2  4  1  0  0  0  0
  2  5  1  0  0  0  0
  1  2  1  0  0  0  0
 26 27  2  0  0  0  0
 26 28  1  0  0  0  0
 24 25  1  0  0  0  0
 22 23  1  0  0  0  0
 22 24  2  0  0  0  0
 20 21  1  0  0  0  0
 19 20  1  0  0  0  0
 19 22  1  0  0  0  0
 17 18  1  0  0  0  0
 17 19  2  0  0  0  0
 15 16  1  0  0  0  0
 15 17  1  0  0  0  0
 14 15  2  0  0  0  0
 14 24  1  0  0  0  0
 11 12  1  0  0  0  0
 11 13  1  0  0  0  0
 11 14  1  0  0  0  0
  9 10  1  0  0  0  0
  9 11  1  0  0  0  0
  9 26  1  0  0  0  0
  7  8  1  0  0  0  0
  7  9  1  0  0  0  0
 30 31  1  0  0  0  0
 30 32  1  0  0  0  0
 30 33  1  0  0  0  0
 28 29  1  0  0  0  0
 28 30  1  0  0  0  0
M  END
$$$$
default_name
  -OEChem-01062215323D

 33 33  0     1  0  0  0  0  0999 V2000
   -4.0702   -3.8485    1.4554 H   0  0  0  0  0  0  0  0  0  0  0  0
   -4.0012   -2.9605    0.8284 C   0  0  0  0  0  0  0  0  0  0  0  0
   -4.7652   -2.2435    1.1234 H   0  0  0  0  0  0  0  0  0  0  0  0
   -4.1352   -3.2385   -0.2156 H   0  0  0  0  0  0  0  0  0  0  0  0
   -2.6362   -2.3395    1.0094 C   0  0  0  0  0  0  0  0  0  0  0  0
   -1.8292   -2.8395    1.7814 O   0  0  0  0  0  0  0  0  0  0  0  0
   -2.3832   -1.2445    0.2964 N   0  0  0  0  0  0  0  0  0  0  0  0
   -3.1102   -0.8685   -0.2946 H   0  0  0  0  0  0  0  0  0  0  0  0
   -1.1292   -0.4875    0.3524 C   0  0  1  0  0  0  0  0  0  0  0  0
   -1.3098    0.4434    0.8912 H   0  0  0  0  0  0  0  0  0  0  0  0
   -0.0771   -1.2988    1.1279 C   0  0  0  0  0  0  0  0  0  0  0  0
    0.0066   -2.2900    0.6804 H   0  0  0  0  0  0  0  0  0  0  0  0
    0.8931   -0.8103    1.0238 H   0  0  0  0  0  0  0  0  0  0  0  0
   -0.3963   -1.4725    2.6003 C   0  0  0  0  0  0  0  0  0  0  0  0
   -0.1089   -0.4413    3.5169 C   0  0  0  0  0  0  0  0  0  0  0  0
    0.3656    0.4695    3.1758 H   0  0  0  0  0  0  0  0  0  0  0  0
   -0.4443   -0.5912    4.8767 C   0  0  0  0  0  0  0  0  0  0  0  0
   -0.2213    0.1998    5.5761 H   0  0  0  0  0  0  0  0  0  0  0  0
   -1.0727   -1.7753    5.3201 C   0  0  0  0  0  0  0  0  0  0  0  0
   -1.4028   -1.9284    6.6288 O   0  0  0  0  0  0  0  0  0  0  0  0
   -1.0781   -1.2074    7.1698 H   0  0  0  0  0  0  0  0  0  0  0  0
   -1.3640   -2.8042    4.4006 C   0  0  0  0  0  0  0  0  0  0  0  0
   -1.8407   -3.7066    4.7525 H   0  0  0  0  0  0  0  0  0  0  0  0
   -1.0233   -2.6532    3.0429 C   0  0  0  0  0  0  0  0  0  0  0  0
   -1.2390   -3.4479    2.3387 H   0  0  0  0  0  0  0  0  0  0  0  0
   -0.6423   -0.1239   -1.0602 C   0  0  0  0  0  0  0  0  0  0  0  0
    0.2263    0.7352   -1.2144 O   0  0  0  0  0  0  0  0  0  0  0  0
   -1.2011   -0.7727   -2.0897 N   0  0  0  0  0  0  0  0  0  0  0  0
   -1.9478   -1.4202   -1.8829 H   0  0  0  0  0  0  0  0  0  0  0  0
   -0.8560   -0.5475   -3.4915 C   0  0  0  0  0  0  0  0  0  0  0  0
    0.2265   -0.6005   -3.6198 H   0  0  0  0  0  0  0  0  0  0  0  0
   -1.3300   -1.3022   -4.1211 H   0  0  0  0  0  0  0  0  0  0  0  0
   -1.1959    0.4436   -3.7987 H   0  0  0  0  0  0  0  0  0  0  0  0
  5  6  2  0  0  0  0
  5  7  1  0  0  0  0
  2  3  1  0  0  0  0
  2  4  1  0  0  0  0
  2  5  1  0  0  0  0
  1  2  1  0  0  0  0
 26 27  2  0  0  0  0
 26 28  1  0  0  0  0
 24 25  1  0  0  0  0
 22 23  1  0  0  0  0
 22 24  2  0  0  0  0
 20 21  1  0  0  0  0
 19 20  1  0  0  0  0
 19 22  1  0  0  0  0
 17 18  1  0  0  0  0
 17 19  2  0  0  0  0
 15 16  1  0  0  0  0
 15 17  1  0  0  0  0
 14 15  2  0  0  0  0
 14 24  1  0  0  0  0
 11 12  1  0  0  0  0
 11 13  1  0  0  0  0
 11 14  1  0  0  0  0
  9 10  1  0  0  0  0
  9 11  1  0  0  0  0
  9 26  1  0  0  0  0
  7  8  1  0  0  0  0
  7  9  1  0  0  0  0
 30 31  1  0  0  0  0
 30 32  1  0  0  0  0
 30 33  1  0  0  0  0
 28 29  1  0  0  0  0
 28 30  1  0  0  0  0
M  END
$$$$
default_name
  -OEChem-01062215323D

 33 33  0     1  0  0  0  0  0999 V2000
   -4.0702   -3.8485    1.4554 H   0  0  0  0  0  0  0  0  0  0  0  0
   -4.0012   -2.9605    0.8284 C   0  0  0  0  0  0  0  0  0  0  0  0
   -4.7652   -2.2435    1.1234 H   0  0  0  0  0  0  0  0  0  0  0  0
   -4.1352   -3.2385   -0.2156 H   0  0  0  0  0  0  0  0  0  0  0  0
   -2.6362   -2.3395    1.0094 C   0  0  0  0  0  0  0  0  0  0  0  0
   -1.8292   -2.8395    1.7814 O   0  0  0  0  0  0  0  0  0  0  0  0
   -2.3832   -1.2445    0.2964 N   0  0  0  0  0  0  0  0  0  0  0  0
   -3.1102   -0.8685   -0.2946 H   0  0  0  0  0  0  0  0  0  0  0  0
   -1.1292   -0.4875    0.3524 C   0  0  1  0  0  0  0  0  0  0  0  0
   -1.3098    0.4434    0.8912 H   0  0  0  0  0  0  0  0  0  0  0  0
   -0.0771   -1.2988    1.1279 C   0  0  0  0  0  0  0  0  0  0  0  0
    0.0066   -2.2900    0.6804 H   0  0  0  0  0  0  0  0  0  0  0  0
    0.8931   -0.8103    1.0238 H   0  0  0  0  0  0  0  0  0  0  0  0
   -0.3963   -1.4725    2.6003 C   0  0  0  0  0  0  0  0  0  0  0  0
   -0.1089   -0.4413    3.5169 C   0  0  0  0  0  0  0  0  0  0  0  0
    0.3656    0.4695    3.1758 H   0  0  0  0  0  0  0  0  0  0  0  0
   -0.4443   -0.5912    4.8767 C   0  0  0  0  0  0  0  0  0  0  0  0
   -0.2213    0.1998    5.5761 H   0  0  0  0  0  0  0  0  0  0  0  0
   -1.0727   -1.7753    5.3201 C   0  0  0  0  0  0  0  0  0  0  0  0
   -1.4028   -1.9284    6.6288 O   0  0  0  0  0  0  0  0  0  0  0  0
   -1.0781   -1.2074    7.1698 H   0  0  0  0  0  0  0  0  0  0  0  0
   -1.3640   -2.8042    4.4006 C   0  0  0  0  0  0  0  0  0  0  0  0
   -1.8407   -3.7066    4.7525 H   0  0  0  0  0  0  0  0  0  0  0  0
   -1.0233   -2.6532    3.0429 C   0  0  0  0  0  0  0  0  0  0  0  0
   -1.2390   -3.4479    2.3387 H   0  0  0  0  0  0  0  0  0  0  0  0
   -0.6423   -0.1239   -1.0602 C   0  0  0  0  0  0  0  0  0  0  0  0
    0.3982    0.5170   -1.2113 O   0  0  0  0  0  0  0  0  0  0  0  0
   -1.3926   -0.5284   -2.0928 N   0  0  0  0  0  0  0  0  0  0  0  0
   -2.2614   -0.9979   -1.8824 H   0  0  0  0  0  0  0  0  0  0  0  0
   -1.0759   -0.2664   -3.4949 C   0  0  0  0  0  0  0  0  0  0  0  0
   -0.0459   -0.5608   -3.7035 H   0  0  0  0  0  0  0  0  0  0  0  0
   -1.7490   -0.8290   -4.1438 H   0  0  0  0  0  0  0  0  0  0  0  0
   -1.1830    0.8003   -3.7025 H   0  0  0  0  0  0  0  0  0  0  0  0
  5  6  2  0  0  0  0
  5  7  1  0  0  0  0
  2  3  1  0  0  0  0
  2  4  1  0  0  0  0
  2  5  1  0  0  0  0
  1  2  1  0  0  0  0
 26 27  2  0  0  0  0
 26 28  1  0  0  0  0
 24 25  1  0  0  0  0
 22 23  1  0  0  0  0
 22 24  2  0  0  0  0
 20 21  1  0  0  0  0
 19 20  1  0  0  0  0
 19 22  1  0  0  0  0
 17 18  1  0  0  0  0
 17 19  2  0  0  0  0
 15 16  1  0  0  0  0
 15 17  1  0  0  0  0
 14 15  2  0  0  0  0
 14 24  1  0  0  0  0
 11 12  1  0  0  0  0
 11 13  1  0  0  0  0
 11 14  1  0  0  0  0
  9 10  1  0  0  0  0
  9 11  1  0  0  0  0
  9 26  1  0  0  0  0
  7  8  1  0  0  0  0
  7  9  1  0  0  0  0
 30 31  1  0  0  0  0
 30 32  1  0  0  0  0
 30 33  1  0  0  0  0
 28 29  1  0  0  0  0
 28 30  1  0  0  0  0
M  END
$$$$
default_name
  -OEChem-01062215323D

 33 33  0     1  0  0  0  0  0999 V2000
   -4.0702   -3.8485    1.4554 H   0  0  0  0  0  0  0  0  0  0  0  0
   -4.0012   -2.9605    0.8284 C   0  0  0  0  0  0  0  0  0  0  0  0
   -4.7652   -2.2435    1.1234 H   0  0  0  0  0  0  0  0  0  0  0  0
   -4.1352   -3.2385   -0.2156 H   0  0  0  0  0  0  0  0  0  0  0  0
   -2.6362   -2.3395    1.0094 C   0  0  0  0  0  0  0  0  0  0  0  0
   -1.8292   -2.8395    1.7814 O   0  0  0  0  0  0  0  0  0  0  0  0
   -2.3832   -1.2445    0.2964 N   0  0  0  0  0  0  0  0  0  0  0  0
   -3.1102   -0.8685   -0.2946 H   0  0  0  0  0  0  0  0  0  0  0  0
   -1.1292   -0.4875    0.3524 C   0  0  1  0  0  0  0  0  0  0  0  0
   -1.3098    0.4434    0.8912 H   0  0  0  0  0  0  0  0  0  0  0  0
   -0.0771   -1.2988    1.1279 C   0  0  0  0  0  0  0  0  0  0  0  0
    0.0066   -2.2900    0.6804 H   0  0  0  0  0  0  0  0  0  0  0  0
    0.8931   -0.8103    1.0238 H   0  0  0  0  0  0  0  0  0  0  0  0
   -0.3963   -1.4725    2.6003 C   0  0  0  0  0  0  0  0  0  0  0  0
   -0.1089   -0.4413    3.5169 C   0  0  0  0  0  0  0  0  0  0  0  0
    0.3656    0.4695    3.1758 H   0  0  0  0  0  0  0  0  0  0  0  0
   -0.4443   -0.5912    4.8767 C   0  0  0  0  0  0  0  0  0  0  0  0
   -0.2213    0.1998    5.5761 H   0  0  0  0  0  0  0  0  0  0  0  0
   -1.0727   -1.7753    5.3201 C   0  0  0  0  0  0  0  0  0  0  0  0
   -1.4028   -1.9284    6.6288 O   0  0  0  0  0  0  0  0  0  0  0  0
   -1.0781   -1.2074    7.1698 H   0  0  0  0  0  0  0  0  0  0  0  0
   -1.3640   -2.8042    4.4006 C   0  0  0  0  0  0  0  0  0  0  0  0
   -1.8407   -3.7066    4.7525 H   0  0  0  0  0  0  0  0  0  0  0  0
   -1.0233   -2.6532    3.0429 C   0  0  0  0  0  0  0  0  0  0  0  0
   -1.2390   -3.4479    2.3387 H   0  0  0  0  0  0  0  0  0  0  0  0
   -0.6423   -0.1239   -1.0602 C   0  0  0  0  0  0  0  0  0  0  0  0
    0.5126    0.2652   -1.2367 O   0  0  0  0  0  0  0  0  0  0  0  0
   -1.5198   -0.2466   -2.0642 N   0  0  0  0  0  0  0  0  0  0  0  0
   -2.4640   -0.5155   -1.8280 H   0  0  0  0  0  0  0  0  0  0  0  0
   -1.2217    0.0578   -3.4617 C   0  0  0  0  0  0  0  0  0  0  0  0
   -0.3047   -0.4508   -3.7644 H   0  0  0  0  0  0  0  0  0  0  0  0
   -2.0426   -0.2705   -4.1013 H   0  0  0  0  0  0  0  0  0  0  0  0
   -1.0798    1.1339   -3.5810 H   0  0  0  0  0  0  0  0  0  0  0  0
  5  6  2  0  0  0  0
  5  7  1  0  0  0  0
  2  3  1  0  0  0  0
  2  4  1  0  0  0  0
  2  5  1  0  0  0  0
  1  2  1  0  0  0  0
 26 27  2  0  0  0  0
 26 28  1  0  0  0  0
 24 25  1  0  0  0  0
 22 23  1  0  0  0  0
 22 24  2  0  0  0  0
 20 21  1  0  0  0  0
 19 20  1  0  0  0  0
 19 22  1  0  0  0  0
 17 18  1  0  0  0  0
 17 19  2  0  0  0  0
 15 16  1  0  0  0  0
 15 17  1  0  0  0  0
 14 15  2  0  0  0  0
 14 24  1  0  0  0  0
 11 12  1  0  0  0  0
 11 13  1  0  0  0  0
 11 14  1  0  0  0  0
  9 10  1  0  0  0  0
  9 11  1  0  0  0  0
  9 26  1  0  0  0  0
  7  8  1  0  0  0  0
  7  9  1  0  0  0  0
 30 31  1  0  0  0  0
 30 32  1  0  0  0  0
 30 33  1  0  0  0  0
 28 29  1  0  0  0  0
 28 30  1  0  0  0  0
M  END
$$$$
default_name
  -OEChem-01062215323D

 33 33  0     1  0  0  0  0  0999 V2000
   -4.0702   -3.8485    1.4554 H   0  0  0  0  0  0  0  0  0  0  0  0
   -4.0012   -2.9605    0.8284 C   0  0  0  0  0  0  0  0  0  0  0  0
   -4.7652   -2.2435    1.1234 H   0  0  0  0  0  0  0  0  0  0  0  0
   -4.1352   -3.2385   -0.2156 H   0  0  0  0  0  0  0  0  0  0  0  0
   -2.6362   -2.3395    1.0094 C   0  0  0  0  0  0  0  0  0  0  0  0
   -1.8292   -2.8395    1.7814 O   0  0  0  0  0  0  0  0  0  0  0  0
   -2.3832   -1.2445    0.2964 N   0  0  0  0  0  0  0  0  0  0  0  0
   -3.1102   -0.8685   -0.2946 H   0  0  0  0  0  0  0  0  0  0  0  0
   -1.1292   -0.4875    0.3524 C   0  0  1  0  0  0  0  0  0  0  0  0
   -1.3098    0.4434    0.8912 H   0  0  0  0  0  0  0  0  0  0  0  0
   -0.0771   -1.2988    1.1279 C   0  0  0  0  0  0  0  0  0  0  0  0
    0.0066   -2.2900    0.6804 H   0  0  0  0  0  0  0  0  0  0  0  0
    0.8931   -0.8103    1.0238 H   0  0  0  0  0  0  0  0  0  0  0  0
   -0.3963   -1.4725    2.6003 C   0  0  0  0  0  0  0  0  0  0  0  0
   -0.1089   -0.4413    3.5169 C   0  0  0  0  0  0  0  0  0  0  0  0
    0.3656    0.4695    3.1758 H   0  0  0  0  0  0  0  0  0  0  0  0
   -0.4443   -0.5912    4.8767 C   0  0  0  0  0  0  0  0  0  0  0  0
   -0.2213    0.1998    5.5761 H   0  0  0  0  0  0  0  0  0  0  0  0
   -1.0727   -1.7753    5.3201 C   0  0  0  0  0  0  0  0  0  0  0  0
   -1.4028   -1.9284    6.6288 O   0  0  0  0  0  0  0  0  0  0  0  0
   -1.0781   -1.2074    7.1698 H   0  0  0  0  0  0  0  0  0  0  0  0
   -1.3640   -2.8042    4.4006 C   0  0  0  0  0  0  0  0  0  0  0  0
   -1.8407   -3.7066    4.7525 H   0  0  0  0  0  0  0  0  0  0  0  0
   -1.0233   -2.6532    3.0429 C   0  0  0  0  0  0  0  0  0  0  0  0
   -1.2390   -3.4479    2.3387 H   0  0  0  0  0  0  0  0  0  0  0  0
   -0.6423   -0.1239   -1.0602 C   0  0  0  0  0  0  0  0  0  0  0  0
    0.5616   -0.0032   -1.2888 O   0  0  0  0  0  0  0  0  0  0  0  0
   -1.5739    0.0534   -2.0056 N   0  0  0  0  0  0  0  0  0  0  0  0
   -2.5416   -0.0058   -1.7236 H   0  0  0  0  0  0  0  0  0  0  0  0
   -1.2834    0.4028   -3.3942 C   0  0  0  0  0  0  0  0  0  0  0  0
   -0.5322   -0.2780   -3.7983 H   0  0  0  0  0  0  0  0  0  0  0  0
   -2.1909    0.3354   -3.9965 H   0  0  0  0  0  0  0  0  0  0  0  0
   -0.8934    1.4216   -3.4427 H   0  0  0  0  0  0  0  0  0  0  0  0
  5  6  2  0  0  0  0
  5  7  1  0  0  0  0
  2  3  1  0  0  0  0
  2  4  1  0  0  0  0
  2  5  1  0  0  0  0
  1  2  1  0  0  0  0
 26 27  2  0  0  0  0
 26 28  1  0  0  0  0
 24 25  1  0  0  0  0
 22 23  1  0  0  0  0
 22 24  2  0  0  0  0
 20 21  1  0  0  0  0
 19 20  1  0  0  0  0
 19 22  1  0  0  0  0
 17 18  1  0  0  0  0
 17 19  2  0  0  0  0
 15 16  1  0  0  0  0
 15 17  1  0  0  0  0
 14 15  2  0  0  0  0
 14 24  1  0  0  0  0
 11 12  1  0  0  0  0
 11 13  1  0  0  0  0
 11 14  1  0  0  0  0
  9 10  1  0  0  0  0
  9 11  1  0  0  0  0
  9 26  1  0  0  0  0
  7  8  1  0  0  0  0
  7  9  1  0  0  0  0
 30 31  1  0  0  0  0
 30 32  1  0  0  0  0
 30 33  1  0  0  0  0
 28 29  1  0  0  0  0
 28 30  1  0  0  0  0
M  END
$$$$
default_name
  -OEChem-01062215323D

 33 33  0     1  0  0  0  0  0999 V2000
   -4.0702   -3.8485    1.4554 H   0  0  0  0  0  0  0  0  0  0  0  0
   -4.0012   -2.9605    0.8284 C   0  0  0  0  0  0  0  0  0  0  0  0
   -4.7652   -2.2435    1.1234 H   0  0  0  0  0  0  0  0  0  0  0  0
   -4.1352   -3.2385   -0.2156 H   0  0  0  0  0  0  0  0  0  0  0  0
   -2.6362   -2.3395    1.0094 C   0  0  0  0  0  0  0  0  0  0  0  0
   -1.8292   -2.8395    1.7814 O   0  0  0  0  0  0  0  0  0  0  0  0
   -2.3832   -1.2445    0.2964 N   0  0  0  0  0  0  0  0  0  0  0  0
   -3.1102   -0.8685   -0.2946 H   0  0  0  0  0  0  0  0  0  0  0  0
   -1.1292   -0.4875    0.3524 C   0  0  1  0  0  0  0  0  0  0  0  0
   -1.3098    0.4434    0.8912 H   0  0  0  0  0  0  0  0  0  0  0  0
   -0.0771   -1.2988    1.1279 C   0  0  0  0  0  0  0  0  0  0  0  0
    0.0066   -2.2900    0.6804 H   0  0  0  0  0  0  0  0  0  0  0  0
    0.8931   -0.8103    1.0238 H   0  0  0  0  0  0  0  0  0  0  0  0
   -0.3963   -1.4725    2.6003 C   0  0  0  0  0  0  0  0  0  0  0  0
   -0.1089   -0.4413    3.5169 C   0  0  0  0  0  0  0  0  0  0  0  0
    0.3656    0.4695    3.1758 H   0  0  0  0  0  0  0  0  0  0  0  0
   -0.4443   -0.5912    4.8767 C   0  0  0  0  0  0  0  0  0  0  0  0
   -0.2213    0.1998    5.5761 H   0  0  0  0  0  0  0  0  0  0  0  0
   -1.0727   -1.7753    5.3201 C   0  0  0  0  0  0  0  0  0  0  0  0
   -1.4028   -1.9284    6.6288 O   0  0  0  0  0  0  0  0  0  0  0  0
   -1.0781   -1.2074    7.1698 H   0  0  0  0  0  0  0  0  0  0  0  0
   -1.3640   -2.8042    4.4006 C   0  0  0  0  0  0  0  0  0  0  0  0
   -1.8407   -3.7066    4.7525 H   0  0  0  0  0  0  0  0  0  0  0  0
   -1.0233   -2.6532    3.0429 C   0  0  0  0  0  0  0  0  0  0  0  0
   -1.2390   -3.4479    2.3387 H   0  0  0  0  0  0  0  0  0  0  0  0
   -0.6423   -0.1239   -1.0602 C   0  0  0  0  0  0  0  0  0  0  0  0
    0.5420   -0.2698   -1.3642 O   0  0  0  0  0  0  0  0  0  0  0  0
   -1.5512    0.3513   -1.9211 N   0  0  0  0  0  0  0  0  0  0  0  0
   -2.4890    0.4964   -1.5762 H   0  0  0  0  0  0  0  0  0  0  0  0
   -1.2569    0.7452   -3.2969 C   0  0  0  0  0  0  0  0  0  0  0  0
   -0.7130   -0.0542   -3.8031 H   0  0  0  0  0  0  0  0  0  0  0  0
   -2.1836    0.9472   -3.8365 H   0  0  0  0  0  0  0  0  0  0  0  0
   -0.6365    1.6438   -3.2970 H   0  0  0  0  0  0  0  0  0  0  0  0
  5  6  2  0  0  0  0
  5  7  1  0  0  0  0
  2  3  1  0  0  0  0
  2  4  1  0  0  0  0
  2  5  1  0  0  0  0
  1  2  1  0  0  0  0
 26 27  2  0  0  0  0
 26 28  1  0  0  0  0
 24 25  1  0  0  0  0
 22 23  1  0  0  0  0
 22 24  2  0  0  0  0
 20 21  1  0  0  0  0
 19 20  1  0  0  0  0
 19 22  1  0  0  0  0
 17 18  1  0  0  0  0
 17 19  2  0  0  0  0
 15 16  1  0  0  0  0
 15 17  1  0  0  0  0
 14 15  2  0  0  0  0
 14 24  1  0  0  0  0
 11 12  1  0  0  0  0
 11 13  1  0  0  0  0
 11 14  1  0  0  0  0
  9 10  1  0  0  0  0
  9 11  1  0  0  0  0
  9 26  1  0  0  0  0
  7  8  1  0  0  0  0
  7  9  1  0  0  0  0
 30 31  1  0  0  0  0
 30 32  1  0  0  0  0
 30 33  1  0  0  0  0
 28 29  1  0  0  0  0
 28 30  1  0  0  0  0
M  END
$$$$
default_name
  -OEChem-01062215323D

 33 33  0     1  0  0  0  0  0999 V2000
   -4.0702   -3.8485    1.4554 H   0  0  0  0  0  0  0  0  0  0  0  0
   -4.0012   -2.9605    0.8284 C   0  0  0  0  0  0  0  0  0  0  0  0
   -4.7652   -2.2435    1.1234 H   0  0  0  0  0  0  0  0  0  0  0  0
   -4.1352   -3.2385   -0.2156 H   0  0  0  0  0  0  0  0  0  0  0  0
   -2.6362   -2.3395    1.0094 C   0  0  0  0  0  0  0  0  0  0  0  0
   -1.8292   -2.8395    1.7814 O   0  0  0  0  0  0  0  0  0  0  0  0
   -2.3832   -1.2445    0.2964 N   0  0  0  0  0  0  0  0  0  0  0  0
   -3.1102   -0.8685   -0.2946 H   0  0  0  0  0  0  0  0  0  0  0  0
   -1.1292   -0.4875    0.3524 C   0  0  1  0  0  0  0  0  0  0  0  0
   -1.3098    0.4434    0.8912 H   0  0  0  0  0  0  0  0  0  0  0  0
   -0.0771   -1.2988    1.1279 C   0  0  0  0  0  0  0  0  0  0  0  0
    0.0066   -2.2900    0.6804 H   0  0  0  0  0  0  0  0  0  0  0  0
    0.8931   -0.8103    1.0238 H   0  0  0  0  0  0  0  0  0  0  0  0
   -0.3963   -1.4725    2.6003 C   0  0  0  0  0  0  0  0  0  0  0  0
   -0.1089   -0.4413    3.5169 C   0  0  0  0  0  0  0  0  0  0  0  0
    0.3656    0.4695    3.1758 H   0  0  0  0  0  0  0  0  0  0  0  0
   -0.4443   -0.5912    4.8767 C   0  0  0  0  0  0  0  0  0  0  0  0
   -0.2213    0.1998    5.5761 H   0  0  0  0  0  0  0  0  0  0  0  0
   -1.0727   -1.7753    5.3201 C   0  0  0  0  0  0  0  0  0  0  0  0
   -1.4028   -1.9284    6.6288 O   0  0  0  0  0  0  0  0  0  0  0  0
   -1.0781   -1.2074    7.1698 H   0  0  0  0  0  0  0  0  0  0  0  0
   -1.3640   -2.8042    4.4006 C   0  0  0  0  0  0  0  0  0  0  0  0
   -1.8407   -3.7066    4.7525 H   0  0  0  0  0  0  0  0  0  0  0  0
   -1.0233   -2.6532    3.0429 C   0  0  0  0  0  0  0  0  0  0  0  0
   -1.2390   -3.4479    2.3387 H   0  0  0  0  0  0  0  0  0  0  0  0
   -0.6423   -0.1239   -1.0602 C   0  0  0  0  0  0  0  0  0  0  0  0
    0.4550   -0.5165   -1.4577 O   0  0  0  0  0  0  0  0  0  0  0  0
   -1.4532    0.6267   -1.8164 N   0  0  0  0  0  0  0  0  0  0  0  0
   -2.3098    0.9569   -1.3959 H   0  0  0  0  0  0  0  0  0  0  0  0
   -1.1439    1.0617   -3.1765 C   0  0  0  0  0  0  0  0  0  0  0  0
   -0.8348    0.2053   -3.7783 H   0  0  0  0  0  0  0  0  0  0  0  0
   -2.0213    1.5234   -3.6323 H   0  0  0  0  0  0  0  0  0  0  0  0
   -0.3265    1.7855   -3.1537 H   0  0  0  0  0  0  0  0  0  0  0  0
  5  6  2  0  0  0  0
  5  7  1  0  0  0  0
  2  3  1  0  0  0  0
  2  4  1  0  0  0  0
  2  5  1  0  0  0  0
  1  2  1  0  0  0  0
 26 27  2  0  0  0  0
 26 28  1  0  0  0  0
 24 25  1  0  0  0  0
 22 23  1  0  0  0  0
 22 24  2  0  0  0  0
 20 21  1  0  0  0  0
 19 20  1  0  0  0  0
 19 22  1  0  0  0  0
 17 18  1  0  0  0  0
 17 19  2  0  0  0  0
 15 16  1  0  0  0  0
 15 17  1  0  0  0  0
 14 15  2  0  0  0  0
 14 24  1  0  0  0  0
 11 12  1  0  0  0  0
 11 13  1  0  0  0  0
 11 14  1  0  0  0  0
  9 10  1  0  0  0  0
  9 11  1  0  0  0  0
  9 26  1  0  0  0  0
  7  8  1  0  0  0  0
  7  9  1  0  0  0  0
 30 31  1  0  0  0  0
 30 32  1  0  0  0  0
 30 33  1  0  0  0  0
 28 29  1  0  0  0  0
 28 30  1  0  0  0  0
M  END
$$$$
default_name
  -OEChem-01062215323D

 33 33  0     1  0  0  0  0  0999 V2000
   -4.0702   -3.8485    1.4554 H   0  0  0  0  0  0  0  0  0  0  0  0
   -4.0012   -2.9605    0.8284 C   0  0  0  0  0  0  0  0  0  0  0  0
   -4.7652   -2.2435    1.1234 H   0  0  0  0  0  0  0  0  0  0  0  0
   -4.1352   -3.2385   -0.2156 H   0  0  0  0  0  0  0  0  0  0  0  0
   -2.6362   -2.3395    1.0094 C   0  0  0  0  0  0  0  0  0  0  0  0
   -1.8292   -2.8395    1.7814 O   0  0  0  0  0  0  0  0  0  0  0  0
   -2.3832   -1.2445    0.2964 N   0  0  0  0  0  0  0  0  0  0  0  0
   -3.1102   -0.8685   -0.2946 H   0  0  0  0  0  0  0  0  0  0  0  0
   -1.1292   -0.4875    0.3524 C   0  0  1  0  0  0  0  0  0  0  0  0
   -1.3098    0.4434    0.8912 H   0  0  0  0  0  0  0  0  0  0  0  0
   -0.0771   -1.2988    1.1279 C   0  0  0  0  0  0  0  0  0  0  0  0
    0.0066   -2.2900    0.6804 H   0  0  0  0  0  0  0  0  0  0  0  0
    0.8931   -0.8103    1.0238 H   0  0  0  0  0  0  0  0  0  0  0  0
   -0.3963   -1.4725    2.6003 C   0  0  0  0  0  0  0  0  0  0  0  0
   -0.1089   -0.4413    3.5169 C   0  0  0  0  0  0  0  0  0  0  0  0
    0.3656    0.4695    3.1758 H   0  0  0  0  0  0  0  0  0  0  0  0
   -0.4443   -0.5912    4.8767 C   0  0  0  0  0  0  0  0  0  0  0  0
   -0.2213    0.1998    5.5761 H   0  0  0  0  0  0  0  0  0  0  0  0
   -1.0727   -1.7753    5.3201 C   0  0  0  0  0  0  0  0  0  0  0  0
   -1.4028   -1.9284    6.6288 O   0  0  0  0  0  0  0  0  0  0  0  0
   -1.0781   -1.2074    7.1698 H   0  0  0  0  0  0  0  0  0  0  0  0
   -1.3640   -2.8042    4.4006 C   0  0  0  0  0  0  0  0  0  0  0  0
   -1.8407   -3.7066    4.7525 H   0  0  0  0  0  0  0  0  0  0  0  0
   -1.0233   -2.6532    3.0429 C   0  0  0  0  0  0  0  0  0  0  0  0
   -1.2390   -3.4479    2.3387 H   0  0  0  0  0  0  0  0  0  0  0  0
   -0.6423   -0.1239   -1.0602 C   0  0  0  0  0  0  0  0  0  0  0  0
    0.3067   -0.7264   -1.5628 O   0  0  0  0  0  0  0  0  0  0  0  0
   -1.2868    0.8609   -1.6988 N   0  0  0  0  0  0  0  0  0  0  0  0
   -2.0162    1.3443   -1.1950 H   0  0  0  0  0  0  0  0  0  0  0  0
   -0.9521    1.3307   -3.0412 C   0  0  0  0  0  0  0  0  0  0  0  0
   -0.8891    0.4829   -3.7256 H   0  0  0  0  0  0  0  0  0  0  0  0
   -1.7151    2.0246   -3.3977 H   0  0  0  0  0  0  0  0  0  0  0  0
    0.0153    1.8369   -3.0226 H   0  0  0  0  0  0  0  0  0  0  0  0
  5  6  2  0  0  0  0
  5  7  1  0  0  0  0
  2  3  1  0  0  0  0
  2  4  1  0  0  0  0
  2  5  1  0  0  0  0
  1  2  1  0  0  0  0
 26 27  2  0  0  0  0
 26 28  1  0  0  0  0
 24 25  1  0  0  0  0
 22 23  1  0  0  0  0
 22 24  2  0  0  0  0
 20 21  1  0  0  0  0
 19 20  1  0  0  0  0
 19 22  1  0  0  0  0
 17 18  1  0  0  0  0
 17 19  2  0  0  0  0
 15 16  1  0  0  0  0
 15 17  1  0  0  0  0
 14 15  2  0  0  0  0
 14 24  1  0  0  0  0
 11 12  1  0  0  0  0
 11 13  1  0  0  0  0
 11 14  1  0  0  0  0
  9 10  1  0  0  0  0
  9 11  1  0  0  0  0
  9 26  1  0  0  0  0
  7  8  1  0  0  0  0
  7  9  1  0  0  0  0
 30 31  1  0  0  0  0
 30 32  1  0  0  0  0
 30 33  1  0  0  0  0
 28 29  1  0  0  0  0
 28 30  1  0  0  0  0
M  END
$$$$
default_name
  -OEChem-01062215323D

 33 33  0     1  0  0  0  0  0999 V2000
   -4.0702   -3.8485    1.4554 H   0  0  0  0  0  0  0  0  0  0  0  0
   -4.0012   -2.9605    0.8284 C   0  0  0  0  0  0  0  0  0  0  0  0
   -4.7652   -2.2435    1.1234 H   0  0  0  0  0  0  0  0  0  0  0  0
   -4.1352   -3.2385   -0.2156 H   0  0  0  0  0  0  0  0  0  0  0  0
   -2.6362   -2.3395    1.0094 C   0  0  0  0  0  0  0  0  0  0  0  0
   -1.8292   -2.8395    1.7814 O   0  0  0  0  0  0  0  0  0  0  0  0
   -2.3832   -1.2445    0.2964 N   0  0  0  0  0  0  0  0  0  0  0  0
   -3.1102   -0.8685   -0.2946 H   0  0  0  0  0  0  0  0  0  0  0  0
   -1.1292   -0.4875    0.3524 C   0  0  1  0  0  0  0  0  0  0  0  0
   -1.3098    0.4434    0.8912 H   0  0  0  0  0  0  0  0  0  0  0  0
   -0.0771   -1.2988    1.1279 C   0  0  0  0  0  0  0  0  0  0  0  0
    0.0066   -2.2900    0.6804 H   0  0  0  0  0  0  0  0  0  0  0  0
    0.8931   -0.8103    1.0238 H   0  0  0  0  0  0  0  0  0  0  0  0
   -0.3963   -1.4725    2.6003 C   0  0  0  0  0  0  0  0  0  0  0  0
   -0.1089   -0.4413    3.5169 C   0  0  0  0  0  0  0  0  0  0  0  0
    0.3656    0.4695    3.1758 H   0  0  0  0  0  0  0  0  0  0  0  0
   -0.4443   -0.5912    4.8767 C   0  0  0  0  0  0  0  0  0  0  0  0
   -0.2213    0.1998    5.5761 H   0  0  0  0  0  0  0  0  0  0  0  0
   -1.0727   -1.7753    5.3201 C   0  0  0  0  0  0  0  0  0  0  0  0
   -1.4028   -1.9284    6.6288 O   0  0  0  0  0  0  0  0  0  0  0  0
   -1.0781   -1.2074    7.1698 H   0  0  0  0  0  0  0  0  0  0  0  0
   -1.3640   -2.8042    4.4006 C   0  0  0  0  0  0  0  0  0  0  0  0
   -1.8407   -3.7066    4.7525 H   0  0  0  0  0  0  0  0  0  0  0  0
   -1.0233   -2.6532    3.0429 C   0  0  0  0  0  0  0  0  0  0  0  0
   -1.2390   -3.4479    2.3387 H   0  0  0  0  0  0  0  0  0  0  0  0
   -0.6423   -0.1239   -1.0602 C   0  0  0  0  0  0  0  0  0  0  0  0
    0.1070   -0.8853   -1.6726 O   0  0  0  0  0  0  0  0  0  0  0  0
   -1.0631    1.0379   -1.5761 N   0  0  0  0  0  0  0  0  0  0  0  0
   -1.6281    1.6323   -0.9871 H   0  0  0  0  0  0  0  0  0  0  0  0
   -0.6946    1.5338   -2.9002 C   0  0  0  0  0  0  0  0  0  0  0  0
   -0.8724    0.7596   -3.6486 H   0  0  0  0  0  0  0  0  0  0  0  0
   -1.2858    2.4167   -3.1488 H   0  0  0  0  0  0  0  0  0  0  0  0
    0.3657    1.7945   -2.9127 H   0  0  0  0  0  0  0  0  0  0  0  0
  5  6  2  0  0  0  0
  5  7  1  0  0  0  0
  2  3  1  0  0  0  0
  2  4  1  0  0  0  0
  2  5  1  0  0  0  0
  1  2  1  0  0  0  0
 26 27  2  0  0  0  0
 26 28  1  0  0  0  0
 24 25  1  0  0  0  0
 22 23  1  0  0  0  0
 22 24  2  0  0  0  0
 20 21  1  0  0  0  0
 19 20  1  0  0  0  0
 19 22  1  0  0  0  0
 17 18  1  0  0  0  0
 17 19  2  0  0  0  0
 15 16  1  0  0  0  0
 15 17  1  0  0  0  0
 14 15  2  0  0  0  0
 14 24  1  0  0  0  0
 11 12  1  0  0  0  0
 11 13  1  0  0  0  0
 11 14  1  0  0  0  0
  9 10  1  0  0  0  0
  9 11  1  0  0  0  0
  9 26  1  0  0  0  0
  7  8  1  0  0  0  0
  7  9  1  0  0  0  0
 30 31  1  0  0  0  0
 30 32  1  0  0  0  0
 30 33  1  0  0  0  0
 28 29  1  0  0  0  0
 28 30  1  0  0  0  0
M  END
$$$$
default_name
  -OEChem-01062215323D

 33 33  0     1  0  0  0  0  0999 V2000
   -4.0702   -3.8485    1.4554 H   0  0  0  0  0  0  0  0  0  0  0  0
   -4.0012   -2.9605    0.8284 C   0  0  0  0  0  0  0  0  0  0  0  0
   -4.7652   -2.2435    1.1234 H   0  0  0  0  0  0  0  0  0  0  0  0
   -4.1352   -3.2385   -0.2156 H   0  0  0  0  0  0  0  0  0  0  0  0
   -2.6362   -2.3395    1.0094 C   0  0  0  0  0  0  0  0  0  0  0  0
   -1.8292   -2.8395    1.7814 O   0  0  0  0  0  0  0  0  0  0  0  0
   -2.3832   -1.2445    0.2964 N   0  0  0  0  0  0  0  0  0  0  0  0
   -3.1102   -0.8685   -0.2946 H   0  0  0  0  0  0  0  0  0  0  0  0
   -1.1292   -0.4875    0.3524 C   0  0  1  0  0  0  0  0  0  0  0  0
   -1.3098    0.4434    0.8912 H   0  0  0  0  0  0  0  0  0  0  0  0
   -0.0771   -1.2988    1.1279 C   0  0  0  0  0  0  0  0  0  0  0  0
    0.0066   -2.2900    0.6804 H   0  0  0  0  0  0  0  0  0  0  0  0
    0.8931   -0.8103    1.0238 H   0  0  0  0  0  0  0  0  0  0  0  0
   -0.3963   -1.4725    2.6003 C   0  0  0  0  0  0  0  0  0  0  0  0
   -0.1089   -0.4413    3.5169 C   0  0  0  0  0  0  0  0  0  0  0  0
    0.3656    0.4695    3.1758 H   0  0  0  0  0  0  0  0  0  0  0  0
   -0.4443   -0.5912    4.8767 C   0  0  0  0  0  0  0  0  0  0  0  0
   -0.2213    0.1998    5.5761 H   0  0  0  0  0  0  0  0  0  0  0  0
   -1.0727   -1.7753    5.3201 C   0  0  0  0  0  0  0  0  0  0  0  0
   -1.4028   -1.9284    6.6288 O   0  0  0  0  0  0  0  0  0  0  0  0
   -1.0781   -1.2074    7.1698 H   0  0  0  0  0  0  0  0  0  0  0  0
   -1.3640   -2.8042    4.4006 C   0  0  0  0  0  0  0  0  0  0  0  0
   -1.8407   -3.7066    4.7525 H   0  0  0  0  0  0  0  0  0  0  0  0
   -1.0233   -2.6532    3.0429 C   0  0  0  0  0  0  0  0  0  0  0  0
   -1.2390   -3.4479    2.3387 H   0  0  0  0  0  0  0  0  0  0  0  0
   -0.6423   -0.1239   -1.0602 C   0  0  0  0  0  0  0  0  0  0  0  0
   -0.1303   -0.9823   -1.7794 O   0  0  0  0  0  0  0  0  0  0  0  0
   -0.7975    1.1456   -1.4568 N   0  0  0  0  0  0  0  0  0  0  0  0
   -1.1721    1.8011   -0.7865 H   0  0  0  0  0  0  0  0  0  0  0  0
   -0.3890    1.6572   -2.7630 C   0  0  0  0  0  0  0  0  0  0  0  0
   -0.7858    1.0166   -3.5526 H   0  0  0  0  0  0  0  0  0  0  0  0
   -0.7626    2.6729   -2.9025 H   0  0  0  0  0  0  0  0  0  0  0  0
    0.7008    1.6613   -2.8315 H   0  0  0  0  0  0  0  0  0  0  0  0
  5  6  2  0  0  0  0
  5  7  1  0  0  0  0
  2  3  1  0  0  0  0
  2  4  1  0  0  0  0
  2  5  1  0  0  0  0
  1  2  1  0  0  0  0
 26 27  2  0  0  0  0
 26 28  1  0  0  0  0
 24 25  1  0  0  0  0
 22 23  1  0  0  0  0
 22 24  2  0  0  0  0
 20 21  1  0  0  0  0
 19 20  1  0  0  0  0
 19 22  1  0  0  0  0
 17 18  1  0  0  0  0
 17 19  2  0  0  0  0
 15 16  1  0  0  0  0
 15 17  1  0  0  0  0
 14 15  2  0  0  0  0
 14 24  1  0  0  0  0
 11 12  1  0  0  0  0
 11 13  1  0  0  0  0
 11 14  1  0  0  0  0
  9 10  1  0  0  0  0
  9 11  1  0  0  0  0
  9 26  1  0  0  0  0
  7  8  1  0  0  0  0
  7  9  1  0  0  0  0
 30 31  1  0  0  0  0
 30 32  1  0  0  0  0
 30 33  1  0  0  0  0
 28 29  1  0  0  0  0
 28 30  1  0  0  0  0
M  END
$$$$
default_name
  -OEChem-01062215323D

 33 33  0     1  0  0  0  0  0999 V2000
   -4.0702   -3.8485    1.4554 H   0  0  0  0  0  0  0  0  0  0  0  0
   -4.0012   -2.9605    0.8284 C   0  0  0  0  0  0  0  0  0  0  0  0
   -4.7652   -2.2435    1.1234 H   0  0  0  0  0  0  0  0  0  0  0  0
   -4.1352   -3.2385   -0.2156 H   0  0  0  0  0  0  0  0  0  0  0  0
   -2.6362   -2.3395    1.0094 C   0  0  0  0  0  0  0  0  0  0  0  0
   -1.8292   -2.8395    1.7814 O   0  0  0  0  0  0  0  0  0  0  0  0
   -2.3832   -1.2445    0.2964 N   0  0  0  0  0  0  0  0  0  0  0  0
   -3.1102   -0.8685   -0.2946 H   0  0  0  0  0  0  0  0  0  0  0  0
   -1.1292   -0.4875    0.3524 C   0  0  1  0  0  0  0  0  0  0  0  0
   -1.3098    0.4434    0.8912 H   0  0  0  0  0  0  0  0  0  0  0  0
   -0.0771   -1.2988    1.1279 C   0  0  0  0  0  0  0  0  0  0  0  0
    0.0066   -2.2900    0.6804 H   0  0  0  0  0  0  0  0  0  0  0  0
    0.8931   -0.8103    1.0238 H   0  0  0  0  0  0  0  0  0  0  0  0
   -0.3963   -1.4725    2.6003 C   0  0  0  0  0  0  0  0  0  0  0  0
   -0.1089   -0.4413    3.5169 C   0  0  0  0  0  0  0  0  0  0  0  0
    0.3656    0.4695    3.1758 H   0  0  0  0  0  0  0  0  0  0  0  0
   -0.4443   -0.5912    4.8767 C   0  0  0  0  0  0  0  0  0  0  0  0
   -0.2213    0.1998    5.5761 H   0  0  0  0  0  0  0  0  0  0  0  0
   -1.0727   -1.7753    5.3201 C   0  0  0  0  0  0  0  0  0  0  0  0
   -1.4028   -1.9284    6.6288 O   0  0  0  0  0  0  0  0  0  0  0  0
   -1.0781   -1.2074    7.1698 H   0  0  0  0  0  0  0  0  0  0  0  0
   -1.3640   -2.8042    4.4006 C   0  0  0  0  0  0  0  0  0  0  0  0
   -1.8407   -3.7066    4.7525 H   0  0  0  0  0  0  0  0  0  0  0  0
   -1.0233   -2.6532    3.0429 C   0  0  0  0  0  0  0  0  0  0  0  0
   -1.2390   -3.4479    2.3387 H   0  0  0  0  0  0  0  0  0  0  0  0
   -0.6423   -0.1239   -1.0602 C   0  0  0  0  0  0  0  0  0  0  0  0
   -0.3891   -1.0109   -1.8759 O   0  0  0  0  0  0  0  0  0  0  0  0
   -0.5080    1.1767   -1.3490 N   0  0  0  0  0  0  0  0  0  0  0  0
   -0.6793    1.8394   -0.6067 H   0  0  0  0  0  0  0  0  0  0  0  0
   -0.0561    1.6925   -2.6392 C   0  0  0  0  0  0  0  0  0  0  0  0
   -0.6351    1.2364   -3.4441 H   0  0  0  0  0  0  0  0  0  0  0  0
   -0.1813    2.7759   -2.6756 H   0  0  0  0  0  0  0  0  0  0  0  0
    0.9978    1.4463   -2.7844 H   0  0  0  0  0  0  0  0  0  0  0  0
  5  6  2  0  0  0  0
  5  7  1  0  0  0  0
  2  3  1  0  0  0  0
  2  4  1  0  0  0  0
  2  5  1  0  0  0  0
  1  2  1  0  0  0  0
 26 27  2  0  0  0  0
 26 28  1  0  0  0  0
 24 25  1  0  0  0  0
 22 23  1  0  0  0  0
 22 24  2  0  0  0  0
 20 21  1  0  0  0  0
 19 20  1  0  0  0  0
 19 22  1  0  0  0  0
 17 18  1  0  0  0  0
 17 19  2  0  0  0  0
 15 16  1  0  0  0  0
 15 17  1  0  0  0  0
 14 15  2  0  0  0  0
 14 24  1  0  0  0  0
 11 12  1  0  0  0  0
 11 13  1  0  0  0  0
 11 14  1  0  0  0  0
  9 10  1  0  0  0  0
  9 11  1  0  0  0  0
  9 26  1  0  0  0  0
  7  8  1  0  0  0  0
  7  9  1  0  0  0  0
 30 31  1  0  0  0  0
 30 32  1  0  0  0  0
 30 33  1  0  0  0  0
 28 29  1  0  0  0  0
 28 30  1  0  0  0  0
M  END
$$$$
default_name
  -OEChem-01062215323D

 33 33  0     1  0  0  0  0  0999 V2000
   -4.0702   -3.8485    1.4554 H   0  0  0  0  0  0  0  0  0  0  0  0
   -4.0012   -2.9605    0.8284 C   0  0  0  0  0  0  0  0  0  0  0  0
   -4.7652   -2.2435    1.1234 H   0  0  0  0  0  0  0  0  0  0  0  0
   -4.1352   -3.2385   -0.2156 H   0  0  0  0  0  0  0  0  0  0  0  0
   -2.6362   -2.3395    1.0094 C   0  0  0  0  0  0  0  0  0  0  0  0
   -1.8292   -2.8395    1.7814 O   0  0  0  0  0  0  0  0  0  0  0  0
   -2.3832   -1.2445    0.2964 N   0  0  0  0  0  0  0  0  0  0  0  0
   -3.1102   -0.8685   -0.2946 H   0  0  0  0  0  0  0  0  0  0  0  0
   -1.1292   -0.4875    0.3524 C   0  0  1  0  0  0  0  0  0  0  0  0
   -1.3098    0.4434    0.8912 H   0  0  0  0  0  0  0  0  0  0  0  0
   -0.0771   -1.2988    1.1279 C   0  0  0  0  0  0  0  0  0  0  0  0
    0.0066   -2.2900    0.6804 H   0  0  0  0  0  0  0  0  0  0  0  0
    0.8931   -0.8103    1.0238 H   0  0  0  0  0  0  0  0  0  0  0  0
   -0.3963   -1.4725    2.6003 C   0  0  0  0  0  0  0  0  0  0  0  0
   -0.1089   -0.4413    3.5169 C   0  0  0  0  0  0  0  0  0  0  0  0
    0.3656    0.4695    3.1758 H   0  0  0  0  0  0  0  0  0  0  0  0
   -0.4443   -0.5912    4.8767 C   0  0  0  0  0  0  0  0  0  0  0  0
   -0.2213    0.1998    5.5761 H   0  0  0  0  0  0  0  0  0  0  0  0
   -1.0727   -1.7753    5.3201 C   0  0  0  0  0  0  0  0  0  0  0  0
   -1.4028   -1.9284    6.6288 O   0  0  0  0  0  0  0  0  0  0  0  0
   -1.0781   -1.2074    7.1698 H   0  0  0  0  0  0  0  0  0  0  0  0
   -1.3640   -2.8042    4.4006 C   0  0  0  0  0  0  0  0  0  0  0  0
   -1.8407   -3.7066    4.7525 H   0  0  0  0  0  0  0  0  0  0  0  0
   -1.0233   -2.6532    3.0429 C   0  0  0  0  0  0  0  0  0  0  0  0
   -1.2390   -3.4479    2.3387 H   0  0  0  0  0  0  0  0  0  0  0  0
   -0.6423   -0.1239   -1.0602 C   0  0  0  0  0  0  0  0  0  0  0  0
   -0.6519   -0.9690   -1.9557 O   0  0  0  0  0  0  0  0  0  0  0  0
   -0.2144    1.1291   -1.2601 N   0  0  0  0  0  0  0  0  0  0  0  0
   -0.1831    1.7444   -0.4601 H   0  0  0  0  0  0  0  0  0  0  0  0
    0.2815    1.6373   -2.5370 C   0  0  0  0  0  0  0  0  0  0  0  0
   -0.4307    1.4040   -3.3305 H   0  0  0  0  0  0  0  0  0  0  0  0
    0.4186    2.7185   -2.4835 H   0  0  0  0  0  0  0  0  0  0  0  0
    1.2364    1.1641   -2.7748 H   0  0  0  0  0  0  0  0  0  0  0  0
  5  6  2  0  0  0  0
  5  7  1  0  0  0  0
  2  3  1  0  0  0  0
  2  4  1  0  0  0  0
  2  5  1  0  0  0  0
  1  2  1  0  0  0  0
 26 27  2  0  0  0  0
 26 28  1  0  0  0  0
 24 25  1  0  0  0  0
 22 23  1  0  0  0  0
 22 24  2  0  0  0  0
 20 21  1  0  0  0  0
 19 20  1  0  0  0  0
 19 22  1  0  0  0  0
 17 18  1  0  0  0  0
 17 19  2  0  0  0  0
 15 16  1  0  0  0  0
 15 17  1  0  0  0  0
 14 15  2  0  0  0  0
 14 24  1  0  0  0  0
 11 12  1  0  0  0  0
 11 13  1  0  0  0  0
 11 14  1  0  0  0  0
  9 10  1  0  0  0  0
  9 11  1  0  0  0  0
  9 26  1  0  0  0  0
  7  8  1  0  0  0  0
  7  9  1  0  0  0  0
 30 31  1  0  0  0  0
 30 32  1  0  0  0  0
 30 33  1  0  0  0  0
 28 29  1  0  0  0  0
 28 30  1  0  0  0  0
M  END
$$$$
default_name
  -OEChem-01062215323D

 33 33  0     1  0  0  0  0  0999 V2000
   -4.0702   -3.8485    1.4554 H   0  0  0  0  0  0  0  0  0  0  0  0
   -4.0012   -2.9605    0.8284 C   0  0  0  0  0  0  0  0  0  0  0  0
   -4.7652   -2.2435    1.1234 H   0  0  0  0  0  0  0  0  0  0  0  0
   -4.1352   -3.2385   -0.2156 H   0  0  0  0  0  0  0  0  0  0  0  0
   -2.6362   -2.3395    1.0094 C   0  0  0  0  0  0  0  0  0  0  0  0
   -1.8292   -2.8395    1.7814 O   0  0  0  0  0  0  0  0  0  0  0  0
   -2.3832   -1.2445    0.2964 N   0  0  0  0  0  0  0  0  0  0  0  0
   -3.1102   -0.8685   -0.2946 H   0  0  0  0  0  0  0  0  0  0  0  0
   -1.1292   -0.4875    0.3524 C   0  0  1  0  0  0  0  0  0  0  0  0
   -1.3098    0.4434    0.8912 H   0  0  0  0  0  0  0  0  0  0  0  0
   -0.0771   -1.2988    1.1279 C   0  0  0  0  0  0  0  0  0  0  0  0
    0.0066   -2.2900    0.6804 H   0  0  0  0  0  0  0  0  0  0  0  0
    0.8931   -0.8103    1.0238 H   0  0  0  0  0  0  0  0  0  0  0  0
   -0.3963   -1.4725    2.6003 C   0  0  0  0  0  0  0  0  0  0  0  0
   -0.1089   -0.4413    3.5169 C   0  0  0  0  0  0  0  0  0  0  0  0
    0.3656    0.4695    3.1758 H   0  0  0  0  0  0  0  0  0  0  0  0
   -0.4443   -0.5912    4.8767 C   0  0  0  0  0  0  0  0  0  0  0  0
   -0.2213    0.1998    5.5761 H   0  0  0  0  0  0  0  0  0  0  0  0
   -1.0727   -1.7753    5.3201 C   0  0  0  0  0  0  0  0  0  0  0  0
   -1.4028   -1.9284    6.6288 O   0  0  0  0  0  0  0  0  0  0  0  0
   -1.0781   -1.2074    7.1698 H   0  0  0  0  0  0  0  0  0  0  0  0
   -1.3640   -2.8042    4.4006 C   0  0  0  0  0  0  0  0  0  0  0  0
   -1.8407   -3.7066    4.7525 H   0  0  0  0  0  0  0  0  0  0  0  0
   -1.0233   -2.6532    3.0429 C   0  0  0  0  0  0  0  0  0  0  0  0
   -1.2390   -3.4479    2.3387 H   0  0  0  0  0  0  0  0  0  0  0  0
   -0.6423   -0.1239   -1.0602 C   0  0  0  0  0  0  0  0  0  0  0  0
   -0.9006   -0.8595   -2.0133 O   0  0  0  0  0  0  0  0  0  0  0  0
    0.0633    1.0060   -1.1960 N   0  0  0  0  0  0  0  0  0  0  0  0
    0.2826    1.5227   -0.3566 H   0  0  0  0  0  0  0  0  0  0  0  0
    0.6006    1.4954   -2.4635 C   0  0  0  0  0  0  0  0  0  0  0  0
   -0.1864    1.5079   -3.2195 H   0  0  0  0  0  0  0  0  0  0  0  0
    0.9961    2.5048   -2.3395 H   0  0  0  0  0  0  0  0  0  0  0  0
    1.4004    0.8340   -2.8032 H   0  0  0  0  0  0  0  0  0  0  0  0
  5  6  2  0  0  0  0
  5  7  1  0  0  0  0
  2  3  1  0  0  0  0
  2  4  1  0  0  0  0
  2  5  1  0  0  0  0
  1  2  1  0  0  0  0
 26 27  2  0  0  0  0
 26 28  1  0  0  0  0
 24 25  1  0  0  0  0
 22 23  1  0  0  0  0
 22 24  2  0  0  0  0
 20 21  1  0  0  0  0
 19 20  1  0  0  0  0
 19 22  1  0  0  0  0
 17 18  1  0  0  0  0
 17 19  2  0  0  0  0
 15 16  1  0  0  0  0
 15 17  1  0  0  0  0
 14 15  2  0  0  0  0
 14 24  1  0  0  0  0
 11 12  1  0  0  0  0
 11 13  1  0  0  0  0
 11 14  1  0  0  0  0
  9 10  1  0  0  0  0
  9 11  1  0  0  0  0
  9 26  1  0  0  0  0
  7  8  1  0  0  0  0
  7  9  1  0  0  0  0
 30 31  1  0  0  0  0
 30 32  1  0  0  0  0
 30 33  1  0  0  0  0
 28 29  1  0  0  0  0
 28 30  1  0  0  0  0
M  END
$$$$
default_name
  -OEChem-01062215323D

 33 33  0     1  0  0  0  0  0999 V2000
   -4.0702   -3.8485    1.4554 H   0  0  0  0  0  0  0  0  0  0  0  0
   -4.0012   -2.9605    0.8284 C   0  0  0  0  0  0  0  0  0  0  0  0
   -4.7652   -2.2435    1.1234 H   0  0  0  0  0  0  0  0  0  0  0  0
   -4.1352   -3.2385   -0.2156 H   0  0  0  0  0  0  0  0  0  0  0  0
   -2.6362   -2.3395    1.0094 C   0  0  0  0  0  0  0  0  0  0  0  0
   -1.8292   -2.8395    1.7814 O   0  0  0  0  0  0  0  0  0  0  0  0
   -2.3832   -1.2445    0.2964 N   0  0  0  0  0  0  0  0  0  0  0  0
   -3.1102   -0.8685   -0.2946 H   0  0  0  0  0  0  0  0  0  0  0  0
   -1.1292   -0.4875    0.3524 C   0  0  1  0  0  0  0  0  0  0  0  0
   -1.3098    0.4434    0.8912 H   0  0  0  0  0  0  0  0  0  0  0  0
   -0.0771   -1.2988    1.1279 C   0  0  0  0  0  0  0  0  0  0  0  0
    0.0066   -2.2900    0.6804 H   0  0  0  0  0  0  0  0  0  0  0  0
    0.8931   -0.8103    1.0238 H   0  0  0  0  0  0  0  0  0  0  0  0
   -0.3963   -1.4725    2.6003 C   0  0  0  0  0  0  0  0  0  0  0  0
   -0.1089   -0.4413    3.5169 C   0  0  0  0  0  0  0  0  0  0  0  0
    0.3656    0.4695    3.1758 H   0  0  0  0  0  0  0  0  0  0  0  0
   -0.4443   -0.5912    4.8767 C   0  0  0  0  0  0  0  0  0  0  0  0
   -0.2213    0.1998    5.5761 H   0  0  0  0  0  0  0  0  0  0  0  0
   -1.0727   -1.7753    5.3201 C   0  0  0  0  0  0  0  0  0  0  0  0
   -1.4028   -1.9284    6.6288 O   0  0  0  0  0  0  0  0  0  0  0  0
   -1.0781   -1.2074    7.1698 H   0  0  0  0  0  0  0  0  0  0  0  0
   -1.3640   -2.8042    4.4006 C   0  0  0  0  0  0  0  0  0  0  0  0
   -1.8407   -3.7066    4.7525 H   0  0  0  0  0  0  0  0  0  0  0  0
   -1.0233   -2.6532    3.0429 C   0  0  0  0  0  0  0  0  0  0  0  0
   -1.2390   -3.4479    2.3387 H   0  0  0  0  0  0  0  0  0  0  0  0
   -0.6423   -0.1239   -1.0602 C   0  0  0  0  0  0  0  0  0  0  0  0
   -1.1183   -0.6899   -2.0447 O   0  0  0  0  0  0  0  0  0  0  0  0
    0.3063    0.8158   -1.1612 N   0  0  0  0  0  0  0  0  0  0  0  0
    0.6860    1.1893   -0.3034 H   0  0  0  0  0  0  0  0  0  0  0  0
    0.8797    1.2763   -2.4237 C   0  0  0  0  0  0  0  0  0  0  0  0
    0.0810    1.5412   -3.1187 H   0  0  0  0  0  0  0  0  0  0  0  0
    1.5120    2.1492   -2.2531 H   0  0  0  0  0  0  0  0  0  0  0  0
    1.4786    0.4785   -2.8677 H   0  0  0  0  0  0  0  0  0  0  0  0
  5  6  2  0  0  0  0
  5  7  1  0  0  0  0
  2  3  1  0  0  0  0
  2  4  1  0  0  0  0
  2  5  1  0  0  0  0
  1  2  1  0  0  0  0
 26 27  2  0  0  0  0
 26 28  1  0  0  0  0
 24 25  1  0  0  0  0
 22 23  1  0  0  0  0
 22 24  2  0  0  0  0
 20 21  1  0  0  0  0
 19 20  1  0  0  0  0
 19 22  1  0  0  0  0
 17 18  1  0  0  0  0
 17 19  2  0  0  0  0
 15 16  1  0  0  0  0
 15 17  1  0  0  0  0
 14 15  2  0  0  0  0
 14 24  1  0  0  0  0
 11 12  1  0  0  0  0
 11 13  1  0  0  0  0
 11 14  1  0  0  0  0
  9 10  1  0  0  0  0
  9 11  1  0  0  0  0
  9 26  1  0  0  0  0
  7  8  1  0  0  0  0
  7  9  1  0  0  0  0
 30 31  1  0  0  0  0
 30 32  1  0  0  0  0
 30 33  1  0  0  0  0
 28 29  1  0  0  0  0
 28 30  1  0  0  0  0
M  END
$$$$
default_name
  -OEChem-01062215323D

 33 33  0     1  0  0  0  0  0999 V2000
   -4.0702   -3.8485    1.4554 H   0  0  0  0  0  0  0  0  0  0  0  0
   -4.0012   -2.9605    0.8284 C   0  0  0  0  0  0  0  0  0  0  0  0
   -4.7652   -2.2435    1.1234 H   0  0  0  0  0  0  0  0  0  0  0  0
   -4.1352   -3.2385   -0.2156 H   0  0  0  0  0  0  0  0  0  0  0  0
   -2.6362   -2.3395    1.0094 C   0  0  0  0  0  0  0  0  0  0  0  0
   -1.8292   -2.8395    1.7814 O   0  0  0  0  0  0  0  0  0  0  0  0
   -2.3832   -1.2445    0.2964 N   0  0  0  0  0  0  0  0  0  0  0  0
   -3.1102   -0.8685   -0.2946 H   0  0  0  0  0  0  0  0  0  0  0  0
   -1.1292   -0.4875    0.3524 C   0  0  1  0  0  0  0  0  0  0  0  0
   -1.2308    0.2967    1.1036 H   0  0  0  0  0  0  0  0  0  0  0  0
    0.0136   -1.4235    0.7819 C   0  0  0  0  0  0  0  0  0  0  0  0
    0.0311   -2.2891    0.1184 H   0  0  0  0  0  0  0  0  0  0  0  0
    0.9635   -0.9000    0.6612 H   0  0  0  0  0  0  0  0  0  0  0  0
   -0.1051   -1.9258    2.2079 C   0  0  0  0  0  0  0  0  0  0  0  0
    0.3085   -1.1156    3.2843 C   0  0  0  0  0  0  0  0  0  0  0  0
    0.7374   -0.1404    3.0942 H   0  0  0  0  0  0  0  0  0  0  0  0
    0.1587   -1.5703    4.6089 C   0  0  0  0  0  0  0  0  0  0  0  0
    0.4779   -0.9478    5.4307 H   0  0  0  0  0  0  0  0  0  0  0  0
   -0.4103   -2.8383    4.8576 C   0  0  0  0  0  0  0  0  0  0  0  0
   -0.5618   -3.2847    6.1315 O   0  0  0  0  0  0  0  0  0  0  0  0
   -0.1635   -2.6930    6.7712 H   0  0  0  0  0  0  0  0  0  0  0  0
   -0.8282   -3.6457    3.7794 C   0  0  0  0  0  0  0  0  0  0  0  0
   -1.2578   -4.6152    3.9822 H   0  0  0  0  0  0  0  0  0  0  0  0
   -0.6729   -3.1903    2.4564 C   0  0  0  0  0  0  0  0  0  0  0  0
   -0.9856   -3.8151    1.6282 H   0  0  0  0  0  0  0  0  0  0  0  0
   -0.8352    0.1910   -0.9960 C   0  0  0  0  0  0  0  0  0  0  0  0
   -1.6121    0.0537   -1.9413 O   0  0  0  0  0  0  0  0  0  0  0  0
    0.2849    0.9191   -1.0871 N   0  0  0  0  0  0  0  0  0  0  0  0
    0.8982    0.9337   -0.2851 H   0  0  0  0  0  0  0  0  0  0  0  0
    0.7132    1.6258   -2.2921 C   0  0  0  0  0  0  0  0  0  0  0  0
   -0.1064    2.2365   -2.6746 H   0  0  0  0  0  0  0  0  0  0  0  0
    1.5661    2.2684   -2.0677 H   0  0  0  0  0  0  0  0  0  0  0  0
    0.9981    0.9034   -3.0598 H   0  0  0  0  0  0  0  0  0  0  0  0
  5  6  2  0  0  0  0
  5  7  1  0  0  0  0
  2  3  1  0  0  0  0
  2  4  1  0  0  0  0
  2  5  1  0  0  0  0
  1  2  1  0  0  0  0
 26 27  2  0  0  0  0
 26 28  1  0  0  0  0
 24 25  1  0  0  0  0
 22 23  1  0  0  0  0
 22 24  2  0  0  0  0
 20 21  1  0  0  0  0
 19 20  1  0  0  0  0
 19 22  1  0  0  0  0
 17 18  1  0  0  0  0
 17 19  2  0  0  0  0
 15 16  1  0  0  0  0
 15 17  1  0  0  0  0
 14 15  2  0  0  0  0
 14 24  1  0  0  0  0
 11 12  1  0  0  0  0
 11 13  1  0  0  0  0
 11 14  1  0  0  0  0
  9 10  1  0  0  0  0
  9 11  1  0  0  0  0
  9 26  1  0  0  0  0
  7  8  1  0  0  0  0
  7  9  1  0  0  0  0
 30 31  1  0  0  0  0
 30 32  1  0  0  0  0
 30 33  1  0  0  0  0
 28 29  1  0  0  0  0
 28 30  1  0  0  0  0
M  END
$$$$
default_name
  -OEChem-01062215323D

 33 33  0     1  0  0  0  0  0999 V2000
   -4.0702   -3.8485    1.4554 H   0  0  0  0  0  0  0  0  0  0  0  0
   -4.0012   -2.9605    0.8284 C   0  0  0  0  0  0  0  0  0  0  0  0
   -4.7652   -2.2435    1.1234 H   0  0  0  0  0  0  0  0  0  0  0  0
   -4.1352   -3.2385   -0.2156 H   0  0  0  0  0  0  0  0  0  0  0  0
   -2.6362   -2.3395    1.0094 C   0  0  0  0  0  0  0  0  0  0  0  0
   -1.8292   -2.8395    1.7814 O   0  0  0  0  0  0  0  0  0  0  0  0
   -2.3832   -1.2445    0.2964 N   0  0  0  0  0  0  0  0  0  0  0  0
   -3.1102   -0.8685   -0.2946 H   0  0  0  0  0  0  0  0  0  0  0  0
   -1.1292   -0.4875    0.3524 C   0  0  1  0  0  0  0  0  0  0  0  0
   -1.2308    0.2967    1.1036 H   0  0  0  0  0  0  0  0  0  0  0  0
    0.0136   -1.4235    0.7819 C   0  0  0  0  0  0  0  0  0  0  0  0
    0.0311   -2.2891    0.1184 H   0  0  0  0  0  0  0  0  0  0  0  0
    0.9635   -0.9000    0.6612 H   0  0  0  0  0  0  0  0  0  0  0  0
   -0.1051   -1.9258    2.2079 C   0  0  0  0  0  0  0  0  0  0  0  0
    0.3085   -1.1156    3.2843 C   0  0  0  0  0  0  0  0  0  0  0  0
    0.7374   -0.1404    3.0942 H   0  0  0  0  0  0  0  0  0  0  0  0
    0.1587   -1.5703    4.6089 C   0  0  0  0  0  0  0  0  0  0  0  0
    0.4779   -0.9478    5.4307 H   0  0  0  0  0  0  0  0  0  0  0  0
   -0.4103   -2.8383    4.8576 C   0  0  0  0  0  0  0  0  0  0  0  0
   -0.5618   -3.2847    6.1315 O   0  0  0  0  0  0  0  0  0  0  0  0
   -0.1635   -2.6930    6.7712 H   0  0  0  0  0  0  0  0  0  0  0  0
   -0.8282   -3.6457    3.7794 C   0  0  0  0  0  0  0  0  0  0  0  0
   -1.2578   -4.6152    3.9822 H   0  0  0  0  0  0  0  0  0  0  0  0
   -0.6729   -3.1903    2.4564 C   0  0  0  0  0  0  0  0  0  0  0  0
   -0.9856   -3.8151    1.6282 H   0  0  0  0  0  0  0  0  0  0  0  0
   -0.8352    0.1910   -0.9960 C   0  0  0  0  0  0  0  0  0  0  0  0
   -1.7207    0.2907   -1.8457 O   0  0  0  0  0  0  0  0  0  0  0  0
    0.4055    0.6538   -1.1943 N   0  0  0  0  0  0  0  0  0  0  0  0
    1.0891    0.4804   -0.4716 H   0  0  0  0  0  0  0  0  0  0  0  0
    0.8515    1.3207   -2.4154 C   0  0  0  0  0  0  0  0  0  0  0  0
    0.1577    2.1223   -2.6745 H   0  0  0  0  0  0  0  0  0  0  0  0
    1.8484    1.7405   -2.2718 H   0  0  0  0  0  0  0  0  0  0  0  0
    0.8778    0.6024   -3.2375 H   0  0  0  0  0  0  0  0  0  0  0  0
  5  6  2  0  0  0  0
  5  7  1  0  0  0  0
  2  3  1  0  0  0  0
  2  4  1  0  0  0  0
  2  5  1  0  0  0  0
  1  2  1  0  0  0  0
 26 27  2  0  0  0  0
 26 28  1  0  0  0  0
 24 25  1  0  0  0  0
 22 23  1  0  0  0  0
 22 24  2  0  0  0  0
 20 21  1  0  0  0  0
 19 20  1  0  0  0  0
 19 22  1  0  0  0  0
 17 18  1  0  0  0  0
 17 19  2  0  0  0  0
 15 16  1  0  0  0  0
 15 17  1  0  0  0  0
 14 15  2  0  0  0  0
 14 24  1  0  0  0  0
 11 12  1  0  0  0  0
 11 13  1  0  0  0  0
 11 14  1  0  0  0  0
  9 10  1  0  0  0  0
  9 11  1  0  0  0  0
  9 26  1  0  0  0  0
  7  8  1  0  0  0  0
  7  9  1  0  0  0  0
 30 31  1  0  0  0  0
 30 32  1  0  0  0  0
 30 33  1  0  0  0  0
 28 29  1  0  0  0  0
 28 30  1  0  0  0  0
M  END
$$$$
default_name
  -OEChem-01062215323D

 33 33  0     1  0  0  0  0  0999 V2000
   -4.0702   -3.8485    1.4554 H   0  0  0  0  0  0  0  0  0  0  0  0
   -4.0012   -2.9605    0.8284 C   0  0  0  0  0  0  0  0  0  0  0  0
   -4.7652   -2.2435    1.1234 H   0  0  0  0  0  0  0  0  0  0  0  0
   -4.1352   -3.2385   -0.2156 H   0  0  0  0  0  0  0  0  0  0  0  0
   -2.6362   -2.3395    1.0094 C   0  0  0  0  0  0  0  0  0  0  0  0
   -1.8292   -2.8395    1.7814 O   0  0  0  0  0  0  0  0  0  0  0  0
   -2.3832   -1.2445    0.2964 N   0  0  0  0  0  0  0  0  0  0  0  0
   -3.1102   -0.8685   -0.2946 H   0  0  0  0  0  0  0  0  0  0  0  0
   -1.1292   -0.4875    0.3524 C   0  0  1  0  0  0  0  0  0  0  0  0
   -1.2308    0.2967    1.1036 H   0  0  0  0  0  0  0  0  0  0  0  0
    0.0136   -1.4235    0.7819 C   0  0  0  0  0  0  0  0  0  0  0  0
    0.0311   -2.2891    0.1184 H   0  0  0  0  0  0  0  0  0  0  0  0
    0.9635   -0.9000    0.6612 H   0  0  0  0  0  0  0  0  0  0  0  0
   -0.1051   -1.9258    2.2079 C   0  0  0  0  0  0  0  0  0  0  0  0
    0.3085   -1.1156    3.2843 C   0  0  0  0  0  0  0  0  0  0  0  0
    0.7374   -0.1404    3.0942 H   0  0  0  0  0  0  0  0  0  0  0  0
    0.1587   -1.5703    4.6089 C   0  0  0  0  0  0  0  0  0  0  0  0
    0.4779   -0.9478    5.4307 H   0  0  0  0  0  0  0  0  0  0  0  0
   -0.4103   -2.8383    4.8576 C   0  0  0  0  0  0  0  0  0  0  0  0
   -0.5618   -3.2847    6.1315 O   0  0  0  0  0  0  0  0  0  0  0  0
   -0.1635   -2.6930    6.7712 H   0  0  0  0  0  0  0  0  0  0  0  0
   -0.8282   -3.6457    3.7794 C   0  0  0  0  0  0  0  0  0  0  0  0
   -1.2578   -4.6152    3.9822 H   0  0  0  0  0  0  0  0  0  0  0  0
   -0.6729   -3.1903    2.4564 C   0  0  0  0  0  0  0  0  0  0  0  0
   -0.9856   -3.8151    1.6282 H   0  0  0  0  0  0  0  0  0  0  0  0
   -0.8352    0.1910   -0.9960 C   0  0  0  0  0  0  0  0  0  0  0  0
   -1.7609    0.5397   -1.7292 O   0  0  0  0  0  0  0  0  0  0  0  0
    0.4497    0.3756   -1.3246 N   0  0  0  0  0  0  0  0  0  0  0  0
    1.1493    0.0084   -0.6960 H   0  0  0  0  0  0  0  0  0  0  0  0
    0.9018    1.0007   -2.5654 C   0  0  0  0  0  0  0  0  0  0  0  0
    0.3868    1.9520   -2.7102 H   0  0  0  0  0  0  0  0  0  0  0  0
    1.9780    1.1767   -2.5272 H   0  0  0  0  0  0  0  0  0  0  0  0
    0.6730    0.3478   -3.4103 H   0  0  0  0  0  0  0  0  0  0  0  0
  5  6  2  0  0  0  0
  5  7  1  0  0  0  0
  2  3  1  0  0  0  0
  2  4  1  0  0  0  0
  2  5  1  0  0  0  0
  1  2  1  0  0  0  0
 26 27  2  0  0  0  0
 26 28  1  0  0  0  0
 24 25  1  0  0  0  0
 22 23  1  0  0  0  0
 22 24  2  0  0  0  0
 20 21  1  0  0  0  0
 19 20  1  0  0  0  0
 19 22  1  0  0  0  0
 17 18  1  0  0  0  0
 17 19  2  0  0  0  0
 15 16  1  0  0  0  0
 15 17  1  0  0  0  0
 14 15  2  0  0  0  0
 14 24  1  0  0  0  0
 11 12  1  0  0  0  0
 11 13  1  0  0  0  0
 11 14  1  0  0  0  0
  9 10  1  0  0  0  0
  9 11  1  0  0  0  0
  9 26  1  0  0  0  0
  7  8  1  0  0  0  0
  7  9  1  0  0  0  0
 30 31  1  0  0  0  0
 30 32  1  0  0  0  0
 30 33  1  0  0  0  0
 28 29  1  0  0  0  0
 28 30  1  0  0  0  0
M  END
$$$$
default_name
  -OEChem-01062215323D

 33 33  0     1  0  0  0  0  0999 V2000
   -4.0702   -3.8485    1.4554 H   0  0  0  0  0  0  0  0  0  0  0  0
   -4.0012   -2.9605    0.8284 C   0  0  0  0  0  0  0  0  0  0  0  0
   -4.7652   -2.2435    1.1234 H   0  0  0  0  0  0  0  0  0  0  0  0
   -4.1352   -3.2385   -0.2156 H   0  0  0  0  0  0  0  0  0  0  0  0
   -2.6362   -2.3395    1.0094 C   0  0  0  0  0  0  0  0  0  0  0  0
   -1.8292   -2.8395    1.7814 O   0  0  0  0  0  0  0  0  0  0  0  0
   -2.3832   -1.2445    0.2964 N   0  0  0  0  0  0  0  0  0  0  0  0
   -3.1102   -0.8685   -0.2946 H   0  0  0  0  0  0  0  0  0  0  0  0
   -1.1292   -0.4875    0.3524 C   0  0  1  0  0  0  0  0  0  0  0  0
   -1.2308    0.2967    1.1036 H   0  0  0  0  0  0  0  0  0  0  0  0
    0.0136   -1.4235    0.7819 C   0  0  0  0  0  0  0  0  0  0  0  0
    0.0311   -2.2891    0.1184 H   0  0  0  0  0  0  0  0  0  0  0  0
    0.9635   -0.9000    0.6612 H   0  0  0  0  0  0  0  0  0  0  0  0
   -0.1051   -1.9258    2.2079 C   0  0  0  0  0  0  0  0  0  0  0  0
    0.3085   -1.1156    3.2843 C   0  0  0  0  0  0  0  0  0  0  0  0
    0.7374   -0.1404    3.0942 H   0  0  0  0  0  0  0  0  0  0  0  0
    0.1587   -1.5703    4.6089 C   0  0  0  0  0  0  0  0  0  0  0  0
    0.4779   -0.9478    5.4307 H   0  0  0  0  0  0  0  0  0  0  0  0
   -0.4103   -2.8383    4.8576 C   0  0  0  0  0  0  0  0  0  0  0  0
   -0.5618   -3.2847    6.1315 O   0  0  0  0  0  0  0  0  0  0  0  0
   -0.1635   -2.6930    6.7712 H   0  0  0  0  0  0  0  0  0  0  0  0
   -0.8282   -3.6457    3.7794 C   0  0  0  0  0  0  0  0  0  0  0  0
   -1.2578   -4.6152    3.9822 H   0  0  0  0  0  0  0  0  0  0  0  0
   -0.6729   -3.1903    2.4564 C   0  0  0  0  0  0  0  0  0  0  0  0
   -0.9856   -3.8151    1.6282 H   0  0  0  0  0  0  0  0  0  0  0  0
   -0.8352    0.1910   -0.9960 C   0  0  0  0  0  0  0  0  0  0  0  0
   -1.7299    0.7835   -1.5998 O   0  0  0  0  0  0  0  0  0  0  0  0
    0.4143    0.1032   -1.4694 N   0  0  0  0  0  0  0  0  0  0  0  0
    1.0747   -0.4500   -0.9429 H   0  0  0  0  0  0  0  0  0  0  0  0
    0.8606    0.6876   -2.7319 C   0  0  0  0  0  0  0  0  0  0  0  0
    0.5655    1.7373   -2.7793 H   0  0  0  0  0  0  0  0  0  0  0  0
    1.9461    0.6152   -2.8167 H   0  0  0  0  0  0  0  0  0  0  0  0
    0.3976    0.1568   -3.5664 H   0  0  0  0  0  0  0  0  0  0  0  0
  5  6  2  0  0  0  0
  5  7  1  0  0  0  0
  2  3  1  0  0  0  0
  2  4  1  0  0  0  0
  2  5  1  0  0  0  0
  1  2  1  0  0  0  0
 26 27  2  0  0  0  0
 26 28  1  0  0  0  0
 24 25  1  0  0  0  0
 22 23  1  0  0  0  0
 22 24  2  0  0  0  0
 20 21  1  0  0  0  0
 19 20  1  0  0  0  0
 19 22  1  0  0  0  0
 17 18  1  0  0  0  0
 17 19  2  0  0  0  0
 15 16  1  0  0  0  0
 15 17  1  0  0  0  0
 14 15  2  0  0  0  0
 14 24  1  0  0  0  0
 11 12  1  0  0  0  0
 11 13  1  0  0  0  0
 11 14  1  0  0  0  0
  9 10  1  0  0  0  0
  9 11  1  0  0  0  0
  9 26  1  0  0  0  0
  7  8  1  0  0  0  0
  7  9  1  0  0  0  0
 30 31  1  0  0  0  0
 30 32  1  0  0  0  0
 30 33  1  0  0  0  0
 28 29  1  0  0  0  0
 28 30  1  0  0  0  0
M  END
$$$$
default_name
  -OEChem-01062215323D

 33 33  0     1  0  0  0  0  0999 V2000
   -4.0702   -3.8485    1.4554 H   0  0  0  0  0  0  0  0  0  0  0  0
   -4.0012   -2.9605    0.8284 C   0  0  0  0  0  0  0  0  0  0  0  0
   -4.7652   -2.2435    1.1234 H   0  0  0  0  0  0  0  0  0  0  0  0
   -4.1352   -3.2385   -0.2156 H   0  0  0  0  0  0  0  0  0  0  0  0
   -2.6362   -2.3395    1.0094 C   0  0  0  0  0  0  0  0  0  0  0  0
   -1.8292   -2.8395    1.7814 O   0  0  0  0  0  0  0  0  0  0  0  0
   -2.3832   -1.2445    0.2964 N   0  0  0  0  0  0  0  0  0  0  0  0
   -3.1102   -0.8685   -0.2946 H   0  0  0  0  0  0  0  0  0  0  0  0
   -1.1292   -0.4875    0.3524 C   0  0  1  0  0  0  0  0  0  0  0  0
   -1.2308    0.2967    1.1036 H   0  0  0  0  0  0  0  0  0  0  0  0
    0.0136   -1.4235    0.7819 C   0  0  0  0  0  0  0  0  0  0  0  0
    0.0311   -2.2891    0.1184 H   0  0  0  0  0  0  0  0  0  0  0  0
    0.9635   -0.9000    0.6612 H   0  0  0  0  0  0  0  0  0  0  0  0
   -0.1051   -1.9258    2.2079 C   0  0  0  0  0  0  0  0  0  0  0  0
    0.3085   -1.1156    3.2843 C   0  0  0  0  0  0  0  0  0  0  0  0
    0.7374   -0.1404    3.0942 H   0  0  0  0  0  0  0  0  0  0  0  0
    0.1587   -1.5703    4.6089 C   0  0  0  0  0  0  0  0  0  0  0  0
    0.4779   -0.9478    5.4307 H   0  0  0  0  0  0  0  0  0  0  0  0
   -0.4103   -2.8383    4.8576 C   0  0  0  0  0  0  0  0  0  0  0  0
   -0.5618   -3.2847    6.1315 O   0  0  0  0  0  0  0  0  0  0  0  0
   -0.1635   -2.6930    6.7712 H   0  0  0  0  0  0  0  0  0  0  0  0
   -0.8282   -3.6457    3.7794 C   0  0  0  0  0  0  0  0  0  0  0  0
   -1.2578   -4.6152    3.9822 H   0  0  0  0  0  0  0  0  0  0  0  0
   -0.6729   -3.1903    2.4564 C   0  0  0  0  0  0  0  0  0  0  0  0
   -0.9856   -3.8151    1.6282 H   0  0  0  0  0  0  0  0  0  0  0  0
   -0.8352    0.1910   -0.9960 C   0  0  0  0  0  0  0  0  0  0  0  0
   -1.6299    1.0055   -1.4663 O   0  0  0  0  0  0  0  0  0  0  0  0
    0.3017   -0.1447   -1.6187 N   0  0  0  0  0  0  0  0  0  0  0  0
    0.8704   -0.8637   -1.1956 H   0  0  0  0  0  0  0  0  0  0  0  0
    0.7308    0.4028   -2.9036 C   0  0  0  0  0  0  0  0  0  0  0  0
    0.6814    1.4928   -2.8770 H   0  0  0  0  0  0  0  0  0  0  0  0
    1.7548    0.0945   -3.1204 H   0  0  0  0  0  0  0  0  0  0  0  0
    0.0705    0.0426   -3.6952 H   0  0  0  0  0  0  0  0  0  0  0  0
  5  6  2  0  0  0  0
  5  7  1  0  0  0  0
  2  3  1  0  0  0  0
  2  4  1  0  0  0  0
  2  5  1  0  0  0  0
  1  2  1  0  0  0  0
 26 27  2  0  0  0  0
 26 28  1  0  0  0  0
 24 25  1  0  0  0  0
 22 23  1  0  0  0  0
 22 24  2  0  0  0  0
 20 21  1  0  0  0  0
 19 20  1  0  0  0  0
 19 22  1  0  0  0  0
 17 18  1  0  0  0  0
 17 19  2  0  0  0  0
 15 16  1  0  0  0  0
 15 17  1  0  0  0  0
 14 15  2  0  0  0  0
 14 24  1  0  0  0  0
 11 12  1  0  0  0  0
 11 13  1  0  0  0  0
 11 14  1  0  0  0  0
  9 10  1  0  0  0  0
  9 11  1  0  0  0  0
  9 26  1  0  0  0  0
  7  8  1  0  0  0  0
  7  9  1  0  0  0  0
 30 31  1  0  0  0  0
 30 32  1  0  0  0  0
 30 33  1  0  0  0  0
 28 29  1  0  0  0  0
 28 30  1  0  0  0  0
M  END
$$$$
default_name
  -OEChem-01062215323D

 33 33  0     1  0  0  0  0  0999 V2000
   -4.0702   -3.8485    1.4554 H   0  0  0  0  0  0  0  0  0  0  0  0
   -4.0012   -2.9605    0.8284 C   0  0  0  0  0  0  0  0  0  0  0  0
   -4.7652   -2.2435    1.1234 H   0  0  0  0  0  0  0  0  0  0  0  0
   -4.1352   -3.2385   -0.2156 H   0  0  0  0  0  0  0  0  0  0  0  0
   -2.6362   -2.3395    1.0094 C   0  0  0  0  0  0  0  0  0  0  0  0
   -1.8292   -2.8395    1.7814 O   0  0  0  0  0  0  0  0  0  0  0  0
   -2.3832   -1.2445    0.2964 N   0  0  0  0  0  0  0  0  0  0  0  0
   -3.1102   -0.8685   -0.2946 H   0  0  0  0  0  0  0  0  0  0  0  0
   -1.1292   -0.4875    0.3524 C   0  0  1  0  0  0  0  0  0  0  0  0
   -1.2308    0.2967    1.1036 H   0  0  0  0  0  0  0  0  0  0  0  0
    0.0136   -1.4235    0.7819 C   0  0  0  0  0  0  0  0  0  0  0  0
    0.0311   -2.2891    0.1184 H   0  0  0  0  0  0  0  0  0  0  0  0
    0.9635   -0.9000    0.6612 H   0  0  0  0  0  0  0  0  0  0  0  0
   -0.1051   -1.9258    2.2079 C   0  0  0  0  0  0  0  0  0  0  0  0
    0.3085   -1.1156    3.2843 C   0  0  0  0  0  0  0  0  0  0  0  0
    0.7374   -0.1404    3.0942 H   0  0  0  0  0  0  0  0  0  0  0  0
    0.1587   -1.5703    4.6089 C   0  0  0  0  0  0  0  0  0  0  0  0
    0.4779   -0.9478    5.4307 H   0  0  0  0  0  0  0  0  0  0  0  0
   -0.4103   -2.8383    4.8576 C   0  0  0  0  0  0  0  0  0  0  0  0
   -0.5618   -3.2847    6.1315 O   0  0  0  0  0  0  0  0  0  0  0  0
   -0.1635   -2.6930    6.7712 H   0  0  0  0  0  0  0  0  0  0  0  0
   -0.8282   -3.6457    3.7794 C   0  0  0  0  0  0  0  0  0  0  0  0
   -1.2578   -4.6152    3.9822 H   0  0  0  0  0  0  0  0  0  0  0  0
   -0.6729   -3.1903    2.4564 C   0  0  0  0  0  0  0  0  0  0  0  0
   -0.9856   -3.8151    1.6282 H   0  0  0  0  0  0  0  0  0  0  0  0
   -0.8352    0.1910   -0.9960 C   0  0  0  0  0  0  0  0  0  0  0  0
   -1.4676    1.1907   -1.3377 O   0  0  0  0  0  0  0  0  0  0  0  0
    0.1197   -0.3512   -1.7623 N   0  0  0  0  0  0  0  0  0  0  0  0
    0.5504   -1.2044   -1.4368 H   0  0  0  0  0  0  0  0  0  0  0  0
    0.5211    0.1657   -3.0686 C   0  0  0  0  0  0  0  0  0  0  0  0
    0.7267    1.2351   -2.9968 H   0  0  0  0  0  0  0  0  0  0  0  0
    1.4172   -0.3500   -3.4177 H   0  0  0  0  0  0  0  0  0  0  0  0
   -0.2861    0.0129   -3.7879 H   0  0  0  0  0  0  0  0  0  0  0  0
  5  6  2  0  0  0  0
  5  7  1  0  0  0  0
  2  3  1  0  0  0  0
  2  4  1  0  0  0  0
  2  5  1  0  0  0  0
  1  2  1  0  0  0  0
 26 27  2  0  0  0  0
 26 28  1  0  0  0  0
 24 25  1  0  0  0  0
 22 23  1  0  0  0  0
 22 24  2  0  0  0  0
 20 21  1  0  0  0  0
 19 20  1  0  0  0  0
 19 22  1  0  0  0  0
 17 18  1  0  0  0  0
 17 19  2  0  0  0  0
 15 16  1  0  0  0  0
 15 17  1  0  0  0  0
 14 15  2  0  0  0  0
 14 24  1  0  0  0  0
 11 12  1  0  0  0  0
 11 13  1  0  0  0  0
 11 14  1  0  0  0  0
  9 10  1  0  0  0  0
  9 11  1  0  0  0  0
  9 26  1  0  0  0  0
  7  8  1  0  0  0  0
  7  9  1  0  0  0  0
 30 31  1  0  0  0  0
 30 32  1  0  0  0  0
 30 33  1  0  0  0  0
 28 29  1  0  0  0  0
 28 30  1  0  0  0  0
M  END
$$$$
default_name
  -OEChem-01062215323D

 33 33  0     1  0  0  0  0  0999 V2000
   -4.0702   -3.8485    1.4554 H   0  0  0  0  0  0  0  0  0  0  0  0
   -4.0012   -2.9605    0.8284 C   0  0  0  0  0  0  0  0  0  0  0  0
   -4.7652   -2.2435    1.1234 H   0  0  0  0  0  0  0  0  0  0  0  0
   -4.1352   -3.2385   -0.2156 H   0  0  0  0  0  0  0  0  0  0  0  0
   -2.6362   -2.3395    1.0094 C   0  0  0  0  0  0  0  0  0  0  0  0
   -1.8292   -2.8395    1.7814 O   0  0  0  0  0  0  0  0  0  0  0  0
   -2.3832   -1.2445    0.2964 N   0  0  0  0  0  0  0  0  0  0  0  0
   -3.1102   -0.8685   -0.2946 H   0  0  0  0  0  0  0  0  0  0  0  0
   -1.1292   -0.4875    0.3524 C   0  0  1  0  0  0  0  0  0  0  0  0
   -1.2308    0.2967    1.1036 H   0  0  0  0  0  0  0  0  0  0  0  0
    0.0136   -1.4235    0.7819 C   0  0  0  0  0  0  0  0  0  0  0  0
    0.0311   -2.2891    0.1184 H   0  0  0  0  0  0  0  0  0  0  0  0
    0.9635   -0.9000    0.6612 H   0  0  0  0  0  0  0  0  0  0  0  0
   -0.1051   -1.9258    2.2079 C   0  0  0  0  0  0  0  0  0  0  0  0
    0.3085   -1.1156    3.2843 C   0  0  0  0  0  0  0  0  0  0  0  0
    0.7374   -0.1404    3.0942 H   0  0  0  0  0  0  0  0  0  0  0  0
    0.1587   -1.5703    4.6089 C   0  0  0  0  0  0  0  0  0  0  0  0
    0.4779   -0.9478    5.4307 H   0  0  0  0  0  0  0  0  0  0  0  0
   -0.4103   -2.8383    4.8576 C   0  0  0  0  0  0  0  0  0  0  0  0
   -0.5618   -3.2847    6.1315 O   0  0  0  0  0  0  0  0  0  0  0  0
   -0.1635   -2.6930    6.7712 H   0  0  0  0  0  0  0  0  0  0  0  0
   -0.8282   -3.6457    3.7794 C   0  0  0  0  0  0  0  0  0  0  0  0
   -1.2578   -4.6152    3.9822 H   0  0  0  0  0  0  0  0  0  0  0  0
   -0.6729   -3.1903    2.4564 C   0  0  0  0  0  0  0  0  0  0  0  0
   -0.9856   -3.8151    1.6282 H   0  0  0  0  0  0  0  0  0  0  0  0
   -0.8352    0.1910   -0.9960 C   0  0  0  0  0  0  0  0  0  0  0  0
   -1.2542    1.3264   -1.2229 O   0  0  0  0  0  0  0  0  0  0  0  0
   -0.1194   -0.5022   -1.8904 N   0  0  0  0  0  0  0  0  0  0  0  0
    0.1364   -1.4490   -1.6501 H   0  0  0  0  0  0  0  0  0  0  0  0
    0.2460   -0.0076   -3.2158 C   0  0  0  0  0  0  0  0  0  0  0  0
    0.6984    0.9819   -3.1304 H   0  0  0  0  0  0  0  0  0  0  0  0
    0.9562   -0.6881   -3.6883 H   0  0  0  0  0  0  0  0  0  0  0  0
   -0.6479    0.0697   -3.8382 H   0  0  0  0  0  0  0  0  0  0  0  0
  5  6  2  0  0  0  0
  5  7  1  0  0  0  0
  2  3  1  0  0  0  0
  2  4  1  0  0  0  0
  2  5  1  0  0  0  0
  1  2  1  0  0  0  0
 26 27  2  0  0  0  0
 26 28  1  0  0  0  0
 24 25  1  0  0  0  0
 22 23  1  0  0  0  0
 22 24  2  0  0  0  0
 20 21  1  0  0  0  0
 19 20  1  0  0  0  0
 19 22  1  0  0  0  0
 17 18  1  0  0  0  0
 17 19  2  0  0  0  0
 15 16  1  0  0  0  0
 15 17  1  0  0  0  0
 14 15  2  0  0  0  0
 14 24  1  0  0  0  0
 11 12  1  0  0  0  0
 11 13  1  0  0  0  0
 11 14  1  0  0  0  0
  9 10  1  0  0  0  0
  9 11  1  0  0  0  0
  9 26  1  0  0  0  0
  7  8  1  0  0  0  0
  7  9  1  0  0  0  0
 30 31  1  0  0  0  0
 30 32  1  0  0  0  0
 30 33  1  0  0  0  0
 28 29  1  0  0  0  0
 28 30  1  0  0  0  0
M  END
$$$$
default_name
  -OEChem-01062215323D

 33 33  0     1  0  0  0  0  0999 V2000
   -4.0702   -3.8485    1.4554 H   0  0  0  0  0  0  0  0  0  0  0  0
   -4.0012   -2.9605    0.8284 C   0  0  0  0  0  0  0  0  0  0  0  0
   -4.7652   -2.2435    1.1234 H   0  0  0  0  0  0  0  0  0  0  0  0
   -4.1352   -3.2385   -0.2156 H   0  0  0  0  0  0  0  0  0  0  0  0
   -2.6362   -2.3395    1.0094 C   0  0  0  0  0  0  0  0  0  0  0  0
   -1.8292   -2.8395    1.7814 O   0  0  0  0  0  0  0  0  0  0  0  0
   -2.3832   -1.2445    0.2964 N   0  0  0  0  0  0  0  0  0  0  0  0
   -3.1102   -0.8685   -0.2946 H   0  0  0  0  0  0  0  0  0  0  0  0
   -1.1292   -0.4875    0.3524 C   0  0  1  0  0  0  0  0  0  0  0  0
   -1.2308    0.2967    1.1036 H   0  0  0  0  0  0  0  0  0  0  0  0
    0.0136   -1.4235    0.7819 C   0  0  0  0  0  0  0  0  0  0  0  0
    0.0311   -2.2891    0.1184 H   0  0  0  0  0  0  0  0  0  0  0  0
    0.9635   -0.9000    0.6612 H   0  0  0  0  0  0  0  0  0  0  0  0
   -0.1051   -1.9258    2.2079 C   0  0  0  0  0  0  0  0  0  0  0  0
    0.3085   -1.1156    3.2843 C   0  0  0  0  0  0  0  0  0  0  0  0
    0.7374   -0.1404    3.0942 H   0  0  0  0  0  0  0  0  0  0  0  0
    0.1587   -1.5703    4.6089 C   0  0  0  0  0  0  0  0  0  0  0  0
    0.4779   -0.9478    5.4307 H   0  0  0  0  0  0  0  0  0  0  0  0
   -0.4103   -2.8383    4.8576 C   0  0  0  0  0  0  0  0  0  0  0  0
   -0.5618   -3.2847    6.1315 O   0  0  0  0  0  0  0  0  0  0  0  0
   -0.1635   -2.6930    6.7712 H   0  0  0  0  0  0  0  0  0  0  0  0
   -0.8282   -3.6457    3.7794 C   0  0  0  0  0  0  0  0  0  0  0  0
   -1.2578   -4.6152    3.9822 H   0  0  0  0  0  0  0  0  0  0  0  0
   -0.6729   -3.1903    2.4564 C   0  0  0  0  0  0  0  0  0  0  0  0
   -0.9856   -3.8151    1.6282 H   0  0  0  0  0  0  0  0  0  0  0  0
   -0.8352    0.1910   -0.9960 C   0  0  0  0  0  0  0  0  0  0  0  0
   -1.0041    1.4033   -1.1297 O   0  0  0  0  0  0  0  0  0  0  0  0
   -0.3992   -0.5876   -1.9944 N   0  0  0  0  0  0  0  0  0  0  0  0
   -0.3433   -1.5807   -1.8210 H   0  0  0  0  0  0  0  0  0  0  0  0
   -0.0760   -0.1053   -3.3352 C   0  0  0  0  0  0  0  0  0  0  0  0
    0.5983    0.7503   -3.2687 H   0  0  0  0  0  0  0  0  0  0  0  0
    0.4033   -0.8966   -3.9138 H   0  0  0  0  0  0  0  0  0  0  0  0
   -0.9902    0.2092   -3.8427 H   0  0  0  0  0  0  0  0  0  0  0  0
  5  6  2  0  0  0  0
  5  7  1  0  0  0  0
  2  3  1  0  0  0  0
  2  4  1  0  0  0  0
  2  5  1  0  0  0  0
  1  2  1  0  0  0  0
 26 27  2  0  0  0  0
 26 28  1  0  0  0  0
 24 25  1  0  0  0  0
 22 23  1  0  0  0  0
 22 24  2  0  0  0  0
 20 21  1  0  0  0  0
 19 20  1  0  0  0  0
 19 22  1  0  0  0  0
 17 18  1  0  0  0  0
 17 19  2  0  0  0  0
 15 16  1  0  0  0  0
 15 17  1  0  0  0  0
 14 15  2  0  0  0  0
 14 24  1  0  0  0  0
 11 12  1  0  0  0  0
 11 13  1  0  0  0  0
 11 14  1  0  0  0  0
  9 10  1  0  0  0  0
  9 11  1  0  0  0  0
  9 26  1  0  0  0  0
  7  8  1  0  0  0  0
  7  9  1  0  0  0  0
 30 31  1  0  0  0  0
 30 32  1  0  0  0  0
 30 33  1  0  0  0  0
 28 29  1  0  0  0  0
 28 30  1  0  0  0  0
M  END
$$$$
default_name
  -OEChem-01062215323D

 33 33  0     1  0  0  0  0  0999 V2000
   -4.0702   -3.8485    1.4554 H   0  0  0  0  0  0  0  0  0  0  0  0
   -4.0012   -2.9605    0.8284 C   0  0  0  0  0  0  0  0  0  0  0  0
   -4.7652   -2.2435    1.1234 H   0  0  0  0  0  0  0  0  0  0  0  0
   -4.1352   -3.2385   -0.2156 H   0  0  0  0  0  0  0  0  0  0  0  0
   -2.6362   -2.3395    1.0094 C   0  0  0  0  0  0  0  0  0  0  0  0
   -1.8292   -2.8395    1.7814 O   0  0  0  0  0  0  0  0  0  0  0  0
   -2.3832   -1.2445    0.2964 N   0  0  0  0  0  0  0  0  0  0  0  0
   -3.1102   -0.8685   -0.2946 H   0  0  0  0  0  0  0  0  0  0  0  0
   -1.1292   -0.4875    0.3524 C   0  0  1  0  0  0  0  0  0  0  0  0
   -1.2308    0.2967    1.1036 H   0  0  0  0  0  0  0  0  0  0  0  0
    0.0136   -1.4235    0.7819 C   0  0  0  0  0  0  0  0  0  0  0  0
    0.0311   -2.2891    0.1184 H   0  0  0  0  0  0  0  0  0  0  0  0
    0.9635   -0.9000    0.6612 H   0  0  0  0  0  0  0  0  0  0  0  0
   -0.1051   -1.9258    2.2079 C   0  0  0  0  0  0  0  0  0  0  0  0
    0.3085   -1.1156    3.2843 C   0  0  0  0  0  0  0  0  0  0  0  0
    0.7374   -0.1404    3.0942 H   0  0  0  0  0  0  0  0  0  0  0  0
    0.1587   -1.5703    4.6089 C   0  0  0  0  0  0  0  0  0  0  0  0
    0.4779   -0.9478    5.4307 H   0  0  0  0  0  0  0  0  0  0  0  0
   -0.4103   -2.8383    4.8576 C   0  0  0  0  0  0  0  0  0  0  0  0
   -0.5618   -3.2847    6.1315 O   0  0  0  0  0  0  0  0  0  0  0  0
   -0.1635   -2.6930    6.7712 H   0  0  0  0  0  0  0  0  0  0  0  0
   -0.8282   -3.6457    3.7794 C   0  0  0  0  0  0  0  0  0  0  0  0
   -1.2578   -4.6152    3.9822 H   0  0  0  0  0  0  0  0  0  0  0  0
   -0.6729   -3.1903    2.4564 C   0  0  0  0  0  0  0  0  0  0  0  0
   -0.9856   -3.8151    1.6282 H   0  0  0  0  0  0  0  0  0  0  0  0
   -0.8352    0.1910   -0.9960 C   0  0  0  0  0  0  0  0  0  0  0  0
   -0.7345    1.4163   -1.0643 O   0  0  0  0  0  0  0  0  0  0  0  0
   -0.7007   -0.6013   -2.0670 N   0  0  0  0  0  0  0  0  0  0  0  0
   -0.8561   -1.5906   -1.9378 H   0  0  0  0  0  0  0  0  0  0  0  0
   -0.4227   -0.1207   -3.4185 C   0  0  0  0  0  0  0  0  0  0  0  0
    0.4332    0.5562   -3.4024 H   0  0  0  0  0  0  0  0  0  0  0  0
   -0.2038   -0.9614   -4.0788 H   0  0  0  0  0  0  0  0  0  0  0  0
   -1.2898    0.4219   -3.8010 H   0  0  0  0  0  0  0  0  0  0  0  0
  5  6  2  0  0  0  0
  5  7  1  0  0  0  0
  2  3  1  0  0  0  0
  2  4  1  0  0  0  0
  2  5  1  0  0  0  0
  1  2  1  0  0  0  0
 26 27  2  0  0  0  0
 26 28  1  0  0  0  0
 24 25  1  0  0  0  0
 22 23  1  0  0  0  0
 22 24  2  0  0  0  0
 20 21  1  0  0  0  0
 19 20  1  0  0  0  0
 19 22  1  0  0  0  0
 17 18  1  0  0  0  0
 17 19  2  0  0  0  0
 15 16  1  0  0  0  0
 15 17  1  0  0  0  0
 14 15  2  0  0  0  0
 14 24  1  0  0  0  0
 11 12  1  0  0  0  0
 11 13  1  0  0  0  0
 11 14  1  0  0  0  0
  9 10  1  0  0  0  0
  9 11  1  0  0  0  0
  9 26  1  0  0  0  0
  7  8  1  0  0  0  0
  7  9  1  0  0  0  0
 30 31  1  0  0  0  0
 30 32  1  0  0  0  0
 30 33  1  0  0  0  0
 28 29  1  0  0  0  0
 28 30  1  0  0  0  0
M  END
$$$$
default_name
  -OEChem-01062215323D

 33 33  0     1  0  0  0  0  0999 V2000
   -4.0702   -3.8485    1.4554 H   0  0  0  0  0  0  0  0  0  0  0  0
   -4.0012   -2.9605    0.8284 C   0  0  0  0  0  0  0  0  0  0  0  0
   -4.7652   -2.2435    1.1234 H   0  0  0  0  0  0  0  0  0  0  0  0
   -4.1352   -3.2385   -0.2156 H   0  0  0  0  0  0  0  0  0  0  0  0
   -2.6362   -2.3395    1.0094 C   0  0  0  0  0  0  0  0  0  0  0  0
   -1.8292   -2.8395    1.7814 O   0  0  0  0  0  0  0  0  0  0  0  0
   -2.3832   -1.2445    0.2964 N   0  0  0  0  0  0  0  0  0  0  0  0
   -3.1102   -0.8685   -0.2946 H   0  0  0  0  0  0  0  0  0  0  0  0
   -1.1292   -0.4875    0.3524 C   0  0  1  0  0  0  0  0  0  0  0  0
   -1.2308    0.2967    1.1036 H   0  0  0  0  0  0  0  0  0  0  0  0
    0.0136   -1.4235    0.7819 C   0  0  0  0  0  0  0  0  0  0  0  0
    0.0311   -2.2891    0.1184 H   0  0  0  0  0  0  0  0  0  0  0  0
    0.9635   -0.9000    0.6612 H   0  0  0  0  0  0  0  0  0  0  0  0
   -0.1051   -1.9258    2.2079 C   0  0  0  0  0  0  0  0  0  0  0  0
    0.3085   -1.1156    3.2843 C   0  0  0  0  0  0  0  0  0  0  0  0
    0.7374   -0.1404    3.0942 H   0  0  0  0  0  0  0  0  0  0  0  0
    0.1587   -1.5703    4.6089 C   0  0  0  0  0  0  0  0  0  0  0  0
    0.4779   -0.9478    5.4307 H   0  0  0  0  0  0  0  0  0  0  0  0
   -0.4103   -2.8383    4.8576 C   0  0  0  0  0  0  0  0  0  0  0  0
   -0.5618   -3.2847    6.1315 O   0  0  0  0  0  0  0  0  0  0  0  0
   -0.1635   -2.6930    6.7712 H   0  0  0  0  0  0  0  0  0  0  0  0
   -0.8282   -3.6457    3.7794 C   0  0  0  0  0  0  0  0  0  0  0  0
   -1.2578   -4.6152    3.9822 H   0  0  0  0  0  0  0  0  0  0  0  0
   -0.6729   -3.1903    2.4564 C   0  0  0  0  0  0  0  0  0  0  0  0
   -0.9856   -3.8151    1.6282 H   0  0  0  0  0  0  0  0  0  0  0  0
   -0.8352    0.1910   -0.9960 C   0  0  0  0  0  0  0  0  0  0  0  0
   -0.4636    1.3644   -1.0314 O   0  0  0  0  0  0  0  0  0  0  0  0
   -1.0034   -0.5426   -2.1035 N   0  0  0  0  0  0  0  0  0  0  0  0
   -1.3670   -1.4780   -1.9926 H   0  0  0  0  0  0  0  0  0  0  0  0
   -0.7707   -0.0528   -3.4602 C   0  0  0  0  0  0  0  0  0  0  0  0
    0.2145    0.4128   -3.5223 H   0  0  0  0  0  0  0  0  0  0  0  0
   -0.8238   -0.8781   -4.1721 H   0  0  0  0  0  0  0  0  0  0  0  0
   -1.5260    0.6932   -3.7160 H   0  0  0  0  0  0  0  0  0  0  0  0
  5  6  2  0  0  0  0
  5  7  1  0  0  0  0
  2  3  1  0  0  0  0
  2  4  1  0  0  0  0
  2  5  1  0  0  0  0
  1  2  1  0  0  0  0
 26 27  2  0  0  0  0
 26 28  1  0  0  0  0
 24 25  1  0  0  0  0
 22 23  1  0  0  0  0
 22 24  2  0  0  0  0
 20 21  1  0  0  0  0
 19 20  1  0  0  0  0
 19 22  1  0  0  0  0
 17 18  1  0  0  0  0
 17 19  2  0  0  0  0
 15 16  1  0  0  0  0
 15 17  1  0  0  0  0
 14 15  2  0  0  0  0
 14 24  1  0  0  0  0
 11 12  1  0  0  0  0
 11 13  1  0  0  0  0
 11 14  1  0  0  0  0
  9 10  1  0  0  0  0
  9 11  1  0  0  0  0
  9 26  1  0  0  0  0
  7  8  1  0  0  0  0
  7  9  1  0  0  0  0
 30 31  1  0  0  0  0
 30 32  1  0  0  0  0
 30 33  1  0  0  0  0
 28 29  1  0  0  0  0
 28 30  1  0  0  0  0
M  END
$$$$
default_name
  -OEChem-01062215323D

 33 33  0     1  0  0  0  0  0999 V2000
   -4.0702   -3.8485    1.4554 H   0  0  0  0  0  0  0  0  0  0  0  0
   -4.0012   -2.9605    0.8284 C   0  0  0  0  0  0  0  0  0  0  0  0
   -4.7652   -2.2435    1.1234 H   0  0  0  0  0  0  0  0  0  0  0  0
   -4.1352   -3.2385   -0.2156 H   0  0  0  0  0  0  0  0  0  0  0  0
   -2.6362   -2.3395    1.0094 C   0  0  0  0  0  0  0  0  0  0  0  0
   -1.8292   -2.8395    1.7814 O   0  0  0  0  0  0  0  0  0  0  0  0
   -2.3832   -1.2445    0.2964 N   0  0  0  0  0  0  0  0  0  0  0  0
   -3.1102   -0.8685   -0.2946 H   0  0  0  0  0  0  0  0  0  0  0  0
   -1.1292   -0.4875    0.3524 C   0  0  1  0  0  0  0  0  0  0  0  0
   -1.2308    0.2967    1.1036 H   0  0  0  0  0  0  0  0  0  0  0  0
    0.0136   -1.4235    0.7819 C   0  0  0  0  0  0  0  0  0  0  0  0
    0.0311   -2.2891    0.1184 H   0  0  0  0  0  0  0  0  0  0  0  0
    0.9635   -0.9000    0.6612 H   0  0  0  0  0  0  0  0  0  0  0  0
   -0.1051   -1.9258    2.2079 C   0  0  0  0  0  0  0  0  0  0  0  0
    0.3085   -1.1156    3.2843 C   0  0  0  0  0  0  0  0  0  0  0  0
    0.7374   -0.1404    3.0942 H   0  0  0  0  0  0  0  0  0  0  0  0
    0.1587   -1.5703    4.6089 C   0  0  0  0  0  0  0  0  0  0  0  0
    0.4779   -0.9478    5.4307 H   0  0  0  0  0  0  0  0  0  0  0  0
   -0.4103   -2.8383    4.8576 C   0  0  0  0  0  0  0  0  0  0  0  0
   -0.5618   -3.2847    6.1315 O   0  0  0  0  0  0  0  0  0  0  0  0
   -0.1635   -2.6930    6.7712 H   0  0  0  0  0  0  0  0  0  0  0  0
   -0.8282   -3.6457    3.7794 C   0  0  0  0  0  0  0  0  0  0  0  0
   -1.2578   -4.6152    3.9822 H   0  0  0  0  0  0  0  0  0  0  0  0
   -0.6729   -3.1903    2.4564 C   0  0  0  0  0  0  0  0  0  0  0  0
   -0.9856   -3.8151    1.6282 H   0  0  0  0  0  0  0  0  0  0  0  0
   -0.8352    0.1910   -0.9960 C   0  0  0  0  0  0  0  0  0  0  0  0
   -0.2100    1.2511   -1.0331 O   0  0  0  0  0  0  0  0  0  0  0  0
   -1.2866   -0.4154   -2.1012 N   0  0  0  0  0  0  0  0  0  0  0  0
   -1.8412   -1.2506   -1.9815 H   0  0  0  0  0  0  0  0  0  0  0  0
   -1.0961    0.0939   -3.4574 C   0  0  0  0  0  0  0  0  0  0  0  0
   -0.0431    0.3298   -3.6202 H   0  0  0  0  0  0  0  0  0  0  0  0
   -1.4143   -0.6523   -4.1872 H   0  0  0  0  0  0  0  0  0  0  0  0
   -1.6830    1.0046   -3.5935 H   0  0  0  0  0  0  0  0  0  0  0  0
  5  6  2  0  0  0  0
  5  7  1  0  0  0  0
  2  3  1  0  0  0  0
  2  4  1  0  0  0  0
  2  5  1  0  0  0  0
  1  2  1  0  0  0  0
 26 27  2  0  0  0  0
 26 28  1  0  0  0  0
 24 25  1  0  0  0  0
 22 23  1  0  0  0  0
 22 24  2  0  0  0  0
 20 21  1  0  0  0  0
 19 20  1  0  0  0  0
 19 22  1  0  0  0  0
 17 18  1  0  0  0  0
 17 19  2  0  0  0  0
 15 16  1  0  0  0  0
 15 17  1  0  0  0  0
 14 15  2  0  0  0  0
 14 24  1  0  0  0  0
 11 12  1  0  0  0  0
 11 13  1  0  0  0  0
 11 14  1  0  0  0  0
  9 10  1  0  0  0  0
  9 11  1  0  0  0  0
  9 26  1  0  0  0  0
  7  8  1  0  0  0  0
  7  9  1  0  0  0  0
 30 31  1  0  0  0  0
 30 32  1  0  0  0  0
 30 33  1  0  0  0  0
 28 29  1  0  0  0  0
 28 30  1  0  0  0  0
M  END
$$$$
default_name
  -OEChem-01062215323D

 33 33  0     1  0  0  0  0  0999 V2000
   -4.0702   -3.8485    1.4554 H   0  0  0  0  0  0  0  0  0  0  0  0
   -4.0012   -2.9605    0.8284 C   0  0  0  0  0  0  0  0  0  0  0  0
   -4.7652   -2.2435    1.1234 H   0  0  0  0  0  0  0  0  0  0  0  0
   -4.1352   -3.2385   -0.2156 H   0  0  0  0  0  0  0  0  0  0  0  0
   -2.6362   -2.3395    1.0094 C   0  0  0  0  0  0  0  0  0  0  0  0
   -1.8292   -2.8395    1.7814 O   0  0  0  0  0  0  0  0  0  0  0  0
   -2.3832   -1.2445    0.2964 N   0  0  0  0  0  0  0  0  0  0  0  0
   -3.1102   -0.8685   -0.2946 H   0  0  0  0  0  0  0  0  0  0  0  0
   -1.1292   -0.4875    0.3524 C   0  0  1  0  0  0  0  0  0  0  0  0
   -1.2308    0.2967    1.1036 H   0  0  0  0  0  0  0  0  0  0  0  0
    0.0136   -1.4235    0.7819 C   0  0  0  0  0  0  0  0  0  0  0  0
    0.0311   -2.2891    0.1184 H   0  0  0  0  0  0  0  0  0  0  0  0
    0.9635   -0.9000    0.6612 H   0  0  0  0  0  0  0  0  0  0  0  0
   -0.1051   -1.9258    2.2079 C   0  0  0  0  0  0  0  0  0  0  0  0
    0.3085   -1.1156    3.2843 C   0  0  0  0  0  0  0  0  0  0  0  0
    0.7374   -0.1404    3.0942 H   0  0  0  0  0  0  0  0  0  0  0  0
    0.1587   -1.5703    4.6089 C   0  0  0  0  0  0  0  0  0  0  0  0
    0.4779   -0.9478    5.4307 H   0  0  0  0  0  0  0  0  0  0  0  0
   -0.4103   -2.8383    4.8576 C   0  0  0  0  0  0  0  0  0  0  0  0
   -0.5618   -3.2847    6.1315 O   0  0  0  0  0  0  0  0  0  0  0  0
   -0.1635   -2.6930    6.7712 H   0  0  0  0  0  0  0  0  0  0  0  0
   -0.8282   -3.6457    3.7794 C   0  0  0  0  0  0  0  0  0  0  0  0
   -1.2578   -4.6152    3.9822 H   0  0  0  0  0  0  0  0  0  0  0  0
   -0.6729   -3.1903    2.4564 C   0  0  0  0  0  0  0  0  0  0  0  0
   -0.9856   -3.8151    1.6282 H   0  0  0  0  0  0  0  0  0  0  0  0
   -0.8352    0.1910   -0.9960 C   0  0  0  0  0  0  0  0  0  0  0  0
    0.0091    1.0843   -1.0692 O   0  0  0  0  0  0  0  0  0  0  0  0
   -1.5310   -0.2283   -2.0604 N   0  0  0  0  0  0  0  0  0  0  0  0
   -2.2464   -0.9239   -1.9055 H   0  0  0  0  0  0  0  0  0  0  0  0
   -1.3769    0.3093   -3.4102 C   0  0  0  0  0  0  0  0  0  0  0  0
   -0.3218    0.3130   -3.6894 H   0  0  0  0  0  0  0  0  0  0  0  0
   -1.9353   -0.2994   -4.1233 H   0  0  0  0  0  0  0  0  0  0  0  0
   -1.7499    1.3350   -3.4419 H   0  0  0  0  0  0  0  0  0  0  0  0
  5  6  2  0  0  0  0
  5  7  1  0  0  0  0
  2  3  1  0  0  0  0
  2  4  1  0  0  0  0
  2  5  1  0  0  0  0
  1  2  1  0  0  0  0
 26 27  2  0  0  0  0
 26 28  1  0  0  0  0
 24 25  1  0  0  0  0
 22 23  1  0  0  0  0
 22 24  2  0  0  0  0
 20 21  1  0  0  0  0
 19 20  1  0  0  0  0
 19 22  1  0  0  0  0
 17 18  1  0  0  0  0
 17 19  2  0  0  0  0
 15 16  1  0  0  0  0
 15 17  1  0  0  0  0
 14 15  2  0  0  0  0
 14 24  1  0  0  0  0
 11 12  1  0  0  0  0
 11 13  1  0  0  0  0
 11 14  1  0  0  0  0
  9 10  1  0  0  0  0
  9 11  1  0  0  0  0
  9 26  1  0  0  0  0
  7  8  1  0  0  0  0
  7  9  1  0  0  0  0
 30 31  1  0  0  0  0
 30 32  1  0  0  0  0
 30 33  1  0  0  0  0
 28 29  1  0  0  0  0
 28 30  1  0  0  0  0
M  END
$$$$
default_name
  -OEChem-01062215323D

 33 33  0     1  0  0  0  0  0999 V2000
   -4.0702   -3.8485    1.4554 H   0  0  0  0  0  0  0  0  0  0  0  0
   -4.0012   -2.9605    0.8284 C   0  0  0  0  0  0  0  0  0  0  0  0
   -4.7652   -2.2435    1.1234 H   0  0  0  0  0  0  0  0  0  0  0  0
   -4.1352   -3.2385   -0.2156 H   0  0  0  0  0  0  0  0  0  0  0  0
   -2.6362   -2.3395    1.0094 C   0  0  0  0  0  0  0  0  0  0  0  0
   -1.8292   -2.8395    1.7814 O   0  0  0  0  0  0  0  0  0  0  0  0
   -2.3832   -1.2445    0.2964 N   0  0  0  0  0  0  0  0  0  0  0  0
   -3.1102   -0.8685   -0.2946 H   0  0  0  0  0  0  0  0  0  0  0  0
   -1.1292   -0.4875    0.3524 C   0  0  1  0  0  0  0  0  0  0  0  0
   -1.2308    0.2967    1.1036 H   0  0  0  0  0  0  0  0  0  0  0  0
    0.0136   -1.4235    0.7819 C   0  0  0  0  0  0  0  0  0  0  0  0
    0.0311   -2.2891    0.1184 H   0  0  0  0  0  0  0  0  0  0  0  0
    0.9635   -0.9000    0.6612 H   0  0  0  0  0  0  0  0  0  0  0  0
   -0.1051   -1.9258    2.2079 C   0  0  0  0  0  0  0  0  0  0  0  0
    0.3085   -1.1156    3.2843 C   0  0  0  0  0  0  0  0  0  0  0  0
    0.7374   -0.1404    3.0942 H   0  0  0  0  0  0  0  0  0  0  0  0
    0.1587   -1.5703    4.6089 C   0  0  0  0  0  0  0  0  0  0  0  0
    0.4779   -0.9478    5.4307 H   0  0  0  0  0  0  0  0  0  0  0  0
   -0.4103   -2.8383    4.8576 C   0  0  0  0  0  0  0  0  0  0  0  0
   -0.5618   -3.2847    6.1315 O   0  0  0  0  0  0  0  0  0  0  0  0
   -0.1635   -2.6930    6.7712 H   0  0  0  0  0  0  0  0  0  0  0  0
   -0.8282   -3.6457    3.7794 C   0  0  0  0  0  0  0  0  0  0  0  0
   -1.2578   -4.6152    3.9822 H   0  0  0  0  0  0  0  0  0  0  0  0
   -0.6729   -3.1903    2.4564 C   0  0  0  0  0  0  0  0  0  0  0  0
   -0.9856   -3.8151    1.6282 H   0  0  0  0  0  0  0  0  0  0  0  0
   -0.8352    0.1910   -0.9960 C   0  0  0  0  0  0  0  0  0  0  0  0
    0.1787    0.8752   -1.1375 O   0  0  0  0  0  0  0  0  0  0  0  0
   -1.7200    0.0058   -1.9838 N   0  0  0  0  0  0  0  0  0  0  0  0
   -2.5549   -0.5201   -1.7696 H   0  0  0  0  0  0  0  0  0  0  0  0
   -1.5938    0.5787   -3.3220 C   0  0  0  0  0  0  0  0  0  0  0  0
   -0.6028    0.3634   -3.7253 H   0  0  0  0  0  0  0  0  0  0  0  0
   -2.3511    0.1565   -3.9845 H   0  0  0  0  0  0  0  0  0  0  0  0
   -1.7223    1.6619   -3.2714 H   0  0  0  0  0  0  0  0  0  0  0  0
  5  6  2  0  0  0  0
  5  7  1  0  0  0  0
  2  3  1  0  0  0  0
  2  4  1  0  0  0  0
  2  5  1  0  0  0  0
  1  2  1  0  0  0  0
 26 27  2  0  0  0  0
 26 28  1  0  0  0  0
 24 25  1  0  0  0  0
 22 23  1  0  0  0  0
 22 24  2  0  0  0  0
 20 21  1  0  0  0  0
 19 20  1  0  0  0  0
 19 22  1  0  0  0  0
 17 18  1  0  0  0  0
 17 19  2  0  0  0  0
 15 16  1  0  0  0  0
 15 17  1  0  0  0  0
 14 15  2  0  0  0  0
 14 24  1  0  0  0  0
 11 12  1  0  0  0  0
 11 13  1  0  0  0  0
 11 14  1  0  0  0  0
  9 10  1  0  0  0  0
  9 11  1  0  0  0  0
  9 26  1  0  0  0  0
  7  8  1  0  0  0  0
  7  9  1  0  0  0  0
 30 31  1  0  0  0  0
 30 32  1  0  0  0  0
 30 33  1  0  0  0  0
 28 29  1  0  0  0  0
 28 30  1  0  0  0  0
M  END
$$$$
default_name
  -OEChem-01062215323D

 33 33  0     1  0  0  0  0  0999 V2000
   -4.0702   -3.8485    1.4554 H   0  0  0  0  0  0  0  0  0  0  0  0
   -4.0012   -2.9605    0.8284 C   0  0  0  0  0  0  0  0  0  0  0  0
   -4.7652   -2.2435    1.1234 H   0  0  0  0  0  0  0  0  0  0  0  0
   -4.1352   -3.2385   -0.2156 H   0  0  0  0  0  0  0  0  0  0  0  0
   -2.6362   -2.3395    1.0094 C   0  0  0  0  0  0  0  0  0  0  0  0
   -1.8292   -2.8395    1.7814 O   0  0  0  0  0  0  0  0  0  0  0  0
   -2.3832   -1.2445    0.2964 N   0  0  0  0  0  0  0  0  0  0  0  0
   -3.1102   -0.8685   -0.2946 H   0  0  0  0  0  0  0  0  0  0  0  0
   -1.1292   -0.4875    0.3524 C   0  0  1  0  0  0  0  0  0  0  0  0
   -1.2308    0.2967    1.1036 H   0  0  0  0  0  0  0  0  0  0  0  0
    0.0136   -1.4235    0.7819 C   0  0  0  0  0  0  0  0  0  0  0  0
    0.0311   -2.2891    0.1184 H   0  0  0  0  0  0  0  0  0  0  0  0
    0.9635   -0.9000    0.6612 H   0  0  0  0  0  0  0  0  0  0  0  0
   -0.1051   -1.9258    2.2079 C   0  0  0  0  0  0  0  0  0  0  0  0
    0.3085   -1.1156    3.2843 C   0  0  0  0  0  0  0  0  0  0  0  0
    0.7374   -0.1404    3.0942 H   0  0  0  0  0  0  0  0  0  0  0  0
    0.1587   -1.5703    4.6089 C   0  0  0  0  0  0  0  0  0  0  0  0
    0.4779   -0.9478    5.4307 H   0  0  0  0  0  0  0  0  0  0  0  0
   -0.4103   -2.8383    4.8576 C   0  0  0  0  0  0  0  0  0  0  0  0
   -0.5618   -3.2847    6.1315 O   0  0  0  0  0  0  0  0  0  0  0  0
   -0.1635   -2.6930    6.7712 H   0  0  0  0  0  0  0  0  0  0  0  0
   -0.8282   -3.6457    3.7794 C   0  0  0  0  0  0  0  0  0  0  0  0
   -1.2578   -4.6152    3.9822 H   0  0  0  0  0  0  0  0  0  0  0  0
   -0.6729   -3.1903    2.4564 C   0  0  0  0  0  0  0  0  0  0  0  0
   -0.9856   -3.8151    1.6282 H   0  0  0  0  0  0  0  0  0  0  0  0
   -0.8352    0.1910   -0.9960 C   0  0  0  0  0  0  0  0  0  0  0  0
    0.2873    0.6381   -1.2331 O   0  0  0  0  0  0  0  0  0  0  0  0
   -1.8407    0.2710   -1.8767 N   0  0  0  0  0  0  0  0  0  0  0  0
   -2.7458   -0.0668   -1.5832 H   0  0  0  0  0  0  0  0  0  0  0  0
   -1.7321    0.8838   -3.1986 C   0  0  0  0  0  0  0  0  0  0  0  0
   -0.8669    0.4776   -3.7254 H   0  0  0  0  0  0  0  0  0  0  0  0
   -2.6334    0.6844   -3.7805 H   0  0  0  0  0  0  0  0  0  0  0  0
   -1.6020    1.9629   -3.0937 H   0  0  0  0  0  0  0  0  0  0  0  0
  5  6  2  0  0  0  0
  5  7  1  0  0  0  0
  2  3  1  0  0  0  0
  2  4  1  0  0  0  0
  2  5  1  0  0  0  0
  1  2  1  0  0  0  0
 26 27  2  0  0  0  0
 26 28  1  0  0  0  0
 24 25  1  0  0  0  0
 22 23  1  0  0  0  0
 22 24  2  0  0  0  0
 20 21  1  0  0  0  0
 19 20  1  0  0  0  0
 19 22  1  0  0  0  0
 17 18  1  0  0  0  0
 17 19  2  0  0  0  0
 15 16  1  0  0  0  0
 15 17  1  0  0  0  0
 14 15  2  0  0  0  0
 14 24  1  0  0  0  0
 11 12  1  0  0  0  0
 11 13  1  0  0  0  0
 11 14  1  0  0  0  0
  9 10  1  0  0  0  0
  9 11  1  0  0  0  0
  9 26  1  0  0  0  0
  7  8  1  0  0  0  0
  7  9  1  0  0  0  0
 30 31  1  0  0  0  0
 30 32  1  0  0  0  0
 30 33  1  0  0  0  0
 28 29  1  0  0  0  0
 28 30  1  0  0  0  0
M  END
$$$$
default_name
  -OEChem-01062215323D

 33 33  0     1  0  0  0  0  0999 V2000
   -4.0702   -3.8485    1.4554 H   0  0  0  0  0  0  0  0  0  0  0  0
   -4.0012   -2.9605    0.8284 C   0  0  0  0  0  0  0  0  0  0  0  0
   -4.7652   -2.2435    1.1234 H   0  0  0  0  0  0  0  0  0  0  0  0
   -4.1352   -3.2385   -0.2156 H   0  0  0  0  0  0  0  0  0  0  0  0
   -2.6362   -2.3395    1.0094 C   0  0  0  0  0  0  0  0  0  0  0  0
   -1.8292   -2.8395    1.7814 O   0  0  0  0  0  0  0  0  0  0  0  0
   -2.3832   -1.2445    0.2964 N   0  0  0  0  0  0  0  0  0  0  0  0
   -3.1102   -0.8685   -0.2946 H   0  0  0  0  0  0  0  0  0  0  0  0
   -1.1292   -0.4875    0.3524 C   0  0  1  0  0  0  0  0  0  0  0  0
   -1.2308    0.2967    1.1036 H   0  0  0  0  0  0  0  0  0  0  0  0
    0.0136   -1.4235    0.7819 C   0  0  0  0  0  0  0  0  0  0  0  0
    0.0311   -2.2891    0.1184 H   0  0  0  0  0  0  0  0  0  0  0  0
    0.9635   -0.9000    0.6612 H   0  0  0  0  0  0  0  0  0  0  0  0
   -0.1051   -1.9258    2.2079 C   0  0  0  0  0  0  0  0  0  0  0  0
    0.3085   -1.1156    3.2843 C   0  0  0  0  0  0  0  0  0  0  0  0
    0.7374   -0.1404    3.0942 H   0  0  0  0  0  0  0  0  0  0  0  0
    0.1587   -1.5703    4.6089 C   0  0  0  0  0  0  0  0  0  0  0  0
    0.4779   -0.9478    5.4307 H   0  0  0  0  0  0  0  0  0  0  0  0
   -0.4103   -2.8383    4.8576 C   0  0  0  0  0  0  0  0  0  0  0  0
   -0.5618   -3.2847    6.1315 O   0  0  0  0  0  0  0  0  0  0  0  0
   -0.1635   -2.6930    6.7712 H   0  0  0  0  0  0  0  0  0  0  0  0
   -0.8282   -3.6457    3.7794 C   0  0  0  0  0  0  0  0  0  0  0  0
   -1.2578   -4.6152    3.9822 H   0  0  0  0  0  0  0  0  0  0  0  0
   -0.6729   -3.1903    2.4564 C   0  0  0  0  0  0  0  0  0  0  0  0
   -0.9856   -3.8151    1.6282 H   0  0  0  0  0  0  0  0  0  0  0  0
   -0.8352    0.1910   -0.9960 C   0  0  0  0  0  0  0  0  0  0  0  0
    0.3275    0.3892   -1.3496 O   0  0  0  0  0  0  0  0  0  0  0  0
   -1.8848    0.5493   -1.7463 N   0  0  0  0  0  0  0  0  0  0  0  0
   -2.8060    0.4052   -1.3588 H   0  0  0  0  0  0  0  0  0  0  0  0
   -1.7824    1.2038   -3.0486 C   0  0  0  0  0  0  0  0  0  0  0  0
   -1.0960    0.6479   -3.6897 H   0  0  0  0  0  0  0  0  0  0  0  0
   -2.7630    1.2483   -3.5250 H   0  0  0  0  0  0  0  0  0  0  0  0
   -1.3972    2.2175   -2.9209 H   0  0  0  0  0  0  0  0  0  0  0  0
  5  6  2  0  0  0  0
  5  7  1  0  0  0  0
  2  3  1  0  0  0  0
  2  4  1  0  0  0  0
  2  5  1  0  0  0  0
  1  2  1  0  0  0  0
 26 27  2  0  0  0  0
 26 28  1  0  0  0  0
 24 25  1  0  0  0  0
 22 23  1  0  0  0  0
 22 24  2  0  0  0  0
 20 21  1  0  0  0  0
 19 20  1  0  0  0  0
 19 22  1  0  0  0  0
 17 18  1  0  0  0  0
 17 19  2  0  0  0  0
 15 16  1  0  0  0  0
 15 17  1  0  0  0  0
 14 15  2  0  0  0  0
 14 24  1  0  0  0  0
 11 12  1  0  0  0  0
 11 13  1  0  0  0  0
 11 14  1  0  0  0  0
  9 10  1  0  0  0  0
  9 11  1  0  0  0  0
  9 26  1  0  0  0  0
  7  8  1  0  0  0  0
  7  9  1  0  0  0  0
 30 31  1  0  0  0  0
 30 32  1  0  0  0  0
 30 33  1  0  0  0  0
 28 29  1  0  0  0  0
 28 30  1  0  0  0  0
M  END
$$$$
default_name
  -OEChem-01062215323D

 33 33  0     1  0  0  0  0  0999 V2000
   -4.0702   -3.8485    1.4554 H   0  0  0  0  0  0  0  0  0  0  0  0
   -4.0012   -2.9605    0.8284 C   0  0  0  0  0  0  0  0  0  0  0  0
   -4.7652   -2.2435    1.1234 H   0  0  0  0  0  0  0  0  0  0  0  0
   -4.1352   -3.2385   -0.2156 H   0  0  0  0  0  0  0  0  0  0  0  0
   -2.6362   -2.3395    1.0094 C   0  0  0  0  0  0  0  0  0  0  0  0
   -1.8292   -2.8395    1.7814 O   0  0  0  0  0  0  0  0  0  0  0  0
   -2.3832   -1.2445    0.2964 N   0  0  0  0  0  0  0  0  0  0  0  0
   -3.1102   -0.8685   -0.2946 H   0  0  0  0  0  0  0  0  0  0  0  0
   -1.1292   -0.4875    0.3524 C   0  0  1  0  0  0  0  0  0  0  0  0
   -1.2308    0.2967    1.1036 H   0  0  0  0  0  0  0  0  0  0  0  0
    0.0136   -1.4235    0.7819 C   0  0  0  0  0  0  0  0  0  0  0  0
    0.0311   -2.2891    0.1184 H   0  0  0  0  0  0  0  0  0  0  0  0
    0.9635   -0.9000    0.6612 H   0  0  0  0  0  0  0  0  0  0  0  0
   -0.1051   -1.9258    2.2079 C   0  0  0  0  0  0  0  0  0  0  0  0
    0.3085   -1.1156    3.2843 C   0  0  0  0  0  0  0  0  0  0  0  0
    0.7374   -0.1404    3.0942 H   0  0  0  0  0  0  0  0  0  0  0  0
    0.1587   -1.5703    4.6089 C   0  0  0  0  0  0  0  0  0  0  0  0
    0.4779   -0.9478    5.4307 H   0  0  0  0  0  0  0  0  0  0  0  0
   -0.4103   -2.8383    4.8576 C   0  0  0  0  0  0  0  0  0  0  0  0
   -0.5618   -3.2847    6.1315 O   0  0  0  0  0  0  0  0  0  0  0  0
   -0.1635   -2.6930    6.7712 H   0  0  0  0  0  0  0  0  0  0  0  0
   -0.8282   -3.6457    3.7794 C   0  0  0  0  0  0  0  0  0  0  0  0
   -1.2578   -4.6152    3.9822 H   0  0  0  0  0  0  0  0  0  0  0  0
   -0.6729   -3.1903    2.4564 C   0  0  0  0  0  0  0  0  0  0  0  0
   -0.9856   -3.8151    1.6282 H   0  0  0  0  0  0  0  0  0  0  0  0
   -0.8352    0.1910   -0.9960 C   0  0  0  0  0  0  0  0  0  0  0  0
    0.2965    0.1454   -1.4790 O   0  0  0  0  0  0  0  0  0  0  0  0
   -1.8494    0.8217   -1.6015 N   0  0  0  0  0  0  0  0  0  0  0  0
   -2.7314    0.8636   -1.1119 H   0  0  0  0  0  0  0  0  0  0  0  0
   -1.7412    1.5168   -2.8821 C   0  0  0  0  0  0  0  0  0  0  0  0
   -1.2747    0.8626   -3.6207 H   0  0  0  0  0  0  0  0  0  0  0  0
   -2.7311    1.8097   -3.2356 H   0  0  0  0  0  0  0  0  0  0  0  0
   -1.1218    2.4085   -2.7648 H   0  0  0  0  0  0  0  0  0  0  0  0
  5  6  2  0  0  0  0
  5  7  1  0  0  0  0
  2  3  1  0  0  0  0
  2  4  1  0  0  0  0
  2  5  1  0  0  0  0
  1  2  1  0  0  0  0
 26 27  2  0  0  0  0
 26 28  1  0  0  0  0
 24 25  1  0  0  0  0
 22 23  1  0  0  0  0
 22 24  2  0  0  0  0
 20 21  1  0  0  0  0
 19 20  1  0  0  0  0
 19 22  1  0  0  0  0
 17 18  1  0  0  0  0
 17 19  2  0  0  0  0
 15 16  1  0  0  0  0
 15 17  1  0  0  0  0
 14 15  2  0  0  0  0
 14 24  1  0  0  0  0
 11 12  1  0  0  0  0
 11 13  1  0  0  0  0
 11 14  1  0  0  0  0
  9 10  1  0  0  0  0
  9 11  1  0  0  0  0
  9 26  1  0  0  0  0
  7  8  1  0  0  0  0
  7  9  1  0  0  0  0
 30 31  1  0  0  0  0
 30 32  1  0  0  0  0
 30 33  1  0  0  0  0
 28 29  1  0  0  0  0
 28 30  1  0  0  0  0
M  END
$$$$
default_name
  -OEChem-01062215323D

 33 33  0     1  0  0  0  0  0999 V2000
   -4.0702   -3.8485    1.4554 H   0  0  0  0  0  0  0  0  0  0  0  0
   -4.0012   -2.9605    0.8284 C   0  0  0  0  0  0  0  0  0  0  0  0
   -4.7652   -2.2435    1.1234 H   0  0  0  0  0  0  0  0  0  0  0  0
   -4.1352   -3.2385   -0.2156 H   0  0  0  0  0  0  0  0  0  0  0  0
   -2.6362   -2.3395    1.0094 C   0  0  0  0  0  0  0  0  0  0  0  0
   -1.8292   -2.8395    1.7814 O   0  0  0  0  0  0  0  0  0  0  0  0
   -2.3832   -1.2445    0.2964 N   0  0  0  0  0  0  0  0  0  0  0  0
   -3.1102   -0.8685   -0.2946 H   0  0  0  0  0  0  0  0  0  0  0  0
   -1.1292   -0.4875    0.3524 C   0  0  1  0  0  0  0  0  0  0  0  0
   -1.2308    0.2967    1.1036 H   0  0  0  0  0  0  0  0  0  0  0  0
    0.0136   -1.4235    0.7819 C   0  0  0  0  0  0  0  0  0  0  0  0
    0.0311   -2.2891    0.1184 H   0  0  0  0  0  0  0  0  0  0  0  0
    0.9635   -0.9000    0.6612 H   0  0  0  0  0  0  0  0  0  0  0  0
   -0.1051   -1.9258    2.2079 C   0  0  0  0  0  0  0  0  0  0  0  0
    0.3085   -1.1156    3.2843 C   0  0  0  0  0  0  0  0  0  0  0  0
    0.7374   -0.1404    3.0942 H   0  0  0  0  0  0  0  0  0  0  0  0
    0.1587   -1.5703    4.6089 C   0  0  0  0  0  0  0  0  0  0  0  0
    0.4779   -0.9478    5.4307 H   0  0  0  0  0  0  0  0  0  0  0  0
   -0.4103   -2.8383    4.8576 C   0  0  0  0  0  0  0  0  0  0  0  0
   -0.5618   -3.2847    6.1315 O   0  0  0  0  0  0  0  0  0  0  0  0
   -0.1635   -2.6930    6.7712 H   0  0  0  0  0  0  0  0  0  0  0  0
   -0.8282   -3.6457    3.7794 C   0  0  0  0  0  0  0  0  0  0  0  0
   -1.2578   -4.6152    3.9822 H   0  0  0  0  0  0  0  0  0  0  0  0
   -0.6729   -3.1903    2.4564 C   0  0  0  0  0  0  0  0  0  0  0  0
   -0.9856   -3.8151    1.6282 H   0  0  0  0  0  0  0  0  0  0  0  0
   -0.8352    0.1910   -0.9960 C   0  0  0  0  0  0  0  0  0  0  0  0
    0.1965   -0.0767   -1.6125 O   0  0  0  0  0  0  0  0  0  0  0  0
   -1.7368    1.0696   -1.4523 N   0  0  0  0  0  0  0  0  0  0  0  0
   -2.5272    1.2773   -0.8592 H   0  0  0  0  0  0  0  0  0  0  0  0
   -1.6113    1.8016   -2.7105 C   0  0  0  0  0  0  0  0  0  0  0  0
   -1.3906    1.1071   -3.5229 H   0  0  0  0  0  0  0  0  0  0  0  0
   -2.5398    2.3305   -2.9319 H   0  0  0  0  0  0  0  0  0  0  0  0
   -0.7947    2.5227   -2.6360 H   0  0  0  0  0  0  0  0  0  0  0  0
  5  6  2  0  0  0  0
  5  7  1  0  0  0  0
  2  3  1  0  0  0  0
  2  4  1  0  0  0  0
  2  5  1  0  0  0  0
  1  2  1  0  0  0  0
 26 27  2  0  0  0  0
 26 28  1  0  0  0  0
 24 25  1  0  0  0  0
 22 23  1  0  0  0  0
 22 24  2  0  0  0  0
 20 21  1  0  0  0  0
 19 20  1  0  0  0  0
 19 22  1  0  0  0  0
 17 18  1  0  0  0  0
 17 19  2  0  0  0  0
 15 16  1  0  0  0  0
 15 17  1  0  0  0  0
 14 15  2  0  0  0  0
 14 24  1  0  0  0  0
 11 12  1  0  0  0  0
 11 13  1  0  0  0  0
 11 14  1  0  0  0  0
  9 10  1  0  0  0  0
  9 11  1  0  0  0  0
  9 26  1  0  0  0  0
  7  8  1  0  0  0  0
  7  9  1  0  0  0  0
 30 31  1  0  0  0  0
 30 32  1  0  0  0  0
 30 33  1  0  0  0  0
 28 29  1  0  0  0  0
 28 30  1  0  0  0  0
M  END
$$$$
default_name
  -OEChem-01062215323D

 33 33  0     1  0  0  0  0  0999 V2000
   -4.0702   -3.8485    1.4554 H   0  0  0  0  0  0  0  0  0  0  0  0
   -4.0012   -2.9605    0.8284 C   0  0  0  0  0  0  0  0  0  0  0  0
   -4.7652   -2.2435    1.1234 H   0  0  0  0  0  0  0  0  0  0  0  0
   -4.1352   -3.2385   -0.2156 H   0  0  0  0  0  0  0  0  0  0  0  0
   -2.6362   -2.3395    1.0094 C   0  0  0  0  0  0  0  0  0  0  0  0
   -1.8292   -2.8395    1.7814 O   0  0  0  0  0  0  0  0  0  0  0  0
   -2.3832   -1.2445    0.2964 N   0  0  0  0  0  0  0  0  0  0  0  0
   -3.1102   -0.8685   -0.2946 H   0  0  0  0  0  0  0  0  0  0  0  0
   -1.1292   -0.4875    0.3524 C   0  0  1  0  0  0  0  0  0  0  0  0
   -1.2308    0.2967    1.1036 H   0  0  0  0  0  0  0  0  0  0  0  0
    0.0136   -1.4235    0.7819 C   0  0  0  0  0  0  0  0  0  0  0  0
    0.0311   -2.2891    0.1184 H   0  0  0  0  0  0  0  0  0  0  0  0
    0.9635   -0.9000    0.6612 H   0  0  0  0  0  0  0  0  0  0  0  0
   -0.1051   -1.9258    2.2079 C   0  0  0  0  0  0  0  0  0  0  0  0
    0.3085   -1.1156    3.2843 C   0  0  0  0  0  0  0  0  0  0  0  0
    0.7374   -0.1404    3.0942 H   0  0  0  0  0  0  0  0  0  0  0  0
    0.1587   -1.5703    4.6089 C   0  0  0  0  0  0  0  0  0  0  0  0
    0.4779   -0.9478    5.4307 H   0  0  0  0  0  0  0  0  0  0  0  0
   -0.4103   -2.8383    4.8576 C   0  0  0  0  0  0  0  0  0  0  0  0
   -0.5618   -3.2847    6.1315 O   0  0  0  0  0  0  0  0  0  0  0  0
   -0.1635   -2.6930    6.7712 H   0  0  0  0  0  0  0  0  0  0  0  0
   -0.8282   -3.6457    3.7794 C   0  0  0  0  0  0  0  0  0  0  0  0
   -1.2578   -4.6152    3.9822 H   0  0  0  0  0  0  0  0  0  0  0  0
   -0.6729   -3.1903    2.4564 C   0  0  0  0  0  0  0  0  0  0  0  0
   -0.9856   -3.8151    1.6282 H   0  0  0  0  0  0  0  0  0  0  0  0
   -0.8352    0.1910   -0.9960 C   0  0  0  0  0  0  0  0  0  0  0  0
    0.0342   -0.2619   -1.7411 O   0  0  0  0  0  0  0  0  0  0  0  0
   -1.5548    1.2761   -1.3087 N   0  0  0  0  0  0  0  0  0  0  0  0
   -2.2071    1.6180   -0.6180 H   0  0  0  0  0  0  0  0  0  0  0  0
   -1.4017    2.0388   -2.5454 C   0  0  0  0  0  0  0  0  0  0  0  0
   -1.4359    1.3648   -3.4031 H   0  0  0  0  0  0  0  0  0  0  0  0
   -2.2022    2.7750   -2.6346 H   0  0  0  0  0  0  0  0  0  0  0  0
   -0.4380    2.5524   -2.5433 H   0  0  0  0  0  0  0  0  0  0  0  0
  5  6  2  0  0  0  0
  5  7  1  0  0  0  0
  2  3  1  0  0  0  0
  2  4  1  0  0  0  0
  2  5  1  0  0  0  0
  1  2  1  0  0  0  0
 26 27  2  0  0  0  0
 26 28  1  0  0  0  0
 24 25  1  0  0  0  0
 22 23  1  0  0  0  0
 22 24  2  0  0  0  0
 20 21  1  0  0  0  0
 19 20  1  0  0  0  0
 19 22  1  0  0  0  0
 17 18  1  0  0  0  0
 17 19  2  0  0  0  0
 15 16  1  0  0  0  0
 15 17  1  0  0  0  0
 14 15  2  0  0  0  0
 14 24  1  0  0  0  0
 11 12  1  0  0  0  0
 11 13  1  0  0  0  0
 11 14  1  0  0  0  0
  9 10  1  0  0  0  0
  9 11  1  0  0  0  0
  9 26  1  0  0  0  0
  7  8  1  0  0  0  0
  7  9  1  0  0  0  0
 30 31  1  0  0  0  0
 30 32  1  0  0  0  0
 30 33  1  0  0  0  0
 28 29  1  0  0  0  0
 28 30  1  0  0  0  0
M  END
$$$$
default_name
  -OEChem-01062215323D

 33 33  0     1  0  0  0  0  0999 V2000
   -4.0702   -3.8485    1.4554 H   0  0  0  0  0  0  0  0  0  0  0  0
   -4.0012   -2.9605    0.8284 C   0  0  0  0  0  0  0  0  0  0  0  0
   -4.7652   -2.2435    1.1234 H   0  0  0  0  0  0  0  0  0  0  0  0
   -4.1352   -3.2385   -0.2156 H   0  0  0  0  0  0  0  0  0  0  0  0
   -2.6362   -2.3395    1.0094 C   0  0  0  0  0  0  0  0  0  0  0  0
   -1.8292   -2.8395    1.7814 O   0  0  0  0  0  0  0  0  0  0  0  0
   -2.3832   -1.2445    0.2964 N   0  0  0  0  0  0  0  0  0  0  0  0
   -3.1102   -0.8685   -0.2946 H   0  0  0  0  0  0  0  0  0  0  0  0
   -1.1292   -0.4875    0.3524 C   0  0  1  0  0  0  0  0  0  0  0  0
   -1.2308    0.2967    1.1036 H   0  0  0  0  0  0  0  0  0  0  0  0
    0.0136   -1.4235    0.7819 C   0  0  0  0  0  0  0  0  0  0  0  0
    0.0311   -2.2891    0.1184 H   0  0  0  0  0  0  0  0  0  0  0  0
    0.9635   -0.9000    0.6612 H   0  0  0  0  0  0  0  0  0  0  0  0
   -0.1051   -1.9258    2.2079 C   0  0  0  0  0  0  0  0  0  0  0  0
    0.3085   -1.1156    3.2843 C   0  0  0  0  0  0  0  0  0  0  0  0
    0.7374   -0.1404    3.0942 H   0  0  0  0  0  0  0  0  0  0  0  0
    0.1587   -1.5703    4.6089 C   0  0  0  0  0  0  0  0  0  0  0  0
    0.4779   -0.9478    5.4307 H   0  0  0  0  0  0  0  0  0  0  0  0
   -0.4103   -2.8383    4.8576 C   0  0  0  0  0  0  0  0  0  0  0  0
   -0.5618   -3.2847    6.1315 O   0  0  0  0  0  0  0  0  0  0  0  0
   -0.1635   -2.6930    6.7712 H   0  0  0  0  0  0  0  0  0  0  0  0
   -0.8282   -3.6457    3.7794 C   0  0  0  0  0  0  0  0  0  0  0  0
   -1.2578   -4.6152    3.9822 H   0  0  0  0  0  0  0  0  0  0  0  0
   -0.6729   -3.1903    2.4564 C   0  0  0  0  0  0  0  0  0  0  0  0
   -0.9856   -3.8151    1.6282 H   0  0  0  0  0  0  0  0  0  0  0  0
   -0.8352    0.1910   -0.9960 C   0  0  0  0  0  0  0  0  0  0  0  0
   -0.1792   -0.3975   -1.8559 O   0  0  0  0  0  0  0  0  0  0  0  0
   -1.3158    1.4271   -1.1805 N   0  0  0  0  0  0  0  0  0  0  0  0
   -1.7932    1.8626   -0.4046 H   0  0  0  0  0  0  0  0  0  0  0  0
   -1.1265    2.2121   -2.3982 C   0  0  0  0  0  0  0  0  0  0  0  0
   -1.4076    1.6180   -3.2695 H   0  0  0  0  0  0  0  0  0  0  0  0
   -1.7412    3.1131   -2.3640 H   0  0  0  0  0  0  0  0  0  0  0  0
   -0.0762    2.4955   -2.4930 H   0  0  0  0  0  0  0  0  0  0  0  0
  5  6  2  0  0  0  0
  5  7  1  0  0  0  0
  2  3  1  0  0  0  0
  2  4  1  0  0  0  0
  2  5  1  0  0  0  0
  1  2  1  0  0  0  0
 26 27  2  0  0  0  0
 26 28  1  0  0  0  0
 24 25  1  0  0  0  0
 22 23  1  0  0  0  0
 22 24  2  0  0  0  0
 20 21  1  0  0  0  0
 19 20  1  0  0  0  0
 19 22  1  0  0  0  0
 17 18  1  0  0  0  0
 17 19  2  0  0  0  0
 15 16  1  0  0  0  0
 15 17  1  0  0  0  0
 14 15  2  0  0  0  0
 14 24  1  0  0  0  0
 11 12  1  0  0  0  0
 11 13  1  0  0  0  0
 11 14  1  0  0  0  0
  9 10  1  0  0  0  0
  9 11  1  0  0  0  0
  9 26  1  0  0  0  0
  7  8  1  0  0  0  0
  7  9  1  0  0  0  0
 30 31  1  0  0  0  0
 30 32  1  0  0  0  0
 30 33  1  0  0  0  0
 28 29  1  0  0  0  0
 28 30  1  0  0  0  0
M  END
$$$$
default_name
  -OEChem-01062215323D

 33 33  0     1  0  0  0  0  0999 V2000
   -4.0702   -3.8485    1.4554 H   0  0  0  0  0  0  0  0  0  0  0  0
   -4.0012   -2.9605    0.8284 C   0  0  0  0  0  0  0  0  0  0  0  0
   -4.7652   -2.2435    1.1234 H   0  0  0  0  0  0  0  0  0  0  0  0
   -4.1352   -3.2385   -0.2156 H   0  0  0  0  0  0  0  0  0  0  0  0
   -2.6362   -2.3395    1.0094 C   0  0  0  0  0  0  0  0  0  0  0  0
   -1.8292   -2.8395    1.7814 O   0  0  0  0  0  0  0  0  0  0  0  0
   -2.3832   -1.2445    0.2964 N   0  0  0  0  0  0  0  0  0  0  0  0
   -3.1102   -0.8685   -0.2946 H   0  0  0  0  0  0  0  0  0  0  0  0
   -1.1292   -0.4875    0.3524 C   0  0  1  0  0  0  0  0  0  0  0  0
   -1.2308    0.2967    1.1036 H   0  0  0  0  0  0  0  0  0  0  0  0
    0.0136   -1.4235    0.7819 C   0  0  0  0  0  0  0  0  0  0  0  0
    0.0311   -2.2891    0.1184 H   0  0  0  0  0  0  0  0  0  0  0  0
    0.9635   -0.9000    0.6612 H   0  0  0  0  0  0  0  0  0  0  0  0
   -0.1051   -1.9258    2.2079 C   0  0  0  0  0  0  0  0  0  0  0  0
    0.3085   -1.1156    3.2843 C   0  0  0  0  0  0  0  0  0  0  0  0
    0.7374   -0.1404    3.0942 H   0  0  0  0  0  0  0  0  0  0  0  0
    0.1587   -1.5703    4.6089 C   0  0  0  0  0  0  0  0  0  0  0  0
    0.4779   -0.9478    5.4307 H   0  0  0  0  0  0  0  0  0  0  0  0
   -0.4103   -2.8383    4.8576 C   0  0  0  0  0  0  0  0  0  0  0  0
   -0.5618   -3.2847    6.1315 O   0  0  0  0  0  0  0  0  0  0  0  0
   -0.1635   -2.6930    6.7712 H   0  0  0  0  0  0  0  0  0  0  0  0
   -0.8282   -3.6457    3.7794 C   0  0  0  0  0  0  0  0  0  0  0  0
   -1.2578   -4.6152    3.9822 H   0  0  0  0  0  0  0  0  0  0  0  0
   -0.6729   -3.1903    2.4564 C   0  0  0  0  0  0  0  0  0  0  0  0
   -0.9856   -3.8151    1.6282 H   0  0  0  0  0  0  0  0  0  0  0  0
   -0.8352    0.1910   -0.9960 C   0  0  0  0  0  0  0  0  0  0  0  0
   -0.4293   -0.4745   -1.9491 O   0  0  0  0  0  0  0  0  0  0  0  0
   -1.0359    1.5124   -1.0766 N   0  0  0  0  0  0  0  0  0  0  0  0
   -1.3134    1.9943   -0.2338 H   0  0  0  0  0  0  0  0  0  0  0  0
   -0.8046    2.3098   -2.2789 C   0  0  0  0  0  0  0  0  0  0  0  0
   -1.3074    1.8496   -3.1312 H   0  0  0  0  0  0  0  0  0  0  0  0
   -1.1883    3.3216   -2.1385 H   0  0  0  0  0  0  0  0  0  0  0  0
    0.2661    2.3561   -2.4885 H   0  0  0  0  0  0  0  0  0  0  0  0
  5  6  2  0  0  0  0
  5  7  1  0  0  0  0
  2  3  1  0  0  0  0
  2  4  1  0  0  0  0
  2  5  1  0  0  0  0
  1  2  1  0  0  0  0
 26 27  2  0  0  0  0
 26 28  1  0  0  0  0
 24 25  1  0  0  0  0
 22 23  1  0  0  0  0
 22 24  2  0  0  0  0
 20 21  1  0  0  0  0
 19 20  1  0  0  0  0
 19 22  1  0  0  0  0
 17 18  1  0  0  0  0
 17 19  2  0  0  0  0
 15 16  1  0  0  0  0
 15 17  1  0  0  0  0
 14 15  2  0  0  0  0
 14 24  1  0  0  0  0
 11 12  1  0  0  0  0
 11 13  1  0  0  0  0
 11 14  1  0  0  0  0
  9 10  1  0  0  0  0
  9 11  1  0  0  0  0
  9 26  1  0  0  0  0
  7  8  1  0  0  0  0
  7  9  1  0  0  0  0
 30 31  1  0  0  0  0
 30 32  1  0  0  0  0
 30 33  1  0  0  0  0
 28 29  1  0  0  0  0
 28 30  1  0  0  0  0
M  END
$$$$
default_name
  -OEChem-01062215323D

 33 33  0     1  0  0  0  0  0999 V2000
   -4.0702   -3.8485    1.4554 H   0  0  0  0  0  0  0  0  0  0  0  0
   -4.0012   -2.9605    0.8284 C   0  0  0  0  0  0  0  0  0  0  0  0
   -4.7652   -2.2435    1.1234 H   0  0  0  0  0  0  0  0  0  0  0  0
   -4.1352   -3.2385   -0.2156 H   0  0  0  0  0  0  0  0  0  0  0  0
   -2.6362   -2.3395    1.0094 C   0  0  0  0  0  0  0  0  0  0  0  0
   -1.8292   -2.8395    1.7814 O   0  0  0  0  0  0  0  0  0  0  0  0
   -2.3832   -1.2445    0.2964 N   0  0  0  0  0  0  0  0  0  0  0  0
   -3.1102   -0.8685   -0.2946 H   0  0  0  0  0  0  0  0  0  0  0  0
   -1.1292   -0.4875    0.3524 C   0  0  1  0  0  0  0  0  0  0  0  0
   -1.2308    0.2967    1.1036 H   0  0  0  0  0  0  0  0  0  0  0  0
    0.0136   -1.4235    0.7819 C   0  0  0  0  0  0  0  0  0  0  0  0
    0.0311   -2.2891    0.1184 H   0  0  0  0  0  0  0  0  0  0  0  0
    0.9635   -0.9000    0.6612 H   0  0  0  0  0  0  0  0  0  0  0  0
   -0.1051   -1.9258    2.2079 C   0  0  0  0  0  0  0  0  0  0  0  0
    0.3085   -1.1156    3.2843 C   0  0  0  0  0  0  0  0  0  0  0  0
    0.7374   -0.1404    3.0942 H   0  0  0  0  0  0  0  0  0  0  0  0
    0.1587   -1.5703    4.6089 C   0  0  0  0  0  0  0  0  0  0  0  0
    0.4779   -0.9478    5.4307 H   0  0  0  0  0  0  0  0  0  0  0  0
   -0.4103   -2.8383    4.8576 C   0  0  0  0  0  0  0  0  0  0  0  0
   -0.5618   -3.2847    6.1315 O   0  0  0  0  0  0  0  0  0  0  0  0
   -0.1635   -2.6930    6.7712 H   0  0  0  0  0  0  0  0  0  0  0  0
   -0.8282   -3.6457    3.7794 C   0  0  0  0  0  0  0  0  0  0  0  0
   -1.2578   -4.6152    3.9822 H   0  0  0  0  0  0  0  0  0  0  0  0
   -0.6729   -3.1903    2.4564 C   0  0  0  0  0  0  0  0  0  0  0  0
   -0.9856   -3.8151    1.6282 H   0  0  0  0  0  0  0  0  0  0  0  0
   -0.8352    0.1910   -0.9960 C   0  0  0  0  0  0  0  0  0  0  0  0
   -0.6989   -0.4874   -2.0145 O   0  0  0  0  0  0  0  0  0  0  0  0
   -0.7344    1.5262   -1.0039 N   0  0  0  0  0  0  0  0  0  0  0  0
   -0.8006    2.0042   -0.1170 H   0  0  0  0  0  0  0  0  0  0  0  0
   -0.4578    2.3252   -2.1955 C   0  0  0  0  0  0  0  0  0  0  0  0
   -1.1424    2.0437   -2.9975 H   0  0  0  0  0  0  0  0  0  0  0  0
   -0.5812    3.3864   -1.9735 H   0  0  0  0  0  0  0  0  0  0  0  0
    0.5656    2.1434   -2.5302 H   0  0  0  0  0  0  0  0  0  0  0  0
  5  6  2  0  0  0  0
  5  7  1  0  0  0  0
  2  3  1  0  0  0  0
  2  4  1  0  0  0  0
  2  5  1  0  0  0  0
  1  2  1  0  0  0  0
 26 27  2  0  0  0  0
 26 28  1  0  0  0  0
 24 25  1  0  0  0  0
 22 23  1  0  0  0  0
 22 24  2  0  0  0  0
 20 21  1  0  0  0  0
 19 20  1  0  0  0  0
 19 22  1  0  0  0  0
 17 18  1  0  0  0  0
 17 19  2  0  0  0  0
 15 16  1  0  0  0  0
 15 17  1  0  0  0  0
 14 15  2  0  0  0  0
 14 24  1  0  0  0  0
 11 12  1  0  0  0  0
 11 13  1  0  0  0  0
 11 14  1  0  0  0  0
  9 10  1  0  0  0  0
  9 11  1  0  0  0  0
  9 26  1  0  0  0  0
  7  8  1  0  0  0  0
  7  9  1  0  0  0  0
 30 31  1  0  0  0  0
 30 32  1  0  0  0  0
 30 33  1  0  0  0  0
 28 29  1  0  0  0  0
 28 30  1  0  0  0  0
M  END
$$$$
default_name
  -OEChem-01062215323D

 33 33  0     1  0  0  0  0  0999 V2000
   -4.0702   -3.8485    1.4554 H   0  0  0  0  0  0  0  0  0  0  0  0
   -4.0012   -2.9605    0.8284 C   0  0  0  0  0  0  0  0  0  0  0  0
   -4.7652   -2.2435    1.1234 H   0  0  0  0  0  0  0  0  0  0  0  0
   -4.1352   -3.2385   -0.2156 H   0  0  0  0  0  0  0  0  0  0  0  0
   -2.6362   -2.3395    1.0094 C   0  0  0  0  0  0  0  0  0  0  0  0
   -1.8292   -2.8395    1.7814 O   0  0  0  0  0  0  0  0  0  0  0  0
   -2.3832   -1.2445    0.2964 N   0  0  0  0  0  0  0  0  0  0  0  0
   -3.1102   -0.8685   -0.2946 H   0  0  0  0  0  0  0  0  0  0  0  0
   -1.1292   -0.4875    0.3524 C   0  0  1  0  0  0  0  0  0  0  0  0
   -1.2308    0.2967    1.1036 H   0  0  0  0  0  0  0  0  0  0  0  0
    0.0136   -1.4235    0.7819 C   0  0  0  0  0  0  0  0  0  0  0  0
    0.0311   -2.2891    0.1184 H   0  0  0  0  0  0  0  0  0  0  0  0
    0.9635   -0.9000    0.6612 H   0  0  0  0  0  0  0  0  0  0  0  0
   -0.1051   -1.9258    2.2079 C   0  0  0  0  0  0  0  0  0  0  0  0
    0.3085   -1.1156    3.2843 C   0  0  0  0  0  0  0  0  0  0  0  0
    0.7374   -0.1404    3.0942 H   0  0  0  0  0  0  0  0  0  0  0  0
    0.1587   -1.5703    4.6089 C   0  0  0  0  0  0  0  0  0  0  0  0
    0.4779   -0.9478    5.4307 H   0  0  0  0  0  0  0  0  0  0  0  0
   -0.4103   -2.8383    4.8576 C   0  0  0  0  0  0  0  0  0  0  0  0
   -0.5618   -3.2847    6.1315 O   0  0  0  0  0  0  0  0  0  0  0  0
   -0.1635   -2.6930    6.7712 H   0  0  0  0  0  0  0  0  0  0  0  0
   -0.8282   -3.6457    3.7794 C   0  0  0  0  0  0  0  0  0  0  0  0
   -1.2578   -4.6152    3.9822 H   0  0  0  0  0  0  0  0  0  0  0  0
   -0.6729   -3.1903    2.4564 C   0  0  0  0  0  0  0  0  0  0  0  0
   -0.9856   -3.8151    1.6282 H   0  0  0  0  0  0  0  0  0  0  0  0
   -0.8352    0.1910   -0.9960 C   0  0  0  0  0  0  0  0  0  0  0  0
   -0.9698   -0.4355   -2.0474 O   0  0  0  0  0  0  0  0  0  0  0  0
   -0.4317    1.4675   -0.9675 N   0  0  0  0  0  0  0  0  0  0  0  0
   -0.2897    1.8916   -0.0622 H   0  0  0  0  0  0  0  0  0  0  0  0
   -0.1099    2.2572   -2.1538 C   0  0  0  0  0  0  0  0  0  0  0  0
   -0.9236    2.1871   -2.8777 H   0  0  0  0  0  0  0  0  0  0  0  0
    0.0388    3.3031   -1.8802 H   0  0  0  0  0  0  0  0  0  0  0  0
    0.8019    1.8721   -2.6152 H   0  0  0  0  0  0  0  0  0  0  0  0
  5  6  2  0  0  0  0
  5  7  1  0  0  0  0
  2  3  1  0  0  0  0
  2  4  1  0  0  0  0
  2  5  1  0  0  0  0
  1  2  1  0  0  0  0
 26 27  2  0  0  0  0
 26 28  1  0  0  0  0
 24 25  1  0  0  0  0
 22 23  1  0  0  0  0
 22 24  2  0  0  0  0
 20 21  1  0  0  0  0
 19 20  1  0  0  0  0
 19 22  1  0  0  0  0
 17 18  1  0  0  0  0
 17 19  2  0  0  0  0
 15 16  1  0  0  0  0
 15 17  1  0  0  0  0
 14 15  2  0  0  0  0
 14 24  1  0  0  0  0
 11 12  1  0  0  0  0
 11 13  1  0  0  0  0
 11 14  1  0  0  0  0
  9 10  1  0  0  0  0
  9 11  1  0  0  0  0
  9 26  1  0  0  0  0
  7  8  1  0  0  0  0
  7  9  1  0  0  0  0
 30 31  1  0  0  0  0
 30 32  1  0  0  0  0
 30 33  1  0  0  0  0
 28 29  1  0  0  0  0
 28 30  1  0  0  0  0
M  END
$$$$
default_name
  -OEChem-01062215323D

 33 33  0     1  0  0  0  0  0999 V2000
   -4.0702   -3.8485    1.4554 H   0  0  0  0  0  0  0  0  0  0  0  0
   -4.0012   -2.9605    0.8284 C   0  0  0  0  0  0  0  0  0  0  0  0
   -4.7652   -2.2435    1.1234 H   0  0  0  0  0  0  0  0  0  0  0  0
   -4.1352   -3.2385   -0.2156 H   0  0  0  0  0  0  0  0  0  0  0  0
   -2.6362   -2.3395    1.0094 C   0  0  0  0  0  0  0  0  0  0  0  0
   -1.8292   -2.8395    1.7814 O   0  0  0  0  0  0  0  0  0  0  0  0
   -2.3832   -1.2445    0.2964 N   0  0  0  0  0  0  0  0  0  0  0  0
   -3.1102   -0.8685   -0.2946 H   0  0  0  0  0  0  0  0  0  0  0  0
   -1.1292   -0.4875    0.3524 C   0  0  1  0  0  0  0  0  0  0  0  0
   -1.2308    0.2967    1.1036 H   0  0  0  0  0  0  0  0  0  0  0  0
    0.0136   -1.4235    0.7819 C   0  0  0  0  0  0  0  0  0  0  0  0
    0.0311   -2.2891    0.1184 H   0  0  0  0  0  0  0  0  0  0  0  0
    0.9635   -0.9000    0.6612 H   0  0  0  0  0  0  0  0  0  0  0  0
   -0.1051   -1.9258    2.2079 C   0  0  0  0  0  0  0  0  0  0  0  0
    0.3085   -1.1156    3.2843 C   0  0  0  0  0  0  0  0  0  0  0  0
    0.7374   -0.1404    3.0942 H   0  0  0  0  0  0  0  0  0  0  0  0
    0.1587   -1.5703    4.6089 C   0  0  0  0  0  0  0  0  0  0  0  0
    0.4779   -0.9478    5.4307 H   0  0  0  0  0  0  0  0  0  0  0  0
   -0.4103   -2.8383    4.8576 C   0  0  0  0  0  0  0  0  0  0  0  0
   -0.5618   -3.2847    6.1315 O   0  0  0  0  0  0  0  0  0  0  0  0
   -0.1635   -2.6930    6.7712 H   0  0  0  0  0  0  0  0  0  0  0  0
   -0.8282   -3.6457    3.7794 C   0  0  0  0  0  0  0  0  0  0  0  0
   -1.2578   -4.6152    3.9822 H   0  0  0  0  0  0  0  0  0  0  0  0
   -0.6729   -3.1903    2.4564 C   0  0  0  0  0  0  0  0  0  0  0  0
   -0.9856   -3.8151    1.6282 H   0  0  0  0  0  0  0  0  0  0  0  0
   -0.8352    0.1910   -0.9960 C   0  0  0  0  0  0  0  0  0  0  0  0
   -1.2234   -0.3223   -2.0457 O   0  0  0  0  0  0  0  0  0  0  0  0
   -0.1485    1.3402   -0.9697 N   0  0  0  0  0  0  0  0  0  0  0  0
    0.1845    1.6642   -0.0732 H   0  0  0  0  0  0  0  0  0  0  0  0
    0.2156    2.1106   -2.1566 C   0  0  0  0  0  0  0  0  0  0  0  0
   -0.6661    2.2701   -2.7798 H   0  0  0  0  0  0  0  0  0  0  0  0
    0.6293    3.0772   -1.8650 H   0  0  0  0  0  0  0  0  0  0  0  0
    0.9588    1.5607   -2.7376 H   0  0  0  0  0  0  0  0  0  0  0  0
  5  6  2  0  0  0  0
  5  7  1  0  0  0  0
  2  3  1  0  0  0  0
  2  4  1  0  0  0  0
  2  5  1  0  0  0  0
  1  2  1  0  0  0  0
 26 27  2  0  0  0  0
 26 28  1  0  0  0  0
 24 25  1  0  0  0  0
 22 23  1  0  0  0  0
 22 24  2  0  0  0  0
 20 21  1  0  0  0  0
 19 20  1  0  0  0  0
 19 22  1  0  0  0  0
 17 18  1  0  0  0  0
 17 19  2  0  0  0  0
 15 16  1  0  0  0  0
 15 17  1  0  0  0  0
 14 15  2  0  0  0  0
 14 24  1  0  0  0  0
 11 12  1  0  0  0  0
 11 13  1  0  0  0  0
 11 14  1  0  0  0  0
  9 10  1  0  0  0  0
  9 11  1  0  0  0  0
  9 26  1  0  0  0  0
  7  8  1  0  0  0  0
  7  9  1  0  0  0  0
 30 31  1  0  0  0  0
 30 32  1  0  0  0  0
 30 33  1  0  0  0  0
 28 29  1  0  0  0  0
 28 30  1  0  0  0  0
M  END
$$$$
default_name
  -OEChem-01062215323D

 33 33  0     1  0  0  0  0  0999 V2000
   -4.0702   -3.8485    1.4554 H   0  0  0  0  0  0  0  0  0  0  0  0
   -4.0012   -2.9605    0.8284 C   0  0  0  0  0  0  0  0  0  0  0  0
   -4.7652   -2.2435    1.1234 H   0  0  0  0  0  0  0  0  0  0  0  0
   -4.1352   -3.2385   -0.2156 H   0  0  0  0  0  0  0  0  0  0  0  0
   -2.6362   -2.3395    1.0094 C   0  0  0  0  0  0  0  0  0  0  0  0
   -1.8292   -2.8395    1.7814 O   0  0  0  0  0  0  0  0  0  0  0  0
   -2.3832   -1.2445    0.2964 N   0  0  0  0  0  0  0  0  0  0  0  0
   -3.1102   -0.8685   -0.2946 H   0  0  0  0  0  0  0  0  0  0  0  0
   -1.1292   -0.4875    0.3524 C   0  0  1  0  0  0  0  0  0  0  0  0
   -1.2308    0.2967    1.1036 H   0  0  0  0  0  0  0  0  0  0  0  0
    0.0136   -1.4235    0.7819 C   0  0  0  0  0  0  0  0  0  0  0  0
    0.0311   -2.2891    0.1184 H   0  0  0  0  0  0  0  0  0  0  0  0
    0.9635   -0.9000    0.6612 H   0  0  0  0  0  0  0  0  0  0  0  0
   -0.1051   -1.9258    2.2079 C   0  0  0  0  0  0  0  0  0  0  0  0
    0.3085   -1.1156    3.2843 C   0  0  0  0  0  0  0  0  0  0  0  0
    0.7374   -0.1404    3.0942 H   0  0  0  0  0  0  0  0  0  0  0  0
    0.1587   -1.5703    4.6089 C   0  0  0  0  0  0  0  0  0  0  0  0
    0.4779   -0.9478    5.4307 H   0  0  0  0  0  0  0  0  0  0  0  0
   -0.4103   -2.8383    4.8576 C   0  0  0  0  0  0  0  0  0  0  0  0
   -0.5618   -3.2847    6.1315 O   0  0  0  0  0  0  0  0  0  0  0  0
   -0.1635   -2.6930    6.7712 H   0  0  0  0  0  0  0  0  0  0  0  0
   -0.8282   -3.6457    3.7794 C   0  0  0  0  0  0  0  0  0  0  0  0
   -1.2578   -4.6152    3.9822 H   0  0  0  0  0  0  0  0  0  0  0  0
   -0.6729   -3.1903    2.4564 C   0  0  0  0  0  0  0  0  0  0  0  0
   -0.9856   -3.8151    1.6282 H   0  0  0  0  0  0  0  0  0  0  0  0
   -0.8352    0.1910   -0.9960 C   0  0  0  0  0  0  0  0  0  0  0  0
   -1.4425   -0.1554   -2.0096 O   0  0  0  0  0  0  0  0  0  0  0  0
    0.0959    1.1532   -1.0105 N   0  0  0  0  0  0  0  0  0  0  0  0
    0.5896    1.3374   -0.1493 H   0  0  0  0  0  0  0  0  0  0  0  0
    0.4963    1.8952   -2.2038 C   0  0  0  0  0  0  0  0  0  0  0  0
   -0.3874    2.2869   -2.7105 H   0  0  0  0  0  0  0  0  0  0  0  0
    1.1503    2.7243   -1.9290 H   0  0  0  0  0  0  0  0  0  0  0  0
    1.0258    1.2302   -2.8893 H   0  0  0  0  0  0  0  0  0  0  0  0
  5  6  2  0  0  0  0
  5  7  1  0  0  0  0
  2  3  1  0  0  0  0
  2  4  1  0  0  0  0
  2  5  1  0  0  0  0
  1  2  1  0  0  0  0
 26 27  2  0  0  0  0
 26 28  1  0  0  0  0
 24 25  1  0  0  0  0
 22 23  1  0  0  0  0
 22 24  2  0  0  0  0
 20 21  1  0  0  0  0
 19 20  1  0  0  0  0
 19 22  1  0  0  0  0
 17 18  1  0  0  0  0
 17 19  2  0  0  0  0
 15 16  1  0  0  0  0
 15 17  1  0  0  0  0
 14 15  2  0  0  0  0
 14 24  1  0  0  0  0
 11 12  1  0  0  0  0
 11 13  1  0  0  0  0
 11 14  1  0  0  0  0
  9 10  1  0  0  0  0
  9 11  1  0  0  0  0
  9 26  1  0  0  0  0
  7  8  1  0  0  0  0
  7  9  1  0  0  0  0
 30 31  1  0  0  0  0
 30 32  1  0  0  0  0
 30 33  1  0  0  0  0
 28 29  1  0  0  0  0
 28 30  1  0  0  0  0
M  END
$$$$
default_name
  -OEChem-01062215323D

 33 33  0     1  0  0  0  0  0999 V2000
   -4.0702   -3.8485    1.4554 H   0  0  0  0  0  0  0  0  0  0  0  0
   -4.0012   -2.9605    0.8284 C   0  0  0  0  0  0  0  0  0  0  0  0
   -4.7652   -2.2435    1.1234 H   0  0  0  0  0  0  0  0  0  0  0  0
   -4.1352   -3.2385   -0.2156 H   0  0  0  0  0  0  0  0  0  0  0  0
   -2.6362   -2.3395    1.0094 C   0  0  0  0  0  0  0  0  0  0  0  0
   -1.8292   -2.8395    1.7814 O   0  0  0  0  0  0  0  0  0  0  0  0
   -2.3832   -1.2445    0.2964 N   0  0  0  0  0  0  0  0  0  0  0  0
   -3.1102   -0.8685   -0.2946 H   0  0  0  0  0  0  0  0  0  0  0  0
   -1.1292   -0.4875    0.3524 C   0  0  1  0  0  0  0  0  0  0  0  0
   -1.1245    0.1088    1.2656 H   0  0  0  0  0  0  0  0  0  0  0  0
    0.0562   -1.4664    0.4079 C   0  0  0  0  0  0  0  0  0  0  0  0
   -0.0203   -2.1635   -0.4276 H   0  0  0  0  0  0  0  0  0  0  0  0
    0.9838   -0.9056    0.2817 H   0  0  0  0  0  0  0  0  0  0  0  0
    0.1282   -2.2739    1.6896 C   0  0  0  0  0  0  0  0  0  0  0  0
    0.6873   -1.7112    2.8545 C   0  0  0  0  0  0  0  0  0  0  0  0
    1.0917   -0.7077    2.8305 H   0  0  0  0  0  0  0  0  0  0  0  0
    0.7150   -2.4507    4.0529 C   0  0  0  0  0  0  0  0  0  0  0  0
    1.1453   -2.0172    4.9426 H   0  0  0  0  0  0  0  0  0  0  0  0
    0.1781   -3.7561    4.0869 C   0  0  0  0  0  0  0  0  0  0  0  0
    0.1974   -4.4763    5.2384 O   0  0  0  0  0  0  0  0  0  0  0  0
    0.6814   -4.0307    5.9350 H   0  0  0  0  0  0  0  0  0  0  0  0
   -0.3854   -4.3158    2.9215 C   0  0  0  0  0  0  0  0  0  0  0  0
   -0.7887   -5.3165    2.9590 H   0  0  0  0  0  0  0  0  0  0  0  0
   -0.4075   -3.5759    1.7240 C   0  0  0  0  0  0  0  0  0  0  0  0
   -0.8322   -4.0100    0.8267 H   0  0  0  0  0  0  0  0  0  0  0  0
   -1.0161    0.4790   -0.8384 C   0  0  0  0  0  0  0  0  0  0  0  0
   -1.9140    0.5344   -1.6791 O   0  0  0  0  0  0  0  0  0  0  0  0
    0.0852    1.2370   -0.9132 N   0  0  0  0  0  0  0  0  0  0  0  0
    0.8011    1.0895   -0.2166 H   0  0  0  0  0  0  0  0  0  0  0  0
    0.3509    2.2027   -1.9770 C   0  0  0  0  0  0  0  0  0  0  0  0
   -0.5096    2.8621   -2.1022 H   0  0  0  0  0  0  0  0  0  0  0  0
    1.2295    2.8010   -1.7306 H   0  0  0  0  0  0  0  0  0  0  0  0
    0.5260    1.6749   -2.9168 H   0  0  0  0  0  0  0  0  0  0  0  0
  5  6  2  0  0  0  0
  5  7  1  0  0  0  0
  2  3  1  0  0  0  0
  2  4  1  0  0  0  0
  2  5  1  0  0  0  0
  1  2  1  0  0  0  0
 26 27  2  0  0  0  0
 26 28  1  0  0  0  0
 24 25  1  0  0  0  0
 22 23  1  0  0  0  0
 22 24  2  0  0  0  0
 20 21  1  0  0  0  0
 19 20  1  0  0  0  0
 19 22  1  0  0  0  0
 17 18  1  0  0  0  0
 17 19  2  0  0  0  0
 15 16  1  0  0  0  0
 15 17  1  0  0  0  0
 14 15  2  0  0  0  0
 14 24  1  0  0  0  0
 11 12  1  0  0  0  0
 11 13  1  0  0  0  0
 11 14  1  0  0  0  0
  9 10  1  0  0  0  0
  9 11  1  0  0  0  0
  9 26  1  0  0  0  0
  7  8  1  0  0  0  0
  7  9  1  0  0  0  0
 30 31  1  0  0  0  0
 30 32  1  0  0  0  0
 30 33  1  0  0  0  0
 28 29  1  0  0  0  0
 28 30  1  0  0  0  0
M  END
$$$$
default_name
  -OEChem-01062215323D

 33 33  0     1  0  0  0  0  0999 V2000
   -4.0702   -3.8485    1.4554 H   0  0  0  0  0  0  0  0  0  0  0  0
   -4.0012   -2.9605    0.8284 C   0  0  0  0  0  0  0  0  0  0  0  0
   -4.7652   -2.2435    1.1234 H   0  0  0  0  0  0  0  0  0  0  0  0
   -4.1352   -3.2385   -0.2156 H   0  0  0  0  0  0  0  0  0  0  0  0
   -2.6362   -2.3395    1.0094 C   0  0  0  0  0  0  0  0  0  0  0  0
   -1.8292   -2.8395    1.7814 O   0  0  0  0  0  0  0  0  0  0  0  0
   -2.3832   -1.2445    0.2964 N   0  0  0  0  0  0  0  0  0  0  0  0
   -3.1102   -0.8685   -0.2946 H   0  0  0  0  0  0  0  0  0  0  0  0
   -1.1292   -0.4875    0.3524 C   0  0  1  0  0  0  0  0  0  0  0  0
   -1.1245    0.1088    1.2656 H   0  0  0  0  0  0  0  0  0  0  0  0
    0.0562   -1.4664    0.4079 C   0  0  0  0  0  0  0  0  0  0  0  0
   -0.0203   -2.1635   -0.4276 H   0  0  0  0  0  0  0  0  0  0  0  0
    0.9838   -0.9056    0.2817 H   0  0  0  0  0  0  0  0  0  0  0  0
    0.1282   -2.2739    1.6896 C   0  0  0  0  0  0  0  0  0  0  0  0
    0.6873   -1.7112    2.8545 C   0  0  0  0  0  0  0  0  0  0  0  0
    1.0917   -0.7077    2.8305 H   0  0  0  0  0  0  0  0  0  0  0  0
    0.7150   -2.4507    4.0529 C   0  0  0  0  0  0  0  0  0  0  0  0
    1.1453   -2.0172    4.9426 H   0  0  0  0  0  0  0  0  0  0  0  0
    0.1781   -3.7561    4.0869 C   0  0  0  0  0  0  0  0  0  0  0  0
    0.1974   -4.4763    5.2384 O   0  0  0  0  0  0  0  0  0  0  0  0
    0.6814   -4.0307    5.9350 H   0  0  0  0  0  0  0  0  0  0  0  0
   -0.3854   -4.3158    2.9215 C   0  0  0  0  0  0  0  0  0  0  0  0
   -0.7887   -5.3165    2.9590 H   0  0  0  0  0  0  0  0  0  0  0  0
   -0.4075   -3.5759    1.7240 C   0  0  0  0  0  0  0  0  0  0  0  0
   -0.8322   -4.0100    0.8267 H   0  0  0  0  0  0  0  0  0  0  0  0
   -1.0161    0.4790   -0.8384 C   0  0  0  0  0  0  0  0  0  0  0  0
   -2.0075    0.7418   -1.5197 O   0  0  0  0  0  0  0  0  0  0  0  0
    0.1890    1.0050   -1.0916 N   0  0  0  0  0  0  0  0  0  0  0  0
    0.9627    0.6934   -0.5227 H   0  0  0  0  0  0  0  0  0  0  0  0
    0.4697    1.9359   -2.1822 C   0  0  0  0  0  0  0  0  0  0  0  0
   -0.2485    2.7573   -2.1625 H   0  0  0  0  0  0  0  0  0  0  0  0
    1.4791    2.3384   -2.0824 H   0  0  0  0  0  0  0  0  0  0  0  0
    0.3813    1.4177   -3.1393 H   0  0  0  0  0  0  0  0  0  0  0  0
  5  6  2  0  0  0  0
  5  7  1  0  0  0  0
  2  3  1  0  0  0  0
  2  4  1  0  0  0  0
  2  5  1  0  0  0  0
  1  2  1  0  0  0  0
 26 27  2  0  0  0  0
 26 28  1  0  0  0  0
 24 25  1  0  0  0  0
 22 23  1  0  0  0  0
 22 24  2  0  0  0  0
 20 21  1  0  0  0  0
 19 20  1  0  0  0  0
 19 22  1  0  0  0  0
 17 18  1  0  0  0  0
 17 19  2  0  0  0  0
 15 16  1  0  0  0  0
 15 17  1  0  0  0  0
 14 15  2  0  0  0  0
 14 24  1  0  0  0  0
 11 12  1  0  0  0  0
 11 13  1  0  0  0  0
 11 14  1  0  0  0  0
  9 10  1  0  0  0  0
  9 11  1  0  0  0  0
  9 26  1  0  0  0  0
  7  8  1  0  0  0  0
  7  9  1  0  0  0  0
 30 31  1  0  0  0  0
 30 32  1  0  0  0  0
 30 33  1  0  0  0  0
 28 29  1  0  0  0  0
 28 30  1  0  0  0  0
M  END
$$$$
default_name
  -OEChem-01062215323D

 33 33  0     1  0  0  0  0  0999 V2000
   -4.0702   -3.8485    1.4554 H   0  0  0  0  0  0  0  0  0  0  0  0
   -4.0012   -2.9605    0.8284 C   0  0  0  0  0  0  0  0  0  0  0  0
   -4.7652   -2.2435    1.1234 H   0  0  0  0  0  0  0  0  0  0  0  0
   -4.1352   -3.2385   -0.2156 H   0  0  0  0  0  0  0  0  0  0  0  0
   -2.6362   -2.3395    1.0094 C   0  0  0  0  0  0  0  0  0  0  0  0
   -1.8292   -2.8395    1.7814 O   0  0  0  0  0  0  0  0  0  0  0  0
   -2.3832   -1.2445    0.2964 N   0  0  0  0  0  0  0  0  0  0  0  0
   -3.1102   -0.8685   -0.2946 H   0  0  0  0  0  0  0  0  0  0  0  0
   -1.1292   -0.4875    0.3524 C   0  0  1  0  0  0  0  0  0  0  0  0
   -1.1245    0.1088    1.2656 H   0  0  0  0  0  0  0  0  0  0  0  0
    0.0562   -1.4664    0.4079 C   0  0  0  0  0  0  0  0  0  0  0  0
   -0.0203   -2.1635   -0.4276 H   0  0  0  0  0  0  0  0  0  0  0  0
    0.9838   -0.9056    0.2817 H   0  0  0  0  0  0  0  0  0  0  0  0
    0.1282   -2.2739    1.6896 C   0  0  0  0  0  0  0  0  0  0  0  0
    0.6873   -1.7112    2.8545 C   0  0  0  0  0  0  0  0  0  0  0  0
    1.0917   -0.7077    2.8305 H   0  0  0  0  0  0  0  0  0  0  0  0
    0.7150   -2.4507    4.0529 C   0  0  0  0  0  0  0  0  0  0  0  0
    1.1453   -2.0172    4.9426 H   0  0  0  0  0  0  0  0  0  0  0  0
    0.1781   -3.7561    4.0869 C   0  0  0  0  0  0  0  0  0  0  0  0
    0.1974   -4.4763    5.2384 O   0  0  0  0  0  0  0  0  0  0  0  0
    0.6814   -4.0307    5.9350 H   0  0  0  0  0  0  0  0  0  0  0  0
   -0.3854   -4.3158    2.9215 C   0  0  0  0  0  0  0  0  0  0  0  0
   -0.7887   -5.3165    2.9590 H   0  0  0  0  0  0  0  0  0  0  0  0
   -0.4075   -3.5759    1.7240 C   0  0  0  0  0  0  0  0  0  0  0  0
   -0.8322   -4.0100    0.8267 H   0  0  0  0  0  0  0  0  0  0  0  0
   -1.0161    0.4790   -0.8384 C   0  0  0  0  0  0  0  0  0  0  0  0
   -2.0304    0.9578   -1.3466 O   0  0  0  0  0  0  0  0  0  0  0  0
    0.2137    0.7636   -1.2852 N   0  0  0  0  0  0  0  0  0  0  0  0
    0.9897    0.2842   -0.8522 H   0  0  0  0  0  0  0  0  0  0  0  0
    0.4977    1.6583   -2.4049 C   0  0  0  0  0  0  0  0  0  0  0  0
   -0.0272    2.6049   -2.2652 H   0  0  0  0  0  0  0  0  0  0  0  0
    1.5701    1.8482   -2.4715 H   0  0  0  0  0  0  0  0  0  0  0  0
    0.1537    1.2024   -3.3356 H   0  0  0  0  0  0  0  0  0  0  0  0
  5  6  2  0  0  0  0
  5  7  1  0  0  0  0
  2  3  1  0  0  0  0
  2  4  1  0  0  0  0
  2  5  1  0  0  0  0
  1  2  1  0  0  0  0
 26 27  2  0  0  0  0
 26 28  1  0  0  0  0
 24 25  1  0  0  0  0
 22 23  1  0  0  0  0
 22 24  2  0  0  0  0
 20 21  1  0  0  0  0
 19 20  1  0  0  0  0
 19 22  1  0  0  0  0
 17 18  1  0  0  0  0
 17 19  2  0  0  0  0
 15 16  1  0  0  0  0
 15 17  1  0  0  0  0
 14 15  2  0  0  0  0
 14 24  1  0  0  0  0
 11 12  1  0  0  0  0
 11 13  1  0  0  0  0
 11 14  1  0  0  0  0
  9 10  1  0  0  0  0
  9 11  1  0  0  0  0
  9 26  1  0  0  0  0
  7  8  1  0  0  0  0
  7  9  1  0  0  0  0
 30 31  1  0  0  0  0
 30 32  1  0  0  0  0
 30 33  1  0  0  0  0
 28 29  1  0  0  0  0
 28 30  1  0  0  0  0
M  END
$$$$
default_name
  -OEChem-01062215323D

 33 33  0     1  0  0  0  0  0999 V2000
   -4.0702   -3.8485    1.4554 H   0  0  0  0  0  0  0  0  0  0  0  0
   -4.0012   -2.9605    0.8284 C   0  0  0  0  0  0  0  0  0  0  0  0
   -4.7652   -2.2435    1.1234 H   0  0  0  0  0  0  0  0  0  0  0  0
   -4.1352   -3.2385   -0.2156 H   0  0  0  0  0  0  0  0  0  0  0  0
   -2.6362   -2.3395    1.0094 C   0  0  0  0  0  0  0  0  0  0  0  0
   -1.8292   -2.8395    1.7814 O   0  0  0  0  0  0  0  0  0  0  0  0
   -2.3832   -1.2445    0.2964 N   0  0  0  0  0  0  0  0  0  0  0  0
   -3.1102   -0.8685   -0.2946 H   0  0  0  0  0  0  0  0  0  0  0  0
   -1.1292   -0.4875    0.3524 C   0  0  1  0  0  0  0  0  0  0  0  0
   -1.1245    0.1088    1.2656 H   0  0  0  0  0  0  0  0  0  0  0  0
    0.0562   -1.4664    0.4079 C   0  0  0  0  0  0  0  0  0  0  0  0
   -0.0203   -2.1635   -0.4276 H   0  0  0  0  0  0  0  0  0  0  0  0
    0.9838   -0.9056    0.2817 H   0  0  0  0  0  0  0  0  0  0  0  0
    0.1282   -2.2739    1.6896 C   0  0  0  0  0  0  0  0  0  0  0  0
    0.6873   -1.7112    2.8545 C   0  0  0  0  0  0  0  0  0  0  0  0
    1.0917   -0.7077    2.8305 H   0  0  0  0  0  0  0  0  0  0  0  0
    0.7150   -2.4507    4.0529 C   0  0  0  0  0  0  0  0  0  0  0  0
    1.1453   -2.0172    4.9426 H   0  0  0  0  0  0  0  0  0  0  0  0
    0.1781   -3.7561    4.0869 C   0  0  0  0  0  0  0  0  0  0  0  0
    0.1974   -4.4763    5.2384 O   0  0  0  0  0  0  0  0  0  0  0  0
    0.6814   -4.0307    5.9350 H   0  0  0  0  0  0  0  0  0  0  0  0
   -0.3854   -4.3158    2.9215 C   0  0  0  0  0  0  0  0  0  0  0  0
   -0.7887   -5.3165    2.9590 H   0  0  0  0  0  0  0  0  0  0  0  0
   -0.4075   -3.5759    1.7240 C   0  0  0  0  0  0  0  0  0  0  0  0
   -0.8322   -4.0100    0.8267 H   0  0  0  0  0  0  0  0  0  0  0  0
   -1.0161    0.4790   -0.8384 C   0  0  0  0  0  0  0  0  0  0  0  0
   -1.9810    1.1677   -1.1715 O   0  0  0  0  0  0  0  0  0  0  0  0
    0.1577    0.5291   -1.4808 N   0  0  0  0  0  0  0  0  0  0  0  0
    0.8802   -0.1101   -1.1826 H   0  0  0  0  0  0  0  0  0  0  0  0
    0.4328    1.3887   -2.6298 C   0  0  0  0  0  0  0  0  0  0  0  0
    0.1394    2.4153   -2.4033 H   0  0  0  0  0  0  0  0  0  0  0  0
    1.4966    1.3639   -2.8716 H   0  0  0  0  0  0  0  0  0  0  0  0
   -0.1412    1.0439   -3.4923 H   0  0  0  0  0  0  0  0  0  0  0  0
  5  6  2  0  0  0  0
  5  7  1  0  0  0  0
  2  3  1  0  0  0  0
  2  4  1  0  0  0  0
  2  5  1  0  0  0  0
  1  2  1  0  0  0  0
 26 27  2  0  0  0  0
 26 28  1  0  0  0  0
 24 25  1  0  0  0  0
 22 23  1  0  0  0  0
 22 24  2  0  0  0  0
 20 21  1  0  0  0  0
 19 20  1  0  0  0  0
 19 22  1  0  0  0  0
 17 18  1  0  0  0  0
 17 19  2  0  0  0  0
 15 16  1  0  0  0  0
 15 17  1  0  0  0  0
 14 15  2  0  0  0  0
 14 24  1  0  0  0  0
 11 12  1  0  0  0  0
 11 13  1  0  0  0  0
 11 14  1  0  0  0  0
  9 10  1  0  0  0  0
  9 11  1  0  0  0  0
  9 26  1  0  0  0  0
  7  8  1  0  0  0  0
  7  9  1  0  0  0  0
 30 31  1  0  0  0  0
 30 32  1  0  0  0  0
 30 33  1  0  0  0  0
 28 29  1  0  0  0  0
 28 30  1  0  0  0  0
M  END
$$$$
default_name
  -OEChem-01062215323D

 33 33  0     1  0  0  0  0  0999 V2000
   -4.0702   -3.8485    1.4554 H   0  0  0  0  0  0  0  0  0  0  0  0
   -4.0012   -2.9605    0.8284 C   0  0  0  0  0  0  0  0  0  0  0  0
   -4.7652   -2.2435    1.1234 H   0  0  0  0  0  0  0  0  0  0  0  0
   -4.1352   -3.2385   -0.2156 H   0  0  0  0  0  0  0  0  0  0  0  0
   -2.6362   -2.3395    1.0094 C   0  0  0  0  0  0  0  0  0  0  0  0
   -1.8292   -2.8395    1.7814 O   0  0  0  0  0  0  0  0  0  0  0  0
   -2.3832   -1.2445    0.2964 N   0  0  0  0  0  0  0  0  0  0  0  0
   -3.1102   -0.8685   -0.2946 H   0  0  0  0  0  0  0  0  0  0  0  0
   -1.1292   -0.4875    0.3524 C   0  0  1  0  0  0  0  0  0  0  0  0
   -1.1245    0.1088    1.2656 H   0  0  0  0  0  0  0  0  0  0  0  0
    0.0562   -1.4664    0.4079 C   0  0  0  0  0  0  0  0  0  0  0  0
   -0.0203   -2.1635   -0.4276 H   0  0  0  0  0  0  0  0  0  0  0  0
    0.9838   -0.9056    0.2817 H   0  0  0  0  0  0  0  0  0  0  0  0
    0.1282   -2.2739    1.6896 C   0  0  0  0  0  0  0  0  0  0  0  0
    0.6873   -1.7112    2.8545 C   0  0  0  0  0  0  0  0  0  0  0  0
    1.0917   -0.7077    2.8305 H   0  0  0  0  0  0  0  0  0  0  0  0
    0.7150   -2.4507    4.0529 C   0  0  0  0  0  0  0  0  0  0  0  0
    1.1453   -2.0172    4.9426 H   0  0  0  0  0  0  0  0  0  0  0  0
    0.1781   -3.7561    4.0869 C   0  0  0  0  0  0  0  0  0  0  0  0
    0.1974   -4.4763    5.2384 O   0  0  0  0  0  0  0  0  0  0  0  0
    0.6814   -4.0307    5.9350 H   0  0  0  0  0  0  0  0  0  0  0  0
   -0.3854   -4.3158    2.9215 C   0  0  0  0  0  0  0  0  0  0  0  0
   -0.7887   -5.3165    2.9590 H   0  0  0  0  0  0  0  0  0  0  0  0
   -0.4075   -3.5759    1.7240 C   0  0  0  0  0  0  0  0  0  0  0  0
   -0.8322   -4.0100    0.8267 H   0  0  0  0  0  0  0  0  0  0  0  0
   -1.0161    0.4790   -0.8384 C   0  0  0  0  0  0  0  0  0  0  0  0
   -1.8627    1.3572   -1.0065 O   0  0  0  0  0  0  0  0  0  0  0  0
    0.0248    0.3175   -1.6652 N   0  0  0  0  0  0  0  0  0  0  0  0
    0.6416   -0.4627   -1.4915 H   0  0  0  0  0  0  0  0  0  0  0  0
    0.2795    1.1457   -2.8416 C   0  0  0  0  0  0  0  0  0  0  0  0
    0.2398    2.2013   -2.5674 H   0  0  0  0  0  0  0  0  0  0  0  0
    1.2634    0.9185   -3.2553 H   0  0  0  0  0  0  0  0  0  0  0  0
   -0.4833    0.9528   -3.5988 H   0  0  0  0  0  0  0  0  0  0  0  0
  5  6  2  0  0  0  0
  5  7  1  0  0  0  0
  2  3  1  0  0  0  0
  2  4  1  0  0  0  0
  2  5  1  0  0  0  0
  1  2  1  0  0  0  0
 26 27  2  0  0  0  0
 26 28  1  0  0  0  0
 24 25  1  0  0  0  0
 22 23  1  0  0  0  0
 22 24  2  0  0  0  0
 20 21  1  0  0  0  0
 19 20  1  0  0  0  0
 19 22  1  0  0  0  0
 17 18  1  0  0  0  0
 17 19  2  0  0  0  0
 15 16  1  0  0  0  0
 15 17  1  0  0  0  0
 14 15  2  0  0  0  0
 14 24  1  0  0  0  0
 11 12  1  0  0  0  0
 11 13  1  0  0  0  0
 11 14  1  0  0  0  0
  9 10  1  0  0  0  0
  9 11  1  0  0  0  0
  9 26  1  0  0  0  0
  7  8  1  0  0  0  0
  7  9  1  0  0  0  0
 30 31  1  0  0  0  0
 30 32  1  0  0  0  0
 30 33  1  0  0  0  0
 28 29  1  0  0  0  0
 28 30  1  0  0  0  0
M  END
$$$$
default_name
  -OEChem-01062215323D

 33 33  0     1  0  0  0  0  0999 V2000
   -4.0702   -3.8485    1.4554 H   0  0  0  0  0  0  0  0  0  0  0  0
   -4.0012   -2.9605    0.8284 C   0  0  0  0  0  0  0  0  0  0  0  0
   -4.7652   -2.2435    1.1234 H   0  0  0  0  0  0  0  0  0  0  0  0
   -4.1352   -3.2385   -0.2156 H   0  0  0  0  0  0  0  0  0  0  0  0
   -2.6362   -2.3395    1.0094 C   0  0  0  0  0  0  0  0  0  0  0  0
   -1.8292   -2.8395    1.7814 O   0  0  0  0  0  0  0  0  0  0  0  0
   -2.3832   -1.2445    0.2964 N   0  0  0  0  0  0  0  0  0  0  0  0
   -3.1102   -0.8685   -0.2946 H   0  0  0  0  0  0  0  0  0  0  0  0
   -1.1292   -0.4875    0.3524 C   0  0  1  0  0  0  0  0  0  0  0  0
   -1.1245    0.1088    1.2656 H   0  0  0  0  0  0  0  0  0  0  0  0
    0.0562   -1.4664    0.4079 C   0  0  0  0  0  0  0  0  0  0  0  0
   -0.0203   -2.1635   -0.4276 H   0  0  0  0  0  0  0  0  0  0  0  0
    0.9838   -0.9056    0.2817 H   0  0  0  0  0  0  0  0  0  0  0  0
    0.1282   -2.2739    1.6896 C   0  0  0  0  0  0  0  0  0  0  0  0
    0.6873   -1.7112    2.8545 C   0  0  0  0  0  0  0  0  0  0  0  0
    1.0917   -0.7077    2.8305 H   0  0  0  0  0  0  0  0  0  0  0  0
    0.7150   -2.4507    4.0529 C   0  0  0  0  0  0  0  0  0  0  0  0
    1.1453   -2.0172    4.9426 H   0  0  0  0  0  0  0  0  0  0  0  0
    0.1781   -3.7561    4.0869 C   0  0  0  0  0  0  0  0  0  0  0  0
    0.1974   -4.4763    5.2384 O   0  0  0  0  0  0  0  0  0  0  0  0
    0.6814   -4.0307    5.9350 H   0  0  0  0  0  0  0  0  0  0  0  0
   -0.3854   -4.3158    2.9215 C   0  0  0  0  0  0  0  0  0  0  0  0
   -0.7887   -5.3165    2.9590 H   0  0  0  0  0  0  0  0  0  0  0  0
   -0.4075   -3.5759    1.7240 C   0  0  0  0  0  0  0  0  0  0  0  0
   -0.8322   -4.0100    0.8267 H   0  0  0  0  0  0  0  0  0  0  0  0
   -1.0161    0.4790   -0.8384 C   0  0  0  0  0  0  0  0  0  0  0  0
   -1.6836    1.5134   -0.8627 O   0  0  0  0  0  0  0  0  0  0  0  0
   -0.1760    0.1434   -1.8256 N   0  0  0  0  0  0  0  0  0  0  0  0
    0.2902   -0.7497   -1.7578 H   0  0  0  0  0  0  0  0  0  0  0  0
    0.0483    0.9457   -3.0259 C   0  0  0  0  0  0  0  0  0  0  0  0
    0.2673    1.9777   -2.7463 H   0  0  0  0  0  0  0  0  0  0  0  0
    0.8865    0.5423   -3.5964 H   0  0  0  0  0  0  0  0  0  0  0  0
   -0.8493    0.9354   -3.6476 H   0  0  0  0  0  0  0  0  0  0  0  0
  5  6  2  0  0  0  0
  5  7  1  0  0  0  0
  2  3  1  0  0  0  0
  2  4  1  0  0  0  0
  2  5  1  0  0  0  0
  1  2  1  0  0  0  0
 26 27  2  0  0  0  0
 26 28  1  0  0  0  0
 24 25  1  0  0  0  0
 22 23  1  0  0  0  0
 22 24  2  0  0  0  0
 20 21  1  0  0  0  0
 19 20  1  0  0  0  0
 19 22  1  0  0  0  0
 17 18  1  0  0  0  0
 17 19  2  0  0  0  0
 15 16  1  0  0  0  0
 15 17  1  0  0  0  0
 14 15  2  0  0  0  0
 14 24  1  0  0  0  0
 11 12  1  0  0  0  0
 11 13  1  0  0  0  0
 11 14  1  0  0  0  0
  9 10  1  0  0  0  0
  9 11  1  0  0  0  0
  9 26  1  0  0  0  0
  7  8  1  0  0  0  0
  7  9  1  0  0  0  0
 30 31  1  0  0  0  0
 30 32  1  0  0  0  0
 30 33  1  0  0  0  0
 28 29  1  0  0  0  0
 28 30  1  0  0  0  0
M  END
$$$$
default_name
  -OEChem-01062215323D

 33 33  0     1  0  0  0  0  0999 V2000
   -4.0702   -3.8485    1.4554 H   0  0  0  0  0  0  0  0  0  0  0  0
   -4.0012   -2.9605    0.8284 C   0  0  0  0  0  0  0  0  0  0  0  0
   -4.7652   -2.2435    1.1234 H   0  0  0  0  0  0  0  0  0  0  0  0
   -4.1352   -3.2385   -0.2156 H   0  0  0  0  0  0  0  0  0  0  0  0
   -2.6362   -2.3395    1.0094 C   0  0  0  0  0  0  0  0  0  0  0  0
   -1.8292   -2.8395    1.7814 O   0  0  0  0  0  0  0  0  0  0  0  0
   -2.3832   -1.2445    0.2964 N   0  0  0  0  0  0  0  0  0  0  0  0
   -3.1102   -0.8685   -0.2946 H   0  0  0  0  0  0  0  0  0  0  0  0
   -1.1292   -0.4875    0.3524 C   0  0  1  0  0  0  0  0  0  0  0  0
   -1.1245    0.1088    1.2656 H   0  0  0  0  0  0  0  0  0  0  0  0
    0.0562   -1.4664    0.4079 C   0  0  0  0  0  0  0  0  0  0  0  0
   -0.0203   -2.1635   -0.4276 H   0  0  0  0  0  0  0  0  0  0  0  0
    0.9838   -0.9056    0.2817 H   0  0  0  0  0  0  0  0  0  0  0  0
    0.1282   -2.2739    1.6896 C   0  0  0  0  0  0  0  0  0  0  0  0
    0.6873   -1.7112    2.8545 C   0  0  0  0  0  0  0  0  0  0  0  0
    1.0917   -0.7077    2.8305 H   0  0  0  0  0  0  0  0  0  0  0  0
    0.7150   -2.4507    4.0529 C   0  0  0  0  0  0  0  0  0  0  0  0
    1.1453   -2.0172    4.9426 H   0  0  0  0  0  0  0  0  0  0  0  0
    0.1781   -3.7561    4.0869 C   0  0  0  0  0  0  0  0  0  0  0  0
    0.1974   -4.4763    5.2384 O   0  0  0  0  0  0  0  0  0  0  0  0
    0.6814   -4.0307    5.9350 H   0  0  0  0  0  0  0  0  0  0  0  0
   -0.3854   -4.3158    2.9215 C   0  0  0  0  0  0  0  0  0  0  0  0
   -0.7887   -5.3165    2.9590 H   0  0  0  0  0  0  0  0  0  0  0  0
   -0.4075   -3.5759    1.7240 C   0  0  0  0  0  0  0  0  0  0  0  0
   -0.8322   -4.0100    0.8267 H   0  0  0  0  0  0  0  0  0  0  0  0
   -1.0161    0.4790   -0.8384 C   0  0  0  0  0  0  0  0  0  0  0  0
   -1.4560    1.6257   -0.7499 O   0  0  0  0  0  0  0  0  0  0  0  0
   -0.4309    0.0184   -1.9512 N   0  0  0  0  0  0  0  0  0  0  0  0
   -0.1500   -0.9514   -1.9633 H   0  0  0  0  0  0  0  0  0  0  0  0
   -0.2450    0.8023   -3.1701 C   0  0  0  0  0  0  0  0  0  0  0  0
    0.2199    1.7595   -2.9278 H   0  0  0  0  0  0  0  0  0  0  0  0
    0.3915    0.2609   -3.8718 H   0  0  0  0  0  0  0  0  0  0  0  0
   -1.2142    0.9929   -3.6357 H   0  0  0  0  0  0  0  0  0  0  0  0
  5  6  2  0  0  0  0
  5  7  1  0  0  0  0
  2  3  1  0  0  0  0
  2  4  1  0  0  0  0
  2  5  1  0  0  0  0
  1  2  1  0  0  0  0
 26 27  2  0  0  0  0
 26 28  1  0  0  0  0
 24 25  1  0  0  0  0
 22 23  1  0  0  0  0
 22 24  2  0  0  0  0
 20 21  1  0  0  0  0
 19 20  1  0  0  0  0
 19 22  1  0  0  0  0
 17 18  1  0  0  0  0
 17 19  2  0  0  0  0
 15 16  1  0  0  0  0
 15 17  1  0  0  0  0
 14 15  2  0  0  0  0
 14 24  1  0  0  0  0
 11 12  1  0  0  0  0
 11 13  1  0  0  0  0
 11 14  1  0  0  0  0
  9 10  1  0  0  0  0
  9 11  1  0  0  0  0
  9 26  1  0  0  0  0
  7  8  1  0  0  0  0
  7  9  1  0  0  0  0
 30 31  1  0  0  0  0
 30 32  1  0  0  0  0
 30 33  1  0  0  0  0
 28 29  1  0  0  0  0
 28 30  1  0  0  0  0
M  END
$$$$
default_name
  -OEChem-01062215323D

 33 33  0     1  0  0  0  0  0999 V2000
   -4.0702   -3.8485    1.4554 H   0  0  0  0  0  0  0  0  0  0  0  0
   -4.0012   -2.9605    0.8284 C   0  0  0  0  0  0  0  0  0  0  0  0
   -4.7652   -2.2435    1.1234 H   0  0  0  0  0  0  0  0  0  0  0  0
   -4.1352   -3.2385   -0.2156 H   0  0  0  0  0  0  0  0  0  0  0  0
   -2.6362   -2.3395    1.0094 C   0  0  0  0  0  0  0  0  0  0  0  0
   -1.8292   -2.8395    1.7814 O   0  0  0  0  0  0  0  0  0  0  0  0
   -2.3832   -1.2445    0.2964 N   0  0  0  0  0  0  0  0  0  0  0  0
   -3.1102   -0.8685   -0.2946 H   0  0  0  0  0  0  0  0  0  0  0  0
   -1.1292   -0.4875    0.3524 C   0  0  1  0  0  0  0  0  0  0  0  0
   -1.1245    0.1088    1.2656 H   0  0  0  0  0  0  0  0  0  0  0  0
    0.0562   -1.4664    0.4079 C   0  0  0  0  0  0  0  0  0  0  0  0
   -0.0203   -2.1635   -0.4276 H   0  0  0  0  0  0  0  0  0  0  0  0
    0.9838   -0.9056    0.2817 H   0  0  0  0  0  0  0  0  0  0  0  0
    0.1282   -2.2739    1.6896 C   0  0  0  0  0  0  0  0  0  0  0  0
    0.6873   -1.7112    2.8545 C   0  0  0  0  0  0  0  0  0  0  0  0
    1.0917   -0.7077    2.8305 H   0  0  0  0  0  0  0  0  0  0  0  0
    0.7150   -2.4507    4.0529 C   0  0  0  0  0  0  0  0  0  0  0  0
    1.1453   -2.0172    4.9426 H   0  0  0  0  0  0  0  0  0  0  0  0
    0.1781   -3.7561    4.0869 C   0  0  0  0  0  0  0  0  0  0  0  0
    0.1974   -4.4763    5.2384 O   0  0  0  0  0  0  0  0  0  0  0  0
    0.6814   -4.0307    5.9350 H   0  0  0  0  0  0  0  0  0  0  0  0
   -0.3854   -4.3158    2.9215 C   0  0  0  0  0  0  0  0  0  0  0  0
   -0.7887   -5.3165    2.9590 H   0  0  0  0  0  0  0  0  0  0  0  0
   -0.4075   -3.5759    1.7240 C   0  0  0  0  0  0  0  0  0  0  0  0
   -0.8322   -4.0100    0.8267 H   0  0  0  0  0  0  0  0  0  0  0  0
   -1.0161    0.4790   -0.8384 C   0  0  0  0  0  0  0  0  0  0  0  0
   -1.1952    1.6863   -0.6759 O   0  0  0  0  0  0  0  0  0  0  0  0
   -0.7227   -0.0488   -2.0335 N   0  0  0  0  0  0  0  0  0  0  0  0
   -0.6491   -1.0540   -2.0940 H   0  0  0  0  0  0  0  0  0  0  0  0
   -0.5806    0.7254   -3.2644 C   0  0  0  0  0  0  0  0  0  0  0  0
    0.1008    1.5618   -3.0996 H   0  0  0  0  0  0  0  0  0  0  0  0
   -0.1878    0.0936   -4.0627 H   0  0  0  0  0  0  0  0  0  0  0  0
   -1.5533    1.1213   -3.5636 H   0  0  0  0  0  0  0  0  0  0  0  0
  5  6  2  0  0  0  0
  5  7  1  0  0  0  0
  2  3  1  0  0  0  0
  2  4  1  0  0  0  0
  2  5  1  0  0  0  0
  1  2  1  0  0  0  0
 26 27  2  0  0  0  0
 26 28  1  0  0  0  0
 24 25  1  0  0  0  0
 22 23  1  0  0  0  0
 22 24  2  0  0  0  0
 20 21  1  0  0  0  0
 19 20  1  0  0  0  0
 19 22  1  0  0  0  0
 17 18  1  0  0  0  0
 17 19  2  0  0  0  0
 15 16  1  0  0  0  0
 15 17  1  0  0  0  0
 14 15  2  0  0  0  0
 14 24  1  0  0  0  0
 11 12  1  0  0  0  0
 11 13  1  0  0  0  0
 11 14  1  0  0  0  0
  9 10  1  0  0  0  0
  9 11  1  0  0  0  0
  9 26  1  0  0  0  0
  7  8  1  0  0  0  0
  7  9  1  0  0  0  0
 30 31  1  0  0  0  0
 30 32  1  0  0  0  0
 30 33  1  0  0  0  0
 28 29  1  0  0  0  0
 28 30  1  0  0  0  0
M  END
$$$$
default_name
  -OEChem-01062215323D

 33 33  0     1  0  0  0  0  0999 V2000
   -4.0702   -3.8485    1.4554 H   0  0  0  0  0  0  0  0  0  0  0  0
   -4.0012   -2.9605    0.8284 C   0  0  0  0  0  0  0  0  0  0  0  0
   -4.7652   -2.2435    1.1234 H   0  0  0  0  0  0  0  0  0  0  0  0
   -4.1352   -3.2385   -0.2156 H   0  0  0  0  0  0  0  0  0  0  0  0
   -2.6362   -2.3395    1.0094 C   0  0  0  0  0  0  0  0  0  0  0  0
   -1.8292   -2.8395    1.7814 O   0  0  0  0  0  0  0  0  0  0  0  0
   -2.3832   -1.2445    0.2964 N   0  0  0  0  0  0  0  0  0  0  0  0
   -3.1102   -0.8685   -0.2946 H   0  0  0  0  0  0  0  0  0  0  0  0
   -1.1292   -0.4875    0.3524 C   0  0  1  0  0  0  0  0  0  0  0  0
   -1.1245    0.1088    1.2656 H   0  0  0  0  0  0  0  0  0  0  0  0
    0.0562   -1.4664    0.4079 C   0  0  0  0  0  0  0  0  0  0  0  0
   -0.0203   -2.1635   -0.4276 H   0  0  0  0  0  0  0  0  0  0  0  0
    0.9838   -0.9056    0.2817 H   0  0  0  0  0  0  0  0  0  0  0  0
    0.1282   -2.2739    1.6896 C   0  0  0  0  0  0  0  0  0  0  0  0
    0.6873   -1.7112    2.8545 C   0  0  0  0  0  0  0  0  0  0  0  0
    1.0917   -0.7077    2.8305 H   0  0  0  0  0  0  0  0  0  0  0  0
    0.7150   -2.4507    4.0529 C   0  0  0  0  0  0  0  0  0  0  0  0
    1.1453   -2.0172    4.9426 H   0  0  0  0  0  0  0  0  0  0  0  0
    0.1781   -3.7561    4.0869 C   0  0  0  0  0  0  0  0  0  0  0  0
    0.1974   -4.4763    5.2384 O   0  0  0  0  0  0  0  0  0  0  0  0
    0.6814   -4.0307    5.9350 H   0  0  0  0  0  0  0  0  0  0  0  0
   -0.3854   -4.3158    2.9215 C   0  0  0  0  0  0  0  0  0  0  0  0
   -0.7887   -5.3165    2.9590 H   0  0  0  0  0  0  0  0  0  0  0  0
   -0.4075   -3.5759    1.7240 C   0  0  0  0  0  0  0  0  0  0  0  0
   -0.8322   -4.0100    0.8267 H   0  0  0  0  0  0  0  0  0  0  0  0
   -1.0161    0.4790   -0.8384 C   0  0  0  0  0  0  0  0  0  0  0  0
   -0.9192    1.6913   -0.6457 O   0  0  0  0  0  0  0  0  0  0  0  0
   -1.0313   -0.0537   -2.0668 N   0  0  0  0  0  0  0  0  0  0  0  0
   -1.1730   -1.0507   -2.1411 H   0  0  0  0  0  0  0  0  0  0  0  0
   -0.9355    0.7201   -3.3024 C   0  0  0  0  0  0  0  0  0  0  0  0
   -0.0817    1.3979   -3.2500 H   0  0  0  0  0  0  0  0  0  0  0  0
   -0.8119    0.0516   -4.1560 H   0  0  0  0  0  0  0  0  0  0  0  0
   -1.8434    1.3120   -3.4364 H   0  0  0  0  0  0  0  0  0  0  0  0
  5  6  2  0  0  0  0
  5  7  1  0  0  0  0
  2  3  1  0  0  0  0
  2  4  1  0  0  0  0
  2  5  1  0  0  0  0
  1  2  1  0  0  0  0
 26 27  2  0  0  0  0
 26 28  1  0  0  0  0
 24 25  1  0  0  0  0
 22 23  1  0  0  0  0
 22 24  2  0  0  0  0
 20 21  1  0  0  0  0
 19 20  1  0  0  0  0
 19 22  1  0  0  0  0
 17 18  1  0  0  0  0
 17 19  2  0  0  0  0
 15 16  1  0  0  0  0
 15 17  1  0  0  0  0
 14 15  2  0  0  0  0
 14 24  1  0  0  0  0
 11 12  1  0  0  0  0
 11 13  1  0  0  0  0
 11 14  1  0  0  0  0
  9 10  1  0  0  0  0
  9 11  1  0  0  0  0
  9 26  1  0  0  0  0
  7  8  1  0  0  0  0
  7  9  1  0  0  0  0
 30 31  1  0  0  0  0
 30 32  1  0  0  0  0
 30 33  1  0  0  0  0
 28 29  1  0  0  0  0
 28 30  1  0  0  0  0
M  END
$$$$
default_name
  -OEChem-01062215323D

 33 33  0     1  0  0  0  0  0999 V2000
   -4.0702   -3.8485    1.4554 H   0  0  0  0  0  0  0  0  0  0  0  0
   -4.0012   -2.9605    0.8284 C   0  0  0  0  0  0  0  0  0  0  0  0
   -4.7652   -2.2435    1.1234 H   0  0  0  0  0  0  0  0  0  0  0  0
   -4.1352   -3.2385   -0.2156 H   0  0  0  0  0  0  0  0  0  0  0  0
   -2.6362   -2.3395    1.0094 C   0  0  0  0  0  0  0  0  0  0  0  0
   -1.8292   -2.8395    1.7814 O   0  0  0  0  0  0  0  0  0  0  0  0
   -2.3832   -1.2445    0.2964 N   0  0  0  0  0  0  0  0  0  0  0  0
   -3.1102   -0.8685   -0.2946 H   0  0  0  0  0  0  0  0  0  0  0  0
   -1.1292   -0.4875    0.3524 C   0  0  1  0  0  0  0  0  0  0  0  0
   -1.1245    0.1088    1.2656 H   0  0  0  0  0  0  0  0  0  0  0  0
    0.0562   -1.4664    0.4079 C   0  0  0  0  0  0  0  0  0  0  0  0
   -0.0203   -2.1635   -0.4276 H   0  0  0  0  0  0  0  0  0  0  0  0
    0.9838   -0.9056    0.2817 H   0  0  0  0  0  0  0  0  0  0  0  0
    0.1282   -2.2739    1.6896 C   0  0  0  0  0  0  0  0  0  0  0  0
    0.6873   -1.7112    2.8545 C   0  0  0  0  0  0  0  0  0  0  0  0
    1.0917   -0.7077    2.8305 H   0  0  0  0  0  0  0  0  0  0  0  0
    0.7150   -2.4507    4.0529 C   0  0  0  0  0  0  0  0  0  0  0  0
    1.1453   -2.0172    4.9426 H   0  0  0  0  0  0  0  0  0  0  0  0
    0.1781   -3.7561    4.0869 C   0  0  0  0  0  0  0  0  0  0  0  0
    0.1974   -4.4763    5.2384 O   0  0  0  0  0  0  0  0  0  0  0  0
    0.6814   -4.0307    5.9350 H   0  0  0  0  0  0  0  0  0  0  0  0
   -0.3854   -4.3158    2.9215 C   0  0  0  0  0  0  0  0  0  0  0  0
   -0.7887   -5.3165    2.9590 H   0  0  0  0  0  0  0  0  0  0  0  0
   -0.4075   -3.5759    1.7240 C   0  0  0  0  0  0  0  0  0  0  0  0
   -0.8322   -4.0100    0.8267 H   0  0  0  0  0  0  0  0  0  0  0  0
   -1.0161    0.4790   -0.8384 C   0  0  0  0  0  0  0  0  0  0  0  0
   -0.6466    1.6402   -0.6613 O   0  0  0  0  0  0  0  0  0  0  0  0
   -1.3358    0.0040   -2.0489 N   0  0  0  0  0  0  0  0  0  0  0  0
   -1.6860   -0.9416   -2.1012 H   0  0  0  0  0  0  0  0  0  0  0  0
   -1.2856    0.7869   -3.2815 C   0  0  0  0  0  0  0  0  0  0  0  0
   -0.3154    1.2791   -3.3686 H   0  0  0  0  0  0  0  0  0  0  0  0
   -1.4384    0.1380   -4.1454 H   0  0  0  0  0  0  0  0  0  0  0  0
   -2.0646    1.5518   -3.2628 H   0  0  0  0  0  0  0  0  0  0  0  0
  5  6  2  0  0  0  0
  5  7  1  0  0  0  0
  2  3  1  0  0  0  0
  2  4  1  0  0  0  0
  2  5  1  0  0  0  0
  1  2  1  0  0  0  0
 26 27  2  0  0  0  0
 26 28  1  0  0  0  0
 24 25  1  0  0  0  0
 22 23  1  0  0  0  0
 22 24  2  0  0  0  0
 20 21  1  0  0  0  0
 19 20  1  0  0  0  0
 19 22  1  0  0  0  0
 17 18  1  0  0  0  0
 17 19  2  0  0  0  0
 15 16  1  0  0  0  0
 15 17  1  0  0  0  0
 14 15  2  0  0  0  0
 14 24  1  0  0  0  0
 11 12  1  0  0  0  0
 11 13  1  0  0  0  0
 11 14  1  0  0  0  0
  9 10  1  0  0  0  0
  9 11  1  0  0  0  0
  9 26  1  0  0  0  0
  7  8  1  0  0  0  0
  7  9  1  0  0  0  0
 30 31  1  0  0  0  0
 30 32  1  0  0  0  0
 30 33  1  0  0  0  0
 28 29  1  0  0  0  0
 28 30  1  0  0  0  0
M  END
$$$$
default_name
  -OEChem-01062215323D

 33 33  0     1  0  0  0  0  0999 V2000
   -4.0702   -3.8485    1.4554 H   0  0  0  0  0  0  0  0  0  0  0  0
   -4.0012   -2.9605    0.8284 C   0  0  0  0  0  0  0  0  0  0  0  0
   -4.7652   -2.2435    1.1234 H   0  0  0  0  0  0  0  0  0  0  0  0
   -4.1352   -3.2385   -0.2156 H   0  0  0  0  0  0  0  0  0  0  0  0
   -2.6362   -2.3395    1.0094 C   0  0  0  0  0  0  0  0  0  0  0  0
   -1.8292   -2.8395    1.7814 O   0  0  0  0  0  0  0  0  0  0  0  0
   -2.3832   -1.2445    0.2964 N   0  0  0  0  0  0  0  0  0  0  0  0
   -3.1102   -0.8685   -0.2946 H   0  0  0  0  0  0  0  0  0  0  0  0
   -1.1292   -0.4875    0.3524 C   0  0  1  0  0  0  0  0  0  0  0  0
   -1.1245    0.1088    1.2656 H   0  0  0  0  0  0  0  0  0  0  0  0
    0.0562   -1.4664    0.4079 C   0  0  0  0  0  0  0  0  0  0  0  0
   -0.0203   -2.1635   -0.4276 H   0  0  0  0  0  0  0  0  0  0  0  0
    0.9838   -0.9056    0.2817 H   0  0  0  0  0  0  0  0  0  0  0  0
    0.1282   -2.2739    1.6896 C   0  0  0  0  0  0  0  0  0  0  0  0
    0.6873   -1.7112    2.8545 C   0  0  0  0  0  0  0  0  0  0  0  0
    1.0917   -0.7077    2.8305 H   0  0  0  0  0  0  0  0  0  0  0  0
    0.7150   -2.4507    4.0529 C   0  0  0  0  0  0  0  0  0  0  0  0
    1.1453   -2.0172    4.9426 H   0  0  0  0  0  0  0  0  0  0  0  0
    0.1781   -3.7561    4.0869 C   0  0  0  0  0  0  0  0  0  0  0  0
    0.1974   -4.4763    5.2384 O   0  0  0  0  0  0  0  0  0  0  0  0
    0.6814   -4.0307    5.9350 H   0  0  0  0  0  0  0  0  0  0  0  0
   -0.3854   -4.3158    2.9215 C   0  0  0  0  0  0  0  0  0  0  0  0
   -0.7887   -5.3165    2.9590 H   0  0  0  0  0  0  0  0  0  0  0  0
   -0.4075   -3.5759    1.7240 C   0  0  0  0  0  0  0  0  0  0  0  0
   -0.8322   -4.0100    0.8267 H   0  0  0  0  0  0  0  0  0  0  0  0
   -1.0161    0.4790   -0.8384 C   0  0  0  0  0  0  0  0  0  0  0  0
   -0.3962    1.5364   -0.7217 O   0  0  0  0  0  0  0  0  0  0  0  0
   -1.6155    0.1205   -1.9809 N   0  0  0  0  0  0  0  0  0  0  0  0
   -2.1532   -0.7341   -1.9772 H   0  0  0  0  0  0  0  0  0  0  0  0
   -1.6069    0.9212   -3.2030 C   0  0  0  0  0  0  0  0  0  0  0  0
   -0.5842    1.2134   -3.4475 H   0  0  0  0  0  0  0  0  0  0  0  0
   -2.0244    0.3468   -4.0316 H   0  0  0  0  0  0  0  0  0  0  0  0
   -2.2020    1.8246   -3.0545 H   0  0  0  0  0  0  0  0  0  0  0  0
  5  6  2  0  0  0  0
  5  7  1  0  0  0  0
  2  3  1  0  0  0  0
  2  4  1  0  0  0  0
  2  5  1  0  0  0  0
  1  2  1  0  0  0  0
 26 27  2  0  0  0  0
 26 28  1  0  0  0  0
 24 25  1  0  0  0  0
 22 23  1  0  0  0  0
 22 24  2  0  0  0  0
 20 21  1  0  0  0  0
 19 20  1  0  0  0  0
 19 22  1  0  0  0  0
 17 18  1  0  0  0  0
 17 19  2  0  0  0  0
 15 16  1  0  0  0  0
 15 17  1  0  0  0  0
 14 15  2  0  0  0  0
 14 24  1  0  0  0  0
 11 12  1  0  0  0  0
 11 13  1  0  0  0  0
 11 14  1  0  0  0  0
  9 10  1  0  0  0  0
  9 11  1  0  0  0  0
  9 26  1  0  0  0  0
  7  8  1  0  0  0  0
  7  9  1  0  0  0  0
 30 31  1  0  0  0  0
 30 32  1  0  0  0  0
 30 33  1  0  0  0  0
 28 29  1  0  0  0  0
 28 30  1  0  0  0  0
M  END
$$$$
default_name
  -OEChem-01062215323D

 33 33  0     1  0  0  0  0  0999 V2000
   -4.0702   -3.8485    1.4554 H   0  0  0  0  0  0  0  0  0  0  0  0
   -4.0012   -2.9605    0.8284 C   0  0  0  0  0  0  0  0  0  0  0  0
   -4.7652   -2.2435    1.1234 H   0  0  0  0  0  0  0  0  0  0  0  0
   -4.1352   -3.2385   -0.2156 H   0  0  0  0  0  0  0  0  0  0  0  0
   -2.6362   -2.3395    1.0094 C   0  0  0  0  0  0  0  0  0  0  0  0
   -1.8292   -2.8395    1.7814 O   0  0  0  0  0  0  0  0  0  0  0  0
   -2.3832   -1.2445    0.2964 N   0  0  0  0  0  0  0  0  0  0  0  0
   -3.1102   -0.8685   -0.2946 H   0  0  0  0  0  0  0  0  0  0  0  0
   -1.1292   -0.4875    0.3524 C   0  0  1  0  0  0  0  0  0  0  0  0
   -1.1245    0.1088    1.2656 H   0  0  0  0  0  0  0  0  0  0  0  0
    0.0562   -1.4664    0.4079 C   0  0  0  0  0  0  0  0  0  0  0  0
   -0.0203   -2.1635   -0.4276 H   0  0  0  0  0  0  0  0  0  0  0  0
    0.9838   -0.9056    0.2817 H   0  0  0  0  0  0  0  0  0  0  0  0
    0.1282   -2.2739    1.6896 C   0  0  0  0  0  0  0  0  0  0  0  0
    0.6873   -1.7112    2.8545 C   0  0  0  0  0  0  0  0  0  0  0  0
    1.0917   -0.7077    2.8305 H   0  0  0  0  0  0  0  0  0  0  0  0
    0.7150   -2.4507    4.0529 C   0  0  0  0  0  0  0  0  0  0  0  0
    1.1453   -2.0172    4.9426 H   0  0  0  0  0  0  0  0  0  0  0  0
    0.1781   -3.7561    4.0869 C   0  0  0  0  0  0  0  0  0  0  0  0
    0.1974   -4.4763    5.2384 O   0  0  0  0  0  0  0  0  0  0  0  0
    0.6814   -4.0307    5.9350 H   0  0  0  0  0  0  0  0  0  0  0  0
   -0.3854   -4.3158    2.9215 C   0  0  0  0  0  0  0  0  0  0  0  0
   -0.7887   -5.3165    2.9590 H   0  0  0  0  0  0  0  0  0  0  0  0
   -0.4075   -3.5759    1.7240 C   0  0  0  0  0  0  0  0  0  0  0  0
   -0.8322   -4.0100    0.8267 H   0  0  0  0  0  0  0  0  0  0  0  0
   -1.0161    0.4790   -0.8384 C   0  0  0  0  0  0  0  0  0  0  0  0
   -0.1848    1.3872   -0.8227 O   0  0  0  0  0  0  0  0  0  0  0  0
   -1.8512    0.2878   -1.8675 N   0  0  0  0  0  0  0  0  0  0  0  0
   -2.5427   -0.4424   -1.7775 H   0  0  0  0  0  0  0  0  0  0  0  0
   -1.8776    1.1138   -3.0724 C   0  0  0  0  0  0  0  0  0  0  0  0
   -0.8698    1.2053   -3.4812 H   0  0  0  0  0  0  0  0  0  0  0  0
   -2.5302    0.6638   -3.8224 H   0  0  0  0  0  0  0  0  0  0  0  0
   -2.2462    2.1116   -2.8257 H   0  0  0  0  0  0  0  0  0  0  0  0
  5  6  2  0  0  0  0
  5  7  1  0  0  0  0
  2  3  1  0  0  0  0
  2  4  1  0  0  0  0
  2  5  1  0  0  0  0
  1  2  1  0  0  0  0
 26 27  2  0  0  0  0
 26 28  1  0  0  0  0
 24 25  1  0  0  0  0
 22 23  1  0  0  0  0
 22 24  2  0  0  0  0
 20 21  1  0  0  0  0
 19 20  1  0  0  0  0
 19 22  1  0  0  0  0
 17 18  1  0  0  0  0
 17 19  2  0  0  0  0
 15 16  1  0  0  0  0
 15 17  1  0  0  0  0
 14 15  2  0  0  0  0
 14 24  1  0  0  0  0
 11 12  1  0  0  0  0
 11 13  1  0  0  0  0
 11 14  1  0  0  0  0
  9 10  1  0  0  0  0
  9 11  1  0  0  0  0
  9 26  1  0  0  0  0
  7  8  1  0  0  0  0
  7  9  1  0  0  0  0
 30 31  1  0  0  0  0
 30 32  1  0  0  0  0
 30 33  1  0  0  0  0
 28 29  1  0  0  0  0
 28 30  1  0  0  0  0
M  END
$$$$
default_name
  -OEChem-01062215323D

 33 33  0     1  0  0  0  0  0999 V2000
   -4.0702   -3.8485    1.4554 H   0  0  0  0  0  0  0  0  0  0  0  0
   -4.0012   -2.9605    0.8284 C   0  0  0  0  0  0  0  0  0  0  0  0
   -4.7652   -2.2435    1.1234 H   0  0  0  0  0  0  0  0  0  0  0  0
   -4.1352   -3.2385   -0.2156 H   0  0  0  0  0  0  0  0  0  0  0  0
   -2.6362   -2.3395    1.0094 C   0  0  0  0  0  0  0  0  0  0  0  0
   -1.8292   -2.8395    1.7814 O   0  0  0  0  0  0  0  0  0  0  0  0
   -2.3832   -1.2445    0.2964 N   0  0  0  0  0  0  0  0  0  0  0  0
   -3.1102   -0.8685   -0.2946 H   0  0  0  0  0  0  0  0  0  0  0  0
   -1.1292   -0.4875    0.3524 C   0  0  1  0  0  0  0  0  0  0  0  0
   -1.1245    0.1088    1.2656 H   0  0  0  0  0  0  0  0  0  0  0  0
    0.0562   -1.4664    0.4079 C   0  0  0  0  0  0  0  0  0  0  0  0
   -0.0203   -2.1635   -0.4276 H   0  0  0  0  0  0  0  0  0  0  0  0
    0.9838   -0.9056    0.2817 H   0  0  0  0  0  0  0  0  0  0  0  0
    0.1282   -2.2739    1.6896 C   0  0  0  0  0  0  0  0  0  0  0  0
    0.6873   -1.7112    2.8545 C   0  0  0  0  0  0  0  0  0  0  0  0
    1.0917   -0.7077    2.8305 H   0  0  0  0  0  0  0  0  0  0  0  0
    0.7150   -2.4507    4.0529 C   0  0  0  0  0  0  0  0  0  0  0  0
    1.1453   -2.0172    4.9426 H   0  0  0  0  0  0  0  0  0  0  0  0
    0.1781   -3.7561    4.0869 C   0  0  0  0  0  0  0  0  0  0  0  0
    0.1974   -4.4763    5.2384 O   0  0  0  0  0  0  0  0  0  0  0  0
    0.6814   -4.0307    5.9350 H   0  0  0  0  0  0  0  0  0  0  0  0
   -0.3854   -4.3158    2.9215 C   0  0  0  0  0  0  0  0  0  0  0  0
   -0.7887   -5.3165    2.9590 H   0  0  0  0  0  0  0  0  0  0  0  0
   -0.4075   -3.5759    1.7240 C   0  0  0  0  0  0  0  0  0  0  0  0
   -0.8322   -4.0100    0.8267 H   0  0  0  0  0  0  0  0  0  0  0  0
   -1.0161    0.4790   -0.8384 C   0  0  0  0  0  0  0  0  0  0  0  0
   -0.0270    1.2026   -0.9575 O   0  0  0  0  0  0  0  0  0  0  0  0
   -2.0269    0.4944   -1.7165 N   0  0  0  0  0  0  0  0  0  0  0  0
   -2.8280   -0.0864   -1.5157 H   0  0  0  0  0  0  0  0  0  0  0  0
   -2.0792    1.3516   -2.8986 C   0  0  0  0  0  0  0  0  0  0  0  0
   -1.1528    1.2554   -3.4674 H   0  0  0  0  0  0  0  0  0  0  0  0
   -2.9211    1.0673   -3.5320 H   0  0  0  0  0  0  0  0  0  0  0  0
   -2.1942    2.3933   -2.5921 H   0  0  0  0  0  0  0  0  0  0  0  0
  5  6  2  0  0  0  0
  5  7  1  0  0  0  0
  2  3  1  0  0  0  0
  2  4  1  0  0  0  0
  2  5  1  0  0  0  0
  1  2  1  0  0  0  0
 26 27  2  0  0  0  0
 26 28  1  0  0  0  0
 24 25  1  0  0  0  0
 22 23  1  0  0  0  0
 22 24  2  0  0  0  0
 20 21  1  0  0  0  0
 19 20  1  0  0  0  0
 19 22  1  0  0  0  0
 17 18  1  0  0  0  0
 17 19  2  0  0  0  0
 15 16  1  0  0  0  0
 15 17  1  0  0  0  0
 14 15  2  0  0  0  0
 14 24  1  0  0  0  0
 11 12  1  0  0  0  0
 11 13  1  0  0  0  0
 11 14  1  0  0  0  0
  9 10  1  0  0  0  0
  9 11  1  0  0  0  0
  9 26  1  0  0  0  0
  7  8  1  0  0  0  0
  7  9  1  0  0  0  0
 30 31  1  0  0  0  0
 30 32  1  0  0  0  0
 30 33  1  0  0  0  0
 28 29  1  0  0  0  0
 28 30  1  0  0  0  0
M  END
$$$$
default_name
  -OEChem-01062215323D

 33 33  0     1  0  0  0  0  0999 V2000
   -4.0702   -3.8485    1.4554 H   0  0  0  0  0  0  0  0  0  0  0  0
   -4.0012   -2.9605    0.8284 C   0  0  0  0  0  0  0  0  0  0  0  0
   -4.7652   -2.2435    1.1234 H   0  0  0  0  0  0  0  0  0  0  0  0
   -4.1352   -3.2385   -0.2156 H   0  0  0  0  0  0  0  0  0  0  0  0
   -2.6362   -2.3395    1.0094 C   0  0  0  0  0  0  0  0  0  0  0  0
   -1.8292   -2.8395    1.7814 O   0  0  0  0  0  0  0  0  0  0  0  0
   -2.3832   -1.2445    0.2964 N   0  0  0  0  0  0  0  0  0  0  0  0
   -3.1102   -0.8685   -0.2946 H   0  0  0  0  0  0  0  0  0  0  0  0
   -1.1292   -0.4875    0.3524 C   0  0  1  0  0  0  0  0  0  0  0  0
   -1.1245    0.1088    1.2656 H   0  0  0  0  0  0  0  0  0  0  0  0
    0.0562   -1.4664    0.4079 C   0  0  0  0  0  0  0  0  0  0  0  0
   -0.0203   -2.1635   -0.4276 H   0  0  0  0  0  0  0  0  0  0  0  0
    0.9838   -0.9056    0.2817 H   0  0  0  0  0  0  0  0  0  0  0  0
    0.1282   -2.2739    1.6896 C   0  0  0  0  0  0  0  0  0  0  0  0
    0.6873   -1.7112    2.8545 C   0  0  0  0  0  0  0  0  0  0  0  0
    1.0917   -0.7077    2.8305 H   0  0  0  0  0  0  0  0  0  0  0  0
    0.7150   -2.4507    4.0529 C   0  0  0  0  0  0  0  0  0  0  0  0
    1.1453   -2.0172    4.9426 H   0  0  0  0  0  0  0  0  0  0  0  0
    0.1781   -3.7561    4.0869 C   0  0  0  0  0  0  0  0  0  0  0  0
    0.1974   -4.4763    5.2384 O   0  0  0  0  0  0  0  0  0  0  0  0
    0.6814   -4.0307    5.9350 H   0  0  0  0  0  0  0  0  0  0  0  0
   -0.3854   -4.3158    2.9215 C   0  0  0  0  0  0  0  0  0  0  0  0
   -0.7887   -5.3165    2.9590 H   0  0  0  0  0  0  0  0  0  0  0  0
   -0.4075   -3.5759    1.7240 C   0  0  0  0  0  0  0  0  0  0  0  0
   -0.8322   -4.0100    0.8267 H   0  0  0  0  0  0  0  0  0  0  0  0
   -1.0161    0.4790   -0.8384 C   0  0  0  0  0  0  0  0  0  0  0  0
    0.0665    0.9953   -1.1169 O   0  0  0  0  0  0  0  0  0  0  0  0
   -2.1307    0.7264   -1.5381 N   0  0  0  0  0  0  0  0  0  0  0  0
   -2.9897    0.3097   -1.2096 H   0  0  0  0  0  0  0  0  0  0  0  0
   -2.1981    1.6183   -2.6934 C   0  0  0  0  0  0  0  0  0  0  0  0
   -1.4139    1.3602   -3.4071 H   0  0  0  0  0  0  0  0  0  0  0  0
   -3.1706    1.5299   -3.1802 H   0  0  0  0  0  0  0  0  0  0  0  0
   -2.0495    2.6506   -2.3696 H   0  0  0  0  0  0  0  0  0  0  0  0
  5  6  2  0  0  0  0
  5  7  1  0  0  0  0
  2  3  1  0  0  0  0
  2  4  1  0  0  0  0
  2  5  1  0  0  0  0
  1  2  1  0  0  0  0
 26 27  2  0  0  0  0
 26 28  1  0  0  0  0
 24 25  1  0  0  0  0
 22 23  1  0  0  0  0
 22 24  2  0  0  0  0
 20 21  1  0  0  0  0
 19 20  1  0  0  0  0
 19 22  1  0  0  0  0
 17 18  1  0  0  0  0
 17 19  2  0  0  0  0
 15 16  1  0  0  0  0
 15 17  1  0  0  0  0
 14 15  2  0  0  0  0
 14 24  1  0  0  0  0
 11 12  1  0  0  0  0
 11 13  1  0  0  0  0
 11 14  1  0  0  0  0
  9 10  1  0  0  0  0
  9 11  1  0  0  0  0
  9 26  1  0  0  0  0
  7  8  1  0  0  0  0
  7  9  1  0  0  0  0
 30 31  1  0  0  0  0
 30 32  1  0  0  0  0
 30 33  1  0  0  0  0
 28 29  1  0  0  0  0
 28 30  1  0  0  0  0
M  END
$$$$
default_name
  -OEChem-01062215323D

 33 33  0     1  0  0  0  0  0999 V2000
   -4.0702   -3.8485    1.4554 H   0  0  0  0  0  0  0  0  0  0  0  0
   -4.0012   -2.9605    0.8284 C   0  0  0  0  0  0  0  0  0  0  0  0
   -4.7652   -2.2435    1.1234 H   0  0  0  0  0  0  0  0  0  0  0  0
   -4.1352   -3.2385   -0.2156 H   0  0  0  0  0  0  0  0  0  0  0  0
   -2.6362   -2.3395    1.0094 C   0  0  0  0  0  0  0  0  0  0  0  0
   -1.8292   -2.8395    1.7814 O   0  0  0  0  0  0  0  0  0  0  0  0
   -2.3832   -1.2445    0.2964 N   0  0  0  0  0  0  0  0  0  0  0  0
   -3.1102   -0.8685   -0.2946 H   0  0  0  0  0  0  0  0  0  0  0  0
   -1.1292   -0.4875    0.3524 C   0  0  1  0  0  0  0  0  0  0  0  0
   -1.1245    0.1088    1.2656 H   0  0  0  0  0  0  0  0  0  0  0  0
    0.0562   -1.4664    0.4079 C   0  0  0  0  0  0  0  0  0  0  0  0
   -0.0203   -2.1635   -0.4276 H   0  0  0  0  0  0  0  0  0  0  0  0
    0.9838   -0.9056    0.2817 H   0  0  0  0  0  0  0  0  0  0  0  0
    0.1282   -2.2739    1.6896 C   0  0  0  0  0  0  0  0  0  0  0  0
    0.6873   -1.7112    2.8545 C   0  0  0  0  0  0  0  0  0  0  0  0
    1.0917   -0.7077    2.8305 H   0  0  0  0  0  0  0  0  0  0  0  0
    0.7150   -2.4507    4.0529 C   0  0  0  0  0  0  0  0  0  0  0  0
    1.1453   -2.0172    4.9426 H   0  0  0  0  0  0  0  0  0  0  0  0
    0.1781   -3.7561    4.0869 C   0  0  0  0  0  0  0  0  0  0  0  0
    0.1974   -4.4763    5.2384 O   0  0  0  0  0  0  0  0  0  0  0  0
    0.6814   -4.0307    5.9350 H   0  0  0  0  0  0  0  0  0  0  0  0
   -0.3854   -4.3158    2.9215 C   0  0  0  0  0  0  0  0  0  0  0  0
   -0.7887   -5.3165    2.9590 H   0  0  0  0  0  0  0  0  0  0  0  0
   -0.4075   -3.5759    1.7240 C   0  0  0  0  0  0  0  0  0  0  0  0
   -0.8322   -4.0100    0.8267 H   0  0  0  0  0  0  0  0  0  0  0  0
   -1.0161    0.4790   -0.8384 C   0  0  0  0  0  0  0  0  0  0  0  0
    0.0893    0.7793   -1.2900 O   0  0  0  0  0  0  0  0  0  0  0  0
   -2.1554    0.9678   -1.3445 N   0  0  0  0  0  0  0  0  0  0  0  0
   -3.0167    0.7188   -0.8801 H   0  0  0  0  0  0  0  0  0  0  0  0
   -2.2260    1.8960   -2.4707 C   0  0  0  0  0  0  0  0  0  0  0  0
   -1.6352    1.5126   -3.3045 H   0  0  0  0  0  0  0  0  0  0  0  0
   -3.2617    2.0201   -2.7911 H   0  0  0  0  0  0  0  0  0  0  0  0
   -1.8219    2.8658   -2.1733 H   0  0  0  0  0  0  0  0  0  0  0  0
  5  6  2  0  0  0  0
  5  7  1  0  0  0  0
  2  3  1  0  0  0  0
  2  4  1  0  0  0  0
  2  5  1  0  0  0  0
  1  2  1  0  0  0  0
 26 27  2  0  0  0  0
 26 28  1  0  0  0  0
 24 25  1  0  0  0  0
 22 23  1  0  0  0  0
 22 24  2  0  0  0  0
 20 21  1  0  0  0  0
 19 20  1  0  0  0  0
 19 22  1  0  0  0  0
 17 18  1  0  0  0  0
 17 19  2  0  0  0  0
 15 16  1  0  0  0  0
 15 17  1  0  0  0  0
 14 15  2  0  0  0  0
 14 24  1  0  0  0  0
 11 12  1  0  0  0  0
 11 13  1  0  0  0  0
 11 14  1  0  0  0  0
  9 10  1  0  0  0  0
  9 11  1  0  0  0  0
  9 26  1  0  0  0  0
  7  8  1  0  0  0  0
  7  9  1  0  0  0  0
 30 31  1  0  0  0  0
 30 32  1  0  0  0  0
 30 33  1  0  0  0  0
 28 29  1  0  0  0  0
 28 30  1  0  0  0  0
M  END
$$$$
default_name
  -OEChem-01062215323D

 33 33  0     1  0  0  0  0  0999 V2000
   -4.0702   -3.8485    1.4554 H   0  0  0  0  0  0  0  0  0  0  0  0
   -4.0012   -2.9605    0.8284 C   0  0  0  0  0  0  0  0  0  0  0  0
   -4.7652   -2.2435    1.1234 H   0  0  0  0  0  0  0  0  0  0  0  0
   -4.1352   -3.2385   -0.2156 H   0  0  0  0  0  0  0  0  0  0  0  0
   -2.6362   -2.3395    1.0094 C   0  0  0  0  0  0  0  0  0  0  0  0
   -1.8292   -2.8395    1.7814 O   0  0  0  0  0  0  0  0  0  0  0  0
   -2.3832   -1.2445    0.2964 N   0  0  0  0  0  0  0  0  0  0  0  0
   -3.1102   -0.8685   -0.2946 H   0  0  0  0  0  0  0  0  0  0  0  0
   -1.1292   -0.4875    0.3524 C   0  0  1  0  0  0  0  0  0  0  0  0
   -1.1245    0.1088    1.2656 H   0  0  0  0  0  0  0  0  0  0  0  0
    0.0562   -1.4664    0.4079 C   0  0  0  0  0  0  0  0  0  0  0  0
   -0.0203   -2.1635   -0.4276 H   0  0  0  0  0  0  0  0  0  0  0  0
    0.9838   -0.9056    0.2817 H   0  0  0  0  0  0  0  0  0  0  0  0
    0.1282   -2.2739    1.6896 C   0  0  0  0  0  0  0  0  0  0  0  0
    0.6873   -1.7112    2.8545 C   0  0  0  0  0  0  0  0  0  0  0  0
    1.0917   -0.7077    2.8305 H   0  0  0  0  0  0  0  0  0  0  0  0
    0.7150   -2.4507    4.0529 C   0  0  0  0  0  0  0  0  0  0  0  0
    1.1453   -2.0172    4.9426 H   0  0  0  0  0  0  0  0  0  0  0  0
    0.1781   -3.7561    4.0869 C   0  0  0  0  0  0  0  0  0  0  0  0
    0.1974   -4.4763    5.2384 O   0  0  0  0  0  0  0  0  0  0  0  0
    0.6814   -4.0307    5.9350 H   0  0  0  0  0  0  0  0  0  0  0  0
   -0.3854   -4.3158    2.9215 C   0  0  0  0  0  0  0  0  0  0  0  0
   -0.7887   -5.3165    2.9590 H   0  0  0  0  0  0  0  0  0  0  0  0
   -0.4075   -3.5759    1.7240 C   0  0  0  0  0  0  0  0  0  0  0  0
   -0.8322   -4.0100    0.8267 H   0  0  0  0  0  0  0  0  0  0  0  0
   -1.0161    0.4790   -0.8384 C   0  0  0  0  0  0  0  0  0  0  0  0
    0.0399    0.5694   -1.4651 O   0  0  0  0  0  0  0  0  0  0  0  0
   -2.0994    1.2023   -1.1489 N   0  0  0  0  0  0  0  0  0  0  0  0
   -2.9072    1.1131   -0.5496 H   0  0  0  0  0  0  0  0  0  0  0  0
   -2.1611    2.1655   -2.2458 C   0  0  0  0  0  0  0  0  0  0  0  0
   -1.8018    1.7023   -3.1664 H   0  0  0  0  0  0  0  0  0  0  0  0
   -3.1882    2.5044   -2.3910 H   0  0  0  0  0  0  0  0  0  0  0  0
   -1.5270    3.0244   -2.0166 H   0  0  0  0  0  0  0  0  0  0  0  0
  5  6  2  0  0  0  0
  5  7  1  0  0  0  0
  2  3  1  0  0  0  0
  2  4  1  0  0  0  0
  2  5  1  0  0  0  0
  1  2  1  0  0  0  0
 26 27  2  0  0  0  0
 26 28  1  0  0  0  0
 24 25  1  0  0  0  0
 22 23  1  0  0  0  0
 22 24  2  0  0  0  0
 20 21  1  0  0  0  0
 19 20  1  0  0  0  0
 19 22  1  0  0  0  0
 17 18  1  0  0  0  0
 17 19  2  0  0  0  0
 15 16  1  0  0  0  0
 15 17  1  0  0  0  0
 14 15  2  0  0  0  0
 14 24  1  0  0  0  0
 11 12  1  0  0  0  0
 11 13  1  0  0  0  0
 11 14  1  0  0  0  0
  9 10  1  0  0  0  0
  9 11  1  0  0  0  0
  9 26  1  0  0  0  0
  7  8  1  0  0  0  0
  7  9  1  0  0  0  0
 30 31  1  0  0  0  0
 30 32  1  0  0  0  0
 30 33  1  0  0  0  0
 28 29  1  0  0  0  0
 28 30  1  0  0  0  0
M  END
$$$$
default_name
  -OEChem-01062215323D

 33 33  0     1  0  0  0  0  0999 V2000
   -4.0702   -3.8485    1.4554 H   0  0  0  0  0  0  0  0  0  0  0  0
   -4.0012   -2.9605    0.8284 C   0  0  0  0  0  0  0  0  0  0  0  0
   -4.7652   -2.2435    1.1234 H   0  0  0  0  0  0  0  0  0  0  0  0
   -4.1352   -3.2385   -0.2156 H   0  0  0  0  0  0  0  0  0  0  0  0
   -2.6362   -2.3395    1.0094 C   0  0  0  0  0  0  0  0  0  0  0  0
   -1.8292   -2.8395    1.7814 O   0  0  0  0  0  0  0  0  0  0  0  0
   -2.3832   -1.2445    0.2964 N   0  0  0  0  0  0  0  0  0  0  0  0
   -3.1102   -0.8685   -0.2946 H   0  0  0  0  0  0  0  0  0  0  0  0
   -1.1292   -0.4875    0.3524 C   0  0  1  0  0  0  0  0  0  0  0  0
   -1.1245    0.1088    1.2656 H   0  0  0  0  0  0  0  0  0  0  0  0
    0.0562   -1.4664    0.4079 C   0  0  0  0  0  0  0  0  0  0  0  0
   -0.0203   -2.1635   -0.4276 H   0  0  0  0  0  0  0  0  0  0  0  0
    0.9838   -0.9056    0.2817 H   0  0  0  0  0  0  0  0  0  0  0  0
    0.1282   -2.2739    1.6896 C   0  0  0  0  0  0  0  0  0  0  0  0
    0.6873   -1.7112    2.8545 C   0  0  0  0  0  0  0  0  0  0  0  0
    1.0917   -0.7077    2.8305 H   0  0  0  0  0  0  0  0  0  0  0  0
    0.7150   -2.4507    4.0529 C   0  0  0  0  0  0  0  0  0  0  0  0
    1.1453   -2.0172    4.9426 H   0  0  0  0  0  0  0  0  0  0  0  0
    0.1781   -3.7561    4.0869 C   0  0  0  0  0  0  0  0  0  0  0  0
    0.1974   -4.4763    5.2384 O   0  0  0  0  0  0  0  0  0  0  0  0
    0.6814   -4.0307    5.9350 H   0  0  0  0  0  0  0  0  0  0  0  0
   -0.3854   -4.3158    2.9215 C   0  0  0  0  0  0  0  0  0  0  0  0
   -0.7887   -5.3165    2.9590 H   0  0  0  0  0  0  0  0  0  0  0  0
   -0.4075   -3.5759    1.7240 C   0  0  0  0  0  0  0  0  0  0  0  0
   -0.8322   -4.0100    0.8267 H   0  0  0  0  0  0  0  0  0  0  0  0
   -1.0161    0.4790   -0.8384 C   0  0  0  0  0  0  0  0  0  0  0  0
   -0.0783    0.3799   -1.6302 O   0  0  0  0  0  0  0  0  0  0  0  0
   -1.9665    1.4139   -0.9645 N   0  0  0  0  0  0  0  0  0  0  0  0
   -2.6686    1.4658   -0.2408 H   0  0  0  0  0  0  0  0  0  0  0  0
   -2.0079    2.4085   -2.0340 C   0  0  0  0  0  0  0  0  0  0  0  0
   -1.9023    1.9162   -3.0023 H   0  0  0  0  0  0  0  0  0  0  0  0
   -2.9550    2.9498   -2.0073 H   0  0  0  0  0  0  0  0  0  0  0  0
   -1.1849    3.1155   -1.9101 H   0  0  0  0  0  0  0  0  0  0  0  0
  5  6  2  0  0  0  0
  5  7  1  0  0  0  0
  2  3  1  0  0  0  0
  2  4  1  0  0  0  0
  2  5  1  0  0  0  0
  1  2  1  0  0  0  0
 26 27  2  0  0  0  0
 26 28  1  0  0  0  0
 24 25  1  0  0  0  0
 22 23  1  0  0  0  0
 22 24  2  0  0  0  0
 20 21  1  0  0  0  0
 19 20  1  0  0  0  0
 19 22  1  0  0  0  0
 17 18  1  0  0  0  0
 17 19  2  0  0  0  0
 15 16  1  0  0  0  0
 15 17  1  0  0  0  0
 14 15  2  0  0  0  0
 14 24  1  0  0  0  0
 11 12  1  0  0  0  0
 11 13  1  0  0  0  0
 11 14  1  0  0  0  0
  9 10  1  0  0  0  0
  9 11  1  0  0  0  0
  9 26  1  0  0  0  0
  7  8  1  0  0  0  0
  7  9  1  0  0  0  0
 30 31  1  0  0  0  0
 30 32  1  0  0  0  0
 30 33  1  0  0  0  0
 28 29  1  0  0  0  0
 28 30  1  0  0  0  0
M  END
$$$$
default_name
  -OEChem-01062215323D

 33 33  0     1  0  0  0  0  0999 V2000
   -4.0702   -3.8485    1.4554 H   0  0  0  0  0  0  0  0  0  0  0  0
   -4.0012   -2.9605    0.8284 C   0  0  0  0  0  0  0  0  0  0  0  0
   -4.7652   -2.2435    1.1234 H   0  0  0  0  0  0  0  0  0  0  0  0
   -4.1352   -3.2385   -0.2156 H   0  0  0  0  0  0  0  0  0  0  0  0
   -2.6362   -2.3395    1.0094 C   0  0  0  0  0  0  0  0  0  0  0  0
   -1.8292   -2.8395    1.7814 O   0  0  0  0  0  0  0  0  0  0  0  0
   -2.3832   -1.2445    0.2964 N   0  0  0  0  0  0  0  0  0  0  0  0
   -3.1102   -0.8685   -0.2946 H   0  0  0  0  0  0  0  0  0  0  0  0
   -1.1292   -0.4875    0.3524 C   0  0  1  0  0  0  0  0  0  0  0  0
   -1.1245    0.1088    1.2656 H   0  0  0  0  0  0  0  0  0  0  0  0
    0.0562   -1.4664    0.4079 C   0  0  0  0  0  0  0  0  0  0  0  0
   -0.0203   -2.1635   -0.4276 H   0  0  0  0  0  0  0  0  0  0  0  0
    0.9838   -0.9056    0.2817 H   0  0  0  0  0  0  0  0  0  0  0  0
    0.1282   -2.2739    1.6896 C   0  0  0  0  0  0  0  0  0  0  0  0
    0.6873   -1.7112    2.8545 C   0  0  0  0  0  0  0  0  0  0  0  0
    1.0917   -0.7077    2.8305 H   0  0  0  0  0  0  0  0  0  0  0  0
    0.7150   -2.4507    4.0529 C   0  0  0  0  0  0  0  0  0  0  0  0
    1.1453   -2.0172    4.9426 H   0  0  0  0  0  0  0  0  0  0  0  0
    0.1781   -3.7561    4.0869 C   0  0  0  0  0  0  0  0  0  0  0  0
    0.1974   -4.4763    5.2384 O   0  0  0  0  0  0  0  0  0  0  0  0
    0.6814   -4.0307    5.9350 H   0  0  0  0  0  0  0  0  0  0  0  0
   -0.3854   -4.3158    2.9215 C   0  0  0  0  0  0  0  0  0  0  0  0
   -0.7887   -5.3165    2.9590 H   0  0  0  0  0  0  0  0  0  0  0  0
   -0.4075   -3.5759    1.7240 C   0  0  0  0  0  0  0  0  0  0  0  0
   -0.8322   -4.0100    0.8267 H   0  0  0  0  0  0  0  0  0  0  0  0
   -1.0161    0.4790   -0.8384 C   0  0  0  0  0  0  0  0  0  0  0  0
   -0.2574    0.2236   -1.7740 O   0  0  0  0  0  0  0  0  0  0  0  0
   -1.7657    1.5880   -0.8041 N   0  0  0  0  0  0  0  0  0  0  0  0
   -2.3172    1.7527    0.0255 H   0  0  0  0  0  0  0  0  0  0  0  0
   -1.7767    2.6085   -1.8497 C   0  0  0  0  0  0  0  0  0  0  0  0
   -1.9297    2.1399   -2.8234 H   0  0  0  0  0  0  0  0  0  0  0  0
   -2.5781    3.3261   -1.6662 H   0  0  0  0  0  0  0  0  0  0  0  0
   -0.8189    3.1328   -1.8613 H   0  0  0  0  0  0  0  0  0  0  0  0
  5  6  2  0  0  0  0
  5  7  1  0  0  0  0
  2  3  1  0  0  0  0
  2  4  1  0  0  0  0
  2  5  1  0  0  0  0
  1  2  1  0  0  0  0
 26 27  2  0  0  0  0
 26 28  1  0  0  0  0
 24 25  1  0  0  0  0
 22 23  1  0  0  0  0
 22 24  2  0  0  0  0
 20 21  1  0  0  0  0
 19 20  1  0  0  0  0
 19 22  1  0  0  0  0
 17 18  1  0  0  0  0
 17 19  2  0  0  0  0
 15 16  1  0  0  0  0
 15 17  1  0  0  0  0
 14 15  2  0  0  0  0
 14 24  1  0  0  0  0
 11 12  1  0  0  0  0
 11 13  1  0  0  0  0
 11 14  1  0  0  0  0
  9 10  1  0  0  0  0
  9 11  1  0  0  0  0
  9 26  1  0  0  0  0
  7  8  1  0  0  0  0
  7  9  1  0  0  0  0
 30 31  1  0  0  0  0
 30 32  1  0  0  0  0
 30 33  1  0  0  0  0
 28 29  1  0  0  0  0
 28 30  1  0  0  0  0
M  END
$$$$
default_name
  -OEChem-01062215323D

 33 33  0     1  0  0  0  0  0999 V2000
   -4.0702   -3.8485    1.4554 H   0  0  0  0  0  0  0  0  0  0  0  0
   -4.0012   -2.9605    0.8284 C   0  0  0  0  0  0  0  0  0  0  0  0
   -4.7652   -2.2435    1.1234 H   0  0  0  0  0  0  0  0  0  0  0  0
   -4.1352   -3.2385   -0.2156 H   0  0  0  0  0  0  0  0  0  0  0  0
   -2.6362   -2.3395    1.0094 C   0  0  0  0  0  0  0  0  0  0  0  0
   -1.8292   -2.8395    1.7814 O   0  0  0  0  0  0  0  0  0  0  0  0
   -2.3832   -1.2445    0.2964 N   0  0  0  0  0  0  0  0  0  0  0  0
   -3.1102   -0.8685   -0.2946 H   0  0  0  0  0  0  0  0  0  0  0  0
   -1.1292   -0.4875    0.3524 C   0  0  1  0  0  0  0  0  0  0  0  0
   -1.1245    0.1088    1.2656 H   0  0  0  0  0  0  0  0  0  0  0  0
    0.0562   -1.4664    0.4079 C   0  0  0  0  0  0  0  0  0  0  0  0
   -0.0203   -2.1635   -0.4276 H   0  0  0  0  0  0  0  0  0  0  0  0
    0.9838   -0.9056    0.2817 H   0  0  0  0  0  0  0  0  0  0  0  0
    0.1282   -2.2739    1.6896 C   0  0  0  0  0  0  0  0  0  0  0  0
    0.6873   -1.7112    2.8545 C   0  0  0  0  0  0  0  0  0  0  0  0
    1.0917   -0.7077    2.8305 H   0  0  0  0  0  0  0  0  0  0  0  0
    0.7150   -2.4507    4.0529 C   0  0  0  0  0  0  0  0  0  0  0  0
    1.1453   -2.0172    4.9426 H   0  0  0  0  0  0  0  0  0  0  0  0
    0.1781   -3.7561    4.0869 C   0  0  0  0  0  0  0  0  0  0  0  0
    0.1974   -4.4763    5.2384 O   0  0  0  0  0  0  0  0  0  0  0  0
    0.6814   -4.0307    5.9350 H   0  0  0  0  0  0  0  0  0  0  0  0
   -0.3854   -4.3158    2.9215 C   0  0  0  0  0  0  0  0  0  0  0  0
   -0.7887   -5.3165    2.9590 H   0  0  0  0  0  0  0  0  0  0  0  0
   -0.4075   -3.5759    1.7240 C   0  0  0  0  0  0  0  0  0  0  0  0
   -0.8322   -4.0100    0.8267 H   0  0  0  0  0  0  0  0  0  0  0  0
   -1.0161    0.4790   -0.8384 C   0  0  0  0  0  0  0  0  0  0  0  0
   -0.4851    0.1114   -1.8867 O   0  0  0  0  0  0  0  0  0  0  0  0
   -1.5108    1.7130   -0.6784 N   0  0  0  0  0  0  0  0  0  0  0  0
   -1.8770    1.9544    0.2310 H   0  0  0  0  0  0  0  0  0  0  0  0
   -1.4833    2.7519   -1.7055 C   0  0  0  0  0  0  0  0  0  0  0  0
   -1.8823    2.3580   -2.6418 H   0  0  0  0  0  0  0  0  0  0  0  0
   -2.0831    3.6074   -1.3908 H   0  0  0  0  0  0  0  0  0  0  0  0
   -0.4539    3.0754   -1.8732 H   0  0  0  0  0  0  0  0  0  0  0  0
  5  6  2  0  0  0  0
  5  7  1  0  0  0  0
  2  3  1  0  0  0  0
  2  4  1  0  0  0  0
  2  5  1  0  0  0  0
  1  2  1  0  0  0  0
 26 27  2  0  0  0  0
 26 28  1  0  0  0  0
 24 25  1  0  0  0  0
 22 23  1  0  0  0  0
 22 24  2  0  0  0  0
 20 21  1  0  0  0  0
 19 20  1  0  0  0  0
 19 22  1  0  0  0  0
 17 18  1  0  0  0  0
 17 19  2  0  0  0  0
 15 16  1  0  0  0  0
 15 17  1  0  0  0  0
 14 15  2  0  0  0  0
 14 24  1  0  0  0  0
 11 12  1  0  0  0  0
 11 13  1  0  0  0  0
 11 14  1  0  0  0  0
  9 10  1  0  0  0  0
  9 11  1  0  0  0  0
  9 26  1  0  0  0  0
  7  8  1  0  0  0  0
  7  9  1  0  0  0  0
 30 31  1  0  0  0  0
 30 32  1  0  0  0  0
 30 33  1  0  0  0  0
 28 29  1  0  0  0  0
 28 30  1  0  0  0  0
M  END
$$$$
default_name
  -OEChem-01062215323D

 33 33  0     1  0  0  0  0  0999 V2000
   -4.0702   -3.8485    1.4554 H   0  0  0  0  0  0  0  0  0  0  0  0
   -4.0012   -2.9605    0.8284 C   0  0  0  0  0  0  0  0  0  0  0  0
   -4.7652   -2.2435    1.1234 H   0  0  0  0  0  0  0  0  0  0  0  0
   -4.1352   -3.2385   -0.2156 H   0  0  0  0  0  0  0  0  0  0  0  0
   -2.6362   -2.3395    1.0094 C   0  0  0  0  0  0  0  0  0  0  0  0
   -1.8292   -2.8395    1.7814 O   0  0  0  0  0  0  0  0  0  0  0  0
   -2.3832   -1.2445    0.2964 N   0  0  0  0  0  0  0  0  0  0  0  0
   -3.1102   -0.8685   -0.2946 H   0  0  0  0  0  0  0  0  0  0  0  0
   -1.1292   -0.4875    0.3524 C   0  0  1  0  0  0  0  0  0  0  0  0
   -1.1245    0.1088    1.2656 H   0  0  0  0  0  0  0  0  0  0  0  0
    0.0562   -1.4664    0.4079 C   0  0  0  0  0  0  0  0  0  0  0  0
   -0.0203   -2.1635   -0.4276 H   0  0  0  0  0  0  0  0  0  0  0  0
    0.9838   -0.9056    0.2817 H   0  0  0  0  0  0  0  0  0  0  0  0
    0.1282   -2.2739    1.6896 C   0  0  0  0  0  0  0  0  0  0  0  0
    0.6873   -1.7112    2.8545 C   0  0  0  0  0  0  0  0  0  0  0  0
    1.0917   -0.7077    2.8305 H   0  0  0  0  0  0  0  0  0  0  0  0
    0.7150   -2.4507    4.0529 C   0  0  0  0  0  0  0  0  0  0  0  0
    1.1453   -2.0172    4.9426 H   0  0  0  0  0  0  0  0  0  0  0  0
    0.1781   -3.7561    4.0869 C   0  0  0  0  0  0  0  0  0  0  0  0
    0.1974   -4.4763    5.2384 O   0  0  0  0  0  0  0  0  0  0  0  0
    0.6814   -4.0307    5.9350 H   0  0  0  0  0  0  0  0  0  0  0  0
   -0.3854   -4.3158    2.9215 C   0  0  0  0  0  0  0  0  0  0  0  0
   -0.7887   -5.3165    2.9590 H   0  0  0  0  0  0  0  0  0  0  0  0
   -0.4075   -3.5759    1.7240 C   0  0  0  0  0  0  0  0  0  0  0  0
   -0.8322   -4.0100    0.8267 H   0  0  0  0  0  0  0  0  0  0  0  0
   -1.0161    0.4790   -0.8384 C   0  0  0  0  0  0  0  0  0  0  0  0
   -0.7458    0.0507   -1.9607 O   0  0  0  0  0  0  0  0  0  0  0  0
   -1.2190    1.7802   -0.5962 N   0  0  0  0  0  0  0  0  0  0  0  0
   -1.3779    2.0571    0.3618 H   0  0  0  0  0  0  0  0  0  0  0  0
   -1.1477    2.8288   -1.6111 C   0  0  0  0  0  0  0  0  0  0  0  0
   -1.7632    2.5557   -2.4700 H   0  0  0  0  0  0  0  0  0  0  0  0
   -1.5038    3.7748   -1.1999 H   0  0  0  0  0  0  0  0  0  0  0  0
   -0.1149    2.9469   -1.9453 H   0  0  0  0  0  0  0  0  0  0  0  0
  5  6  2  0  0  0  0
  5  7  1  0  0  0  0
  2  3  1  0  0  0  0
  2  4  1  0  0  0  0
  2  5  1  0  0  0  0
  1  2  1  0  0  0  0
 26 27  2  0  0  0  0
 26 28  1  0  0  0  0
 24 25  1  0  0  0  0
 22 23  1  0  0  0  0
 22 24  2  0  0  0  0
 20 21  1  0  0  0  0
 19 20  1  0  0  0  0
 19 22  1  0  0  0  0
 17 18  1  0  0  0  0
 17 19  2  0  0  0  0
 15 16  1  0  0  0  0
 15 17  1  0  0  0  0
 14 15  2  0  0  0  0
 14 24  1  0  0  0  0
 11 12  1  0  0  0  0
 11 13  1  0  0  0  0
 11 14  1  0  0  0  0
  9 10  1  0  0  0  0
  9 11  1  0  0  0  0
  9 26  1  0  0  0  0
  7  8  1  0  0  0  0
  7  9  1  0  0  0  0
 30 31  1  0  0  0  0
 30 32  1  0  0  0  0
 30 33  1  0  0  0  0
 28 29  1  0  0  0  0
 28 30  1  0  0  0  0
M  END
$$$$
default_name
  -OEChem-01062215323D

 33 33  0     1  0  0  0  0  0999 V2000
   -4.0702   -3.8485    1.4554 H   0  0  0  0  0  0  0  0  0  0  0  0
   -4.0012   -2.9605    0.8284 C   0  0  0  0  0  0  0  0  0  0  0  0
   -4.7652   -2.2435    1.1234 H   0  0  0  0  0  0  0  0  0  0  0  0
   -4.1352   -3.2385   -0.2156 H   0  0  0  0  0  0  0  0  0  0  0  0
   -2.6362   -2.3395    1.0094 C   0  0  0  0  0  0  0  0  0  0  0  0
   -1.8292   -2.8395    1.7814 O   0  0  0  0  0  0  0  0  0  0  0  0
   -2.3832   -1.2445    0.2964 N   0  0  0  0  0  0  0  0  0  0  0  0
   -3.1102   -0.8685   -0.2946 H   0  0  0  0  0  0  0  0  0  0  0  0
   -1.1292   -0.4875    0.3524 C   0  0  1  0  0  0  0  0  0  0  0  0
   -1.1245    0.1088    1.2656 H   0  0  0  0  0  0  0  0  0  0  0  0
    0.0562   -1.4664    0.4079 C   0  0  0  0  0  0  0  0  0  0  0  0
   -0.0203   -2.1635   -0.4276 H   0  0  0  0  0  0  0  0  0  0  0  0
    0.9838   -0.9056    0.2817 H   0  0  0  0  0  0  0  0  0  0  0  0
    0.1282   -2.2739    1.6896 C   0  0  0  0  0  0  0  0  0  0  0  0
    0.6873   -1.7112    2.8545 C   0  0  0  0  0  0  0  0  0  0  0  0
    1.0917   -0.7077    2.8305 H   0  0  0  0  0  0  0  0  0  0  0  0
    0.7150   -2.4507    4.0529 C   0  0  0  0  0  0  0  0  0  0  0  0
    1.1453   -2.0172    4.9426 H   0  0  0  0  0  0  0  0  0  0  0  0
    0.1781   -3.7561    4.0869 C   0  0  0  0  0  0  0  0  0  0  0  0
    0.1974   -4.4763    5.2384 O   0  0  0  0  0  0  0  0  0  0  0  0
    0.6814   -4.0307    5.9350 H   0  0  0  0  0  0  0  0  0  0  0  0
   -0.3854   -4.3158    2.9215 C   0  0  0  0  0  0  0  0  0  0  0  0
   -0.7887   -5.3165    2.9590 H   0  0  0  0  0  0  0  0  0  0  0  0
   -0.4075   -3.5759    1.7240 C   0  0  0  0  0  0  0  0  0  0  0  0
   -0.8322   -4.0100    0.8267 H   0  0  0  0  0  0  0  0  0  0  0  0
   -1.0161    0.4790   -0.8384 C   0  0  0  0  0  0  0  0  0  0  0  0
   -1.0219    0.0458   -1.9910 O   0  0  0  0  0  0  0  0  0  0  0  0
   -0.9104    1.7851   -0.5629 N   0  0  0  0  0  0  0  0  0  0  0  0
   -0.8540    2.0537    0.4088 H   0  0  0  0  0  0  0  0  0  0  0  0
   -0.7928    2.8341   -1.5732 C   0  0  0  0  0  0  0  0  0  0  0  0
   -1.5807    2.7196   -2.3197 H   0  0  0  0  0  0  0  0  0  0  0  0
   -0.8797    3.8167   -1.1066 H   0  0  0  0  0  0  0  0  0  0  0  0
    0.1752    2.7563   -2.0725 H   0  0  0  0  0  0  0  0  0  0  0  0
  5  6  2  0  0  0  0
  5  7  1  0  0  0  0
  2  3  1  0  0  0  0
  2  4  1  0  0  0  0
  2  5  1  0  0  0  0
  1  2  1  0  0  0  0
 26 27  2  0  0  0  0
 26 28  1  0  0  0  0
 24 25  1  0  0  0  0
 22 23  1  0  0  0  0
 22 24  2  0  0  0  0
 20 21  1  0  0  0  0
 19 20  1  0  0  0  0
 19 22  1  0  0  0  0
 17 18  1  0  0  0  0
 17 19  2  0  0  0  0
 15 16  1  0  0  0  0
 15 17  1  0  0  0  0
 14 15  2  0  0  0  0
 14 24  1  0  0  0  0
 11 12  1  0  0  0  0
 11 13  1  0  0  0  0
 11 14  1  0  0  0  0
  9 10  1  0  0  0  0
  9 11  1  0  0  0  0
  9 26  1  0  0  0  0
  7  8  1  0  0  0  0
  7  9  1  0  0  0  0
 30 31  1  0  0  0  0
 30 32  1  0  0  0  0
 30 33  1  0  0  0  0
 28 29  1  0  0  0  0
 28 30  1  0  0  0  0
M  END
$$$$
default_name
  -OEChem-01062215323D

 33 33  0     1  0  0  0  0  0999 V2000
   -4.0702   -3.8485    1.4554 H   0  0  0  0  0  0  0  0  0  0  0  0
   -4.0012   -2.9605    0.8284 C   0  0  0  0  0  0  0  0  0  0  0  0
   -4.7652   -2.2435    1.1234 H   0  0  0  0  0  0  0  0  0  0  0  0
   -4.1352   -3.2385   -0.2156 H   0  0  0  0  0  0  0  0  0  0  0  0
   -2.6362   -2.3395    1.0094 C   0  0  0  0  0  0  0  0  0  0  0  0
   -1.8292   -2.8395    1.7814 O   0  0  0  0  0  0  0  0  0  0  0  0
   -2.3832   -1.2445    0.2964 N   0  0  0  0  0  0  0  0  0  0  0  0
   -3.1102   -0.8685   -0.2946 H   0  0  0  0  0  0  0  0  0  0  0  0
   -1.1292   -0.4875    0.3524 C   0  0  1  0  0  0  0  0  0  0  0  0
   -1.1245    0.1088    1.2656 H   0  0  0  0  0  0  0  0  0  0  0  0
    0.0562   -1.4664    0.4079 C   0  0  0  0  0  0  0  0  0  0  0  0
   -0.0203   -2.1635   -0.4276 H   0  0  0  0  0  0  0  0  0  0  0  0
    0.9838   -0.9056    0.2817 H   0  0  0  0  0  0  0  0  0  0  0  0
    0.1282   -2.2739    1.6896 C   0  0  0  0  0  0  0  0  0  0  0  0
    0.6873   -1.7112    2.8545 C   0  0  0  0  0  0  0  0  0  0  0  0
    1.0917   -0.7077    2.8305 H   0  0  0  0  0  0  0  0  0  0  0  0
    0.7150   -2.4507    4.0529 C   0  0  0  0  0  0  0  0  0  0  0  0
    1.1453   -2.0172    4.9426 H   0  0  0  0  0  0  0  0  0  0  0  0
    0.1781   -3.7561    4.0869 C   0  0  0  0  0  0  0  0  0  0  0  0
    0.1974   -4.4763    5.2384 O   0  0  0  0  0  0  0  0  0  0  0  0
    0.6814   -4.0307    5.9350 H   0  0  0  0  0  0  0  0  0  0  0  0
   -0.3854   -4.3158    2.9215 C   0  0  0  0  0  0  0  0  0  0  0  0
   -0.7887   -5.3165    2.9590 H   0  0  0  0  0  0  0  0  0  0  0  0
   -0.4075   -3.5759    1.7240 C   0  0  0  0  0  0  0  0  0  0  0  0
   -0.8322   -4.0100    0.8267 H   0  0  0  0  0  0  0  0  0  0  0  0
   -1.0161    0.4790   -0.8384 C   0  0  0  0  0  0  0  0  0  0  0  0
   -1.2944    0.0969   -1.9754 O   0  0  0  0  0  0  0  0  0  0  0  0
   -0.6059    1.7274   -0.5808 N   0  0  0  0  0  0  0  0  0  0  0  0
   -0.3410    1.9446    0.3690 H   0  0  0  0  0  0  0  0  0  0  0  0
   -0.4428    2.7673   -1.5941 C   0  0  0  0  0  0  0  0  0  0  0  0
   -1.3470    2.8384   -2.2010 H   0  0  0  0  0  0  0  0  0  0  0  0
   -0.2532    3.7303   -1.1172 H   0  0  0  0  0  0  0  0  0  0  0  0
    0.3964    2.5164   -2.2461 H   0  0  0  0  0  0  0  0  0  0  0  0
  5  6  2  0  0  0  0
  5  7  1  0  0  0  0
  2  3  1  0  0  0  0
  2  4  1  0  0  0  0
  2  5  1  0  0  0  0
  1  2  1  0  0  0  0
 26 27  2  0  0  0  0
 26 28  1  0  0  0  0
 24 25  1  0  0  0  0
 22 23  1  0  0  0  0
 22 24  2  0  0  0  0
 20 21  1  0  0  0  0
 19 20  1  0  0  0  0
 19 22  1  0  0  0  0
 17 18  1  0  0  0  0
 17 19  2  0  0  0  0
 15 16  1  0  0  0  0
 15 17  1  0  0  0  0
 14 15  2  0  0  0  0
 14 24  1  0  0  0  0
 11 12  1  0  0  0  0
 11 13  1  0  0  0  0
 11 14  1  0  0  0  0
  9 10  1  0  0  0  0
  9 11  1  0  0  0  0
  9 26  1  0  0  0  0
  7  8  1  0  0  0  0
  7  9  1  0  0  0  0
 30 31  1  0  0  0  0
 30 32  1  0  0  0  0
 30 33  1  0  0  0  0
 28 29  1  0  0  0  0
 28 30  1  0  0  0  0
M  END
$$$$
default_name
  -OEChem-01062215323D

 33 33  0     1  0  0  0  0  0999 V2000
   -4.0702   -3.8485    1.4554 H   0  0  0  0  0  0  0  0  0  0  0  0
   -4.0012   -2.9605    0.8284 C   0  0  0  0  0  0  0  0  0  0  0  0
   -4.7652   -2.2435    1.1234 H   0  0  0  0  0  0  0  0  0  0  0  0
   -4.1352   -3.2385   -0.2156 H   0  0  0  0  0  0  0  0  0  0  0  0
   -2.6362   -2.3395    1.0094 C   0  0  0  0  0  0  0  0  0  0  0  0
   -1.8292   -2.8395    1.7814 O   0  0  0  0  0  0  0  0  0  0  0  0
   -2.3832   -1.2445    0.2964 N   0  0  0  0  0  0  0  0  0  0  0  0
   -3.1102   -0.8685   -0.2946 H   0  0  0  0  0  0  0  0  0  0  0  0
   -1.1292   -0.4875    0.3524 C   0  0  1  0  0  0  0  0  0  0  0  0
   -1.1245    0.1088    1.2656 H   0  0  0  0  0  0  0  0  0  0  0  0
    0.0562   -1.4664    0.4079 C   0  0  0  0  0  0  0  0  0  0  0  0
   -0.0203   -2.1635   -0.4276 H   0  0  0  0  0  0  0  0  0  0  0  0
    0.9838   -0.9056    0.2817 H   0  0  0  0  0  0  0  0  0  0  0  0
    0.1282   -2.2739    1.6896 C   0  0  0  0  0  0  0  0  0  0  0  0
    0.6873   -1.7112    2.8545 C   0  0  0  0  0  0  0  0  0  0  0  0
    1.0917   -0.7077    2.8305 H   0  0  0  0  0  0  0  0  0  0  0  0
    0.7150   -2.4507    4.0529 C   0  0  0  0  0  0  0  0  0  0  0  0
    1.1453   -2.0172    4.9426 H   0  0  0  0  0  0  0  0  0  0  0  0
    0.1781   -3.7561    4.0869 C   0  0  0  0  0  0  0  0  0  0  0  0
    0.1974   -4.4763    5.2384 O   0  0  0  0  0  0  0  0  0  0  0  0
    0.6814   -4.0307    5.9350 H   0  0  0  0  0  0  0  0  0  0  0  0
   -0.3854   -4.3158    2.9215 C   0  0  0  0  0  0  0  0  0  0  0  0
   -0.7887   -5.3165    2.9590 H   0  0  0  0  0  0  0  0  0  0  0  0
   -0.4075   -3.5759    1.7240 C   0  0  0  0  0  0  0  0  0  0  0  0
   -0.8322   -4.0100    0.8267 H   0  0  0  0  0  0  0  0  0  0  0  0
   -1.0161    0.4790   -0.8384 C   0  0  0  0  0  0  0  0  0  0  0  0
   -1.5449    0.2006   -1.9150 O   0  0  0  0  0  0  0  0  0  0  0  0
   -0.3262    1.6109   -0.6488 N   0  0  0  0  0  0  0  0  0  0  0  0
    0.1262    1.7371    0.2450 H   0  0  0  0  0  0  0  0  0  0  0  0
   -0.1215    2.6330   -1.6725 C   0  0  0  0  0  0  0  0  0  0  0  0
   -1.0782    2.9041   -2.1222 H   0  0  0  0  0  0  0  0  0  0  0  0
    0.3328    3.5215   -1.2310 H   0  0  0  0  0  0  0  0  0  0  0  0
    0.5339    2.2437   -2.4544 H   0  0  0  0  0  0  0  0  0  0  0  0
  5  6  2  0  0  0  0
  5  7  1  0  0  0  0
  2  3  1  0  0  0  0
  2  4  1  0  0  0  0
  2  5  1  0  0  0  0
  1  2  1  0  0  0  0
 26 27  2  0  0  0  0
 26 28  1  0  0  0  0
 24 25  1  0  0  0  0
 22 23  1  0  0  0  0
 22 24  2  0  0  0  0
 20 21  1  0  0  0  0
 19 20  1  0  0  0  0
 19 22  1  0  0  0  0
 17 18  1  0  0  0  0
 17 19  2  0  0  0  0
 15 16  1  0  0  0  0
 15 17  1  0  0  0  0
 14 15  2  0  0  0  0
 14 24  1  0  0  0  0
 11 12  1  0  0  0  0
 11 13  1  0  0  0  0
 11 14  1  0  0  0  0
  9 10  1  0  0  0  0
  9 11  1  0  0  0  0
  9 26  1  0  0  0  0
  7  8  1  0  0  0  0
  7  9  1  0  0  0  0
 30 31  1  0  0  0  0
 30 32  1  0  0  0  0
 30 33  1  0  0  0  0
 28 29  1  0  0  0  0
 28 30  1  0  0  0  0
M  END
$$$$
default_name
  -OEChem-01062215323D

 33 33  0     1  0  0  0  0  0999 V2000
   -4.0702   -3.8485    1.4554 H   0  0  0  0  0  0  0  0  0  0  0  0
   -4.0012   -2.9605    0.8284 C   0  0  0  0  0  0  0  0  0  0  0  0
   -4.7652   -2.2435    1.1234 H   0  0  0  0  0  0  0  0  0  0  0  0
   -4.1352   -3.2385   -0.2156 H   0  0  0  0  0  0  0  0  0  0  0  0
   -2.6362   -2.3395    1.0094 C   0  0  0  0  0  0  0  0  0  0  0  0
   -1.8292   -2.8395    1.7814 O   0  0  0  0  0  0  0  0  0  0  0  0
   -2.3832   -1.2445    0.2964 N   0  0  0  0  0  0  0  0  0  0  0  0
   -3.1102   -0.8685   -0.2946 H   0  0  0  0  0  0  0  0  0  0  0  0
   -1.1292   -0.4875    0.3524 C   0  0  1  0  0  0  0  0  0  0  0  0
   -1.1245    0.1088    1.2656 H   0  0  0  0  0  0  0  0  0  0  0  0
    0.0562   -1.4664    0.4079 C   0  0  0  0  0  0  0  0  0  0  0  0
   -0.0203   -2.1635   -0.4276 H   0  0  0  0  0  0  0  0  0  0  0  0
    0.9838   -0.9056    0.2817 H   0  0  0  0  0  0  0  0  0  0  0  0
    0.1282   -2.2739    1.6896 C   0  0  0  0  0  0  0  0  0  0  0  0
    0.6873   -1.7112    2.8545 C   0  0  0  0  0  0  0  0  0  0  0  0
    1.0917   -0.7077    2.8305 H   0  0  0  0  0  0  0  0  0  0  0  0
    0.7150   -2.4507    4.0529 C   0  0  0  0  0  0  0  0  0  0  0  0
    1.1453   -2.0172    4.9426 H   0  0  0  0  0  0  0  0  0  0  0  0
    0.1781   -3.7561    4.0869 C   0  0  0  0  0  0  0  0  0  0  0  0
    0.1974   -4.4763    5.2384 O   0  0  0  0  0  0  0  0  0  0  0  0
    0.6814   -4.0307    5.9350 H   0  0  0  0  0  0  0  0  0  0  0  0
   -0.3854   -4.3158    2.9215 C   0  0  0  0  0  0  0  0  0  0  0  0
   -0.7887   -5.3165    2.9590 H   0  0  0  0  0  0  0  0  0  0  0  0
   -0.4075   -3.5759    1.7240 C   0  0  0  0  0  0  0  0  0  0  0  0
   -0.8322   -4.0100    0.8267 H   0  0  0  0  0  0  0  0  0  0  0  0
   -1.0161    0.4790   -0.8384 C   0  0  0  0  0  0  0  0  0  0  0  0
   -1.7562    0.3498   -1.8139 O   0  0  0  0  0  0  0  0  0  0  0  0
   -0.0905    1.4436   -0.7622 N   0  0  0  0  0  0  0  0  0  0  0  0
    0.5158    1.4455    0.0453 H   0  0  0  0  0  0  0  0  0  0  0  0
    0.1492    2.4404   -1.8031 C   0  0  0  0  0  0  0  0  0  0  0  0
   -0.7926    2.9122   -2.0885 H   0  0  0  0  0  0  0  0  0  0  0  0
    0.8386    3.2045   -1.4402 H   0  0  0  0  0  0  0  0  0  0  0  0
    0.5781    1.9567   -2.6832 H   0  0  0  0  0  0  0  0  0  0  0  0
  5  6  2  0  0  0  0
  5  7  1  0  0  0  0
  2  3  1  0  0  0  0
  2  4  1  0  0  0  0
  2  5  1  0  0  0  0
  1  2  1  0  0  0  0
 26 27  2  0  0  0  0
 26 28  1  0  0  0  0
 24 25  1  0  0  0  0
 22 23  1  0  0  0  0
 22 24  2  0  0  0  0
 20 21  1  0  0  0  0
 19 20  1  0  0  0  0
 19 22  1  0  0  0  0
 17 18  1  0  0  0  0
 17 19  2  0  0  0  0
 15 16  1  0  0  0  0
 15 17  1  0  0  0  0
 14 15  2  0  0  0  0
 14 24  1  0  0  0  0
 11 12  1  0  0  0  0
 11 13  1  0  0  0  0
 11 14  1  0  0  0  0
  9 10  1  0  0  0  0
  9 11  1  0  0  0  0
  9 26  1  0  0  0  0
  7  8  1  0  0  0  0
  7  9  1  0  0  0  0
 30 31  1  0  0  0  0
 30 32  1  0  0  0  0
 30 33  1  0  0  0  0
 28 29  1  0  0  0  0
 28 30  1  0  0  0  0
M  END
$$$$
