
  -OEChem-02062319033D

 44 43  0     1  0  0  0  0  0999 V2000
   -4.0256   -1.8030   -2.1581 C   0  0  0  0  0  0  0  0  0  0  0  0
   -3.7513   -2.6782   -2.9709 O   0  0  0  0  0  0  0  0  0  0  0  0
   -5.3491   -1.1169   -2.2339 C   0  0  0  0  0  0  0  0  0  0  0  0
   -5.3223   -0.2211   -2.8750 H   0  0  0  0  0  0  0  0  0  0  0  0
   -6.1322   -1.7605   -2.6658 H   0  0  0  0  0  0  0  0  0  0  0  0
   -5.7568   -0.7715   -1.2704 H   0  0  0  0  0  0  0  0  0  0  0  0
   -3.2124   -1.3578   -1.1289 N   0  0  0  0  0  0  0  0  0  0  0  0
   -1.8971   -1.8843   -0.8752 C   0  0  2  0  0  0  0  0  0  0  0  0
   -1.2676   -1.0599    0.2399 C   0  0  0  0  0  0  0  0  0  0  0  0
   -1.6270    0.0833    0.5138 O   0  0  0  0  0  0  0  0  0  0  0  0
   -1.0364   -1.8506   -2.1285 C   0  0  0  0  0  0  0  0  0  0  0  0
   -3.5631   -0.6202   -0.5206 H   0  0  0  0  0  0  0  0  0  0  0  0
   -2.0301   -2.9174   -0.5360 H   0  0  0  0  0  0  0  0  0  0  0  0
   -0.8921   -0.8236   -2.4833 H   0  0  0  0  0  0  0  0  0  0  0  0
   -0.0457   -2.2777   -1.9410 H   0  0  0  0  0  0  0  0  0  0  0  0
   -1.5052   -2.4193   -2.9387 H   0  0  0  0  0  0  0  0  0  0  0  0
   -0.2267   -1.7335    0.8672 N   0  0  0  0  0  0  0  0  0  0  0  0
    0.5285   -1.1637    1.9544 C   0  0  2  0  0  0  0  0  0  0  0  0
    1.1776    0.1125    1.4314 C   0  0  0  0  0  0  0  0  0  0  0  0
    1.2182    1.1575    2.0776 O   0  0  0  0  0  0  0  0  0  0  0  0
    1.5893   -2.1299    2.4766 C   0  0  0  0  0  0  0  0  0  0  0  0
    1.0755   -3.3726    3.2148 C   0  0  0  0  0  0  0  0  0  0  0  0
   -0.0317   -3.2026    3.8031 O   0  5  0  0  0  0  0  0  0  0  0  0
    1.8025   -4.4020    3.1626 O   0  0  0  0  0  0  0  0  0  0  0  0
   -0.0056   -2.6838    0.5793 H   0  0  0  0  0  0  0  0  0  0  0  0
   -0.1928   -0.9060    2.7382 H   0  0  0  0  0  0  0  0  0  0  0  0
    2.2748   -1.5970    3.1498 H   0  0  0  0  0  0  0  0  0  0  0  0
    2.1986   -2.4968    1.6403 H   0  0  0  0  0  0  0  0  0  0  0  0
    1.7511   -0.0687    0.1805 N   0  0  0  0  0  0  0  0  0  0  0  0
    2.4552    0.9822   -0.5167 C   0  0  2  0  0  0  0  0  0  0  0  0
    2.2673    0.7626   -2.0119 C   0  0  0  0  0  0  0  0  0  0  0  0
    1.9826   -0.3296   -2.4989 O   0  0  0  0  0  0  0  0  0  0  0  0
    3.9312    0.9966   -0.1507 C   0  0  0  0  0  0  0  0  0  0  0  0
    1.7102   -0.9832   -0.2598 H   0  0  0  0  0  0  0  0  0  0  0  0
    1.9842    1.9269   -0.2237 H   0  0  0  0  0  0  0  0  0  0  0  0
    4.4201    0.0582   -0.4366 H   0  0  0  0  0  0  0  0  0  0  0  0
    4.4579    1.8116   -0.6580 H   0  0  0  0  0  0  0  0  0  0  0  0
    4.0638    1.1249    0.9290 H   0  0  0  0  0  0  0  0  0  0  0  0
    2.4971    1.9201   -2.7424 N   0  0  0  0  0  0  0  0  0  0  0  0
    2.3943    1.9666   -4.1823 C   0  0  0  0  0  0  0  0  0  0  0  0
    2.7097    2.7851   -2.2543 H   0  0  0  0  0  0  0  0  0  0  0  0
    3.3816    1.7738   -4.6273 H   0  0  0  0  0  0  0  0  0  0  0  0
    1.6825    1.2007   -4.5239 H   0  0  0  0  0  0  0  0  0  0  0  0
    2.0402    2.9607   -4.4926 H   0  0  0  0  0  0  0  0  0  0  0  0
  1  3  1  0  0  0  0
  1  7  1  0  0  0  0
  1  2  2  0  0  0  0
 30 31  1  0  0  0  0
 31 39  1  0  0  0  0
 31 32  2  0  0  0  0
  8  9  1  0  0  0  0
  9 17  1  0  0  0  0
  9 10  2  0  0  0  0
 18 19  1  0  0  0  0
 19 29  1  0  0  0  0
 19 20  2  0  0  0  0
 21 22  1  0  0  0  0
 22 23  1  0  0  0  0
 22 24  2  0  0  0  0
 30 33  1  0  0  0  0
  8 11  1  0  0  0  0
 39 40  1  0  0  0  0
 18 21  1  0  0  0  0
 29 30  1  0  0  0  0
  7  8  1  0  0  0  0
 17 18  1  0  0  0  0
  3  4  1  0  0  0  0
  3  5  1  0  0  0  0
  3  6  1  0  0  0  0
 33 36  1  0  0  0  0
 33 37  1  0  0  0  0
 33 38  1  0  0  0  0
 11 14  1  0  0  0  0
 11 15  1  0  0  0  0
 11 16  1  0  0  0  0
 40 42  1  0  0  0  0
 40 43  1  0  0  0  0
 40 44  1  0  0  0  0
 21 27  1  0  0  0  0
 21 28  1  0  0  0  0
 30 35  1  0  0  0  0
  8 13  1  0  0  0  0
 18 26  1  0  0  0  0
 39 41  1  0  0  0  0
  7 12  1  0  0  0  0
 29 34  1  0  0  0  0
 17 25  1  0  0  0  0
M  CHG  1  23  -1
M  END
$$$$

  -OEChem-02062319033D

 44 43  0     1  0  0  0  0  0999 V2000
   -4.0256   -1.8030   -2.1581 C   0  0  0  0  0  0  0  0  0  0  0  0
   -3.7513   -2.6782   -2.9709 O   0  0  0  0  0  0  0  0  0  0  0  0
   -5.3491   -1.1169   -2.2339 C   0  0  0  0  0  0  0  0  0  0  0  0
   -5.3223   -0.2211   -2.8750 H   0  0  0  0  0  0  0  0  0  0  0  0
   -6.1322   -1.7605   -2.6658 H   0  0  0  0  0  0  0  0  0  0  0  0
   -5.7568   -0.7715   -1.2704 H   0  0  0  0  0  0  0  0  0  0  0  0
   -3.2124   -1.3578   -1.1289 N   0  0  0  0  0  0  0  0  0  0  0  0
   -1.8971   -1.8843   -0.8752 C   0  0  2  0  0  0  0  0  0  0  0  0
   -1.2676   -1.0599    0.2399 C   0  0  0  0  0  0  0  0  0  0  0  0
   -1.6270    0.0833    0.5138 O   0  0  0  0  0  0  0  0  0  0  0  0
   -1.0364   -1.8506   -2.1285 C   0  0  0  0  0  0  0  0  0  0  0  0
   -3.5631   -0.6202   -0.5206 H   0  0  0  0  0  0  0  0  0  0  0  0
   -2.0301   -2.9174   -0.5360 H   0  0  0  0  0  0  0  0  0  0  0  0
   -0.8921   -0.8236   -2.4833 H   0  0  0  0  0  0  0  0  0  0  0  0
   -0.0457   -2.2777   -1.9410 H   0  0  0  0  0  0  0  0  0  0  0  0
   -1.5052   -2.4193   -2.9387 H   0  0  0  0  0  0  0  0  0  0  0  0
   -0.2267   -1.7335    0.8672 N   0  0  0  0  0  0  0  0  0  0  0  0
    0.3196   -1.3186    2.1346 C   0  0  2  0  0  0  0  0  0  0  0  0
    0.8538    0.0975    1.9526 C   0  0  0  0  0  0  0  0  0  0  0  0
    0.6851    0.9894    2.7817 O   0  0  0  0  0  0  0  0  0  0  0  0
    1.4299   -2.2539    2.6079 C   0  0  0  0  0  0  0  0  0  0  0  0
    1.0003   -3.6665    3.0240 C   0  0  0  0  0  0  0  0  0  0  0  0
   -0.1794   -3.7351    3.4763 O   0  5  0  0  0  0  0  0  0  0  0  0
    1.8554   -4.5826    2.8809 O   0  0  0  0  0  0  0  0  0  0  0  0
    0.1467   -2.5780    0.4403 H   0  0  0  0  0  0  0  0  0  0  0  0
   -0.5135   -1.3007    2.8464 H   0  0  0  0  0  0  0  0  0  0  0  0
    1.9596   -1.7989    3.4560 H   0  0  0  0  0  0  0  0  0  0  0  0
    2.1728   -2.3792    1.8093 H   0  0  0  0  0  0  0  0  0  0  0  0
    1.5846    0.2328    0.7805 N   0  0  0  0  0  0  0  0  0  0  0  0
    2.2219    1.4702    0.3946 C   0  0  2  0  0  0  0  0  0  0  0  0
    2.2355    1.5377   -1.1268 C   0  0  0  0  0  0  0  0  0  0  0  0
    2.1518    0.5423   -1.8432 O   0  0  0  0  0  0  0  0  0  0  0  0
    3.6322    1.5647    0.9555 C   0  0  0  0  0  0  0  0  0  0  0  0
    1.7127   -0.5735    0.1760 H   0  0  0  0  0  0  0  0  0  0  0  0
    1.6025    2.2821    0.7912 H   0  0  0  0  0  0  0  0  0  0  0  0
    4.2677    0.7594    0.5694 H   0  0  0  0  0  0  0  0  0  0  0  0
    4.1035    2.5157    0.6861 H   0  0  0  0  0  0  0  0  0  0  0  0
    3.6232    1.4861    2.0480 H   0  0  0  0  0  0  0  0  0  0  0  0
    2.3956    2.8361   -1.5902 N   0  0  0  0  0  0  0  0  0  0  0  0
    2.4524    3.1606   -2.9964 C   0  0  0  0  0  0  0  0  0  0  0  0
    2.4377    3.6025   -0.9249 H   0  0  0  0  0  0  0  0  0  0  0  0
    3.5006    3.1656   -3.3301 H   0  0  0  0  0  0  0  0  0  0  0  0
    1.8891    2.4091   -3.5691 H   0  0  0  0  0  0  0  0  0  0  0  0
    2.0105    4.1543   -3.1615 H   0  0  0  0  0  0  0  0  0  0  0  0
  1  3  1  0  0  0  0
  1  7  1  0  0  0  0
  1  2  2  0  0  0  0
 30 31  1  0  0  0  0
 31 39  1  0  0  0  0
 31 32  2  0  0  0  0
  8  9  1  0  0  0  0
  9 17  1  0  0  0  0
  9 10  2  0  0  0  0
 18 19  1  0  0  0  0
 19 29  1  0  0  0  0
 19 20  2  0  0  0  0
 21 22  1  0  0  0  0
 22 23  1  0  0  0  0
 22 24  2  0  0  0  0
 30 33  1  0  0  0  0
  8 11  1  0  0  0  0
 39 40  1  0  0  0  0
 18 21  1  0  0  0  0
 29 30  1  0  0  0  0
  7  8  1  0  0  0  0
 17 18  1  0  0  0  0
  3  4  1  0  0  0  0
  3  5  1  0  0  0  0
  3  6  1  0  0  0  0
 33 36  1  0  0  0  0
 33 37  1  0  0  0  0
 33 38  1  0  0  0  0
 11 14  1  0  0  0  0
 11 15  1  0  0  0  0
 11 16  1  0  0  0  0
 40 42  1  0  0  0  0
 40 43  1  0  0  0  0
 40 44  1  0  0  0  0
 21 27  1  0  0  0  0
 21 28  1  0  0  0  0
 30 35  1  0  0  0  0
  8 13  1  0  0  0  0
 18 26  1  0  0  0  0
 39 41  1  0  0  0  0
  7 12  1  0  0  0  0
 29 34  1  0  0  0  0
 17 25  1  0  0  0  0
M  CHG  1  23  -1
M  END
$$$$

  -OEChem-02062319033D

 44 43  0     1  0  0  0  0  0999 V2000
   -4.0256   -1.8030   -2.1581 C   0  0  0  0  0  0  0  0  0  0  0  0
   -3.7513   -2.6782   -2.9709 O   0  0  0  0  0  0  0  0  0  0  0  0
   -5.3491   -1.1169   -2.2339 C   0  0  0  0  0  0  0  0  0  0  0  0
   -5.3223   -0.2211   -2.8750 H   0  0  0  0  0  0  0  0  0  0  0  0
   -6.1322   -1.7605   -2.6658 H   0  0  0  0  0  0  0  0  0  0  0  0
   -5.7568   -0.7715   -1.2704 H   0  0  0  0  0  0  0  0  0  0  0  0
   -3.2124   -1.3578   -1.1289 N   0  0  0  0  0  0  0  0  0  0  0  0
   -1.8971   -1.8843   -0.8752 C   0  0  2  0  0  0  0  0  0  0  0  0
   -1.2676   -1.0599    0.2399 C   0  0  0  0  0  0  0  0  0  0  0  0
   -1.6270    0.0833    0.5138 O   0  0  0  0  0  0  0  0  0  0  0  0
   -1.0364   -1.8506   -2.1285 C   0  0  0  0  0  0  0  0  0  0  0  0
   -3.5631   -0.6202   -0.5206 H   0  0  0  0  0  0  0  0  0  0  0  0
   -2.0301   -2.9174   -0.5360 H   0  0  0  0  0  0  0  0  0  0  0  0
   -0.8921   -0.8236   -2.4833 H   0  0  0  0  0  0  0  0  0  0  0  0
   -0.0457   -2.2777   -1.9410 H   0  0  0  0  0  0  0  0  0  0  0  0
   -1.5052   -2.4193   -2.9387 H   0  0  0  0  0  0  0  0  0  0  0  0
   -0.2267   -1.7335    0.8672 N   0  0  0  0  0  0  0  0  0  0  0  0
    0.1134   -1.5275    2.2525 C   0  0  2  0  0  0  0  0  0  0  0  0
    0.4773   -0.0559    2.4125 C   0  0  0  0  0  0  0  0  0  0  0  0
    0.1015    0.6282    3.3623 O   0  0  0  0  0  0  0  0  0  0  0  0
    1.2740   -2.4178    2.6906 C   0  0  0  0  0  0  0  0  0  0  0  0
    0.9859   -3.9222    2.7732 C   0  0  0  0  0  0  0  0  0  0  0  0
   -0.2188   -4.2033    3.0389 O   0  5  0  0  0  0  0  0  0  0  0  0
    1.9629   -4.6963    2.5804 O   0  0  0  0  0  0  0  0  0  0  0  0
    0.2989   -2.4310    0.3456 H   0  0  0  0  0  0  0  0  0  0  0  0
   -0.7906   -1.7404    2.8341 H   0  0  0  0  0  0  0  0  0  0  0  0
    1.6404   -2.0900    3.6731 H   0  0  0  0  0  0  0  0  0  0  0  0
    2.1130   -2.3014    1.9921 H   0  0  0  0  0  0  0  0  0  0  0  0
    1.3133    0.3882    1.3976 N   0  0  0  0  0  0  0  0  0  0  0  0
    1.8251    1.7377    1.3402 C   0  0  2  0  0  0  0  0  0  0  0  0
    2.0032    2.1112   -0.1255 C   0  0  0  0  0  0  0  0  0  0  0  0
    2.1310    1.2772   -1.0195 O   0  0  0  0  0  0  0  0  0  0  0  0
    3.1383    1.8641    2.0967 C   0  0  0  0  0  0  0  0  0  0  0  0
    1.6125   -0.2620    0.6767 H   0  0  0  0  0  0  0  0  0  0  0  0
    1.0649    2.3838    1.7925 H   0  0  0  0  0  0  0  0  0  0  0  0
    3.9123    1.2239    1.6580 H   0  0  0  0  0  0  0  0  0  0  0  0
    3.5104    2.8937    2.0764 H   0  0  0  0  0  0  0  0  0  0  0  0
    3.0151    1.5666    3.1437 H   0  0  0  0  0  0  0  0  0  0  0  0
    2.0460    3.4857   -0.3124 N   0  0  0  0  0  0  0  0  0  0  0  0
    2.2202    4.0908   -1.6122 C   0  0  0  0  0  0  0  0  0  0  0  0
    1.9125    4.1026    0.4835 H   0  0  0  0  0  0  0  0  0  0  0  0
    3.2901    4.2724   -1.7922 H   0  0  0  0  0  0  0  0  0  0  0  0
    1.8277    3.4153   -2.3865 H   0  0  0  0  0  0  0  0  0  0  0  0
    1.6753    5.0457   -1.6480 H   0  0  0  0  0  0  0  0  0  0  0  0
  1  3  1  0  0  0  0
  1  7  1  0  0  0  0
  1  2  2  0  0  0  0
 30 31  1  0  0  0  0
 31 39  1  0  0  0  0
 31 32  2  0  0  0  0
  8  9  1  0  0  0  0
  9 17  1  0  0  0  0
  9 10  2  0  0  0  0
 18 19  1  0  0  0  0
 19 29  1  0  0  0  0
 19 20  2  0  0  0  0
 21 22  1  0  0  0  0
 22 23  1  0  0  0  0
 22 24  2  0  0  0  0
 30 33  1  0  0  0  0
  8 11  1  0  0  0  0
 39 40  1  0  0  0  0
 18 21  1  0  0  0  0
 29 30  1  0  0  0  0
  7  8  1  0  0  0  0
 17 18  1  0  0  0  0
  3  4  1  0  0  0  0
  3  5  1  0  0  0  0
  3  6  1  0  0  0  0
 33 36  1  0  0  0  0
 33 37  1  0  0  0  0
 33 38  1  0  0  0  0
 11 14  1  0  0  0  0
 11 15  1  0  0  0  0
 11 16  1  0  0  0  0
 40 42  1  0  0  0  0
 40 43  1  0  0  0  0
 40 44  1  0  0  0  0
 21 27  1  0  0  0  0
 21 28  1  0  0  0  0
 30 35  1  0  0  0  0
  8 13  1  0  0  0  0
 18 26  1  0  0  0  0
 39 41  1  0  0  0  0
  7 12  1  0  0  0  0
 29 34  1  0  0  0  0
 17 25  1  0  0  0  0
M  CHG  1  23  -1
M  END
$$$$

  -OEChem-02062319033D

 44 43  0     1  0  0  0  0  0999 V2000
   -4.0256   -1.8030   -2.1581 C   0  0  0  0  0  0  0  0  0  0  0  0
   -3.7513   -2.6782   -2.9709 O   0  0  0  0  0  0  0  0  0  0  0  0
   -5.3491   -1.1169   -2.2339 C   0  0  0  0  0  0  0  0  0  0  0  0
   -5.3223   -0.2211   -2.8750 H   0  0  0  0  0  0  0  0  0  0  0  0
   -6.1322   -1.7605   -2.6658 H   0  0  0  0  0  0  0  0  0  0  0  0
   -5.7568   -0.7715   -1.2704 H   0  0  0  0  0  0  0  0  0  0  0  0
   -3.2124   -1.3578   -1.1289 N   0  0  0  0  0  0  0  0  0  0  0  0
   -1.8971   -1.8843   -0.8752 C   0  0  2  0  0  0  0  0  0  0  0  0
   -1.2676   -1.0599    0.2399 C   0  0  0  0  0  0  0  0  0  0  0  0
   -1.6270    0.0833    0.5138 O   0  0  0  0  0  0  0  0  0  0  0  0
   -1.0364   -1.8506   -2.1285 C   0  0  0  0  0  0  0  0  0  0  0  0
   -3.5631   -0.6202   -0.5206 H   0  0  0  0  0  0  0  0  0  0  0  0
   -2.0301   -2.9174   -0.5360 H   0  0  0  0  0  0  0  0  0  0  0  0
   -0.8921   -0.8236   -2.4833 H   0  0  0  0  0  0  0  0  0  0  0  0
   -0.0457   -2.2777   -1.9410 H   0  0  0  0  0  0  0  0  0  0  0  0
   -1.5052   -2.4193   -2.9387 H   0  0  0  0  0  0  0  0  0  0  0  0
   -0.2267   -1.7335    0.8672 N   0  0  0  0  0  0  0  0  0  0  0  0
   -0.0762   -1.7763    2.2999 C   0  0  2  0  0  0  0  0  0  0  0  0
    0.0739   -0.3372    2.7798 C   0  0  0  0  0  0  0  0  0  0  0  0
   -0.4929    0.0985    3.7798 O   0  0  0  0  0  0  0  0  0  0  0  0
    1.1322   -2.6103    2.7192 C   0  0  0  0  0  0  0  0  0  0  0  0
    1.0334   -4.1223    2.4796 C   0  0  0  0  0  0  0  0  0  0  0  0
   -0.1473   -4.5753    2.5206 O   0  5  0  0  0  0  0  0  0  0  0  0
    2.1178   -4.7353    2.2815 O   0  0  0  0  0  0  0  0  0  0  0  0
    0.4406   -2.2529    0.3017 H   0  0  0  0  0  0  0  0  0  0  0  0
   -1.0055   -2.1952    2.7022 H   0  0  0  0  0  0  0  0  0  0  0  0
    1.3387   -2.4506    3.7863 H   0  0  0  0  0  0  0  0  0  0  0  0
    2.0232   -2.2687    2.1762 H   0  0  0  0  0  0  0  0  0  0  0  0
    0.9557    0.3870    1.9897 N   0  0  0  0  0  0  0  0  0  0  0  0
    1.2920    1.7663    2.2555 C   0  0  2  0  0  0  0  0  0  0  0  0
    1.5862    2.4438    0.9236 C   0  0  0  0  0  0  0  0  0  0  0  0
    1.9217    1.8249   -0.0841 O   0  0  0  0  0  0  0  0  0  0  0  0
    2.4830    1.8743    3.1950 C   0  0  0  0  0  0  0  0  0  0  0  0
    1.4166   -0.0699    1.2082 H   0  0  0  0  0  0  0  0  0  0  0  0
    0.4081    2.2251    2.7119 H   0  0  0  0  0  0  0  0  0  0  0  0
    3.3782    1.4200    2.7549 H   0  0  0  0  0  0  0  0  0  0  0  0
    2.7188    2.9200    3.4182 H   0  0  0  0  0  0  0  0  0  0  0  0
    2.2808    1.3609    4.1413 H   0  0  0  0  0  0  0  0  0  0  0  0
    1.4720    3.8246    1.0040 N   0  0  0  0  0  0  0  0  0  0  0  0
    1.7136    4.6938   -0.1239 C   0  0  0  0  0  0  0  0  0  0  0  0
    1.1702    4.2511    1.8750 H   0  0  0  0  0  0  0  0  0  0  0  0
    2.7645    5.0186   -0.1186 H   0  0  0  0  0  0  0  0  0  0  0  0
    1.5025    4.1508   -1.0569 H   0  0  0  0  0  0  0  0  0  0  0  0
    1.0575    5.5741   -0.0554 H   0  0  0  0  0  0  0  0  0  0  0  0
  1  3  1  0  0  0  0
  1  7  1  0  0  0  0
  1  2  2  0  0  0  0
 30 31  1  0  0  0  0
 31 39  1  0  0  0  0
 31 32  2  0  0  0  0
  8  9  1  0  0  0  0
  9 17  1  0  0  0  0
  9 10  2  0  0  0  0
 18 19  1  0  0  0  0
 19 29  1  0  0  0  0
 19 20  2  0  0  0  0
 21 22  1  0  0  0  0
 22 23  1  0  0  0  0
 22 24  2  0  0  0  0
 30 33  1  0  0  0  0
  8 11  1  0  0  0  0
 39 40  1  0  0  0  0
 18 21  1  0  0  0  0
 29 30  1  0  0  0  0
  7  8  1  0  0  0  0
 17 18  1  0  0  0  0
  3  4  1  0  0  0  0
  3  5  1  0  0  0  0
  3  6  1  0  0  0  0
 33 36  1  0  0  0  0
 33 37  1  0  0  0  0
 33 38  1  0  0  0  0
 11 14  1  0  0  0  0
 11 15  1  0  0  0  0
 11 16  1  0  0  0  0
 40 42  1  0  0  0  0
 40 43  1  0  0  0  0
 40 44  1  0  0  0  0
 21 27  1  0  0  0  0
 21 28  1  0  0  0  0
 30 35  1  0  0  0  0
  8 13  1  0  0  0  0
 18 26  1  0  0  0  0
 39 41  1  0  0  0  0
  7 12  1  0  0  0  0
 29 34  1  0  0  0  0
 17 25  1  0  0  0  0
M  CHG  1  23  -1
M  END
$$$$

  -OEChem-02062319033D

 44 43  0     1  0  0  0  0  0999 V2000
   -4.0256   -1.8030   -2.1581 C   0  0  0  0  0  0  0  0  0  0  0  0
   -3.7513   -2.6782   -2.9709 O   0  0  0  0  0  0  0  0  0  0  0  0
   -5.3491   -1.1169   -2.2339 C   0  0  0  0  0  0  0  0  0  0  0  0
   -5.3223   -0.2211   -2.8750 H   0  0  0  0  0  0  0  0  0  0  0  0
   -6.1322   -1.7605   -2.6658 H   0  0  0  0  0  0  0  0  0  0  0  0
   -5.7568   -0.7715   -1.2704 H   0  0  0  0  0  0  0  0  0  0  0  0
   -3.2124   -1.3578   -1.1289 N   0  0  0  0  0  0  0  0  0  0  0  0
   -1.8971   -1.8843   -0.8752 C   0  0  2  0  0  0  0  0  0  0  0  0
   -1.2676   -1.0599    0.2399 C   0  0  0  0  0  0  0  0  0  0  0  0
   -1.6270    0.0833    0.5138 O   0  0  0  0  0  0  0  0  0  0  0  0
   -1.0364   -1.8506   -2.1285 C   0  0  0  0  0  0  0  0  0  0  0  0
   -3.5631   -0.6202   -0.5206 H   0  0  0  0  0  0  0  0  0  0  0  0
   -2.0301   -2.9174   -0.5360 H   0  0  0  0  0  0  0  0  0  0  0  0
   -0.8921   -0.8236   -2.4833 H   0  0  0  0  0  0  0  0  0  0  0  0
   -0.0457   -2.2777   -1.9410 H   0  0  0  0  0  0  0  0  0  0  0  0
   -1.5052   -2.4193   -2.9387 H   0  0  0  0  0  0  0  0  0  0  0  0
   -0.2267   -1.7335    0.8672 N   0  0  0  0  0  0  0  0  0  0  0  0
   -0.2362   -2.0479    2.2737 C   0  0  2  0  0  0  0  0  0  0  0  0
   -0.3290   -0.7273    3.0294 C   0  0  0  0  0  0  0  0  0  0  0  0
   -1.0576   -0.5635    4.0059 O   0  0  0  0  0  0  0  0  0  0  0  0
    1.0141   -2.8183    2.6916 C   0  0  0  0  0  0  0  0  0  0  0  0
    1.1395   -4.2530    2.1632 C   0  0  0  0  0  0  0  0  0  0  0  0
    0.0303   -4.8259    1.9569 O   0  5  0  0  0  0  0  0  0  0  0  0
    2.3094   -4.6969    2.0047 O   0  0  0  0  0  0  0  0  0  0  0  0
    0.5621   -2.0558    0.3117 H   0  0  0  0  0  0  0  0  0  0  0  0
   -1.1433   -2.6340    2.4596 H   0  0  0  0  0  0  0  0  0  0  0  0
    1.0753   -2.8562    3.7879 H   0  0  0  0  0  0  0  0  0  0  0  0
    1.9095   -2.2833    2.3492 H   0  0  0  0  0  0  0  0  0  0  0  0
    0.5361    0.2292    2.5165 N   0  0  0  0  0  0  0  0  0  0  0  0
    0.6589    1.5542    3.0784 C   0  0  2  0  0  0  0  0  0  0  0  0
    1.0129    2.5129    1.9492 C   0  0  0  0  0  0  0  0  0  0  0  0
    1.5382    2.1481    0.8994 O   0  0  0  0  0  0  0  0  0  0  0  0
    1.7110    1.5946    4.1757 C   0  0  0  0  0  0  0  0  0  0  0  0
    1.1382   -0.0103    1.7342 H   0  0  0  0  0  0  0  0  0  0  0  0
   -0.3231    1.8168    3.4868 H   0  0  0  0  0  0  0  0  0  0  0  0
    2.7017    1.3343    3.7854 H   0  0  0  0  0  0  0  0  0  0  0  0
    1.7827    2.5928    4.6201 H   0  0  0  0  0  0  0  0  0  0  0  0
    1.4703    0.8829    4.9728 H   0  0  0  0  0  0  0  0  0  0  0  0
    0.7128    3.8296    2.2692 N   0  0  0  0  0  0  0  0  0  0  0  0
    0.9670    4.9285    1.3671 C   0  0  0  0  0  0  0  0  0  0  0  0
    0.2611    4.0382    3.1547 H   0  0  0  0  0  0  0  0  0  0  0  0
    1.9596    5.3536    1.5767 H   0  0  0  0  0  0  0  0  0  0  0  0
    0.9355    4.5655    0.3292 H   0  0  0  0  0  0  0  0  0  0  0  0
    0.1992    5.7035    1.5079 H   0  0  0  0  0  0  0  0  0  0  0  0
  1  3  1  0  0  0  0
  1  7  1  0  0  0  0
  1  2  2  0  0  0  0
 30 31  1  0  0  0  0
 31 39  1  0  0  0  0
 31 32  2  0  0  0  0
  8  9  1  0  0  0  0
  9 17  1  0  0  0  0
  9 10  2  0  0  0  0
 18 19  1  0  0  0  0
 19 29  1  0  0  0  0
 19 20  2  0  0  0  0
 21 22  1  0  0  0  0
 22 23  1  0  0  0  0
 22 24  2  0  0  0  0
 30 33  1  0  0  0  0
  8 11  1  0  0  0  0
 39 40  1  0  0  0  0
 18 21  1  0  0  0  0
 29 30  1  0  0  0  0
  7  8  1  0  0  0  0
 17 18  1  0  0  0  0
  3  4  1  0  0  0  0
  3  5  1  0  0  0  0
  3  6  1  0  0  0  0
 33 36  1  0  0  0  0
 33 37  1  0  0  0  0
 33 38  1  0  0  0  0
 11 14  1  0  0  0  0
 11 15  1  0  0  0  0
 11 16  1  0  0  0  0
 40 42  1  0  0  0  0
 40 43  1  0  0  0  0
 40 44  1  0  0  0  0
 21 27  1  0  0  0  0
 21 28  1  0  0  0  0
 30 35  1  0  0  0  0
  8 13  1  0  0  0  0
 18 26  1  0  0  0  0
 39 41  1  0  0  0  0
  7 12  1  0  0  0  0
 29 34  1  0  0  0  0
 17 25  1  0  0  0  0
M  CHG  1  23  -1
M  END
$$$$

  -OEChem-02062319033D

 44 43  0     1  0  0  0  0  0999 V2000
   -4.0256   -1.8030   -2.1581 C   0  0  0  0  0  0  0  0  0  0  0  0
   -3.7513   -2.6782   -2.9709 O   0  0  0  0  0  0  0  0  0  0  0  0
   -5.3491   -1.1169   -2.2339 C   0  0  0  0  0  0  0  0  0  0  0  0
   -5.3223   -0.2211   -2.8750 H   0  0  0  0  0  0  0  0  0  0  0  0
   -6.1322   -1.7605   -2.6658 H   0  0  0  0  0  0  0  0  0  0  0  0
   -5.7568   -0.7715   -1.2704 H   0  0  0  0  0  0  0  0  0  0  0  0
   -3.2124   -1.3578   -1.1289 N   0  0  0  0  0  0  0  0  0  0  0  0
   -1.8971   -1.8843   -0.8752 C   0  0  2  0  0  0  0  0  0  0  0  0
   -1.2676   -1.0599    0.2399 C   0  0  0  0  0  0  0  0  0  0  0  0
   -1.6270    0.0833    0.5138 O   0  0  0  0  0  0  0  0  0  0  0  0
   -1.0364   -1.8506   -2.1285 C   0  0  0  0  0  0  0  0  0  0  0  0
   -3.5631   -0.6202   -0.5206 H   0  0  0  0  0  0  0  0  0  0  0  0
   -2.0301   -2.9174   -0.5360 H   0  0  0  0  0  0  0  0  0  0  0  0
   -0.8921   -0.8236   -2.4833 H   0  0  0  0  0  0  0  0  0  0  0  0
   -0.0457   -2.2777   -1.9410 H   0  0  0  0  0  0  0  0  0  0  0  0
   -1.5052   -2.4193   -2.9387 H   0  0  0  0  0  0  0  0  0  0  0  0
   -0.2267   -1.7335    0.8672 N   0  0  0  0  0  0  0  0  0  0  0  0
   -0.3557   -2.3239    2.1756 C   0  0  2  0  0  0  0  0  0  0  0  0
   -0.7039   -1.1996    3.1443 C   0  0  0  0  0  0  0  0  0  0  0  0
   -1.5540   -1.3127    4.0250 O   0  0  0  0  0  0  0  0  0  0  0  0
    0.9278   -3.0278    2.6099 C   0  0  0  0  0  0  0  0  0  0  0  0
    1.2969   -4.3056    1.8455 C   0  0  0  0  0  0  0  0  0  0  0  0
    0.3019   -4.9378    1.3860 O   0  5  0  0  0  0  0  0  0  0  0  0
    2.5248   -4.5838    1.7689 O   0  0  0  0  0  0  0  0  0  0  0  0
    0.6553   -1.8532    0.3747 H   0  0  0  0  0  0  0  0  0  0  0  0
   -1.1947   -3.0269    2.1230 H   0  0  0  0  0  0  0  0  0  0  0  0
    0.8681   -3.2789    3.6778 H   0  0  0  0  0  0  0  0  0  0  0  0
    1.7797   -2.3442    2.4992 H   0  0  0  0  0  0  0  0  0  0  0  0
    0.0831   -0.0744    2.9422 N   0  0  0  0  0  0  0  0  0  0  0  0
   -0.0312    1.1158    3.7527 C   0  0  2  0  0  0  0  0  0  0  0  0
    0.3224    2.3138    2.8813 C   0  0  0  0  0  0  0  0  0  0  0  0
    1.0066    2.2248    1.8640 O   0  0  0  0  0  0  0  0  0  0  0  0
    0.8750    1.0441    4.9719 C   0  0  0  0  0  0  0  0  0  0  0  0
    0.7963   -0.0872    2.2190 H   0  0  0  0  0  0  0  0  0  0  0  0
   -1.0789    1.1867    4.0644 H   0  0  0  0  0  0  0  0  0  0  0  0
    1.9289    0.9726    4.6794 H   0  0  0  0  0  0  0  0  0  0  0  0
    0.7660    1.9343    5.6001 H   0  0  0  0  0  0  0  0  0  0  0  0
    0.6390    0.1654    5.5817 H   0  0  0  0  0  0  0  0  0  0  0  0
   -0.1799    3.5005    3.3970 N   0  0  0  0  0  0  0  0  0  0  0  0
    0.0314    4.7789    2.7590 C   0  0  0  0  0  0  0  0  0  0  0  0
   -0.7527    3.4781    4.2355 H   0  0  0  0  0  0  0  0  0  0  0  0
    0.9303    5.2544    3.1782 H   0  0  0  0  0  0  0  0  0  0  0  0
    0.1655    4.6310    1.6773 H   0  0  0  0  0  0  0  0  0  0  0  0
   -0.8412    5.4251    2.9353 H   0  0  0  0  0  0  0  0  0  0  0  0
  1  3  1  0  0  0  0
  1  7  1  0  0  0  0
  1  2  2  0  0  0  0
 30 31  1  0  0  0  0
 31 39  1  0  0  0  0
 31 32  2  0  0  0  0
  8  9  1  0  0  0  0
  9 17  1  0  0  0  0
  9 10  2  0  0  0  0
 18 19  1  0  0  0  0
 19 29  1  0  0  0  0
 19 20  2  0  0  0  0
 21 22  1  0  0  0  0
 22 23  1  0  0  0  0
 22 24  2  0  0  0  0
 30 33  1  0  0  0  0
  8 11  1  0  0  0  0
 39 40  1  0  0  0  0
 18 21  1  0  0  0  0
 29 30  1  0  0  0  0
  7  8  1  0  0  0  0
 17 18  1  0  0  0  0
  3  4  1  0  0  0  0
  3  5  1  0  0  0  0
  3  6  1  0  0  0  0
 33 36  1  0  0  0  0
 33 37  1  0  0  0  0
 33 38  1  0  0  0  0
 11 14  1  0  0  0  0
 11 15  1  0  0  0  0
 11 16  1  0  0  0  0
 40 42  1  0  0  0  0
 40 43  1  0  0  0  0
 40 44  1  0  0  0  0
 21 27  1  0  0  0  0
 21 28  1  0  0  0  0
 30 35  1  0  0  0  0
  8 13  1  0  0  0  0
 18 26  1  0  0  0  0
 39 41  1  0  0  0  0
  7 12  1  0  0  0  0
 29 34  1  0  0  0  0
 17 25  1  0  0  0  0
M  CHG  1  23  -1
M  END
$$$$

  -OEChem-02062319033D

 44 43  0     1  0  0  0  0  0999 V2000
   -4.0256   -1.8030   -2.1581 C   0  0  0  0  0  0  0  0  0  0  0  0
   -3.7513   -2.6782   -2.9709 O   0  0  0  0  0  0  0  0  0  0  0  0
   -5.3491   -1.1169   -2.2339 C   0  0  0  0  0  0  0  0  0  0  0  0
   -5.3223   -0.2211   -2.8750 H   0  0  0  0  0  0  0  0  0  0  0  0
   -6.1322   -1.7605   -2.6658 H   0  0  0  0  0  0  0  0  0  0  0  0
   -5.7568   -0.7715   -1.2704 H   0  0  0  0  0  0  0  0  0  0  0  0
   -3.2124   -1.3578   -1.1289 N   0  0  0  0  0  0  0  0  0  0  0  0
   -1.8971   -1.8843   -0.8752 C   0  0  2  0  0  0  0  0  0  0  0  0
   -1.2676   -1.0599    0.2399 C   0  0  0  0  0  0  0  0  0  0  0  0
   -1.6270    0.0833    0.5138 O   0  0  0  0  0  0  0  0  0  0  0  0
   -1.0364   -1.8506   -2.1285 C   0  0  0  0  0  0  0  0  0  0  0  0
   -3.5631   -0.6202   -0.5206 H   0  0  0  0  0  0  0  0  0  0  0  0
   -2.0301   -2.9174   -0.5360 H   0  0  0  0  0  0  0  0  0  0  0  0
   -0.8921   -0.8236   -2.4833 H   0  0  0  0  0  0  0  0  0  0  0  0
   -0.0457   -2.2777   -1.9410 H   0  0  0  0  0  0  0  0  0  0  0  0
   -1.5052   -2.4193   -2.9387 H   0  0  0  0  0  0  0  0  0  0  0  0
   -0.2267   -1.7335    0.8672 N   0  0  0  0  0  0  0  0  0  0  0  0
   -0.4266   -2.5854    2.0124 C   0  0  2  0  0  0  0  0  0  0  0  0
   -1.0252   -1.7218    3.1167 C   0  0  0  0  0  0  0  0  0  0  0  0
   -1.9484   -2.0982    3.8360 O   0  0  0  0  0  0  0  0  0  0  0  0
    0.8792   -3.2243    2.4795 C   0  0  0  0  0  0  0  0  0  0  0  0
    1.4950   -4.2763    1.5482 C   0  0  0  0  0  0  0  0  0  0  0  0
    0.6489   -4.9036    0.8470 O   0  5  0  0  0  0  0  0  0  0  0  0
    2.7491   -4.4036    1.5900 O   0  0  0  0  0  0  0  0  0  0  0  0
    0.7137   -1.6588    0.4866 H   0  0  0  0  0  0  0  0  0  0  0  0
   -1.1562   -3.3471    1.7152 H   0  0  0  0  0  0  0  0  0  0  0  0
    0.7311   -3.6902    3.4634 H   0  0  0  0  0  0  0  0  0  0  0  0
    1.6427   -2.4473    2.6159 H   0  0  0  0  0  0  0  0  0  0  0  0
   -0.3724   -0.5030    3.2377 N   0  0  0  0  0  0  0  0  0  0  0  0
   -0.7311    0.4810    4.2323 C   0  0  2  0  0  0  0  0  0  0  0  0
   -0.4384    1.8602    3.6565 C   0  0  0  0  0  0  0  0  0  0  0  0
    0.3631    2.0497    2.7438 O   0  0  0  0  0  0  0  0  0  0  0  0
    0.0318    0.2604    5.5293 C   0  0  0  0  0  0  0  0  0  0  0  0
    0.4142   -0.2954    2.6294 H   0  0  0  0  0  0  0  0  0  0  0  0
   -1.8079    0.3778    4.4053 H   0  0  0  0  0  0  0  0  0  0  0  0
    1.1126    0.3597    5.3758 H   0  0  0  0  0  0  0  0  0  0  0  0
   -0.2621    0.9895    6.2915 H   0  0  0  0  0  0  0  0  0  0  0  0
   -0.1566   -0.7429    5.9264 H   0  0  0  0  0  0  0  0  0  0  0  0
   -1.1451    2.8596    4.3105 N   0  0  0  0  0  0  0  0  0  0  0  0
   -1.0296    4.2552    3.9571 C   0  0  0  0  0  0  0  0  0  0  0  0
   -1.8020    2.6091    5.0436 H   0  0  0  0  0  0  0  0  0  0  0  0
   -0.2533    4.7278    4.5768 H   0  0  0  0  0  0  0  0  0  0  0  0
   -0.7551    4.3430    2.8956 H   0  0  0  0  0  0  0  0  0  0  0  0
   -1.9927    4.7579    4.1296 H   0  0  0  0  0  0  0  0  0  0  0  0
  1  3  1  0  0  0  0
  1  7  1  0  0  0  0
  1  2  2  0  0  0  0
 30 31  1  0  0  0  0
 31 39  1  0  0  0  0
 31 32  2  0  0  0  0
  8  9  1  0  0  0  0
  9 17  1  0  0  0  0
  9 10  2  0  0  0  0
 18 19  1  0  0  0  0
 19 29  1  0  0  0  0
 19 20  2  0  0  0  0
 21 22  1  0  0  0  0
 22 23  1  0  0  0  0
 22 24  2  0  0  0  0
 30 33  1  0  0  0  0
  8 11  1  0  0  0  0
 39 40  1  0  0  0  0
 18 21  1  0  0  0  0
 29 30  1  0  0  0  0
  7  8  1  0  0  0  0
 17 18  1  0  0  0  0
  3  4  1  0  0  0  0
  3  5  1  0  0  0  0
  3  6  1  0  0  0  0
 33 36  1  0  0  0  0
 33 37  1  0  0  0  0
 33 38  1  0  0  0  0
 11 14  1  0  0  0  0
 11 15  1  0  0  0  0
 11 16  1  0  0  0  0
 40 42  1  0  0  0  0
 40 43  1  0  0  0  0
 40 44  1  0  0  0  0
 21 27  1  0  0  0  0
 21 28  1  0  0  0  0
 30 35  1  0  0  0  0
  8 13  1  0  0  0  0
 18 26  1  0  0  0  0
 39 41  1  0  0  0  0
  7 12  1  0  0  0  0
 29 34  1  0  0  0  0
 17 25  1  0  0  0  0
M  CHG  1  23  -1
M  END
$$$$

  -OEChem-02062319033D

 44 43  0     1  0  0  0  0  0999 V2000
   -4.0256   -1.8030   -2.1581 C   0  0  0  0  0  0  0  0  0  0  0  0
   -3.7513   -2.6782   -2.9709 O   0  0  0  0  0  0  0  0  0  0  0  0
   -5.3491   -1.1169   -2.2339 C   0  0  0  0  0  0  0  0  0  0  0  0
   -5.3223   -0.2211   -2.8750 H   0  0  0  0  0  0  0  0  0  0  0  0
   -6.1322   -1.7605   -2.6658 H   0  0  0  0  0  0  0  0  0  0  0  0
   -5.7568   -0.7715   -1.2704 H   0  0  0  0  0  0  0  0  0  0  0  0
   -3.2124   -1.3578   -1.1289 N   0  0  0  0  0  0  0  0  0  0  0  0
   -1.8971   -1.8843   -0.8752 C   0  0  2  0  0  0  0  0  0  0  0  0
   -1.2676   -1.0599    0.2399 C   0  0  0  0  0  0  0  0  0  0  0  0
   -1.6270    0.0833    0.5138 O   0  0  0  0  0  0  0  0  0  0  0  0
   -1.0364   -1.8506   -2.1285 C   0  0  0  0  0  0  0  0  0  0  0  0
   -3.5631   -0.6202   -0.5206 H   0  0  0  0  0  0  0  0  0  0  0  0
   -2.0301   -2.9174   -0.5360 H   0  0  0  0  0  0  0  0  0  0  0  0
   -0.8921   -0.8236   -2.4833 H   0  0  0  0  0  0  0  0  0  0  0  0
   -0.0457   -2.2777   -1.9410 H   0  0  0  0  0  0  0  0  0  0  0  0
   -1.5052   -2.4193   -2.9387 H   0  0  0  0  0  0  0  0  0  0  0  0
   -0.2267   -1.7335    0.8672 N   0  0  0  0  0  0  0  0  0  0  0  0
   -0.4440   -2.8147    1.7951 C   0  0  2  0  0  0  0  0  0  0  0  0
   -1.2711   -2.2585    2.9485 C   0  0  0  0  0  0  0  0  0  0  0  0
   -2.2139   -2.8663    3.4516 O   0  0  0  0  0  0  0  0  0  0  0  0
    0.8716   -3.3946    2.3094 C   0  0  0  0  0  0  0  0  0  0  0  0
    1.7202   -4.1673    1.2915 C   0  0  0  0  0  0  0  0  0  0  0  0
    1.0477   -4.7254    0.3765 O   0  5  0  0  0  0  0  0  0  0  0  0
    2.9673   -4.1687    1.4803 O   0  0  0  0  0  0  0  0  0  0  0  0
    0.7333   -1.4859    0.6397 H   0  0  0  0  0  0  0  0  0  0  0  0
   -1.0304   -3.5729    1.2640 H   0  0  0  0  0  0  0  0  0  0  0  0
    0.6738   -4.0619    3.1594 H   0  0  0  0  0  0  0  0  0  0  0  0
    1.5076   -2.5855    2.6915 H   0  0  0  0  0  0  0  0  0  0  0  0
   -0.7993   -1.0276    3.3828 N   0  0  0  0  0  0  0  0  0  0  0  0
   -1.3932   -0.3070    4.4848 C   0  0  2  0  0  0  0  0  0  0  0  0
   -1.2174    1.1828    4.2217 C   0  0  0  0  0  0  0  0  0  0  0  0
   -0.3485    1.6349    3.4790 O   0  0  0  0  0  0  0  0  0  0  0  0
   -0.7610   -0.7033    5.8099 C   0  0  0  0  0  0  0  0  0  0  0  0
    0.0180   -0.6207    2.9375 H   0  0  0  0  0  0  0  0  0  0  0  0
   -2.4602   -0.5548    4.4863 H   0  0  0  0  0  0  0  0  0  0  0  0
    0.3083   -0.4627    5.8272 H   0  0  0  0  0  0  0  0  0  0  0  0
   -1.2316   -0.1773    6.6471 H   0  0  0  0  0  0  0  0  0  0  0  0
   -0.8622   -1.7801    5.9834 H   0  0  0  0  0  0  0  0  0  0  0  0
   -2.1173    1.9506    4.9475 N   0  0  0  0  0  0  0  0  0  0  0  0
   -2.1435    3.3931    4.8798 C   0  0  0  0  0  0  0  0  0  0  0  0
   -2.8156    1.4905    5.5241 H   0  0  0  0  0  0  0  0  0  0  0  0
   -1.5105    3.8097    5.6771 H   0  0  0  0  0  0  0  0  0  0  0  0
   -1.7635    3.7210    3.9010 H   0  0  0  0  0  0  0  0  0  0  0  0
   -3.1768    3.7474    5.0093 H   0  0  0  0  0  0  0  0  0  0  0  0
  1  3  1  0  0  0  0
  1  7  1  0  0  0  0
  1  2  2  0  0  0  0
 30 31  1  0  0  0  0
 31 39  1  0  0  0  0
 31 32  2  0  0  0  0
  8  9  1  0  0  0  0
  9 17  1  0  0  0  0
  9 10  2  0  0  0  0
 18 19  1  0  0  0  0
 19 29  1  0  0  0  0
 19 20  2  0  0  0  0
 21 22  1  0  0  0  0
 22 23  1  0  0  0  0
 22 24  2  0  0  0  0
 30 33  1  0  0  0  0
  8 11  1  0  0  0  0
 39 40  1  0  0  0  0
 18 21  1  0  0  0  0
 29 30  1  0  0  0  0
  7  8  1  0  0  0  0
 17 18  1  0  0  0  0
  3  4  1  0  0  0  0
  3  5  1  0  0  0  0
  3  6  1  0  0  0  0
 33 36  1  0  0  0  0
 33 37  1  0  0  0  0
 33 38  1  0  0  0  0
 11 14  1  0  0  0  0
 11 15  1  0  0  0  0
 11 16  1  0  0  0  0
 40 42  1  0  0  0  0
 40 43  1  0  0  0  0
 40 44  1  0  0  0  0
 21 27  1  0  0  0  0
 21 28  1  0  0  0  0
 30 35  1  0  0  0  0
  8 13  1  0  0  0  0
 18 26  1  0  0  0  0
 39 41  1  0  0  0  0
  7 12  1  0  0  0  0
 29 34  1  0  0  0  0
 17 25  1  0  0  0  0
M  CHG  1  23  -1
M  END
$$$$

  -OEChem-02062319033D

 44 43  0     1  0  0  0  0  0999 V2000
   -4.0256   -1.8030   -2.1581 C   0  0  0  0  0  0  0  0  0  0  0  0
   -3.7513   -2.6782   -2.9709 O   0  0  0  0  0  0  0  0  0  0  0  0
   -5.3491   -1.1169   -2.2339 C   0  0  0  0  0  0  0  0  0  0  0  0
   -5.3223   -0.2211   -2.8750 H   0  0  0  0  0  0  0  0  0  0  0  0
   -6.1322   -1.7605   -2.6658 H   0  0  0  0  0  0  0  0  0  0  0  0
   -5.7568   -0.7715   -1.2704 H   0  0  0  0  0  0  0  0  0  0  0  0
   -3.2124   -1.3578   -1.1289 N   0  0  0  0  0  0  0  0  0  0  0  0
   -1.8971   -1.8843   -0.8752 C   0  0  2  0  0  0  0  0  0  0  0  0
   -1.2676   -1.0599    0.2399 C   0  0  0  0  0  0  0  0  0  0  0  0
   -1.6270    0.0833    0.5138 O   0  0  0  0  0  0  0  0  0  0  0  0
   -1.0364   -1.8506   -2.1285 C   0  0  0  0  0  0  0  0  0  0  0  0
   -3.5631   -0.6202   -0.5206 H   0  0  0  0  0  0  0  0  0  0  0  0
   -2.0301   -2.9174   -0.5360 H   0  0  0  0  0  0  0  0  0  0  0  0
   -0.8921   -0.8236   -2.4833 H   0  0  0  0  0  0  0  0  0  0  0  0
   -0.0457   -2.2777   -1.9410 H   0  0  0  0  0  0  0  0  0  0  0  0
   -1.5052   -2.4193   -2.9387 H   0  0  0  0  0  0  0  0  0  0  0  0
   -0.2267   -1.7335    0.8672 N   0  0  0  0  0  0  0  0  0  0  0  0
   -0.4068   -2.9960    1.5386 C   0  0  2  0  0  0  0  0  0  0  0  0
   -1.4249   -2.7730    2.6510 C   0  0  0  0  0  0  0  0  0  0  0  0
   -2.3323   -3.5647    2.8980 O   0  0  0  0  0  0  0  0  0  0  0  0
    0.9054   -3.5269    2.1110 C   0  0  0  0  0  0  0  0  0  0  0  0
    1.9572   -3.9859    1.0930 C   0  0  0  0  0  0  0  0  0  0  0  0
    1.4712   -4.4155    0.0067 O   0  5  0  0  0  0  0  0  0  0  0  0
    3.1643   -3.8950    1.4473 O   0  0  0  0  0  0  0  0  0  0  0  0
    0.7129   -1.3462    0.8236 H   0  0  0  0  0  0  0  0  0  0  0  0
   -0.8260   -3.6888    0.8002 H   0  0  0  0  0  0  0  0  0  0  0  0
    0.7000   -4.3686    2.7865 H   0  0  0  0  0  0  0  0  0  0  0  0
    1.3839   -2.7494    2.7208 H   0  0  0  0  0  0  0  0  0  0  0  0
   -1.1686   -1.6123    3.3677 N   0  0  0  0  0  0  0  0  0  0  0  0
   -1.9723   -1.1944    4.4928 C   0  0  2  0  0  0  0  0  0  0  0  0
   -1.9617    0.3279    4.5387 C   0  0  0  0  0  0  0  0  0  0  0  0
   -1.0795    1.0085    4.0194 O   0  0  0  0  0  0  0  0  0  0  0  0
   -1.4493   -1.7811    5.7947 C   0  0  0  0  0  0  0  0  0  0  0  0
   -0.3654   -1.0410    3.1223 H   0  0  0  0  0  0  0  0  0  0  0  0
   -2.9916   -1.5475    4.3019 H   0  0  0  0  0  0  0  0  0  0  0  0
   -0.4291   -1.4386    6.0028 H   0  0  0  0  0  0  0  0  0  0  0  0
   -2.0763   -1.4866    6.6427 H   0  0  0  0  0  0  0  0  0  0  0  0
   -1.4297   -2.8753    5.7489 H   0  0  0  0  0  0  0  0  0  0  0  0
   -3.0301    0.8355    5.2646 N   0  0  0  0  0  0  0  0  0  0  0  0
   -3.2346    2.2513    5.4640 C   0  0  0  0  0  0  0  0  0  0  0  0
   -3.7241    0.1983    5.6441 H   0  0  0  0  0  0  0  0  0  0  0  0
   -2.7557    2.5627    6.4041 H   0  0  0  0  0  0  0  0  0  0  0  0
   -2.7910    2.8075    4.6250 H   0  0  0  0  0  0  0  0  0  0  0  0
   -4.3130    2.4623    5.5146 H   0  0  0  0  0  0  0  0  0  0  0  0
  1  3  1  0  0  0  0
  1  7  1  0  0  0  0
  1  2  2  0  0  0  0
 30 31  1  0  0  0  0
 31 39  1  0  0  0  0
 31 32  2  0  0  0  0
  8  9  1  0  0  0  0
  9 17  1  0  0  0  0
  9 10  2  0  0  0  0
 18 19  1  0  0  0  0
 19 29  1  0  0  0  0
 19 20  2  0  0  0  0
 21 22  1  0  0  0  0
 22 23  1  0  0  0  0
 22 24  2  0  0  0  0
 30 33  1  0  0  0  0
  8 11  1  0  0  0  0
 39 40  1  0  0  0  0
 18 21  1  0  0  0  0
 29 30  1  0  0  0  0
  7  8  1  0  0  0  0
 17 18  1  0  0  0  0
  3  4  1  0  0  0  0
  3  5  1  0  0  0  0
  3  6  1  0  0  0  0
 33 36  1  0  0  0  0
 33 37  1  0  0  0  0
 33 38  1  0  0  0  0
 11 14  1  0  0  0  0
 11 15  1  0  0  0  0
 11 16  1  0  0  0  0
 40 42  1  0  0  0  0
 40 43  1  0  0  0  0
 40 44  1  0  0  0  0
 21 27  1  0  0  0  0
 21 28  1  0  0  0  0
 30 35  1  0  0  0  0
  8 13  1  0  0  0  0
 18 26  1  0  0  0  0
 39 41  1  0  0  0  0
  7 12  1  0  0  0  0
 29 34  1  0  0  0  0
 17 25  1  0  0  0  0
M  CHG  1  23  -1
M  END
$$$$

  -OEChem-02062319033D

 44 43  0     1  0  0  0  0  0999 V2000
   -4.0256   -1.8030   -2.1581 C   0  0  0  0  0  0  0  0  0  0  0  0
   -3.7513   -2.6782   -2.9709 O   0  0  0  0  0  0  0  0  0  0  0  0
   -5.3491   -1.1169   -2.2339 C   0  0  0  0  0  0  0  0  0  0  0  0
   -5.3223   -0.2211   -2.8750 H   0  0  0  0  0  0  0  0  0  0  0  0
   -6.1322   -1.7605   -2.6658 H   0  0  0  0  0  0  0  0  0  0  0  0
   -5.7568   -0.7715   -1.2704 H   0  0  0  0  0  0  0  0  0  0  0  0
   -3.2124   -1.3578   -1.1289 N   0  0  0  0  0  0  0  0  0  0  0  0
   -1.8971   -1.8843   -0.8752 C   0  0  2  0  0  0  0  0  0  0  0  0
   -1.2676   -1.0599    0.2399 C   0  0  0  0  0  0  0  0  0  0  0  0
   -1.6270    0.0833    0.5138 O   0  0  0  0  0  0  0  0  0  0  0  0
   -1.0364   -1.8506   -2.1285 C   0  0  0  0  0  0  0  0  0  0  0  0
   -3.5631   -0.6202   -0.5206 H   0  0  0  0  0  0  0  0  0  0  0  0
   -2.0301   -2.9174   -0.5360 H   0  0  0  0  0  0  0  0  0  0  0  0
   -0.8921   -0.8236   -2.4833 H   0  0  0  0  0  0  0  0  0  0  0  0
   -0.0457   -2.2777   -1.9410 H   0  0  0  0  0  0  0  0  0  0  0  0
   -1.5052   -2.4193   -2.9387 H   0  0  0  0  0  0  0  0  0  0  0  0
   -0.2267   -1.7335    0.8672 N   0  0  0  0  0  0  0  0  0  0  0  0
   -0.3175   -3.1171    1.2604 C   0  0  2  0  0  0  0  0  0  0  0  0
   -1.4759   -3.2302    2.2447 C   0  0  0  0  0  0  0  0  0  0  0  0
   -2.2956   -4.1458    2.2131 O   0  0  0  0  0  0  0  0  0  0  0  0
    0.9785   -3.6123    1.8981 C   0  0  0  0  0  0  0  0  0  0  0  0
    2.1899   -3.7446    0.9662 C   0  0  0  0  0  0  0  0  0  0  0  0
    1.8904   -3.9950   -0.2374 O   0  5  0  0  0  0  0  0  0  0  0  0
    3.3268   -3.6012    1.4932 O   0  0  0  0  0  0  0  0  0  0  0  0
    0.6538   -1.2494    1.0257 H   0  0  0  0  0  0  0  0  0  0  0  0
   -0.5567   -3.6870    0.3554 H   0  0  0  0  0  0  0  0  0  0  0  0
    0.8079   -4.5896    2.3702 H   0  0  0  0  0  0  0  0  0  0  0  0
    1.2798   -2.9279    2.7018 H   0  0  0  0  0  0  0  0  0  0  0  0
   -1.4552   -2.2174    3.1934 N   0  0  0  0  0  0  0  0  0  0  0  0
   -2.4290   -2.1208    4.2558 C   0  0  2  0  0  0  0  0  0  0  0  0
   -2.6205   -0.6464    4.5857 C   0  0  0  0  0  0  0  0  0  0  0  0
   -1.7803    0.2132    4.3282 O   0  0  0  0  0  0  0  0  0  0  0  0
   -1.9864   -2.8997    5.4846 C   0  0  0  0  0  0  0  0  0  0  0  0
   -0.7098   -1.5276    3.1712 H   0  0  0  0  0  0  0  0  0  0  0  0
   -3.3657   -2.5327    3.8646 H   0  0  0  0  0  0  0  0  0  0  0  0
   -1.0495   -2.5014    5.8907 H   0  0  0  0  0  0  0  0  0  0  0  0
   -2.7387   -2.8491    6.2787 H   0  0  0  0  0  0  0  0  0  0  0  0
   -1.8205   -3.9542    5.2388 H   0  0  0  0  0  0  0  0  0  0  0  0
   -3.8212   -0.4097    5.2402 N   0  0  0  0  0  0  0  0  0  0  0  0
   -4.2283    0.9077    5.6701 C   0  0  0  0  0  0  0  0  0  0  0  0
   -4.4658   -1.1792    5.3955 H   0  0  0  0  0  0  0  0  0  0  0  0
   -3.9040    1.0717    6.7083 H   0  0  0  0  0  0  0  0  0  0  0  0
   -3.7677    1.6646    5.0183 H   0  0  0  0  0  0  0  0  0  0  0  0
   -5.3236    0.9904    5.6109 H   0  0  0  0  0  0  0  0  0  0  0  0
  1  3  1  0  0  0  0
  1  7  1  0  0  0  0
  1  2  2  0  0  0  0
 30 31  1  0  0  0  0
 31 39  1  0  0  0  0
 31 32  2  0  0  0  0
  8  9  1  0  0  0  0
  9 17  1  0  0  0  0
  9 10  2  0  0  0  0
 18 19  1  0  0  0  0
 19 29  1  0  0  0  0
 19 20  2  0  0  0  0
 21 22  1  0  0  0  0
 22 23  1  0  0  0  0
 22 24  2  0  0  0  0
 30 33  1  0  0  0  0
  8 11  1  0  0  0  0
 39 40  1  0  0  0  0
 18 21  1  0  0  0  0
 29 30  1  0  0  0  0
  7  8  1  0  0  0  0
 17 18  1  0  0  0  0
  3  4  1  0  0  0  0
  3  5  1  0  0  0  0
  3  6  1  0  0  0  0
 33 36  1  0  0  0  0
 33 37  1  0  0  0  0
 33 38  1  0  0  0  0
 11 14  1  0  0  0  0
 11 15  1  0  0  0  0
 11 16  1  0  0  0  0
 40 42  1  0  0  0  0
 40 43  1  0  0  0  0
 40 44  1  0  0  0  0
 21 27  1  0  0  0  0
 21 28  1  0  0  0  0
 30 35  1  0  0  0  0
  8 13  1  0  0  0  0
 18 26  1  0  0  0  0
 39 41  1  0  0  0  0
  7 12  1  0  0  0  0
 29 34  1  0  0  0  0
 17 25  1  0  0  0  0
M  CHG  1  23  -1
M  END
$$$$

  -OEChem-02062319033D

 44 43  0     1  0  0  0  0  0999 V2000
   -4.0256   -1.8030   -2.1581 C   0  0  0  0  0  0  0  0  0  0  0  0
   -3.7513   -2.6782   -2.9709 O   0  0  0  0  0  0  0  0  0  0  0  0
   -5.3491   -1.1169   -2.2339 C   0  0  0  0  0  0  0  0  0  0  0  0
   -5.3223   -0.2211   -2.8750 H   0  0  0  0  0  0  0  0  0  0  0  0
   -6.1322   -1.7605   -2.6658 H   0  0  0  0  0  0  0  0  0  0  0  0
   -5.7568   -0.7715   -1.2704 H   0  0  0  0  0  0  0  0  0  0  0  0
   -3.2124   -1.3578   -1.1289 N   0  0  0  0  0  0  0  0  0  0  0  0
   -1.8971   -1.8843   -0.8752 C   0  0  2  0  0  0  0  0  0  0  0  0
   -1.2676   -1.0599    0.2399 C   0  0  0  0  0  0  0  0  0  0  0  0
   -1.6270    0.0833    0.5138 O   0  0  0  0  0  0  0  0  0  0  0  0
   -1.0364   -1.8506   -2.1285 C   0  0  0  0  0  0  0  0  0  0  0  0
   -3.5631   -0.6202   -0.5206 H   0  0  0  0  0  0  0  0  0  0  0  0
   -2.0301   -2.9174   -0.5360 H   0  0  0  0  0  0  0  0  0  0  0  0
   -0.8921   -0.8236   -2.4833 H   0  0  0  0  0  0  0  0  0  0  0  0
   -0.0457   -2.2777   -1.9410 H   0  0  0  0  0  0  0  0  0  0  0  0
   -1.5052   -2.4193   -2.9387 H   0  0  0  0  0  0  0  0  0  0  0  0
   -0.2267   -1.7335    0.8672 N   0  0  0  0  0  0  0  0  0  0  0  0
   -0.1822   -3.1697    0.9793 C   0  0  2  0  0  0  0  0  0  0  0  0
   -1.4208   -3.5991    1.7572 C   0  0  0  0  0  0  0  0  0  0  0  0
   -2.1063   -4.5701    1.4434 O   0  0  0  0  0  0  0  0  0  0  0  0
    1.0858   -3.6450    1.6849 C   0  0  0  0  0  0  0  0  0  0  0  0
    2.4023   -3.4596    0.9197 C   0  0  0  0  0  0  0  0  0  0  0  0
    2.2768   -3.4925   -0.3389 O   0  5  0  0  0  0  0  0  0  0  0  0
    3.4436   -3.3074    1.6148 O   0  0  0  0  0  0  0  0  0  0  0  0
    0.5600   -1.2020    1.2322 H   0  0  0  0  0  0  0  0  0  0  0  0
   -0.2410   -3.5675   -0.0401 H   0  0  0  0  0  0  0  0  0  0  0  0
    0.9902   -4.7097    1.9387 H   0  0  0  0  0  0  0  0  0  0  0  0
    1.2026   -3.1088    2.6358 H   0  0  0  0  0  0  0  0  0  0  0  0
   -1.6394   -2.8014    2.8718 N   0  0  0  0  0  0  0  0  0  0  0  0
   -2.7322   -3.0230    3.7899 C   0  0  2  0  0  0  0  0  0  0  0  0
   -3.1489   -1.6735    4.3595 C   0  0  0  0  0  0  0  0  0  0  0  0
   -2.4030   -0.6967    4.3844 O   0  0  0  0  0  0  0  0  0  0  0  0
   -2.3356   -3.9828    4.9009 C   0  0  0  0  0  0  0  0  0  0  0  0
   -0.9917   -2.0473    3.0809 H   0  0  0  0  0  0  0  0  0  0  0  0
   -3.5571   -3.4433    3.2042 H   0  0  0  0  0  0  0  0  0  0  0  0
   -1.5104   -3.5788    5.4986 H   0  0  0  0  0  0  0  0  0  0  0  0
   -3.1737   -4.1720    5.5797 H   0  0  0  0  0  0  0  0  0  0  0  0
   -2.0079   -4.9430    4.4879 H   0  0  0  0  0  0  0  0  0  0  0  0
   -4.4369   -1.7001    4.8759 N   0  0  0  0  0  0  0  0  0  0  0  0
   -5.0571   -0.5462    5.4840 C   0  0  0  0  0  0  0  0  0  0  0  0
   -4.9901   -2.5482    4.7952 H   0  0  0  0  0  0  0  0  0  0  0  0
   -4.8771   -0.5616    6.5690 H   0  0  0  0  0  0  0  0  0  0  0  0
   -4.6269    0.3703    5.0541 H   0  0  0  0  0  0  0  0  0  0  0  0
   -6.1400   -0.5682    5.2917 H   0  0  0  0  0  0  0  0  0  0  0  0
  1  3  1  0  0  0  0
  1  7  1  0  0  0  0
  1  2  2  0  0  0  0
 30 31  1  0  0  0  0
 31 39  1  0  0  0  0
 31 32  2  0  0  0  0
  8  9  1  0  0  0  0
  9 17  1  0  0  0  0
  9 10  2  0  0  0  0
 18 19  1  0  0  0  0
 19 29  1  0  0  0  0
 19 20  2  0  0  0  0
 21 22  1  0  0  0  0
 22 23  1  0  0  0  0
 22 24  2  0  0  0  0
 30 33  1  0  0  0  0
  8 11  1  0  0  0  0
 39 40  1  0  0  0  0
 18 21  1  0  0  0  0
 29 30  1  0  0  0  0
  7  8  1  0  0  0  0
 17 18  1  0  0  0  0
  3  4  1  0  0  0  0
  3  5  1  0  0  0  0
  3  6  1  0  0  0  0
 33 36  1  0  0  0  0
 33 37  1  0  0  0  0
 33 38  1  0  0  0  0
 11 14  1  0  0  0  0
 11 15  1  0  0  0  0
 11 16  1  0  0  0  0
 40 42  1  0  0  0  0
 40 43  1  0  0  0  0
 40 44  1  0  0  0  0
 21 27  1  0  0  0  0
 21 28  1  0  0  0  0
 30 35  1  0  0  0  0
  8 13  1  0  0  0  0
 18 26  1  0  0  0  0
 39 41  1  0  0  0  0
  7 12  1  0  0  0  0
 29 34  1  0  0  0  0
 17 25  1  0  0  0  0
M  CHG  1  23  -1
M  END
$$$$

  -OEChem-02062319033D

 44 43  0     1  0  0  0  0  0999 V2000
   -4.0256   -1.8030   -2.1581 C   0  0  0  0  0  0  0  0  0  0  0  0
   -3.7513   -2.6782   -2.9709 O   0  0  0  0  0  0  0  0  0  0  0  0
   -5.3491   -1.1169   -2.2339 C   0  0  0  0  0  0  0  0  0  0  0  0
   -5.3223   -0.2211   -2.8750 H   0  0  0  0  0  0  0  0  0  0  0  0
   -6.1322   -1.7605   -2.6658 H   0  0  0  0  0  0  0  0  0  0  0  0
   -5.7568   -0.7715   -1.2704 H   0  0  0  0  0  0  0  0  0  0  0  0
   -3.2124   -1.3578   -1.1289 N   0  0  0  0  0  0  0  0  0  0  0  0
   -1.8971   -1.8843   -0.8752 C   0  0  2  0  0  0  0  0  0  0  0  0
   -1.2676   -1.0599    0.2399 C   0  0  0  0  0  0  0  0  0  0  0  0
   -1.6270    0.0833    0.5138 O   0  0  0  0  0  0  0  0  0  0  0  0
   -1.0364   -1.8506   -2.1285 C   0  0  0  0  0  0  0  0  0  0  0  0
   -3.5631   -0.6202   -0.5206 H   0  0  0  0  0  0  0  0  0  0  0  0
   -2.0301   -2.9174   -0.5360 H   0  0  0  0  0  0  0  0  0  0  0  0
   -0.8921   -0.8236   -2.4833 H   0  0  0  0  0  0  0  0  0  0  0  0
   -0.0457   -2.2777   -1.9410 H   0  0  0  0  0  0  0  0  0  0  0  0
   -1.5052   -2.4193   -2.9387 H   0  0  0  0  0  0  0  0  0  0  0  0
   -0.2267   -1.7335    0.8672 N   0  0  0  0  0  0  0  0  0  0  0  0
   -0.0100   -3.1502    0.7146 C   0  0  2  0  0  0  0  0  0  0  0  0
   -1.2633   -3.8544    1.2217 C   0  0  0  0  0  0  0  0  0  0  0  0
   -1.7774   -4.8085    0.6415 O   0  0  0  0  0  0  0  0  0  0  0  0
    1.2200   -3.6228    1.4862 C   0  0  0  0  0  0  0  0  0  0  0  0
    2.5800   -3.1506    0.9566 C   0  0  0  0  0  0  0  0  0  0  0  0
    2.6041   -2.9423   -0.2912 O   0  5  0  0  0  0  0  0  0  0  0  0
    3.5069   -3.0335    1.8040 O   0  0  0  0  0  0  0  0  0  0  0  0
    0.4379   -1.2071    1.4292 H   0  0  0  0  0  0  0  0  0  0  0  0
    0.0995   -3.3386   -0.3594 H   0  0  0  0  0  0  0  0  0  0  0  0
    1.2344   -4.7207    1.5215 H   0  0  0  0  0  0  0  0  0  0  0  0
    1.1574   -3.2797    2.5272 H   0  0  0  0  0  0  0  0  0  0  0  0
   -1.7087   -3.3248    2.4248 N   0  0  0  0  0  0  0  0  0  0  0  0
   -2.8612   -3.8396    3.1270 C   0  0  2  0  0  0  0  0  0  0  0  0
   -3.5110   -2.6834    3.8756 C   0  0  0  0  0  0  0  0  0  0  0  0
   -2.9053   -1.6592    4.1841 O   0  0  0  0  0  0  0  0  0  0  0  0
   -2.4731   -4.9567    4.0832 C   0  0  0  0  0  0  0  0  0  0  0  0
   -1.1920   -2.5648    2.8575 H   0  0  0  0  0  0  0  0  0  0  0  0
   -3.5526   -4.2172    2.3658 H   0  0  0  0  0  0  0  0  0  0  0  0
   -1.7805   -4.5973    4.8530 H   0  0  0  0  0  0  0  0  0  0  0  0
   -3.3516   -5.3652    4.5935 H   0  0  0  0  0  0  0  0  0  0  0  0
   -1.9791   -5.7744    3.5473 H   0  0  0  0  0  0  0  0  0  0  0  0
   -4.8350   -2.9480    4.1966 N   0  0  0  0  0  0  0  0  0  0  0  0
   -5.6644   -2.0113    4.9183 C   0  0  0  0  0  0  0  0  0  0  0  0
   -5.2612   -3.8154    3.8842 H   0  0  0  0  0  0  0  0  0  0  0  0
   -5.6088   -2.2260    5.9957 H   0  0  0  0  0  0  0  0  0  0  0  0
   -5.3101   -0.9871    4.7298 H   0  0  0  0  0  0  0  0  0  0  0  0
   -6.7063   -2.1071    4.5788 H   0  0  0  0  0  0  0  0  0  0  0  0
  1  3  1  0  0  0  0
  1  7  1  0  0  0  0
  1  2  2  0  0  0  0
 30 31  1  0  0  0  0
 31 39  1  0  0  0  0
 31 32  2  0  0  0  0
  8  9  1  0  0  0  0
  9 17  1  0  0  0  0
  9 10  2  0  0  0  0
 18 19  1  0  0  0  0
 19 29  1  0  0  0  0
 19 20  2  0  0  0  0
 21 22  1  0  0  0  0
 22 23  1  0  0  0  0
 22 24  2  0  0  0  0
 30 33  1  0  0  0  0
  8 11  1  0  0  0  0
 39 40  1  0  0  0  0
 18 21  1  0  0  0  0
 29 30  1  0  0  0  0
  7  8  1  0  0  0  0
 17 18  1  0  0  0  0
  3  4  1  0  0  0  0
  3  5  1  0  0  0  0
  3  6  1  0  0  0  0
 33 36  1  0  0  0  0
 33 37  1  0  0  0  0
 33 38  1  0  0  0  0
 11 14  1  0  0  0  0
 11 15  1  0  0  0  0
 11 16  1  0  0  0  0
 40 42  1  0  0  0  0
 40 43  1  0  0  0  0
 40 44  1  0  0  0  0
 21 27  1  0  0  0  0
 21 28  1  0  0  0  0
 30 35  1  0  0  0  0
  8 13  1  0  0  0  0
 18 26  1  0  0  0  0
 39 41  1  0  0  0  0
  7 12  1  0  0  0  0
 29 34  1  0  0  0  0
 17 25  1  0  0  0  0
M  CHG  1  23  -1
M  END
$$$$

  -OEChem-02062319033D

 44 43  0     1  0  0  0  0  0999 V2000
   -4.0256   -1.8030   -2.1581 C   0  0  0  0  0  0  0  0  0  0  0  0
   -3.7513   -2.6782   -2.9709 O   0  0  0  0  0  0  0  0  0  0  0  0
   -5.3491   -1.1169   -2.2339 C   0  0  0  0  0  0  0  0  0  0  0  0
   -5.3223   -0.2211   -2.8750 H   0  0  0  0  0  0  0  0  0  0  0  0
   -6.1322   -1.7605   -2.6658 H   0  0  0  0  0  0  0  0  0  0  0  0
   -5.7568   -0.7715   -1.2704 H   0  0  0  0  0  0  0  0  0  0  0  0
   -3.2124   -1.3578   -1.1289 N   0  0  0  0  0  0  0  0  0  0  0  0
   -1.8971   -1.8843   -0.8752 C   0  0  2  0  0  0  0  0  0  0  0  0
   -1.2676   -1.0599    0.2399 C   0  0  0  0  0  0  0  0  0  0  0  0
   -1.6270    0.0833    0.5138 O   0  0  0  0  0  0  0  0  0  0  0  0
   -1.0364   -1.8506   -2.1285 C   0  0  0  0  0  0  0  0  0  0  0  0
   -3.5631   -0.6202   -0.5206 H   0  0  0  0  0  0  0  0  0  0  0  0
   -2.0301   -2.9174   -0.5360 H   0  0  0  0  0  0  0  0  0  0  0  0
   -0.8921   -0.8236   -2.4833 H   0  0  0  0  0  0  0  0  0  0  0  0
   -0.0457   -2.2777   -1.9410 H   0  0  0  0  0  0  0  0  0  0  0  0
   -1.5052   -2.4193   -2.9387 H   0  0  0  0  0  0  0  0  0  0  0  0
   -0.2267   -1.7335    0.8672 N   0  0  0  0  0  0  0  0  0  0  0  0
    0.1872   -3.0599    0.4843 C   0  0  2  0  0  0  0  0  0  0  0  0
   -1.0142   -3.9788    0.6746 C   0  0  0  0  0  0  0  0  0  0  0  0
   -1.3311   -4.8449   -0.1381 O   0  0  0  0  0  0  0  0  0  0  0  0
    1.3719   -3.5470    1.3154 C   0  0  0  0  0  0  0  0  0  0  0  0
    2.7110   -2.8385    1.0745 C   0  0  0  0  0  0  0  0  0  0  0  0
    2.8500   -2.3818   -0.0973 O   0  5  0  0  0  0  0  0  0  0  0  0
    3.5123   -2.7982    2.0478 O   0  0  0  0  0  0  0  0  0  0  0  0
    0.2959   -1.2646    1.6031 H   0  0  0  0  0  0  0  0  0  0  0  0
    0.4418   -3.0157   -0.5806 H   0  0  0  0  0  0  0  0  0  0  0  0
    1.5240   -4.6220    1.1470 H   0  0  0  0  0  0  0  0  0  0  0  0
    1.1473   -3.4291    2.3835 H   0  0  0  0  0  0  0  0  0  0  0  0
   -1.6584   -3.7518    1.8828 N   0  0  0  0  0  0  0  0  0  0  0  0
   -2.8072   -4.5149    2.3121 C   0  0  2  0  0  0  0  0  0  0  0  0
   -3.6820   -3.6075    3.1669 C   0  0  0  0  0  0  0  0  0  0  0  0
   -3.2528   -2.6088    3.7410 O   0  0  0  0  0  0  0  0  0  0  0  0
   -2.3895   -5.7548    3.0873 C   0  0  0  0  0  0  0  0  0  0  0  0
   -1.2970   -3.0447    2.5163 H   0  0  0  0  0  0  0  0  0  0  0  0
   -3.3528   -4.8017    1.4065 H   0  0  0  0  0  0  0  0  0  0  0  0
   -1.8415   -5.4875    3.9981 H   0  0  0  0  0  0  0  0  0  0  0  0
   -3.2602   -6.3472    3.3873 H   0  0  0  0  0  0  0  0  0  0  0  0
   -1.7362   -6.3917    2.4812 H   0  0  0  0  0  0  0  0  0  0  0  0
   -4.9886   -4.0681    3.2485 N   0  0  0  0  0  0  0  0  0  0  0  0
   -6.0089   -3.3878    4.0116 C   0  0  0  0  0  0  0  0  0  0  0  0
   -5.2607   -4.8946    2.7245 H   0  0  0  0  0  0  0  0  0  0  0  0
   -6.0491   -3.8080    5.0274 H   0  0  0  0  0  0  0  0  0  0  0  0
   -5.7707   -2.3154    4.0678 H   0  0  0  0  0  0  0  0  0  0  0  0
   -6.9841   -3.5216    3.5207 H   0  0  0  0  0  0  0  0  0  0  0  0
  1  3  1  0  0  0  0
  1  7  1  0  0  0  0
  1  2  2  0  0  0  0
 30 31  1  0  0  0  0
 31 39  1  0  0  0  0
 31 32  2  0  0  0  0
  8  9  1  0  0  0  0
  9 17  1  0  0  0  0
  9 10  2  0  0  0  0
 18 19  1  0  0  0  0
 19 29  1  0  0  0  0
 19 20  2  0  0  0  0
 21 22  1  0  0  0  0
 22 23  1  0  0  0  0
 22 24  2  0  0  0  0
 30 33  1  0  0  0  0
  8 11  1  0  0  0  0
 39 40  1  0  0  0  0
 18 21  1  0  0  0  0
 29 30  1  0  0  0  0
  7  8  1  0  0  0  0
 17 18  1  0  0  0  0
  3  4  1  0  0  0  0
  3  5  1  0  0  0  0
  3  6  1  0  0  0  0
 33 36  1  0  0  0  0
 33 37  1  0  0  0  0
 33 38  1  0  0  0  0
 11 14  1  0  0  0  0
 11 15  1  0  0  0  0
 11 16  1  0  0  0  0
 40 42  1  0  0  0  0
 40 43  1  0  0  0  0
 40 44  1  0  0  0  0
 21 27  1  0  0  0  0
 21 28  1  0  0  0  0
 30 35  1  0  0  0  0
  8 13  1  0  0  0  0
 18 26  1  0  0  0  0
 39 41  1  0  0  0  0
  7 12  1  0  0  0  0
 29 34  1  0  0  0  0
 17 25  1  0  0  0  0
M  CHG  1  23  -1
M  END
$$$$

  -OEChem-02062319033D

 44 43  0     1  0  0  0  0  0999 V2000
   -4.0256   -1.8030   -2.1581 C   0  0  0  0  0  0  0  0  0  0  0  0
   -3.7513   -2.6782   -2.9709 O   0  0  0  0  0  0  0  0  0  0  0  0
   -5.3491   -1.1169   -2.2339 C   0  0  0  0  0  0  0  0  0  0  0  0
   -5.3223   -0.2211   -2.8750 H   0  0  0  0  0  0  0  0  0  0  0  0
   -6.1322   -1.7605   -2.6658 H   0  0  0  0  0  0  0  0  0  0  0  0
   -5.7568   -0.7715   -1.2704 H   0  0  0  0  0  0  0  0  0  0  0  0
   -3.2124   -1.3578   -1.1289 N   0  0  0  0  0  0  0  0  0  0  0  0
   -1.8971   -1.8843   -0.8752 C   0  0  2  0  0  0  0  0  0  0  0  0
   -1.2676   -1.0599    0.2399 C   0  0  0  0  0  0  0  0  0  0  0  0
   -1.6270    0.0833    0.5138 O   0  0  0  0  0  0  0  0  0  0  0  0
   -1.0364   -1.8506   -2.1285 C   0  0  0  0  0  0  0  0  0  0  0  0
   -3.5631   -0.6202   -0.5206 H   0  0  0  0  0  0  0  0  0  0  0  0
   -2.0301   -2.9174   -0.5360 H   0  0  0  0  0  0  0  0  0  0  0  0
   -0.8921   -0.8236   -2.4833 H   0  0  0  0  0  0  0  0  0  0  0  0
   -0.0457   -2.2777   -1.9410 H   0  0  0  0  0  0  0  0  0  0  0  0
   -1.5052   -2.4193   -2.9387 H   0  0  0  0  0  0  0  0  0  0  0  0
   -0.2267   -1.7335    0.8672 N   0  0  0  0  0  0  0  0  0  0  0  0
    0.3960   -2.9051    0.3042 C   0  0  2  0  0  0  0  0  0  0  0  0
   -0.6904   -3.9637    0.1534 C   0  0  0  0  0  0  0  0  0  0  0  0
   -0.7980   -4.6768   -0.8422 O   0  0  0  0  0  0  0  0  0  0  0  0
    1.5312   -3.4230    1.1842 C   0  0  0  0  0  0  0  0  0  0  0  0
    2.7862   -2.5445    1.2654 C   0  0  0  0  0  0  0  0  0  0  0  0
    2.9976   -1.8494    0.2296 O   0  5  0  0  0  0  0  0  0  0  0  0
    3.4594   -2.6175    2.3295 O   0  0  0  0  0  0  0  0  0  0  0  0
    0.1436   -1.3704    1.7422 H   0  0  0  0  0  0  0  0  0  0  0  0
    0.7625   -2.6209   -0.6888 H   0  0  0  0  0  0  0  0  0  0  0  0
    1.8392   -4.4202    0.8408 H   0  0  0  0  0  0  0  0  0  0  0  0
    1.1730   -3.5467    2.2146 H   0  0  0  0  0  0  0  0  0  0  0  0
   -1.4920   -4.0532    1.2829 N   0  0  0  0  0  0  0  0  0  0  0  0
   -2.5738   -5.0029    1.4008 C   0  0  2  0  0  0  0  0  0  0  0  0
   -3.6502   -4.3827    2.2818 C   0  0  0  0  0  0  0  0  0  0  0  0
   -3.4220   -3.4808    3.0853 O   0  0  0  0  0  0  0  0  0  0  0  0
   -2.0906   -6.3230    1.9811 C   0  0  0  0  0  0  0  0  0  0  0  0
   -1.2995   -3.4544    2.0805 H   0  0  0  0  0  0  0  0  0  0  0  0
   -2.9710   -5.1568    0.3916 H   0  0  0  0  0  0  0  0  0  0  0  0
   -1.6891   -6.1888    2.9921 H   0  0  0  0  0  0  0  0  0  0  0  0
   -2.9059   -7.0513    2.0432 H   0  0  0  0  0  0  0  0  0  0  0  0
   -1.2956   -6.7530    1.3622 H   0  0  0  0  0  0  0  0  0  0  0  0
   -4.8871   -4.9841    2.0963 N   0  0  0  0  0  0  0  0  0  0  0  0
   -6.0670   -4.5818    2.8257 C   0  0  0  0  0  0  0  0  0  0  0  0
   -4.9887   -5.7120    1.3951 H   0  0  0  0  0  0  0  0  0  0  0  0
   -6.1680   -5.1998    3.7301 H   0  0  0  0  0  0  0  0  0  0  0  0
   -5.9773   -3.5238    3.1129 H   0  0  0  0  0  0  0  0  0  0  0  0
   -6.9544   -4.7151    2.1896 H   0  0  0  0  0  0  0  0  0  0  0  0
  1  3  1  0  0  0  0
  1  7  1  0  0  0  0
  1  2  2  0  0  0  0
 30 31  1  0  0  0  0
 31 39  1  0  0  0  0
 31 32  2  0  0  0  0
  8  9  1  0  0  0  0
  9 17  1  0  0  0  0
  9 10  2  0  0  0  0
 18 19  1  0  0  0  0
 19 29  1  0  0  0  0
 19 20  2  0  0  0  0
 21 22  1  0  0  0  0
 22 23  1  0  0  0  0
 22 24  2  0  0  0  0
 30 33  1  0  0  0  0
  8 11  1  0  0  0  0
 39 40  1  0  0  0  0
 18 21  1  0  0  0  0
 29 30  1  0  0  0  0
  7  8  1  0  0  0  0
 17 18  1  0  0  0  0
  3  4  1  0  0  0  0
  3  5  1  0  0  0  0
  3  6  1  0  0  0  0
 33 36  1  0  0  0  0
 33 37  1  0  0  0  0
 33 38  1  0  0  0  0
 11 14  1  0  0  0  0
 11 15  1  0  0  0  0
 11 16  1  0  0  0  0
 40 42  1  0  0  0  0
 40 43  1  0  0  0  0
 40 44  1  0  0  0  0
 21 27  1  0  0  0  0
 21 28  1  0  0  0  0
 30 35  1  0  0  0  0
  8 13  1  0  0  0  0
 18 26  1  0  0  0  0
 39 41  1  0  0  0  0
  7 12  1  0  0  0  0
 29 34  1  0  0  0  0
 17 25  1  0  0  0  0
M  CHG  1  23  -1
M  END
$$$$

  -OEChem-02062319033D

 44 43  0     1  0  0  0  0  0999 V2000
   -4.0256   -1.8030   -2.1581 C   0  0  0  0  0  0  0  0  0  0  0  0
   -3.7513   -2.6782   -2.9709 O   0  0  0  0  0  0  0  0  0  0  0  0
   -5.3491   -1.1169   -2.2339 C   0  0  0  0  0  0  0  0  0  0  0  0
   -5.3223   -0.2211   -2.8750 H   0  0  0  0  0  0  0  0  0  0  0  0
   -6.1322   -1.7605   -2.6658 H   0  0  0  0  0  0  0  0  0  0  0  0
   -5.7568   -0.7715   -1.2704 H   0  0  0  0  0  0  0  0  0  0  0  0
   -3.2124   -1.3578   -1.1289 N   0  0  0  0  0  0  0  0  0  0  0  0
   -1.8971   -1.8843   -0.8752 C   0  0  2  0  0  0  0  0  0  0  0  0
   -1.2676   -1.0599    0.2399 C   0  0  0  0  0  0  0  0  0  0  0  0
   -1.6270    0.0833    0.5138 O   0  0  0  0  0  0  0  0  0  0  0  0
   -1.0364   -1.8506   -2.1285 C   0  0  0  0  0  0  0  0  0  0  0  0
   -3.5631   -0.6202   -0.5206 H   0  0  0  0  0  0  0  0  0  0  0  0
   -2.0301   -2.9174   -0.5360 H   0  0  0  0  0  0  0  0  0  0  0  0
   -0.8921   -0.8236   -2.4833 H   0  0  0  0  0  0  0  0  0  0  0  0
   -0.0457   -2.2777   -1.9410 H   0  0  0  0  0  0  0  0  0  0  0  0
   -1.5052   -2.4193   -2.9387 H   0  0  0  0  0  0  0  0  0  0  0  0
   -0.2267   -1.7335    0.8672 N   0  0  0  0  0  0  0  0  0  0  0  0
    0.6022   -2.6961    0.1863 C   0  0  2  0  0  0  0  0  0  0  0  0
   -0.3139   -3.8103   -0.3065 C   0  0  0  0  0  0  0  0  0  0  0  0
   -0.2144   -4.3156   -1.4228 O   0  0  0  0  0  0  0  0  0  0  0  0
    1.6871   -3.2592    1.1014 C   0  0  0  0  0  0  0  0  0  0  0  0
    2.8006   -2.2888    1.5162 C   0  0  0  0  0  0  0  0  0  0  0  0
    3.0370   -1.3811    0.6670 O   0  5  0  0  0  0  0  0  0  0  0  0
    3.3519   -2.5039    2.6300 O   0  0  0  0  0  0  0  0  0  0  0  0
   -0.0085   -1.5174    1.8369 H   0  0  0  0  0  0  0  0  0  0  0  0
    1.0397   -2.1812   -0.6765 H   0  0  0  0  0  0  0  0  0  0  0  0
    2.1584   -4.1290    0.6237 H   0  0  0  0  0  0  0  0  0  0  0  0
    1.2328   -3.6245    2.0317 H   0  0  0  0  0  0  0  0  0  0  0  0
   -1.2207   -4.2086    0.6658 N   0  0  0  0  0  0  0  0  0  0  0  0
   -2.1771   -5.2704    0.4553 C   0  0  2  0  0  0  0  0  0  0  0  0
   -3.4179   -4.9561    1.2805 C   0  0  0  0  0  0  0  0  0  0  0  0
   -3.4012   -4.2156    2.2616 O   0  0  0  0  0  0  0  0  0  0  0  0
   -1.5966   -6.6223    0.8399 C   0  0  0  0  0  0  0  0  0  0  0  0
   -1.1993   -3.7659    1.5798 H   0  0  0  0  0  0  0  0  0  0  0  0
   -2.4335   -5.2585   -0.6097 H   0  0  0  0  0  0  0  0  0  0  0  0
   -1.3337   -6.6532    1.9036 H   0  0  0  0  0  0  0  0  0  0  0  0
   -2.3127   -7.4293    0.6529 H   0  0  0  0  0  0  0  0  0  0  0  0
   -0.6875   -6.8335    0.2665 H   0  0  0  0  0  0  0  0  0  0  0  0
   -4.5375   -5.6337    0.8185 N   0  0  0  0  0  0  0  0  0  0  0  0
   -5.8348   -5.5120    1.4415 C   0  0  0  0  0  0  0  0  0  0  0  0
   -4.4635   -6.2121   -0.0133 H   0  0  0  0  0  0  0  0  0  0  0  0
   -5.9576   -6.3065    2.1923 H   0  0  0  0  0  0  0  0  0  0  0  0
   -5.9159   -4.5300    1.9304 H   0  0  0  0  0  0  0  0  0  0  0  0
   -6.6193   -5.6065    0.6762 H   0  0  0  0  0  0  0  0  0  0  0  0
  1  3  1  0  0  0  0
  1  7  1  0  0  0  0
  1  2  2  0  0  0  0
 30 31  1  0  0  0  0
 31 39  1  0  0  0  0
 31 32  2  0  0  0  0
  8  9  1  0  0  0  0
  9 17  1  0  0  0  0
  9 10  2  0  0  0  0
 18 19  1  0  0  0  0
 19 29  1  0  0  0  0
 19 20  2  0  0  0  0
 21 22  1  0  0  0  0
 22 23  1  0  0  0  0
 22 24  2  0  0  0  0
 30 33  1  0  0  0  0
  8 11  1  0  0  0  0
 39 40  1  0  0  0  0
 18 21  1  0  0  0  0
 29 30  1  0  0  0  0
  7  8  1  0  0  0  0
 17 18  1  0  0  0  0
  3  4  1  0  0  0  0
  3  5  1  0  0  0  0
  3  6  1  0  0  0  0
 33 36  1  0  0  0  0
 33 37  1  0  0  0  0
 33 38  1  0  0  0  0
 11 14  1  0  0  0  0
 11 15  1  0  0  0  0
 11 16  1  0  0  0  0
 40 42  1  0  0  0  0
 40 43  1  0  0  0  0
 40 44  1  0  0  0  0
 21 27  1  0  0  0  0
 21 28  1  0  0  0  0
 30 35  1  0  0  0  0
  8 13  1  0  0  0  0
 18 26  1  0  0  0  0
 39 41  1  0  0  0  0
  7 12  1  0  0  0  0
 29 34  1  0  0  0  0
 17 25  1  0  0  0  0
M  CHG  1  23  -1
M  END
$$$$

  -OEChem-02062319033D

 44 43  0     1  0  0  0  0  0999 V2000
   -4.0256   -1.8030   -2.1581 C   0  0  0  0  0  0  0  0  0  0  0  0
   -3.7513   -2.6782   -2.9709 O   0  0  0  0  0  0  0  0  0  0  0  0
   -5.3491   -1.1169   -2.2339 C   0  0  0  0  0  0  0  0  0  0  0  0
   -5.3223   -0.2211   -2.8750 H   0  0  0  0  0  0  0  0  0  0  0  0
   -6.1322   -1.7605   -2.6658 H   0  0  0  0  0  0  0  0  0  0  0  0
   -5.7568   -0.7715   -1.2704 H   0  0  0  0  0  0  0  0  0  0  0  0
   -3.2124   -1.3578   -1.1289 N   0  0  0  0  0  0  0  0  0  0  0  0
   -1.8971   -1.8843   -0.8752 C   0  0  2  0  0  0  0  0  0  0  0  0
   -1.2676   -1.0599    0.2399 C   0  0  0  0  0  0  0  0  0  0  0  0
   -1.6270    0.0833    0.5138 O   0  0  0  0  0  0  0  0  0  0  0  0
   -1.0364   -1.8506   -2.1285 C   0  0  0  0  0  0  0  0  0  0  0  0
   -3.5631   -0.6202   -0.5206 H   0  0  0  0  0  0  0  0  0  0  0  0
   -2.0301   -2.9174   -0.5360 H   0  0  0  0  0  0  0  0  0  0  0  0
   -0.8921   -0.8236   -2.4833 H   0  0  0  0  0  0  0  0  0  0  0  0
   -0.0457   -2.2777   -1.9410 H   0  0  0  0  0  0  0  0  0  0  0  0
   -1.5052   -2.4193   -2.9387 H   0  0  0  0  0  0  0  0  0  0  0  0
   -0.2267   -1.7335    0.8672 N   0  0  0  0  0  0  0  0  0  0  0  0
    0.7918   -2.4474    0.1389 C   0  0  2  0  0  0  0  0  0  0  0  0
    0.0895   -3.5290   -0.6738 C   0  0  0  0  0  0  0  0  0  0  0  0
    0.3800   -3.7859   -1.8403 O   0  0  0  0  0  0  0  0  0  0  0  0
    1.8290   -3.0666    1.0729 C   0  0  0  0  0  0  0  0  0  0  0  0
    2.7531   -2.0888    1.8098 C   0  0  0  0  0  0  0  0  0  0  0  0
    2.9655   -1.0091    1.1853 O   0  5  0  0  0  0  0  0  0  0  0  0
    3.1970   -2.4649    2.9289 O   0  0  0  0  0  0  0  0  0  0  0  0
   -0.1502   -1.6955    1.8808 H   0  0  0  0  0  0  0  0  0  0  0  0
    1.2545   -1.7265   -0.5446 H   0  0  0  0  0  0  0  0  0  0  0  0
    2.4600   -3.7684    0.5105 H   0  0  0  0  0  0  0  0  0  0  0  0
    1.3226   -3.6572    1.8476 H   0  0  0  0  0  0  0  0  0  0  0  0
   -0.8631   -4.2074    0.0737 N   0  0  0  0  0  0  0  0  0  0  0  0
   -1.6440   -5.2990   -0.4601 C   0  0  2  0  0  0  0  0  0  0  0  0
   -3.0009   -5.2887    0.2314 C   0  0  0  0  0  0  0  0  0  0  0  0
   -3.1919   -4.7633    1.3262 O   0  0  0  0  0  0  0  0  0  0  0  0
   -0.9413   -6.6325   -0.2584 C   0  0  0  0  0  0  0  0  0  0  0  0
   -1.0034   -3.9580    1.0483 H   0  0  0  0  0  0  0  0  0  0  0  0
   -1.7767   -5.0998   -1.5291 H   0  0  0  0  0  0  0  0  0  0  0  0
   -0.7995   -6.8493    0.8066 H   0  0  0  0  0  0  0  0  0  0  0  0
   -1.5211   -7.4556   -0.6889 H   0  0  0  0  0  0  0  0  0  0  0  0
    0.0468   -6.6277   -0.7311 H   0  0  0  0  0  0  0  0  0  0  0  0
   -3.9635   -5.9726   -0.4979 N   0  0  0  0  0  0  0  0  0  0  0  0
   -5.3281   -6.1150   -0.0468 C   0  0  0  0  0  0  0  0  0  0  0  0
   -3.7212   -6.3607   -1.4048 H   0  0  0  0  0  0  0  0  0  0  0  0
   -5.4320   -7.0528    0.5186 H   0  0  0  0  0  0  0  0  0  0  0  0
   -5.5907   -5.2655    0.6008 H   0  0  0  0  0  0  0  0  0  0  0  0
   -6.0015   -6.1349   -0.9164 H   0  0  0  0  0  0  0  0  0  0  0  0
  1  3  1  0  0  0  0
  1  7  1  0  0  0  0
  1  2  2  0  0  0  0
 30 31  1  0  0  0  0
 31 39  1  0  0  0  0
 31 32  2  0  0  0  0
  8  9  1  0  0  0  0
  9 17  1  0  0  0  0
  9 10  2  0  0  0  0
 18 19  1  0  0  0  0
 19 29  1  0  0  0  0
 19 20  2  0  0  0  0
 21 22  1  0  0  0  0
 22 23  1  0  0  0  0
 22 24  2  0  0  0  0
 30 33  1  0  0  0  0
  8 11  1  0  0  0  0
 39 40  1  0  0  0  0
 18 21  1  0  0  0  0
 29 30  1  0  0  0  0
  7  8  1  0  0  0  0
 17 18  1  0  0  0  0
  3  4  1  0  0  0  0
  3  5  1  0  0  0  0
  3  6  1  0  0  0  0
 33 36  1  0  0  0  0
 33 37  1  0  0  0  0
 33 38  1  0  0  0  0
 11 14  1  0  0  0  0
 11 15  1  0  0  0  0
 11 16  1  0  0  0  0
 40 42  1  0  0  0  0
 40 43  1  0  0  0  0
 40 44  1  0  0  0  0
 21 27  1  0  0  0  0
 21 28  1  0  0  0  0
 30 35  1  0  0  0  0
  8 13  1  0  0  0  0
 18 26  1  0  0  0  0
 39 41  1  0  0  0  0
  7 12  1  0  0  0  0
 29 34  1  0  0  0  0
 17 25  1  0  0  0  0
M  CHG  1  23  -1
M  END
$$$$

  -OEChem-02062319033D

 44 43  0     1  0  0  0  0  0999 V2000
   -4.0256   -1.8030   -2.1581 C   0  0  0  0  0  0  0  0  0  0  0  0
   -3.7513   -2.6782   -2.9709 O   0  0  0  0  0  0  0  0  0  0  0  0
   -5.3491   -1.1169   -2.2339 C   0  0  0  0  0  0  0  0  0  0  0  0
   -5.3223   -0.2211   -2.8750 H   0  0  0  0  0  0  0  0  0  0  0  0
   -6.1322   -1.7605   -2.6658 H   0  0  0  0  0  0  0  0  0  0  0  0
   -5.7568   -0.7715   -1.2704 H   0  0  0  0  0  0  0  0  0  0  0  0
   -3.2124   -1.3578   -1.1289 N   0  0  0  0  0  0  0  0  0  0  0  0
   -1.8971   -1.8843   -0.8752 C   0  0  2  0  0  0  0  0  0  0  0  0
   -1.2676   -1.0599    0.2399 C   0  0  0  0  0  0  0  0  0  0  0  0
   -1.6270    0.0833    0.5138 O   0  0  0  0  0  0  0  0  0  0  0  0
   -1.0364   -1.8506   -2.1285 C   0  0  0  0  0  0  0  0  0  0  0  0
   -3.5631   -0.6202   -0.5206 H   0  0  0  0  0  0  0  0  0  0  0  0
   -2.0301   -2.9174   -0.5360 H   0  0  0  0  0  0  0  0  0  0  0  0
   -0.8921   -0.8236   -2.4833 H   0  0  0  0  0  0  0  0  0  0  0  0
   -0.0457   -2.2777   -1.9410 H   0  0  0  0  0  0  0  0  0  0  0  0
   -1.5052   -2.4193   -2.9387 H   0  0  0  0  0  0  0  0  0  0  0  0
   -0.2267   -1.7335    0.8672 N   0  0  0  0  0  0  0  0  0  0  0  0
    0.9518   -2.1757    0.1651 C   0  0  2  0  0  0  0  0  0  0  0  0
    0.4924   -3.1389   -0.9234 C   0  0  0  0  0  0  0  0  0  0  0  0
    0.9447   -3.1239   -2.0664 O   0  0  0  0  0  0  0  0  0  0  0  0
    1.9470   -2.8586    1.1004 C   0  0  0  0  0  0  0  0  0  0  0  0
    2.6470   -1.9580    2.1262 C   0  0  0  0  0  0  0  0  0  0  0  0
    2.7879   -0.7585    1.7490 O   0  5  0  0  0  0  0  0  0  0  0  0
    3.0054   -2.5033    3.2056 O   0  0  0  0  0  0  0  0  0  0  0  0
   -0.2718   -1.8926    1.8708 H   0  0  0  0  0  0  0  0  0  0  0  0
    1.3923   -1.2877   -0.3020 H   0  0  0  0  0  0  0  0  0  0  0  0
    2.7234   -3.3629    0.5089 H   0  0  0  0  0  0  0  0  0  0  0  0
    1.4363   -3.6426    1.6746 H   0  0  0  0  0  0  0  0  0  0  0  0
   -0.4435   -4.0496   -0.4532 N   0  0  0  0  0  0  0  0  0  0  0  0
   -1.0108   -5.0869   -1.2830 C   0  0  2  0  0  0  0  0  0  0  0  0
   -2.4276   -5.3578   -0.7942 C   0  0  0  0  0  0  0  0  0  0  0  0
   -2.8084   -5.0865    0.3426 O   0  0  0  0  0  0  0  0  0  0  0  0
   -0.1693   -6.3528   -1.2391 C   0  0  0  0  0  0  0  0  0  0  0  0
   -0.7250   -4.0176    0.5223 H   0  0  0  0  0  0  0  0  0  0  0  0
   -1.0455   -4.6915   -2.3040 H   0  0  0  0  0  0  0  0  0  0  0  0
   -0.1230   -6.7636   -0.2239 H   0  0  0  0  0  0  0  0  0  0  0  0
   -0.5851   -7.1284   -1.8908 H   0  0  0  0  0  0  0  0  0  0  0  0
    0.8573   -6.1498   -1.5626 H   0  0  0  0  0  0  0  0  0  0  0  0
   -3.2043   -5.9776   -1.7631 N   0  0  0  0  0  0  0  0  0  0  0  0
   -4.5816   -6.3497   -1.5378 C   0  0  0  0  0  0  0  0  0  0  0  0
   -2.8121   -6.1477   -2.6845 H   0  0  0  0  0  0  0  0  0  0  0  0
   -4.6271   -7.3878   -1.1767 H   0  0  0  0  0  0  0  0  0  0  0  0
   -5.0237   -5.6802   -0.7853 H   0  0  0  0  0  0  0  0  0  0  0  0
   -5.1431   -6.2643   -2.4797 H   0  0  0  0  0  0  0  0  0  0  0  0
  1  3  1  0  0  0  0
  1  7  1  0  0  0  0
  1  2  2  0  0  0  0
 30 31  1  0  0  0  0
 31 39  1  0  0  0  0
 31 32  2  0  0  0  0
  8  9  1  0  0  0  0
  9 17  1  0  0  0  0
  9 10  2  0  0  0  0
 18 19  1  0  0  0  0
 19 29  1  0  0  0  0
 19 20  2  0  0  0  0
 21 22  1  0  0  0  0
 22 23  1  0  0  0  0
 22 24  2  0  0  0  0
 30 33  1  0  0  0  0
  8 11  1  0  0  0  0
 39 40  1  0  0  0  0
 18 21  1  0  0  0  0
 29 30  1  0  0  0  0
  7  8  1  0  0  0  0
 17 18  1  0  0  0  0
  3  4  1  0  0  0  0
  3  5  1  0  0  0  0
  3  6  1  0  0  0  0
 33 36  1  0  0  0  0
 33 37  1  0  0  0  0
 33 38  1  0  0  0  0
 11 14  1  0  0  0  0
 11 15  1  0  0  0  0
 11 16  1  0  0  0  0
 40 42  1  0  0  0  0
 40 43  1  0  0  0  0
 40 44  1  0  0  0  0
 21 27  1  0  0  0  0
 21 28  1  0  0  0  0
 30 35  1  0  0  0  0
  8 13  1  0  0  0  0
 18 26  1  0  0  0  0
 39 41  1  0  0  0  0
  7 12  1  0  0  0  0
 29 34  1  0  0  0  0
 17 25  1  0  0  0  0
M  CHG  1  23  -1
M  END
$$$$

  -OEChem-02062319033D

 44 43  0     1  0  0  0  0  0999 V2000
   -4.0256   -1.8030   -2.1581 C   0  0  0  0  0  0  0  0  0  0  0  0
   -3.7513   -2.6782   -2.9709 O   0  0  0  0  0  0  0  0  0  0  0  0
   -5.3491   -1.1169   -2.2339 C   0  0  0  0  0  0  0  0  0  0  0  0
   -5.3223   -0.2211   -2.8750 H   0  0  0  0  0  0  0  0  0  0  0  0
   -6.1322   -1.7605   -2.6658 H   0  0  0  0  0  0  0  0  0  0  0  0
   -5.7568   -0.7715   -1.2704 H   0  0  0  0  0  0  0  0  0  0  0  0
   -3.2124   -1.3578   -1.1289 N   0  0  0  0  0  0  0  0  0  0  0  0
   -1.8971   -1.8843   -0.8752 C   0  0  2  0  0  0  0  0  0  0  0  0
   -1.2676   -1.0599    0.2399 C   0  0  0  0  0  0  0  0  0  0  0  0
   -1.6270    0.0833    0.5138 O   0  0  0  0  0  0  0  0  0  0  0  0
   -1.0364   -1.8506   -2.1285 C   0  0  0  0  0  0  0  0  0  0  0  0
   -3.5631   -0.6202   -0.5206 H   0  0  0  0  0  0  0  0  0  0  0  0
   -2.0301   -2.9174   -0.5360 H   0  0  0  0  0  0  0  0  0  0  0  0
   -0.8921   -0.8236   -2.4833 H   0  0  0  0  0  0  0  0  0  0  0  0
   -0.0457   -2.2777   -1.9410 H   0  0  0  0  0  0  0  0  0  0  0  0
   -1.5052   -2.4193   -2.9387 H   0  0  0  0  0  0  0  0  0  0  0  0
   -0.2267   -1.7335    0.8672 N   0  0  0  0  0  0  0  0  0  0  0  0
    1.0713   -1.8997    0.2632 C   0  0  2  0  0  0  0  0  0  0  0  0
    0.8673   -2.6667   -1.0383 C   0  0  0  0  0  0  0  0  0  0  0  0
    1.4411   -2.3747   -2.0855 O   0  0  0  0  0  0  0  0  0  0  0  0
    2.0333   -2.6491    1.1821 C   0  0  0  0  0  0  0  0  0  0  0  0
    2.4896   -1.9055    2.4439 C   0  0  0  0  0  0  0  0  0  0  0  0
    2.5164   -0.6466    2.3199 O   0  5  0  0  0  0  0  0  0  0  0  0
    2.7900   -2.6164    3.4415 O   0  0  0  0  0  0  0  0  0  0  0  0
   -0.3650   -2.0952    1.8078 H   0  0  0  0  0  0  0  0  0  0  0  0
    1.4437   -0.8948    0.0346 H   0  0  0  0  0  0  0  0  0  0  0  0
    2.9307   -2.9401    0.6190 H   0  0  0  0  0  0  0  0  0  0  0  0
    1.5661   -3.5817    1.5247 H   0  0  0  0  0  0  0  0  0  0  0  0
    0.0095   -3.7461   -0.8788 N   0  0  0  0  0  0  0  0  0  0  0  0
   -0.3208   -4.6485   -1.9572 C   0  0  2  0  0  0  0  0  0  0  0  0
   -1.7371   -5.1588   -1.7263 C   0  0  0  0  0  0  0  0  0  0  0  0
   -2.2767   -5.1632   -0.6219 O   0  0  0  0  0  0  0  0  0  0  0  0
    0.6667   -5.8024   -2.0353 C   0  0  0  0  0  0  0  0  0  0  0  0
   -0.3831   -3.9407    0.0376 H   0  0  0  0  0  0  0  0  0  0  0  0
   -0.2896   -4.0615   -2.8816 H   0  0  0  0  0  0  0  0  0  0  0  0
    0.6497   -6.4020   -1.1179 H   0  0  0  0  0  0  0  0  0  0  0  0
    0.4317   -6.4699   -2.8708 H   0  0  0  0  0  0  0  0  0  0  0  0
    1.6886   -5.4323   -2.1715 H   0  0  0  0  0  0  0  0  0  0  0  0
   -2.3117   -5.6485   -2.8909 N   0  0  0  0  0  0  0  0  0  0  0  0
   -3.6459   -6.2001   -2.9297 C   0  0  0  0  0  0  0  0  0  0  0  0
   -1.7984   -5.5876   -3.7653 H   0  0  0  0  0  0  0  0  0  0  0  0
   -3.5978   -7.2886   -2.7782 H   0  0  0  0  0  0  0  0  0  0  0  0
   -4.2537   -5.7457   -2.1334 H   0  0  0  0  0  0  0  0  0  0  0  0
   -4.1028   -5.9860   -3.9072 H   0  0  0  0  0  0  0  0  0  0  0  0
  1  3  1  0  0  0  0
  1  7  1  0  0  0  0
  1  2  2  0  0  0  0
 30 31  1  0  0  0  0
 31 39  1  0  0  0  0
 31 32  2  0  0  0  0
  8  9  1  0  0  0  0
  9 17  1  0  0  0  0
  9 10  2  0  0  0  0
 18 19  1  0  0  0  0
 19 29  1  0  0  0  0
 19 20  2  0  0  0  0
 21 22  1  0  0  0  0
 22 23  1  0  0  0  0
 22 24  2  0  0  0  0
 30 33  1  0  0  0  0
  8 11  1  0  0  0  0
 39 40  1  0  0  0  0
 18 21  1  0  0  0  0
 29 30  1  0  0  0  0
  7  8  1  0  0  0  0
 17 18  1  0  0  0  0
  3  4  1  0  0  0  0
  3  5  1  0  0  0  0
  3  6  1  0  0  0  0
 33 36  1  0  0  0  0
 33 37  1  0  0  0  0
 33 38  1  0  0  0  0
 11 14  1  0  0  0  0
 11 15  1  0  0  0  0
 11 16  1  0  0  0  0
 40 42  1  0  0  0  0
 40 43  1  0  0  0  0
 40 44  1  0  0  0  0
 21 27  1  0  0  0  0
 21 28  1  0  0  0  0
 30 35  1  0  0  0  0
  8 13  1  0  0  0  0
 18 26  1  0  0  0  0
 39 41  1  0  0  0  0
  7 12  1  0  0  0  0
 29 34  1  0  0  0  0
 17 25  1  0  0  0  0
M  CHG  1  23  -1
M  END
$$$$

  -OEChem-02062319033D

 44 43  0     1  0  0  0  0  0999 V2000
   -4.0256   -1.8030   -2.1581 C   0  0  0  0  0  0  0  0  0  0  0  0
   -3.7513   -2.6782   -2.9709 O   0  0  0  0  0  0  0  0  0  0  0  0
   -5.3491   -1.1169   -2.2339 C   0  0  0  0  0  0  0  0  0  0  0  0
   -5.3223   -0.2211   -2.8750 H   0  0  0  0  0  0  0  0  0  0  0  0
   -6.1322   -1.7605   -2.6658 H   0  0  0  0  0  0  0  0  0  0  0  0
   -5.7568   -0.7715   -1.2704 H   0  0  0  0  0  0  0  0  0  0  0  0
   -3.2124   -1.3578   -1.1289 N   0  0  0  0  0  0  0  0  0  0  0  0
   -1.8971   -1.8843   -0.8752 C   0  0  2  0  0  0  0  0  0  0  0  0
   -1.2676   -1.0599    0.2399 C   0  0  0  0  0  0  0  0  0  0  0  0
   -1.6270    0.0833    0.5138 O   0  0  0  0  0  0  0  0  0  0  0  0
   -1.0364   -1.8506   -2.1285 C   0  0  0  0  0  0  0  0  0  0  0  0
   -3.5631   -0.6202   -0.5206 H   0  0  0  0  0  0  0  0  0  0  0  0
   -2.0301   -2.9174   -0.5360 H   0  0  0  0  0  0  0  0  0  0  0  0
   -0.8921   -0.8236   -2.4833 H   0  0  0  0  0  0  0  0  0  0  0  0
   -0.0457   -2.2777   -1.9410 H   0  0  0  0  0  0  0  0  0  0  0  0
   -1.5052   -2.4193   -2.9387 H   0  0  0  0  0  0  0  0  0  0  0  0
   -0.2267   -1.7335    0.8672 N   0  0  0  0  0  0  0  0  0  0  0  0
    1.1422   -1.6382    0.4264 C   0  0  2  0  0  0  0  0  0  0  0  0
    1.1886   -2.1444   -1.0107 C   0  0  0  0  0  0  0  0  0  0  0  0
    1.8355   -1.5892   -1.8965 O   0  0  0  0  0  0  0  0  0  0  0  0
    2.0819   -2.4526    1.3125 C   0  0  0  0  0  0  0  0  0  0  0  0
    2.2915   -1.9347    2.7412 C   0  0  0  0  0  0  0  0  0  0  0  0
    2.1694   -0.6809    2.8589 O   0  5  0  0  0  0  0  0  0  0  0  0
    2.5656   -2.7966    3.6204 O   0  0  0  0  0  0  0  0  0  0  0  0
   -0.4234   -2.2896    1.6959 H   0  0  0  0  0  0  0  0  0  0  0  0
    1.4052   -0.5745    0.4424 H   0  0  0  0  0  0  0  0  0  0  0  0
    3.0677   -2.5288    0.8334 H   0  0  0  0  0  0  0  0  0  0  0  0
    1.7032   -3.4786    1.4079 H   0  0  0  0  0  0  0  0  0  0  0  0
    0.4650   -3.3174   -1.1743 N   0  0  0  0  0  0  0  0  0  0  0  0
    0.3791   -4.0137   -2.4369 C   0  0  2  0  0  0  0  0  0  0  0  0
   -0.9763   -4.7051   -2.5015 C   0  0  0  0  0  0  0  0  0  0  0  0
   -1.6332   -4.9882   -1.5017 O   0  0  0  0  0  0  0  0  0  0  0  0
    1.5099   -5.0186   -2.5927 C   0  0  0  0  0  0  0  0  0  0  0  0
   -0.0010   -3.7325   -0.3728 H   0  0  0  0  0  0  0  0  0  0  0  0
    0.4393   -3.2526   -3.2225 H   0  0  0  0  0  0  0  0  0  0  0  0
    1.4661   -5.7891   -1.8143 H   0  0  0  0  0  0  0  0  0  0  0  0
    1.4598   -5.5251   -3.5622 H   0  0  0  0  0  0  0  0  0  0  0  0
    2.4842   -4.5240   -2.5162 H   0  0  0  0  0  0  0  0  0  0  0  0
   -1.3464   -5.0076   -3.8044 N   0  0  0  0  0  0  0  0  0  0  0  0
   -2.5850   -5.6764   -4.1278 C   0  0  0  0  0  0  0  0  0  0  0  0
   -0.7490   -4.7186   -4.5734 H   0  0  0  0  0  0  0  0  0  0  0  0
   -2.4142   -6.7620   -4.1767 H   0  0  0  0  0  0  0  0  0  0  0  0
   -3.3331   -5.4577   -3.3517 H   0  0  0  0  0  0  0  0  0  0  0  0
   -2.9513   -5.3188   -5.1014 H   0  0  0  0  0  0  0  0  0  0  0  0
  1  3  1  0  0  0  0
  1  7  1  0  0  0  0
  1  2  2  0  0  0  0
 30 31  1  0  0  0  0
 31 39  1  0  0  0  0
 31 32  2  0  0  0  0
  8  9  1  0  0  0  0
  9 17  1  0  0  0  0
  9 10  2  0  0  0  0
 18 19  1  0  0  0  0
 19 29  1  0  0  0  0
 19 20  2  0  0  0  0
 21 22  1  0  0  0  0
 22 23  1  0  0  0  0
 22 24  2  0  0  0  0
 30 33  1  0  0  0  0
  8 11  1  0  0  0  0
 39 40  1  0  0  0  0
 18 21  1  0  0  0  0
 29 30  1  0  0  0  0
  7  8  1  0  0  0  0
 17 18  1  0  0  0  0
  3  4  1  0  0  0  0
  3  5  1  0  0  0  0
  3  6  1  0  0  0  0
 33 36  1  0  0  0  0
 33 37  1  0  0  0  0
 33 38  1  0  0  0  0
 11 14  1  0  0  0  0
 11 15  1  0  0  0  0
 11 16  1  0  0  0  0
 40 42  1  0  0  0  0
 40 43  1  0  0  0  0
 40 44  1  0  0  0  0
 21 27  1  0  0  0  0
 21 28  1  0  0  0  0
 30 35  1  0  0  0  0
  8 13  1  0  0  0  0
 18 26  1  0  0  0  0
 39 41  1  0  0  0  0
  7 12  1  0  0  0  0
 29 34  1  0  0  0  0
 17 25  1  0  0  0  0
M  CHG  1  23  -1
M  END
$$$$

  -OEChem-02062319033D

 44 43  0     1  0  0  0  0  0999 V2000
   -4.0256   -1.8030   -2.1581 C   0  0  0  0  0  0  0  0  0  0  0  0
   -3.7513   -2.6782   -2.9709 O   0  0  0  0  0  0  0  0  0  0  0  0
   -5.3491   -1.1169   -2.2339 C   0  0  0  0  0  0  0  0  0  0  0  0
   -5.3223   -0.2211   -2.8750 H   0  0  0  0  0  0  0  0  0  0  0  0
   -6.1322   -1.7605   -2.6658 H   0  0  0  0  0  0  0  0  0  0  0  0
   -5.7568   -0.7715   -1.2704 H   0  0  0  0  0  0  0  0  0  0  0  0
   -3.2124   -1.3578   -1.1289 N   0  0  0  0  0  0  0  0  0  0  0  0
   -1.8971   -1.8843   -0.8752 C   0  0  2  0  0  0  0  0  0  0  0  0
   -1.2676   -1.0599    0.2399 C   0  0  0  0  0  0  0  0  0  0  0  0
   -1.6270    0.0833    0.5138 O   0  0  0  0  0  0  0  0  0  0  0  0
   -1.0364   -1.8506   -2.1285 C   0  0  0  0  0  0  0  0  0  0  0  0
   -3.5631   -0.6202   -0.5206 H   0  0  0  0  0  0  0  0  0  0  0  0
   -2.0301   -2.9174   -0.5360 H   0  0  0  0  0  0  0  0  0  0  0  0
   -0.8921   -0.8236   -2.4833 H   0  0  0  0  0  0  0  0  0  0  0  0
   -0.0457   -2.2777   -1.9410 H   0  0  0  0  0  0  0  0  0  0  0  0
   -1.5052   -2.4193   -2.9387 H   0  0  0  0  0  0  0  0  0  0  0  0
   -0.2267   -1.7335    0.8672 N   0  0  0  0  0  0  0  0  0  0  0  0
    1.1596   -1.4090    0.6437 C   0  0  2  0  0  0  0  0  0  0  0  0
    1.4345   -1.6078   -0.8425 C   0  0  0  0  0  0  0  0  0  0  0  0
    2.1010   -0.8211   -1.5121 O   0  0  0  0  0  0  0  0  0  0  0  0
    2.0896   -2.2823    1.4827 C   0  0  0  0  0  0  0  0  0  0  0  0
    2.0663   -2.0437    2.9978 C   0  0  0  0  0  0  0  0  0  0  0  0
    1.7705   -0.8590    3.3294 O   0  5  0  0  0  0  0  0  0  0  0  0
    2.3475   -3.0315    3.7301 O   0  0  0  0  0  0  0  0  0  0  0  0
   -0.4430   -2.4625    1.5428 H   0  0  0  0  0  0  0  0  0  0  0  0
    1.2794   -0.3487    0.8936 H   0  0  0  0  0  0  0  0  0  0  0  0
    3.1250   -2.1572    1.1374 H   0  0  0  0  0  0  0  0  0  0  0  0
    1.8382   -3.3404    1.3323 H   0  0  0  0  0  0  0  0  0  0  0  0
    0.8920   -2.7928   -1.3194 N   0  0  0  0  0  0  0  0  0  0  0  0
    1.0412   -3.2257   -2.6894 C   0  0  2  0  0  0  0  0  0  0  0  0
   -0.1973   -4.0277   -3.0667 C   0  0  0  0  0  0  0  0  0  0  0  0
   -0.9217   -4.5733   -2.2369 O   0  0  0  0  0  0  0  0  0  0  0  0
    2.3026   -4.0550   -2.8733 C   0  0  0  0  0  0  0  0  0  0  0  0
    0.3952   -3.4071   -0.6809 H   0  0  0  0  0  0  0  0  0  0  0  0
    1.0917   -2.3200   -3.3035 H   0  0  0  0  0  0  0  0  0  0  0  0
    2.2704   -4.9667   -2.2657 H   0  0  0  0  0  0  0  0  0  0  0  0
    2.4293   -4.3583   -3.9178 H   0  0  0  0  0  0  0  0  0  0  0  0
    3.1898   -3.4868   -2.5732 H   0  0  0  0  0  0  0  0  0  0  0  0
   -0.3742   -4.0986   -4.4415 N   0  0  0  0  0  0  0  0  0  0  0  0
   -1.4710   -4.8143   -5.0505 C   0  0  0  0  0  0  0  0  0  0  0  0
    0.2646   -3.6000   -5.0539 H   0  0  0  0  0  0  0  0  0  0  0  0
   -1.1569   -5.8439   -5.2770 H   0  0  0  0  0  0  0  0  0  0  0  0
   -2.3247   -4.8357   -4.3571 H   0  0  0  0  0  0  0  0  0  0  0  0
   -1.7671   -4.3082   -5.9812 H   0  0  0  0  0  0  0  0  0  0  0  0
  1  3  1  0  0  0  0
  1  7  1  0  0  0  0
  1  2  2  0  0  0  0
 30 31  1  0  0  0  0
 31 39  1  0  0  0  0
 31 32  2  0  0  0  0
  8  9  1  0  0  0  0
  9 17  1  0  0  0  0
  9 10  2  0  0  0  0
 18 19  1  0  0  0  0
 19 29  1  0  0  0  0
 19 20  2  0  0  0  0
 21 22  1  0  0  0  0
 22 23  1  0  0  0  0
 22 24  2  0  0  0  0
 30 33  1  0  0  0  0
  8 11  1  0  0  0  0
 39 40  1  0  0  0  0
 18 21  1  0  0  0  0
 29 30  1  0  0  0  0
  7  8  1  0  0  0  0
 17 18  1  0  0  0  0
  3  4  1  0  0  0  0
  3  5  1  0  0  0  0
  3  6  1  0  0  0  0
 33 36  1  0  0  0  0
 33 37  1  0  0  0  0
 33 38  1  0  0  0  0
 11 14  1  0  0  0  0
 11 15  1  0  0  0  0
 11 16  1  0  0  0  0
 40 42  1  0  0  0  0
 40 43  1  0  0  0  0
 40 44  1  0  0  0  0
 21 27  1  0  0  0  0
 21 28  1  0  0  0  0
 30 35  1  0  0  0  0
  8 13  1  0  0  0  0
 18 26  1  0  0  0  0
 39 41  1  0  0  0  0
  7 12  1  0  0  0  0
 29 34  1  0  0  0  0
 17 25  1  0  0  0  0
M  CHG  1  23  -1
M  END
$$$$

  -OEChem-02062319033D

 44 43  0     1  0  0  0  0  0999 V2000
   -4.0256   -1.8030   -2.1581 C   0  0  0  0  0  0  0  0  0  0  0  0
   -3.7513   -2.6782   -2.9709 O   0  0  0  0  0  0  0  0  0  0  0  0
   -5.3491   -1.1169   -2.2339 C   0  0  0  0  0  0  0  0  0  0  0  0
   -5.3223   -0.2211   -2.8750 H   0  0  0  0  0  0  0  0  0  0  0  0
   -6.1322   -1.7605   -2.6658 H   0  0  0  0  0  0  0  0  0  0  0  0
   -5.7568   -0.7715   -1.2704 H   0  0  0  0  0  0  0  0  0  0  0  0
   -3.2124   -1.3578   -1.1289 N   0  0  0  0  0  0  0  0  0  0  0  0
   -1.8971   -1.8843   -0.8752 C   0  0  2  0  0  0  0  0  0  0  0  0
   -1.2676   -1.0599    0.2399 C   0  0  0  0  0  0  0  0  0  0  0  0
   -1.6270    0.0833    0.5138 O   0  0  0  0  0  0  0  0  0  0  0  0
   -1.0364   -1.8506   -2.1285 C   0  0  0  0  0  0  0  0  0  0  0  0
   -3.5631   -0.6202   -0.5206 H   0  0  0  0  0  0  0  0  0  0  0  0
   -2.0301   -2.9174   -0.5360 H   0  0  0  0  0  0  0  0  0  0  0  0
   -0.8921   -0.8236   -2.4833 H   0  0  0  0  0  0  0  0  0  0  0  0
   -0.0457   -2.2777   -1.9410 H   0  0  0  0  0  0  0  0  0  0  0  0
   -1.5052   -2.4193   -2.9387 H   0  0  0  0  0  0  0  0  0  0  0  0
   -0.2267   -1.7335    0.8672 N   0  0  0  0  0  0  0  0  0  0  0  0
    1.1224   -1.2276    0.9002 C   0  0  2  0  0  0  0  0  0  0  0  0
    1.5883   -1.0933   -0.5450 C   0  0  0  0  0  0  0  0  0  0  0  0
    2.2194   -0.1227   -0.9585 O   0  0  0  0  0  0  0  0  0  0  0  0
    2.0557   -2.1500    1.6810 C   0  0  0  0  0  0  0  0  0  0  0  0
    1.8293   -2.2251    3.1964 C   0  0  0  0  0  0  0  0  0  0  0  0
    1.3471   -1.1689    3.6992 O   0  5  0  0  0  0  0  0  0  0  0  0
    2.1505   -3.3052    3.7631 O   0  0  0  0  0  0  0  0  0  0  0  0
   -0.4226   -2.6021    1.3589 H   0  0  0  0  0  0  0  0  0  0  0  0
    1.0750   -0.2328    1.3574 H   0  0  0  0  0  0  0  0  0  0  0  0
    3.0988   -1.8504    1.5103 H   0  0  0  0  0  0  0  0  0  0  0  0
    1.9619   -3.1765    1.3030 H   0  0  0  0  0  0  0  0  0  0  0  0
    1.2613   -2.2081   -1.3043 N   0  0  0  0  0  0  0  0  0  0  0  0
    1.6203   -2.3383   -2.6973 C   0  0  2  0  0  0  0  0  0  0  0  0
    0.5470   -3.1728   -3.3837 C   0  0  0  0  0  0  0  0  0  0  0  0
   -0.1907   -3.9469   -2.7773 O   0  0  0  0  0  0  0  0  0  0  0  0
    2.9910   -2.9771   -2.8581 C   0  0  0  0  0  0  0  0  0  0  0  0
    0.7786   -2.9869   -0.8658 H   0  0  0  0  0  0  0  0  0  0  0  0
    1.6230   -1.3273   -3.1191 H   0  0  0  0  0  0  0  0  0  0  0  0
    3.0078   -3.9908   -2.4413 H   0  0  0  0  0  0  0  0  0  0  0  0
    3.2740   -3.0490   -3.9135 H   0  0  0  0  0  0  0  0  0  0  0  0
    3.7573   -2.3915   -2.3387 H   0  0  0  0  0  0  0  0  0  0  0  0
    0.5385   -2.9836   -4.7586 N   0  0  0  0  0  0  0  0  0  0  0  0
   -0.3800   -3.6725   -5.6347 C   0  0  0  0  0  0  0  0  0  0  0  0
    1.1731   -2.3079   -5.1739 H   0  0  0  0  0  0  0  0  0  0  0  0
    0.0883   -4.5968   -6.0040 H   0  0  0  0  0  0  0  0  0  0  0  0
   -1.2972   -3.9221   -5.0811 H   0  0  0  0  0  0  0  0  0  0  0  0
   -0.6310   -3.0232   -6.4864 H   0  0  0  0  0  0  0  0  0  0  0  0
  1  3  1  0  0  0  0
  1  7  1  0  0  0  0
  1  2  2  0  0  0  0
 30 31  1  0  0  0  0
 31 39  1  0  0  0  0
 31 32  2  0  0  0  0
  8  9  1  0  0  0  0
  9 17  1  0  0  0  0
  9 10  2  0  0  0  0
 18 19  1  0  0  0  0
 19 29  1  0  0  0  0
 19 20  2  0  0  0  0
 21 22  1  0  0  0  0
 22 23  1  0  0  0  0
 22 24  2  0  0  0  0
 30 33  1  0  0  0  0
  8 11  1  0  0  0  0
 39 40  1  0  0  0  0
 18 21  1  0  0  0  0
 29 30  1  0  0  0  0
  7  8  1  0  0  0  0
 17 18  1  0  0  0  0
  3  4  1  0  0  0  0
  3  5  1  0  0  0  0
  3  6  1  0  0  0  0
 33 36  1  0  0  0  0
 33 37  1  0  0  0  0
 33 38  1  0  0  0  0
 11 14  1  0  0  0  0
 11 15  1  0  0  0  0
 11 16  1  0  0  0  0
 40 42  1  0  0  0  0
 40 43  1  0  0  0  0
 40 44  1  0  0  0  0
 21 27  1  0  0  0  0
 21 28  1  0  0  0  0
 30 35  1  0  0  0  0
  8 13  1  0  0  0  0
 18 26  1  0  0  0  0
 39 41  1  0  0  0  0
  7 12  1  0  0  0  0
 29 34  1  0  0  0  0
 17 25  1  0  0  0  0
M  CHG  1  23  -1
M  END
$$$$

  -OEChem-02062319033D

 44 43  0     1  0  0  0  0  0999 V2000
   -4.0256   -1.8030   -2.1581 C   0  0  0  0  0  0  0  0  0  0  0  0
   -3.7513   -2.6782   -2.9709 O   0  0  0  0  0  0  0  0  0  0  0  0
   -5.3491   -1.1169   -2.2339 C   0  0  0  0  0  0  0  0  0  0  0  0
   -5.3223   -0.2211   -2.8750 H   0  0  0  0  0  0  0  0  0  0  0  0
   -6.1322   -1.7605   -2.6658 H   0  0  0  0  0  0  0  0  0  0  0  0
   -5.7568   -0.7715   -1.2704 H   0  0  0  0  0  0  0  0  0  0  0  0
   -3.2124   -1.3578   -1.1289 N   0  0  0  0  0  0  0  0  0  0  0  0
   -1.8971   -1.8843   -0.8752 C   0  0  2  0  0  0  0  0  0  0  0  0
   -1.2676   -1.0599    0.2399 C   0  0  0  0  0  0  0  0  0  0  0  0
   -1.6270    0.0833    0.5138 O   0  0  0  0  0  0  0  0  0  0  0  0
   -1.0364   -1.8506   -2.1285 C   0  0  0  0  0  0  0  0  0  0  0  0
   -3.5631   -0.6202   -0.5206 H   0  0  0  0  0  0  0  0  0  0  0  0
   -2.0301   -2.9174   -0.5360 H   0  0  0  0  0  0  0  0  0  0  0  0
   -0.8921   -0.8236   -2.4833 H   0  0  0  0  0  0  0  0  0  0  0  0
   -0.0457   -2.2777   -1.9410 H   0  0  0  0  0  0  0  0  0  0  0  0
   -1.5052   -2.4193   -2.9387 H   0  0  0  0  0  0  0  0  0  0  0  0
   -0.2267   -1.7335    0.8672 N   0  0  0  0  0  0  0  0  0  0  0  0
    1.0331   -1.1065    1.1784 C   0  0  2  0  0  0  0  0  0  0  0  0
    1.6393   -0.6360   -0.1387 C   0  0  0  0  0  0  0  0  0  0  0  0
    2.1827    0.4584   -0.2736 O   0  0  0  0  0  0  0  0  0  0  0  0
    1.9827   -2.0646    1.8940 C   0  0  0  0  0  0  0  0  0  0  0  0
    1.5966   -2.4665    3.3232 C   0  0  0  0  0  0  0  0  0  0  0  0
    0.9279   -1.5894    3.9433 O   0  5  0  0  0  0  0  0  0  0  0  0
    1.9880   -3.5989    3.7172 O   0  0  0  0  0  0  0  0  0  0  0  0
   -0.3634   -2.6990    1.1568 H   0  0  0  0  0  0  0  0  0  0  0  0
    0.8057   -0.2346    1.8022 H   0  0  0  0  0  0  0  0  0  0  0  0
    2.9909   -1.6294    1.9266 H   0  0  0  0  0  0  0  0  0  0  0  0
    2.0660   -2.9980    1.3220 H   0  0  0  0  0  0  0  0  0  0  0  0
    1.5478   -1.6031   -1.1300 N   0  0  0  0  0  0  0  0  0  0  0  0
    2.0771   -1.4119   -2.4603 C   0  0  2  0  0  0  0  0  0  0  0  0
    1.2058   -2.1986   -3.4307 C   0  0  0  0  0  0  0  0  0  0  0  0
    0.5101   -3.1517   -3.0861 O   0  0  0  0  0  0  0  0  0  0  0  0
    3.5281   -1.8585   -2.5480 C   0  0  0  0  0  0  0  0  0  0  0  0
    1.1230   -2.5003   -0.9147 H   0  0  0  0  0  0  0  0  0  0  0  0
    1.9971   -0.3420   -2.6818 H   0  0  0  0  0  0  0  0  0  0  0  0
    3.6281   -2.9279   -2.3292 H   0  0  0  0  0  0  0  0  0  0  0  0
    3.9364   -1.6865   -3.5494 H   0  0  0  0  0  0  0  0  0  0  0  0
    4.1480   -1.3127   -1.8286 H   0  0  0  0  0  0  0  0  0  0  0  0
    1.3297   -1.7383   -4.7341 N   0  0  0  0  0  0  0  0  0  0  0  0
    0.6138   -2.3289   -5.8408 C   0  0  0  0  0  0  0  0  0  0  0  0
    1.9148   -0.9304   -4.9253 H   0  0  0  0  0  0  0  0  0  0  0  0
    1.2365   -3.1058   -6.3083 H   0  0  0  0  0  0  0  0  0  0  0  0
   -0.3205   -2.7793   -5.4744 H   0  0  0  0  0  0  0  0  0  0  0  0
    0.3797   -1.5512   -6.5827 H   0  0  0  0  0  0  0  0  0  0  0  0
  1  3  1  0  0  0  0
  1  7  1  0  0  0  0
  1  2  2  0  0  0  0
 30 31  1  0  0  0  0
 31 39  1  0  0  0  0
 31 32  2  0  0  0  0
  8  9  1  0  0  0  0
  9 17  1  0  0  0  0
  9 10  2  0  0  0  0
 18 19  1  0  0  0  0
 19 29  1  0  0  0  0
 19 20  2  0  0  0  0
 21 22  1  0  0  0  0
 22 23  1  0  0  0  0
 22 24  2  0  0  0  0
 30 33  1  0  0  0  0
  8 11  1  0  0  0  0
 39 40  1  0  0  0  0
 18 21  1  0  0  0  0
 29 30  1  0  0  0  0
  7  8  1  0  0  0  0
 17 18  1  0  0  0  0
  3  4  1  0  0  0  0
  3  5  1  0  0  0  0
  3  6  1  0  0  0  0
 33 36  1  0  0  0  0
 33 37  1  0  0  0  0
 33 38  1  0  0  0  0
 11 14  1  0  0  0  0
 11 15  1  0  0  0  0
 11 16  1  0  0  0  0
 40 42  1  0  0  0  0
 40 43  1  0  0  0  0
 40 44  1  0  0  0  0
 21 27  1  0  0  0  0
 21 28  1  0  0  0  0
 30 35  1  0  0  0  0
  8 13  1  0  0  0  0
 18 26  1  0  0  0  0
 39 41  1  0  0  0  0
  7 12  1  0  0  0  0
 29 34  1  0  0  0  0
 17 25  1  0  0  0  0
M  CHG  1  23  -1
M  END
$$$$

  -OEChem-02062319033D

 44 43  0     1  0  0  0  0  0999 V2000
   -4.0256   -1.8030   -2.1581 C   0  0  0  0  0  0  0  0  0  0  0  0
   -3.7513   -2.6782   -2.9709 O   0  0  0  0  0  0  0  0  0  0  0  0
   -5.3491   -1.1169   -2.2339 C   0  0  0  0  0  0  0  0  0  0  0  0
   -5.3223   -0.2211   -2.8750 H   0  0  0  0  0  0  0  0  0  0  0  0
   -6.1322   -1.7605   -2.6658 H   0  0  0  0  0  0  0  0  0  0  0  0
   -5.7568   -0.7715   -1.2704 H   0  0  0  0  0  0  0  0  0  0  0  0
   -3.2124   -1.3578   -1.1289 N   0  0  0  0  0  0  0  0  0  0  0  0
   -1.8971   -1.8843   -0.8752 C   0  0  2  0  0  0  0  0  0  0  0  0
   -1.2676   -1.0599    0.2399 C   0  0  0  0  0  0  0  0  0  0  0  0
   -1.6270    0.0833    0.5138 O   0  0  0  0  0  0  0  0  0  0  0  0
   -1.0364   -1.8506   -2.1285 C   0  0  0  0  0  0  0  0  0  0  0  0
   -3.5631   -0.6202   -0.5206 H   0  0  0  0  0  0  0  0  0  0  0  0
   -2.0301   -2.9174   -0.5360 H   0  0  0  0  0  0  0  0  0  0  0  0
   -0.8921   -0.8236   -2.4833 H   0  0  0  0  0  0  0  0  0  0  0  0
   -0.0457   -2.2777   -1.9410 H   0  0  0  0  0  0  0  0  0  0  0  0
   -1.5052   -2.4193   -2.9387 H   0  0  0  0  0  0  0  0  0  0  0  0
   -0.2267   -1.7335    0.8672 N   0  0  0  0  0  0  0  0  0  0  0  0
    0.8978   -1.0539    1.4595 C   0  0  2  0  0  0  0  0  0  0  0  0
    1.5842   -0.2672    0.3488 C   0  0  0  0  0  0  0  0  0  0  0  0
    1.9934    0.8826    0.4961 O   0  0  0  0  0  0  0  0  0  0  0  0
    1.8754   -2.0319    2.1071 C   0  0  0  0  0  0  0  0  0  0  0  0
    1.3842   -2.7514    3.3697 C   0  0  0  0  0  0  0  0  0  0  0  0
    0.5414   -2.0919    4.0448 O   0  5  0  0  0  0  0  0  0  0  0  0
    1.8712   -3.8928    3.5955 O   0  0  0  0  0  0  0  0  0  0  0  0
   -0.2697   -2.7464    0.9503 H   0  0  0  0  0  0  0  0  0  0  0  0
    0.4901   -0.3541    2.1977 H   0  0  0  0  0  0  0  0  0  0  0  0
    2.8086   -1.5093    2.3581 H   0  0  0  0  0  0  0  0  0  0  0  0
    2.1433   -2.8171    1.3881 H   0  0  0  0  0  0  0  0  0  0  0  0
    1.7320   -1.0190   -0.8084 N   0  0  0  0  0  0  0  0  0  0  0  0
    2.3802   -0.5097   -1.9945 C   0  0  2  0  0  0  0  0  0  0  0  0
    1.7342   -1.1715   -3.2045 C   0  0  0  0  0  0  0  0  0  0  0  0
    1.1328   -2.2418   -3.1423 O   0  0  0  0  0  0  0  0  0  0  0  0
    3.8773   -0.7754   -1.9643 C   0  0  0  0  0  0  0  0  0  0  0  0
    1.4049   -1.9805   -0.8244 H   0  0  0  0  0  0  0  0  0  0  0  0
    2.1885    0.5685   -2.0214 H   0  0  0  0  0  0  0  0  0  0  0  0
    4.0890   -1.8505   -1.9371 H   0  0  0  0  0  0  0  0  0  0  0  0
    4.3714   -0.3636   -2.8504 H   0  0  0  0  0  0  0  0  0  0  0  0
    4.3354   -0.3239   -1.0776 H   0  0  0  0  0  0  0  0  0  0  0  0
    1.9453   -0.4479   -4.3698 N   0  0  0  0  0  0  0  0  0  0  0  0
    1.4426   -0.8750   -5.6547 C   0  0  0  0  0  0  0  0  0  0  0  0
    2.4391    0.4387   -4.3250 H   0  0  0  0  0  0  0  0  0  0  0  0
    2.2097   -1.4725   -6.1690 H   0  0  0  0  0  0  0  0  0  0  0  0
    0.5387   -1.4850   -5.5102 H   0  0  0  0  0  0  0  0  0  0  0  0
    1.1960    0.0073   -6.2635 H   0  0  0  0  0  0  0  0  0  0  0  0
  1  3  1  0  0  0  0
  1  7  1  0  0  0  0
  1  2  2  0  0  0  0
 30 31  1  0  0  0  0
 31 39  1  0  0  0  0
 31 32  2  0  0  0  0
  8  9  1  0  0  0  0
  9 17  1  0  0  0  0
  9 10  2  0  0  0  0
 18 19  1  0  0  0  0
 19 29  1  0  0  0  0
 19 20  2  0  0  0  0
 21 22  1  0  0  0  0
 22 23  1  0  0  0  0
 22 24  2  0  0  0  0
 30 33  1  0  0  0  0
  8 11  1  0  0  0  0
 39 40  1  0  0  0  0
 18 21  1  0  0  0  0
 29 30  1  0  0  0  0
  7  8  1  0  0  0  0
 17 18  1  0  0  0  0
  3  4  1  0  0  0  0
  3  5  1  0  0  0  0
  3  6  1  0  0  0  0
 33 36  1  0  0  0  0
 33 37  1  0  0  0  0
 33 38  1  0  0  0  0
 11 14  1  0  0  0  0
 11 15  1  0  0  0  0
 11 16  1  0  0  0  0
 40 42  1  0  0  0  0
 40 43  1  0  0  0  0
 40 44  1  0  0  0  0
 21 27  1  0  0  0  0
 21 28  1  0  0  0  0
 30 35  1  0  0  0  0
  8 13  1  0  0  0  0
 18 26  1  0  0  0  0
 39 41  1  0  0  0  0
  7 12  1  0  0  0  0
 29 34  1  0  0  0  0
 17 25  1  0  0  0  0
M  CHG  1  23  -1
M  END
$$$$

  -OEChem-02062319033D

 44 43  0     1  0  0  0  0  0999 V2000
   -4.0256   -1.8030   -2.1581 C   0  0  0  0  0  0  0  0  0  0  0  0
   -3.7513   -2.6782   -2.9709 O   0  0  0  0  0  0  0  0  0  0  0  0
   -5.3491   -1.1169   -2.2339 C   0  0  0  0  0  0  0  0  0  0  0  0
   -5.3223   -0.2211   -2.8750 H   0  0  0  0  0  0  0  0  0  0  0  0
   -6.1322   -1.7605   -2.6658 H   0  0  0  0  0  0  0  0  0  0  0  0
   -5.7568   -0.7715   -1.2704 H   0  0  0  0  0  0  0  0  0  0  0  0
   -3.2124   -1.3578   -1.1289 N   0  0  0  0  0  0  0  0  0  0  0  0
   -1.8971   -1.8843   -0.8752 C   0  0  2  0  0  0  0  0  0  0  0  0
   -1.2676   -1.0599    0.2399 C   0  0  0  0  0  0  0  0  0  0  0  0
   -1.6270    0.0833    0.5138 O   0  0  0  0  0  0  0  0  0  0  0  0
   -1.0364   -1.8506   -2.1285 C   0  0  0  0  0  0  0  0  0  0  0  0
   -3.5631   -0.6202   -0.5206 H   0  0  0  0  0  0  0  0  0  0  0  0
   -2.0301   -2.9174   -0.5360 H   0  0  0  0  0  0  0  0  0  0  0  0
   -0.8921   -0.8236   -2.4833 H   0  0  0  0  0  0  0  0  0  0  0  0
   -0.0457   -2.2777   -1.9410 H   0  0  0  0  0  0  0  0  0  0  0  0
   -1.5052   -2.4193   -2.9387 H   0  0  0  0  0  0  0  0  0  0  0  0
   -0.2267   -1.7335    0.8672 N   0  0  0  0  0  0  0  0  0  0  0  0
    0.7257   -1.0734    1.7242 C   0  0  2  0  0  0  0  0  0  0  0  0
    1.4267   -0.0119    0.8844 C   0  0  0  0  0  0  0  0  0  0  0  0
    1.6645    1.1211    1.2980 O   0  0  0  0  0  0  0  0  0  0  0  0
    1.7412   -2.0542    2.3058 C   0  0  0  0  0  0  0  0  0  0  0  0
    1.2064   -3.0605    3.3328 C   0  0  0  0  0  0  0  0  0  0  0  0
    0.2142   -2.6421    3.9971 O   0  5  0  0  0  0  0  0  0  0  0  0
    1.8079   -4.1667    3.4064 O   0  0  0  0  0  0  0  0  0  0  0  0
   -0.1476   -2.7412    0.7533 H   0  0  0  0  0  0  0  0  0  0  0  0
    0.1495   -0.5831    2.5170 H   0  0  0  0  0  0  0  0  0  0  0  0
    2.5644   -1.4983    2.7753 H   0  0  0  0  0  0  0  0  0  0  0  0
    2.1885   -2.6461    1.4966 H   0  0  0  0  0  0  0  0  0  0  0  0
    1.8013   -0.4957   -0.3614 N   0  0  0  0  0  0  0  0  0  0  0  0
    2.5092    0.3069   -1.3315 C   0  0  2  0  0  0  0  0  0  0  0  0
    2.0963   -0.1615   -2.7206 C   0  0  0  0  0  0  0  0  0  0  0  0
    1.6351   -1.2792   -2.9420 O   0  0  0  0  0  0  0  0  0  0  0  0
    4.0148    0.1984   -1.1466 C   0  0  0  0  0  0  0  0  0  0  0  0
    1.6052   -1.4631   -0.6010 H   0  0  0  0  0  0  0  0  0  0  0  0
    2.1841    1.3424   -1.1830 H   0  0  0  0  0  0  0  0  0  0  0  0
    4.3592   -0.8320   -1.2915 H   0  0  0  0  0  0  0  0  0  0  0  0
    4.5492    0.8296   -1.8643 H   0  0  0  0  0  0  0  0  0  0  0  0
    4.3067    0.5075   -0.1371 H   0  0  0  0  0  0  0  0  0  0  0  0
    2.3435    0.7999   -3.6905 N   0  0  0  0  0  0  0  0  0  0  0  0
    2.0499    0.5901   -5.0890 C   0  0  0  0  0  0  0  0  0  0  0  0
    2.7102    1.7059   -3.4140 H   0  0  0  0  0  0  0  0  0  0  0  0
    2.9413    0.1919   -5.5956 H   0  0  0  0  0  0  0  0  0  0  0  0
    1.2219   -0.1275   -5.1860 H   0  0  0  0  0  0  0  0  0  0  0  0
    1.7624    1.5463   -5.5506 H   0  0  0  0  0  0  0  0  0  0  0  0
  1  3  1  0  0  0  0
  1  7  1  0  0  0  0
  1  2  2  0  0  0  0
 30 31  1  0  0  0  0
 31 39  1  0  0  0  0
 31 32  2  0  0  0  0
  8  9  1  0  0  0  0
  9 17  1  0  0  0  0
  9 10  2  0  0  0  0
 18 19  1  0  0  0  0
 19 29  1  0  0  0  0
 19 20  2  0  0  0  0
 21 22  1  0  0  0  0
 22 23  1  0  0  0  0
 22 24  2  0  0  0  0
 30 33  1  0  0  0  0
  8 11  1  0  0  0  0
 39 40  1  0  0  0  0
 18 21  1  0  0  0  0
 29 30  1  0  0  0  0
  7  8  1  0  0  0  0
 17 18  1  0  0  0  0
  3  4  1  0  0  0  0
  3  5  1  0  0  0  0
  3  6  1  0  0  0  0
 33 36  1  0  0  0  0
 33 37  1  0  0  0  0
 33 38  1  0  0  0  0
 11 14  1  0  0  0  0
 11 15  1  0  0  0  0
 11 16  1  0  0  0  0
 40 42  1  0  0  0  0
 40 43  1  0  0  0  0
 40 44  1  0  0  0  0
 21 27  1  0  0  0  0
 21 28  1  0  0  0  0
 30 35  1  0  0  0  0
  8 13  1  0  0  0  0
 18 26  1  0  0  0  0
 39 41  1  0  0  0  0
  7 12  1  0  0  0  0
 29 34  1  0  0  0  0
 17 25  1  0  0  0  0
M  CHG  1  23  -1
M  END
$$$$
