
  -OEChem-02062319053D

 44 43  0     1  0  0  0  0  0999 V2000
   -3.8679   -1.0369   -1.9100 C   0  0  0  0  0  0  0  0  0  0  0  0
   -4.0892   -2.2374   -1.9228 O   0  0  0  0  0  0  0  0  0  0  0  0
   -4.8392   -0.0798   -2.5764 C   0  0  0  0  0  0  0  0  0  0  0  0
   -4.3414    0.4445   -3.3958 H   0  0  0  0  0  0  0  0  0  0  0  0
   -5.6960   -0.6285   -2.9768 H   0  0  0  0  0  0  0  0  0  0  0  0
   -5.1992    0.6525   -1.8493 H   0  0  0  0  0  0  0  0  0  0  0  0
   -2.7420   -0.5365   -1.2938 N   0  0  0  0  0  0  0  0  0  0  0  0
   -1.8216   -1.3189   -0.4578 C   0  0  2  0  0  0  0  0  0  0  0  0
   -1.1374   -0.4141    0.5894 C   0  0  0  0  0  0  0  0  0  0  0  0
   -1.2428    0.8063    0.4974 O   0  0  0  0  0  0  0  0  0  0  0  0
   -0.7764   -1.9810   -1.3625 C   0  0  0  0  0  0  0  0  0  0  0  0
   -2.6709    0.4766   -1.2051 H   0  0  0  0  0  0  0  0  0  0  0  0
   -2.3755   -2.0930    0.0854 H   0  0  0  0  0  0  0  0  0  0  0  0
   -0.1946   -1.2213   -1.8945 H   0  0  0  0  0  0  0  0  0  0  0  0
   -0.0916   -2.5969   -0.7712 H   0  0  0  0  0  0  0  0  0  0  0  0
   -1.2659   -2.6260   -2.0989 H   0  0  0  0  0  0  0  0  0  0  0  0
   -0.2817   -0.9479    1.5296 N   0  0  0  0  0  0  0  0  0  0  0  0
    0.4219   -0.1861    2.5724 C   0  0  2  0  0  0  0  0  0  0  0  0
    1.3561    0.8949    1.9906 C   0  0  0  0  0  0  0  0  0  0  0  0
    1.3812    2.0334    2.4406 O   0  0  0  0  0  0  0  0  0  0  0  0
    1.2471   -1.1889    3.4054 C   0  0  0  0  0  0  0  0  0  0  0  0
    0.4133   -2.3639    3.9049 C   0  0  0  0  0  0  0  0  0  0  0  0
    0.1118   -2.4075    5.1183 O   0  5  0  0  0  0  0  0  0  0  0  0
    0.0309   -3.1926    3.0350 O   0  0  0  0  0  0  0  0  0  0  0  0
   -0.3508   -1.9623    1.6964 H   0  0  0  0  0  0  0  0  0  0  0  0
   -0.3118    0.3050    3.2214 H   0  0  0  0  0  0  0  0  0  0  0  0
    1.6833   -0.6708    4.2644 H   0  0  0  0  0  0  0  0  0  0  0  0
    2.0714   -1.5866    2.8074 H   0  0  0  0  0  0  0  0  0  0  0  0
    2.1748    0.5688    0.9250 N   0  0  0  0  0  0  0  0  0  0  0  0
    2.9690    1.5360    0.1538 C   0  0  2  0  0  0  0  0  0  0  0  0
    2.2312    2.0485   -1.1086 C   0  0  0  0  0  0  0  0  0  0  0  0
    2.8596    2.4180   -2.0959 O   0  0  0  0  0  0  0  0  0  0  0  0
    4.2963    0.8464   -0.1819 C   0  0  0  0  0  0  0  0  0  0  0  0
    2.0547   -0.3697    0.5554 H   0  0  0  0  0  0  0  0  0  0  0  0
    3.1913    2.4126    0.7711 H   0  0  0  0  0  0  0  0  0  0  0  0
    4.1279   -0.0091   -0.8433 H   0  0  0  0  0  0  0  0  0  0  0  0
    4.9738    1.5454   -0.6820 H   0  0  0  0  0  0  0  0  0  0  0  0
    4.7817    0.4932    0.7333 H   0  0  0  0  0  0  0  0  0  0  0  0
    0.8491    2.0502   -1.1683 N   0  0  0  0  0  0  0  0  0  0  0  0
    0.0847    2.4999   -2.3211 C   0  0  0  0  0  0  0  0  0  0  0  0
    0.3403    1.7746   -0.3225 H   0  0  0  0  0  0  0  0  0  0  0  0
    0.3159    3.5453   -2.5496 H   0  0  0  0  0  0  0  0  0  0  0  0
    0.3154    1.8846   -3.1966 H   0  0  0  0  0  0  0  0  0  0  0  0
   -0.9864    2.4189   -2.1126 H   0  0  0  0  0  0  0  0  0  0  0  0
  1  2  2  0  0  0  0
  1  3  1  0  0  0  0
  1  7  1  0  0  0  0
  3  4  1  0  0  0  0
  3  5  1  0  0  0  0
  3  6  1  0  0  0  0
  7  8  1  0  0  0  0
  7 12  1  0  0  0  0
  8  9  1  0  0  0  0
  8 11  1  0  0  0  0
  8 13  1  0  0  0  0
  9 10  2  0  0  0  0
  9 17  1  0  0  0  0
 11 14  1  0  0  0  0
 11 15  1  0  0  0  0
 11 16  1  0  0  0  0
 17 18  1  0  0  0  0
 17 25  1  0  0  0  0
 18 19  1  0  0  0  0
 18 21  1  0  0  0  0
 18 26  1  0  0  0  0
 19 20  2  0  0  0  0
 19 29  1  0  0  0  0
 21 22  1  0  0  0  0
 21 27  1  0  0  0  0
 21 28  1  0  0  0  0
 22 23  1  0  0  0  0
 22 24  2  0  0  0  0
 29 30  1  0  0  0  0
 29 34  1  0  0  0  0
 30 31  1  0  0  0  0
 30 33  1  0  0  0  0
 30 35  1  0  0  0  0
 31 32  2  0  0  0  0
 31 39  1  0  0  0  0
 33 36  1  0  0  0  0
 33 37  1  0  0  0  0
 33 38  1  0  0  0  0
 39 40  1  0  0  0  0
 39 41  1  0  0  0  0
 40 42  1  0  0  0  0
 40 43  1  0  0  0  0
 40 44  1  0  0  0  0
M  CHG  1  23  -1
M  END
$$$$

  -OEChem-02062319053D

 44 43  0     1  0  0  0  0  0999 V2000
   -3.8323   -0.7700   -1.8846 C   0  0  0  0  0  0  0  0  0  0  0  0
   -4.2485   -1.9172   -1.8545 O   0  0  0  0  0  0  0  0  0  0  0  0
   -4.5855    0.2887   -2.6697 C   0  0  0  0  0  0  0  0  0  0  0  0
   -3.9424    0.6994   -3.4520 H   0  0  0  0  0  0  0  0  0  0  0  0
   -5.4741   -0.1460   -3.1357 H   0  0  0  0  0  0  0  0  0  0  0  0
   -4.8968    1.0965   -2.0026 H   0  0  0  0  0  0  0  0  0  0  0  0
   -2.6827   -0.4186   -1.2112 N   0  0  0  0  0  0  0  0  0  0  0  0
   -1.9592   -1.2832   -0.2679 C   0  0  2  0  0  0  0  0  0  0  0  0
   -1.1548   -0.4295    0.7393 C   0  0  0  0  0  0  0  0  0  0  0  0
   -1.2561    0.7946    0.7184 O   0  0  0  0  0  0  0  0  0  0  0  0
   -1.0350   -2.2206   -1.0559 C   0  0  0  0  0  0  0  0  0  0  0  0
   -2.4735    0.5771   -1.1474 H   0  0  0  0  0  0  0  0  0  0  0  0
   -2.6723   -1.8844    0.3070 H   0  0  0  0  0  0  0  0  0  0  0  0
   -0.2908   -1.6446   -1.6145 H   0  0  0  0  0  0  0  0  0  0  0  0
   -0.5134   -2.9055   -0.3795 H   0  0  0  0  0  0  0  0  0  0  0  0
   -1.6146   -2.8209   -1.7640 H   0  0  0  0  0  0  0  0  0  0  0  0
   -0.2863   -1.0183    1.6344 N   0  0  0  0  0  0  0  0  0  0  0  0
    0.2849   -0.3648    2.8223 C   0  0  2  0  0  0  0  0  0  0  0  0
    1.1230    0.8869    2.4873 C   0  0  0  0  0  0  0  0  0  0  0  0
    1.0274    1.9159    3.1439 O   0  0  0  0  0  0  0  0  0  0  0  0
    1.1628   -1.4080    3.5427 C   0  0  0  0  0  0  0  0  0  0  0  0
    0.3966   -2.6888    3.8548 C   0  0  0  0  0  0  0  0  0  0  0  0
    0.0909   -3.4163    2.8714 O   0  5  0  0  0  0  0  0  0  0  0  0
    0.0750   -2.9165    5.0422 O   0  0  0  0  0  0  0  0  0  0  0  0
   -0.3319   -2.0460    1.6948 H   0  0  0  0  0  0  0  0  0  0  0  0
   -0.5267   -0.0581    3.4916 H   0  0  0  0  0  0  0  0  0  0  0  0
    1.5404   -0.9820    4.4769 H   0  0  0  0  0  0  0  0  0  0  0  0
    2.0256   -1.6655    2.9226 H   0  0  0  0  0  0  0  0  0  0  0  0
    2.0260    0.8380    1.4412 N   0  0  0  0  0  0  0  0  0  0  0  0
    2.8135    1.9861    0.9677 C   0  0  2  0  0  0  0  0  0  0  0  0
    2.0742    2.8652   -0.0729 C   0  0  0  0  0  0  0  0  0  0  0  0
    2.7028    3.6431   -0.7848 O   0  0  0  0  0  0  0  0  0  0  0  0
    4.1242    1.4217    0.4082 C   0  0  0  0  0  0  0  0  0  0  0  0
    2.0115   -0.0134    0.8878 H   0  0  0  0  0  0  0  0  0  0  0  0
    3.0578    2.6339    1.8162 H   0  0  0  0  0  0  0  0  0  0  0  0
    3.9303    0.8031   -0.4737 H   0  0  0  0  0  0  0  0  0  0  0  0
    4.7979    2.2353    0.1211 H   0  0  0  0  0  0  0  0  0  0  0  0
    4.6274    0.8105    1.1637 H   0  0  0  0  0  0  0  0  0  0  0  0
    0.7077    2.7588   -0.2595 N   0  0  0  0  0  0  0  0  0  0  0  0
   -0.0552    3.5964   -1.1712 C   0  0  0  0  0  0  0  0  0  0  0  0
    0.1946    2.1434    0.3791 H   0  0  0  0  0  0  0  0  0  0  0  0
    0.0344    4.6499   -0.8876 H   0  0  0  0  0  0  0  0  0  0  0  0
    0.3033    3.4721   -2.1979 H   0  0  0  0  0  0  0  0  0  0  0  0
   -1.1123    3.3164   -1.1370 H   0  0  0  0  0  0  0  0  0  0  0  0
  1  2  2  0  0  0  0
  1  3  1  0  0  0  0
  1  7  1  0  0  0  0
  3  4  1  0  0  0  0
  3  5  1  0  0  0  0
  3  6  1  0  0  0  0
  7  8  1  0  0  0  0
  7 12  1  0  0  0  0
  8  9  1  0  0  0  0
  8 11  1  0  0  0  0
  8 13  1  0  0  0  0
  9 10  2  0  0  0  0
  9 17  1  0  0  0  0
 11 14  1  0  0  0  0
 11 15  1  0  0  0  0
 11 16  1  0  0  0  0
 17 18  1  0  0  0  0
 17 25  1  0  0  0  0
 18 19  1  0  0  0  0
 18 21  1  0  0  0  0
 18 26  1  0  0  0  0
 19 20  2  0  0  0  0
 19 29  1  0  0  0  0
 21 22  1  0  0  0  0
 21 27  1  0  0  0  0
 21 28  1  0  0  0  0
 22 23  1  0  0  0  0
 22 24  2  0  0  0  0
 29 30  1  0  0  0  0
 29 34  1  0  0  0  0
 30 31  1  0  0  0  0
 30 33  1  0  0  0  0
 30 35  1  0  0  0  0
 31 32  2  0  0  0  0
 31 39  1  0  0  0  0
 33 36  1  0  0  0  0
 33 37  1  0  0  0  0
 33 38  1  0  0  0  0
 39 40  1  0  0  0  0
 39 41  1  0  0  0  0
 40 42  1  0  0  0  0
 40 43  1  0  0  0  0
 40 44  1  0  0  0  0
M  CHG  1  23  -1
M  END
$$$$

  -OEChem-02062319053D

 44 43  0     1  0  0  0  0  0999 V2000
   -4.3497   -1.0846   -1.4142 C   0  0  0  0  0  0  0  0  0  0  0  0
   -4.4894   -2.2775   -1.6338 O   0  0  0  0  0  0  0  0  0  0  0  0
   -5.4721   -0.1196   -1.7503 C   0  0  0  0  0  0  0  0  0  0  0  0
   -5.1377    0.5880   -2.5130 H   0  0  0  0  0  0  0  0  0  0  0  0
   -6.3394   -0.6663   -2.1309 H   0  0  0  0  0  0  0  0  0  0  0  0
   -5.7687    0.4328   -0.8551 H   0  0  0  0  0  0  0  0  0  0  0  0
   -3.1841   -0.5971   -0.8648 N   0  0  0  0  0  0  0  0  0  0  0  0
   -2.1078   -1.4263   -0.3057 C   0  0  2  0  0  0  0  0  0  0  0  0
   -1.3183   -0.6452    0.7687 C   0  0  0  0  0  0  0  0  0  0  0  0
   -1.6660    0.4944    1.0676 O   0  0  0  0  0  0  0  0  0  0  0  0
   -1.1767   -1.8719   -1.4391 C   0  0  0  0  0  0  0  0  0  0  0  0
   -3.1859    0.3780   -0.5664 H   0  0  0  0  0  0  0  0  0  0  0  0
   -2.5342   -2.3121    0.1784 H   0  0  0  0  0  0  0  0  0  0  0  0
   -0.7126   -1.0034   -1.9168 H   0  0  0  0  0  0  0  0  0  0  0  0
   -0.3858   -2.5227   -1.0522 H   0  0  0  0  0  0  0  0  0  0  0  0
   -1.7371   -2.4293   -2.1960 H   0  0  0  0  0  0  0  0  0  0  0  0
   -0.3264   -1.2752    1.4914 N   0  0  0  0  0  0  0  0  0  0  0  0
    0.0580   -0.9343    2.8690 C   0  0  2  0  0  0  0  0  0  0  0  0
    0.5530    0.5176    3.0411 C   0  0  0  0  0  0  0  0  0  0  0  0
    0.2587    1.1761    4.0342 O   0  0  0  0  0  0  0  0  0  0  0  0
    1.1551   -1.9302    3.2916 C   0  0  0  0  0  0  0  0  0  0  0  0
    0.6742   -3.3756    3.2121 C   0  0  0  0  0  0  0  0  0  0  0  0
    0.4307   -3.8327    2.0625 O   0  5  0  0  0  0  0  0  0  0  0  0
    0.5158   -4.0068    4.2815 O   0  0  0  0  0  0  0  0  0  0  0  0
   -0.1803   -2.2678    1.2591 H   0  0  0  0  0  0  0  0  0  0  0  0
   -0.8092   -1.0641    3.5255 H   0  0  0  0  0  0  0  0  0  0  0  0
    1.4655   -1.7149    4.3183 H   0  0  0  0  0  0  0  0  0  0  0  0
    2.0313   -1.8177    2.6474 H   0  0  0  0  0  0  0  0  0  0  0  0
    1.4443    1.0445    2.1247 N   0  0  0  0  0  0  0  0  0  0  0  0
    1.8208    2.4600    2.0734 C   0  0  2  0  0  0  0  0  0  0  0  0
    1.8570    2.9978    0.6279 C   0  0  0  0  0  0  0  0  0  0  0  0
    2.1299    2.2583   -0.3123 O   0  0  0  0  0  0  0  0  0  0  0  0
    3.1894    2.6128    2.7399 C   0  0  0  0  0  0  0  0  0  0  0  0
    1.5503    0.5058    1.2664 H   0  0  0  0  0  0  0  0  0  0  0  0
    1.0864    3.0577    2.6230 H   0  0  0  0  0  0  0  0  0  0  0  0
    3.9431    2.0263    2.2046 H   0  0  0  0  0  0  0  0  0  0  0  0
    3.4990    3.6620    2.7431 H   0  0  0  0  0  0  0  0  0  0  0  0
    3.1438    2.2607    3.7754 H   0  0  0  0  0  0  0  0  0  0  0  0
    1.6164    4.3387    0.3842 N   0  0  0  0  0  0  0  0  0  0  0  0
    1.5695    4.9103   -0.9548 C   0  0  0  0  0  0  0  0  0  0  0  0
    1.3088    4.9022    1.1711 H   0  0  0  0  0  0  0  0  0  0  0  0
    2.5060    4.7156   -1.4879 H   0  0  0  0  0  0  0  0  0  0  0  0
    0.7411    4.4780   -1.5256 H   0  0  0  0  0  0  0  0  0  0  0  0
    1.4252    5.9933   -0.8978 H   0  0  0  0  0  0  0  0  0  0  0  0
  1  2  2  0  0  0  0
  1  3  1  0  0  0  0
  1  7  1  0  0  0  0
  3  4  1  0  0  0  0
  3  5  1  0  0  0  0
  3  6  1  0  0  0  0
  7  8  1  0  0  0  0
  7 12  1  0  0  0  0
  8  9  1  0  0  0  0
  8 11  1  0  0  0  0
  8 13  1  0  0  0  0
  9 10  2  0  0  0  0
  9 17  1  0  0  0  0
 11 14  1  0  0  0  0
 11 15  1  0  0  0  0
 11 16  1  0  0  0  0
 17 18  1  0  0  0  0
 17 25  1  0  0  0  0
 18 19  1  0  0  0  0
 18 21  1  0  0  0  0
 18 26  1  0  0  0  0
 19 20  2  0  0  0  0
 19 29  1  0  0  0  0
 21 22  1  0  0  0  0
 21 27  1  0  0  0  0
 21 28  1  0  0  0  0
 22 23  1  0  0  0  0
 22 24  2  0  0  0  0
 29 30  1  0  0  0  0
 29 34  1  0  0  0  0
 30 31  1  0  0  0  0
 30 33  1  0  0  0  0
 30 35  1  0  0  0  0
 31 32  2  0  0  0  0
 31 39  1  0  0  0  0
 33 36  1  0  0  0  0
 33 37  1  0  0  0  0
 33 38  1  0  0  0  0
 39 40  1  0  0  0  0
 39 41  1  0  0  0  0
 40 42  1  0  0  0  0
 40 43  1  0  0  0  0
 40 44  1  0  0  0  0
M  CHG  1  23  -1
M  END
$$$$

  -OEChem-02062319053D

 44 43  0     1  0  0  0  0  0999 V2000
   -4.3869   -1.1884   -1.3536 C   0  0  0  0  0  0  0  0  0  0  0  0
   -4.3999   -2.3520   -1.7229 O   0  0  0  0  0  0  0  0  0  0  0  0
   -5.6393   -0.3415   -1.4878 C   0  0  0  0  0  0  0  0  0  0  0  0
   -5.4277    0.5442   -2.0917 H   0  0  0  0  0  0  0  0  0  0  0  0
   -6.4348   -0.9166   -1.9700 H   0  0  0  0  0  0  0  0  0  0  0  0
   -5.9816   -0.0267   -0.4989 H   0  0  0  0  0  0  0  0  0  0  0  0
   -3.2515   -0.6305   -0.8077 N   0  0  0  0  0  0  0  0  0  0  0  0
   -2.0514   -1.3792   -0.4092 C   0  0  2  0  0  0  0  0  0  0  0  0
   -1.2685   -0.6152    0.6821 C   0  0  0  0  0  0  0  0  0  0  0  0
   -1.6808    0.4786    1.0600 O   0  0  0  0  0  0  0  0  0  0  0  0
   -1.1627   -1.6057   -1.6364 C   0  0  0  0  0  0  0  0  0  0  0  0
   -3.3432    0.2986   -0.3969 H   0  0  0  0  0  0  0  0  0  0  0  0
   -2.3416   -2.3497    0.0091 H   0  0  0  0  0  0  0  0  0  0  0  0
   -0.8517   -0.6480   -2.0656 H   0  0  0  0  0  0  0  0  0  0  0  0
   -0.2680   -2.1731   -1.3605 H   0  0  0  0  0  0  0  0  0  0  0  0
   -1.7045   -2.1724   -2.3999 H   0  0  0  0  0  0  0  0  0  0  0  0
   -0.2883   -1.2666    1.4019 N   0  0  0  0  0  0  0  0  0  0  0  0
   -0.1339   -1.1642    2.8613 C   0  0  2  0  0  0  0  0  0  0  0  0
    0.1258    0.2670    3.3788 C   0  0  0  0  0  0  0  0  0  0  0  0
   -0.4080    0.6761    4.4056 O   0  0  0  0  0  0  0  0  0  0  0  0
    1.0175   -2.1067    3.2582 C   0  0  0  0  0  0  0  0  0  0  0  0
    0.7085   -3.5577    2.8988 C   0  0  0  0  0  0  0  0  0  0  0  0
    0.5820   -3.8312    1.6745 O   0  5  0  0  0  0  0  0  0  0  0  0
    0.5650   -4.3787    3.8327 O   0  0  0  0  0  0  0  0  0  0  0  0
   -0.0566   -2.2058    1.0482 H   0  0  0  0  0  0  0  0  0  0  0  0
   -1.0542   -1.5149    3.3412 H   0  0  0  0  0  0  0  0  0  0  0  0
    1.1891   -2.0365    4.3364 H   0  0  0  0  0  0  0  0  0  0  0  0
    1.9397   -1.8063    2.7533 H   0  0  0  0  0  0  0  0  0  0  0  0
    1.0441    1.0715    2.7302 N   0  0  0  0  0  0  0  0  0  0  0  0
    1.2097    2.5012    3.0041 C   0  0  2  0  0  0  0  0  0  0  0  0
    1.5247    3.3061    1.7263 C   0  0  0  0  0  0  0  0  0  0  0  0
    2.1089    2.7876    0.7801 O   0  0  0  0  0  0  0  0  0  0  0  0
    2.3316    2.6692    4.0316 C   0  0  0  0  0  0  0  0  0  0  0  0
    1.3525    0.7339    1.8195 H   0  0  0  0  0  0  0  0  0  0  0  0
    0.2785    2.9015    3.4184 H   0  0  0  0  0  0  0  0  0  0  0  0
    3.2726    2.2730    3.6370 H   0  0  0  0  0  0  0  0  0  0  0  0
    2.4715    3.7261    4.2766 H   0  0  0  0  0  0  0  0  0  0  0  0
    2.0849    2.1298    4.9516 H   0  0  0  0  0  0  0  0  0  0  0  0
    1.1770    4.6433    1.6515 N   0  0  0  0  0  0  0  0  0  0  0  0
    1.3887    5.4573    0.4624 C   0  0  0  0  0  0  0  0  0  0  0  0
    0.6285    5.0221    2.4176 H   0  0  0  0  0  0  0  0  0  0  0  0
    2.4539    5.4985    0.2119 H   0  0  0  0  0  0  0  0  0  0  0  0
    0.8409    5.0400   -0.3890 H   0  0  0  0  0  0  0  0  0  0  0  0
    1.0350    6.4779    0.6361 H   0  0  0  0  0  0  0  0  0  0  0  0
  1  2  2  0  0  0  0
  1  3  1  0  0  0  0
  1  7  1  0  0  0  0
  3  4  1  0  0  0  0
  3  5  1  0  0  0  0
  3  6  1  0  0  0  0
  7  8  1  0  0  0  0
  7 12  1  0  0  0  0
  8  9  1  0  0  0  0
  8 11  1  0  0  0  0
  8 13  1  0  0  0  0
  9 10  2  0  0  0  0
  9 17  1  0  0  0  0
 11 14  1  0  0  0  0
 11 15  1  0  0  0  0
 11 16  1  0  0  0  0
 17 18  1  0  0  0  0
 17 25  1  0  0  0  0
 18 19  1  0  0  0  0
 18 21  1  0  0  0  0
 18 26  1  0  0  0  0
 19 20  2  0  0  0  0
 19 29  1  0  0  0  0
 21 22  1  0  0  0  0
 21 27  1  0  0  0  0
 21 28  1  0  0  0  0
 22 23  1  0  0  0  0
 22 24  2  0  0  0  0
 29 30  1  0  0  0  0
 29 34  1  0  0  0  0
 30 31  1  0  0  0  0
 30 33  1  0  0  0  0
 30 35  1  0  0  0  0
 31 32  2  0  0  0  0
 31 39  1  0  0  0  0
 33 36  1  0  0  0  0
 33 37  1  0  0  0  0
 33 38  1  0  0  0  0
 39 40  1  0  0  0  0
 39 41  1  0  0  0  0
 40 42  1  0  0  0  0
 40 43  1  0  0  0  0
 40 44  1  0  0  0  0
M  CHG  1  23  -1
M  END
$$$$

  -OEChem-02062319053D

 44 43  0     1  0  0  0  0  0999 V2000
   -4.3662   -1.1628   -1.3319 C   0  0  0  0  0  0  0  0  0  0  0  0
   -4.3811   -2.3252   -1.7042 O   0  0  0  0  0  0  0  0  0  0  0  0
   -5.6247   -0.3211   -1.4384 C   0  0  0  0  0  0  0  0  0  0  0  0
   -5.4265    0.5718   -2.0362 H   0  0  0  0  0  0  0  0  0  0  0  0
   -6.4241   -0.8948   -1.9156 H   0  0  0  0  0  0  0  0  0  0  0  0
   -5.9545   -0.0181   -0.4415 H   0  0  0  0  0  0  0  0  0  0  0  0
   -3.2229   -0.6013   -0.8068 N   0  0  0  0  0  0  0  0  0  0  0  0
   -2.0174   -1.3508   -0.4270 C   0  0  2  0  0  0  0  0  0  0  0  0
   -1.2237   -0.5956    0.6631 C   0  0  0  0  0  0  0  0  0  0  0  0
   -1.6665    0.4655    1.0956 O   0  0  0  0  0  0  0  0  0  0  0  0
   -1.1425   -1.5705   -1.6654 C   0  0  0  0  0  0  0  0  0  0  0  0
   -3.3163    0.3197   -0.3793 H   0  0  0  0  0  0  0  0  0  0  0  0
   -2.3021   -2.3247   -0.0129 H   0  0  0  0  0  0  0  0  0  0  0  0
   -0.8308   -0.6112   -2.0897 H   0  0  0  0  0  0  0  0  0  0  0  0
   -0.2484   -2.1458   -1.4041 H   0  0  0  0  0  0  0  0  0  0  0  0
   -1.6952   -2.1271   -2.4285 H   0  0  0  0  0  0  0  0  0  0  0  0
   -0.2374   -1.2579    1.3637 N   0  0  0  0  0  0  0  0  0  0  0  0
   -0.2655   -1.4236    2.8252 C   0  0  2  0  0  0  0  0  0  0  0  0
   -0.2716   -0.1042    3.6271 C   0  0  0  0  0  0  0  0  0  0  0  0
   -0.9764    0.0255    4.6237 O   0  0  0  0  0  0  0  0  0  0  0  0
    0.9477   -2.2952    3.2002 C   0  0  0  0  0  0  0  0  0  0  0  0
    0.8498   -3.6935    2.5938 C   0  0  0  0  0  0  0  0  0  0  0  0
    0.7844   -3.7745    1.3372 O   0  5  0  0  0  0  0  0  0  0  0  0
    0.8148   -4.6712    3.3747 O   0  0  0  0  0  0  0  0  0  0  0  0
    0.0844   -2.1200    0.9010 H   0  0  0  0  0  0  0  0  0  0  0  0
   -1.1775   -1.9634    3.1024 H   0  0  0  0  0  0  0  0  0  0  0  0
    1.0060   -2.3860    4.2889 H   0  0  0  0  0  0  0  0  0  0  0  0
    1.8708   -1.8225    2.8540 H   0  0  0  0  0  0  0  0  0  0  0  0
    0.5903    0.9164    3.2717 N   0  0  0  0  0  0  0  0  0  0  0  0
    0.5282    2.2681    3.8339 C   0  0  2  0  0  0  0  0  0  0  0  0
    0.8960    3.3484    2.7959 C   0  0  0  0  0  0  0  0  0  0  0  0
    1.6922    3.1130    1.8927 O   0  0  0  0  0  0  0  0  0  0  0  0
    1.4763    2.3365    5.0335 C   0  0  0  0  0  0  0  0  0  0  0  0
    1.0303    0.8130    2.3582 H   0  0  0  0  0  0  0  0  0  0  0  0
   -0.4932    2.4746    4.1696 H   0  0  0  0  0  0  0  0  0  0  0  0
    2.5046    2.1333    4.7183 H   0  0  0  0  0  0  0  0  0  0  0  0
    1.4399    3.3280    5.4942 H   0  0  0  0  0  0  0  0  0  0  0  0
    1.1888    1.5939    5.7847 H   0  0  0  0  0  0  0  0  0  0  0  0
    0.3609    4.6198    2.9064 N   0  0  0  0  0  0  0  0  0  0  0  0
    0.6288    5.6848    1.9497 C   0  0  0  0  0  0  0  0  0  0  0  0
   -0.3507    4.7618    3.6168 H   0  0  0  0  0  0  0  0  0  0  0  0
    1.7022    5.8966    1.9038 H   0  0  0  0  0  0  0  0  0  0  0  0
    0.2818    5.3985    0.9514 H   0  0  0  0  0  0  0  0  0  0  0  0
    0.1091    6.6001    2.2487 H   0  0  0  0  0  0  0  0  0  0  0  0
  1  2  2  0  0  0  0
  1  3  1  0  0  0  0
  1  7  1  0  0  0  0
  3  4  1  0  0  0  0
  3  5  1  0  0  0  0
  3  6  1  0  0  0  0
  7  8  1  0  0  0  0
  7 12  1  0  0  0  0
  8  9  1  0  0  0  0
  8 11  1  0  0  0  0
  8 13  1  0  0  0  0
  9 10  2  0  0  0  0
  9 17  1  0  0  0  0
 11 14  1  0  0  0  0
 11 15  1  0  0  0  0
 11 16  1  0  0  0  0
 17 18  1  0  0  0  0
 17 25  1  0  0  0  0
 18 19  1  0  0  0  0
 18 21  1  0  0  0  0
 18 26  1  0  0  0  0
 19 20  2  0  0  0  0
 19 29  1  0  0  0  0
 21 22  1  0  0  0  0
 21 27  1  0  0  0  0
 21 28  1  0  0  0  0
 22 23  1  0  0  0  0
 22 24  2  0  0  0  0
 29 30  1  0  0  0  0
 29 34  1  0  0  0  0
 30 31  1  0  0  0  0
 30 33  1  0  0  0  0
 30 35  1  0  0  0  0
 31 32  2  0  0  0  0
 31 39  1  0  0  0  0
 33 36  1  0  0  0  0
 33 37  1  0  0  0  0
 33 38  1  0  0  0  0
 39 40  1  0  0  0  0
 39 41  1  0  0  0  0
 40 42  1  0  0  0  0
 40 43  1  0  0  0  0
 40 44  1  0  0  0  0
M  CHG  1  23  -1
M  END
$$$$

  -OEChem-02062319053D

 44 43  0     1  0  0  0  0  0999 V2000
   -4.3565   -1.1470   -1.2941 C   0  0  0  0  0  0  0  0  0  0  0  0
   -4.3708   -2.3073   -1.6731 O   0  0  0  0  0  0  0  0  0  0  0  0
   -5.6213   -0.3116   -1.3781 C   0  0  0  0  0  0  0  0  0  0  0  0
   -5.4356    0.5880   -1.9699 H   0  0  0  0  0  0  0  0  0  0  0  0
   -6.4234   -0.8855   -1.8507 H   0  0  0  0  0  0  0  0  0  0  0  0
   -5.9406   -0.0195   -0.3745 H   0  0  0  0  0  0  0  0  0  0  0  0
   -3.2078   -0.5824   -0.7839 N   0  0  0  0  0  0  0  0  0  0  0  0
   -1.9913   -1.3278   -0.4307 C   0  0  2  0  0  0  0  0  0  0  0  0
   -1.1839   -0.5766    0.6523 C   0  0  0  0  0  0  0  0  0  0  0  0
   -1.6427    0.4605    1.1249 O   0  0  0  0  0  0  0  0  0  0  0  0
   -1.1351   -1.5308   -1.6849 C   0  0  0  0  0  0  0  0  0  0  0  0
   -3.3015    0.3328   -0.3438 H   0  0  0  0  0  0  0  0  0  0  0  0
   -2.2627   -2.3079   -0.0215 H   0  0  0  0  0  0  0  0  0  0  0  0
   -0.8302   -0.5661   -2.1017 H   0  0  0  0  0  0  0  0  0  0  0  0
   -0.2369   -2.1089   -1.4443 H   0  0  0  0  0  0  0  0  0  0  0  0
   -1.6984   -2.0783   -2.4465 H   0  0  0  0  0  0  0  0  0  0  0  0
   -0.1804   -1.2355    1.3300 N   0  0  0  0  0  0  0  0  0  0  0  0
   -0.3573   -1.6805    2.7204 C   0  0  2  0  0  0  0  0  0  0  0  0
   -0.6482   -0.5524    3.7331 C   0  0  0  0  0  0  0  0  0  0  0  0
   -1.4902   -0.7017    4.6134 O   0  0  0  0  0  0  0  0  0  0  0  0
    0.9140   -2.4595    3.1050 C   0  0  0  0  0  0  0  0  0  0  0  0
    1.0627   -3.7478    2.2962 C   0  0  0  0  0  0  0  0  0  0  0  0
    1.0076   -3.6559    1.0395 O   0  5  0  0  0  0  0  0  0  0  0  0
    1.2237   -4.8175    2.9262 O   0  0  0  0  0  0  0  0  0  0  0  0
    0.2423   -1.9930    0.7746 H   0  0  0  0  0  0  0  0  0  0  0  0
   -1.2096   -2.3676    2.7665 H   0  0  0  0  0  0  0  0  0  0  0  0
    0.8737   -2.7154    4.1680 H   0  0  0  0  0  0  0  0  0  0  0  0
    1.7971   -1.8353    2.9441 H   0  0  0  0  0  0  0  0  0  0  0  0
    0.0920    0.6139    3.6937 N   0  0  0  0  0  0  0  0  0  0  0  0
   -0.2134    1.8039    4.4923 C   0  0  2  0  0  0  0  0  0  0  0  0
    0.1513    3.1121    3.7606 C   0  0  0  0  0  0  0  0  0  0  0  0
    1.1046    3.1621    2.9903 O   0  0  0  0  0  0  0  0  0  0  0  0
    0.5500    1.7061    5.8158 C   0  0  0  0  0  0  0  0  0  0  0  0
    0.6434    0.7483    2.8467 H   0  0  0  0  0  0  0  0  0  0  0  0
   -1.2882    1.8348    4.6978 H   0  0  0  0  0  0  0  0  0  0  0  0
    1.6285    1.6719    5.6314 H   0  0  0  0  0  0  0  0  0  0  0  0
    0.3298    2.5697    6.4501 H   0  0  0  0  0  0  0  0  0  0  0  0
    0.2597    0.7983    6.3542 H   0  0  0  0  0  0  0  0  0  0  0  0
   -0.5688    4.2661    4.0157 N   0  0  0  0  0  0  0  0  0  0  0  0
   -0.3113    5.5337    3.3463 C   0  0  0  0  0  0  0  0  0  0  0  0
   -1.3943    4.1755    4.5998 H   0  0  0  0  0  0  0  0  0  0  0  0
    0.7160    5.8633    3.5333 H   0  0  0  0  0  0  0  0  0  0  0  0
   -0.4595    5.4328    2.2662 H   0  0  0  0  0  0  0  0  0  0  0  0
   -0.9933    6.3033    3.7197 H   0  0  0  0  0  0  0  0  0  0  0  0
  1  2  2  0  0  0  0
  1  3  1  0  0  0  0
  1  7  1  0  0  0  0
  3  4  1  0  0  0  0
  3  5  1  0  0  0  0
  3  6  1  0  0  0  0
  7  8  1  0  0  0  0
  7 12  1  0  0  0  0
  8  9  1  0  0  0  0
  8 11  1  0  0  0  0
  8 13  1  0  0  0  0
  9 10  2  0  0  0  0
  9 17  1  0  0  0  0
 11 14  1  0  0  0  0
 11 15  1  0  0  0  0
 11 16  1  0  0  0  0
 17 18  1  0  0  0  0
 17 25  1  0  0  0  0
 18 19  1  0  0  0  0
 18 21  1  0  0  0  0
 18 26  1  0  0  0  0
 19 20  2  0  0  0  0
 19 29  1  0  0  0  0
 21 22  1  0  0  0  0
 21 27  1  0  0  0  0
 21 28  1  0  0  0  0
 22 23  1  0  0  0  0
 22 24  2  0  0  0  0
 29 30  1  0  0  0  0
 29 34  1  0  0  0  0
 30 31  1  0  0  0  0
 30 33  1  0  0  0  0
 30 35  1  0  0  0  0
 31 32  2  0  0  0  0
 31 39  1  0  0  0  0
 33 36  1  0  0  0  0
 33 37  1  0  0  0  0
 33 38  1  0  0  0  0
 39 40  1  0  0  0  0
 39 41  1  0  0  0  0
 40 42  1  0  0  0  0
 40 43  1  0  0  0  0
 40 44  1  0  0  0  0
M  CHG  1  23  -1
M  END
$$$$

  -OEChem-02062319053D

 44 43  0     1  0  0  0  0  0999 V2000
   -4.3485   -1.1212   -1.2368 C   0  0  0  0  0  0  0  0  0  0  0  0
   -4.3660   -2.2817   -1.6150 O   0  0  0  0  0  0  0  0  0  0  0  0
   -5.6143   -0.2867   -1.3123 C   0  0  0  0  0  0  0  0  0  0  0  0
   -5.4413    0.5988   -1.9288 H   0  0  0  0  0  0  0  0  0  0  0  0
   -6.4263   -0.8711   -1.7541 H   0  0  0  0  0  0  0  0  0  0  0  0
   -5.9121    0.0283   -0.3092 H   0  0  0  0  0  0  0  0  0  0  0  0
   -3.1955   -0.5562   -0.7367 N   0  0  0  0  0  0  0  0  0  0  0  0
   -1.9752   -1.3023   -0.3999 C   0  0  2  0  0  0  0  0  0  0  0  0
   -1.1544   -0.5528    0.6737 C   0  0  0  0  0  0  0  0  0  0  0  0
   -1.6199    0.4631    1.1836 O   0  0  0  0  0  0  0  0  0  0  0  0
   -1.1354   -1.5072   -1.6651 C   0  0  0  0  0  0  0  0  0  0  0  0
   -3.2865    0.3565   -0.2911 H   0  0  0  0  0  0  0  0  0  0  0  0
   -2.2428   -2.2818    0.0116 H   0  0  0  0  0  0  0  0  0  0  0  0
   -0.8402   -0.5431   -2.0906 H   0  0  0  0  0  0  0  0  0  0  0  0
   -0.2315   -2.0809   -1.4352 H   0  0  0  0  0  0  0  0  0  0  0  0
   -1.7071   -2.0608   -2.4162 H   0  0  0  0  0  0  0  0  0  0  0  0
   -0.1246   -1.1969    1.3235 N   0  0  0  0  0  0  0  0  0  0  0  0
   -0.3889   -1.9297    2.5698 C   0  0  2  0  0  0  0  0  0  0  0  0
   -0.9508   -1.0611    3.7159 C   0  0  0  0  0  0  0  0  0  0  0  0
   -1.8737   -1.4700    4.4137 O   0  0  0  0  0  0  0  0  0  0  0  0
    0.9240   -2.6261    2.9732 C   0  0  0  0  0  0  0  0  0  0  0  0
    1.3255   -3.7162    1.9786 C   0  0  0  0  0  0  0  0  0  0  0  0
    1.3059   -3.4255    0.7515 O   0  5  0  0  0  0  0  0  0  0  0  0
    1.6492   -4.8337    2.4402 O   0  0  0  0  0  0  0  0  0  0  0  0
    0.4104   -1.8082    0.6904 H   0  0  0  0  0  0  0  0  0  0  0  0
   -1.1380   -2.7054    2.3746 H   0  0  0  0  0  0  0  0  0  0  0  0
    0.8015   -3.0823    3.9599 H   0  0  0  0  0  0  0  0  0  0  0  0
    1.7314   -1.8923    3.0408 H   0  0  0  0  0  0  0  0  0  0  0  0
   -0.3883    0.1714    3.9894 N   0  0  0  0  0  0  0  0  0  0  0  0
   -0.9577    1.1377    4.9331 C   0  0  2  0  0  0  0  0  0  0  0  0
   -0.6817    2.5998    4.5244 C   0  0  0  0  0  0  0  0  0  0  0  0
    0.3510    2.9119    3.9410 O   0  0  0  0  0  0  0  0  0  0  0  0
   -0.3738    0.8624    6.3213 C   0  0  0  0  0  0  0  0  0  0  0  0
    0.2259    0.5369    3.2615 H   0  0  0  0  0  0  0  0  0  0  0  0
   -2.0444    1.0094    4.9669 H   0  0  0  0  0  0  0  0  0  0  0  0
    0.7136    0.9872    6.3085 H   0  0  0  0  0  0  0  0  0  0  0  0
   -0.7967    1.5521    7.0575 H   0  0  0  0  0  0  0  0  0  0  0  0
   -0.6035   -0.1613    6.6336 H   0  0  0  0  0  0  0  0  0  0  0  0
   -1.5785    3.5920    4.8809 N   0  0  0  0  0  0  0  0  0  0  0  0
   -1.4023    4.9945    4.5301 C   0  0  0  0  0  0  0  0  0  0  0  0
   -2.4477    3.2963    5.3146 H   0  0  0  0  0  0  0  0  0  0  0  0
   -0.4727    5.3823    4.9592 H   0  0  0  0  0  0  0  0  0  0  0  0
   -1.3676    5.1155    3.4425 H   0  0  0  0  0  0  0  0  0  0  0  0
   -2.2354    5.5874    4.9188 H   0  0  0  0  0  0  0  0  0  0  0  0
  1  2  2  0  0  0  0
  1  3  1  0  0  0  0
  1  7  1  0  0  0  0
  3  4  1  0  0  0  0
  3  5  1  0  0  0  0
  3  6  1  0  0  0  0
  7  8  1  0  0  0  0
  7 12  1  0  0  0  0
  8  9  1  0  0  0  0
  8 11  1  0  0  0  0
  8 13  1  0  0  0  0
  9 10  2  0  0  0  0
  9 17  1  0  0  0  0
 11 14  1  0  0  0  0
 11 15  1  0  0  0  0
 11 16  1  0  0  0  0
 17 18  1  0  0  0  0
 17 25  1  0  0  0  0
 18 19  1  0  0  0  0
 18 21  1  0  0  0  0
 18 26  1  0  0  0  0
 19 20  2  0  0  0  0
 19 29  1  0  0  0  0
 21 22  1  0  0  0  0
 21 27  1  0  0  0  0
 21 28  1  0  0  0  0
 22 23  1  0  0  0  0
 22 24  2  0  0  0  0
 29 30  1  0  0  0  0
 29 34  1  0  0  0  0
 30 31  1  0  0  0  0
 30 33  1  0  0  0  0
 30 35  1  0  0  0  0
 31 32  2  0  0  0  0
 31 39  1  0  0  0  0
 33 36  1  0  0  0  0
 33 37  1  0  0  0  0
 33 38  1  0  0  0  0
 39 40  1  0  0  0  0
 39 41  1  0  0  0  0
 40 42  1  0  0  0  0
 40 43  1  0  0  0  0
 40 44  1  0  0  0  0
M  CHG  1  23  -1
M  END
$$$$

  -OEChem-02062319053D

 44 43  0     1  0  0  0  0  0999 V2000
   -4.5154   -0.8386   -1.2200 C   0  0  0  0  0  0  0  0  0  0  0  0
   -4.9547   -1.9676   -1.0694 O   0  0  0  0  0  0  0  0  0  0  0  0
   -5.4201    0.2540   -1.7603 C   0  0  0  0  0  0  0  0  0  0  0  0
   -5.0723    0.5696   -2.7468 H   0  0  0  0  0  0  0  0  0  0  0  0
   -6.4462   -0.1139   -1.8488 H   0  0  0  0  0  0  0  0  0  0  0  0
   -5.4106    1.1140   -1.0860 H   0  0  0  0  0  0  0  0  0  0  0  0
   -3.2083   -0.5379   -0.9055 N   0  0  0  0  0  0  0  0  0  0  0  0
   -2.2847   -1.4376   -0.1996 C   0  0  2  0  0  0  0  0  0  0  0  0
   -1.4010   -0.6449    0.7927 C   0  0  0  0  0  0  0  0  0  0  0  0
   -1.4557    0.5794    0.8219 O   0  0  0  0  0  0  0  0  0  0  0  0
   -1.4418   -2.1800   -1.2427 C   0  0  0  0  0  0  0  0  0  0  0  0
   -2.9505    0.4478   -0.9038 H   0  0  0  0  0  0  0  0  0  0  0  0
   -2.8465   -2.1725    0.3870 H   0  0  0  0  0  0  0  0  0  0  0  0
   -0.8336   -1.4745   -1.8170 H   0  0  0  0  0  0  0  0  0  0  0  0
   -0.7736   -2.9002   -0.7582 H   0  0  0  0  0  0  0  0  0  0  0  0
   -2.0903   -2.7278   -1.9333 H   0  0  0  0  0  0  0  0  0  0  0  0
   -0.2434   -1.1602    1.3170 N   0  0  0  0  0  0  0  0  0  0  0  0
   -0.3250   -2.1878    2.3623 C   0  0  2  0  0  0  0  0  0  0  0  0
   -1.0698   -1.7007    3.6233 C   0  0  0  0  0  0  0  0  0  0  0  0
   -1.9929   -2.3590    4.0870 O   0  0  0  0  0  0  0  0  0  0  0  0
    1.1069   -2.5894    2.7391 C   0  0  0  0  0  0  0  0  0  0  0  0
    1.8573   -3.1273    1.5312 C   0  0  0  0  0  0  0  0  0  0  0  0
    1.5162   -4.2487    1.0846 O   0  5  0  0  0  0  0  0  0  0  0  0
    2.7460   -2.3921    1.0365 O   0  0  0  0  0  0  0  0  0  0  0  0
    0.4694   -0.4490    1.4569 H   0  0  0  0  0  0  0  0  0  0  0  0
   -0.8442   -3.0721    1.9738 H   0  0  0  0  0  0  0  0  0  0  0  0
    1.0806   -3.3683    3.5063 H   0  0  0  0  0  0  0  0  0  0  0  0
    1.6481   -1.7324    3.1504 H   0  0  0  0  0  0  0  0  0  0  0  0
   -0.8045   -0.4563    4.1657 N   0  0  0  0  0  0  0  0  0  0  0  0
   -1.6017    0.1768    5.2217 C   0  0  2  0  0  0  0  0  0  0  0  0
   -1.5277    1.7159    5.1559 C   0  0  0  0  0  0  0  0  0  0  0  0
   -0.5007    2.2768    4.7902 O   0  0  0  0  0  0  0  0  0  0  0  0
   -1.1008   -0.3191    6.5815 C   0  0  0  0  0  0  0  0  0  0  0  0
   -0.1105    0.1211    3.6928 H   0  0  0  0  0  0  0  0  0  0  0  0
   -2.6523   -0.1066    5.1006 H   0  0  0  0  0  0  0  0  0  0  0  0
   -0.0486   -0.0516    6.7210 H   0  0  0  0  0  0  0  0  0  0  0  0
   -1.6857    0.1279    7.3906 H   0  0  0  0  0  0  0  0  0  0  0  0
   -1.1950   -1.4075    6.6479 H   0  0  0  0  0  0  0  0  0  0  0  0
   -2.6159    2.4790    5.5400 N   0  0  0  0  0  0  0  0  0  0  0  0
   -2.6435    3.9320    5.4420 C   0  0  0  0  0  0  0  0  0  0  0  0
   -3.4733    1.9843    5.7666 H   0  0  0  0  0  0  0  0  0  0  0  0
   -1.8636    4.3734    6.0711 H   0  0  0  0  0  0  0  0  0  0  0  0
   -2.4832    4.2483    4.4060 H   0  0  0  0  0  0  0  0  0  0  0  0
   -3.6129    4.3142    5.7753 H   0  0  0  0  0  0  0  0  0  0  0  0
  1  2  2  0  0  0  0
  1  3  1  0  0  0  0
  1  7  1  0  0  0  0
  3  4  1  0  0  0  0
  3  5  1  0  0  0  0
  3  6  1  0  0  0  0
  7  8  1  0  0  0  0
  7 12  1  0  0  0  0
  8  9  1  0  0  0  0
  8 11  1  0  0  0  0
  8 13  1  0  0  0  0
  9 10  2  0  0  0  0
  9 17  1  0  0  0  0
 11 14  1  0  0  0  0
 11 15  1  0  0  0  0
 11 16  1  0  0  0  0
 17 18  1  0  0  0  0
 17 25  1  0  0  0  0
 18 19  1  0  0  0  0
 18 21  1  0  0  0  0
 18 26  1  0  0  0  0
 19 20  2  0  0  0  0
 19 29  1  0  0  0  0
 21 22  1  0  0  0  0
 21 27  1  0  0  0  0
 21 28  1  0  0  0  0
 22 23  1  0  0  0  0
 22 24  2  0  0  0  0
 29 30  1  0  0  0  0
 29 34  1  0  0  0  0
 30 31  1  0  0  0  0
 30 33  1  0  0  0  0
 30 35  1  0  0  0  0
 31 32  2  0  0  0  0
 31 39  1  0  0  0  0
 33 36  1  0  0  0  0
 33 37  1  0  0  0  0
 33 38  1  0  0  0  0
 39 40  1  0  0  0  0
 39 41  1  0  0  0  0
 40 42  1  0  0  0  0
 40 43  1  0  0  0  0
 40 44  1  0  0  0  0
M  CHG  1  23  -1
M  END
$$$$

  -OEChem-02062319053D

 44 43  0     1  0  0  0  0  0999 V2000
   -4.5149   -0.9165   -1.2224 C   0  0  0  0  0  0  0  0  0  0  0  0
   -4.8735   -2.0804   -1.1392 O   0  0  0  0  0  0  0  0  0  0  0  0
   -5.5023    0.1453   -1.6713 C   0  0  0  0  0  0  0  0  0  0  0  0
   -5.1518    0.6118   -2.5953 H   0  0  0  0  0  0  0  0  0  0  0  0
   -6.4838   -0.3023   -1.8510 H   0  0  0  0  0  0  0  0  0  0  0  0
   -5.6010    0.9123   -0.8991 H   0  0  0  0  0  0  0  0  0  0  0  0
   -3.2260   -0.5467   -0.9065 N   0  0  0  0  0  0  0  0  0  0  0  0
   -2.2286   -1.4228   -0.2761 C   0  0  2  0  0  0  0  0  0  0  0  0
   -1.3704   -0.6259    0.7343 C   0  0  0  0  0  0  0  0  0  0  0  0
   -1.4479    0.5964    0.7811 O   0  0  0  0  0  0  0  0  0  0  0  0
   -1.3629   -2.0418   -1.3793 C   0  0  0  0  0  0  0  0  0  0  0  0
   -3.0315    0.4522   -0.8524 H   0  0  0  0  0  0  0  0  0  0  0  0
   -2.7269   -2.2247    0.2798 H   0  0  0  0  0  0  0  0  0  0  0  0
   -0.8260   -1.2620   -1.9283 H   0  0  0  0  0  0  0  0  0  0  0  0
   -0.6285   -2.7332   -0.9528 H   0  0  0  0  0  0  0  0  0  0  0  0
   -1.9882   -2.5992   -2.0834 H   0  0  0  0  0  0  0  0  0  0  0  0
   -0.2475   -1.1473    1.3258 N   0  0  0  0  0  0  0  0  0  0  0  0
   -0.3276   -2.3599    2.1499 C   0  0  2  0  0  0  0  0  0  0  0  0
   -1.2671   -2.1925    3.3623 C   0  0  0  0  0  0  0  0  0  0  0  0
   -2.1581   -3.0068    3.5686 O   0  0  0  0  0  0  0  0  0  0  0  0
    1.0886   -2.6869    2.6408 C   0  0  0  0  0  0  0  0  0  0  0  0
    2.0260   -2.9234    1.4676 C   0  0  0  0  0  0  0  0  0  0  0  0
    1.8705   -3.9730    0.7988 O   0  5  0  0  0  0  0  0  0  0  0  0
    2.8669   -2.0255    1.2193 O   0  0  0  0  0  0  0  0  0  0  0  0
    0.4304   -0.4428    1.6078 H   0  0  0  0  0  0  0  0  0  0  0  0
   -0.6895   -3.2003    1.5458 H   0  0  0  0  0  0  0  0  0  0  0  0
    1.0663   -3.5907    3.2560 H   0  0  0  0  0  0  0  0  0  0  0  0
    1.4770   -1.8717    3.2584 H   0  0  0  0  0  0  0  0  0  0  0  0
   -1.2151   -1.0545    4.1464 N   0  0  0  0  0  0  0  0  0  0  0  0
   -2.1926   -0.7149    5.1864 C   0  0  2  0  0  0  0  0  0  0  0  0
   -2.2759    0.8068    5.4260 C   0  0  0  0  0  0  0  0  0  0  0  0
   -1.2976    1.5220    5.2412 O   0  0  0  0  0  0  0  0  0  0  0  0
   -1.8039   -1.4331    6.4823 C   0  0  0  0  0  0  0  0  0  0  0  0
   -0.5385   -0.3378    3.8854 H   0  0  0  0  0  0  0  0  0  0  0  0
   -3.1854   -1.0527    4.8719 H   0  0  0  0  0  0  0  0  0  0  0  0
   -0.8081   -1.1174    6.8096 H   0  0  0  0  0  0  0  0  0  0  0  0
   -2.5215   -1.2055    7.2760 H   0  0  0  0  0  0  0  0  0  0  0  0
   -1.7926   -2.5169    6.3285 H   0  0  0  0  0  0  0  0  0  0  0  0
   -3.4552    1.3774    5.8716 N   0  0  0  0  0  0  0  0  0  0  0  0
   -3.6271    2.8130    6.0522 C   0  0  0  0  0  0  0  0  0  0  0  0
   -4.2658    0.7707    5.9485 H   0  0  0  0  0  0  0  0  0  0  0  0
   -2.9114    3.1952    6.7875 H   0  0  0  0  0  0  0  0  0  0  0  0
   -3.4742    3.3392    5.1041 H   0  0  0  0  0  0  0  0  0  0  0  0
   -4.6380    3.0298    6.4096 H   0  0  0  0  0  0  0  0  0  0  0  0
  1  2  2  0  0  0  0
  1  3  1  0  0  0  0
  1  7  1  0  0  0  0
  3  4  1  0  0  0  0
  3  5  1  0  0  0  0
  3  6  1  0  0  0  0
  7  8  1  0  0  0  0
  7 12  1  0  0  0  0
  8  9  1  0  0  0  0
  8 11  1  0  0  0  0
  8 13  1  0  0  0  0
  9 10  2  0  0  0  0
  9 17  1  0  0  0  0
 11 14  1  0  0  0  0
 11 15  1  0  0  0  0
 11 16  1  0  0  0  0
 17 18  1  0  0  0  0
 17 25  1  0  0  0  0
 18 19  1  0  0  0  0
 18 21  1  0  0  0  0
 18 26  1  0  0  0  0
 19 20  2  0  0  0  0
 19 29  1  0  0  0  0
 21 22  1  0  0  0  0
 21 27  1  0  0  0  0
 21 28  1  0  0  0  0
 22 23  1  0  0  0  0
 22 24  2  0  0  0  0
 29 30  1  0  0  0  0
 29 34  1  0  0  0  0
 30 31  1  0  0  0  0
 30 33  1  0  0  0  0
 30 35  1  0  0  0  0
 31 32  2  0  0  0  0
 31 39  1  0  0  0  0
 33 36  1  0  0  0  0
 33 37  1  0  0  0  0
 33 38  1  0  0  0  0
 39 40  1  0  0  0  0
 39 41  1  0  0  0  0
 40 42  1  0  0  0  0
 40 43  1  0  0  0  0
 40 44  1  0  0  0  0
M  CHG  1  23  -1
M  END
$$$$

  -OEChem-02062319053D

 44 43  0     1  0  0  0  0  0999 V2000
   -4.5123   -0.9218   -1.2094 C   0  0  0  0  0  0  0  0  0  0  0  0
   -4.8129   -2.1049   -1.2214 O   0  0  0  0  0  0  0  0  0  0  0  0
   -5.5580    0.1241   -1.5518 C   0  0  0  0  0  0  0  0  0  0  0  0
   -5.2260    0.7159   -2.4084 H   0  0  0  0  0  0  0  0  0  0  0  0
   -6.5067   -0.3584   -1.8028 H   0  0  0  0  0  0  0  0  0  0  0  0
   -5.7143    0.7879   -0.6977 H   0  0  0  0  0  0  0  0  0  0  0  0
   -3.2368   -0.5190   -0.8806 N   0  0  0  0  0  0  0  0  0  0  0  0
   -2.1824   -1.3962   -0.3541 C   0  0  2  0  0  0  0  0  0  0  0  0
   -1.3157   -0.6343    0.6759 C   0  0  0  0  0  0  0  0  0  0  0  0
   -1.3642    0.5890    0.7279 O   0  0  0  0  0  0  0  0  0  0  0  0
   -1.3344   -1.8883   -1.5319 C   0  0  0  0  0  0  0  0  0  0  0  0
   -3.0790    0.4811   -0.7624 H   0  0  0  0  0  0  0  0  0  0  0  0
   -2.6279   -2.2571    0.1565 H   0  0  0  0  0  0  0  0  0  0  0  0
   -0.8708   -1.0425   -2.0491 H   0  0  0  0  0  0  0  0  0  0  0  0
   -0.5411   -2.5579   -1.1847 H   0  0  0  0  0  0  0  0  0  0  0  0
   -1.9583   -2.4359   -2.2451 H   0  0  0  0  0  0  0  0  0  0  0  0
   -0.2497   -1.2083    1.3243 N   0  0  0  0  0  0  0  0  0  0  0  0
   -0.2811   -2.5503    1.9169 C   0  0  2  0  0  0  0  0  0  0  0  0
   -1.3638   -2.6805    3.0072 C   0  0  0  0  0  0  0  0  0  0  0  0
   -2.1656   -3.6054    2.9699 O   0  0  0  0  0  0  0  0  0  0  0  0
    1.0958   -2.8254    2.5402 C   0  0  0  0  0  0  0  0  0  0  0  0
    2.2068   -2.6378    1.5207 C   0  0  0  0  0  0  0  0  0  0  0  0
    2.5118   -3.6110    0.7923 O   0  5  0  0  0  0  0  0  0  0  0  0
    2.6974   -1.4847    1.4331 O   0  0  0  0  0  0  0  0  0  0  0  0
    0.5051   -0.5761    1.5989 H   0  0  0  0  0  0  0  0  0  0  0  0
   -0.4693   -3.3002    1.1406 H   0  0  0  0  0  0  0  0  0  0  0  0
    1.1312   -3.8502    2.9205 H   0  0  0  0  0  0  0  0  0  0  0  0
    1.2737   -2.1521    3.3835 H   0  0  0  0  0  0  0  0  0  0  0  0
   -1.5273   -1.6967    3.9653 N   0  0  0  0  0  0  0  0  0  0  0  0
   -2.6358   -1.6488    4.9259 C   0  0  2  0  0  0  0  0  0  0  0  0
   -2.9475   -0.2123    5.3943 C   0  0  0  0  0  0  0  0  0  0  0  0
   -2.0714    0.6443    5.4165 O   0  0  0  0  0  0  0  0  0  0  0  0
   -2.2818   -2.5273    6.1295 C   0  0  0  0  0  0  0  0  0  0  0  0
   -0.9154   -0.8825    3.9050 H   0  0  0  0  0  0  0  0  0  0  0  0
   -3.5407   -2.0400    4.4497 H   0  0  0  0  0  0  0  0  0  0  0  0
   -1.3751   -2.1569    6.6187 H   0  0  0  0  0  0  0  0  0  0  0  0
   -3.0982   -2.5249    6.8578 H   0  0  0  0  0  0  0  0  0  0  0  0
   -2.1082   -3.5593    5.8090 H   0  0  0  0  0  0  0  0  0  0  0  0
   -4.2231    0.1157    5.8186 N   0  0  0  0  0  0  0  0  0  0  0  0
   -4.6069    1.4602    6.2279 C   0  0  0  0  0  0  0  0  0  0  0  0
   -4.9406   -0.5981    5.7336 H   0  0  0  0  0  0  0  0  0  0  0  0
   -3.9788    1.8023    7.0571 H   0  0  0  0  0  0  0  0  0  0  0  0
   -4.5000    2.1592    5.3919 H   0  0  0  0  0  0  0  0  0  0  0  0
   -5.6496    1.4706    6.5583 H   0  0  0  0  0  0  0  0  0  0  0  0
  1  2  2  0  0  0  0
  1  3  1  0  0  0  0
  1  7  1  0  0  0  0
  3  4  1  0  0  0  0
  3  5  1  0  0  0  0
  3  6  1  0  0  0  0
  7  8  1  0  0  0  0
  7 12  1  0  0  0  0
  8  9  1  0  0  0  0
  8 11  1  0  0  0  0
  8 13  1  0  0  0  0
  9 10  2  0  0  0  0
  9 17  1  0  0  0  0
 11 14  1  0  0  0  0
 11 15  1  0  0  0  0
 11 16  1  0  0  0  0
 17 18  1  0  0  0  0
 17 25  1  0  0  0  0
 18 19  1  0  0  0  0
 18 21  1  0  0  0  0
 18 26  1  0  0  0  0
 19 20  2  0  0  0  0
 19 29  1  0  0  0  0
 21 22  1  0  0  0  0
 21 27  1  0  0  0  0
 21 28  1  0  0  0  0
 22 23  1  0  0  0  0
 22 24  2  0  0  0  0
 29 30  1  0  0  0  0
 29 34  1  0  0  0  0
 30 31  1  0  0  0  0
 30 33  1  0  0  0  0
 30 35  1  0  0  0  0
 31 32  2  0  0  0  0
 31 39  1  0  0  0  0
 33 36  1  0  0  0  0
 33 37  1  0  0  0  0
 33 38  1  0  0  0  0
 39 40  1  0  0  0  0
 39 41  1  0  0  0  0
 40 42  1  0  0  0  0
 40 43  1  0  0  0  0
 40 44  1  0  0  0  0
M  CHG  1  23  -1
M  END
$$$$

  -OEChem-02062319053D

 44 43  0     1  0  0  0  0  0999 V2000
   -4.5148   -0.9279   -1.1690 C   0  0  0  0  0  0  0  0  0  0  0  0
   -4.7719   -2.1180   -1.2562 O   0  0  0  0  0  0  0  0  0  0  0  0
   -5.6065    0.0982   -1.4139 C   0  0  0  0  0  0  0  0  0  0  0  0
   -5.3002    0.7875   -2.2044 H   0  0  0  0  0  0  0  0  0  0  0  0
   -6.5312   -0.3993   -1.7196 H   0  0  0  0  0  0  0  0  0  0  0  0
   -5.7955    0.6652   -0.4989 H   0  0  0  0  0  0  0  0  0  0  0  0
   -3.2465   -0.4996   -0.8450 N   0  0  0  0  0  0  0  0  0  0  0  0
   -2.1399   -1.3661   -0.4174 C   0  0  2  0  0  0  0  0  0  0  0  0
   -1.2641   -0.6318    0.6266 C   0  0  0  0  0  0  0  0  0  0  0  0
   -1.3188    0.5898    0.7082 O   0  0  0  0  0  0  0  0  0  0  0  0
   -1.3200   -1.7336   -1.6591 C   0  0  0  0  0  0  0  0  0  0  0  0
   -3.1177    0.4973   -0.6744 H   0  0  0  0  0  0  0  0  0  0  0  0
   -2.5309   -2.2785    0.0455 H   0  0  0  0  0  0  0  0  0  0  0  0
   -0.9224   -0.8317   -2.1353 H   0  0  0  0  0  0  0  0  0  0  0  0
   -0.4796   -2.3811   -1.3926 H   0  0  0  0  0  0  0  0  0  0  0  0
   -1.9467   -2.2647   -2.3821 H   0  0  0  0  0  0  0  0  0  0  0  0
   -0.2309   -1.2281    1.3111 N   0  0  0  0  0  0  0  0  0  0  0  0
   -0.1496   -2.6494    1.6696 C   0  0  2  0  0  0  0  0  0  0  0  0
   -1.3209   -3.0931    2.5682 C   0  0  0  0  0  0  0  0  0  0  0  0
   -1.9743   -4.0883    2.2822 O   0  0  0  0  0  0  0  0  0  0  0  0
    1.1736   -2.8775    2.4173 C   0  0  0  0  0  0  0  0  0  0  0  0
    2.3589   -2.3948    1.5973 C   0  0  0  0  0  0  0  0  0  0  0  0
    2.9499   -3.2221    0.8654 O   0  5  0  0  0  0  0  0  0  0  0  0
    2.6125   -1.1651    1.6523 O   0  0  0  0  0  0  0  0  0  0  0  0
    0.5483   -0.6176    1.5818 H   0  0  0  0  0  0  0  0  0  0  0  0
   -0.1477   -3.2657    0.7644 H   0  0  0  0  0  0  0  0  0  0  0  0
    1.2977   -3.9432    2.6298 H   0  0  0  0  0  0  0  0  0  0  0  0
    1.1680   -2.3460    3.3732 H   0  0  0  0  0  0  0  0  0  0  0  0
   -1.7205   -2.3184    3.6414 N   0  0  0  0  0  0  0  0  0  0  0  0
   -2.9280   -2.5642    4.4388 C   0  0  2  0  0  0  0  0  0  0  0  0
   -3.4936   -1.2728    5.0649 C   0  0  0  0  0  0  0  0  0  0  0  0
   -2.7701   -0.3052    5.2704 O   0  0  0  0  0  0  0  0  0  0  0  0
   -2.5914   -3.5798    5.5354 C   0  0  0  0  0  0  0  0  0  0  0  0
   -1.2271   -1.4362    3.7840 H   0  0  0  0  0  0  0  0  0  0  0  0
   -3.7080   -2.9787    3.7916 H   0  0  0  0  0  0  0  0  0  0  0  0
   -1.8085   -3.1871    6.1921 H   0  0  0  0  0  0  0  0  0  0  0  0
   -3.4766   -3.7998    6.1394 H   0  0  0  0  0  0  0  0  0  0  0  0
   -2.2365   -4.5151    5.0911 H   0  0  0  0  0  0  0  0  0  0  0  0
   -4.8293   -1.2017    5.4188 N   0  0  0  0  0  0  0  0  0  0  0  0
   -5.4422   -0.0094    5.9894 C   0  0  0  0  0  0  0  0  0  0  0  0
   -5.4151   -2.0010    5.1966 H   0  0  0  0  0  0  0  0  0  0  0  0
   -4.9473    0.2632    6.9274 H   0  0  0  0  0  0  0  0  0  0  0  0
   -5.3651    0.8312    5.2919 H   0  0  0  0  0  0  0  0  0  0  0  0
   -6.5007   -0.1914    6.1981 H   0  0  0  0  0  0  0  0  0  0  0  0
  1  2  2  0  0  0  0
  1  3  1  0  0  0  0
  1  7  1  0  0  0  0
  3  4  1  0  0  0  0
  3  5  1  0  0  0  0
  3  6  1  0  0  0  0
  7  8  1  0  0  0  0
  7 12  1  0  0  0  0
  8  9  1  0  0  0  0
  8 11  1  0  0  0  0
  8 13  1  0  0  0  0
  9 10  2  0  0  0  0
  9 17  1  0  0  0  0
 11 14  1  0  0  0  0
 11 15  1  0  0  0  0
 11 16  1  0  0  0  0
 17 18  1  0  0  0  0
 17 25  1  0  0  0  0
 18 19  1  0  0  0  0
 18 21  1  0  0  0  0
 18 26  1  0  0  0  0
 19 20  2  0  0  0  0
 19 29  1  0  0  0  0
 21 22  1  0  0  0  0
 21 27  1  0  0  0  0
 21 28  1  0  0  0  0
 22 23  1  0  0  0  0
 22 24  2  0  0  0  0
 29 30  1  0  0  0  0
 29 34  1  0  0  0  0
 30 31  1  0  0  0  0
 30 33  1  0  0  0  0
 30 35  1  0  0  0  0
 31 32  2  0  0  0  0
 31 39  1  0  0  0  0
 33 36  1  0  0  0  0
 33 37  1  0  0  0  0
 33 38  1  0  0  0  0
 39 40  1  0  0  0  0
 39 41  1  0  0  0  0
 40 42  1  0  0  0  0
 40 43  1  0  0  0  0
 40 44  1  0  0  0  0
M  CHG  1  23  -1
M  END
$$$$

  -OEChem-02062319053D

 44 43  0     1  0  0  0  0  0999 V2000
   -4.6966   -1.0765   -0.1102 C   0  0  0  0  0  0  0  0  0  0  0  0
   -4.8183   -2.0594    0.6056 O   0  0  0  0  0  0  0  0  0  0  0  0
   -5.8460   -0.0945   -0.2396 C   0  0  0  0  0  0  0  0  0  0  0  0
   -6.0690    0.0820   -1.2946 H   0  0  0  0  0  0  0  0  0  0  0  0
   -6.7404   -0.4923    0.2473 H   0  0  0  0  0  0  0  0  0  0  0  0
   -5.5787    0.8545    0.2323 H   0  0  0  0  0  0  0  0  0  0  0  0
   -3.5137   -0.8237   -0.7701 N   0  0  0  0  0  0  0  0  0  0  0  0
   -2.2600   -1.5232   -0.4533 C   0  0  2  0  0  0  0  0  0  0  0  0
   -1.4262   -0.7346    0.5860 C   0  0  0  0  0  0  0  0  0  0  0  0
   -1.5795    0.4758    0.6922 O   0  0  0  0  0  0  0  0  0  0  0  0
   -1.4810   -1.6717   -1.7629 C   0  0  0  0  0  0  0  0  0  0  0  0
   -3.4096    0.1288   -1.1104 H   0  0  0  0  0  0  0  0  0  0  0  0
   -2.4703   -2.5225   -0.0614 H   0  0  0  0  0  0  0  0  0  0  0  0
   -1.2511   -0.6887   -2.1864 H   0  0  0  0  0  0  0  0  0  0  0  0
   -0.5392   -2.2020   -1.5927 H   0  0  0  0  0  0  0  0  0  0  0  0
   -2.0687   -2.2390   -2.4911 H   0  0  0  0  0  0  0  0  0  0  0  0
   -0.3746   -1.2650    1.2985 N   0  0  0  0  0  0  0  0  0  0  0  0
   -0.0521   -2.6918    1.4428 C   0  0  2  0  0  0  0  0  0  0  0  0
   -1.1913   -3.4953    2.1007 C   0  0  0  0  0  0  0  0  0  0  0  0
   -1.5730   -4.5473    1.6052 O   0  0  0  0  0  0  0  0  0  0  0  0
    1.2169   -2.8063    2.3017 C   0  0  0  0  0  0  0  0  0  0  0  0
    2.3653   -2.0315    1.6761 C   0  0  0  0  0  0  0  0  0  0  0  0
    3.1748   -2.6540    0.9509 O   0  5  0  0  0  0  0  0  0  0  0  0
    2.3613   -0.7872    1.8547 O   0  0  0  0  0  0  0  0  0  0  0  0
    0.3376   -0.5892    1.6041 H   0  0  0  0  0  0  0  0  0  0  0  0
    0.1560   -3.1280    0.4601 H   0  0  0  0  0  0  0  0  0  0  0  0
    1.5055   -3.8573    2.3964 H   0  0  0  0  0  0  0  0  0  0  0  0
    1.0350   -2.4193    3.3083 H   0  0  0  0  0  0  0  0  0  0  0  0
   -1.8295   -2.9935    3.2192 N   0  0  0  0  0  0  0  0  0  0  0  0
   -2.9325   -3.6566    3.9298 C   0  0  2  0  0  0  0  0  0  0  0  0
   -3.9866   -2.6378    4.4220 C   0  0  0  0  0  0  0  0  0  0  0  0
   -4.1860   -2.4405    5.6168 O   0  0  0  0  0  0  0  0  0  0  0  0
   -2.3235   -4.4903    5.0647 C   0  0  0  0  0  0  0  0  0  0  0  0
   -1.4776   -2.1083    3.5781 H   0  0  0  0  0  0  0  0  0  0  0  0
   -3.4581   -4.3358    3.2503 H   0  0  0  0  0  0  0  0  0  0  0  0
   -1.7859   -3.8474    5.7688 H   0  0  0  0  0  0  0  0  0  0  0  0
   -3.1095   -5.0234    5.6083 H   0  0  0  0  0  0  0  0  0  0  0  0
   -1.6230   -5.2271    4.6592 H   0  0  0  0  0  0  0  0  0  0  0  0
   -4.7078   -1.9039    3.5006 N   0  0  0  0  0  0  0  0  0  0  0  0
   -5.6862   -0.8883    3.8566 C   0  0  0  0  0  0  0  0  0  0  0  0
   -4.5549   -2.1108    2.5086 H   0  0  0  0  0  0  0  0  0  0  0  0
   -6.4571   -1.3090    4.5100 H   0  0  0  0  0  0  0  0  0  0  0  0
   -5.1993   -0.0540    4.3715 H   0  0  0  0  0  0  0  0  0  0  0  0
   -6.1706   -0.5041    2.9542 H   0  0  0  0  0  0  0  0  0  0  0  0
  1  2  2  0  0  0  0
  1  3  1  0  0  0  0
  1  7  1  0  0  0  0
  3  4  1  0  0  0  0
  3  5  1  0  0  0  0
  3  6  1  0  0  0  0
  7  8  1  0  0  0  0
  7 12  1  0  0  0  0
  8  9  1  0  0  0  0
  8 11  1  0  0  0  0
  8 13  1  0  0  0  0
  9 10  2  0  0  0  0
  9 17  1  0  0  0  0
 11 14  1  0  0  0  0
 11 15  1  0  0  0  0
 11 16  1  0  0  0  0
 17 18  1  0  0  0  0
 17 25  1  0  0  0  0
 18 19  1  0  0  0  0
 18 21  1  0  0  0  0
 18 26  1  0  0  0  0
 19 20  2  0  0  0  0
 19 29  1  0  0  0  0
 21 22  1  0  0  0  0
 21 27  1  0  0  0  0
 21 28  1  0  0  0  0
 22 23  1  0  0  0  0
 22 24  2  0  0  0  0
 29 30  1  0  0  0  0
 29 34  1  0  0  0  0
 30 31  1  0  0  0  0
 30 33  1  0  0  0  0
 30 35  1  0  0  0  0
 31 32  2  0  0  0  0
 31 39  1  0  0  0  0
 33 36  1  0  0  0  0
 33 37  1  0  0  0  0
 33 38  1  0  0  0  0
 39 40  1  0  0  0  0
 39 41  1  0  0  0  0
 40 42  1  0  0  0  0
 40 43  1  0  0  0  0
 40 44  1  0  0  0  0
M  CHG  1  23  -1
M  END
$$$$

  -OEChem-02062319053D

 44 43  0     1  0  0  0  0  0999 V2000
   -4.6986   -1.3434   -0.3576 C   0  0  0  0  0  0  0  0  0  0  0  0
   -4.8228   -2.4987    0.0241 O   0  0  0  0  0  0  0  0  0  0  0  0
   -5.9028   -0.4202   -0.3480 C   0  0  0  0  0  0  0  0  0  0  0  0
   -6.0770   -0.0253   -1.3520 H   0  0  0  0  0  0  0  0  0  0  0  0
   -6.7949   -0.9628   -0.0228 H   0  0  0  0  0  0  0  0  0  0  0  0
   -5.7268    0.4127    0.3375 H   0  0  0  0  0  0  0  0  0  0  0  0
   -3.4771   -0.8480   -0.7601 N   0  0  0  0  0  0  0  0  0  0  0  0
   -2.1948   -1.5123   -0.4809 C   0  0  2  0  0  0  0  0  0  0  0  0
   -1.3995   -0.7279    0.5948 C   0  0  0  0  0  0  0  0  0  0  0  0
   -1.6816    0.4458    0.8037 O   0  0  0  0  0  0  0  0  0  0  0  0
   -1.4143   -1.5717   -1.7964 C   0  0  0  0  0  0  0  0  0  0  0  0
   -3.4262    0.1675   -0.8199 H   0  0  0  0  0  0  0  0  0  0  0  0
   -2.3659   -2.5317   -0.1300 H   0  0  0  0  0  0  0  0  0  0  0  0
   -1.2050   -0.5618   -2.1634 H   0  0  0  0  0  0  0  0  0  0  0  0
   -0.4636   -2.0942   -1.6583 H   0  0  0  0  0  0  0  0  0  0  0  0
   -1.9923   -2.1080   -2.5552 H   0  0  0  0  0  0  0  0  0  0  0  0
   -0.3473   -1.2192    1.3385 N   0  0  0  0  0  0  0  0  0  0  0  0
    0.2300   -2.5702    1.2648 C   0  0  2  0  0  0  0  0  0  0  0  0
   -0.7951   -3.6715    1.5929 C   0  0  0  0  0  0  0  0  0  0  0  0
   -0.9950   -4.5805    0.7972 O   0  0  0  0  0  0  0  0  0  0  0  0
    1.3944   -2.6410    2.2646 C   0  0  0  0  0  0  0  0  0  0  0  0
    2.4688   -1.6224    1.9182 C   0  0  0  0  0  0  0  0  0  0  0  0
    3.4843   -2.0210    1.3030 O   0  5  0  0  0  0  0  0  0  0  0  0
    2.2168   -0.4234    2.1986 O   0  0  0  0  0  0  0  0  0  0  0  0
    0.2466   -0.4946    1.7641 H   0  0  0  0  0  0  0  0  0  0  0  0
    0.6273   -2.7534    0.2610 H   0  0  0  0  0  0  0  0  0  0  0  0
    1.8356   -3.6421    2.2463 H   0  0  0  0  0  0  0  0  0  0  0  0
    1.0397   -2.4521    3.2817 H   0  0  0  0  0  0  0  0  0  0  0  0
   -1.6348   -3.5234    2.6803 N   0  0  0  0  0  0  0  0  0  0  0  0
   -2.8764   -4.2816    2.8768 C   0  0  2  0  0  0  0  0  0  0  0  0
   -3.9513   -3.4258    3.5810 C   0  0  0  0  0  0  0  0  0  0  0  0
   -3.8496   -3.1464    4.7709 O   0  0  0  0  0  0  0  0  0  0  0  0
   -2.5535   -5.5491    3.6748 C   0  0  0  0  0  0  0  0  0  0  0  0
   -1.4718   -2.7068    3.2675 H   0  0  0  0  0  0  0  0  0  0  0  0
   -3.2867   -4.5790    1.9054 H   0  0  0  0  0  0  0  0  0  0  0  0
   -2.1046   -5.2931    4.6400 H   0  0  0  0  0  0  0  0  0  0  0  0
   -3.4653   -6.1258    3.8551 H   0  0  0  0  0  0  0  0  0  0  0  0
   -1.8502   -6.1766    3.1186 H   0  0  0  0  0  0  0  0  0  0  0  0
   -5.0281   -2.9367    2.8667 N   0  0  0  0  0  0  0  0  0  0  0  0
   -5.9897   -1.9948    3.4201 C   0  0  0  0  0  0  0  0  0  0  0  0
   -4.9794   -3.0332    1.8476 H   0  0  0  0  0  0  0  0  0  0  0  0
   -6.4389   -2.3949    4.3349 H   0  0  0  0  0  0  0  0  0  0  0  0
   -5.5008   -1.0431    3.6522 H   0  0  0  0  0  0  0  0  0  0  0  0
   -6.7896   -1.8092    2.6972 H   0  0  0  0  0  0  0  0  0  0  0  0
  1  2  2  0  0  0  0
  1  3  1  0  0  0  0
  1  7  1  0  0  0  0
  3  4  1  0  0  0  0
  3  5  1  0  0  0  0
  3  6  1  0  0  0  0
  7  8  1  0  0  0  0
  7 12  1  0  0  0  0
  8  9  1  0  0  0  0
  8 11  1  0  0  0  0
  8 13  1  0  0  0  0
  9 10  2  0  0  0  0
  9 17  1  0  0  0  0
 11 14  1  0  0  0  0
 11 15  1  0  0  0  0
 11 16  1  0  0  0  0
 17 18  1  0  0  0  0
 17 25  1  0  0  0  0
 18 19  1  0  0  0  0
 18 21  1  0  0  0  0
 18 26  1  0  0  0  0
 19 20  2  0  0  0  0
 19 29  1  0  0  0  0
 21 22  1  0  0  0  0
 21 27  1  0  0  0  0
 21 28  1  0  0  0  0
 22 23  1  0  0  0  0
 22 24  2  0  0  0  0
 29 30  1  0  0  0  0
 29 34  1  0  0  0  0
 30 31  1  0  0  0  0
 30 33  1  0  0  0  0
 30 35  1  0  0  0  0
 31 32  2  0  0  0  0
 31 39  1  0  0  0  0
 33 36  1  0  0  0  0
 33 37  1  0  0  0  0
 33 38  1  0  0  0  0
 39 40  1  0  0  0  0
 39 41  1  0  0  0  0
 40 42  1  0  0  0  0
 40 43  1  0  0  0  0
 40 44  1  0  0  0  0
M  CHG  1  23  -1
M  END
$$$$

  -OEChem-02062319053D

 44 43  0     1  0  0  0  0  0999 V2000
   -4.6256   -1.5100   -0.7372 C   0  0  0  0  0  0  0  0  0  0  0  0
   -4.6879   -2.7298   -0.6616 O   0  0  0  0  0  0  0  0  0  0  0  0
   -5.9005   -0.6899   -0.6698 C   0  0  0  0  0  0  0  0  0  0  0  0
   -6.0360   -0.1351   -1.6014 H   0  0  0  0  0  0  0  0  0  0  0  0
   -6.7645   -1.3430   -0.5184 H   0  0  0  0  0  0  0  0  0  0  0  0
   -5.8437    0.0177    0.1618 H   0  0  0  0  0  0  0  0  0  0  0  0
   -3.4146   -0.8610   -0.8433 N   0  0  0  0  0  0  0  0  0  0  0  0
   -2.1161   -1.4923   -0.5664 C   0  0  2  0  0  0  0  0  0  0  0  0
   -1.3493   -0.7001    0.5255 C   0  0  0  0  0  0  0  0  0  0  0  0
   -1.7128    0.4405    0.7859 O   0  0  0  0  0  0  0  0  0  0  0  0
   -1.3234   -1.5264   -1.8747 C   0  0  0  0  0  0  0  0  0  0  0  0
   -3.4399    0.1456   -0.6829 H   0  0  0  0  0  0  0  0  0  0  0  0
   -2.2715   -2.5139   -0.2189 H   0  0  0  0  0  0  0  0  0  0  0  0
   -1.1368   -0.5106   -2.2370 H   0  0  0  0  0  0  0  0  0  0  0  0
   -0.3617   -2.0263   -1.7301 H   0  0  0  0  0  0  0  0  0  0  0  0
   -1.8816   -2.0749   -2.6393 H   0  0  0  0  0  0  0  0  0  0  0  0
   -0.3390   -1.1855    1.3312 N   0  0  0  0  0  0  0  0  0  0  0  0
    0.4265   -2.4277    1.1325 C   0  0  2  0  0  0  0  0  0  0  0  0
   -0.4557   -3.6900    1.1309 C   0  0  0  0  0  0  0  0  0  0  0  0
   -0.4631   -4.4329    0.1572 O   0  0  0  0  0  0  0  0  0  0  0  0
    1.4578   -2.5252    2.2665 C   0  0  0  0  0  0  0  0  0  0  0  0
    2.4316   -1.3589    2.2082 C   0  0  0  0  0  0  0  0  0  0  0  0
    2.0017   -0.2472    2.6066 O   0  5  0  0  0  0  0  0  0  0  0  0
    3.5603   -1.5568    1.7028 O   0  0  0  0  0  0  0  0  0  0  0  0
    0.1396   -0.4550    1.8760 H   0  0  0  0  0  0  0  0  0  0  0  0
    0.9640   -2.3827    0.1790 H   0  0  0  0  0  0  0  0  0  0  0  0
    2.0178   -3.4609    2.1785 H   0  0  0  0  0  0  0  0  0  0  0  0
    0.9579   -2.5242    3.2392 H   0  0  0  0  0  0  0  0  0  0  0  0
   -1.4331   -3.8360    2.0978 N   0  0  0  0  0  0  0  0  0  0  0  0
   -2.6190   -4.6904    1.9555 C   0  0  2  0  0  0  0  0  0  0  0  0
   -3.8318   -4.0934    2.7014 C   0  0  0  0  0  0  0  0  0  0  0  0
   -3.7783   -3.8916    3.9101 O   0  0  0  0  0  0  0  0  0  0  0  0
   -2.2854   -6.0901    2.4810 C   0  0  0  0  0  0  0  0  0  0  0  0
   -1.4373   -3.1400    2.8425 H   0  0  0  0  0  0  0  0  0  0  0  0
   -2.8922   -4.7698    0.8976 H   0  0  0  0  0  0  0  0  0  0  0  0
   -2.0011   -6.0463    3.5371 H   0  0  0  0  0  0  0  0  0  0  0  0
   -3.1516   -6.7506    2.3790 H   0  0  0  0  0  0  0  0  0  0  0  0
   -1.4537   -6.5191    1.9137 H   0  0  0  0  0  0  0  0  0  0  0  0
   -4.9816   -3.7543    2.0133 N   0  0  0  0  0  0  0  0  0  0  0  0
   -6.0954   -3.0499    2.6321 C   0  0  0  0  0  0  0  0  0  0  0  0
   -4.9023   -3.7176    0.9925 H   0  0  0  0  0  0  0  0  0  0  0  0
   -6.4748   -3.6109    3.4926 H   0  0  0  0  0  0  0  0  0  0  0  0
   -5.7808   -2.0560    2.9670 H   0  0  0  0  0  0  0  0  0  0  0  0
   -6.9105   -2.9333    1.9115 H   0  0  0  0  0  0  0  0  0  0  0  0
  1  2  2  0  0  0  0
  1  3  1  0  0  0  0
  1  7  1  0  0  0  0
  3  4  1  0  0  0  0
  3  5  1  0  0  0  0
  3  6  1  0  0  0  0
  7  8  1  0  0  0  0
  7 12  1  0  0  0  0
  8  9  1  0  0  0  0
  8 11  1  0  0  0  0
  8 13  1  0  0  0  0
  9 10  2  0  0  0  0
  9 17  1  0  0  0  0
 11 14  1  0  0  0  0
 11 15  1  0  0  0  0
 11 16  1  0  0  0  0
 17 18  1  0  0  0  0
 17 25  1  0  0  0  0
 18 19  1  0  0  0  0
 18 21  1  0  0  0  0
 18 26  1  0  0  0  0
 19 20  2  0  0  0  0
 19 29  1  0  0  0  0
 21 22  1  0  0  0  0
 21 27  1  0  0  0  0
 21 28  1  0  0  0  0
 22 23  1  0  0  0  0
 22 24  2  0  0  0  0
 29 30  1  0  0  0  0
 29 34  1  0  0  0  0
 30 31  1  0  0  0  0
 30 33  1  0  0  0  0
 30 35  1  0  0  0  0
 31 32  2  0  0  0  0
 31 39  1  0  0  0  0
 33 36  1  0  0  0  0
 33 37  1  0  0  0  0
 33 38  1  0  0  0  0
 39 40  1  0  0  0  0
 39 41  1  0  0  0  0
 40 42  1  0  0  0  0
 40 43  1  0  0  0  0
 40 44  1  0  0  0  0
M  CHG  1  23  -1
M  END
$$$$

  -OEChem-02062319053D

 44 43  0     1  0  0  0  0  0999 V2000
   -4.5515   -1.4745   -1.0882 C   0  0  0  0  0  0  0  0  0  0  0  0
   -4.5118   -2.6777   -1.3085 O   0  0  0  0  0  0  0  0  0  0  0  0
   -5.8899   -0.7605   -1.0435 C   0  0  0  0  0  0  0  0  0  0  0  0
   -5.9169    0.0279   -1.7997 H   0  0  0  0  0  0  0  0  0  0  0  0
   -6.7026   -1.4656   -1.2394 H   0  0  0  0  0  0  0  0  0  0  0  0
   -6.0408   -0.3142   -0.0572 H   0  0  0  0  0  0  0  0  0  0  0  0
   -3.3957   -0.7644   -0.8482 N   0  0  0  0  0  0  0  0  0  0  0  0
   -2.0777   -1.3724   -0.6201 C   0  0  2  0  0  0  0  0  0  0  0  0
   -1.3039   -0.6237    0.4968 C   0  0  0  0  0  0  0  0  0  0  0  0
   -1.7123    0.4788    0.8412 O   0  0  0  0  0  0  0  0  0  0  0  0
   -1.3023   -1.3253   -1.9399 C   0  0  0  0  0  0  0  0  0  0  0  0
   -3.5024    0.1896   -0.5030 H   0  0  0  0  0  0  0  0  0  0  0  0
   -2.2127   -2.4095   -0.3168 H   0  0  0  0  0  0  0  0  0  0  0  0
   -1.1767   -0.2905   -2.2737 H   0  0  0  0  0  0  0  0  0  0  0  0
   -0.3116   -1.7738   -1.8241 H   0  0  0  0  0  0  0  0  0  0  0  0
   -1.8408   -1.8810   -2.7137 H   0  0  0  0  0  0  0  0  0  0  0  0
   -0.3398   -1.1599    1.3287 N   0  0  0  0  0  0  0  0  0  0  0  0
    0.5779   -2.2653    0.9973 C   0  0  2  0  0  0  0  0  0  0  0  0
   -0.1366   -3.5850    0.6479 C   0  0  0  0  0  0  0  0  0  0  0  0
    0.0445   -4.1226   -0.4370 O   0  0  0  0  0  0  0  0  0  0  0  0
    1.4979   -2.4901    2.2071 C   0  0  0  0  0  0  0  0  0  0  0  0
    2.3489   -1.2584    2.4754 C   0  0  0  0  0  0  0  0  0  0  0  0
    1.7628   -0.2673    2.9788 O   0  5  0  0  0  0  0  0  0  0  0  0
    3.5490   -1.2815    2.1184 O   0  0  0  0  0  0  0  0  0  0  0  0
    0.0418   -0.4715    1.9929 H   0  0  0  0  0  0  0  0  0  0  0  0
    1.1972   -1.9794    0.1395 H   0  0  0  0  0  0  0  0  0  0  0  0
    2.1584   -3.3412    2.0165 H   0  0  0  0  0  0  0  0  0  0  0  0
    0.9078   -2.7179    3.0992 H   0  0  0  0  0  0  0  0  0  0  0  0
   -1.1828   -4.0141    1.4445 N   0  0  0  0  0  0  0  0  0  0  0  0
   -2.1964   -4.9975    1.0422 C   0  0  2  0  0  0  0  0  0  0  0  0
   -3.5390   -4.7412    1.7600 C   0  0  0  0  0  0  0  0  0  0  0  0
   -3.6221   -4.8554    2.9781 O   0  0  0  0  0  0  0  0  0  0  0  0
   -1.6669   -6.4031    1.3441 C   0  0  0  0  0  0  0  0  0  0  0  0
   -1.3280   -3.5037    2.3147 H   0  0  0  0  0  0  0  0  0  0  0  0
   -2.3803   -4.9174   -0.0347 H   0  0  0  0  0  0  0  0  0  0  0  0
   -1.4461   -6.5103    2.4109 H   0  0  0  0  0  0  0  0  0  0  0  0
   -2.4086   -7.1566    1.0632 H   0  0  0  0  0  0  0  0  0  0  0  0
   -0.7494   -6.5921    0.7782 H   0  0  0  0  0  0  0  0  0  0  0  0
   -4.6546   -4.3450    1.0464 N   0  0  0  0  0  0  0  0  0  0  0  0
   -5.9008   -3.9432    1.6832 C   0  0  0  0  0  0  0  0  0  0  0  0
   -4.5006   -4.0547    0.0759 H   0  0  0  0  0  0  0  0  0  0  0  0
   -6.2824   -4.7453    2.3235 H   0  0  0  0  0  0  0  0  0  0  0  0
   -5.7474   -3.0462    2.2920 H   0  0  0  0  0  0  0  0  0  0  0  0
   -6.6549   -3.7227    0.9216 H   0  0  0  0  0  0  0  0  0  0  0  0
  1  2  2  0  0  0  0
  1  3  1  0  0  0  0
  1  7  1  0  0  0  0
  3  4  1  0  0  0  0
  3  5  1  0  0  0  0
  3  6  1  0  0  0  0
  7  8  1  0  0  0  0
  7 12  1  0  0  0  0
  8  9  1  0  0  0  0
  8 11  1  0  0  0  0
  8 13  1  0  0  0  0
  9 10  2  0  0  0  0
  9 17  1  0  0  0  0
 11 14  1  0  0  0  0
 11 15  1  0  0  0  0
 11 16  1  0  0  0  0
 17 18  1  0  0  0  0
 17 25  1  0  0  0  0
 18 19  1  0  0  0  0
 18 21  1  0  0  0  0
 18 26  1  0  0  0  0
 19 20  2  0  0  0  0
 19 29  1  0  0  0  0
 21 22  1  0  0  0  0
 21 27  1  0  0  0  0
 21 28  1  0  0  0  0
 22 23  1  0  0  0  0
 22 24  2  0  0  0  0
 29 30  1  0  0  0  0
 29 34  1  0  0  0  0
 30 31  1  0  0  0  0
 30 33  1  0  0  0  0
 30 35  1  0  0  0  0
 31 32  2  0  0  0  0
 31 39  1  0  0  0  0
 33 36  1  0  0  0  0
 33 37  1  0  0  0  0
 33 38  1  0  0  0  0
 39 40  1  0  0  0  0
 39 41  1  0  0  0  0
 40 42  1  0  0  0  0
 40 43  1  0  0  0  0
 40 44  1  0  0  0  0
M  CHG  1  23  -1
M  END
$$$$

  -OEChem-02062319053D

 44 43  0     1  0  0  0  0  0999 V2000
   -4.4323   -1.3926   -1.3421 C   0  0  0  0  0  0  0  0  0  0  0  0
   -4.2849   -2.5175   -1.8011 O   0  0  0  0  0  0  0  0  0  0  0  0
   -5.8197   -0.7843   -1.2592 C   0  0  0  0  0  0  0  0  0  0  0  0
   -5.8546    0.1426   -1.8372 H   0  0  0  0  0  0  0  0  0  0  0  0
   -6.5632   -1.4788   -1.6600 H   0  0  0  0  0  0  0  0  0  0  0  0
   -6.0676   -0.5647   -0.2175 H   0  0  0  0  0  0  0  0  0  0  0  0
   -3.3506   -0.6837   -0.8693 N   0  0  0  0  0  0  0  0  0  0  0  0
   -1.9945   -1.2258   -0.7208 C   0  0  2  0  0  0  0  0  0  0  0  0
   -1.2262   -0.5238    0.4277 C   0  0  0  0  0  0  0  0  0  0  0  0
   -1.6572    0.5547    0.8169 O   0  0  0  0  0  0  0  0  0  0  0  0
   -1.2526   -1.0264   -2.0467 C   0  0  0  0  0  0  0  0  0  0  0  0
   -3.5311    0.1999   -0.3922 H   0  0  0  0  0  0  0  0  0  0  0  0
   -2.0682   -2.2875   -0.4992 H   0  0  0  0  0  0  0  0  0  0  0  0
   -1.2307    0.0346   -2.3149 H   0  0  0  0  0  0  0  0  0  0  0  0
   -0.2216   -1.3836   -1.9727 H   0  0  0  0  0  0  0  0  0  0  0  0
   -1.7508   -1.5808   -2.8480 H   0  0  0  0  0  0  0  0  0  0  0  0
   -0.3387   -1.1159    1.3056 N   0  0  0  0  0  0  0  0  0  0  0  0
    0.7240   -2.0660    0.9258 C   0  0  2  0  0  0  0  0  0  0  0  0
    0.2240   -3.3608    0.2538 C   0  0  0  0  0  0  0  0  0  0  0  0
    0.6026   -3.6702   -0.8682 O   0  0  0  0  0  0  0  0  0  0  0  0
    1.5012   -2.4256    2.2028 C   0  0  0  0  0  0  0  0  0  0  0  0
    2.2121   -1.2058    2.7705 C   0  0  0  0  0  0  0  0  0  0  0  0
    1.4871   -0.3129    3.2768 O   0  5  0  0  0  0  0  0  0  0  0  0
    3.4571   -1.1414    2.6525 O   0  0  0  0  0  0  0  0  0  0  0  0
   -0.0655   -0.4765    2.0660 H   0  0  0  0  0  0  0  0  0  0  0  0
    1.4111   -1.5755    0.2268 H   0  0  0  0  0  0  0  0  0  0  0  0
    2.2460   -3.1951    1.9782 H   0  0  0  0  0  0  0  0  0  0  0  0
    0.8235   -2.8281    2.9608 H   0  0  0  0  0  0  0  0  0  0  0  0
   -0.8585   -4.0250    0.8025 N   0  0  0  0  0  0  0  0  0  0  0  0
   -1.6563   -5.0559    0.1263 C   0  0  2  0  0  0  0  0  0  0  0  0
   -3.0688   -5.1559    0.7434 C   0  0  0  0  0  0  0  0  0  0  0  0
   -3.2142   -5.5633    1.8909 O   0  0  0  0  0  0  0  0  0  0  0  0
   -0.9219   -6.3988    0.2177 C   0  0  0  0  0  0  0  0  0  0  0  0
   -1.1495   -3.7252    1.7320 H   0  0  0  0  0  0  0  0  0  0  0  0
   -1.7737   -4.7932   -0.9306 H   0  0  0  0  0  0  0  0  0  0  0  0
   -0.7545   -6.6749    1.2634 H   0  0  0  0  0  0  0  0  0  0  0  0
   -1.5107   -7.1865   -0.2615 H   0  0  0  0  0  0  0  0  0  0  0  0
    0.0480   -6.3382   -0.2850 H   0  0  0  0  0  0  0  0  0  0  0  0
   -4.1841   -4.7537    0.0321 N   0  0  0  0  0  0  0  0  0  0  0  0
   -5.5171   -4.6990    0.6153 C   0  0  0  0  0  0  0  0  0  0  0  0
   -4.0196   -4.2136   -0.8225 H   0  0  0  0  0  0  0  0  0  0  0  0
   -5.8013   -5.6760    1.0198 H   0  0  0  0  0  0  0  0  0  0  0  0
   -5.5519   -3.9577    1.4202 H   0  0  0  0  0  0  0  0  0  0  0  0
   -6.2477   -4.4178   -0.1493 H   0  0  0  0  0  0  0  0  0  0  0  0
  1  2  2  0  0  0  0
  1  3  1  0  0  0  0
  1  7  1  0  0  0  0
  3  4  1  0  0  0  0
  3  5  1  0  0  0  0
  3  6  1  0  0  0  0
  7  8  1  0  0  0  0
  7 12  1  0  0  0  0
  8  9  1  0  0  0  0
  8 11  1  0  0  0  0
  8 13  1  0  0  0  0
  9 10  2  0  0  0  0
  9 17  1  0  0  0  0
 11 14  1  0  0  0  0
 11 15  1  0  0  0  0
 11 16  1  0  0  0  0
 17 18  1  0  0  0  0
 17 25  1  0  0  0  0
 18 19  1  0  0  0  0
 18 21  1  0  0  0  0
 18 26  1  0  0  0  0
 19 20  2  0  0  0  0
 19 29  1  0  0  0  0
 21 22  1  0  0  0  0
 21 27  1  0  0  0  0
 21 28  1  0  0  0  0
 22 23  1  0  0  0  0
 22 24  2  0  0  0  0
 29 30  1  0  0  0  0
 29 34  1  0  0  0  0
 30 31  1  0  0  0  0
 30 33  1  0  0  0  0
 30 35  1  0  0  0  0
 31 32  2  0  0  0  0
 31 39  1  0  0  0  0
 33 36  1  0  0  0  0
 33 37  1  0  0  0  0
 33 38  1  0  0  0  0
 39 40  1  0  0  0  0
 39 41  1  0  0  0  0
 40 42  1  0  0  0  0
 40 43  1  0  0  0  0
 40 44  1  0  0  0  0
M  CHG  1  23  -1
M  END
$$$$

  -OEChem-02062319053D

 44 43  0     1  0  0  0  0  0999 V2000
   -4.4128   -1.1798   -1.4573 C   0  0  0  0  0  0  0  0  0  0  0  0
   -4.2342   -2.2618   -1.9989 O   0  0  0  0  0  0  0  0  0  0  0  0
   -5.8056   -0.5819   -1.3886 C   0  0  0  0  0  0  0  0  0  0  0  0
   -5.8196    0.3873   -1.8930 H   0  0  0  0  0  0  0  0  0  0  0  0
   -6.5266   -1.2441   -1.8757 H   0  0  0  0  0  0  0  0  0  0  0  0
   -6.1007   -0.4453   -0.3454 H   0  0  0  0  0  0  0  0  0  0  0  0
   -3.3503   -0.5044   -0.9006 N   0  0  0  0  0  0  0  0  0  0  0  0
   -1.9829   -1.0285   -0.8049 C   0  0  2  0  0  0  0  0  0  0  0  0
   -1.2133   -0.3948    0.3795 C   0  0  0  0  0  0  0  0  0  0  0  0
   -1.6420    0.6638    0.8217 O   0  0  0  0  0  0  0  0  0  0  0  0
   -1.2694   -0.7220   -2.1269 C   0  0  0  0  0  0  0  0  0  0  0  0
   -3.5419    0.3518   -0.3801 H   0  0  0  0  0  0  0  0  0  0  0  0
   -2.0326   -2.1045   -0.6501 H   0  0  0  0  0  0  0  0  0  0  0  0
   -0.2262   -1.0449   -2.0942 H   0  0  0  0  0  0  0  0  0  0  0  0
   -1.2877    0.3537   -2.3282 H   0  0  0  0  0  0  0  0  0  0  0  0
   -1.7622   -1.2413   -2.9545 H   0  0  0  0  0  0  0  0  0  0  0  0
   -0.4015   -1.0716    1.2677 N   0  0  0  0  0  0  0  0  0  0  0  0
    0.7947   -1.8339    0.8627 C   0  0  2  0  0  0  0  0  0  0  0  0
    0.5428   -3.0033   -0.1121 C   0  0  0  0  0  0  0  0  0  0  0  0
    1.1346   -3.0658   -1.1814 O   0  0  0  0  0  0  0  0  0  0  0  0
    1.4409   -2.3850    2.1447 C   0  0  0  0  0  0  0  0  0  0  0  0
    1.9502   -1.2596    3.0341 C   0  0  0  0  0  0  0  0  0  0  0  0
    1.0837   -0.5274    3.5747 O   0  5  0  0  0  0  0  0  0  0  0  0
    3.1884   -1.1052    3.1370 O   0  0  0  0  0  0  0  0  0  0  0  0
   -0.2489   -0.5245    2.1279 H   0  0  0  0  0  0  0  0  0  0  0  0
    1.5048   -1.1523    0.3794 H   0  0  0  0  0  0  0  0  0  0  0  0
    2.2827   -3.0336    1.8839 H   0  0  0  0  0  0  0  0  0  0  0  0
    0.7192   -2.9837    2.7072 H   0  0  0  0  0  0  0  0  0  0  0  0
   -0.5108   -3.8691    0.1257 N   0  0  0  0  0  0  0  0  0  0  0  0
   -0.9206   -4.9724   -0.7569 C   0  0  2  0  0  0  0  0  0  0  0  0
   -2.3302   -5.4959   -0.3868 C   0  0  0  0  0  0  0  0  0  0  0  0
   -2.4723   -6.4882    0.3202 O   0  0  0  0  0  0  0  0  0  0  0  0
    0.1332   -6.0902   -0.6899 C   0  0  0  0  0  0  0  0  0  0  0  0
   -0.9265   -3.8130    1.0539 H   0  0  0  0  0  0  0  0  0  0  0  0
   -0.9719   -4.6084   -1.7885 H   0  0  0  0  0  0  0  0  0  0  0  0
    0.2546   -6.4440    0.3387 H   0  0  0  0  0  0  0  0  0  0  0  0
   -0.1706   -6.9349   -1.3155 H   0  0  0  0  0  0  0  0  0  0  0  0
    1.1022   -5.7312   -1.0489 H   0  0  0  0  0  0  0  0  0  0  0  0
   -3.4657   -4.8282   -0.8093 N   0  0  0  0  0  0  0  0  0  0  0  0
   -4.8166   -5.2272   -0.4402 C   0  0  0  0  0  0  0  0  0  0  0  0
   -3.3544   -3.9697   -1.3556 H   0  0  0  0  0  0  0  0  0  0  0  0
   -5.0267   -6.2432   -0.7893 H   0  0  0  0  0  0  0  0  0  0  0  0
   -4.9432   -5.1916    0.6464 H   0  0  0  0  0  0  0  0  0  0  0  0
   -5.5444   -4.5488   -0.8953 H   0  0  0  0  0  0  0  0  0  0  0  0
  1  2  2  0  0  0  0
  1  3  1  0  0  0  0
  1  7  1  0  0  0  0
  3  4  1  0  0  0  0
  3  5  1  0  0  0  0
  3  6  1  0  0  0  0
  7  8  1  0  0  0  0
  7 12  1  0  0  0  0
  8  9  1  0  0  0  0
  8 11  1  0  0  0  0
  8 13  1  0  0  0  0
  9 10  2  0  0  0  0
  9 17  1  0  0  0  0
 11 14  1  0  0  0  0
 11 15  1  0  0  0  0
 11 16  1  0  0  0  0
 17 18  1  0  0  0  0
 17 25  1  0  0  0  0
 18 19  1  0  0  0  0
 18 21  1  0  0  0  0
 18 26  1  0  0  0  0
 19 20  2  0  0  0  0
 19 29  1  0  0  0  0
 21 22  1  0  0  0  0
 21 27  1  0  0  0  0
 21 28  1  0  0  0  0
 22 23  1  0  0  0  0
 22 24  2  0  0  0  0
 29 30  1  0  0  0  0
 29 34  1  0  0  0  0
 30 31  1  0  0  0  0
 30 33  1  0  0  0  0
 30 35  1  0  0  0  0
 31 32  2  0  0  0  0
 31 39  1  0  0  0  0
 33 36  1  0  0  0  0
 33 37  1  0  0  0  0
 33 38  1  0  0  0  0
 39 40  1  0  0  0  0
 39 41  1  0  0  0  0
 40 42  1  0  0  0  0
 40 43  1  0  0  0  0
 40 44  1  0  0  0  0
M  CHG  1  23  -1
M  END
$$$$

  -OEChem-02062319053D

 44 43  0     1  0  0  0  0  0999 V2000
   -4.3389   -1.0712   -1.5266 C   0  0  0  0  0  0  0  0  0  0  0  0
   -4.1053   -2.0943   -2.1539 O   0  0  0  0  0  0  0  0  0  0  0  0
   -5.7605   -0.5556   -1.4048 C   0  0  0  0  0  0  0  0  0  0  0  0
   -5.8441    0.4213   -1.8873 H   0  0  0  0  0  0  0  0  0  0  0  0
   -6.4563   -1.2488   -1.8852 H   0  0  0  0  0  0  0  0  0  0  0  0
   -6.0324   -0.4574   -0.3510 H   0  0  0  0  0  0  0  0  0  0  0  0
   -3.3072   -0.3879   -0.9250 N   0  0  0  0  0  0  0  0  0  0  0  0
   -1.9151   -0.8492   -0.8829 C   0  0  2  0  0  0  0  0  0  0  0  0
   -1.1669   -0.2773    0.3431 C   0  0  0  0  0  0  0  0  0  0  0  0
   -1.5995    0.7620    0.8239 O   0  0  0  0  0  0  0  0  0  0  0  0
   -1.2322   -0.4078   -2.1831 C   0  0  0  0  0  0  0  0  0  0  0  0
   -3.5362    0.4142   -0.3377 H   0  0  0  0  0  0  0  0  0  0  0  0
   -1.9073   -1.9357   -0.8078 H   0  0  0  0  0  0  0  0  0  0  0  0
   -1.2845    0.6805   -2.2896 H   0  0  0  0  0  0  0  0  0  0  0  0
   -0.1802   -0.7014   -2.1922 H   0  0  0  0  0  0  0  0  0  0  0  0
   -1.7223   -0.8671   -3.0469 H   0  0  0  0  0  0  0  0  0  0  0  0
   -0.4450   -1.0386    1.2376 N   0  0  0  0  0  0  0  0  0  0  0  0
    0.8763   -1.5891    0.8901 C   0  0  2  0  0  0  0  0  0  0  0  0
    0.8954   -2.5520   -0.3154 C   0  0  0  0  0  0  0  0  0  0  0  0
    1.6341   -2.3421   -1.2681 O   0  0  0  0  0  0  0  0  0  0  0  0
    1.4062   -2.3265    2.1315 C   0  0  0  0  0  0  0  0  0  0  0  0
    1.6616   -1.3617    3.2819 C   0  0  0  0  0  0  0  0  0  0  0  0
    0.6563   -0.8042    3.7909 O   0  5  0  0  0  0  0  0  0  0  0  0
    2.8485   -1.1571    3.6245 O   0  0  0  0  0  0  0  0  0  0  0  0
   -0.4407   -0.6042    2.1720 H   0  0  0  0  0  0  0  0  0  0  0  0
    1.5576   -0.7616    0.6588 H   0  0  0  0  0  0  0  0  0  0  0  0
    2.3437   -2.8346    1.8853 H   0  0  0  0  0  0  0  0  0  0  0  0
    0.6901   -3.0859    2.4569 H   0  0  0  0  0  0  0  0  0  0  0  0
   -0.0707   -3.5399   -0.4149 N   0  0  0  0  0  0  0  0  0  0  0  0
   -0.1549   -4.5373   -1.4956 C   0  0  2  0  0  0  0  0  0  0  0  0
   -1.4868   -5.3315   -1.4419 C   0  0  0  0  0  0  0  0  0  0  0  0
   -1.5000   -6.5406   -1.2347 O   0  0  0  0  0  0  0  0  0  0  0  0
    1.0655   -5.4735   -1.4134 C   0  0  0  0  0  0  0  0  0  0  0  0
   -0.6080   -3.7069    0.4338 H   0  0  0  0  0  0  0  0  0  0  0  0
   -0.1299   -4.0197   -2.4601 H   0  0  0  0  0  0  0  0  0  0  0  0
    1.0976   -5.9759   -0.4415 H   0  0  0  0  0  0  0  0  0  0  0  0
    1.0145   -6.2350   -2.1976 H   0  0  0  0  0  0  0  0  0  0  0  0
    1.9968   -4.9156   -1.5460 H   0  0  0  0  0  0  0  0  0  0  0  0
   -2.7047   -4.6897   -1.5872 N   0  0  0  0  0  0  0  0  0  0  0  0
   -3.9856   -5.3824   -1.5341 C   0  0  0  0  0  0  0  0  0  0  0  0
   -2.7118   -3.6946   -1.8192 H   0  0  0  0  0  0  0  0  0  0  0  0
   -4.0548   -6.1227   -2.3377 H   0  0  0  0  0  0  0  0  0  0  0  0
   -4.1074   -5.8897   -0.5717 H   0  0  0  0  0  0  0  0  0  0  0  0
   -4.8059   -4.6682   -1.6512 H   0  0  0  0  0  0  0  0  0  0  0  0
  1  2  2  0  0  0  0
  1  3  1  0  0  0  0
  1  7  1  0  0  0  0
  3  4  1  0  0  0  0
  3  5  1  0  0  0  0
  3  6  1  0  0  0  0
  7  8  1  0  0  0  0
  7 12  1  0  0  0  0
  8  9  1  0  0  0  0
  8 11  1  0  0  0  0
  8 13  1  0  0  0  0
  9 10  2  0  0  0  0
  9 17  1  0  0  0  0
 11 14  1  0  0  0  0
 11 15  1  0  0  0  0
 11 16  1  0  0  0  0
 17 18  1  0  0  0  0
 17 25  1  0  0  0  0
 18 19  1  0  0  0  0
 18 21  1  0  0  0  0
 18 26  1  0  0  0  0
 19 20  2  0  0  0  0
 19 29  1  0  0  0  0
 21 22  1  0  0  0  0
 21 27  1  0  0  0  0
 21 28  1  0  0  0  0
 22 23  1  0  0  0  0
 22 24  2  0  0  0  0
 29 30  1  0  0  0  0
 29 34  1  0  0  0  0
 30 31  1  0  0  0  0
 30 33  1  0  0  0  0
 30 35  1  0  0  0  0
 31 32  2  0  0  0  0
 31 39  1  0  0  0  0
 33 36  1  0  0  0  0
 33 37  1  0  0  0  0
 33 38  1  0  0  0  0
 39 40  1  0  0  0  0
 39 41  1  0  0  0  0
 40 42  1  0  0  0  0
 40 43  1  0  0  0  0
 40 44  1  0  0  0  0
M  CHG  1  23  -1
M  END
$$$$

  -OEChem-02062319053D

 44 43  0     1  0  0  0  0  0999 V2000
   -4.3561   -1.1448   -1.3676 C   0  0  0  0  0  0  0  0  0  0  0  0
   -4.1147   -2.0423   -2.1608 O   0  0  0  0  0  0  0  0  0  0  0  0
   -5.7909   -0.7090   -1.1328 C   0  0  0  0  0  0  0  0  0  0  0  0
   -5.9126    0.3402   -1.4132 H   0  0  0  0  0  0  0  0  0  0  0  0
   -6.4740   -1.3168   -1.7325 H   0  0  0  0  0  0  0  0  0  0  0  0
   -6.0477   -0.8285   -0.0771 H   0  0  0  0  0  0  0  0  0  0  0  0
   -3.3378   -0.5107   -0.6901 N   0  0  0  0  0  0  0  0  0  0  0  0
   -1.9172   -0.8806   -0.7344 C   0  0  2  0  0  0  0  0  0  0  0  0
   -1.1555   -0.2575    0.4617 C   0  0  0  0  0  0  0  0  0  0  0  0
   -1.6061    0.7756    0.9405 O   0  0  0  0  0  0  0  0  0  0  0  0
   -1.3233   -0.3780   -2.0571 C   0  0  0  0  0  0  0  0  0  0  0  0
   -3.5896    0.2158   -0.0200 H   0  0  0  0  0  0  0  0  0  0  0  0
   -1.8280   -1.9686   -0.6736 H   0  0  0  0  0  0  0  0  0  0  0  0
   -0.2533   -0.5892   -2.1101 H   0  0  0  0  0  0  0  0  0  0  0  0
   -1.4634    0.7036   -2.1492 H   0  0  0  0  0  0  0  0  0  0  0  0
   -1.8092   -0.8666   -2.9065 H   0  0  0  0  0  0  0  0  0  0  0  0
   -0.4041   -1.0006    1.3458 N   0  0  0  0  0  0  0  0  0  0  0  0
    1.0230   -1.2398    1.0747 C   0  0  2  0  0  0  0  0  0  0  0  0
    1.2941   -1.9913   -0.2430 C   0  0  0  0  0  0  0  0  0  0  0  0
    2.0232   -1.5139   -1.1034 O   0  0  0  0  0  0  0  0  0  0  0  0
    1.5917   -2.0484    2.2537 C   0  0  0  0  0  0  0  0  0  0  0  0
    1.6079   -1.2321    3.5406 C   0  0  0  0  0  0  0  0  0  0  0  0
    0.5028   -0.8164    3.9729 O   0  5  0  0  0  0  0  0  0  0  0  0
    2.7173   -1.0158    4.0805 O   0  0  0  0  0  0  0  0  0  0  0  0
   -0.5273   -0.6476    2.3058 H   0  0  0  0  0  0  0  0  0  0  0  0
    1.5480   -0.2787    1.0208 H   0  0  0  0  0  0  0  0  0  0  0  0
    2.6156   -2.3588    2.0231 H   0  0  0  0  0  0  0  0  0  0  0  0
    0.9968   -2.9516    2.4149 H   0  0  0  0  0  0  0  0  0  0  0  0
    0.5311   -3.0996   -0.5562 N   0  0  0  0  0  0  0  0  0  0  0  0
    0.4903   -3.7637   -1.8623 C   0  0  2  0  0  0  0  0  0  0  0  0
   -0.8301   -4.5386   -2.0489 C   0  0  0  0  0  0  0  0  0  0  0  0
   -1.2748   -5.2184   -1.1304 O   0  0  0  0  0  0  0  0  0  0  0  0
    1.6839   -4.7165   -1.9754 C   0  0  0  0  0  0  0  0  0  0  0  0
   -0.0741   -3.4625    0.1806 H   0  0  0  0  0  0  0  0  0  0  0  0
    0.5557   -3.0116   -2.6550 H   0  0  0  0  0  0  0  0  0  0  0  0
    1.6471   -5.4705   -1.1824 H   0  0  0  0  0  0  0  0  0  0  0  0
    1.6735   -5.2268   -2.9431 H   0  0  0  0  0  0  0  0  0  0  0  0
    2.6239   -4.1632   -1.8857 H   0  0  0  0  0  0  0  0  0  0  0  0
   -1.5189   -4.4723   -3.2458 N   0  0  0  0  0  0  0  0  0  0  0  0
   -2.8451   -5.0520   -3.4168 C   0  0  0  0  0  0  0  0  0  0  0  0
   -1.2194   -3.7615   -3.9057 H   0  0  0  0  0  0  0  0  0  0  0  0
   -2.8047   -6.1391   -3.2958 H   0  0  0  0  0  0  0  0  0  0  0  0
   -3.5439   -4.6413   -2.6806 H   0  0  0  0  0  0  0  0  0  0  0  0
   -3.2269   -4.8297   -4.4177 H   0  0  0  0  0  0  0  0  0  0  0  0
  1  2  2  0  0  0  0
  1  3  1  0  0  0  0
  1  7  1  0  0  0  0
  3  4  1  0  0  0  0
  3  5  1  0  0  0  0
  3  6  1  0  0  0  0
  7  8  1  0  0  0  0
  7 12  1  0  0  0  0
  8  9  1  0  0  0  0
  8 11  1  0  0  0  0
  8 13  1  0  0  0  0
  9 10  2  0  0  0  0
  9 17  1  0  0  0  0
 11 14  1  0  0  0  0
 11 15  1  0  0  0  0
 11 16  1  0  0  0  0
 17 18  1  0  0  0  0
 17 25  1  0  0  0  0
 18 19  1  0  0  0  0
 18 21  1  0  0  0  0
 18 26  1  0  0  0  0
 19 20  2  0  0  0  0
 19 29  1  0  0  0  0
 21 22  1  0  0  0  0
 21 27  1  0  0  0  0
 21 28  1  0  0  0  0
 22 23  1  0  0  0  0
 22 24  2  0  0  0  0
 29 30  1  0  0  0  0
 29 34  1  0  0  0  0
 30 31  1  0  0  0  0
 30 33  1  0  0  0  0
 30 35  1  0  0  0  0
 31 32  2  0  0  0  0
 31 39  1  0  0  0  0
 33 36  1  0  0  0  0
 33 37  1  0  0  0  0
 33 38  1  0  0  0  0
 39 40  1  0  0  0  0
 39 41  1  0  0  0  0
 40 42  1  0  0  0  0
 40 43  1  0  0  0  0
 40 44  1  0  0  0  0
M  CHG  1  23  -1
M  END
$$$$

  -OEChem-02062319053D

 44 43  0     1  0  0  0  0  0999 V2000
   -4.4079   -1.0955   -1.1301 C   0  0  0  0  0  0  0  0  0  0  0  0
   -4.2440   -2.3038   -1.0835 O   0  0  0  0  0  0  0  0  0  0  0  0
   -5.8150   -0.5262   -1.1318 C   0  0  0  0  0  0  0  0  0  0  0  0
   -5.9811    0.0547   -2.0424 H   0  0  0  0  0  0  0  0  0  0  0  0
   -6.5499   -1.3352   -1.0912 H   0  0  0  0  0  0  0  0  0  0  0  0
   -5.9562    0.1216   -0.2632 H   0  0  0  0  0  0  0  0  0  0  0  0
   -3.3316   -0.2361   -1.1886 N   0  0  0  0  0  0  0  0  0  0  0  0
   -1.9226   -0.6381   -1.0872 C   0  0  2  0  0  0  0  0  0  0  0  0
   -1.2409    0.0680    0.1057 C   0  0  0  0  0  0  0  0  0  0  0  0
   -1.1230    1.2880    0.0911 O   0  0  0  0  0  0  0  0  0  0  0  0
   -1.2648   -0.2703   -2.4228 C   0  0  0  0  0  0  0  0  0  0  0  0
   -3.5290    0.7606   -1.1474 H   0  0  0  0  0  0  0  0  0  0  0  0
   -1.8294   -1.7179   -0.9334 H   0  0  0  0  0  0  0  0  0  0  0  0
   -0.1900   -0.4609   -2.3947 H   0  0  0  0  0  0  0  0  0  0  0  0
   -1.4144    0.7903   -2.6475 H   0  0  0  0  0  0  0  0  0  0  0  0
   -1.6983   -0.8653   -3.2326 H   0  0  0  0  0  0  0  0  0  0  0  0
   -0.5186   -0.6374    1.0465 N   0  0  0  0  0  0  0  0  0  0  0  0
    0.9513   -0.5782    1.0407 C   0  0  2  0  0  0  0  0  0  0  0  0
    1.6046   -1.0864   -0.2698 C   0  0  0  0  0  0  0  0  0  0  0  0
    2.3989   -0.3930   -0.8914 O   0  0  0  0  0  0  0  0  0  0  0  0
    1.4207   -1.4284    2.2463 C   0  0  0  0  0  0  0  0  0  0  0  0
    1.0314   -2.9132    2.1978 C   0  0  0  0  0  0  0  0  0  0  0  0
    1.7503   -3.7084    2.8387 O   0  5  0  0  0  0  0  0  0  0  0  0
    0.0521   -3.2623    1.4762 O   0  0  0  0  0  0  0  0  0  0  0  0
   -0.8373   -1.6081    1.1475 H   0  0  0  0  0  0  0  0  0  0  0  0
    1.2707    0.4591    1.1888 H   0  0  0  0  0  0  0  0  0  0  0  0
    1.0143   -1.0029    3.1675 H   0  0  0  0  0  0  0  0  0  0  0  0
    2.5108   -1.3646    2.3105 H   0  0  0  0  0  0  0  0  0  0  0  0
    1.1457   -2.2604   -0.8291 N   0  0  0  0  0  0  0  0  0  0  0  0
    1.5253   -2.8277   -2.1258 C   0  0  2  0  0  0  0  0  0  0  0  0
    0.3125   -3.4931   -2.8085 C   0  0  0  0  0  0  0  0  0  0  0  0
    0.2222   -3.5076   -4.0309 O   0  0  0  0  0  0  0  0  0  0  0  0
    2.6456   -3.8426   -1.8934 C   0  0  0  0  0  0  0  0  0  0  0  0
    0.6371   -2.8612   -0.1706 H   0  0  0  0  0  0  0  0  0  0  0  0
    1.8878   -2.0371   -2.7917 H   0  0  0  0  0  0  0  0  0  0  0  0
    2.3085   -4.6406   -1.2238 H   0  0  0  0  0  0  0  0  0  0  0  0
    2.9563   -4.2891   -2.8428 H   0  0  0  0  0  0  0  0  0  0  0  0
    3.5124   -3.3512   -1.4407 H   0  0  0  0  0  0  0  0  0  0  0  0
   -0.7063   -4.0358   -2.0427 N   0  0  0  0  0  0  0  0  0  0  0  0
   -1.9803   -4.4759   -2.5913 C   0  0  0  0  0  0  0  0  0  0  0  0
   -0.6028   -3.9980   -1.0289 H   0  0  0  0  0  0  0  0  0  0  0  0
   -2.4795   -3.6496   -3.1079 H   0  0  0  0  0  0  0  0  0  0  0  0
   -1.8315   -5.2994   -3.2970 H   0  0  0  0  0  0  0  0  0  0  0  0
   -2.6354   -4.8224   -1.7860 H   0  0  0  0  0  0  0  0  0  0  0  0
  1  2  2  0  0  0  0
  1  3  1  0  0  0  0
  1  7  1  0  0  0  0
  3  4  1  0  0  0  0
  3  5  1  0  0  0  0
  3  6  1  0  0  0  0
  7  8  1  0  0  0  0
  7 12  1  0  0  0  0
  8  9  1  0  0  0  0
  8 11  1  0  0  0  0
  8 13  1  0  0  0  0
  9 10  2  0  0  0  0
  9 17  1  0  0  0  0
 11 14  1  0  0  0  0
 11 15  1  0  0  0  0
 11 16  1  0  0  0  0
 17 18  1  0  0  0  0
 17 25  1  0  0  0  0
 18 19  1  0  0  0  0
 18 21  1  0  0  0  0
 18 26  1  0  0  0  0
 19 20  2  0  0  0  0
 19 29  1  0  0  0  0
 21 22  1  0  0  0  0
 21 27  1  0  0  0  0
 21 28  1  0  0  0  0
 22 23  1  0  0  0  0
 22 24  2  0  0  0  0
 29 30  1  0  0  0  0
 29 34  1  0  0  0  0
 30 31  1  0  0  0  0
 30 33  1  0  0  0  0
 30 35  1  0  0  0  0
 31 32  2  0  0  0  0
 31 39  1  0  0  0  0
 33 36  1  0  0  0  0
 33 37  1  0  0  0  0
 33 38  1  0  0  0  0
 39 40  1  0  0  0  0
 39 41  1  0  0  0  0
 40 42  1  0  0  0  0
 40 43  1  0  0  0  0
 40 44  1  0  0  0  0
M  CHG  1  23  -1
M  END
$$$$

  -OEChem-02062319053D

 44 43  0     1  0  0  0  0  0999 V2000
   -4.7940   -1.4016   -0.8292 C   0  0  0  0  0  0  0  0  0  0  0  0
   -5.1893   -2.2534   -0.0481 O   0  0  0  0  0  0  0  0  0  0  0  0
   -5.7860   -0.6759   -1.7199 C   0  0  0  0  0  0  0  0  0  0  0  0
   -5.5372   -0.8454   -2.7702 H   0  0  0  0  0  0  0  0  0  0  0  0
   -6.7997   -1.0409   -1.5336 H   0  0  0  0  0  0  0  0  0  0  0  0
   -5.7546    0.3970   -1.5149 H   0  0  0  0  0  0  0  0  0  0  0  0
   -3.4582   -1.0722   -0.9011 N   0  0  0  0  0  0  0  0  0  0  0  0
   -2.4414   -1.4977    0.0715 C   0  0  2  0  0  0  0  0  0  0  0  0
   -1.5833   -0.2876    0.5296 C   0  0  0  0  0  0  0  0  0  0  0  0
   -1.7438    0.7877   -0.0429 O   0  0  0  0  0  0  0  0  0  0  0  0
   -1.6486   -2.6358   -0.5679 C   0  0  0  0  0  0  0  0  0  0  0  0
   -3.2314   -0.2265   -1.4227 H   0  0  0  0  0  0  0  0  0  0  0  0
   -2.9237   -1.8865    0.9746 H   0  0  0  0  0  0  0  0  0  0  0  0
   -1.1573   -2.2914   -1.4812 H   0  0  0  0  0  0  0  0  0  0  0  0
   -0.8973   -3.0215    0.1269 H   0  0  0  0  0  0  0  0  0  0  0  0
   -2.3190   -3.4598   -0.8305 H   0  0  0  0  0  0  0  0  0  0  0  0
   -0.4333   -0.4188    1.2849 N   0  0  0  0  0  0  0  0  0  0  0  0
    0.8726    0.0676    0.8041 C   0  0  2  0  0  0  0  0  0  0  0  0
    1.4197   -0.5392   -0.5112 C   0  0  0  0  0  0  0  0  0  0  0  0
    1.8313    0.1941   -1.4046 O   0  0  0  0  0  0  0  0  0  0  0  0
    1.8725   -0.1925    1.9541 C   0  0  0  0  0  0  0  0  0  0  0  0
    2.0855   -1.6713    2.2968 C   0  0  0  0  0  0  0  0  0  0  0  0
    3.1677   -1.9829    2.8379 O   0  5  0  0  0  0  0  0  0  0  0  0
    1.1803   -2.4951    1.9842 O   0  0  0  0  0  0  0  0  0  0  0  0
   -0.3403   -1.3438    1.7209 H   0  0  0  0  0  0  0  0  0  0  0  0
    0.8004    1.1490    0.6461 H   0  0  0  0  0  0  0  0  0  0  0  0
    1.5314    0.3208    2.8568 H   0  0  0  0  0  0  0  0  0  0  0  0
    2.8401    0.2375    1.6795 H   0  0  0  0  0  0  0  0  0  0  0  0
    1.3806   -1.8988   -0.7456 N   0  0  0  0  0  0  0  0  0  0  0  0
    2.0281   -2.5660   -1.8842 C   0  0  2  0  0  0  0  0  0  0  0  0
    1.1881   -2.5012   -3.1855 C   0  0  0  0  0  0  0  0  0  0  0  0
    1.0053   -3.4865   -3.8948 O   0  0  0  0  0  0  0  0  0  0  0  0
    2.3180   -4.0028   -1.4352 C   0  0  0  0  0  0  0  0  0  0  0  0
    1.2117   -2.4602    0.0997 H   0  0  0  0  0  0  0  0  0  0  0  0
    2.9857   -2.0772   -2.0915 H   0  0  0  0  0  0  0  0  0  0  0  0
    1.3834   -4.5403   -1.2454 H   0  0  0  0  0  0  0  0  0  0  0  0
    2.8782   -4.5386   -2.2074 H   0  0  0  0  0  0  0  0  0  0  0  0
    2.9122   -4.0016   -0.5154 H   0  0  0  0  0  0  0  0  0  0  0  0
    0.6318   -1.2971   -3.5708 N   0  0  0  0  0  0  0  0  0  0  0  0
   -0.2116   -1.1137   -4.7406 C   0  0  0  0  0  0  0  0  0  0  0  0
    0.8466   -0.4960   -2.9697 H   0  0  0  0  0  0  0  0  0  0  0  0
    0.3395   -1.3652   -5.6523 H   0  0  0  0  0  0  0  0  0  0  0  0
   -1.0996   -1.7506   -4.6740 H   0  0  0  0  0  0  0  0  0  0  0  0
   -0.5378   -0.0714   -4.8075 H   0  0  0  0  0  0  0  0  0  0  0  0
  1  2  2  0  0  0  0
  1  3  1  0  0  0  0
  1  7  1  0  0  0  0
  3  4  1  0  0  0  0
  3  5  1  0  0  0  0
  3  6  1  0  0  0  0
  7  8  1  0  0  0  0
  7 12  1  0  0  0  0
  8  9  1  0  0  0  0
  8 11  1  0  0  0  0
  8 13  1  0  0  0  0
  9 10  2  0  0  0  0
  9 17  1  0  0  0  0
 11 14  1  0  0  0  0
 11 15  1  0  0  0  0
 11 16  1  0  0  0  0
 17 18  1  0  0  0  0
 17 25  1  0  0  0  0
 18 19  1  0  0  0  0
 18 21  1  0  0  0  0
 18 26  1  0  0  0  0
 19 20  2  0  0  0  0
 19 29  1  0  0  0  0
 21 22  1  0  0  0  0
 21 27  1  0  0  0  0
 21 28  1  0  0  0  0
 22 23  1  0  0  0  0
 22 24  2  0  0  0  0
 29 30  1  0  0  0  0
 29 34  1  0  0  0  0
 30 31  1  0  0  0  0
 30 33  1  0  0  0  0
 30 35  1  0  0  0  0
 31 32  2  0  0  0  0
 31 39  1  0  0  0  0
 33 36  1  0  0  0  0
 33 37  1  0  0  0  0
 33 38  1  0  0  0  0
 39 40  1  0  0  0  0
 39 41  1  0  0  0  0
 40 42  1  0  0  0  0
 40 43  1  0  0  0  0
 40 44  1  0  0  0  0
M  CHG  1  23  -1
M  END
$$$$

  -OEChem-02062319053D

 44 43  0     1  0  0  0  0  0999 V2000
   -4.6924   -1.2115   -1.0370 C   0  0  0  0  0  0  0  0  0  0  0  0
   -4.9258   -2.4068   -0.9488 O   0  0  0  0  0  0  0  0  0  0  0  0
   -5.7802   -0.2608   -1.5032 C   0  0  0  0  0  0  0  0  0  0  0  0
   -5.4656    0.2454   -2.4191 H   0  0  0  0  0  0  0  0  0  0  0  0
   -6.7033   -0.8117   -1.7035 H   0  0  0  0  0  0  0  0  0  0  0  0
   -5.9763    0.4876   -0.7312 H   0  0  0  0  0  0  0  0  0  0  0  0
   -3.4505   -0.7101   -0.7158 N   0  0  0  0  0  0  0  0  0  0  0  0
   -2.3697   -1.4725   -0.0763 C   0  0  2  0  0  0  0  0  0  0  0  0
   -1.5612   -0.5640    0.8817 C   0  0  0  0  0  0  0  0  0  0  0  0
   -1.6548    0.6517    0.7304 O   0  0  0  0  0  0  0  0  0  0  0  0
   -1.4956   -2.0699   -1.1811 C   0  0  0  0  0  0  0  0  0  0  0  0
   -3.3489    0.3042   -0.6863 H   0  0  0  0  0  0  0  0  0  0  0  0
   -2.7891   -2.2853    0.5265 H   0  0  0  0  0  0  0  0  0  0  0  0
   -1.0468   -1.2737   -1.7823 H   0  0  0  0  0  0  0  0  0  0  0  0
   -0.6979   -2.6834   -0.7522 H   0  0  0  0  0  0  0  0  0  0  0  0
   -2.0958   -2.7055   -1.8394 H   0  0  0  0  0  0  0  0  0  0  0  0
   -0.4486   -1.0440    1.5413 N   0  0  0  0  0  0  0  0  0  0  0  0
    0.8335   -0.3363    1.6819 C   0  0  2  0  0  0  0  0  0  0  0  0
    1.5215    0.0061    0.3426 C   0  0  0  0  0  0  0  0  0  0  0  0
    2.0694    1.0900    0.1724 O   0  0  0  0  0  0  0  0  0  0  0  0
    1.7977   -1.2334    2.4954 C   0  0  0  0  0  0  0  0  0  0  0  0
    1.1318   -1.9778    3.6470 C   0  0  0  0  0  0  0  0  0  0  0  0
    1.3445   -1.5885    4.8179 O   0  5  0  0  0  0  0  0  0  0  0  0
    0.3813   -2.9400    3.3288 O   0  0  0  0  0  0  0  0  0  0  0  0
   -0.4705   -2.0155    1.8785 H   0  0  0  0  0  0  0  0  0  0  0  0
    0.6600    0.5947    2.2327 H   0  0  0  0  0  0  0  0  0  0  0  0
    2.6095   -0.6164    2.8910 H   0  0  0  0  0  0  0  0  0  0  0  0
    2.2490   -1.9853    1.8423 H   0  0  0  0  0  0  0  0  0  0  0  0
    1.6037   -0.9376   -0.6657 N   0  0  0  0  0  0  0  0  0  0  0  0
    2.2866   -0.7330   -1.9479 C   0  0  2  0  0  0  0  0  0  0  0  0
    1.5955   -1.4905   -3.0988 C   0  0  0  0  0  0  0  0  0  0  0  0
    1.2771   -2.6671   -2.9693 O   0  0  0  0  0  0  0  0  0  0  0  0
    3.7423   -1.1832   -1.7990 C   0  0  0  0  0  0  0  0  0  0  0  0
    1.1972   -1.8512   -0.4756 H   0  0  0  0  0  0  0  0  0  0  0  0
    2.2719    0.3313   -2.2034 H   0  0  0  0  0  0  0  0  0  0  0  0
    3.7908   -2.2434   -1.5309 H   0  0  0  0  0  0  0  0  0  0  0  0
    4.2854   -1.0346   -2.7369 H   0  0  0  0  0  0  0  0  0  0  0  0
    4.2388   -0.6025   -1.0152 H   0  0  0  0  0  0  0  0  0  0  0  0
    1.3201   -0.8422   -4.2894 N   0  0  0  0  0  0  0  0  0  0  0  0
    0.5529   -1.4537   -5.3663 C   0  0  0  0  0  0  0  0  0  0  0  0
    1.4953    0.1581   -4.3194 H   0  0  0  0  0  0  0  0  0  0  0  0
    1.0488   -2.3627   -5.7222 H   0  0  0  0  0  0  0  0  0  0  0  0
   -0.4529   -1.7120   -5.0188 H   0  0  0  0  0  0  0  0  0  0  0  0
    0.4624   -0.7589   -6.2067 H   0  0  0  0  0  0  0  0  0  0  0  0
  1  2  2  0  0  0  0
  1  3  1  0  0  0  0
  1  7  1  0  0  0  0
  3  4  1  0  0  0  0
  3  5  1  0  0  0  0
  3  6  1  0  0  0  0
  7  8  1  0  0  0  0
  7 12  1  0  0  0  0
  8  9  1  0  0  0  0
  8 11  1  0  0  0  0
  8 13  1  0  0  0  0
  9 10  2  0  0  0  0
  9 17  1  0  0  0  0
 11 14  1  0  0  0  0
 11 15  1  0  0  0  0
 11 16  1  0  0  0  0
 17 18  1  0  0  0  0
 17 25  1  0  0  0  0
 18 19  1  0  0  0  0
 18 21  1  0  0  0  0
 18 26  1  0  0  0  0
 19 20  2  0  0  0  0
 19 29  1  0  0  0  0
 21 22  1  0  0  0  0
 21 27  1  0  0  0  0
 21 28  1  0  0  0  0
 22 23  1  0  0  0  0
 22 24  2  0  0  0  0
 29 30  1  0  0  0  0
 29 34  1  0  0  0  0
 30 31  1  0  0  0  0
 30 33  1  0  0  0  0
 30 35  1  0  0  0  0
 31 32  2  0  0  0  0
 31 39  1  0  0  0  0
 33 36  1  0  0  0  0
 33 37  1  0  0  0  0
 33 38  1  0  0  0  0
 39 40  1  0  0  0  0
 39 41  1  0  0  0  0
 40 42  1  0  0  0  0
 40 43  1  0  0  0  0
 40 44  1  0  0  0  0
M  CHG  1  23  -1
M  END
$$$$

  -OEChem-02062319053D

 44 43  0     1  0  0  0  0  0999 V2000
   -4.5785   -1.2837   -1.1657 C   0  0  0  0  0  0  0  0  0  0  0  0
   -4.7078   -2.4969   -1.2110 O   0  0  0  0  0  0  0  0  0  0  0  0
   -5.7353   -0.3849   -1.5627 C   0  0  0  0  0  0  0  0  0  0  0  0
   -5.4316    0.2756   -2.3783 H   0  0  0  0  0  0  0  0  0  0  0  0
   -6.5858   -0.9871   -1.8940 H   0  0  0  0  0  0  0  0  0  0  0  0
   -6.0442    0.2216   -0.7078 H   0  0  0  0  0  0  0  0  0  0  0  0
   -3.3935   -0.7168   -0.7516 N   0  0  0  0  0  0  0  0  0  0  0  0
   -2.2559   -1.4528   -0.1851 C   0  0  2  0  0  0  0  0  0  0  0  0
   -1.4950   -0.5732    0.8314 C   0  0  0  0  0  0  0  0  0  0  0  0
   -1.6249    0.6465    0.7663 O   0  0  0  0  0  0  0  0  0  0  0  0
   -1.3381   -1.8805   -1.3343 C   0  0  0  0  0  0  0  0  0  0  0  0
   -3.3717    0.2953   -0.6299 H   0  0  0  0  0  0  0  0  0  0  0  0
   -2.6104   -2.3424    0.3473 H   0  0  0  0  0  0  0  0  0  0  0  0
   -0.9629   -1.0025   -1.8693 H   0  0  0  0  0  0  0  0  0  0  0  0
   -0.4845   -2.4502   -0.9545 H   0  0  0  0  0  0  0  0  0  0  0  0
   -1.8830   -2.5128   -2.0417 H   0  0  0  0  0  0  0  0  0  0  0  0
   -0.4334   -1.0924    1.5419 N   0  0  0  0  0  0  0  0  0  0  0  0
    0.7227   -0.3321    2.0359 C   0  0  2  0  0  0  0  0  0  0  0  0
    1.5222    0.3547    0.9078 C   0  0  0  0  0  0  0  0  0  0  0  0
    1.9625    1.4921    1.0380 O   0  0  0  0  0  0  0  0  0  0  0  0
    1.6548   -1.3124    2.7828 C   0  0  0  0  0  0  0  0  0  0  0  0
    0.9146   -2.2338    3.7457 C   0  0  0  0  0  0  0  0  0  0  0  0
    1.0079   -2.0160    4.9753 O   0  5  0  0  0  0  0  0  0  0  0  0
    0.2214   -3.1486    3.2239 O   0  0  0  0  0  0  0  0  0  0  0  0
   -0.4662   -2.0890    1.7960 H   0  0  0  0  0  0  0  0  0  0  0  0
    0.3732    0.4368    2.7339 H   0  0  0  0  0  0  0  0  0  0  0  0
    2.4037   -0.7417    3.3393 H   0  0  0  0  0  0  0  0  0  0  0  0
    2.1891   -1.9413    2.0655 H   0  0  0  0  0  0  0  0  0  0  0  0
    1.8266   -0.3448   -0.2462 N   0  0  0  0  0  0  0  0  0  0  0  0
    2.5014    0.2266   -1.4155 C   0  0  2  0  0  0  0  0  0  0  0  0
    1.9759   -0.3754   -2.7342 C   0  0  0  0  0  0  0  0  0  0  0  0
    1.6679   -1.5604   -2.8002 O   0  0  0  0  0  0  0  0  0  0  0  0
    4.0055   -0.0201   -1.2751 C   0  0  0  0  0  0  0  0  0  0  0  0
    1.4358   -1.2813   -0.3299 H   0  0  0  0  0  0  0  0  0  0  0  0
    2.3188    1.3056   -1.4515 H   0  0  0  0  0  0  0  0  0  0  0  0
    4.2149   -1.0939   -1.2345 H   0  0  0  0  0  0  0  0  0  0  0  0
    4.5441    0.4098   -2.1248 H   0  0  0  0  0  0  0  0  0  0  0  0
    4.3802    0.4430   -0.3567 H   0  0  0  0  0  0  0  0  0  0  0  0
    1.8521    0.4176   -3.8610 N   0  0  0  0  0  0  0  0  0  0  0  0
    1.2756   -0.0603   -5.1107 C   0  0  0  0  0  0  0  0  0  0  0  0
    2.0286    1.4115   -3.7489 H   0  0  0  0  0  0  0  0  0  0  0  0
    1.8515   -0.9065   -5.4996 H   0  0  0  0  0  0  0  0  0  0  0  0
    0.2394   -0.3790   -4.9561 H   0  0  0  0  0  0  0  0  0  0  0  0
    1.2853    0.7368   -5.8599 H   0  0  0  0  0  0  0  0  0  0  0  0
  1  2  2  0  0  0  0
  1  3  1  0  0  0  0
  1  7  1  0  0  0  0
  3  4  1  0  0  0  0
  3  5  1  0  0  0  0
  3  6  1  0  0  0  0
  7  8  1  0  0  0  0
  7 12  1  0  0  0  0
  8  9  1  0  0  0  0
  8 11  1  0  0  0  0
  8 13  1  0  0  0  0
  9 10  2  0  0  0  0
  9 17  1  0  0  0  0
 11 14  1  0  0  0  0
 11 15  1  0  0  0  0
 11 16  1  0  0  0  0
 17 18  1  0  0  0  0
 17 25  1  0  0  0  0
 18 19  1  0  0  0  0
 18 21  1  0  0  0  0
 18 26  1  0  0  0  0
 19 20  2  0  0  0  0
 19 29  1  0  0  0  0
 21 22  1  0  0  0  0
 21 27  1  0  0  0  0
 21 28  1  0  0  0  0
 22 23  1  0  0  0  0
 22 24  2  0  0  0  0
 29 30  1  0  0  0  0
 29 34  1  0  0  0  0
 30 31  1  0  0  0  0
 30 33  1  0  0  0  0
 30 35  1  0  0  0  0
 31 32  2  0  0  0  0
 31 39  1  0  0  0  0
 33 36  1  0  0  0  0
 33 37  1  0  0  0  0
 33 38  1  0  0  0  0
 39 40  1  0  0  0  0
 39 41  1  0  0  0  0
 40 42  1  0  0  0  0
 40 43  1  0  0  0  0
 40 44  1  0  0  0  0
M  CHG  1  23  -1
M  END
$$$$

  -OEChem-02062319053D

 44 43  0     1  0  0  0  0  0999 V2000
   -4.4746   -1.2986   -1.2842 C   0  0  0  0  0  0  0  0  0  0  0  0
   -4.5885   -2.5109   -1.3763 O   0  0  0  0  0  0  0  0  0  0  0  0
   -5.6290   -0.3976   -1.6834 C   0  0  0  0  0  0  0  0  0  0  0  0
   -5.3250    0.2526   -2.5074 H   0  0  0  0  0  0  0  0  0  0  0  0
   -6.4850   -0.9982   -2.0037 H   0  0  0  0  0  0  0  0  0  0  0  0
   -5.9297    0.2200   -0.8333 H   0  0  0  0  0  0  0  0  0  0  0  0
   -3.3082   -0.7318   -0.8207 N   0  0  0  0  0  0  0  0  0  0  0  0
   -2.1789   -1.4722   -0.2438 C   0  0  2  0  0  0  0  0  0  0  0  0
   -1.4414   -0.6087    0.8029 C   0  0  0  0  0  0  0  0  0  0  0  0
   -1.6267    0.6054    0.8170 O   0  0  0  0  0  0  0  0  0  0  0  0
   -1.2312   -1.8756   -1.3783 C   0  0  0  0  0  0  0  0  0  0  0  0
   -3.3066    0.2749   -0.6595 H   0  0  0  0  0  0  0  0  0  0  0  0
   -2.5408   -2.3720    0.2656 H   0  0  0  0  0  0  0  0  0  0  0  0
   -0.8606   -0.9874   -1.8997 H   0  0  0  0  0  0  0  0  0  0  0  0
   -0.3743   -2.4320   -0.9857 H   0  0  0  0  0  0  0  0  0  0  0  0
   -1.7518   -2.5120   -2.1004 H   0  0  0  0  0  0  0  0  0  0  0  0
   -0.4142   -1.1452    1.5504 N   0  0  0  0  0  0  0  0  0  0  0  0
    0.5607   -0.3838    2.3434 C   0  0  2  0  0  0  0  0  0  0  0  0
    1.3902    0.5988    1.4901 C   0  0  0  0  0  0  0  0  0  0  0  0
    1.6799    1.7176    1.9021 O   0  0  0  0  0  0  0  0  0  0  0  0
    1.5076   -1.3930    3.0267 C   0  0  0  0  0  0  0  0  0  0  0  0
    0.7629   -2.5036    3.7586 C   0  0  0  0  0  0  0  0  0  0  0  0
    0.7397   -2.4825    5.0103 O   0  5  0  0  0  0  0  0  0  0  0  0
    0.1802   -3.3598    3.0398 O   0  0  0  0  0  0  0  0  0  0  0  0
   -0.4211   -2.1632    1.7035 H   0  0  0  0  0  0  0  0  0  0  0  0
    0.0300    0.1893    3.1115 H   0  0  0  0  0  0  0  0  0  0  0  0
    2.1455   -0.8620    3.7390 H   0  0  0  0  0  0  0  0  0  0  0  0
    2.1610   -1.8572    2.2831 H   0  0  0  0  0  0  0  0  0  0  0  0
    1.9158    0.1752    0.2832 N   0  0  0  0  0  0  0  0  0  0  0  0
    2.5595    1.0604   -0.6913 C   0  0  2  0  0  0  0  0  0  0  0  0
    2.1559    0.7140   -2.1389 C   0  0  0  0  0  0  0  0  0  0  0  0
    1.8076   -0.4233   -2.4389 O   0  0  0  0  0  0  0  0  0  0  0  0
    4.0747    0.9477   -0.5119 C   0  0  0  0  0  0  0  0  0  0  0  0
    1.5783   -0.7246   -0.0546 H   0  0  0  0  0  0  0  0  0  0  0  0
    2.2523    2.0952   -0.5080 H   0  0  0  0  0  0  0  0  0  0  0  0
    4.4058   -0.0798   -0.6937 H   0  0  0  0  0  0  0  0  0  0  0  0
    4.5935    1.6119   -1.2092 H   0  0  0  0  0  0  0  0  0  0  0  0
    4.3544    1.2290    0.5085 H   0  0  0  0  0  0  0  0  0  0  0  0
    2.1953    1.6882   -3.1204 N   0  0  0  0  0  0  0  0  0  0  0  0
    1.7578    1.4580   -4.4907 C   0  0  0  0  0  0  0  0  0  0  0  0
    2.4125    2.6352   -2.8246 H   0  0  0  0  0  0  0  0  0  0  0  0
    2.3116    0.6247   -4.9357 H   0  0  0  0  0  0  0  0  0  0  0  0
    0.6882    1.2251   -4.5159 H   0  0  0  0  0  0  0  0  0  0  0  0
    1.9343    2.3507   -5.0979 H   0  0  0  0  0  0  0  0  0  0  0  0
  1  2  2  0  0  0  0
  1  3  1  0  0  0  0
  1  7  1  0  0  0  0
  3  4  1  0  0  0  0
  3  5  1  0  0  0  0
  3  6  1  0  0  0  0
  7  8  1  0  0  0  0
  7 12  1  0  0  0  0
  8  9  1  0  0  0  0
  8 11  1  0  0  0  0
  8 13  1  0  0  0  0
  9 10  2  0  0  0  0
  9 17  1  0  0  0  0
 11 14  1  0  0  0  0
 11 15  1  0  0  0  0
 11 16  1  0  0  0  0
 17 18  1  0  0  0  0
 17 25  1  0  0  0  0
 18 19  1  0  0  0  0
 18 21  1  0  0  0  0
 18 26  1  0  0  0  0
 19 20  2  0  0  0  0
 19 29  1  0  0  0  0
 21 22  1  0  0  0  0
 21 27  1  0  0  0  0
 21 28  1  0  0  0  0
 22 23  1  0  0  0  0
 22 24  2  0  0  0  0
 29 30  1  0  0  0  0
 29 34  1  0  0  0  0
 30 31  1  0  0  0  0
 30 33  1  0  0  0  0
 30 35  1  0  0  0  0
 31 32  2  0  0  0  0
 31 39  1  0  0  0  0
 33 36  1  0  0  0  0
 33 37  1  0  0  0  0
 33 38  1  0  0  0  0
 39 40  1  0  0  0  0
 39 41  1  0  0  0  0
 40 42  1  0  0  0  0
 40 43  1  0  0  0  0
 40 44  1  0  0  0  0
M  CHG  1  23  -1
M  END
$$$$
