@<TRIPOS>MOLECULE
default_name
   25    25     1     0     0
SMALL
No Charge or Current Charge


@<TRIPOS>ATOM
      1 N           27.5060    25.9090    23.4780 N.4        1 NHI       0.000000
      2 H1          27.9520    25.4230    22.7120 H          1 NHI       0.000000
      3 H2          26.5890    26.2290    23.2000 H          1 NHI       0.000000
      4 H3          27.4260    25.2490    24.2380 H          1 NHI       0.000000
      5 CA          28.3660    27.0420    23.9060 C.3        1 NHI       0.000000
      6 HA          28.4790    27.7350    23.0730 H          1 NHI       0.000000
      7 CB          27.7270    27.8030    25.0820 C.3        1 NHI       0.000000
      8 HB2         26.6430    27.7240    25.0150 H          1 NHI       0.000000
      9 HB3         28.0390    27.3580    26.0300 H          1 NHI       0.000000
     10 CG          28.0650    29.2770    25.0860 C.2        1 NHI       0.000000
     11 ND1         29.3590    29.7970    25.1250 N.2        1 NHI       0.000000
     12 CE1         29.2250    31.1360    25.1510 C.2        1 NHI       0.000000
     13 HE1         30.0520    31.8440    25.2070 H          1 NHI       0.000000
     14 NE2         27.9230    31.4700    25.0900 N.pl3      1 NHI       0.000000
     15 HE2         27.5700    32.4200    25.0750 H          1 NHI       0.000000
     16 CD2         27.1760    30.3140    25.0620 C.2        1 NHI       0.000000
     17 HD2         26.0970    30.2400    25.0530 H          1 NHI       0.000000
     18 C           29.7590    26.4850    24.2190 C.2        1 NHI       0.000000
     19 O           29.9110    25.2700    24.1370 O.2        1 NHI       0.000000
     20 N           30.7550    27.3230    24.5130 N.am       2 NME      -0.415700
     21 H           30.5350    28.3110    24.6160 H          2 NME       0.271900
     22 CH3         32.1390    26.9160    24.7570 C.3        2 NME      -0.149000
     23 HH31        32.1640    25.9980    25.3460 H          2 NME       0.097600
     24 HH32        32.6530    26.7430    23.8100 H          2 NME       0.097600
     25 HH33        32.6670    27.6990    25.3050 H          2 NME       0.097600
@<TRIPOS>BOND
     1    18    19 2   
     2    18    20 am  
     3    16    17 1   
     4    14    15 1   
     5    14    16 1   
     6    12    13 1   
     7    12    14 1   
     8    11    12 2   
     9    10    11 1   
    10    10    16 2   
    11     7     8 1   
    12     7     9 1   
    13     7    10 1   
    14     5     6 1   
    15     5     7 1   
    16     5    18 1   
    17     1     2 1   
    18     1     3 1   
    19     1     4 1   
    20     1     5 1   
    21    22    23 1   
    22    22    24 1   
    23    22    25 1   
    24    20    21 1   
    25    20    22 1   
@<TRIPOS>SUBSTRUCTURE
     1 NHI         1 TEMP              0 ****  ****    0 ROOT
