@<TRIPOS>MOLECULE
default_name
   17    16     1     0     0
SMALL
No Charge or Current Charge


@<TRIPOS>ATOM
      1 H1          25.8990    25.0810    24.2930 H          1 ACE       0.112300
      2 CH3         25.9590    26.1440    24.0680 C.3        1 ACE      -0.366200
      3 H2          25.4000    26.7140    24.8080 H          1 ACE       0.112300
      4 H3          25.5620    26.3390    23.0740 H          1 ACE       0.112300
      5 C           27.4070    26.5760    24.1110 C.2        1 ACE       0.597200
      6 O           28.2760    25.7470    24.3630 O.2        1 ACE      -0.567900
      7 N           27.6350    27.8640    23.8590 N.am       2 CAL      -0.567900
      8 H           26.8480    28.4800    23.7020 H          2 CAL      -0.567900
      9 CA          28.9120    28.5790    23.9140 C.3        2 CAL      -0.567900
     10 HA          29.4920    28.2330    24.7690 H          2 CAL      -0.567900
     11 CB          29.7000    28.3090    22.6230 C.3        2 CAL      -0.567900
     12 HB1         29.1280    28.6630    21.7640 H          2 CAL      -0.567900
     13 HB2         30.6480    28.8480    22.6650 H          2 CAL      -0.567900
     14 HB3         29.8960    27.2420    22.5230 H          2 CAL      -0.567900
     15 C           28.6550    30.0840    24.1230 C.2        2 CAL      -0.567900
     16 O           27.5120    30.5100    23.8300 O.co2      2 CAL      -0.567900
     17 OXT         29.5960    30.7660    24.5780 O.co2      2 CAL      -0.567900
@<TRIPOS>BOND
     1     5     6 2   
     2     5     7 am  
     3     2     3 1   
     4     2     4 1   
     5     2     5 1   
     6     1     2 1   
     7    15    16 1   
     8    15    17 1   
     9    11    12 1   
    10    11    13 1   
    11    11    14 1   
    12     9    10 1   
    13     9    11 1   
    14     9    15 1   
    15     7     8 1   
    16     7     9 1   
@<TRIPOS>SUBSTRUCTURE
     1 ACE         1 TEMP              0 ****  ****    0 ROOT
