@<TRIPOS>MOLECULE
default_name
   24    23     1     0     0
SMALL
No Charge or Current Charge


@<TRIPOS>ATOM
      1 H1          25.7620    25.1310    24.3140 H          1 ACE       0.112300
      2 CH3         25.8630    26.1870    24.0720 C.3        1 ACE      -0.366200
      3 H2          25.2990    26.7890    24.7820 H          1 ACE       0.112300
      4 H3          25.5070    26.3760    23.0620 H          1 ACE       0.112300
      5 C           27.3230    26.5730    24.1570 C.2        1 ACE       0.597200
      6 O           28.1560    25.7230    24.4570 O.2        1 ACE      -0.567900
      7 N           27.6030    27.8480    23.8870 N.am       2 CME      -0.567900
      8 H           26.8420    28.4820    23.6790 H          2 CME      -0.567900
      9 CA          28.9100    28.5150    23.9550 C.3        2 CME      -0.567900
     10 HA          29.4630    28.1530    24.8200 H          2 CME      -0.567900
     11 CB          29.7110    28.2070    22.6760 C.3        2 CME      -0.567900
     12 HB2         29.8730    27.1310    22.6110 H          2 CME      -0.567900
     13 HB3         29.1390    28.5290    21.8050 H          2 CME      -0.567900
     14 CG          31.0730    28.9090    22.6550 C.3        2 CME      -0.567900
     15 HG2         30.9110    29.9860    22.6040 H          2 CME      -0.567900
     16 HG3         31.5910    28.6880    23.5880 H          2 CME      -0.567900
     17 SD          32.1470    28.4290    21.2730 S.3        2 CME      -0.567900
     18 CE          33.5380    29.5350    21.6170 C.3        2 CME      -0.567900
     19 HE1         33.9430    29.3140    22.6050 H          2 CME      -0.567900
     20 HE2         34.3130    29.3910    20.8650 H          2 CME      -0.567900
     21 HE3         33.1950    30.5700    21.5920 H          2 CME      -0.567900
     22 C           28.7070    30.0210    24.1630 C.2        2 CME      -0.567900
     23 O           27.6600    30.5180    23.6880 O.co2      2 CME      -0.567900
     24 OXT         29.5870    30.6300    24.8060 O.co2      2 CME      -0.567900
@<TRIPOS>BOND
     1     5     6 2   
     2     5     7 am  
     3     2     3 1   
     4     2     4 1   
     5     2     5 1   
     6     1     2 1   
     7    22    23 1   
     8    22    24 1   
     9    18    19 1   
    10    18    20 1   
    11    18    21 1   
    12    17    18 1   
    13    14    15 1   
    14    14    16 1   
    15    14    17 1   
    16    11    12 1   
    17    11    13 1   
    18    11    14 1   
    19     9    10 1   
    20     9    11 1   
    21     9    22 1   
    22     7     8 1   
    23     7     9 1   
@<TRIPOS>SUBSTRUCTURE
     1 ACE         1 TEMP              0 ****  ****    0 ROOT
